0:0:0
     RDKit          3D

 92101  0  0  1  0  0  0  0  0999 V2000
  -30.0120  -18.6950   22.7450 C   0  0  0  0  0  3  0  0  0  0  0  0
  -30.3010  -17.4870   22.0420 C   0  0  0  0  0  3  0  0  0  0  0  0
  -30.0340  -18.5870   19.8300 C   0  0  0  0  0  3  0  0  0  0  0  0
  -29.7700  -19.8260   21.9540 C   0  0  0  0  0  0  0  0  0  0  0  0
  -29.8460  -19.8370   20.5300 C   0  0  0  0  0  0  0  0  0  0  0  0
  -30.2800  -17.3720   20.6130 C   0  0  0  0  0  0  0  0  0  0  0  0
  -29.2290  -21.2330   22.0470 C   0  0  0  0  0  2  0  0  0  0  0  0
  -29.3070  -21.3330   20.4410 C   0  0  0  0  0  3  0  0  0  0  0  0
  -31.0410  -14.8990   20.0090 C   0  0  0  0  0  0  0  0  0  0  0  0
  -30.8040  -12.6130   19.0010 C   0  0  0  0  0  2  0  0  0  0  0  0
  -29.8250  -12.6940   17.8090 C   0  0  0  0  0  2  0  0  0  0  0  0
  -28.3640  -12.5630   18.2930 C   0  0  0  0  0  2  0  0  0  0  0  0
  -28.0490  -13.4900   19.4990 C   0  0  0  0  0  3  0  0  0  0  0  0
  -29.1310  -13.3650   20.5910 C   0  0  0  0  0  2  0  0  0  0  0  0
  -30.4170  -13.6760   19.9550 N   0  0  0  0  0  0  0  0  0  0  0  0
  -32.2330  -15.0040   19.7070 O   0  0  0  0  0  0  0  0  0  0  0  0
  -30.1900  -15.9980   20.0640 N   0  0  0  0  0  0  0  0  0  0  0  0
  -29.2330  -15.6920   19.9780 H   0  0  0  0  0  0  0  0  0  0  0  0
  -25.7370  -14.2020   20.3620 C   0  0  0  0  0  0  0  0  0  0  0  0
  -24.6390  -13.4830   20.7450 C   0  0  0  0  0  0  0  0  0  0  0  0
  -25.0070  -12.1080   20.6360 C   0  0  0  0  0  0  0  0  0  0  0  0
  -26.7070  -13.2700   20.0320 N   0  0  0  0  0  0  0  0  0  0  0  0
  -26.2780  -12.0020   20.2620 N   0  0  0  0  0  0  0  0  0  0  0  0
  -24.2090  -10.8890   20.8070 C   0  0  0  0  0  0  0  0  0  0  0  0
  -24.5840   -9.8850   21.7270 C   0  0  0  0  0  3  0  0  0  0  0  0
  -23.7920   -8.7260   21.8840 C   0  0  0  0  0  3  0  0  0  0  0  0
  -22.6100   -8.5660   21.1240 C   0  0  0  0  0  0  0  0  0  0  0  0
  -22.2530   -9.5580   20.1970 C   0  0  0  0  0  3  0  0  0  0  0  0
  -23.0430  -10.7090   20.0350 C   0  0  0  0  0  3  0  0  0  0  0  0
  -21.7950   -7.4610   21.1910 O   0  0  0  0  0  0  0  0  0  0  0  0
  -21.6460   -6.7480   22.3530 C   0  0  0  0  0  0  0  0  0  0  0  0
  -21.1650   -7.3460   23.5380 C   0  0  0  0  0  3  0  0  0  0  0  0
  -20.9570   -6.5610   24.6900 C   0  0  0  0  0  3  0  0  0  0  0  0
  -21.2190   -5.1780   24.6540 C   0  0  0  0  0  0  0  0  0  0  0  0
  -21.6890   -4.5780   23.4740 C   0  0  0  0  0  3  0  0  0  0  0  0
  -21.8970   -5.3620   22.3260 C   0  0  0  0  0  0  0  0  0  0  0  0
  -22.3340   -4.7760   21.1870 F   0  0  0  0  0  0  0  0  0  0  0  0
  -21.0110   -4.4210   25.7590 F   0  0  0  0  0  0  0  0  0  0  0  0
  -23.2860  -14.0400   21.0950 C   0  0  0  0  0  0  0  0  0  0  0  0
  -22.5460  -13.3660   21.9660 N   0  0  0  0  0  0  0  0  0  0  0  0
  -22.8970  -15.1080   20.6260 O   0  0  0  0  0  0  0  0  0  0  0  0
  -22.8680  -12.5020   22.3770 H   0  0  0  0  0  0  0  0  0  0  0  0
  -21.6390  -13.7260   22.2260 H   0  0  0  0  0  0  0  0  0  0  0  0
  -25.9820  -15.5660   20.2330 N   0  0  0  0  0  0  0  0  0  0  0  0
  -25.2490  -16.2500   20.3880 H   0  0  0  0  0  0  0  0  0  0  0  0
  -26.8180  -15.9720   19.8300 H   0  0  0  0  0  0  0  0  0  0  0  0
  -30.2130  -22.5310   19.8840 C   0  0  0  0  0  2  0  0  0  0  0  0
  -30.8620  -24.5350   18.5200 C   0  0  0  0  0  1  0  0  0  0  0  0
  -28.5170  -23.6820   18.2940 C   0  0  0  0  0  1  0  0  0  0  0  0
  -29.6530  -23.9600   19.3010 C   0  0  1  0  0  0  0  0  0  0  0  0
  -29.1700  -25.1480   20.3070 C   0  0  0  0  0  2  0  0  0  0  0  0
  -29.1260  -26.5970   19.8920 O   0  0  0  0  0  0  0  0  0  0  0  0
  -24.6860  -31.3860   23.0690 C   0  0  0  0  0  0  0  0  0  0  0  0
  -27.9180  -27.3240   19.8960 C   0  0  0  0  0  0  0  0  0  0  0  0
  -23.7200  -29.9840   21.2800 C   0  0  0  0  0  3  0  0  0  0  0  0
  -25.3990  -28.6910   19.8430 C   0  0  0  0  0  0  0  0  0  0  0  0
  -26.2150  -30.5830   21.2520 C   0  0  0  0  0  2  0  0  0  0  0  0
  -26.4790  -29.2620   20.5300 C   0  0  0  0  0  0  0  0  0  0  0  0
  -27.7420  -28.5930   20.5400 C   0  0  0  0  0  3  0  0  0  0  0  0
  -26.8110  -26.8100   19.1950 C   0  0  0  0  0  3  0  0  0  0  0  0
  -25.5690  -27.4760   19.1610 C   0  0  0  0  0  3  0  0  0  0  0  0
  -24.0750  -29.4290   19.8750 C   0  0  0  0  0  2  0  0  0  0  0  0
  -24.8880  -30.6690   21.9260 N   0  0  0  0  0  0  0  0  0  0  0  0
  -23.5570  -31.5020   23.5680 O   0  0  0  0  0  0  0  0  0  0  0  0
  -23.1290  -28.8410   22.1410 C   0  0  0  0  0  0  0  0  0  0  0  0
  -21.8340  -28.5360   21.9460 N   0  0  0  0  0  0  0  0  0  0  0  0
  -23.8380  -28.2340   22.9470 O   0  0  0  0  0  0  0  0  0  0  0  0
  -21.3080  -29.0890   21.2830 H   0  0  0  0  0  0  0  0  0  0  0  0
  -18.5820  -26.9710   22.2310 C   0  0  0  0  0  0  0  0  0  0  0  0
  -21.0920  -27.4670   22.6170 C   0  0  0  0  0  3  0  0  0  0  0  0
  -21.3590  -26.1000   21.9470 C   0  0  0  0  0  2  0  0  0  0  0  0
  -20.3280  -25.7460   20.8710 C   0  0  0  0  0  2  0  0  0  0  0  0
  -18.9180  -25.7030   21.4660 C   0  0  0  0  0  2  0  0  0  0  0  0
  -19.6020  -27.8070   22.7580 C   0  0  0  0  0  0  0  0  0  0  0  0
  -19.2350  -28.9940   23.4300 C   0  0  0  0  0  3  0  0  0  0  0  0
  -17.8800  -29.3510   23.5740 C   0  0  0  0  0  3  0  0  0  0  0  0
  -16.8740  -28.5140   23.0620 C   0  0  0  0  0  3  0  0  0  0  0  0
  -17.2270  -27.3230   22.4020 C   0  0  0  0  0  3  0  0  0  0  0  0
  -25.8600  -32.1170   23.7950 C   0  0  0  0  0  3  0  0  0  0  0  0
  -26.3520  -31.3650   25.0900 C   0  0  1  0  0  0  0  0  0  0  0  0
  -25.2110  -31.0210   26.0760 C   0  0  0  0  0  1  0  0  0  0  0  0
  -27.0730  -30.0520   24.7130 C   0  0  0  0  0  1  0  0  0  0  0  0
  -27.3830  -32.2380   25.8440 C   0  0  0  0  0  1  0  0  0  0  0  0
  -25.4030  -33.4730   24.1320 N   0  0  0  0  0  0  0  0  0  0  0  0
  -25.6800  -34.5710   23.4150 C   0  0  0  0  0  0  0  0  0  0  0  0
  -26.4120  -34.5510   22.4220 O   0  0  0  0  0  0  0  0  0  0  0  0
  -24.7680  -33.5570   24.9120 H   0  0  0  0  0  0  0  0  0  0  0  0
  -23.8050  -36.1930   23.0060 C   0  0  0  0  0  1  0  0  0  0  0  0
  -25.0400  -35.8990   23.8730 C   0  0  0  0  0  3  0  0  0  0  0  0
  -27.0420  -36.9630   24.8160 C   0  0  0  0  0  1  0  0  0  0  0  0
  -25.9720  -37.0490   23.8230 N   0  0  0  0  0  0  0  0  0  0  0  0
  -25.4760  -37.9250   23.9690 H   0  0  0  0  0  0  0  0  0  0  0  0
  2  1  1  0
  3  5  2  0
  3  6  1  0
  4  7  1  0
  4  1  2  0
  5  4  1  0
  6  2  2  0
  8 47  1  0
  8  5  1  0
  8  7  1  0
  9 17  1  0
 10 15  1  0
 11 12  1  0
 11 10  1  0
 13 12  1  0
 13 22  1  0
 13 14  1  0
 15  9  1  0
 15 14  1  0
 16  9  2  0
 17  6  1  0
 18 17  1  0
 19 20  2  0
 20 39  1  0
 21 20  1  0
 21 24  1  0
 22 23  1  0
 22 19  1  0
 23 21  2  0
 24 25  1  0
 25 26  2  0
 27 30  1  0
 27 26  1  0
 28 27  2  0
 29 28  1  0
 29 24  2  0
 30 31  1  0
 31 32  1  0
 32 33  2  0
 34 33  1  0
 34 38  1  0
 35 34  2  0
 36 31  2  0
 36 35  1  0
 37 36  1  0
 39 40  1  0
 40 43  1  0
 40 42  1  0
 41 39  2  0
 44 19  1  0
 44 45  1  0
 46 44  1  0
 50 48  1  6
 49 50  1  0
 50 47  1  0
 50 51  1  0
 52 54  1  0
 52 51  1  0
 53 64  2  0
 54 59  1  0
 55 63  1  0
 55 65  1  0
 56 62  1  0
 56 58  1  0
 57 63  1  0
 58 59  2  0
 58 57  1  0
 60 54  2  0
 61 60  1  0
 61 56  2  0
 62 55  1  0
 63 53  1  0
 65 67  2  0
 66 65  1  0
 68 66  1  0
 69 78  2  0
 69 74  1  0
 70 66  1  0
 70 74  1  0
 71 70  1  0
 72 73  1  0
 72 71  1  0
 73 69  1  0
 74 75  2  0
 75 76  1  0
 77 76  2  0
 78 77  1  0
 79 53  1  0
 79 84  1  0
 79 80  1  0
 80 83  1  1
 80 81  1  0
 82 80  1  0
 84 87  1  0
 85 89  1  0
 85 84  1  0
 86 85  2  0
 89 88  1  0
 91 89  1  0
 91 92  1  0
 91 90  1  0
M  ISO  4   9 100  17 100  51 101  52 101
M  END
>  <TORSDO>  (1) 
F 19

>  <SCORE>  (1) 
-10.779

>  <name>  (1) 
0

>  <ligand_id>  (1) 
0

>  <original_smiles>  (1) 
[H]c1c([H])c([H])c2c(c1[H])C([H])([H])C([H])([H])C([H])([H])C2([H])N([H])C(=O)C1([H])N(C(=O)C([H])(N([H])C(=O)C([H])(N([H])C([H])([H])[H])C([H])([H])[H])C(C([H])([H])[H])(C([H])([H])[H])C([H])([H])[H])C([H])([H])c2c([H])c(OC([H])([H])C(C([H])([H])[H])(C([H])([H])[H])C([H])([H])C3([H])c4c([H])c(N([H])C(=O)N5C([H])([H])C([H])([H])C([H])([H])C([H])(n6nc(-c7c([H])c([H])c(Oc8c([H])c([H])c(F)c([H])c8F)c([H])c7[H])c(C(=O)N([H])[H])c6N([H])[H])C5([H])[H])c([H])c([H])c4C3([H])[H])c([H])c([H])c2C1([H])[H]

>  <smiles>  (1) 
[H]c1c([H])c([H])c2c(c1[H])C([H])([H])C([H])([H])C([H])([H])C2([H])N([H])C(=O)C1([H])N(C(=O)C([H])(N([H])C(=O)C([H])(N([H])C([H])([H])[H])C([H])([H])[H])C(C([H])([H])[H])(C([H])([H])[H])C([H])([H])[H])C([H])([H])c2c([H])c(OC([H])([H])C(C([H])([H])[H])(C([H])([H])[H])C([H])([H])C3([H])c4c([H])c(N([H])C(=O)N5C([H])([H])C([H])([H])C([H])([H])C([H])(n6nc(-c7c([H])c([H])c(Oc8c([H])c([H])c(F)c([H])c8F)c([H])c7[H])c(C(=O)N([H])[H])c6N([H])[H])C5([H])[H])c([H])c([H])c4C3([H])[H])c([H])c([H])c2C1([H])[H]

$$$$
1:0:0
     RDKit          3D

 93101  0  0  1  0  0  0  0  0999 V2000
  -29.1000  -22.2930   19.7680 C   0  0  0  0  0  3  0  0  0  0  0  0
  -28.0920  -23.4450   21.8180 C   0  0  0  0  0  1  0  0  0  0  0  0
  -30.3300  -24.2130   21.0700 C   0  0  0  0  0  1  0  0  0  0  0  0
  -28.9530  -23.7270   20.5730 C   0  0  1  0  0  0  0  0  0  0  0  0
  -28.2320  -24.9700   19.7980 C   0  0  0  0  0  2  0  0  0  0  0  0
  -28.3010  -26.4040   20.2650 O   0  0  0  0  0  0  0  0  0  0  0  0
  -24.6190  -31.9040   23.2390 C   0  0  0  0  0  0  0  0  0  0  0  0
  -27.1970  -27.2900   20.1750 C   0  0  0  0  0  0  0  0  0  0  0  0
  -23.4010  -30.4990   21.6180 C   0  0  0  0  0  3  0  0  0  0  0  0
  -24.8390  -28.9440   20.1790 C   0  0  0  0  0  0  0  0  0  0  0  0
  -25.9440  -30.8040   21.4150 C   0  0  0  0  0  2  0  0  0  0  0  0
  -26.0150  -29.4200   20.7710 C   0  0  0  0  0  0  0  0  0  0  0  0
  -27.1930  -28.6030   20.7630 C   0  0  0  0  0  3  0  0  0  0  0  0
  -26.0010  -26.9010   19.5250 C   0  0  0  0  0  3  0  0  0  0  0  0
  -24.8380  -27.6950   19.5450 C   0  0  0  0  0  3  0  0  0  0  0  0
  -23.6030  -29.8220   20.2380 C   0  0  0  0  0  2  0  0  0  0  0  0
  -24.6750  -31.0880   22.1460 N   0  0  0  0  0  0  0  0  0  0  0  0
  -23.5410  -32.1840   23.7830 O   0  0  0  0  0  0  0  0  0  0  0  0
  -22.7460  -29.4860   22.5870 C   0  0  0  0  0  0  0  0  0  0  0  0
  -21.4200  -29.3000   22.4680 N   0  0  0  0  0  0  0  0  0  0  0  0
  -23.4300  -28.8710   23.4090 O   0  0  0  0  0  0  0  0  0  0  0  0
  -20.9240  -29.8480   21.7790 H   0  0  0  0  0  0  0  0  0  0  0  0
  -18.0540  -28.0780   22.9880 C   0  0  0  0  0  0  0  0  0  0  0  0
  -20.6110  -28.3640   23.2500 C   0  0  0  0  0  3  0  0  0  0  0  0
  -20.7230  -26.9260   22.6930 C   0  0  0  0  0  2  0  0  0  0  0  0
  -19.6240  -26.5820   21.6840 C   0  0  0  0  0  2  0  0  0  0  0  0
  -18.2410  -26.7220   22.3280 C   0  0  0  0  0  2  0  0  0  0  0  0
  -19.1660  -28.8540   23.4080 C   0  0  0  0  0  0  0  0  0  0  0  0
  -18.9360  -30.1210   23.9870 C   0  0  0  0  0  3  0  0  0  0  0  0
  -17.6270  -30.6130   24.1490 C   0  0  0  0  0  3  0  0  0  0  0  0
  -16.5290  -29.8340   23.7450 C   0  0  0  0  0  3  0  0  0  0  0  0
  -16.7430  -28.5680   23.1700 C   0  0  0  0  0  3  0  0  0  0  0  0
  -25.9070  -32.5410   23.8450 C   0  0  0  0  0  3  0  0  0  0  0  0
  -25.6030  -33.9470   24.1550 N   0  0  0  0  0  0  0  0  0  0  0  0
  -25.9300  -34.9870   23.3780 C   0  0  0  0  0  0  0  0  0  0  0  0
  -26.5880  -34.8670   22.3410 O   0  0  0  0  0  0  0  0  0  0  0  0
  -25.0150  -34.1150   24.9580 H   0  0  0  0  0  0  0  0  0  0  0  0
  -24.2030  -36.7820   23.0190 C   0  0  0  0  0  1  0  0  0  0  0  0
  -25.4530  -36.3830   23.8210 C   0  0  0  0  0  3  0  0  0  0  0  0
  -27.5990  -37.2750   24.6130 C   0  0  0  0  0  1  0  0  0  0  0  0
  -26.4860  -37.4320   23.6800 N   0  0  0  0  0  0  0  0  0  0  0  0
  -26.0830  -38.3550   23.8200 H   0  0  0  0  0  0  0  0  0  0  0  0
  -26.4240  -31.7890   25.1320 C   0  0  1  0  0  0  0  0  0  0  0  0
  -25.3350  -31.5770   26.2080 C   0  0  0  0  0  1  0  0  0  0  0  0
  -26.9970  -30.4010   24.7650 C   0  0  0  0  0  1  0  0  0  0  0  0
  -27.5820  -32.5890   25.7760 C   0  0  0  0  0  1  0  0  0  0  0  0
  -29.6660  -22.8400   17.2600 C   0  0  0  0  0  1  0  0  0  0  0  0
  -30.1700  -22.3550   18.6300 C   0  0  0  0  0  2  0  0  0  0  0  0
  -29.3750  -21.0350   20.5590 O   0  0  0  0  0  0  0  0  0  0  0  0
  -28.5790  -18.2070   18.1790 C   0  0  0  0  0  3  0  0  0  0  0  0
  -29.0240  -17.0600   18.8610 C   0  0  0  0  0  3  0  0  0  0  0  0
  -28.6740  -19.4910   18.7480 C   0  0  0  0  0  3  0  0  0  0  0  0
  -29.6460  -18.4890   20.7330 C   0  0  0  0  0  3  0  0  0  0  0  0
  -29.5580  -17.1470   20.1640 C   0  0  0  0  0  0  0  0  0  0  0  0
  -29.2380  -19.7050   20.0310 C   0  0  0  0  0  0  0  0  0  0  0  0
  -30.5590  -14.7730   20.4420 C   0  0  0  0  0  0  0  0  0  0  0  0
  -30.4090  -12.4900   19.4420 C   0  0  0  0  0  2  0  0  0  0  0  0
  -29.4850  -12.5680   18.2060 C   0  0  0  0  0  2  0  0  0  0  0  0
  -28.0140  -12.3770   18.6170 C   0  0  0  0  0  2  0  0  0  0  0  0
  -27.6170  -13.2540   19.8340 C   0  0  0  0  0  3  0  0  0  0  0  0
  -28.6620  -13.1620   20.9680 C   0  0  0  0  0  2  0  0  0  0  0  0
  -29.9670  -13.5290   20.4020 N   0  0  0  0  0  0  0  0  0  0  0  0
  -31.7120  -14.9200   20.0230 O   0  0  0  0  0  0  0  0  0  0  0  0
  -29.8090  -15.8610   20.8580 N   0  0  0  0  0  0  0  0  0  0  0  0
  -29.0380  -15.5770   21.4450 H   0  0  0  0  0  0  0  0  0  0  0  0
  -25.2150  -13.8160   20.5420 C   0  0  0  0  0  0  0  0  0  0  0  0
  -24.1530  -13.0280   20.8970 C   0  0  0  0  0  0  0  0  0  0  0  0
  -24.6300  -11.6810   20.8550 C   0  0  0  0  0  0  0  0  0  0  0  0
  -26.2690  -12.9480   20.3060 N   0  0  0  0  0  0  0  0  0  0  0  0
  -25.9230  -11.6590   20.5560 N   0  0  0  0  0  0  0  0  0  0  0  0
  -23.9140  -10.4090   21.0290 C   0  0  0  0  0  0  0  0  0  0  0  0
  -24.3540   -9.4340   21.9510 C   0  0  0  0  0  3  0  0  0  0  0  0
  -23.6380   -8.2270   22.1130 C   0  0  0  0  0  3  0  0  0  0  0  0
  -22.4680   -7.9890   21.3540 C   0  0  0  0  0  0  0  0  0  0  0  0
  -22.0480   -8.9530   20.4210 C   0  0  0  0  0  3  0  0  0  0  0  0
  -22.7640  -10.1510   20.2570 C   0  0  0  0  0  3  0  0  0  0  0  0
  -21.7250   -6.8360   21.4270 O   0  0  0  0  0  0  0  0  0  0  0  0
  -21.6870   -6.0740   22.5660 C   0  0  0  0  0  0  0  0  0  0  0  0
  -21.2490   -6.6000   23.8010 C   0  0  0  0  0  3  0  0  0  0  0  0
  -21.1590   -5.7660   24.9310 C   0  0  0  0  0  3  0  0  0  0  0  0
  -21.4980   -4.4030   24.8290 C   0  0  0  0  0  0  0  0  0  0  0  0
  -21.9280   -3.8740   23.5990 C   0  0  0  0  0  3  0  0  0  0  0  0
  -22.0200   -4.7080   22.4710 C   0  0  0  0  0  0  0  0  0  0  0  0
  -22.4150   -4.1890   21.2830 F   0  0  0  0  0  0  0  0  0  0  0  0
  -21.4050   -3.5960   25.9130 F   0  0  0  0  0  0  0  0  0  0  0  0
  -22.7500  -13.4880   21.1640 C   0  0  0  0  0  0  0  0  0  0  0  0
  -22.0210  -12.7750   22.0150 N   0  0  0  0  0  0  0  0  0  0  0  0
  -22.3060  -14.5150   20.6520 O   0  0  0  0  0  0  0  0  0  0  0  0
  -22.3920  -11.9450   22.4520 H   0  0  0  0  0  0  0  0  0  0  0  0
  -21.0790  -13.0660   22.2360 H   0  0  0  0  0  0  0  0  0  0  0  0
  -25.3690  -15.1890   20.3820 N   0  0  0  0  0  0  0  0  0  0  0  0
  -24.6010  -15.8390   20.5020 H   0  0  0  0  0  0  0  0  0  0  0  0
  -26.2200  -15.6410   20.0720 H   0  0  0  0  0  0  0  0  0  0  0  0
  1 48  1  0
  1 49  1  0
  1  4  1  0
  4  3  1  1
  4  2  1  0
  5  6  1  0
  5  4  1  0
  7 18  2  0
  8  6  1  0
  8 13  1  0
  9 17  1  0
  9 19  1  0
 10 16  1  0
 10 12  1  0
 11 17  1  0
 12 11  1  0
 13 12  2  0
 14 15  1  0
 14  8  2  0
 15 10  2  0
 16  9  1  0
 17  7  1  0
 19 21  2  0
 20 19  1  0
 22 20  1  0
 23 32  2  0
 23 28  1  0
 24 20  1  0
 24 28  1  0
 25 24  1  0
 26 27  1  0
 26 25  1  0
 27 23  1  0
 28 29  2  0
 29 30  1  0
 31 30  2  0
 32 31  1  0
 33  7  1  0
 33 34  1  0
 33 43  1  0
 34 37  1  0
 35 39  1  0
 35 34  1  0
 36 35  2  0
 39 38  1  0
 41 42  1  0
 41 39  1  0
 41 40  1  0
 43 46  1  1
 43 44  1  0
 45 43  1  0
 47 48  1  0
 50 52  2  0
 50 51  1  0
 51 54  2  0
 52 55  1  0
 54 53  1  0
 54 64  1  0
 55 49  1  0
 55 53  2  0
 56 64  1  0
 57 62  1  0
 58 59  1  0
 58 57  1  0
 60 59  1  0
 60 69  1  0
 60 61  1  0
 62 56  1  0
 62 61  1  0
 63 56  2  0
 64 65  1  0
 66 67  2  0
 67 86  1  0
 68 67  1  0
 68 71  1  0
 69 66  1  0
 69 70  1  0
 70 68  2  0
 71 72  1  0
 72 73  2  0
 74 77  1  0
 74 73  1  0
 75 74  2  0
 76 75  1  0
 76 71  2  0
 77 78  1  0
 78 79  1  0
 79 80  2  0
 81 80  1  0
 81 85  1  0
 82 81  2  0
 83 78  2  0
 83 82  1  0
 84 83  1  0
 86 87  1  0
 87 90  1  0
 87 89  1  0
 88 86  2  0
 91 92  1  0
 91 66  1  0
 93 91  1  0
M  ISO  4   5 101   6 101  56 100  64 100
M  END
>  <TORSDO>  (2) 
F 21

>  <SCORE>  (2) 
-13.604

>  <name>  (2) 
1

>  <ligand_id>  (2) 
1

>  <original_smiles>  (2) 
[H]c1c([H])c(OC([H])(C([H])([H])C([H])([H])[H])C(C([H])([H])[H])(C([H])([H])[H])C([H])([H])Oc2c([H])c([H])c3c(c2[H])C([H])([H])N(C(=O)C([H])(N([H])C(=O)C([H])(N([H])C([H])([H])[H])C([H])([H])[H])C(C([H])([H])[H])(C([H])([H])[H])C([H])([H])[H])C([H])(C(=O)N([H])C2([H])c4c([H])c([H])c([H])c([H])c4C([H])([H])C([H])([H])C2([H])[H])C3([H])[H])c([H])c(N([H])C(=O)N2C([H])([H])C([H])([H])C([H])([H])C([H])(n3nc(-c4c([H])c([H])c(Oc5c([H])c([H])c(F)c([H])c5F)c([H])c4[H])c(C(=O)N([H])[H])c3N([H])[H])C2([H])[H])c1[H]

>  <smiles>  (2) 
[H]c1c([H])c(OC([H])(C([H])([H])C([H])([H])[H])C(C([H])([H])[H])(C([H])([H])[H])C([H])([H])Oc2c([H])c([H])c3c(c2[H])C([H])([H])N(C(=O)C([H])(N([H])C(=O)C([H])(N([H])C([H])([H])[H])C([H])([H])[H])C(C([H])([H])[H])(C([H])([H])[H])C([H])([H])[H])C([H])(C(=O)N([H])C2([H])c4c([H])c([H])c([H])c([H])c4C([H])([H])C([H])([H])C2([H])[H])C3([H])[H])c([H])c(N([H])C(=O)N2C([H])([H])C([H])([H])C([H])([H])C([H])(n3nc(-c4c([H])c([H])c(Oc5c([H])c([H])c(F)c([H])c5F)c([H])c4[H])c(C(=O)N([H])[H])c3N([H])[H])C2([H])[H])c1[H]

$$$$
2:0:0
     RDKit          3D

 94103  0  0  1  0  0  0  0  0999 V2000
  -30.4540  -18.2460   18.0120 C   0  0  0  0  0  3  0  0  0  0  0  0
  -30.6390  -17.0550   18.7660 C   0  0  0  0  0  3  0  0  0  0  0  0
  -29.3660  -17.8900   20.7020 C   0  0  0  0  0  3  0  0  0  0  0  0
  -29.7070  -19.2080   18.6560 C   0  0  0  0  0  0  0  0  0  0  0  0
  -29.1760  -19.0590   19.9470 C   0  0  0  0  0  0  0  0  0  0  0  0
  -30.1020  -16.8540   20.0650 C   0  0  0  0  0  0  0  0  0  0  0  0
  -29.0520  -20.5350   18.4630 C   0  0  0  0  0  2  0  0  0  0  0  0
  -28.4460  -20.3920   19.9490 C   0  0  1  0  0  0  0  0  0  0  0  0
  -26.9480  -20.1120   20.0830 C   0  0  0  0  0  1  0  0  0  0  0  0
  -30.8990  -14.5080   20.3500 C   0  0  0  0  0  0  0  0  0  0  0  0
  -30.5540  -12.3150   19.2920 C   0  0  0  0  0  2  0  0  0  0  0  0
  -29.6260  -12.5470   18.0770 C   0  0  0  0  0  2  0  0  0  0  0  0
  -28.1530  -12.4180   18.5120 C   0  0  0  0  0  2  0  0  0  0  0  0
  -27.8260  -13.2690   19.7620 C   0  0  0  0  0  3  0  0  0  0  0  0
  -28.8820  -13.0910   20.8700 C   0  0  0  0  0  2  0  0  0  0  0  0
  -30.2210  -13.3440   20.3060 N   0  0  0  0  0  0  0  0  0  0  0  0
  -32.0500  -14.6120   19.9020 O   0  0  0  0  0  0  0  0  0  0  0  0
  -30.1910  -15.5900   20.7450 N   0  0  0  0  0  0  0  0  0  0  0  0
  -29.4320  -15.3630   21.3610 H   0  0  0  0  0  0  0  0  0  0  0  0
  -25.4340  -13.9250   20.4700 C   0  0  0  0  0  0  0  0  0  0  0  0
  -24.3530  -13.1620   20.8390 C   0  0  0  0  0  0  0  0  0  0  0  0
  -24.7940  -11.8100   20.7930 C   0  0  0  0  0  0  0  0  0  0  0  0
  -26.4680  -13.0220   20.2480 N   0  0  0  0  0  0  0  0  0  0  0  0
  -26.0800  -11.7480   20.4960 N   0  0  0  0  0  0  0  0  0  0  0  0
  -24.0460  -10.5510   20.9800 C   0  0  0  0  0  0  0  0  0  0  0  0
  -24.4440   -9.5880   21.9360 C   0  0  0  0  0  3  0  0  0  0  0  0
  -23.6930   -8.4030   22.1140 C   0  0  0  0  0  3  0  0  0  0  0  0
  -22.5290   -8.1730   21.3370 C   0  0  0  0  0  0  0  0  0  0  0  0
  -22.1530   -9.1260   20.3700 C   0  0  0  0  0  3  0  0  0  0  0  0
  -22.9070  -10.3030   20.1900 C   0  0  0  0  0  3  0  0  0  0  0  0
  -21.7570   -7.0410   21.4150 O   0  0  0  0  0  0  0  0  0  0  0  0
  -21.6490   -6.3200   22.5800 C   0  0  0  0  0  0  0  0  0  0  0  0
  -21.1600   -6.9000   23.7690 C   0  0  0  0  0  3  0  0  0  0  0  0
  -21.0060   -6.1060   24.9210 C   0  0  0  0  0  3  0  0  0  0  0  0
  -21.3340   -4.7360   24.8850 C   0  0  0  0  0  0  0  0  0  0  0  0
  -21.8250   -4.1630   23.6960 C   0  0  0  0  0  3  0  0  0  0  0  0
  -21.9810   -4.9530   22.5470 C   0  0  0  0  0  0  0  0  0  0  0  0
  -22.4290   -4.3890   21.3940 F   0  0  0  0  0  0  0  0  0  0  0  0
  -21.1810   -3.9710   25.9860 F   0  0  0  0  0  0  0  0  0  0  0  0
  -22.9680  -13.6680   21.1100 C   0  0  0  0  0  0  0  0  0  0  0  0
  -22.2340  -12.9650   21.9730 N   0  0  0  0  0  0  0  0  0  0  0  0
  -22.5390  -14.6940   20.5830 O   0  0  0  0  0  0  0  0  0  0  0  0
  -22.5920  -12.1350   22.4180 H   0  0  0  0  0  0  0  0  0  0  0  0
  -21.3060  -13.2780   22.2060 H   0  0  0  0  0  0  0  0  0  0  0  0
  -25.6260  -15.2870   20.3090 N   0  0  0  0  0  0  0  0  0  0  0  0
  -24.8660  -15.9510   20.3950 H   0  0  0  0  0  0  0  0  0  0  0  0
  -26.4990  -15.7180   20.0350 H   0  0  0  0  0  0  0  0  0  0  0  0
  -28.9300  -21.3970   21.0530 C   0  0  0  0  0  2  0  0  0  0  0  0
  -29.2410  -22.9140   20.6680 C   0  0  0  0  0  2  0  0  0  0  0  0
  -26.9160  -23.7700   21.2350 C   0  0  0  0  0  1  0  0  0  0  0  0
  -27.7090  -23.7060   18.8200 C   0  0  0  0  0  1  0  0  0  0  0  0
  -28.1040  -23.9700   20.2760 C   0  0  2  0  0  0  0  0  0  0  0  0
  -28.6110  -25.4840   20.4310 C   0  0  0  0  0  2  0  0  0  0  0  0
  -28.4450  -26.7590   19.8380 O   0  0  0  0  0  0  0  0  0  0  0  0
  -24.6230  -31.8200   23.2340 C   0  0  0  0  0  0  0  0  0  0  0  0
  -27.3080  -27.4340   20.1210 C   0  0  0  0  0  0  0  0  0  0  0  0
  -23.4700  -30.4370   21.5660 C   0  0  0  0  0  3  0  0  0  0  0  0
  -24.9450  -28.9230   20.1650 C   0  0  0  0  0  0  0  0  0  0  0  0
  -26.0120  -30.8070   21.4130 C   0  0  0  0  0  2  0  0  0  0  0  0
  -26.1170  -29.4580   20.7300 C   0  0  0  0  0  0  0  0  0  0  0  0
  -27.3290  -28.7340   20.6670 C   0  0  0  0  0  3  0  0  0  0  0  0
  -26.1390  -26.8880   19.6000 C   0  0  0  0  0  3  0  0  0  0  0  0
  -24.9680  -27.6440   19.5990 C   0  0  0  0  0  3  0  0  0  0  0  0
  -23.7140  -29.7960   20.1820 C   0  0  0  0  0  2  0  0  0  0  0  0
  -24.7190  -31.0330   22.1260 N   0  0  0  0  0  0  0  0  0  0  0  0
  -23.5270  -32.0780   23.7660 O   0  0  0  0  0  0  0  0  0  0  0  0
  -22.8130  -29.3850   22.4950 C   0  0  0  0  0  0  0  0  0  0  0  0
  -21.4930  -29.2050   22.3490 N   0  0  0  0  0  0  0  0  0  0  0  0
  -23.4880  -28.7350   23.2970 O   0  0  0  0  0  0  0  0  0  0  0  0
  -20.9860  -29.7850   21.6850 H   0  0  0  0  0  0  0  0  0  0  0  0
  -18.1280  -27.9740   22.7690 C   0  0  0  0  0  0  0  0  0  0  0  0
  -20.6810  -28.2100   23.0580 C   0  0  0  0  0  3  0  0  0  0  0  0
  -20.7940  -26.8090   22.4290 C   0  0  0  0  0  2  0  0  0  0  0  0
  -19.6750  -26.4580   21.4360 C   0  0  0  0  0  2  0  0  0  0  0  0
  -18.2860  -26.6390   22.0600 C   0  0  0  0  0  2  0  0  0  0  0  0
  -19.2420  -28.7120   23.2310 C   0  0  0  0  0  0  0  0  0  0  0  0
  -19.0400  -29.9340   23.8750 C   0  0  0  0  0  3  0  0  0  0  0  0
  -17.7320  -30.4400   24.0760 C   0  0  0  0  0  3  0  0  0  0  0  0
  -16.6280  -29.7120   23.6260 C   0  0  0  0  0  3  0  0  0  0  0  0
  -16.8170  -28.4820   22.9760 C   0  0  0  0  0  3  0  0  0  0  0  0
  -25.8690  -32.4590   23.9040 C   0  0  0  0  0  3  0  0  0  0  0  0
  -26.3400  -31.7190   25.2150 C   0  0  1  0  0  0  0  0  0  0  0  0
  -25.2090  -31.5050   26.2510 C   0  0  0  0  0  1  0  0  0  0  0  0
  -26.9400  -30.3320   24.8790 C   0  0  0  0  0  1  0  0  0  0  0  0
  -27.4660  -32.5370   25.9070 C   0  0  0  0  0  1  0  0  0  0  0  0
  -25.5470  -33.8590   24.1900 N   0  0  0  0  0  0  0  0  0  0  0  0
  -25.9190  -34.9090   23.4280 C   0  0  0  0  0  0  0  0  0  0  0  0
  -26.6200  -34.8010   22.4170 O   0  0  0  0  0  0  0  0  0  0  0  0
  -24.9150  -34.0330   24.9610 H   0  0  0  0  0  0  0  0  0  0  0  0
  -24.2070  -36.7010   22.9730 C   0  0  0  0  0  1  0  0  0  0  0  0
  -25.4150  -36.3010   23.8420 C   0  0  0  0  0  3  0  0  0  0  0  0
  -27.5090  -37.2050   24.7510 C   0  0  0  0  0  1  0  0  0  0  0  0
  -26.4570  -37.3520   23.7500 N   0  0  0  0  0  0  0  0  0  0  0  0
  -26.0500  -38.2790   23.8470 H   0  0  0  0  0  0  0  0  0  0  0  0
  1  4  2  0
  1  2  1  0
  2  6  2  0
  4  5  1  0
  5  8  1  0
  5  3  2  0
  6  3  1  0
  6 18  1  0
  7  4  1  0
  7  8  1  0
  8  9  1  6
  8 48  1  0
 10 18  1  0
 11 16  1  0
 12 13  1  0
 12 11  1  0
 14 13  1  0
 14 23  1  0
 14 15  1  0
 16 10  1  0
 16 15  1  0
 17 10  2  0
 18 19  1  0
 20 21  2  0
 21 40  1  0
 22 21  1  0
 22 25  1  0
 23 20  1  0
 23 24  1  0
 24 22  2  0
 25 26  1  0
 26 27  2  0
 28 31  1  0
 28 27  1  0
 29 28  2  0
 30 29  1  0
 30 25  2  0
 31 32  1  0
 32 33  1  0
 33 34  2  0
 35 34  1  0
 35 39  1  0
 36 35  2  0
 37 32  2  0
 37 36  1  0
 38 37  1  0
 40 41  1  0
 41 44  1  0
 41 43  1  0
 42 40  2  0
 45 46  1  0
 45 20  1  0
 47 45  1  0
 49 48  1  0
 52 51  1  6
 52 53  1  0
 52 49  1  0
 52 50  1  0
 54 56  1  0
 54 53  1  0
 55 66  2  0
 56 61  1  0
 57 65  1  0
 57 67  1  0
 58 64  1  0
 58 60  1  0
 59 65  1  0
 60 59  1  0
 61 60  2  0
 62 56  2  0
 63 62  1  0
 63 58  2  0
 64 57  1  0
 65 55  1  0
 67 69  2  0
 68 67  1  0
 70 68  1  0
 71 80  2  0
 71 76  1  0
 72 68  1  0
 72 76  1  0
 73 72  1  0
 74 75  1  0
 74 73  1  0
 75 71  1  0
 76 77  2  0
 77 78  1  0
 79 78  2  0
 80 79  1  0
 81 55  1  0
 81 86  1  0
 81 82  1  0
 82 85  1  1
 82 83  1  0
 84 82  1  0
 86 89  1  0
 87 91  1  0
 87 86  1  0
 88 87  2  0
 91 90  1  0
 93 91  1  0
 93 94  1  0
 93 92  1  0
M  ISO  4  10 100  18 100  53 101  54 101
M  END
>  <TORSDO>  (3) 
F 20

>  <SCORE>  (3) 
-13.416

>  <name>  (3) 
2

>  <ligand_id>  (3) 
2

>  <original_smiles>  (3) 
[H]c1c([H])c([H])c2c(c1[H])C([H])([H])C([H])([H])C([H])([H])C2([H])N([H])C(=O)C1([H])N(C(=O)C([H])(N([H])C(=O)C([H])(N([H])C([H])([H])[H])C([H])([H])[H])C(C([H])([H])[H])(C([H])([H])[H])C([H])([H])[H])C([H])([H])c2c([H])c(OC([H])([H])C(C([H])([H])[H])(C([H])([H])[H])C([H])([H])C([H])([H])C3(C([H])([H])[H])c4c([H])c(N([H])C(=O)N5C([H])([H])C([H])([H])C([H])([H])C([H])(n6nc(-c7c([H])c([H])c(Oc8c([H])c([H])c(F)c([H])c8F)c([H])c7[H])c(C(=O)N([H])[H])c6N([H])[H])C5([H])[H])c([H])c([H])c4C3([H])[H])c([H])c([H])c2C1([H])[H]

>  <smiles>  (3) 
[H]c1c([H])c([H])c2c(c1[H])C([H])([H])C([H])([H])C([H])([H])C2([H])N([H])C(=O)C1([H])N(C(=O)C([H])(N([H])C(=O)C([H])(N([H])C([H])([H])[H])C([H])([H])[H])C(C([H])([H])[H])(C([H])([H])[H])C([H])([H])[H])C([H])([H])c2c([H])c(OC([H])([H])C(C([H])([H])[H])(C([H])([H])[H])C([H])([H])C([H])([H])C3(C([H])([H])[H])c4c([H])c(N([H])C(=O)N5C([H])([H])C([H])([H])C([H])([H])C([H])(n6nc(-c7c([H])c([H])c(Oc8c([H])c([H])c(F)c([H])c8F)c([H])c7[H])c(C(=O)N([H])[H])c6N([H])[H])C5([H])[H])c([H])c([H])c4C3([H])[H])c([H])c([H])c2C1([H])[H]

$$$$
3:0:0
     RDKit          3D

 89 98  0  0  1  0  0  0  0  0999 V2000
  -28.7900  -21.8480   20.7810 C   0  0  0  0  0  2  0  0  0  0  0  0
  -30.5210  -15.1050   20.3450 C   0  0  0  0  0  0  0  0  0  0  0  0
  -30.4610  -12.7290   19.4410 C   0  0  0  0  0  2  0  0  0  0  0  0
  -29.5460  -12.6520   18.1950 C   0  0  0  0  0  2  0  0  0  0  0  0
  -28.0750  -12.4380   18.6070 C   0  0  0  0  0  2  0  0  0  0  0  0
  -27.6390  -13.3610   19.7760 C   0  0  0  0  0  3  0  0  0  0  0  0
  -28.6810  -13.4020   20.9130 C   0  0  0  0  0  2  0  0  0  0  0  0
  -29.9490  -13.8290   20.3080 N   0  0  0  0  0  0  0  0  0  0  0  0
  -31.7490  -15.1590   20.2020 O   0  0  0  0  0  0  0  0  0  0  0  0
  -29.3070  -19.0540   17.9530 C   0  0  0  0  0  3  0  0  0  0  0  0
  -29.1620  -20.2710   18.6840 C   0  0  0  0  0  3  0  0  0  0  0  0
  -29.4460  -19.0630   20.8310 C   0  0  0  0  0  3  0  0  0  0  0  0
  -29.5350  -17.8770   18.6820 C   0  0  0  0  0  0  0  0  0  0  0  0
  -29.1900  -20.3670   20.1130 C   0  0  0  0  0  0  0  0  0  0  0  0
  -29.6640  -17.7900   20.1010 C   0  0  0  0  0  0  0  0  0  0  0  0
  -29.5670  -16.3820   18.5210 C   0  0  0  0  0  2  0  0  0  0  0  0
  -29.6950  -16.2380   20.0260 N   0  0  0  0  0  0  0  0  0  0  0  0
  -25.2440  -13.9250   20.4710 C   0  0  0  0  0  0  0  0  0  0  0  0
  -24.1790  -13.1440   20.8240 C   0  0  0  0  0  0  0  0  0  0  0  0
  -24.6550  -11.7960   20.8150 C   0  0  0  0  0  0  0  0  0  0  0  0
  -26.2990  -13.0530   20.2580 N   0  0  0  0  0  0  0  0  0  0  0  0
  -25.9530  -11.7680   20.5300 N   0  0  0  0  0  0  0  0  0  0  0  0
  -23.9360  -10.5300   21.0020 C   0  0  0  0  0  0  0  0  0  0  0  0
  -24.3490   -9.5800   21.9610 C   0  0  0  0  0  3  0  0  0  0  0  0
  -23.6280   -8.3790   22.1360 C   0  0  0  0  0  3  0  0  0  0  0  0
  -22.4790   -8.1200   21.3500 C   0  0  0  0  0  0  0  0  0  0  0  0
  -22.0860   -9.0590   20.3810 C   0  0  0  0  0  3  0  0  0  0  0  0
  -22.8080  -10.2510   20.2040 C   0  0  0  0  0  3  0  0  0  0  0  0
  -21.7330   -6.9690   21.4320 O   0  0  0  0  0  0  0  0  0  0  0  0
  -21.6430   -6.2510   22.5960 C   0  0  0  0  0  0  0  0  0  0  0  0
  -21.1360   -6.8190   23.7860 C   0  0  0  0  0  3  0  0  0  0  0  0
  -20.9970   -6.0270   24.9420 C   0  0  0  0  0  3  0  0  0  0  0  0
  -21.3520   -4.6650   24.9090 C   0  0  0  0  0  0  0  0  0  0  0  0
  -21.8520   -4.0950   23.7250 C   0  0  0  0  0  3  0  0  0  0  0  0
  -21.9930   -4.8860   22.5710 C   0  0  0  0  0  0  0  0  0  0  0  0
  -22.4550   -4.3270   21.4260 F   0  0  0  0  0  0  0  0  0  0  0  0
  -21.2110   -3.9000   26.0170 F   0  0  0  0  0  0  0  0  0  0  0  0
  -22.7720  -13.6120   21.0620 C   0  0  0  0  0  0  0  0  0  0  0  0
  -22.0320  -12.9180   21.9190 N   0  0  0  0  0  0  0  0  0  0  0  0
  -22.3390  -14.6300   20.5230 O   0  0  0  0  0  0  0  0  0  0  0  0
  -22.3950  -12.0970   22.3780 H   0  0  0  0  0  0  0  0  0  0  0  0
  -21.0860  -13.2140   22.1190 H   0  0  0  0  0  0  0  0  0  0  0  0
  -25.4020  -15.2970   20.2890 N   0  0  0  0  0  0  0  0  0  0  0  0
  -24.6350  -15.9510   20.3960 H   0  0  0  0  0  0  0  0  0  0  0  0
  -26.2670  -15.7440   20.0140 H   0  0  0  0  0  0  0  0  0  0  0  0
  -28.8510  -23.3860   20.1130 C   0  0  0  0  0  0  0  0  0  0  0  0
  -29.6260  -23.5630   19.1660 O   0  0  0  0  0  0  0  0  0  0  0  0
  -27.9580  -24.7030   20.6260 C   0  0  0  0  0  2  0  0  0  0  0  0
  -28.2570  -26.2040   20.2620 O   0  0  0  0  0  0  0  0  0  0  0  0
  -24.5740  -31.9130   23.2340 C   0  0  0  0  0  0  0  0  0  0  0  0
  -27.2030  -27.1980   20.2320 C   0  0  0  0  0  0  0  0  0  0  0  0
  -23.3990  -30.5160   21.5790 C   0  0  0  0  0  3  0  0  0  0  0  0
  -24.8700  -28.9450   20.1710 C   0  0  0  0  0  0  0  0  0  0  0  0
  -25.9540  -30.7880   21.4430 C   0  0  0  0  0  2  0  0  0  0  0  0
  -26.0430  -29.3950   20.7910 C   0  0  0  0  0  0  0  0  0  0  0  0
  -27.2130  -28.5400   20.7990 C   0  0  0  0  0  3  0  0  0  0  0  0
  -26.0030  -26.8560   19.5710 C   0  0  0  0  0  3  0  0  0  0  0  0
  -24.8650  -27.6910   19.5440 C   0  0  0  0  0  3  0  0  0  0  0  0
  -23.6390  -29.8410   20.2020 C   0  0  0  0  0  2  0  0  0  0  0  0
  -24.6620  -31.0950   22.1400 N   0  0  0  0  0  0  0  0  0  0  0  0
  -23.4800  -32.1920   23.7490 O   0  0  0  0  0  0  0  0  0  0  0  0
  -22.7130  -29.5050   22.5310 C   0  0  0  0  0  0  0  0  0  0  0  0
  -21.3870  -29.3290   22.3900 N   0  0  0  0  0  0  0  0  0  0  0  0
  -23.3770  -28.8800   23.3630 O   0  0  0  0  0  0  0  0  0  0  0  0
  -20.9070  -29.8830   21.6940 H   0  0  0  0  0  0  0  0  0  0  0  0
  -18.0000  -28.1300   22.8710 C   0  0  0  0  0  0  0  0  0  0  0  0
  -20.5600  -28.3870   23.1500 C   0  0  0  0  0  3  0  0  0  0  0  0
  -20.6610  -26.9590   22.5650 C   0  0  0  0  0  2  0  0  0  0  0  0
  -19.5620  -26.6460   21.5440 C   0  0  0  0  0  2  0  0  0  0  0  0
  -18.1780  -26.7870   22.1830 C   0  0  0  0  0  2  0  0  0  0  0  0
  -19.1190  -28.8880   23.3110 C   0  0  0  0  0  0  0  0  0  0  0  0
  -18.8970  -30.1450   23.9150 C   0  0  0  0  0  3  0  0  0  0  0  0
  -17.5920  -30.6430   24.0850 C   0  0  0  0  0  3  0  0  0  0  0  0
  -16.4890  -29.8820   23.6600 C   0  0  0  0  0  3  0  0  0  0  0  0
  -16.6940  -28.6280   23.0590 C   0  0  0  0  0  3  0  0  0  0  0  0
  -25.8420  -32.5540   23.8770 C   0  0  0  0  0  3  0  0  0  0  0  0
  -25.5270  -33.9580   24.1850 N   0  0  0  0  0  0  0  0  0  0  0  0
  -25.8790  -35.0060   23.4270 C   0  0  0  0  0  0  0  0  0  0  0  0
  -26.5710  -34.8900   22.4110 O   0  0  0  0  0  0  0  0  0  0  0  0
  -24.9160  -34.1220   24.9720 H   0  0  0  0  0  0  0  0  0  0  0  0
  -24.1790  -36.8140   23.0130 C   0  0  0  0  0  1  0  0  0  0  0  0
  -25.3910  -36.4020   23.8630 C   0  0  0  0  0  3  0  0  0  0  0  0
  -27.5040  -37.2780   24.7580 C   0  0  0  0  0  1  0  0  0  0  0  0
  -26.4360  -37.4460   23.7760 N   0  0  0  0  0  0  0  0  0  0  0  0
  -26.0330  -38.3700   23.9010 H   0  0  0  0  0  0  0  0  0  0  0  0
  -26.3220  -31.8030   25.1800 C   0  0  1  0  0  0  0  0  0  0  0  0
  -25.2020  -31.5890   26.2250 C   0  0  0  0  0  1  0  0  0  0  0  0
  -26.9090  -30.4160   24.8310 C   0  0  0  0  0  1  0  0  0  0  0  0
  -27.4590  -32.6040   25.8560 C   0  0  0  0  0  1  0  0  0  0  0  0
  3  8  1  0
  4  5  1  0
  4  3  1  0
  6  5  1  0
  6 21  1  0
  6  7  1  0
  8  2  1  0
  8  7  1  0
  9  2  2  0
 10 13  2  0
 10 11  1  0
 11 14  2  0
 13 15  1  0
 14  1  1  0
 14 12  1  0
 15 12  2  0
 16 13  1  0
 16 17  1  0
 17 15  1  0
 17  2  1  0
 18 19  2  0
 19 38  1  0
 20 19  1  0
 20 23  1  0
 21 18  1  0
 21 22  1  0
 22 20  2  0
 23 24  1  0
 24 25  2  0
 26 29  1  0
 26 25  1  0
 27 26  2  0
 28 27  1  0
 28 23  2  0
 29 30  1  0
 30 31  1  0
 31 32  2  0
 33 32  1  0
 33 37  1  0
 34 33  2  0
 35 30  2  0
 35 34  1  0
 36 35  1  0
 38 39  1  0
 39 42  1  0
 39 41  1  0
 40 38  2  0
 43 44  1  0
 43 18  1  0
 45 43  1  0
 46 48  1  0
 46  1  1  0
 47 46  2  0
 49 48  1  0
 50 61  2  0
 51 49  1  0
 51 56  1  0
 52 60  1  0
 52 62  1  0
 53 59  1  0
 53 55  1  0
 54 60  1  0
 55 56  2  0
 55 54  1  0
 57 51  2  0
 58 57  1  0
 58 53  2  0
 59 52  1  0
 60 50  1  0
 62 64  2  0
 63 62  1  0
 65 63  1  0
 66 75  2  0
 66 71  1  0
 67 63  1  0
 67 71  1  0
 68 67  1  0
 69 70  1  0
 69 68  1  0
 70 66  1  0
 71 72  2  0
 72 73  1  0
 74 73  2  0
 75 74  1  0
 76 50  1  0
 76 77  1  0
 76 86  1  0
 77 80  1  0
 78 82  1  0
 78 77  1  0
 79 78  2  0
 82 81  1  0
 84 82  1  0
 84 85  1  0
 84 83  1  0
 86 89  1  1
 86 87  1  0
 88 86  1  0
M  ISO  4   2 100  17 100  48 101  49 101
M  END
>  <TORSDO>  (4) 
F 18

>  <SCORE>  (4) 
-14.258

>  <name>  (4) 
3

>  <ligand_id>  (4) 
3

>  <original_smiles>  (4) 
[H]c1c([H])c([H])c2c(c1[H])C([H])([H])C([H])([H])C([H])([H])C2([H])N([H])C(=O)C1([H])N(C(=O)C([H])(N([H])C(=O)C([H])(N([H])C([H])([H])[H])C([H])([H])[H])C(C([H])([H])[H])(C([H])([H])[H])C([H])([H])[H])C([H])([H])c2c([H])c(OC([H])([H])C(=O)C([H])([H])c3c([H])c([H])c4c(c3[H])N(C(=O)N3C([H])([H])C([H])([H])C([H])([H])C([H])(n5nc(-c6c([H])c([H])c(Oc7c([H])c([H])c(F)c([H])c7F)c([H])c6[H])c(C(=O)N([H])[H])c5N([H])[H])C3([H])[H])C4([H])[H])c([H])c([H])c2C1([H])[H]

>  <smiles>  (4) 
[H]c1c([H])c([H])c2c(c1[H])C([H])([H])C([H])([H])C([H])([H])C2([H])N([H])C(=O)C1([H])N(C(=O)C([H])(N([H])C(=O)C([H])(N([H])C([H])([H])[H])C([H])([H])[H])C(C([H])([H])[H])(C([H])([H])[H])C([H])([H])[H])C([H])([H])c2c([H])c(OC([H])([H])C(=O)C([H])([H])c3c([H])c([H])c4c(c3[H])N(C(=O)N3C([H])([H])C([H])([H])C([H])([H])C([H])(n5nc(-c6c([H])c([H])c(Oc7c([H])c([H])c(F)c([H])c7F)c([H])c6[H])c(C(=O)N([H])[H])c5N([H])[H])C3([H])[H])C4([H])[H])c([H])c([H])c2C1([H])[H]

$$$$
4:0:0
     RDKit          3D

 94102  0  0  1  0  0  0  0  0999 V2000
  -28.4710  -20.8930   20.3040 C   0  0  0  0  0  0  0  0  0  0  0  0
  -27.2730  -20.7390   20.0640 O   0  0  0  0  0  0  0  0  0  0  0  0
  -30.5020  -19.6390   21.2110 C   0  0  0  0  0  3  0  0  0  0  0  0
  -29.3700  -19.6620   20.4320 C   0  0  0  0  0  0  0  0  0  0  0  0
  -29.1360  -18.3050   19.8780 C   0  0  0  0  0  0  0  0  0  0  0  0
  -29.9510  -17.2750   20.4040 C   0  0  0  0  0  0  0  0  0  0  0  0
  -31.2000  -18.0280   21.3750 S   0  0  0  0  0  0  0  0  0  0  0  0
  -30.6890  -14.8150   20.2930 C   0  0  0  0  0  0  0  0  0  0  0  0
  -30.5050  -12.5660   19.2370 C   0  0  0  0  0  2  0  0  0  0  0  0
  -29.5440  -12.6950   18.0320 C   0  0  0  0  0  2  0  0  0  0  0  0
  -28.0750  -12.5180   18.4660 C   0  0  0  0  0  2  0  0  0  0  0  0
  -27.7210  -13.3500   19.7270 C   0  0  0  0  0  3  0  0  0  0  0  0
  -28.8010  -13.2240   20.8250 C   0  0  0  0  0  2  0  0  0  0  0  0
  -30.0880  -13.5830   20.2200 N   0  0  0  0  0  0  0  0  0  0  0  0
  -31.8900  -14.9520   20.0590 O   0  0  0  0  0  0  0  0  0  0  0  0
  -29.8160  -15.8880   20.2670 N   0  0  0  0  0  0  0  0  0  0  0  0
  -28.8680  -15.5820   20.1090 H   0  0  0  0  0  0  0  0  0  0  0  0
  -25.3300  -13.9200   20.4660 C   0  0  0  0  0  0  0  0  0  0  0  0
  -24.2750  -13.1350   20.8420 C   0  0  0  0  0  0  0  0  0  0  0  0
  -24.7510  -11.7890   20.8100 C   0  0  0  0  0  0  0  0  0  0  0  0
  -26.3840  -13.0500   20.2280 N   0  0  0  0  0  0  0  0  0  0  0  0
  -26.0420  -11.7640   20.4970 N   0  0  0  0  0  0  0  0  0  0  0  0
  -24.0370  -10.5200   20.9960 C   0  0  0  0  0  0  0  0  0  0  0  0
  -24.4660   -9.5660   21.9420 C   0  0  0  0  0  3  0  0  0  0  0  0
  -23.7530   -8.3590   22.1170 C   0  0  0  0  0  3  0  0  0  0  0  0
  -22.5960   -8.1010   21.3430 C   0  0  0  0  0  0  0  0  0  0  0  0
  -22.1880   -9.0440   20.3840 C   0  0  0  0  0  3  0  0  0  0  0  0
  -22.9020  -10.2410   20.2080 C   0  0  0  0  0  3  0  0  0  0  0  0
  -21.8550   -6.9470   21.4250 O   0  0  0  0  0  0  0  0  0  0  0  0
  -21.7660   -6.2330   22.5920 C   0  0  0  0  0  0  0  0  0  0  0  0
  -21.2380   -6.7990   23.7740 C   0  0  0  0  0  3  0  0  0  0  0  0
  -21.1040   -6.0080   24.9330 C   0  0  0  0  0  3  0  0  0  0  0  0
  -21.4830   -4.6530   24.9100 C   0  0  0  0  0  0  0  0  0  0  0  0
  -22.0020   -4.0870   23.7310 C   0  0  0  0  0  3  0  0  0  0  0  0
  -22.1390   -4.8740   22.5770 C   0  0  0  0  0  0  0  0  0  0  0  0
  -22.6210   -4.3170   21.4390 F   0  0  0  0  0  0  0  0  0  0  0  0
  -21.3430   -3.8900   26.0210 F   0  0  0  0  0  0  0  0  0  0  0  0
  -22.8710  -13.6030   21.1150 C   0  0  0  0  0  0  0  0  0  0  0  0
  -22.1520  -12.9000   21.9820 N   0  0  0  0  0  0  0  0  0  0  0  0
  -22.4230  -14.6190   20.5910 O   0  0  0  0  0  0  0  0  0  0  0  0
  -22.5310  -12.0780   22.4250 H   0  0  0  0  0  0  0  0  0  0  0  0
  -21.2120  -13.1940   22.2120 H   0  0  0  0  0  0  0  0  0  0  0  0
  -25.4660  -15.2900   20.2820 N   0  0  0  0  0  0  0  0  0  0  0  0
  -24.6470  -15.8880   20.2920 H   0  0  0  0  0  0  0  0  0  0  0  0
  -26.2510  -15.7160   19.7910 H   0  0  0  0  0  0  0  0  0  0  0  0
  -28.1110  -17.9930   18.8610 C   0  0  0  0  0  0  0  0  0  0  0  0
  -27.9830  -18.9660   17.6920 C   0  0  0  0  0  1  0  0  0  0  0  0
  -27.4340  -16.9610   18.8240 O   0  0  0  0  0  0  0  0  0  0  0  0
  -28.9580  -22.4170   20.4710 C   0  0  0  0  0  2  0  0  0  0  0  0
  -26.7200  -23.4490   21.3330 C   0  0  0  0  0  1  0  0  0  0  0  0
  -27.4070  -23.7200   18.8780 C   0  0  0  0  0  1  0  0  0  0  0  0
  -27.9130  -23.6880   20.3520 C   0  0  2  0  0  0  0  0  0  0  0  0
  -28.4910  -25.1590   20.8120 C   0  0  0  0  0  2  0  0  0  0  0  0
  -28.4230  -26.5030   20.1380 O   0  0  0  0  0  0  0  0  0  0  0  0
  -24.6190  -31.9110   23.2600 C   0  0  0  0  0  0  0  0  0  0  0  0
  -27.3060  -27.3540   20.2170 C   0  0  0  0  0  0  0  0  0  0  0  0
  -23.4690  -30.5260   21.5740 C   0  0  0  0  0  3  0  0  0  0  0  0
  -24.9560  -28.9990   20.1660 C   0  0  0  0  0  0  0  0  0  0  0  0
  -26.0140  -30.8440   21.4660 C   0  0  0  0  0  2  0  0  0  0  0  0
  -26.1100  -29.4660   20.8110 C   0  0  0  0  0  0  0  0  0  0  0  0
  -27.2900  -28.6560   20.8250 C   0  0  0  0  0  3  0  0  0  0  0  0
  -26.1340  -26.9560   19.5450 C   0  0  0  0  0  3  0  0  0  0  0  0
  -24.9770  -27.7510   19.5210 C   0  0  0  0  0  3  0  0  0  0  0  0
  -23.7240  -29.8780   20.1880 C   0  0  0  0  0  2  0  0  0  0  0  0
  -24.7190  -31.1120   22.1570 N   0  0  0  0  0  0  0  0  0  0  0  0
  -23.5210  -32.1720   23.7720 O   0  0  0  0  0  0  0  0  0  0  0  0
  -22.7940  -29.4880   22.5030 C   0  0  0  0  0  0  0  0  0  0  0  0
  -21.4730  -29.3030   22.3480 N   0  0  0  0  0  0  0  0  0  0  0  0
  -23.4590  -28.8580   23.3290 O   0  0  0  0  0  0  0  0  0  0  0  0
  -20.9940  -29.8600   21.6540 H   0  0  0  0  0  0  0  0  0  0  0  0
  -18.0920  -28.0850   22.7770 C   0  0  0  0  0  0  0  0  0  0  0  0
  -20.6460  -28.3510   23.0910 C   0  0  0  0  0  3  0  0  0  0  0  0
  -20.7620  -26.9300   22.4920 C   0  0  0  0  0  2  0  0  0  0  0  0
  -19.6770  -26.6200   21.4570 C   0  0  0  0  0  2  0  0  0  0  0  0
  -18.2840  -26.7500   22.0800 C   0  0  0  0  0  2  0  0  0  0  0  0
  -19.2020  -28.8430   23.2390 C   0  0  0  0  0  0  0  0  0  0  0  0
  -18.9660  -30.0930   23.8550 C   0  0  0  0  0  3  0  0  0  0  0  0
  -17.6560  -30.5840   24.0130 C   0  0  0  0  0  3  0  0  0  0  0  0
  -16.5620  -29.8220   23.5640 C   0  0  0  0  0  3  0  0  0  0  0  0
  -16.7810  -28.5750   22.9510 C   0  0  0  0  0  3  0  0  0  0  0  0
  -25.8800  -32.5500   23.9200 C   0  0  0  0  0  3  0  0  0  0  0  0
  -25.5520  -33.9470   24.2350 N   0  0  0  0  0  0  0  0  0  0  0  0
  -25.8900  -35.0000   23.4770 C   0  0  0  0  0  0  0  0  0  0  0  0
  -26.5800  -34.8970   22.4600 O   0  0  0  0  0  0  0  0  0  0  0  0
  -24.9460  -34.1030   25.0270 H   0  0  0  0  0  0  0  0  0  0  0  0
  -24.1580  -36.7810   23.0790 C   0  0  0  0  0  1  0  0  0  0  0  0
  -25.3840  -36.3870   23.9200 C   0  0  0  0  0  3  0  0  0  0  0  0
  -27.4880  -37.2890   24.8040 C   0  0  0  0  0  1  0  0  0  0  0  0
  -26.4140  -37.4460   23.8280 N   0  0  0  0  0  0  0  0  0  0  0  0
  -25.9970  -38.3640   23.9640 H   0  0  0  0  0  0  0  0  0  0  0  0
  -26.3570  -31.7900   25.2190 C   0  0  1  0  0  0  0  0  0  0  0  0
  -25.2270  -31.5500   26.2480 C   0  0  0  0  0  1  0  0  0  0  0  0
  -26.9580  -30.4130   24.8530 C   0  0  0  0  0  1  0  0  0  0  0  0
  -27.4770  -32.5940   25.9210 C   0  0  0  0  0  1  0  0  0  0  0  0
  1  4  1  0
  1 49  1  0
  2  1  2  0
  3  7  1  0
  4  3  2  0
  5  6  2  0
  5  4  1  0
  6  7  1  0
  9 14  1  0
 10 11  1  0
 10  9  1  0
 12 11  1  0
 12 21  1  0
 12 13  1  0
 14  8  1  0
 14 13  1  0
 15  8  2  0
 16  8  1  0
 16  6  1  0
 17 16  1  0
 18 19  2  0
 19 38  1  0
 20 19  1  0
 20 23  1  0
 21 18  1  0
 21 22  1  0
 22 20  2  0
 23 24  1  0
 24 25  2  0
 26 29  1  0
 26 25  1  0
 27 26  2  0
 28 27  1  0
 28 23  2  0
 29 30  1  0
 30 31  1  0
 31 32  2  0
 33 32  1  0
 33 37  1  0
 34 33  2  0
 35 30  2  0
 35 34  1  0
 36 35  1  0
 38 39  1  0
 39 42  1  0
 39 41  1  0
 40 38  2  0
 43 44  1  0
 43 18  1  0
 45 43  1  0
 46  5  1  0
 47 46  1  0
 48 46  2  0
 52 51  1  6
 52 49  1  0
 52 53  1  0
 52 50  1  0
 54 56  1  0
 54 53  1  0
 55 66  2  0
 56 61  1  0
 57 65  1  0
 57 67  1  0
 58 64  1  0
 58 60  1  0
 59 65  1  0
 60 61  2  0
 60 59  1  0
 62 56  2  0
 63 62  1  0
 63 58  2  0
 64 57  1  0
 65 55  1  0
 67 69  2  0
 68 67  1  0
 70 68  1  0
 71 80  2  0
 71 76  1  0
 72 68  1  0
 72 76  1  0
 73 72  1  0
 74 75  1  0
 74 73  1  0
 75 71  1  0
 76 77  2  0
 77 78  1  0
 79 78  2  0
 80 79  1  0
 81 55  1  0
 81 82  1  0
 81 91  1  0
 82 85  1  0
 83 87  1  0
 83 82  1  0
 84 83  2  0
 87 86  1  0
 89 87  1  0
 89 90  1  0
 89 88  1  0
 91 94  1  1
 91 92  1  0
 93 91  1  0
M  ISO  4   8 100  16 100  53 101  54 101
M  END
>  <TORSDO>  (5) 
F 21

>  <SCORE>  (5) 
-13.910

>  <name>  (5) 
4

>  <ligand_id>  (5) 
4

>  <original_smiles>  (5) 
[H]c1sc(N([H])C(=O)N2C([H])([H])C([H])([H])C([H])([H])C([H])(n3nc(-c4c([H])c([H])c(Oc5c([H])c([H])c(F)c([H])c5F)c([H])c4[H])c(C(=O)N([H])[H])c3N([H])[H])C2([H])[H])c(C(=O)C([H])([H])[H])c1C(=O)C([H])([H])C(C([H])([H])[H])(C([H])([H])[H])C([H])([H])Oc1c([H])c([H])c2c(c1[H])C([H])([H])N(C(=O)C([H])(N([H])C(=O)C([H])(N([H])C([H])([H])[H])C([H])([H])[H])C(C([H])([H])[H])(C([H])([H])[H])C([H])([H])[H])C([H])(C(=O)N([H])C1([H])c3c([H])c([H])c([H])c([H])c3C([H])([H])C([H])([H])C1([H])[H])C2([H])[H]

>  <smiles>  (5) 
[H]c1sc(N([H])C(=O)N2C([H])([H])C([H])([H])C([H])([H])C([H])(n3nc(-c4c([H])c([H])c(Oc5c([H])c([H])c(F)c([H])c5F)c([H])c4[H])c(C(=O)N([H])[H])c3N([H])[H])C2([H])[H])c(C(=O)C([H])([H])[H])c1C(=O)C([H])([H])C(C([H])([H])[H])(C([H])([H])[H])C([H])([H])Oc1c([H])c([H])c2c(c1[H])C([H])([H])N(C(=O)C([H])(N([H])C(=O)C([H])(N([H])C([H])([H])[H])C([H])([H])[H])C(C([H])([H])[H])(C([H])([H])[H])C([H])([H])[H])C([H])(C(=O)N([H])C1([H])c3c([H])c([H])c([H])c([H])c3C([H])([H])C([H])([H])C1([H])[H])C2([H])[H]

$$$$
5:0:0
     RDKit          3D

 96104  0  0  1  0  0  0  0  0999 V2000
  -29.0050  -22.0910   20.0730 C   0  0  0  0  0  2  0  0  0  0  0  0
  -29.5400  -23.2100   19.1500 C   0  0  0  0  0  0  0  0  0  0  0  0
  -29.7710  -22.9570   17.9620 O   0  0  0  0  0  0  0  0  0  0  0  0
  -30.7220  -25.4340   18.8360 C   0  0  0  0  0  1  0  0  0  0  0  0
  -30.2300  -24.6110   21.1610 C   0  0  0  0  0  1  0  0  0  0  0  0
  -29.7090  -24.6520   19.7060 C   0  0  2  0  0  0  0  0  0  0  0  0
  -28.3390  -25.3690   19.6300 C   0  0  0  0  0  2  0  0  0  0  0  0
  -28.3840  -26.7190   20.1180 O   0  0  0  0  0  0  0  0  0  0  0  0
  -24.6040  -31.8920   23.2340 C   0  0  0  0  0  0  0  0  0  0  0  0
  -27.2000  -27.4330   20.1280 C   0  0  0  0  0  0  0  0  0  0  0  0
  -23.3770  -30.4930   21.6080 C   0  0  0  0  0  3  0  0  0  0  0  0
  -24.8090  -28.9530   20.1720 C   0  0  0  0  0  0  0  0  0  0  0  0
  -25.9040  -30.8400   21.3880 C   0  0  0  0  0  2  0  0  0  0  0  0
  -25.9770  -29.4700   20.7450 C   0  0  0  0  0  0  0  0  0  0  0  0
  -27.1740  -28.7180   20.7200 C   0  0  0  0  0  3  0  0  0  0  0  0
  -26.0020  -26.9280   19.5650 C   0  0  0  0  0  3  0  0  0  0  0  0
  -24.8150  -27.6790   19.5840 C   0  0  0  0  0  3  0  0  0  0  0  0
  -23.5700  -29.8160   20.2270 C   0  0  0  0  0  2  0  0  0  0  0  0
  -24.6480  -31.0890   22.1340 N   0  0  0  0  0  0  0  0  0  0  0  0
  -23.5290  -32.1690   23.7850 O   0  0  0  0  0  0  0  0  0  0  0  0
  -22.7330  -29.4730   22.5750 C   0  0  0  0  0  0  0  0  0  0  0  0
  -21.4080  -29.2900   22.4570 N   0  0  0  0  0  0  0  0  0  0  0  0
  -23.4230  -28.8480   23.3850 O   0  0  0  0  0  0  0  0  0  0  0  0
  -20.9120  -29.8420   21.7710 H   0  0  0  0  0  0  0  0  0  0  0  0
  -18.0390  -28.0900   22.9720 C   0  0  0  0  0  0  0  0  0  0  0  0
  -20.5960  -28.3560   23.2360 C   0  0  0  0  0  3  0  0  0  0  0  0
  -20.7030  -26.9210   22.6700 C   0  0  0  0  0  2  0  0  0  0  0  0
  -19.6010  -26.5880   21.6610 C   0  0  0  0  0  2  0  0  0  0  0  0
  -18.2190  -26.7360   22.3060 C   0  0  0  0  0  2  0  0  0  0  0  0
  -19.1570  -28.8580   23.3940 C   0  0  0  0  0  0  0  0  0  0  0  0
  -18.9380  -30.1260   23.9750 C   0  0  0  0  0  3  0  0  0  0  0  0
  -17.6320  -30.6260   24.1370 C   0  0  0  0  0  3  0  0  0  0  0  0
  -16.5290  -29.8560   23.7320 C   0  0  0  0  0  3  0  0  0  0  0  0
  -16.7330  -28.5900   23.1540 C   0  0  0  0  0  3  0  0  0  0  0  0
  -25.8990  -32.5200   23.8390 C   0  0  0  0  0  3  0  0  0  0  0  0
  -25.5930  -33.9160   24.1800 N   0  0  0  0  0  0  0  0  0  0  0  0
  -25.9140  -34.9710   23.4200 C   0  0  0  0  0  0  0  0  0  0  0  0
  -26.5690  -34.8730   22.3800 O   0  0  0  0  0  0  0  0  0  0  0  0
  -25.0110  -34.0680   24.9910 H   0  0  0  0  0  0  0  0  0  0  0  0
  -24.1760  -36.7600   23.0990 C   0  0  0  0  0  1  0  0  0  0  0  0
  -25.4290  -36.3570   23.8910 C   0  0  0  0  0  3  0  0  0  0  0  0
  -27.5750  -37.2410   24.6890 C   0  0  0  0  0  1  0  0  0  0  0  0
  -26.4570  -37.4120   23.7650 N   0  0  0  0  0  0  0  0  0  0  0  0
  -26.0520  -38.3310   23.9270 H   0  0  0  0  0  0  0  0  0  0  0  0
  -26.4370  -31.7410   25.1020 C   0  0  1  0  0  0  0  0  0  0  0  0
  -25.3610  -31.4960   26.1850 C   0  0  0  0  0  1  0  0  0  0  0  0
  -27.0140  -30.3670   24.6920 C   0  0  0  0  0  1  0  0  0  0  0  0
  -27.5970  -32.5330   25.7500 C   0  0  0  0  0  1  0  0  0  0  0  0
  -28.4710  -20.9460   19.3260 N   0  0  0  0  0  0  0  0  0  0  0  0
  -28.2030  -21.2880   18.4050 H   0  0  0  0  0  0  0  0  0  0  0  0
  -29.4730  -18.9260   20.3030 C   0  0  0  0  0  3  0  0  0  0  0  0
  -30.9740  -17.5630   18.9470 C   0  0  0  0  0  3  0  0  0  0  0  0
  -29.9920  -19.5870   18.0130 C   0  0  0  0  0  3  0  0  0  0  0  0
  -30.2940  -17.7780   20.1660 C   0  0  0  0  0  0  0  0  0  0  0  0
  -29.3150  -19.8300   19.2260 C   0  0  0  0  0  0  0  0  0  0  0  0
  -30.8260  -18.4620   17.8770 C   0  0  0  0  0  0  0  0  0  0  0  0
  -31.4890  -18.2450   16.7150 F   0  0  0  0  0  0  0  0  0  0  0  0
  -30.4840  -16.8110   21.3340 C   0  0  0  0  0  2  0  0  0  0  0  0
  -30.6910  -14.4360   20.5520 C   0  0  0  0  0  0  0  0  0  0  0  0
  -30.3690  -12.3040   19.3650 C   0  0  0  0  0  2  0  0  0  0  0  0
  -29.4420  -12.5280   18.1550 C   0  0  0  0  0  2  0  0  0  0  0  0
  -27.9610  -12.4030   18.5660 C   0  0  0  0  0  2  0  0  0  0  0  0
  -27.6190  -13.2370   19.8320 C   0  0  0  0  0  3  0  0  0  0  0  0
  -28.6580  -12.9930   20.9470 C   0  0  0  0  0  2  0  0  0  0  0  0
  -29.9930  -13.2820   20.3960 N   0  0  0  0  0  0  0  0  0  0  0  0
  -31.8310  -14.5970   20.1130 O   0  0  0  0  0  0  0  0  0  0  0  0
  -30.0020  -15.4480   21.1000 N   0  0  0  0  0  0  0  0  0  0  0  0
  -29.0620  -15.2410   21.4010 H   0  0  0  0  0  0  0  0  0  0  0  0
  -25.2140  -13.8670   20.4980 C   0  0  0  0  0  0  0  0  0  0  0  0
  -24.1370  -13.1040   20.8610 C   0  0  0  0  0  0  0  0  0  0  0  0
  -24.5910  -11.7500   20.8530 C   0  0  0  0  0  0  0  0  0  0  0  0
  -26.2580  -12.9770   20.2950 N   0  0  0  0  0  0  0  0  0  0  0  0
  -25.8850  -11.7000   20.5660 N   0  0  0  0  0  0  0  0  0  0  0  0
  -23.8550  -10.4940   21.0480 C   0  0  0  0  0  0  0  0  0  0  0  0
  -24.2850   -9.5250   21.9810 C   0  0  0  0  0  3  0  0  0  0  0  0
  -23.5520   -8.3340   22.1650 C   0  0  0  0  0  3  0  0  0  0  0  0
  -22.3740   -8.1020   21.4160 C   0  0  0  0  0  0  0  0  0  0  0  0
  -21.9620   -9.0600   20.4720 C   0  0  0  0  0  3  0  0  0  0  0  0
  -22.6960  -10.2440   20.2870 C   0  0  0  0  0  3  0  0  0  0  0  0
  -21.6120   -6.9630   21.5080 O   0  0  0  0  0  0  0  0  0  0  0  0
  -21.5800   -6.2090   22.6540 C   0  0  0  0  0  0  0  0  0  0  0  0
  -21.2040   -6.7600   23.8980 C   0  0  0  0  0  3  0  0  0  0  0  0
  -21.1160   -5.9340   25.0370 C   0  0  0  0  0  3  0  0  0  0  0  0
  -21.3950   -4.5570   24.9320 C   0  0  0  0  0  0  0  0  0  0  0  0
  -21.7640   -4.0060   23.6920 C   0  0  0  0  0  3  0  0  0  0  0  0
  -21.8530   -4.8300   22.5560 C   0  0  0  0  0  0  0  0  0  0  0  0
  -22.1870   -4.2900   21.3600 F   0  0  0  0  0  0  0  0  0  0  0  0
  -21.3020   -3.7630   26.0240 F   0  0  0  0  0  0  0  0  0  0  0  0
  -22.7370  -13.5900   21.1070 C   0  0  0  0  0  0  0  0  0  0  0  0
  -21.9950  -12.9100   21.9720 N   0  0  0  0  0  0  0  0  0  0  0  0
  -22.3100  -14.6080   20.5640 O   0  0  0  0  0  0  0  0  0  0  0  0
  -22.3520  -12.0860   22.4330 H   0  0  0  0  0  0  0  0  0  0  0  0
  -21.0530  -13.2150   22.1750 H   0  0  0  0  0  0  0  0  0  0  0  0
  -25.3890  -15.2350   20.3060 N   0  0  0  0  0  0  0  0  0  0  0  0
  -24.6190  -15.8920   20.3840 H   0  0  0  0  0  0  0  0  0  0  0  0
  -26.2450  -15.6670   19.9820 H   0  0  0  0  0  0  0  0  0  0  0  0
  2  6  1  0
  2  1  1  0
  3  2  2  0
  6  4  1  6
  6  5  1  0
  7  6  1  0
  7  8  1  0
  8 10  1  0
  9 20  2  0
 10 15  1  0
 11 19  1  0
 11 21  1  0
 12 18  1  0
 12 14  1  0
 13 19  1  0
 14 13  1  0
 15 14  2  0
 16 17  1  0
 16 10  2  0
 17 12  2  0
 18 11  1  0
 19  9  1  0
 21 23  2  0
 22 21  1  0
 24 22  1  0
 25 34  2  0
 25 30  1  0
 26 22  1  0
 26 30  1  0
 27 26  1  0
 28 29  1  0
 28 27  1  0
 29 25  1  0
 30 31  2  0
 31 32  1  0
 33 32  2  0
 34 33  1  0
 35  9  1  0
 35 36  1  0
 35 45  1  0
 36 39  1  0
 37 41  1  0
 37 36  1  0
 38 37  2  0
 41 40  1  0
 43 41  1  0
 43 44  1  0
 43 42  1  0
 45 48  1  1
 45 46  1  0
 47 45  1  0
 49  1  1  0
 50 49  1  0
 52 54  2  0
 53 55  1  0
 54 51  1  0
 54 58  1  0
 55 49  1  0
 55 51  2  0
 56 53  2  0
 56 52  1  0
 57 56  1  0
 59 67  1  0
 60 65  1  0
 61 62  1  0
 61 60  1  0
 63 62  1  0
 63 72  1  0
 63 64  1  0
 65 59  1  0
 65 64  1  0
 66 59  2  0
 67 58  1  0
 67 68  1  0
 69 70  2  0
 70 89  1  0
 71 70  1  0
 71 74  1  0
 72 69  1  0
 72 73  1  0
 73 71  2  0
 74 75  1  0
 75 76  2  0
 77 80  1  0
 77 76  1  0
 78 77  2  0
 79 78  1  0
 79 74  2  0
 80 81  1  0
 81 82  1  0
 82 83  2  0
 84 83  1  0
 84 88  1  0
 85 84  2  0
 86 81  2  0
 86 85  1  0
 87 86  1  0
 89 90  1  0
 90 93  1  0
 90 92  1  0
 91 89  2  0
 94 95  1  0
 94 69  1  0
 96 94  1  0
M  ISO  4   7 101   8 101  59 100  67 100
M  END
>  <TORSDO>  (6) 
F 22

>  <SCORE>  (6) 
-13.355

>  <name>  (6) 
5

>  <ligand_id>  (6) 
5

>  <original_smiles>  (6) 
[H]c1c([H])c([H])c2c(c1[H])C([H])([H])C([H])([H])C([H])([H])C2([H])N([H])C(=O)C1([H])N(C(=O)C([H])(N([H])C(=O)C([H])(N([H])C([H])([H])[H])C([H])([H])[H])C(C([H])([H])[H])(C([H])([H])[H])C([H])([H])[H])C([H])([H])c2c([H])c(OC([H])([H])C(C(=O)C([H])([H])N([H])c3c([H])c(F)c([H])c(C([H])([H])N([H])C(=O)N4C([H])([H])C([H])([H])C([H])([H])C([H])(n5nc(-c6c([H])c([H])c(Oc7c([H])c([H])c(F)c([H])c7F)c([H])c6[H])c(C(=O)N([H])[H])c5N([H])[H])C4([H])[H])c3[H])(C([H])([H])[H])C([H])([H])[H])c([H])c([H])c2C1([H])[H]

>  <smiles>  (6) 
[H]c1c([H])c([H])c2c(c1[H])C([H])([H])C([H])([H])C([H])([H])C2([H])N([H])C(=O)C1([H])N(C(=O)C([H])(N([H])C(=O)C([H])(N([H])C([H])([H])[H])C([H])([H])[H])C(C([H])([H])[H])(C([H])([H])[H])C([H])([H])[H])C([H])([H])c2c([H])c(OC([H])([H])C(C(=O)C([H])([H])N([H])c3c([H])c(F)c([H])c(C([H])([H])N([H])C(=O)N4C([H])([H])C([H])([H])C([H])([H])C([H])(n5nc(-c6c([H])c([H])c(Oc7c([H])c([H])c(F)c([H])c7F)c([H])c6[H])c(C(=O)N([H])[H])c5N([H])[H])C4([H])[H])c3[H])(C([H])([H])[H])C([H])([H])[H])c([H])c([H])c2C1([H])[H]

$$$$
6:0:0
     RDKit          3D

 95103  0  0  1  0  0  0  0  0999 V2000
  -27.8910  -22.3840   19.8240 C   0  0  0  0  0  1  0  0  0  0  0  0
  -29.1580  -22.9560   20.5140 C   0  0  1  0  0  0  0  0  0  0  0  0
  -29.4050  -24.4470   20.0870 C   0  0  0  0  0  0  0  0  0  0  0  0
  -30.5360  -24.9440   20.1420 O   0  0  0  0  0  0  0  0  0  0  0  0
  -28.1960  -25.3090   19.6580 C   0  0  0  0  0  2  0  0  0  0  0  0
  -28.4000  -26.7310   19.8140 O   0  0  0  0  0  0  0  0  0  0  0  0
  -24.6700  -31.8600   23.0980 C   0  0  0  0  0  0  0  0  0  0  0  0
  -27.2370  -27.4840   19.8370 C   0  0  0  0  0  0  0  0  0  0  0  0
  -23.4260  -30.4880   21.4640 C   0  0  0  0  0  3  0  0  0  0  0  0
  -24.8420  -29.0000   19.9610 C   0  0  0  0  0  0  0  0  0  0  0  0
  -25.9480  -30.8600   21.2050 C   0  0  0  0  0  2  0  0  0  0  0  0
  -26.0190  -29.5070   20.5250 C   0  0  0  0  0  0  0  0  0  0  0  0
  -27.2210  -28.7590   20.4570 C   0  0  0  0  0  3  0  0  0  0  0  0
  -26.0330  -27.0080   19.2600 C   0  0  0  0  0  3  0  0  0  0  0  0
  -24.8430  -27.7510   19.3260 C   0  0  0  0  0  3  0  0  0  0  0  0
  -23.6010  -29.8560   20.0620 C   0  0  0  0  0  2  0  0  0  0  0  0
  -24.7010  -31.0830   21.9800 N   0  0  0  0  0  0  0  0  0  0  0  0
  -23.6020  -32.1160   23.6710 O   0  0  0  0  0  0  0  0  0  0  0  0
  -22.8070  -29.4370   22.4150 C   0  0  0  0  0  0  0  0  0  0  0  0
  -21.4820  -29.2510   22.3200 N   0  0  0  0  0  0  0  0  0  0  0  0
  -23.5150  -28.7980   23.1970 O   0  0  0  0  0  0  0  0  0  0  0  0
  -20.9680  -29.8210   21.6650 H   0  0  0  0  0  0  0  0  0  0  0  0
  -18.1270  -28.0210   22.8780 C   0  0  0  0  0  0  0  0  0  0  0  0
  -20.6910  -28.2910   23.0930 C   0  0  0  0  0  3  0  0  0  0  0  0
  -20.7880  -26.8740   22.4870 C   0  0  0  0  0  2  0  0  0  0  0  0
  -19.6640  -26.5620   21.4950 C   0  0  0  0  0  2  0  0  0  0  0  0
  -18.2960  -26.6860   22.1740 C   0  0  0  0  0  2  0  0  0  0  0  0
  -19.2520  -28.7830   23.2960 C   0  0  0  0  0  0  0  0  0  0  0  0
  -19.0390  -30.0330   23.9140 C   0  0  0  0  0  3  0  0  0  0  0  0
  -17.7360  -30.5240   24.1210 C   0  0  0  0  0  3  0  0  0  0  0  0
  -16.6270  -29.7600   23.7190 C   0  0  0  0  0  3  0  0  0  0  0  0
  -16.8230  -28.5110   23.1040 C   0  0  0  0  0  3  0  0  0  0  0  0
  -25.9690  -32.4860   23.6960 C   0  0  0  0  0  3  0  0  0  0  0  0
  -25.6610  -33.8730   24.0680 N   0  0  0  0  0  0  0  0  0  0  0  0
  -25.9700  -34.9450   23.3270 C   0  0  0  0  0  0  0  0  0  0  0  0
  -26.6180  -34.8720   22.2800 O   0  0  0  0  0  0  0  0  0  0  0  0
  -25.0820  -34.0050   24.8850 H   0  0  0  0  0  0  0  0  0  0  0  0
  -24.2360  -36.7440   23.0390 C   0  0  0  0  0  1  0  0  0  0  0  0
  -25.4830  -36.3180   23.8290 C   0  0  0  0  0  3  0  0  0  0  0  0
  -27.6190  -37.1830   24.6760 C   0  0  0  0  0  1  0  0  0  0  0  0
  -26.5140  -37.3750   23.7410 N   0  0  0  0  0  0  0  0  0  0  0  0
  -26.1060  -38.2890   23.9180 H   0  0  0  0  0  0  0  0  0  0  0  0
  -26.5320  -31.6850   24.9330 C   0  0  1  0  0  0  0  0  0  0  0  0
  -25.4750  -31.4120   26.0290 C   0  0  0  0  0  1  0  0  0  0  0  0
  -27.1120  -30.3220   24.4850 C   0  0  0  0  0  1  0  0  0  0  0  0
  -27.6980  -32.4710   25.5790 C   0  0  0  0  0  1  0  0  0  0  0  0
  -27.8380  -23.7890   22.6750 C   0  0  0  0  0  1  0  0  0  0  0  0
  -28.9540  -22.9170   22.0600 C   0  0  0  0  0  2  0  0  0  0  0  0
  -30.4250  -22.0710   20.1750 C   0  0  0  0  0  2  0  0  0  0  0  0
  -29.9050  -20.2940   18.4190 C   0  0  0  0  0  3  0  0  0  0  0  0
  -30.0010  -17.8950   18.8970 C   0  0  0  0  0  3  0  0  0  0  0  0
  -30.4180  -19.5180   20.6660 C   0  0  0  0  0  3  0  0  0  0  0  0
  -29.7760  -18.9570   17.9920 C   0  0  0  0  0  0  0  0  0  0  0  0
  -30.2180  -20.5950   19.7610 C   0  0  0  0  0  0  0  0  0  0  0  0
  -30.3250  -18.1610   20.2450 C   0  0  0  0  0  0  0  0  0  0  0  0
  -29.4230  -18.6640   16.5490 C   0  0  0  0  0  1  0  0  0  0  0  0
  -30.6420  -17.0200   21.2360 C   0  0  0  0  0  2  0  0  0  0  0  0
  -30.7390  -14.6380   20.3670 C   0  0  0  0  0  0  0  0  0  0  0  0
  -30.4300  -12.4560   19.2420 C   0  0  0  0  0  2  0  0  0  0  0  0
  -29.4920  -12.6160   18.0290 C   0  0  0  0  0  2  0  0  0  0  0  0
  -28.0220  -12.4580   18.4610 C   0  0  0  0  0  2  0  0  0  0  0  0
  -27.6660  -13.3150   19.7060 C   0  0  0  0  0  3  0  0  0  0  0  0
  -28.7290  -13.1630   20.8220 C   0  0  0  0  0  2  0  0  0  0  0  0
  -30.0480  -13.4670   20.2410 N   0  0  0  0  0  0  0  0  0  0  0  0
  -31.8560  -14.7920   19.8750 O   0  0  0  0  0  0  0  0  0  0  0  0
  -30.0950  -15.6680   20.9570 N   0  0  0  0  0  0  0  0  0  0  0  0
  -29.1800  -15.4750   21.3330 H   0  0  0  0  0  0  0  0  0  0  0  0
  -25.2620  -13.8930   20.4210 C   0  0  0  0  0  0  0  0  0  0  0  0
  -24.2040  -13.1110   20.7970 C   0  0  0  0  0  0  0  0  0  0  0  0
  -24.6810  -11.7650   20.7810 C   0  0  0  0  0  0  0  0  0  0  0  0
  -26.3180  -13.0230   20.1940 N   0  0  0  0  0  0  0  0  0  0  0  0
  -25.9730  -11.7390   20.4730 N   0  0  0  0  0  0  0  0  0  0  0  0
  -23.9710  -10.4970   20.9830 C   0  0  0  0  0  0  0  0  0  0  0  0
  -24.4060   -9.5450   21.9300 C   0  0  0  0  0  3  0  0  0  0  0  0
  -23.6890   -8.3440   22.1200 C   0  0  0  0  0  3  0  0  0  0  0  0
  -22.5260   -8.0810   21.3580 C   0  0  0  0  0  0  0  0  0  0  0  0
  -22.1100   -9.0220   20.4020 C   0  0  0  0  0  3  0  0  0  0  0  0
  -22.8260  -10.2160   20.2110 C   0  0  0  0  0  3  0  0  0  0  0  0
  -21.7810   -6.9290   21.4540 O   0  0  0  0  0  0  0  0  0  0  0  0
  -21.7250   -6.2040   22.6170 C   0  0  0  0  0  0  0  0  0  0  0  0
  -21.2640   -6.7690   23.8250 C   0  0  0  0  0  3  0  0  0  0  0  0
  -21.1540   -5.9700   24.9810 C   0  0  0  0  0  3  0  0  0  0  0  0
  -21.4990   -4.6060   24.9290 C   0  0  0  0  0  0  0  0  0  0  0  0
  -21.9570   -4.0390   23.7250 C   0  0  0  0  0  3  0  0  0  0  0  0
  -22.0660   -4.8370   22.5730 C   0  0  0  0  0  0  0  0  0  0  0  0
  -22.4830   -4.2820   21.4100 F   0  0  0  0  0  0  0  0  0  0  0  0
  -21.3900   -3.8350   26.0380 F   0  0  0  0  0  0  0  0  0  0  0  0
  -22.8020  -13.5760   21.0650 C   0  0  0  0  0  0  0  0  0  0  0  0
  -22.0820  -12.8810   21.9380 N   0  0  0  0  0  0  0  0  0  0  0  0
  -22.3540  -14.5890   20.5330 O   0  0  0  0  0  0  0  0  0  0  0  0
  -22.4630  -12.0670   22.3990 H   0  0  0  0  0  0  0  0  0  0  0  0
  -21.1400  -13.1730   22.1530 H   0  0  0  0  0  0  0  0  0  0  0  0
  -25.4120  -15.2650   20.2360 N   0  0  0  0  0  0  0  0  0  0  0  0
  -24.6380  -15.9110   20.3440 H   0  0  0  0  0  0  0  0  0  0  0  0
  -26.2580  -15.7090   19.9080 H   0  0  0  0  0  0  0  0  0  0  0  0
  2  1  1  6
  2 48  1  0
  3  4  2  0
  3  2  1  0
  5  6  1  0
  5  3  1  0
  6  8  1  0
  7 18  2  0
  8 13  1  0
  9 17  1  0
  9 19  1  0
 10 16  1  0
 10 12  1  0
 11 17  1  0
 12 11  1  0
 13 12  2  0
 14 15  1  0
 14  8  2  0
 15 10  2  0
 16  9  1  0
 17  7  1  0
 19 21  2  0
 20 19  1  0
 22 20  1  0
 23 32  2  0
 23 28  1  0
 24 20  1  0
 24 28  1  0
 25 24  1  0
 26 27  1  0
 26 25  1  0
 27 23  1  0
 28 29  2  0
 29 30  1  0
 31 30  2  0
 32 31  1  0
 33  7  1  0
 33 34  1  0
 33 43  1  0
 34 37  1  0
 35 39  1  0
 35 34  1  0
 36 35  2  0
 39 38  1  0
 41 39  1  0
 41 42  1  0
 41 40  1  0
 43 46  1  1
 43 44  1  0
 45 43  1  0
 48 47  1  0
 49  2  1  0
 50 54  1  0
 51 55  2  0
 53 50  2  0
 53 51  1  0
 54 49  1  0
 54 52  2  0
 55 52  1  0
 55 57  1  0
 56 53  1  0
 58 66  1  0
 59 64  1  0
 60 61  1  0
 60 59  1  0
 62 61  1  0
 62 71  1  0
 62 63  1  0
 64 58  1  0
 64 63  1  0
 65 58  2  0
 66 57  1  0
 66 67  1  0
 68 69  2  0
 69 88  1  0
 70 69  1  0
 70 73  1  0
 71 68  1  0
 71 72  1  0
 72 70  2  0
 73 74  1  0
 74 75  2  0
 76 79  1  0
 76 75  1  0
 77 76  2  0
 78 77  1  0
 78 73  2  0
 79 80  1  0
 80 81  1  0
 81 82  2  0
 83 82  1  0
 83 87  1  0
 84 83  2  0
 85 80  2  0
 85 84  1  0
 86 85  1  0
 88 89  1  0
 89 92  1  0
 89 91  1  0
 90 88  2  0
 93 94  1  0
 93 68  1  0
 95 93  1  0
M  ISO  4   5 101   6 101  58 100  66 100
M  END
>  <TORSDO>  (7) 
F 22

>  <SCORE>  (7) 
-12.699

>  <name>  (7) 
6

>  <ligand_id>  (7) 
6

>  <original_smiles>  (7) 
[H]c1c([H])c([H])c2c(c1[H])C([H])([H])C([H])([H])C([H])([H])C2([H])N([H])C(=O)C1([H])N(C(=O)C([H])(N([H])C(=O)C([H])(N([H])C([H])([H])[H])C([H])([H])[H])C(C([H])([H])[H])(C([H])([H])[H])C([H])([H])[H])C([H])([H])c2c([H])c(OC([H])([H])C(=O)C(C([H])([H])[H])(C([H])([H])c3c([H])c(C([H])([H])[H])c([H])c(C([H])([H])N([H])C(=O)N4C([H])([H])C([H])([H])C([H])([H])C([H])(n5nc(-c6c([H])c([H])c(Oc7c([H])c([H])c(F)c([H])c7F)c([H])c6[H])c(C(=O)N([H])[H])c5N([H])[H])C4([H])[H])c3[H])C([H])([H])C([H])([H])[H])c([H])c([H])c2C1([H])[H]

>  <smiles>  (7) 
[H]c1c([H])c([H])c2c(c1[H])C([H])([H])C([H])([H])C([H])([H])C2([H])N([H])C(=O)C1([H])N(C(=O)C([H])(N([H])C(=O)C([H])(N([H])C([H])([H])[H])C([H])([H])[H])C(C([H])([H])[H])(C([H])([H])[H])C([H])([H])[H])C([H])([H])c2c([H])c(OC([H])([H])C(=O)C(C([H])([H])[H])(C([H])([H])c3c([H])c(C([H])([H])[H])c([H])c(C([H])([H])N([H])C(=O)N4C([H])([H])C([H])([H])C([H])([H])C([H])(n5nc(-c6c([H])c([H])c(Oc7c([H])c([H])c(F)c([H])c7F)c([H])c6[H])c(C(=O)N([H])[H])c5N([H])[H])C4([H])[H])c3[H])C([H])([H])C([H])([H])[H])c([H])c([H])c2C1([H])[H]

$$$$
7:0:0
     RDKit          3D

 97105  0  0  1  0  0  0  0  0999 V2000
  -26.5740  -21.1810   18.9590 C   0  0  0  0  0  1  0  0  0  0  0  0
  -26.2940  -22.1430   21.2820 C   0  0  0  0  0  1  0  0  0  0  0  0
  -27.3070  -21.9570   20.1010 C   0  0  1  0  0  0  0  0  0  0  0  0
  -27.9840  -19.6020   20.9410 C   0  0  0  0  0  1  0  0  0  0  0  0
  -29.1810  -21.5430   21.8910 C   0  0  0  0  0  1  0  0  0  0  0  0
  -28.5210  -21.0300   20.5840 C   0  0  2  0  0  0  0  0  0  0  0  0
  -29.7010  -20.9930   19.5210 C   0  0  0  0  0  2  0  0  0  0  0  0
  -30.6090  -18.0420   17.2540 C   0  0  0  0  0  3  0  0  0  0  0  0
  -30.2770  -19.3410   17.6760 C   0  0  0  0  0  3  0  0  0  0  0  0
  -30.7650  -17.0180   18.2010 C   0  0  0  0  0  3  0  0  0  0  0  0
  -30.3820  -18.6150   20.0060 C   0  0  0  0  0  3  0  0  0  0  0  0
  -30.1460  -19.6240   19.0550 C   0  0  0  0  0  0  0  0  0  0  0  0
  -30.6170  -17.2990   19.5800 C   0  0  0  0  0  0  0  0  0  0  0  0
  -31.3650  -15.1900   20.4600 C   0  0  0  0  0  0  0  0  0  0  0  0
  -31.1410  -12.8930   19.6900 C   0  0  0  0  0  2  0  0  0  0  0  0
  -30.2950  -12.9190   18.4010 C   0  0  0  0  0  2  0  0  0  0  0  0
  -28.7980  -12.8030   18.7470 C   0  0  0  0  0  2  0  0  0  0  0  0
  -28.3490  -13.8070   19.8410 C   0  0  0  0  0  3  0  0  0  0  0  0
  -29.3310  -13.8240   21.0410 C   0  0  0  0  0  2  0  0  0  0  0  0
  -30.7000  -14.0140   20.5230 N   0  0  0  0  0  0  0  0  0  0  0  0
  -32.5530  -15.3070   20.1390 O   0  0  0  0  0  0  0  0  0  0  0  0
  -30.5810  -16.2570   20.5280 N   0  0  0  0  0  0  0  0  0  0  0  0
  -29.6700  -16.0750   20.9220 H   0  0  0  0  0  0  0  0  0  0  0  0
  -25.9360  -14.4380   20.4780 C   0  0  0  0  0  0  0  0  0  0  0  0
  -24.8410  -13.6740   20.7920 C   0  0  0  0  0  0  0  0  0  0  0  0
  -25.2820  -12.3170   20.7560 C   0  0  0  0  0  0  0  0  0  0  0  0
  -26.9760  -13.5450   20.2710 N   0  0  0  0  0  0  0  0  0  0  0  0
  -26.5820  -12.2650   20.5000 N   0  0  0  0  0  0  0  0  0  0  0  0
  -24.5310  -11.0600   20.8920 C   0  0  0  0  0  0  0  0  0  0  0  0
  -24.8710  -10.0960   21.8660 C   0  0  0  0  0  3  0  0  0  0  0  0
  -24.1200   -8.9060   21.9920 C   0  0  0  0  0  3  0  0  0  0  0  0
  -23.0150   -8.6710   21.1370 C   0  0  0  0  0  0  0  0  0  0  0  0
  -22.6940   -9.6240   20.1540 C   0  0  0  0  0  3  0  0  0  0  0  0
  -23.4460  -10.8040   20.0300 C   0  0  0  0  0  3  0  0  0  0  0  0
  -22.2470   -7.5300   21.1650 O   0  0  0  0  0  0  0  0  0  0  0  0
  -22.0060   -6.8590   22.3350 C   0  0  0  0  0  0  0  0  0  0  0  0
  -21.3930   -7.4870   23.4420 C   0  0  0  0  0  3  0  0  0  0  0  0
  -21.1020   -6.7410   24.6030 C   0  0  0  0  0  3  0  0  0  0  0  0
  -21.4060   -5.3670   24.6530 C   0  0  0  0  0  0  0  0  0  0  0  0
  -22.0020   -4.7380   23.5470 C   0  0  0  0  0  3  0  0  0  0  0  0
  -22.2960   -5.4810   22.3910 C   0  0  0  0  0  0  0  0  0  0  0  0
  -22.8560   -4.8650   21.3220 F   0  0  0  0  0  0  0  0  0  0  0  0
  -21.1150   -4.6490   25.7630 F   0  0  0  0  0  0  0  0  0  0  0  0
  -23.4420  -14.1690   21.0150 C   0  0  0  0  0  0  0  0  0  0  0  0
  -22.6800  -13.4820   21.8600 N   0  0  0  0  0  0  0  0  0  0  0  0
  -23.0360  -15.2010   20.4850 O   0  0  0  0  0  0  0  0  0  0  0  0
  -23.0190  -12.6500   22.3200 H   0  0  0  0  0  0  0  0  0  0  0  0
  -21.7370  -13.7960   22.0450 H   0  0  0  0  0  0  0  0  0  0  0  0
  -26.1340  -15.8040   20.3240 N   0  0  0  0  0  0  0  0  0  0  0  0
  -25.3810  -16.4790   20.3780 H   0  0  0  0  0  0  0  0  0  0  0  0
  -27.0110  -16.2120   20.0250 H   0  0  0  0  0  0  0  0  0  0  0  0
  -27.8540  -23.3360   19.5180 C   0  0  0  0  0  2  0  0  0  0  0  0
  -26.8560  -25.2420   20.9260 C   0  0  0  0  0  1  0  0  0  0  0  0
  -25.7230  -24.4840   18.7650 C   0  0  0  0  0  1  0  0  0  0  0  0
  -27.0840  -24.7070   19.4930 C   0  0  2  0  0  0  0  0  0  0  0  0
  -28.0100  -25.7390   18.6950 C   0  0  0  0  0  2  0  0  0  0  0  0
  -28.2190  -27.1170   19.1140 O   0  0  0  0  0  0  0  0  0  0  0  0
  -24.6360  -31.7480   23.1670 C   0  0  0  0  0  0  0  0  0  0  0  0
  -27.1280  -27.9500   19.2200 C   0  0  0  0  0  0  0  0  0  0  0  0
  -23.3720  -30.6200   21.3810 C   0  0  0  0  0  3  0  0  0  0  0  0
  -24.7540  -29.4160   19.6250 C   0  0  0  0  0  0  0  0  0  0  0  0
  -25.8830  -31.0420   21.1320 C   0  0  0  0  0  2  0  0  0  0  0  0
  -25.9370  -29.8020   20.2720 C   0  0  0  0  0  0  0  0  0  0  0  0
  -27.1230  -29.0490   20.1080 C   0  0  0  0  0  3  0  0  0  0  0  0
  -25.9820  -27.7200   18.4460 C   0  0  0  0  0  3  0  0  0  0  0  0
  -24.7700  -28.3650   18.7030 C   0  0  0  0  0  3  0  0  0  0  0  0
  -23.5080  -30.2240   19.8910 C   0  0  0  0  0  2  0  0  0  0  0  0
  -24.6540  -31.1400   21.9530 N   0  0  0  0  0  0  0  0  0  0  0  0
  -23.5780  -31.8980   23.7950 O   0  0  0  0  0  0  0  0  0  0  0  0
  -22.7960  -29.4190   22.1690 C   0  0  0  0  0  0  0  0  0  0  0  0
  -21.4690  -29.2270   22.0790 N   0  0  0  0  0  0  0  0  0  0  0  0
  -23.5300  -28.6780   22.8240 O   0  0  0  0  0  0  0  0  0  0  0  0
  -20.9310  -29.9090   21.5610 H   0  0  0  0  0  0  0  0  0  0  0  0
  -18.1530  -27.8470   22.5140 C   0  0  0  0  0  0  0  0  0  0  0  0
  -20.7110  -28.1400   22.7030 C   0  0  0  0  0  3  0  0  0  0  0  0
  -20.8340  -26.8350   21.8770 C   0  0  0  0  0  2  0  0  0  0  0  0
  -19.6660  -26.5950   20.9130 C   0  0  0  0  0  2  0  0  0  0  0  0
  -18.3290  -26.6060   21.6540 C   0  0  0  0  0  2  0  0  0  0  0  0
  -19.2710  -28.5720   22.9990 C   0  0  0  0  0  0  0  0  0  0  0  0
  -19.0570  -29.7320   23.7750 C   0  0  0  0  0  3  0  0  0  0  0  0
  -17.7530  -30.1690   24.0680 C   0  0  0  0  0  3  0  0  0  0  0  0
  -16.6460  -29.4380   23.5980 C   0  0  0  0  0  3  0  0  0  0  0  0
  -16.8470  -28.2780   22.8260 C   0  0  0  0  0  3  0  0  0  0  0  0
  -25.9420  -32.2980   23.8140 C   0  0  0  0  0  3  0  0  0  0  0  0
  -25.6460  -33.6490   24.3080 N   0  0  0  0  0  0  0  0  0  0  0  0
  -25.9820  -34.7780   23.6710 C   0  0  0  0  0  0  0  0  0  0  0  0
  -26.6420  -34.7900   22.6280 O   0  0  0  0  0  0  0  0  0  0  0  0
  -25.0510  -33.7150   25.1200 H   0  0  0  0  0  0  0  0  0  0  0  0
  -24.2760  -36.6190   23.5270 C   0  0  0  0  0  1  0  0  0  0  0  0
  -25.5070  -36.1080   24.2870 C   0  0  0  0  0  3  0  0  0  0  0  0
  -27.6530  -36.8530   25.2140 C   0  0  0  0  0  1  0  0  0  0  0  0
  -26.5550  -37.1500   24.3040 N   0  0  0  0  0  0  0  0  0  0  0  0
  -26.1640  -38.0570   24.5510 H   0  0  0  0  0  0  0  0  0  0  0  0
  -26.4930  -31.3810   24.9730 C   0  0  1  0  0  0  0  0  0  0  0  0
  -25.4400  -31.0270   26.0490 C   0  0  0  0  0  1  0  0  0  0  0  0
  -27.0500  -30.0570   24.4010 C   0  0  0  0  0  1  0  0  0  0  0  0
  -27.6740  -32.0870   25.6800 C   0  0  0  0  0  1  0  0  0  0  0  0
  3  1  1  6
  3  6  1  0
  3  2  1  0
  6  4  1  1
  6  5  1  0
  7  6  1  0
  8  9  2  0
  8 10  1  0
  9 12  1  0
 10 13  2  0
 12  7  1  0
 12 11  2  0
 13 11  1  0
 13 22  1  0
 14 20  1  0
 14 22  1  0
 15 20  1  0
 16 17  1  0
 16 15  1  0
 18 17  1  0
 18 27  1  0
 18 19  1  0
 20 19  1  0
 21 14  2  0
 22 23  1  0
 24 25  2  0
 25 44  1  0
 26 25  1  0
 26 29  1  0
 27 24  1  0
 27 28  1  0
 28 26  2  0
 29 30  1  0
 30 31  2  0
 32 35  1  0
 32 31  1  0
 33 32  2  0
 34 33  1  0
 34 29  2  0
 35 36  1  0
 36 41  2  0
 36 37  1  0
 37 38  2  0
 38 39  1  0
 39 43  1  0
 40 39  2  0
 41 40  1  0
 42 41  1  0
 44 45  1  0
 45 48  1  0
 45 47  1  0
 46 44  2  0
 49 50  1  0
 49 24  1  0
 51 49  1  0
 52  3  1  0
 55 54  1  6
 55 52  1  0
 55 53  1  0
 56 57  1  0
 56 55  1  0
 57 59  1  0
 58 69  2  0
 59 64  1  0
 60 68  1  0
 60 70  1  0
 61 67  1  0
 61 63  1  0
 62 68  1  0
 63 62  1  0
 64 63  2  0
 65 66  1  0
 65 59  2  0
 66 61  2  0
 67 60  1  0
 68 58  1  0
 70 72  2  0
 71 70  1  0
 73 71  1  0
 74 83  2  0
 74 79  1  0
 75 71  1  0
 75 79  1  0
 76 75  1  0
 77 78  1  0
 77 76  1  0
 78 74  1  0
 79 80  2  0
 80 81  1  0
 82 81  2  0
 83 82  1  0
 84 58  1  0
 84 85  1  0
 84 94  1  0
 85 88  1  0
 86 90  1  0
 86 85  1  0
 87 86  2  0
 90 89  1  0
 90 92  1  0
 92 93  1  0
 92 91  1  0
 94 97  1  1
 94 95  1  0
 96 94  1  0
M  ISO  4  14 100  22 100  56 101  57 101
M  END
>  <TORSDO>  (8) 
F 22

>  <SCORE>  (8) 
-9.859

>  <name>  (8) 
7

>  <ligand_id>  (8) 
7

>  <original_smiles>  (8) 
[H]c1c([H])c([H])c2c(c1[H])C([H])([H])C([H])([H])C([H])([H])C2([H])N([H])C(=O)C1([H])N(C(=O)C([H])(N([H])C(=O)C([H])(N([H])C([H])([H])[H])C([H])([H])[H])C(C([H])([H])[H])(C([H])([H])[H])C([H])([H])[H])C([H])([H])c2c([H])c(OC([H])([H])C(C([H])([H])[H])(C([H])([H])[H])C([H])([H])C(C([H])([H])[H])(C([H])([H])[H])C(C([H])([H])[H])(C([H])([H])[H])C([H])([H])c3c([H])c([H])c([H])c(N([H])C(=O)N4C([H])([H])C([H])([H])C([H])([H])C([H])(n5nc(-c6c([H])c([H])c(Oc7c([H])c([H])c(F)c([H])c7F)c([H])c6[H])c(C(=O)N([H])[H])c5N([H])[H])C4([H])[H])c3[H])c([H])c([H])c2C1([H])[H]

>  <smiles>  (8) 
[H]c1c([H])c([H])c2c(c1[H])C([H])([H])C([H])([H])C([H])([H])C2([H])N([H])C(=O)C1([H])N(C(=O)C([H])(N([H])C(=O)C([H])(N([H])C([H])([H])[H])C([H])([H])[H])C(C([H])([H])[H])(C([H])([H])[H])C([H])([H])[H])C([H])([H])c2c([H])c(OC([H])([H])C(C([H])([H])[H])(C([H])([H])[H])C([H])([H])C(C([H])([H])[H])(C([H])([H])[H])C(C([H])([H])[H])(C([H])([H])[H])C([H])([H])c3c([H])c([H])c([H])c(N([H])C(=O)N4C([H])([H])C([H])([H])C([H])([H])C([H])(n5nc(-c6c([H])c([H])c(Oc7c([H])c([H])c(F)c([H])c7F)c([H])c6[H])c(C(=O)N([H])[H])c5N([H])[H])C4([H])[H])c3[H])c([H])c([H])c2C1([H])[H]

$$$$
8:0:0
     RDKit          3D

 97106  0  0  1  0  0  0  0  0999 V2000
  -29.0400  -21.3400   20.0690 C   0  0  0  0  0  3  0  0  0  0  0  0
  -31.2610  -23.7740   21.8140 C   0  0  0  0  0  2  0  0  0  0  0  0
  -30.0840  -24.6830   21.4920 C   0  0  0  0  0  2  0  0  0  0  0  0
  -30.8430  -22.3890   21.3180 C   0  0  0  0  0  2  0  0  0  0  0  0
  -29.4130  -24.0820   20.2430 C   0  0  1  0  0  0  0  0  0  0  0  0
  -30.2590  -24.4180   18.9930 C   0  0  0  0  0  1  0  0  0  0  0  0
  -29.5960  -22.5450   20.5190 N   0  0  0  0  0  0  0  0  0  0  0  0
  -27.7910  -21.3830   19.6220 N   0  0  0  0  0  0  0  0  0  0  0  0
  -27.3830  -20.5470   19.2350 H   0  0  0  0  0  0  0  0  0  0  0  0
  -27.2150  -22.1980   19.7330 H   0  0  0  0  0  0  0  0  0  0  0  0
  -29.3960  -18.6350   20.3240 C   0  0  0  0  0  3  0  0  0  0  0  0
  -30.9940  -20.0890   19.2000 C   0  0  0  0  0  3  0  0  0  0  0  0
  -31.3590  -17.6720   19.2610 C   0  0  0  0  0  3  0  0  0  0  0  0
  -29.7940  -19.9930   19.9340 C   0  0  0  0  0  0  0  0  0  0  0  0
  -30.1780  -17.4290   20.0110 C   0  0  0  0  0  0  0  0  0  0  0  0
  -31.7600  -18.9600   18.8720 C   0  0  0  0  0  0  0  0  0  0  0  0
  -32.8920  -19.1140   18.1440 F   0  0  0  0  0  0  0  0  0  0  0  0
  -30.5170  -14.8110   20.1640 C   0  0  0  0  0  0  0  0  0  0  0  0
  -30.2510  -12.5320   19.1730 C   0  0  0  0  0  2  0  0  0  0  0  0
  -29.2850  -12.5970   17.9700 C   0  0  0  0  0  2  0  0  0  0  0  0
  -27.8300  -12.4200   18.4430 C   0  0  0  0  0  2  0  0  0  0  0  0
  -27.4870  -13.3050   19.6710 C   0  0  0  0  0  3  0  0  0  0  0  0
  -28.5790  -13.2520   20.7620 C   0  0  0  0  0  2  0  0  0  0  0  0
  -29.8520  -13.6030   20.1220 N   0  0  0  0  0  0  0  0  0  0  0  0
  -31.7110  -14.8200   19.8580 O   0  0  0  0  0  0  0  0  0  0  0  0
  -29.8100  -16.0060   20.3510 N   0  0  0  0  0  0  0  0  0  0  0  0
  -28.8640  -15.8750   20.6760 H   0  0  0  0  0  0  0  0  0  0  0  0
  -25.1310  -13.8750   20.5040 C   0  0  0  0  0  0  0  0  0  0  0  0
  -24.0770  -13.0940   20.8930 C   0  0  0  0  0  0  0  0  0  0  0  0
  -24.5350  -11.7430   20.8130 C   0  0  0  0  0  0  0  0  0  0  0  0
  -26.1620  -13.0010   20.2070 N   0  0  0  0  0  0  0  0  0  0  0  0
  -25.8150  -11.7120   20.4570 N   0  0  0  0  0  0  0  0  0  0  0  0
  -23.8130  -10.4770   20.9990 C   0  0  0  0  0  0  0  0  0  0  0  0
  -24.2570   -9.5000   21.9180 C   0  0  0  0  0  3  0  0  0  0  0  0
  -23.5350   -8.3000   22.0920 C   0  0  0  0  0  3  0  0  0  0  0  0
  -22.3530   -8.0670   21.3490 C   0  0  0  0  0  0  0  0  0  0  0  0
  -21.9270   -9.0330   20.4200 C   0  0  0  0  0  3  0  0  0  0  0  0
  -22.6500  -10.2250   20.2430 C   0  0  0  0  0  3  0  0  0  0  0  0
  -21.6010   -6.9190   21.4330 O   0  0  0  0  0  0  0  0  0  0  0  0
  -21.5430   -6.1810   22.5880 C   0  0  0  0  0  0  0  0  0  0  0  0
  -21.0710   -6.7290   23.8000 C   0  0  0  0  0  3  0  0  0  0  0  0
  -20.9640   -5.9160   24.9460 C   0  0  0  0  0  3  0  0  0  0  0  0
  -21.3170   -4.5540   24.8790 C   0  0  0  0  0  0  0  0  0  0  0  0
  -21.7800   -4.0050   23.6710 C   0  0  0  0  0  3  0  0  0  0  0  0
  -21.8910   -4.8170   22.5280 C   0  0  0  0  0  0  0  0  0  0  0  0
  -22.3180   -4.2780   21.3610 F   0  0  0  0  0  0  0  0  0  0  0  0
  -21.2060   -3.7700   25.9770 F   0  0  0  0  0  0  0  0  0  0  0  0
  -22.6910  -13.5670   21.2200 C   0  0  0  0  0  0  0  0  0  0  0  0
  -21.9860  -12.8490   22.0880 N   0  0  0  0  0  0  0  0  0  0  0  0
  -22.2420  -14.6090   20.7440 O   0  0  0  0  0  0  0  0  0  0  0  0
  -22.3610  -12.0080   22.5000 H   0  0  0  0  0  0  0  0  0  0  0  0
  -21.0560  -13.1470   22.3470 H   0  0  0  0  0  0  0  0  0  0  0  0
  -25.2930  -15.2490   20.3520 N   0  0  0  0  0  0  0  0  0  0  0  0
  -24.5320  -15.9020   20.4990 H   0  0  0  0  0  0  0  0  0  0  0  0
  -26.1210  -15.6870   19.9730 H   0  0  0  0  0  0  0  0  0  0  0  0
  -28.0270  -24.9090   20.0880 C   0  0  0  0  0  2  0  0  0  0  0  0
  -28.1710  -26.4170   20.0860 O   0  0  0  0  0  0  0  0  0  0  0  0
  -24.5120  -31.8970   23.1360 C   0  0  0  0  0  0  0  0  0  0  0  0
  -27.0500  -27.2800   20.0580 C   0  0  0  0  0  0  0  0  0  0  0  0
  -23.2710  -30.4920   21.5290 C   0  0  0  0  0  3  0  0  0  0  0  0
  -24.6910  -28.9260   20.0790 C   0  0  0  0  0  0  0  0  0  0  0  0
  -25.8100  -30.7990   21.2900 C   0  0  0  0  0  2  0  0  0  0  0  0
  -25.8750  -29.4120   20.6470 C   0  0  0  0  0  0  0  0  0  0  0  0
  -27.0560  -28.6030   20.6190 C   0  0  0  0  0  3  0  0  0  0  0  0
  -25.8400  -26.8550   19.4670 C   0  0  0  0  0  3  0  0  0  0  0  0
  -24.6780  -27.6570   19.4770 C   0  0  0  0  0  3  0  0  0  0  0  0
  -23.4570  -29.8070   20.1480 C   0  0  0  0  0  2  0  0  0  0  0  0
  -24.5520  -31.0830   22.0400 N   0  0  0  0  0  0  0  0  0  0  0  0
  -23.4410  -32.1780   23.6930 O   0  0  0  0  0  0  0  0  0  0  0  0
  -22.6280  -29.4840   22.5100 C   0  0  0  0  0  0  0  0  0  0  0  0
  -21.2990  -29.3080   22.4160 N   0  0  0  0  0  0  0  0  0  0  0  0
  -23.3240  -28.8600   23.3170 O   0  0  0  0  0  0  0  0  0  0  0  0
  -20.7970  -29.8610   21.7360 H   0  0  0  0  0  0  0  0  0  0  0  0
  -17.9360  -28.0970   22.9800 C   0  0  0  0  0  0  0  0  0  0  0  0
  -20.4970  -28.3760   23.2090 C   0  0  0  0  0  3  0  0  0  0  0  0
  -20.5990  -26.9380   22.6510 C   0  0  0  0  0  2  0  0  0  0  0  0
  -19.4850  -26.5970   21.6560 C   0  0  0  0  0  2  0  0  0  0  0  0
  -18.1110  -26.7420   22.3160 C   0  0  0  0  0  2  0  0  0  0  0  0
  -19.0560  -28.8720   23.3850 C   0  0  0  0  0  0  0  0  0  0  0  0
  -18.8370  -30.1390   23.9680 C   0  0  0  0  0  3  0  0  0  0  0  0
  -17.5310  -30.6330   24.1470 C   0  0  0  0  0  3  0  0  0  0  0  0
  -16.4260  -29.8550   23.7570 C   0  0  0  0  0  3  0  0  0  0  0  0
  -16.6290  -28.5900   23.1800 C   0  0  0  0  0  3  0  0  0  0  0  0
  -25.8070  -32.5340   23.7280 C   0  0  0  0  0  3  0  0  0  0  0  0
  -25.4930  -33.9220   24.0980 N   0  0  0  0  0  0  0  0  0  0  0  0
  -25.7900  -34.9950   23.3540 C   0  0  0  0  0  0  0  0  0  0  0  0
  -26.4260  -34.9210   22.2990 O   0  0  0  0  0  0  0  0  0  0  0  0
  -24.9260  -34.0510   24.9220 H   0  0  0  0  0  0  0  0  0  0  0  0
  -24.0530  -36.7930   23.0770 C   0  0  0  0  0  1  0  0  0  0  0  0
  -25.3060  -36.3680   23.8590 C   0  0  0  0  0  3  0  0  0  0  0  0
  -27.4430  -37.2410   24.6960 C   0  0  0  0  0  1  0  0  0  0  0  0
  -26.3340  -37.4280   23.7640 N   0  0  0  0  0  0  0  0  0  0  0  0
  -25.9250  -38.3420   23.9370 H   0  0  0  0  0  0  0  0  0  0  0  0
  -26.3740  -31.7460   24.9720 C   0  0  1  0  0  0  0  0  0  0  0  0
  -25.3190  -31.4790   26.0710 C   0  0  0  0  0  1  0  0  0  0  0  0
  -26.9560  -30.3810   24.5380 C   0  0  0  0  0  1  0  0  0  0  0  0
  -27.5370  -32.5400   25.6110 C   0  0  0  0  0  1  0  0  0  0  0  0
  1  8  1  0
  1  7  1  0
  3  2  1  0
  4  2  1  0
  5  6  1  6
  5  7  1  0
  5  3  1  0
  7  4  1  0
  8 10  1  0
  9  8  1  0
 12 14  1  0
 13 15  2  0
 14  1  1  0
 14 11  2  0
 15 11  1  0
 15 26  1  0
 16 12  2  0
 16 13  1  0
 17 16  1  0
 18 26  1  0
 19 24  1  0
 20 21  1  0
 20 19  1  0
 22 21  1  0
 22 31  1  0
 22 23  1  0
 24 18  1  0
 24 23  1  0
 25 18  2  0
 26 27  1  0
 28 29  2  0
 29 48  1  0
 30 29  1  0
 30 33  1  0
 31 32  1  0
 31 28  1  0
 32 30  2  0
 33 34  1  0
 34 35  2  0
 36 39  1  0
 36 35  1  0
 37 36  2  0
 38 37  1  0
 38 33  2  0
 39 40  1  0
 40 41  1  0
 41 42  2  0
 43 42  1  0
 43 47  1  0
 44 43  2  0
 45 40  2  0
 45 44  1  0
 46 45  1  0
 48 49  1  0
 49 52  1  0
 49 51  1  0
 50 48  2  0
 53 54  1  0
 53 28  1  0
 55 53  1  0
 56  5  1  0
 57 56  1  0
 58 69  2  0
 59 57  1  0
 59 64  1  0
 60 68  1  0
 60 70  1  0
 61 67  1  0
 61 63  1  0
 62 68  1  0
 63 62  1  0
 64 63  2  0
 65 66  1  0
 65 59  2  0
 66 61  2  0
 67 60  1  0
 68 58  1  0
 70 72  2  0
 71 70  1  0
 73 71  1  0
 74 83  2  0
 74 79  1  0
 75 71  1  0
 75 79  1  0
 76 75  1  0
 77 78  1  0
 77 76  1  0
 78 74  1  0
 79 80  2  0
 80 81  1  0
 82 81  2  0
 83 82  1  0
 84 58  1  0
 84 85  1  0
 84 94  1  0
 85 88  1  0
 86 90  1  0
 86 85  1  0
 87 86  2  0
 90 89  1  0
 92 90  1  0
 92 93  1  0
 92 91  1  0
 94 97  1  1
 94 95  1  0
 96 94  1  0
M  ISO  4  18 100  26 100  56 101  57 101
M  END
>  <TORSDO>  (9) 
F 18

>  <SCORE>  (9) 
-14.242

>  <name>  (9) 
8

>  <ligand_id>  (9) 
8

>  <original_smiles>  (9) 
[H]c1c([H])c([H])c2c(c1[H])C([H])([H])C([H])([H])C([H])([H])C2([H])N([H])C(=O)C1([H])N(C(=O)C([H])(N([H])C(=O)C([H])(N([H])C([H])([H])[H])C([H])([H])[H])C(C([H])([H])[H])(C([H])([H])[H])C([H])([H])[H])C([H])([H])c2c([H])c(OC([H])([H])C3(C([H])([H])[H])N(C(c4c([H])c(F)c([H])c(N([H])C(=O)N5C([H])([H])C([H])([H])C([H])([H])C([H])(n6nc(-c7c([H])c([H])c(Oc8c([H])c([H])c(F)c([H])c8F)c([H])c7[H])c(C(=O)N([H])[H])c6N([H])[H])C5([H])[H])c4[H])=[N+]([H])[H])C([H])([H])C([H])([H])C3([H])[H])c([H])c([H])c2C1([H])[H]

>  <smiles>  (9) 
[H]c1c([H])c([H])c2c(c1[H])C([H])([H])C([H])([H])C([H])([H])C2([H])N([H])C(=O)C1([H])N(C(=O)C([H])(N([H])C(=O)C([H])(N([H])C([H])([H])[H])C([H])([H])[H])C(C([H])([H])[H])(C([H])([H])[H])C([H])([H])[H])C([H])([H])c2c([H])c(OC([H])([H])C3(C([H])([H])[H])N(C(c4c([H])c(F)c([H])c(N([H])C(=O)N5C([H])([H])C([H])([H])C([H])([H])C([H])(n6nc(-c7c([H])c([H])c(Oc8c([H])c([H])c(F)c([H])c8F)c([H])c7[H])c(C(=O)N([H])[H])c6N([H])[H])C5([H])[H])c4[H])=[N+]([H])[H])C([H])([H])C([H])([H])C3([H])[H])c([H])c([H])c2C1([H])[H]

$$$$
9:0:0
     RDKit          3D

100108  0  0  1  0  0  0  0  0999 V2000
  -30.4500  -21.3470   21.2720 C   0  0  0  0  0  0  0  0  0  0  0  0
  -29.5510  -20.4170   20.9240 N   0  0  0  0  0  0  0  0  0  0  0  0
  -31.5350  -21.0720   21.7900 O   0  0  0  0  0  0  0  0  0  0  0  0
  -28.6900  -20.8120   20.5710 H   0  0  0  0  0  0  0  0  0  0  0  0
  -29.8800  -19.0720   18.9770 C   0  0  0  0  0  3  0  0  0  0  0  0
  -30.4430  -16.7140   19.0930 C   0  0  0  0  0  3  0  0  0  0  0  0
  -30.1670  -17.9970   21.1580 C   0  0  0  0  0  3  0  0  0  0  0  0
  -30.1570  -17.8600   18.3240 C   0  0  0  0  0  0  0  0  0  0  0  0
  -29.8870  -19.1520   20.3820 C   0  0  0  0  0  0  0  0  0  0  0  0
  -30.4540  -16.7650   20.5110 C   0  0  0  0  0  0  0  0  0  0  0  0
  -31.3820  -14.5210   20.8260 C   0  0  0  0  0  0  0  0  0  0  0  0
  -31.1290  -12.3330   19.7260 C   0  0  0  0  0  2  0  0  0  0  0  0
  -30.3330  -12.5730   18.4260 C   0  0  0  0  0  2  0  0  0  0  0  0
  -28.8130  -12.5280   18.6930 C   0  0  0  0  0  2  0  0  0  0  0  0
  -28.3840  -13.3690   19.9280 C   0  0  0  0  0  3  0  0  0  0  0  0
  -29.3170  -13.1110   21.1350 C   0  0  0  0  0  2  0  0  0  0  0  0
  -30.7040  -13.3470   20.7030 N   0  0  0  0  0  0  0  0  0  0  0  0
  -32.5450  -14.6740   20.4370 O   0  0  0  0  0  0  0  0  0  0  0  0
  -30.6530  -15.5650   21.2630 N   0  0  0  0  0  0  0  0  0  0  0  0
  -29.8540  -15.2900   21.8160 H   0  0  0  0  0  0  0  0  0  0  0  0
  -25.9470  -14.0710   20.3690 C   0  0  0  0  0  0  0  0  0  0  0  0
  -24.8220  -13.3440   20.6620 C   0  0  0  0  0  0  0  0  0  0  0  0
  -25.2400  -11.9820   20.7300 C   0  0  0  0  0  0  0  0  0  0  0  0
  -26.9790  -13.1500   20.2730 N   0  0  0  0  0  0  0  0  0  0  0  0
  -26.5500  -11.8910   20.5430 N   0  0  0  0  0  0  0  0  0  0  0  0
  -24.4590  -10.7480   20.9010 C   0  0  0  0  0  0  0  0  0  0  0  0
  -24.7320   -9.8400   21.9500 C   0  0  0  0  0  3  0  0  0  0  0  0
  -23.9560   -8.6710   22.1030 C   0  0  0  0  0  3  0  0  0  0  0  0
  -22.8920   -8.4030   21.2070 C   0  0  0  0  0  0  0  0  0  0  0  0
  -22.6380   -9.3000   20.1550 C   0  0  0  0  0  3  0  0  0  0  0  0
  -23.4150  -10.4610   20.0000 C   0  0  0  0  0  3  0  0  0  0  0  0
  -22.0990   -7.2830   21.2650 O   0  0  0  0  0  0  0  0  0  0  0  0
  -21.8300   -6.6530   22.4530 C   0  0  0  0  0  0  0  0  0  0  0  0
  -21.1920   -7.3190   23.5230 C   0  0  0  0  0  3  0  0  0  0  0  0
  -20.8740   -6.6130   24.7000 C   0  0  0  0  0  3  0  0  0  0  0  0
  -21.1830   -5.2440   24.8060 C   0  0  0  0  0  0  0  0  0  0  0  0
  -21.8140   -4.5780   23.7400 C   0  0  0  0  0  3  0  0  0  0  0  0
  -22.1300   -5.2800   22.5630 C   0  0  0  0  0  0  0  0  0  0  0  0
  -22.7190   -4.6300   21.5310 F   0  0  0  0  0  0  0  0  0  0  0  0
  -20.8660   -4.5630   25.9330 F   0  0  0  0  0  0  0  0  0  0  0  0
  -23.4230  -13.8750   20.7810 C   0  0  0  0  0  0  0  0  0  0  0  0
  -22.5970  -13.2610   21.6210 N   0  0  0  0  0  0  0  0  0  0  0  0
  -23.0640  -14.8750   20.1590 O   0  0  0  0  0  0  0  0  0  0  0  0
  -22.8840  -12.4480   22.1470 H   0  0  0  0  0  0  0  0  0  0  0  0
  -21.6580  -13.6130   21.7360 H   0  0  0  0  0  0  0  0  0  0  0  0
  -26.1690  -15.4300   20.1630 N   0  0  0  0  0  0  0  0  0  0  0  0
  -25.4090  -16.0980   20.1770 H   0  0  0  0  0  0  0  0  0  0  0  0
  -27.0690  -15.8490   19.9570 H   0  0  0  0  0  0  0  0  0  0  0  0
  -30.1650  -17.7820   16.8030 C   0  0  0  0  0  2  0  0  0  0  0  0
  -29.4720  -18.8200   14.5720 C   0  0  0  0  0  1  0  0  0  0  0  0
  -29.3680  -18.8980   16.1010 C   0  0  0  0  0  2  0  0  0  0  0  0
  -30.0740  -22.8110   20.9530 C   0  0  0  0  0  2  0  0  0  0  0  0
  -27.8300  -22.9900   22.1190 C   0  0  0  0  0  1  0  0  0  0  0  0
  -29.9110  -23.5240   23.3870 C   0  0  0  0  0  1  0  0  0  0  0  0
  -29.2330  -23.6370   21.9910 C   0  0  1  0  0  0  0  0  0  0  0  0
  -30.4640  -25.7100   21.0180 C   0  0  0  0  0  1  0  0  0  0  0  0
  -28.7030  -26.0770   22.7330 C   0  0  0  0  0  1  0  0  0  0  0  0
  -29.1070  -25.1700   21.5400 C   0  0  2  0  0  0  0  0  0  0  0  0
  -28.0370  -25.3990   20.4170 C   0  0  0  0  0  2  0  0  0  0  0  0
  -28.0660  -26.7600   19.9730 O   0  0  0  0  0  0  0  0  0  0  0  0
  -24.4040  -31.8610   23.2770 C   0  0  0  0  0  0  0  0  0  0  0  0
  -26.8870  -27.4640   20.0370 C   0  0  0  0  0  0  0  0  0  0  0  0
  -23.1270  -30.5330   21.6240 C   0  0  0  0  0  3  0  0  0  0  0  0
  -24.5140  -28.9930   20.1340 C   0  0  0  0  0  0  0  0  0  0  0  0
  -25.6510  -30.8480   21.3730 C   0  0  0  0  0  2  0  0  0  0  0  0
  -25.6930  -29.4920   20.7020 C   0  0  0  0  0  0  0  0  0  0  0  0
  -26.8830  -28.7370   20.6440 C   0  0  0  0  0  3  0  0  0  0  0  0
  -25.6930  -26.9640   19.4740 C   0  0  0  0  0  3  0  0  0  0  0  0
  -24.5090  -27.7270   19.5170 C   0  0  0  0  0  3  0  0  0  0  0  0
  -23.2900  -29.8770   20.2260 C   0  0  0  0  0  2  0  0  0  0  0  0
  -24.4140  -31.0930   22.1510 N   0  0  0  0  0  0  0  0  0  0  0  0
  -23.3430  -32.1430   23.8510 O   0  0  0  0  0  0  0  0  0  0  0  0
  -22.4730  -29.5050   22.5750 C   0  0  0  0  0  0  0  0  0  0  0  0
  -21.1470  -29.3300   22.4450 N   0  0  0  0  0  0  0  0  0  0  0  0
  -23.1540  -28.8660   23.3820 O   0  0  0  0  0  0  0  0  0  0  0  0
  -20.6610  -29.8990   21.7670 H   0  0  0  0  0  0  0  0  0  0  0  0
  -17.7610  -28.1730   22.9470 C   0  0  0  0  0  0  0  0  0  0  0  0
  -20.3250  -28.3860   23.2020 C   0  0  0  0  0  3  0  0  0  0  0  0
  -20.4000  -26.9680   22.5920 C   0  0  0  0  0  2  0  0  0  0  0  0
  -19.2850  -26.6860   21.5810 C   0  0  0  0  0  2  0  0  0  0  0  0
  -17.9110  -26.8370   22.2400 C   0  0  0  0  0  2  0  0  0  0  0  0
  -18.8950  -28.9080   23.3840 C   0  0  0  0  0  0  0  0  0  0  0  0
  -18.7010  -30.1620   24.0040 C   0  0  0  0  0  3  0  0  0  0  0  0
  -17.4060  -30.6790   24.1900 C   0  0  0  0  0  3  0  0  0  0  0  0
  -16.2870  -29.9400   23.7720 C   0  0  0  0  0  3  0  0  0  0  0  0
  -16.4650  -28.6880   23.1560 C   0  0  0  0  0  3  0  0  0  0  0  0
  -25.7200  -32.4420   23.8860 C   0  0  0  0  0  3  0  0  0  0  0  0
  -26.2440  -31.6240   25.1300 C   0  0  1  0  0  0  0  0  0  0  0  0
  -25.1510  -31.3180   26.1800 C   0  0  0  0  0  1  0  0  0  0  0  0
  -26.8550  -30.2780   24.6780 C   0  0  0  0  0  1  0  0  0  0  0  0
  -27.3780  -32.4080   25.8340 C   0  0  0  0  0  1  0  0  0  0  0  0
  -25.4590  -33.8390   24.2550 N   0  0  0  0  0  0  0  0  0  0  0  0
  -25.8170  -34.8990   23.5180 C   0  0  0  0  0  0  0  0  0  0  0  0
  -26.4750  -34.8000   22.4770 O   0  0  0  0  0  0  0  0  0  0  0  0
  -24.8760  -33.9920   25.0640 H   0  0  0  0  0  0  0  0  0  0  0  0
  -24.1470  -36.7530   23.2130 C   0  0  0  0  0  1  0  0  0  0  0  0
  -25.3760  -36.2900   24.0110 C   0  0  0  0  0  3  0  0  0  0  0  0
  -27.5370  -37.0860   24.8650 C   0  0  0  0  0  1  0  0  0  0  0  0
  -26.4420  -37.3120   23.9240 N   0  0  0  0  0  0  0  0  0  0  0  0
  -26.0660  -38.2410   24.0920 H   0  0  0  0  0  0  0  0  0  0  0  0
  1  3  2  0
  2  1  1  0
  4  2  1  0
  5  9  1  0
  6 10  2  0
  8  5  2  0
  8  6  1  0
  9  2  1  0
  9  7  2  0
 10  7  1  0
 10 19  1  0
 11 19  1  0
 12 17  1  0
 13 14  1  0
 13 12  1  0
 15 14  1  0
 15 24  1  0
 15 16  1  0
 17 11  1  0
 17 16  1  0
 18 11  2  0
 19 20  1  0
 21 22  2  0
 22 23  1  0
 22 41  1  0
 23 26  1  0
 24 21  1  0
 24 25  1  0
 25 23  2  0
 26 27  1  0
 27 28  2  0
 29 32  1  0
 29 28  1  0
 30 29  2  0
 31 30  1  0
 31 26  2  0
 32 33  1  0
 33 38  2  0
 33 34  1  0
 34 35  2  0
 35 36  1  0
 36 40  1  0
 37 36  2  0
 38 37  1  0
 39 38  1  0
 41 42  1  0
 42 45  1  0
 42 44  1  0
 43 41  2  0
 46 47  1  0
 46 21  1  0
 48 46  1  0
 49  8  1  0
 50 51  1  0
 51 49  1  0
 52  1  1  0
 52 55  1  0
 55 53  1  1
 55 54  1  0
 58 56  1  6
 58 55  1  0
 58 57  1  0
 59 58  1  0
 60 62  1  0
 60 59  1  0
 61 72  2  0
 62 67  1  0
 63 71  1  0
 63 73  1  0
 64 70  1  0
 64 66  1  0
 65 71  1  0
 66 65  1  0
 67 66  2  0
 68 69  1  0
 68 62  2  0
 69 64  2  0
 70 63  1  0
 71 61  1  0
 73 75  2  0
 74 73  1  0
 76 74  1  0
 77 86  2  0
 77 82  1  0
 78 74  1  0
 78 82  1  0
 79 78  1  0
 80 81  1  0
 80 79  1  0
 81 77  1  0
 82 83  2  0
 83 84  1  0
 85 84  2  0
 86 85  1  0
 87 61  1  0
 87 92  1  0
 87 88  1  0
 88 91  1  1
 88 89  1  0
 90 88  1  0
 92 95  1  0
 93 97  1  0
 93 92  1  0
 94 93  2  0
 97 96  1  0
 99 97  1  0
 99100  1  0
 99 98  1  0
M  ISO  4  11 100  19 100  59 101  60 101
M  END
>  <TORSDO>  (10) 
F 23

>  <SCORE>  (10) 
-12.029

>  <name>  (10) 
9

>  <ligand_id>  (10) 
9

>  <original_smiles>  (10) 
[H]c1c([H])c([H])c2c(c1[H])C([H])([H])C([H])([H])C([H])([H])C2([H])N([H])C(=O)C1([H])N(C(=O)C([H])(N([H])C(=O)C([H])(N([H])C([H])([H])[H])C([H])([H])[H])C(C([H])([H])[H])(C([H])([H])[H])C([H])([H])[H])C([H])([H])c2c([H])c(OC([H])([H])C(C([H])([H])[H])(C([H])([H])[H])C(C([H])([H])[H])(C([H])([H])[H])C([H])([H])C(=O)N([H])c3c([H])c(N([H])C(=O)N4C([H])([H])C([H])([H])C([H])([H])C([H])(n5nc(-c6c([H])c([H])c(Oc7c([H])c([H])c(F)c([H])c7F)c([H])c6[H])c(C(=O)N([H])[H])c5N([H])[H])C4([H])[H])c([H])c(C([H])([H])C([H])([H])C([H])([H])[H])c3[H])c([H])c([H])c2C1([H])[H]

>  <smiles>  (10) 
[H]c1c([H])c([H])c2c(c1[H])C([H])([H])C([H])([H])C([H])([H])C2([H])N([H])C(=O)C1([H])N(C(=O)C([H])(N([H])C(=O)C([H])(N([H])C([H])([H])[H])C([H])([H])[H])C(C([H])([H])[H])(C([H])([H])[H])C([H])([H])[H])C([H])([H])c2c([H])c(OC([H])([H])C(C([H])([H])[H])(C([H])([H])[H])C(C([H])([H])[H])(C([H])([H])[H])C([H])([H])C(=O)N([H])c3c([H])c(N([H])C(=O)N4C([H])([H])C([H])([H])C([H])([H])C([H])(n5nc(-c6c([H])c([H])c(Oc7c([H])c([H])c(F)c([H])c7F)c([H])c6[H])c(C(=O)N([H])[H])c5N([H])[H])C4([H])[H])c([H])c(C([H])([H])C([H])([H])C([H])([H])[H])c3[H])c([H])c([H])c2C1([H])[H]

$$$$
10:0:0
     RDKit          3D

 95103  0  0  1  0  0  0  0  0999 V2000
  -29.7100  -19.2880   20.5020 C   0  0  0  0  0  3  0  0  0  0  0  0
  -29.2520  -20.3810   19.6530 C   0  0  0  0  0  0  0  0  0  0  0  0
  -30.7620  -18.5450   20.0500 C   0  0  0  0  0  0  0  0  0  0  0  0
  -30.0210  -20.5090   18.4830 C   0  0  0  0  0  0  0  0  0  0  0  0
  -31.2930  -19.2570   18.5480 S   0  0  0  0  0  0  0  0  0  0  0  0
  -28.4670  -21.8660   21.5080 C   0  0  0  0  0  1  0  0  0  0  0  0
  -26.8730  -20.2020   20.4760 C   0  0  0  0  0  1  0  0  0  0  0  0
  -27.4340  -22.2520   19.2870 C   0  0  0  0  0  1  0  0  0  0  0  0
  -28.0470  -21.1730   20.1950 C   0  0  2  0  0  0  0  0  0  0  0  0
  -30.9820  -20.8780   16.1460 C   0  0  0  0  0  1  0  0  0  0  0  0
  -28.5930  -20.9320   16.3870 C   0  0  0  0  0  1  0  0  0  0  0  0
  -29.8830  -21.3410   17.1490 C   0  0  1  0  0  0  0  0  0  0  0  0
  -30.0220  -22.9440   17.1020 C   0  0  0  0  0  2  0  0  0  0  0  0
  -30.4150  -23.8880   18.2780 C   0  0  0  0  0  2  0  0  0  0  0  0
  -29.3560  -24.9820   18.6950 C   0  0  0  0  0  2  0  0  0  0  0  0
  -29.3020  -26.2840   18.0230 O   0  0  0  0  0  0  0  0  0  0  0  0
  -25.3710  -30.0910   22.6870 C   0  0  0  0  0  0  0  0  0  0  0  0
  -28.1420  -27.0010   18.2880 C   0  0  0  0  0  0  0  0  0  0  0  0
  -24.1880  -29.1590   20.7320 C   0  0  0  0  0  3  0  0  0  0  0  0
  -25.6650  -28.2790   18.8440 C   0  0  0  0  0  0  0  0  0  0  0  0
  -26.6710  -29.7710   20.5730 C   0  0  0  0  0  2  0  0  0  0  0  0
  -26.8200  -28.6770   19.5290 C   0  0  0  0  0  0  0  0  0  0  0  0
  -28.0670  -28.0490   19.2490 C   0  0  0  0  0  3  0  0  0  0  0  0
  -26.9690  -26.6540   17.5890 C   0  0  0  0  0  3  0  0  0  0  0  0
  -25.7370  -27.2760   17.8650 C   0  0  0  0  0  3  0  0  0  0  0  0
  -24.3650  -28.9680   19.2030 C   0  0  0  0  0  2  0  0  0  0  0  0
  -25.4320  -29.6730   21.3890 N   0  0  0  0  0  0  0  0  0  0  0  0
  -24.3060  -30.0840   23.3170 O   0  0  0  0  0  0  0  0  0  0  0  0
  -23.6740  -27.8340   21.3460 C   0  0  0  0  0  0  0  0  0  0  0  0
  -22.3610  -27.5810   21.2150 N   0  0  0  0  0  0  0  0  0  0  0  0
  -24.4500  -27.0520   21.9000 O   0  0  0  0  0  0  0  0  0  0  0  0
  -21.7840  -28.2790   20.7670 H   0  0  0  0  0  0  0  0  0  0  0  0
  -19.1330  -25.9610   21.3980 C   0  0  0  0  0  0  0  0  0  0  0  0
  -21.6690  -26.3770   21.6760 C   0  0  0  0  0  3  0  0  0  0  0  0
  -21.8670  -25.2040   20.6880 C   0  0  0  0  0  2  0  0  0  0  0  0
  -20.7450  -25.1030   19.6470 C   0  0  0  0  0  2  0  0  0  0  0  0
  -19.3940  -24.9010   20.3400 C   0  0  0  0  0  2  0  0  0  0  0  0
  -20.2020  -26.6640   22.0120 C   0  0  0  0  0  0  0  0  0  0  0  0
  -19.9060  -27.6680   22.9620 C   0  0  0  0  0  3  0  0  0  0  0  0
  -18.5730  -27.9680   23.3010 C   0  0  0  0  0  3  0  0  0  0  0  0
  -17.5180  -27.2590   22.6990 C   0  0  0  0  0  3  0  0  0  0  0  0
  -17.8020  -26.2530   21.7540 C   0  0  0  0  0  3  0  0  0  0  0  0
  -26.6360  -30.6190   23.4330 C   0  0  0  0  0  3  0  0  0  0  0  0
  -26.2220  -31.7730   24.2440 N   0  0  0  0  0  0  0  0  0  0  0  0
  -26.4920  -33.0500   23.9410 C   0  0  0  0  0  0  0  0  0  0  0  0
  -27.1880  -33.3760   22.9760 O   0  0  0  0  0  0  0  0  0  0  0  0
  -25.6040  -31.5850   25.0200 H   0  0  0  0  0  0  0  0  0  0  0  0
  -24.6720  -34.7680   24.1790 C   0  0  0  0  0  1  0  0  0  0  0  0
  -25.8990  -34.1390   24.8560 C   0  0  0  0  0  3  0  0  0  0  0  0
  -27.9340  -34.7290   26.0970 C   0  0  0  0  0  1  0  0  0  0  0  0
  -26.8670  -35.1980   25.2160 N   0  0  0  0  0  0  0  0  0  0  0  0
  -26.3980  -35.9780   25.6690 H   0  0  0  0  0  0  0  0  0  0  0  0
  -27.3280  -29.5240   24.3350 C   0  0  1  0  0  0  0  0  0  0  0  0
  -26.3590  -28.8130   25.3090 C   0  0  0  0  0  1  0  0  0  0  0  0
  -27.9980  -28.4390   23.4590 C   0  0  0  0  0  1  0  0  0  0  0  0
  -28.4560  -30.1710   25.1720 C   0  0  0  0  0  1  0  0  0  0  0  0
  -31.5470  -17.4170   20.7410 C   0  0  0  0  0  2  0  0  0  0  0  0
  -31.5850  -14.9250   21.0800 C   0  0  0  0  0  0  0  0  0  0  0  0
  -31.3290  -12.5830   20.3390 C   0  0  0  0  0  2  0  0  0  0  0  0
  -30.6110  -12.5820   18.9730 C   0  0  0  0  0  2  0  0  0  0  0  0
  -29.0810  -12.5900   19.1630 C   0  0  0  0  0  2  0  0  0  0  0  0
  -28.6060  -13.6610   20.1820 C   0  0  0  0  0  3  0  0  0  0  0  0
  -29.4550  -13.6230   21.4730 C   0  0  0  0  0  2  0  0  0  0  0  0
  -30.8620  -13.7690   21.0790 N   0  0  0  0  0  0  0  0  0  0  0  0
  -32.8070  -14.9170   20.9020 O   0  0  0  0  0  0  0  0  0  0  0  0
  -30.9010  -16.1040   21.0460 N   0  0  0  0  0  0  0  0  0  0  0  0
  -29.9000  -16.0770   21.1690 H   0  0  0  0  0  0  0  0  0  0  0  0
  -26.2110  -14.5270   20.5300 C   0  0  0  0  0  0  0  0  0  0  0  0
  -25.0260  -13.8790   20.7440 C   0  0  0  0  0  0  0  0  0  0  0  0
  -25.3410  -12.4860   20.7980 C   0  0  0  0  0  0  0  0  0  0  0  0
  -27.1790  -13.5370   20.4650 N   0  0  0  0  0  0  0  0  0  0  0  0
  -26.6520  -12.3060   20.6880 N   0  0  0  0  0  0  0  0  0  0  0  0
  -24.4660  -11.3100   20.8890 C   0  0  0  0  0  0  0  0  0  0  0  0
  -24.7370  -10.2570   21.7890 C   0  0  0  0  0  3  0  0  0  0  0  0
  -23.8720   -9.1450   21.8730 C   0  0  0  0  0  3  0  0  0  0  0  0
  -22.7190   -9.0800   21.0540 C   0  0  0  0  0  0  0  0  0  0  0  0
  -22.4670  -10.1220   20.1430 C   0  0  0  0  0  3  0  0  0  0  0  0
  -23.3320  -11.2250   20.0580 C   0  0  0  0  0  3  0  0  0  0  0  0
  -21.8340   -8.0300   21.0490 O   0  0  0  0  0  0  0  0  0  0  0  0
  -21.7650   -7.1410   22.0920 C   0  0  0  0  0  0  0  0  0  0  0  0
  -21.5150   -7.5650   23.4160 C   0  0  0  0  0  3  0  0  0  0  0  0
  -21.3810   -6.6120   24.4460 C   0  0  0  0  0  3  0  0  0  0  0  0
  -21.4900   -5.2390   24.1550 C   0  0  0  0  0  0  0  0  0  0  0  0
  -21.7330   -4.8160   22.8370 C   0  0  0  0  0  3  0  0  0  0  0  0
  -21.8690   -5.7640   21.8080 C   0  0  0  0  0  0  0  0  0  0  0  0
  -22.0820   -5.3490   20.5370 F   0  0  0  0  0  0  0  0  0  0  0  0
  -21.3540   -4.3240   25.1430 F   0  0  0  0  0  0  0  0  0  0  0  0
  -23.6610  -14.5030   20.7980 C   0  0  0  0  0  0  0  0  0  0  0  0
  -22.7470  -13.9160   21.5600 N   0  0  0  0  0  0  0  0  0  0  0  0
  -23.4130  -15.5500   20.1980 O   0  0  0  0  0  0  0  0  0  0  0  0
  -22.9550  -13.0680   22.0690 H   0  0  0  0  0  0  0  0  0  0  0  0
  -21.8250  -14.3180   21.6380 H   0  0  0  0  0  0  0  0  0  0  0  0
  -26.5470  -15.8680   20.3620 N   0  0  0  0  0  0  0  0  0  0  0  0
  -25.8500  -16.6050   20.3600 H   0  0  0  0  0  0  0  0  0  0  0  0
  -27.4760  -16.2050   20.1430 H   0  0  0  0  0  0  0  0  0  0  0  0
  2  9  1  0
  2  1  1  0
  3  1  2  0
  3 57  1  0
  4  5  1  0
  4  2  2  0
  5  3  1  0
  9  8  1  6
  9  7  1  0
  9  6  1  0
 12 10  1  6
 11 12  1  0
 12  4  1  0
 13 12  1  0
 13 14  1  0
 14 15  1  0
 16 18  1  0
 16 15  1  0
 17 28  2  0
 18 23  1  0
 19 29  1  0
 19 27  1  0
 20 26  1  0
 20 22  1  0
 21 27  1  0
 22 21  1  0
 23 22  2  0
 24 25  1  0
 24 18  2  0
 25 20  2  0
 26 19  1  0
 27 17  1  0
 29 31  2  0
 30 29  1  0
 32 30  1  0
 33 42  2  0
 33 38  1  0
 34 30  1  0
 34 38  1  0
 35 34  1  0
 36 37  1  0
 36 35  1  0
 37 33  1  0
 38 39  2  0
 39 40  1  0
 41 40  2  0
 42 41  1  0
 43 17  1  0
 43 44  1  0
 43 53  1  0
 44 47  1  0
 45 44  1  0
 45 49  1  0
 46 45  2  0
 49 48  1  0
 49 51  1  0
 51 52  1  0
 51 50  1  0
 53 56  1  1
 53 54  1  0
 55 53  1  0
 57 66  1  0
 59 64  1  0
 60 61  1  0
 60 59  1  0
 62 61  1  0
 62 71  1  0
 62 63  1  0
 64 58  1  0
 64 63  1  0
 65 58  2  0
 66 58  1  0
 66 67  1  0
 68 69  2  0
 69 70  1  0
 69 88  1  0
 70 73  1  0
 71 68  1  0
 71 72  1  0
 72 70  2  0
 73 74  1  0
 74 75  2  0
 76 75  1  0
 77 76  2  0
 78 77  1  0
 78 73  2  0
 79 76  1  0
 79 80  1  0
 80 81  1  0
 81 82  2  0
 83 82  1  0
 83 87  1  0
 84 83  2  0
 85 80  2  0
 85 84  1  0
 86 85  1  0
 88 89  1  0
 89 92  1  0
 89 91  1  0
 90 88  2  0
 93 68  1  0
 94 93  1  0
 95 93  1  0
M  ISO  4  15 101  16 101  58 100  66 100
M  END
>  <TORSDO>  (11) 
F 22

>  <SCORE>  (11) 
-6.336

>  <name>  (11) 
10

>  <ligand_id>  (11) 
10

>  <original_smiles>  (11) 
[H]c1c([H])c([H])c2c(c1[H])C([H])([H])C([H])([H])C([H])([H])C2([H])N([H])C(=O)C1([H])N(C(=O)C([H])(N([H])C(=O)C([H])(N([H])C([H])([H])[H])C([H])([H])[H])C(C([H])([H])[H])(C([H])([H])[H])C([H])([H])[H])C([H])([H])c2c([H])c(OC([H])([H])C([H])([H])C([H])([H])C(c3sc(C([H])([H])N([H])C(=O)N4C([H])([H])C([H])([H])C([H])([H])C([H])(n5nc(-c6c([H])c([H])c(Oc7c([H])c([H])c(F)c([H])c7F)c([H])c6[H])c(C(=O)N([H])[H])c5N([H])[H])C4([H])[H])c([H])c3C(C([H])([H])[H])(C([H])([H])[H])C([H])([H])[H])(C([H])([H])[H])C([H])([H])[H])c([H])c([H])c2C1([H])[H]

>  <smiles>  (11) 
[H]c1c([H])c([H])c2c(c1[H])C([H])([H])C([H])([H])C([H])([H])C2([H])N([H])C(=O)C1([H])N(C(=O)C([H])(N([H])C(=O)C([H])(N([H])C([H])([H])[H])C([H])([H])[H])C(C([H])([H])[H])(C([H])([H])[H])C([H])([H])[H])C([H])([H])c2c([H])c(OC([H])([H])C([H])([H])C([H])([H])C(c3sc(C([H])([H])N([H])C(=O)N4C([H])([H])C([H])([H])C([H])([H])C([H])(n5nc(-c6c([H])c([H])c(Oc7c([H])c([H])c(F)c([H])c7F)c([H])c6[H])c(C(=O)N([H])[H])c5N([H])[H])C4([H])[H])c([H])c3C(C([H])([H])[H])(C([H])([H])[H])C([H])([H])[H])(C([H])([H])[H])C([H])([H])[H])c([H])c([H])c2C1([H])[H]

$$$$
11:0:0
     RDKit          3D

 98107  0  0  1  0  0  0  0  0999 V2000
  -30.0600  -21.1500   20.5430 C   0  0  0  0  0  3  0  0  0  0  0  0
  -29.9700  -22.2550   17.0170 C   0  0  0  0  0  2  0  0  0  0  0  0
  -30.7050  -23.3950   17.7190 C   0  0  0  0  0  2  0  0  0  0  0  0
  -29.8670  -21.1610   18.0820 C   0  0  0  0  0  2  0  0  0  0  0  0
  -30.2350  -23.3210   19.1880 C   0  0  0  0  0  3  0  0  0  0  0  0
  -29.9900  -21.8550   19.3820 N   0  0  0  0  0  0  0  0  0  0  0  0
  -30.2040  -21.7910   21.6980 N   0  0  0  0  0  0  0  0  0  0  0  0
  -30.3570  -21.2480   22.5340 H   0  0  0  0  0  0  0  0  0  0  0  0
  -30.1230  -22.7910   21.7690 H   0  0  0  0  0  0  0  0  0  0  0  0
  -31.3140  -19.0400   20.8520 C   0  0  0  0  0  3  0  0  0  0  0  0
  -31.4110  -17.6380   20.9610 C   0  0  0  0  0  3  0  0  0  0  0  0
  -29.0300  -17.4480   20.5140 C   0  0  0  0  0  3  0  0  0  0  0  0
  -30.0780  -19.6690   20.5730 C   0  0  0  0  0  0  0  0  0  0  0  0
  -28.9200  -18.8590   20.3950 C   0  0  0  0  0  0  0  0  0  0  0  0
  -30.2690  -16.8210   20.7890 C   0  0  0  0  0  0  0  0  0  0  0  0
  -27.5590  -19.4680   20.0710 C   0  0  0  0  0  1  0  0  0  0  0  0
  -30.9320  -14.4910   20.1370 C   0  0  0  0  0  0  0  0  0  0  0  0
  -30.5760  -12.3710   18.9170 C   0  0  0  0  0  2  0  0  0  0  0  0
  -29.5600  -12.6200   17.7800 C   0  0  0  0  0  2  0  0  0  0  0  0
  -28.1100  -12.4880   18.2900 C   0  0  0  0  0  2  0  0  0  0  0  0
  -27.8600  -13.2740   19.6050 C   0  0  0  0  0  3  0  0  0  0  0  0
  -28.9740  -12.9790   20.6320 C   0  0  0  0  0  2  0  0  0  0  0  0
  -30.2710  -13.3100   20.0080 N   0  0  0  0  0  0  0  0  0  0  0  0
  -31.9960  -14.7270   19.5510 O   0  0  0  0  0  0  0  0  0  0  0  0
  -30.2930  -15.3980   20.9020 N   0  0  0  0  0  0  0  0  0  0  0  0
  -29.5100  -14.9980   21.3940 H   0  0  0  0  0  0  0  0  0  0  0  0
  -25.5090  -13.8900   20.4610 C   0  0  0  0  0  0  0  0  0  0  0  0
  -24.4590  -13.1160   20.8760 C   0  0  0  0  0  0  0  0  0  0  0  0
  -24.9000  -11.7610   20.7720 C   0  0  0  0  0  0  0  0  0  0  0  0
  -26.5310  -13.0030   20.1470 N   0  0  0  0  0  0  0  0  0  0  0  0
  -26.1670  -11.7170   20.3860 N   0  0  0  0  0  0  0  0  0  0  0  0
  -24.1680  -10.5010   20.9610 C   0  0  0  0  0  0  0  0  0  0  0  0
  -24.6040   -9.5300   21.8900 C   0  0  0  0  0  3  0  0  0  0  0  0
  -23.8720   -8.3340   22.0660 C   0  0  0  0  0  3  0  0  0  0  0  0
  -22.6960   -8.1030   21.3140 C   0  0  0  0  0  0  0  0  0  0  0  0
  -22.2810   -9.0630   20.3770 C   0  0  0  0  0  3  0  0  0  0  0  0
  -23.0110  -10.2500   20.1970 C   0  0  0  0  0  3  0  0  0  0  0  0
  -21.9410   -6.9580   21.4020 O   0  0  0  0  0  0  0  0  0  0  0  0
  -21.8280   -6.2560   22.5750 C   0  0  0  0  0  0  0  0  0  0  0  0
  -21.3180   -6.8500   23.7500 C   0  0  0  0  0  3  0  0  0  0  0  0
  -21.1480   -6.0740   24.9150 C   0  0  0  0  0  3  0  0  0  0  0  0
  -21.4850   -4.7070   24.9060 C   0  0  0  0  0  0  0  0  0  0  0  0
  -21.9910   -4.1130   23.7360 C   0  0  0  0  0  3  0  0  0  0  0  0
  -22.1580   -4.8850   22.5730 C   0  0  0  0  0  0  0  0  0  0  0  0
  -22.6240   -4.3030   21.4420 F   0  0  0  0  0  0  0  0  0  0  0  0
  -21.3170   -3.9620   26.0230 F   0  0  0  0  0  0  0  0  0  0  0  0
  -23.0870  -13.6000   21.2500 C   0  0  0  0  0  0  0  0  0  0  0  0
  -22.4100  -12.8920   22.1460 N   0  0  0  0  0  0  0  0  0  0  0  0
  -22.6240  -14.6390   20.7790 O   0  0  0  0  0  0  0  0  0  0  0  0
  -22.7980  -12.0530   22.5500 H   0  0  0  0  0  0  0  0  0  0  0  0
  -21.4910  -13.1960   22.4350 H   0  0  0  0  0  0  0  0  0  0  0  0
  -25.6810  -15.2630   20.3060 N   0  0  0  0  0  0  0  0  0  0  0  0
  -24.9100  -15.9120   20.4090 H   0  0  0  0  0  0  0  0  0  0  0  0
  -26.4670  -15.6650   19.8040 H   0  0  0  0  0  0  0  0  0  0  0  0
  -29.0180  -24.2610   19.4940 C   0  0  0  0  0  0  0  0  0  0  0  0
  -28.0700  -23.8900   20.1920 O   0  0  0  0  0  0  0  0  0  0  0  0
  -29.0480  -25.7050   18.9190 C   0  0  0  0  0  2  0  0  0  0  0  0
  -28.7240  -26.7220   19.8880 O   0  0  0  0  0  0  0  0  0  0  0  0
  -24.6370  -31.6240   23.0310 C   0  0  0  0  0  0  0  0  0  0  0  0
  -27.5110  -27.3850   19.8420 C   0  0  0  0  0  0  0  0  0  0  0  0
  -23.5180  -30.2440   21.3090 C   0  0  0  0  0  3  0  0  0  0  0  0
  -25.0530  -28.8100   19.8570 C   0  0  0  0  0  0  0  0  0  0  0  0
  -26.0320  -30.6910   21.1850 C   0  0  0  0  0  2  0  0  0  0  0  0
  -26.1780  -29.3490   20.4960 C   0  0  0  0  0  0  0  0  0  0  0  0
  -27.4020  -28.6400   20.4900 C   0  0  0  0  0  3  0  0  0  0  0  0
  -26.3620  -26.8550   19.2120 C   0  0  0  0  0  3  0  0  0  0  0  0
  -25.1410  -27.5600   19.2180 C   0  0  0  0  0  3  0  0  0  0  0  0
  -23.7780  -29.6250   19.9100 C   0  0  0  0  0  2  0  0  0  0  0  0
  -24.7460  -30.8670   21.9010 N   0  0  0  0  0  0  0  0  0  0  0  0
  -23.5370  -31.8390   23.5570 O   0  0  0  0  0  0  0  0  0  0  0  0
  -22.8830  -29.1670   22.2160 C   0  0  0  0  0  0  0  0  0  0  0  0
  -21.5560  -28.9870   22.0910 N   0  0  0  0  0  0  0  0  0  0  0  0
  -23.5760  -28.4990   22.9850 O   0  0  0  0  0  0  0  0  0  0  0  0
  -21.0570  -29.5830   21.4460 H   0  0  0  0  0  0  0  0  0  0  0  0
  -18.1850  -27.8110   22.6270 C   0  0  0  0  0  0  0  0  0  0  0  0
  -20.7540  -28.0020   22.8140 C   0  0  0  0  0  3  0  0  0  0  0  0
  -20.8050  -26.6220   22.1170 C   0  0  0  0  0  2  0  0  0  0  0  0
  -19.6570  -26.4050   21.1250 C   0  0  0  0  0  2  0  0  0  0  0  0
  -18.3060  -26.5200   21.8350 C   0  0  0  0  0  2  0  0  0  0  0  0
  -19.3340  -28.5150   23.0740 C   0  0  0  0  0  0  0  0  0  0  0  0
  -19.1640  -29.7290   23.7740 C   0  0  0  0  0  3  0  0  0  0  0  0
  -17.8770  -30.2360   24.0340 C   0  0  0  0  0  3  0  0  0  0  0  0
  -16.7420  -29.5280   23.6030 C   0  0  0  0  0  3  0  0  0  0  0  0
  -16.8980  -28.3170   22.9050 C   0  0  0  0  0  3  0  0  0  0  0  0
  -25.8880  -32.2730   23.7020 C   0  0  0  0  0  3  0  0  0  0  0  0
  -26.4020  -31.4760   24.9630 C   0  0  1  0  0  0  0  0  0  0  0  0
  -25.2980  -31.1780   26.0030 C   0  0  0  0  0  1  0  0  0  0  0  0
  -27.0310  -30.1270   24.5380 C   0  0  0  0  0  1  0  0  0  0  0  0
  -27.5130  -32.2820   25.6750 C   0  0  0  0  0  1  0  0  0  0  0  0
  -25.5290  -33.6470   24.0710 N   0  0  0  0  0  0  0  0  0  0  0  0
  -25.8480  -34.7350   23.3570 C   0  0  0  0  0  0  0  0  0  0  0  0
  -26.5480  -34.6890   22.3420 O   0  0  0  0  0  0  0  0  0  0  0  0
  -24.9090  -33.7550   24.8600 H   0  0  0  0  0  0  0  0  0  0  0  0
  -24.0690  -36.4820   23.0130 C   0  0  0  0  0  1  0  0  0  0  0  0
  -25.3000  -36.0900   23.8460 C   0  0  0  0  0  3  0  0  0  0  0  0
  -27.3800  -37.0170   24.7680 C   0  0  0  0  0  1  0  0  0  0  0  0
  -26.3010  -37.1790   23.7980 N   0  0  0  0  0  0  0  0  0  0  0  0
  -25.8580  -38.0800   23.9620 H   0  0  0  0  0  0  0  0  0  0  0  0
  1 13  1  0
  1  7  1  0
  2  3  1  0
  2  4  1  0
  3  5  1  0
  4  6  1  0
  5  6  1  0
  5 55  1  0
  6  1  1  0
  7  9  1  0
  7  8  1  0
 10 11  1  0
 12 15  1  0
 13 10  2  0
 14 12  2  0
 14 13  1  0
 15 25  1  0
 15 11  2  0
 16 14  1  0
 17 25  1  0
 18 23  1  0
 19 20  1  0
 19 18  1  0
 21 20  1  0
 21 30  1  0
 21 22  1  0
 23 17  1  0
 23 22  1  0
 24 17  2  0
 25 26  1  0
 27 28  2  0
 28 47  1  0
 29 28  1  0
 29 32  1  0
 30 31  1  0
 30 27  1  0
 31 29  2  0
 32 33  1  0
 33 34  2  0
 35 38  1  0
 35 34  1  0
 36 35  2  0
 37 36  1  0
 37 32  2  0
 38 39  1  0
 39 40  1  0
 40 41  2  0
 42 41  1  0
 42 46  1  0
 43 42  2  0
 44 39  2  0
 44 43  1  0
 45 44  1  0
 47 48  1  0
 48 51  1  0
 48 50  1  0
 49 47  2  0
 52 53  1  0
 52 27  1  0
 54 52  1  0
 55 56  2  0
 57 55  1  0
 57 58  1  0
 59 70  2  0
 60 58  1  0
 60 65  1  0
 61 69  1  0
 61 71  1  0
 62 68  1  0
 62 64  1  0
 63 69  1  0
 64 63  1  0
 65 64  2  0
 66 67  1  0
 66 60  2  0
 67 62  2  0
 68 61  1  0
 69 59  1  0
 71 73  2  0
 72 71  1  0
 74 72  1  0
 75 84  2  0
 75 80  1  0
 76 72  1  0
 76 80  1  0
 77 76  1  0
 78 79  1  0
 78 77  1  0
 79 75  1  0
 80 81  2  0
 81 82  1  0
 83 82  2  0
 84 83  1  0
 85 59  1  0
 85 90  1  0
 85 86  1  0
 86 89  1  1
 86 87  1  0
 88 86  1  0
 90 93  1  0
 91 95  1  0
 91 90  1  0
 92 91  2  0
 95 94  1  0
 97 95  1  0
 97 98  1  0
 97 96  1  0
M  ISO  4  17 100  25 100  57 101  58 101
M  END
>  <TORSDO>  (12) 
F 19

>  <SCORE>  (12) 
-13.867

>  <name>  (12) 
11

>  <ligand_id>  (12) 
11

>  <original_smiles>  (12) 
[H]c1c([H])c([H])c2c(c1[H])C([H])([H])C([H])([H])C([H])([H])C2([H])N([H])C(=O)C1([H])N(C(=O)C([H])(N([H])C(=O)C([H])(N([H])C([H])([H])[H])C([H])([H])[H])C(C([H])([H])[H])(C([H])([H])[H])C([H])([H])[H])C([H])([H])c2c([H])c(OC([H])([H])C(=O)C3([H])N(C(c4c([H])c([H])c(N([H])C(=O)N5C([H])([H])C([H])([H])C([H])([H])C([H])(n6nc(-c7c([H])c([H])c(Oc8c([H])c([H])c(F)c([H])c8F)c([H])c7[H])c(C(=O)N([H])[H])c6N([H])[H])C5([H])[H])c([H])c4C([H])([H])[H])=[N+]([H])[H])C([H])([H])C([H])([H])C3([H])[H])c([H])c([H])c2C1([H])[H]

>  <smiles>  (12) 
[H]c1c([H])c([H])c2c(c1[H])C([H])([H])C([H])([H])C([H])([H])C2([H])N([H])C(=O)C1([H])N(C(=O)C([H])(N([H])C(=O)C([H])(N([H])C([H])([H])[H])C([H])([H])[H])C(C([H])([H])[H])(C([H])([H])[H])C([H])([H])[H])C([H])([H])c2c([H])c(OC([H])([H])C(=O)C3([H])N(C(c4c([H])c([H])c(N([H])C(=O)N5C([H])([H])C([H])([H])C([H])([H])C([H])(n6nc(-c7c([H])c([H])c(Oc8c([H])c([H])c(F)c([H])c8F)c([H])c7[H])c(C(=O)N([H])[H])c6N([H])[H])C5([H])[H])c([H])c4C([H])([H])[H])=[N+]([H])[H])C([H])([H])C([H])([H])C3([H])[H])c([H])c([H])c2C1([H])[H]

$$$$
12:0:0
     RDKit          3D

 94103  0  0  1  0  0  0  0  0999 V2000
  -28.3740  -24.2730   21.4000 C   0  0  0  0  0  0  0  0  0  0  0  0
  -27.9630  -25.5600   21.1820 C   0  0  0  0  0  3  0  0  0  0  0  0
  -27.7470  -23.4660   22.5140 C   0  0  0  0  0  2  0  0  0  0  0  0
  -29.3780  -23.3420   20.6920 C   0  0  0  0  0  2  0  0  0  0  0  0
  -28.5920  -22.2000   22.6370 C   0  0  0  0  0  2  0  0  0  0  0  0
  -29.2040  -21.9720   21.3090 N   0  0  2  0  0  4  0  0  0  0  0  0
  -28.5010  -21.5000   20.7600 H   0  0  0  0  0  0  0  0  0  0  0  0
  -28.2530  -26.5020   20.1960 O   0  0  0  0  0  0  0  0  0  0  0  0
  -24.5670  -31.8590   23.1350 C   0  0  0  0  0  0  0  0  0  0  0  0
  -27.2060  -27.4020   20.0390 C   0  0  0  0  0  0  0  0  0  0  0  0
  -23.3640  -30.4660   21.4840 C   0  0  0  0  0  3  0  0  0  0  0  0
  -24.8260  -28.9510   20.0280 C   0  0  0  0  0  0  0  0  0  0  0  0
  -25.8930  -30.8250   21.2880 C   0  0  0  0  0  2  0  0  0  0  0  0
  -25.9860  -29.4600   20.6280 C   0  0  0  0  0  0  0  0  0  0  0  0
  -27.1850  -28.6940   20.6300 C   0  0  0  0  0  3  0  0  0  0  0  0
  -26.0350  -26.9340   19.4060 C   0  0  0  0  0  3  0  0  0  0  0  0
  -24.8510  -27.6950   19.4030 C   0  0  0  0  0  3  0  0  0  0  0  0
  -23.5750  -29.8040   20.0960 C   0  0  0  0  0  2  0  0  0  0  0  0
  -24.6260  -31.0660   22.0270 N   0  0  0  0  0  0  0  0  0  0  0  0
  -23.4860  -32.1240   23.6800 O   0  0  0  0  0  0  0  0  0  0  0  0
  -22.7150  -29.4380   22.4390 C   0  0  0  0  0  0  0  0  0  0  0  0
  -21.3860  -29.2700   22.3340 N   0  0  0  0  0  0  0  0  0  0  0  0
  -23.4060  -28.7940   23.2340 O   0  0  0  0  0  0  0  0  0  0  0  0
  -20.8910  -29.8400   21.6620 H   0  0  0  0  0  0  0  0  0  0  0  0
  -18.0070  -28.1030   22.8800 C   0  0  0  0  0  0  0  0  0  0  0  0
  -20.5740  -28.3260   23.1030 C   0  0  0  0  0  3  0  0  0  0  0  0
  -20.6480  -26.9050   22.4980 C   0  0  0  0  0  2  0  0  0  0  0  0
  -19.5220  -26.6150   21.5000 C   0  0  0  0  0  2  0  0  0  0  0  0
  -18.1560  -26.7640   22.1750 C   0  0  0  0  0  2  0  0  0  0  0  0
  -19.1440  -28.8440   23.3000 C   0  0  0  0  0  0  0  0  0  0  0  0
  -18.9530  -30.0980   23.9190 C   0  0  0  0  0  3  0  0  0  0  0  0
  -17.6580  -30.6100   24.1240 C   0  0  0  0  0  3  0  0  0  0  0  0
  -16.5350  -29.8660   23.7180 C   0  0  0  0  0  3  0  0  0  0  0  0
  -16.7120  -28.6140   23.1020 C   0  0  0  0  0  3  0  0  0  0  0  0
  -25.8510  -32.4920   23.7570 C   0  0  0  0  0  3  0  0  0  0  0  0
  -25.5330  -33.8820   24.1120 N   0  0  0  0  0  0  0  0  0  0  0  0
  -25.8670  -34.9510   23.3790 C   0  0  0  0  0  0  0  0  0  0  0  0
  -26.5460  -34.8720   22.3510 O   0  0  0  0  0  0  0  0  0  0  0  0
  -24.9330  -34.0170   24.9140 H   0  0  0  0  0  0  0  0  0  0  0  0
  -24.1420  -36.7490   23.0370 C   0  0  0  0  0  1  0  0  0  0  0  0
  -25.3700  -36.3280   23.8600 C   0  0  0  0  0  3  0  0  0  0  0  0
  -27.4910  -37.1940   24.7440 C   0  0  0  0  0  1  0  0  0  0  0  0
  -26.4010  -37.3850   23.7900 N   0  0  0  0  0  0  0  0  0  0  0  0
  -25.9910  -38.3010   23.9540 H   0  0  0  0  0  0  0  0  0  0  0  0
  -26.3870  -31.7030   25.0140 C   0  0  1  0  0  0  0  0  0  0  0  0
  -25.3080  -31.4410   26.0900 C   0  0  0  0  0  1  0  0  0  0  0  0
  -26.9770  -30.3370   24.5920 C   0  0  0  0  0  1  0  0  0  0  0  0
  -27.5390  -32.4950   25.6770 C   0  0  0  0  0  1  0  0  0  0  0  0
  -30.3920  -21.0420   21.3700 C   0  0  0  0  0  2  0  0  0  0  0  0
  -30.1810  -19.7130   19.2390 C   0  0  0  0  0  3  0  0  0  0  0  0
  -30.1830  -18.5210   18.5020 C   0  0  0  0  0  3  0  0  0  0  0  0
  -30.2860  -18.3990   21.2940 C   0  0  0  0  0  3  0  0  0  0  0  0
  -30.2500  -19.6810   20.6410 C   0  0  0  0  0  0  0  0  0  0  0  0
  -30.2670  -17.2660   19.1340 C   0  0  0  0  0  0  0  0  0  0  0  0
  -30.3100  -17.1650   20.5580 C   0  0  0  0  0  0  0  0  0  0  0  0
  -30.2960  -16.0630   18.2160 C   0  0  0  0  0  1  0  0  0  0  0  0
  -31.0330  -14.7660   21.0330 C   0  0  0  0  0  0  0  0  0  0  0  0
  -30.8980  -12.4500   20.1490 C   0  0  0  0  0  2  0  0  0  0  0  0
  -30.1090  -12.4770   18.8220 C   0  0  0  0  0  2  0  0  0  0  0  0
  -28.5900  -12.4070   19.0830 C   0  0  0  0  0  2  0  0  0  0  0  0
  -28.1020  -13.3450   20.2190 C   0  0  0  0  0  3  0  0  0  0  0  0
  -29.0280  -13.2740   21.4520 C   0  0  0  0  0  2  0  0  0  0  0  0
  -30.4000  -13.5510   21.0010 N   0  0  0  0  0  0  0  0  0  0  0  0
  -32.2300  -14.8760   20.7540 O   0  0  0  0  0  0  0  0  0  0  0  0
  -30.2470  -15.8680   21.2290 N   0  0  0  0  0  0  0  0  0  0  0  0
  -29.3540  -15.6600   21.6450 H   0  0  0  0  0  0  0  0  0  0  0  0
  -25.6570  -14.0020   20.6570 C   0  0  0  0  0  0  0  0  0  0  0  0
  -24.5430  -13.2590   20.9380 C   0  0  0  0  0  0  0  0  0  0  0  0
  -24.9820  -11.9000   20.9970 C   0  0  0  0  0  0  0  0  0  0  0  0
  -26.7040  -13.0990   20.5640 N   0  0  0  0  0  0  0  0  0  0  0  0
  -26.2960  -11.8320   20.8250 N   0  0  0  0  0  0  0  0  0  0  0  0
  -24.2160  -10.6560   21.1430 C   0  0  0  0  0  0  0  0  0  0  0  0
  -24.5530   -9.6940   22.1230 C   0  0  0  0  0  3  0  0  0  0  0  0
  -23.7930   -8.5120   22.2550 C   0  0  0  0  0  3  0  0  0  0  0  0
  -22.6790   -8.2860   21.4110 C   0  0  0  0  0  0  0  0  0  0  0  0
  -22.3650   -9.2360   20.4210 C   0  0  0  0  0  3  0  0  0  0  0  0
  -23.1260  -10.4090   20.2860 C   0  0  0  0  0  3  0  0  0  0  0  0
  -21.8940   -7.1590   21.4570 O   0  0  0  0  0  0  0  0  0  0  0  0
  -21.7500   -6.4270   22.6080 C   0  0  0  0  0  0  0  0  0  0  0  0
  -21.2540   -6.9990   23.8020 C   0  0  0  0  0  3  0  0  0  0  0  0
  -21.0580   -6.1930   24.9400 C   0  0  0  0  0  3  0  0  0  0  0  0
  -21.3460   -4.8140   24.8860 C   0  0  0  0  0  0  0  0  0  0  0  0
  -21.8340   -4.2420   23.6980 C   0  0  0  0  0  3  0  0  0  0  0  0
  -22.0340   -5.0470   22.5620 C   0  0  0  0  0  0  0  0  0  0  0  0
  -22.4840   -4.4870   21.4140 F   0  0  0  0  0  0  0  0  0  0  0  0
  -21.1500   -4.0380   25.9770 F   0  0  0  0  0  0  0  0  0  0  0  0
  -23.1330  -13.7660   21.0450 C   0  0  0  0  0  0  0  0  0  0  0  0
  -22.3000  -13.1150   21.8510 N   0  0  0  0  0  0  0  0  0  0  0  0
  -22.7720  -14.7780   20.4470 O   0  0  0  0  0  0  0  0  0  0  0  0
  -22.5990  -12.3010   22.3680 H   0  0  0  0  0  0  0  0  0  0  0  0
  -21.3520  -13.4450   21.9600 H   0  0  0  0  0  0  0  0  0  0  0  0
  -25.8610  -15.3650   20.4540 N   0  0  0  0  0  0  0  0  0  0  0  0
  -25.0930  -16.0260   20.4670 H   0  0  0  0  0  0  0  0  0  0  0  0
  -26.7420  -15.7870   20.1920 H   0  0  0  0  0  0  0  0  0  0  0  0
  1  3  1  0
  2  1  2  0
  3  5  1  0
  4  6  1  0
  4  1  1  0
  6 49  1  0
  6  5  1  0
  6  7  1  6
  8  2  1  0
  9 20  2  0
 10  8  1  0
 10 15  1  0
 11 19  1  0
 11 21  1  0
 12 18  1  0
 12 14  1  0
 13 19  1  0
 14 15  2  0
 14 13  1  0
 16 10  2  0
 17 16  1  0
 17 12  2  0
 18 11  1  0
 19  9  1  0
 21 23  2  0
 22 21  1  0
 24 22  1  0
 25 34  2  0
 25 30  1  0
 26 22  1  0
 26 30  1  0
 27 26  1  0
 28 29  1  0
 28 27  1  0
 29 25  1  0
 30 31  2  0
 31 32  1  0
 33 32  2  0
 34 33  1  0
 35  9  1  0
 35 36  1  0
 35 45  1  0
 36 39  1  0
 37 41  1  0
 37 36  1  0
 38 37  2  0
 41 40  1  0
 43 41  1  0
 43 44  1  0
 43 42  1  0
 45 48  1  1
 45 46  1  0
 47 45  1  0
 50 53  1  0
 51 54  1  0
 51 50  2  0
 53 52  2  0
 53 49  1  0
 54 55  2  0
 55 65  1  0
 55 52  1  0
 56 54  1  0
 57 65  1  0
 58 63  1  0
 59 60  1  0
 59 58  1  0
 61 60  1  0
 61 70  1  0
 61 62  1  0
 63 57  1  0
 63 62  1  0
 64 57  2  0
 65 66  1  0
 67 68  2  0
 68 69  1  0
 68 87  1  0
 69 72  1  0
 70 67  1  0
 70 71  1  0
 71 69  2  0
 72 73  1  0
 73 74  2  0
 75 78  1  0
 75 74  1  0
 76 75  2  0
 77 76  1  0
 77 72  2  0
 78 79  1  0
 79 80  1  0
 80 81  2  0
 82 81  1  0
 82 86  1  0
 83 82  2  0
 84 79  2  0
 84 83  1  0
 85 84  1  0
 87 88  1  0
 88 91  1  0
 88 90  1  0
 89 87  2  0
 92 93  1  0
 92 67  1  0
 94 92  1  0
M  ISO  4   2 101   8 101  57 100  65 100
M  END
>  <TORSDO>  (13) 
F 18

>  <SCORE>  (13) 
-13.093

>  <name>  (13) 
12

>  <ligand_id>  (13) 
12

>  <original_smiles>  (13) 
[H]C(Oc1c([H])c([H])c2c(c1[H])C([H])([H])N(C(=O)C([H])(N([H])C(=O)C([H])(N([H])C([H])([H])[H])C([H])([H])[H])C(C([H])([H])[H])(C([H])([H])[H])C([H])([H])[H])C([H])(C(=O)N([H])C1([H])c3c([H])c([H])c([H])c([H])c3C([H])([H])C([H])([H])C1([H])[H])C2([H])[H])=C1C([H])([H])C([H])([H])[N+]([H])(C([H])([H])c2c([H])c([H])c(C([H])([H])[H])c(N([H])C(=O)N3C([H])([H])C([H])([H])C([H])([H])C([H])(n4nc(-c5c([H])c([H])c(Oc6c([H])c([H])c(F)c([H])c6F)c([H])c5[H])c(C(=O)N([H])[H])c4N([H])[H])C3([H])[H])c2[H])C1([H])[H]

>  <smiles>  (13) 
[H]C(Oc1c([H])c([H])c2c(c1[H])C([H])([H])N(C(=O)C([H])(N([H])C(=O)C([H])(N([H])C([H])([H])[H])C([H])([H])[H])C(C([H])([H])[H])(C([H])([H])[H])C([H])([H])[H])C([H])(C(=O)N([H])C1([H])c3c([H])c([H])c([H])c([H])c3C([H])([H])C([H])([H])C1([H])[H])C2([H])[H])=C1C([H])([H])C([H])([H])[N+]([H])(C([H])([H])c2c([H])c([H])c(C([H])([H])[H])c(N([H])C(=O)N3C([H])([H])C([H])([H])C([H])([H])C([H])(n4nc(-c5c([H])c([H])c(Oc6c([H])c([H])c(F)c([H])c6F)c([H])c5[H])c(C(=O)N([H])[H])c4N([H])[H])C3([H])[H])c2[H])C1([H])[H]

$$$$
13:0:0
     RDKit          3D

 95103  0  0  1  0  0  0  0  0999 V2000
  -28.3740  -20.8140   20.1600 C   0  0  0  0  0  0  0  0  0  0  0  0
  -27.4130  -20.6070   20.9040 O   0  0  0  0  0  0  0  0  0  0  0  0
  -28.9900  -22.2060   19.9980 C   0  0  0  0  0  2  0  0  0  0  0  0
  -28.7060  -23.1930   21.1530 C   0  0  0  0  0  2  0  0  0  0  0  0
  -29.2220  -24.5950   20.8250 C   0  0  0  0  0  0  0  0  0  0  0  0
  -30.2130  -25.0630   21.3960 O   0  0  0  0  0  0  0  0  0  0  0  0
  -28.4710  -25.3880   19.7570 C   0  0  0  0  0  2  0  0  0  0  0  0
  -28.4770  -26.7710   20.1180 O   0  0  0  0  0  0  0  0  0  0  0  0
  -24.6350  -31.8510   23.2810 C   0  0  0  0  0  0  0  0  0  0  0  0
  -27.2840  -27.4580   20.1260 C   0  0  0  0  0  0  0  0  0  0  0  0
  -23.4360  -30.4900   21.6010 C   0  0  0  0  0  3  0  0  0  0  0  0
  -24.8940  -28.9690   20.1730 C   0  0  0  0  0  0  0  0  0  0  0  0
  -25.9690  -30.8300   21.4440 C   0  0  0  0  0  2  0  0  0  0  0  0
  -26.0520  -29.4730   20.7760 C   0  0  0  0  0  0  0  0  0  0  0  0
  -27.2470  -28.7240   20.7520 C   0  0  0  0  0  3  0  0  0  0  0  0
  -26.1050  -26.9690   19.5130 C   0  0  0  0  0  3  0  0  0  0  0  0
  -24.9120  -27.7110   19.5520 C   0  0  0  0  0  3  0  0  0  0  0  0
  -23.6610  -29.8420   20.2110 C   0  0  0  0  0  2  0  0  0  0  0  0
  -24.6980  -31.0680   22.1680 N   0  0  0  0  0  0  0  0  0  0  0  0
  -23.5510  -32.1230   23.8120 O   0  0  0  0  0  0  0  0  0  0  0  0
  -22.7700  -29.4490   22.5310 C   0  0  0  0  0  0  0  0  0  0  0  0
  -21.4510  -29.2510   22.3660 N   0  0  0  0  0  0  0  0  0  0  0  0
  -23.4390  -28.8180   23.3550 O   0  0  0  0  0  0  0  0  0  0  0  0
  -20.9700  -29.8030   21.6680 H   0  0  0  0  0  0  0  0  0  0  0  0
  -18.0740  -28.0270   22.7800 C   0  0  0  0  0  0  0  0  0  0  0  0
  -20.6240  -28.2980   23.1100 C   0  0  0  0  0  3  0  0  0  0  0  0
  -20.7470  -26.8650   22.5290 C   0  0  0  0  0  2  0  0  0  0  0  0
  -19.6620  -26.5270   21.5030 C   0  0  0  0  0  2  0  0  0  0  0  0
  -18.2690  -26.6740   22.1200 C   0  0  0  0  0  2  0  0  0  0  0  0
  -19.1770  -28.7930   23.2400 C   0  0  0  0  0  0  0  0  0  0  0  0
  -18.9370  -30.0500   23.8360 C   0  0  0  0  0  3  0  0  0  0  0  0
  -17.6250  -30.5440   23.9710 C   0  0  0  0  0  3  0  0  0  0  0  0
  -16.5350  -29.7780   23.5200 C   0  0  0  0  0  3  0  0  0  0  0  0
  -16.7610  -28.5220   22.9330 C   0  0  0  0  0  3  0  0  0  0  0  0
  -25.9200  -32.4600   23.9240 C   0  0  0  0  0  3  0  0  0  0  0  0
  -25.6350  -33.8660   24.2350 N   0  0  0  0  0  0  0  0  0  0  0  0
  -26.0130  -34.9000   23.4740 C   0  0  0  0  0  0  0  0  0  0  0  0
  -26.7100  -34.7720   22.4630 O   0  0  0  0  0  0  0  0  0  0  0  0
  -25.0270  -34.0450   25.0220 H   0  0  0  0  0  0  0  0  0  0  0  0
  -24.3300  -36.7180   23.0450 C   0  0  0  0  0  1  0  0  0  0  0  0
  -25.5390  -36.3020   23.8990 C   0  0  0  0  0  3  0  0  0  0  0  0
  -27.6670  -37.1550   24.7770 C   0  0  0  0  0  1  0  0  0  0  0  0
  -26.5950  -37.3340   23.8010 N   0  0  0  0  0  0  0  0  0  0  0  0
  -26.2030  -38.2640   23.9240 H   0  0  0  0  0  0  0  0  0  0  0  0
  -26.3970  -31.6880   25.2160 C   0  0  1  0  0  0  0  0  0  0  0  0
  -25.2710  -31.4640   26.2520 C   0  0  0  0  0  1  0  0  0  0  0  0
  -26.9820  -30.3040   24.8480 C   0  0  0  0  0  1  0  0  0  0  0  0
  -27.5350  -32.4750   25.9070 C   0  0  0  0  0  1  0  0  0  0  0  0
  -28.9820  -19.8930   19.3780 O   0  0  0  0  0  0  0  0  0  0  0  0
  -28.7310  -18.4970   19.5320 C   0  0  0  0  0  2  0  0  0  0  0  0
  -29.6770  -18.4100   21.8720 C   0  0  0  0  0  3  0  0  0  0  0  0
  -31.3080  -16.7280   22.5510 C   0  0  0  0  0  3  0  0  0  0  0  0
  -30.4060  -16.7050   20.2800 C   0  0  0  0  0  3  0  0  0  0  0  0
  -30.5140  -17.8530   22.8590 C   0  0  0  0  0  0  0  0  0  0  0  0
  -29.6230  -17.8470   20.5820 C   0  0  0  0  0  0  0  0  0  0  0  0
  -31.2570  -16.1410   21.2670 C   0  0  0  0  0  0  0  0  0  0  0  0
  -30.5580  -18.4740   24.2440 C   0  0  0  0  0  1  0  0  0  0  0  0
  -32.2800  -14.3780   19.8460 C   0  0  0  0  0  0  0  0  0  0  0  0
  -31.5690  -12.3920   18.5470 C   0  0  0  0  0  2  0  0  0  0  0  0
  -30.5610  -12.7040   17.4240 C   0  0  0  0  0  2  0  0  0  0  0  0
  -29.1230  -12.7230   17.9720 C   0  0  0  0  0  2  0  0  0  0  0  0
  -28.9860  -13.6060   19.2390 C   0  0  0  0  0  3  0  0  0  0  0  0
  -30.0690  -13.2330   20.2710 C   0  0  0  0  0  2  0  0  0  0  0  0
  -31.3880  -13.3740   19.6300 N   0  0  0  0  0  0  0  0  0  0  0  0
  -33.2670  -14.5670   19.1240 O   0  0  0  0  0  0  0  0  0  0  0  0
  -32.1380  -15.0530   21.0000 N   0  0  0  0  0  0  0  0  0  0  0  0
  -33.0000  -15.1260   21.5200 H   0  0  0  0  0  0  0  0  0  0  0  0
  -26.7540  -14.5160   20.1350 C   0  0  0  0  0  0  0  0  0  0  0  0
  -25.6190  -13.8860   20.5690 C   0  0  0  0  0  0  0  0  0  0  0  0
  -25.8860  -12.4870   20.4830 C   0  0  0  0  0  0  0  0  0  0  0  0
  -27.6480  -13.5080   19.8130 N   0  0  0  0  0  0  0  0  0  0  0  0
  -27.1330  -12.2810   20.0760 N   0  0  0  0  0  0  0  0  0  0  0  0
  -25.0130  -11.3270   20.7020 C   0  0  0  0  0  0  0  0  0  0  0  0
  -25.3250  -10.3350   21.6560 C   0  0  0  0  0  3  0  0  0  0  0  0
  -24.4540   -9.2420   21.8620 C   0  0  0  0  0  3  0  0  0  0  0  0
  -23.2600   -9.1360   21.1100 C   0  0  0  0  0  0  0  0  0  0  0  0
  -22.9690  -10.1150   20.1460 C   0  0  0  0  0  3  0  0  0  0  0  0
  -23.8390  -11.1970   19.9380 C   0  0  0  0  0  3  0  0  0  0  0  0
  -22.3670   -8.0980   21.2250 O   0  0  0  0  0  0  0  0  0  0  0  0
  -22.1300   -7.4830   22.4290 C   0  0  0  0  0  0  0  0  0  0  0  0
  -21.7470   -8.2130   23.5760 C   0  0  0  0  0  3  0  0  0  0  0  0
  -21.4460   -7.5350   24.7740 C   0  0  0  0  0  3  0  0  0  0  0  0
  -21.5200   -6.1290   24.8240 C   0  0  0  0  0  0  0  0  0  0  0  0
  -21.8970   -5.4020   23.6810 C   0  0  0  0  0  3  0  0  0  0  0  0
  -22.1970   -6.0780   22.4860 C   0  0  0  0  0  0  0  0  0  0  0  0
  -22.5400   -5.3710   21.3820 F   0  0  0  0  0  0  0  0  0  0  0  0
  -21.2210   -5.4750   25.9710 F   0  0  0  0  0  0  0  0  0  0  0  0
  -24.3240  -14.5440   20.9480 C   0  0  0  0  0  0  0  0  0  0  0  0
  -23.5940  -13.9590   21.8940 N   0  0  0  0  0  0  0  0  0  0  0  0
  -23.9730  -15.6070   20.4410 O   0  0  0  0  0  0  0  0  0  0  0  0
  -23.8960  -13.1000   22.3300 H   0  0  0  0  0  0  0  0  0  0  0  0
  -22.7210  -14.3780   22.1850 H   0  0  0  0  0  0  0  0  0  0  0  0
  -27.0870  -15.8560   19.9630 N   0  0  0  0  0  0  0  0  0  0  0  0
  -26.4330  -16.5990   20.1800 H   0  0  0  0  0  0  0  0  0  0  0  0
  -27.9700  -16.1940   19.6040 H   0  0  0  0  0  0  0  0  0  0  0  0
  1  2  2  0
  3  1  1  0
  3  4  1  0
  5  4  1  0
  5  6  2  0
  7  8  1  0
  7  5  1  0
  8 10  1  0
  9 20  2  0
 10 15  1  0
 11 19  1  0
 11 21  1  0
 12 18  1  0
 12 14  1  0
 13 19  1  0
 14 13  1  0
 15 14  2  0
 16 17  1  0
 16 10  2  0
 17 12  2  0
 18 11  1  0
 19  9  1  0
 21 23  2  0
 22 21  1  0
 24 22  1  0
 25 34  2  0
 25 30  1  0
 26 22  1  0
 26 30  1  0
 27 26  1  0
 28 29  1  0
 28 27  1  0
 29 25  1  0
 30 31  2  0
 31 32  1  0
 33 32  2  0
 34 33  1  0
 35  9  1  0
 35 36  1  0
 35 45  1  0
 36 39  1  0
 37 41  1  0
 37 36  1  0
 38 37  2  0
 41 40  1  0
 43 41  1  0
 43 44  1  0
 43 42  1  0
 45 48  1  1
 45 46  1  0
 47 45  1  0
 49 50  1  0
 49  1  1  0
 50 55  1  0
 51 54  1  0
 52 54  2  0
 53 55  1  0
 53 56  2  0
 54 57  1  0
 55 51  2  0
 56 52  1  0
 58 66  1  0
 59 64  1  0
 60 61  1  0
 60 59  1  0
 62 61  1  0
 62 71  1  0
 62 63  1  0
 64 58  1  0
 64 63  1  0
 65 58  2  0
 66 56  1  0
 66 67  1  0
 68 69  2  0
 69 88  1  0
 70 69  1  0
 70 73  1  0
 71 72  1  0
 71 68  1  0
 72 70  2  0
 73 74  1  0
 74 75  2  0
 76 79  1  0
 76 75  1  0
 77 76  2  0
 78 77  1  0
 78 73  2  0
 79 80  1  0
 80 85  2  0
 80 81  1  0
 81 82  2  0
 82 83  1  0
 83 87  1  0
 84 83  2  0
 85 84  1  0
 86 85  1  0
 88 89  1  0
 89 92  1  0
 89 91  1  0
 90 88  2  0
 93 68  1  0
 93 94  1  0
 95 93  1  0
M  ISO  4   7 101   8 101  58 100  66 100
M  END
>  <TORSDO>  (14) 
F 23

>  <SCORE>  (14) 
-8.922

>  <name>  (14) 
13

>  <ligand_id>  (14) 
13

>  <original_smiles>  (14) 
[H]c1c([H])c([H])c2c(c1[H])C([H])([H])C([H])([H])C([H])([H])C2([H])N([H])C(=O)C1([H])N(C(=O)C([H])(N([H])C(=O)C([H])(N([H])C([H])([H])[H])C([H])([H])[H])C(C([H])([H])[H])(C([H])([H])[H])C([H])([H])[H])C([H])([H])c2c([H])c(OC([H])([H])C(=O)C([H])([H])C([H])([H])C(=O)OC([H])([H])c3c([H])c(N([H])C(=O)N4C([H])([H])C([H])([H])C([H])([H])C([H])(n5nc(-c6c([H])c([H])c(Oc7c([H])c([H])c(F)c([H])c7F)c([H])c6[H])c(C(=O)N([H])[H])c5N([H])[H])C4([H])[H])c([H])c(C([H])([H])[H])c3[H])c([H])c([H])c2C1([H])[H]

>  <smiles>  (14) 
[H]c1c([H])c([H])c2c(c1[H])C([H])([H])C([H])([H])C([H])([H])C2([H])N([H])C(=O)C1([H])N(C(=O)C([H])(N([H])C(=O)C([H])(N([H])C([H])([H])[H])C([H])([H])[H])C(C([H])([H])[H])(C([H])([H])[H])C([H])([H])[H])C([H])([H])c2c([H])c(OC([H])([H])C(=O)C([H])([H])C([H])([H])C(=O)OC([H])([H])c3c([H])c(N([H])C(=O)N4C([H])([H])C([H])([H])C([H])([H])C([H])(n5nc(-c6c([H])c([H])c(Oc7c([H])c([H])c(F)c([H])c7F)c([H])c6[H])c(C(=O)N([H])[H])c5N([H])[H])C4([H])[H])c([H])c(C([H])([H])[H])c3[H])c([H])c([H])c2C1([H])[H]

$$$$
14:0:0
     RDKit          3D

 94103  0  0  1  0  0  0  0  0999 V2000
  -30.8310  -22.4110   19.1190 C   0  0  0  0  0  2  0  0  0  0  0  0
  -30.1470  -23.7940   19.0460 C   0  0  0  0  0  2  0  0  0  0  0  0
  -29.1970  -22.6240   20.8930 C   0  0  0  0  0  2  0  0  0  0  0  0
  -30.4460  -21.7150   20.4630 C   0  0  2  0  0  0  0  0  0  0  0  0
  -28.7980  -23.5990   19.7200 C   0  0  2  0  0  0  0  0  0  0  0  0
  -31.5810  -21.9730   21.4810 C   0  0  0  0  0  1  0  0  0  0  0  0
  -27.8790  -22.7380   18.8020 C   0  0  0  0  0  1  0  0  0  0  0  0
  -29.4060  -19.4380   21.2920 C   0  0  0  0  0  3  0  0  0  0  0  0
  -29.3130  -18.0120   21.3740 C   0  0  0  0  0  3  0  0  0  0  0  0
  -30.9470  -17.8020   19.6480 C   0  0  0  0  0  3  0  0  0  0  0  0
  -30.2830  -20.1160   20.3970 C   0  0  0  0  0  0  0  0  0  0  0  0
  -31.0780  -19.2270   19.5820 C   0  0  0  0  0  0  0  0  0  0  0  0
  -30.0850  -17.1420   20.5570 C   0  0  0  0  0  0  0  0  0  0  0  0
  -32.1530  -19.7110   18.6230 C   0  0  0  0  0  1  0  0  0  0  0  0
  -30.6440  -14.6410   20.0820 C   0  0  0  0  0  0  0  0  0  0  0  0
  -30.3510  -12.4440   18.9370 C   0  0  0  0  0  2  0  0  0  0  0  0
  -29.3430  -12.6210   17.7800 C   0  0  0  0  0  2  0  0  0  0  0  0
  -27.8940  -12.4550   18.2790 C   0  0  0  0  0  2  0  0  0  0  0  0
  -27.6160  -13.2520   19.5800 C   0  0  0  0  0  3  0  0  0  0  0  0
  -28.7370  -13.0570   20.6290 C   0  0  0  0  0  2  0  0  0  0  0  0
  -30.0110  -13.4250   19.9900 N   0  0  0  0  0  0  0  0  0  0  0  0
  -31.7610  -14.8020   19.5800 O   0  0  0  0  0  0  0  0  0  0  0  0
  -29.9350  -15.6800   20.6420 N   0  0  0  0  0  0  0  0  0  0  0  0
  -29.1010  -15.3690   21.1240 H   0  0  0  0  0  0  0  0  0  0  0  0
  -25.2690  -13.8180   20.4580 C   0  0  0  0  0  0  0  0  0  0  0  0
  -24.2270  -13.0300   20.8610 C   0  0  0  0  0  0  0  0  0  0  0  0
  -24.6860  -11.6820   20.7580 C   0  0  0  0  0  0  0  0  0  0  0  0
  -26.2980  -12.9490   20.1310 N   0  0  0  0  0  0  0  0  0  0  0  0
  -25.9550  -11.6570   20.3680 N   0  0  0  0  0  0  0  0  0  0  0  0
  -23.9710  -10.4130   20.9490 C   0  0  0  0  0  0  0  0  0  0  0  0
  -24.4140   -9.4460   21.8790 C   0  0  0  0  0  3  0  0  0  0  0  0
  -23.6980   -8.2430   22.0550 C   0  0  0  0  0  3  0  0  0  0  0  0
  -22.5270   -7.9960   21.3010 C   0  0  0  0  0  0  0  0  0  0  0  0
  -22.1040   -8.9500   20.3590 C   0  0  0  0  0  3  0  0  0  0  0  0
  -22.8200  -10.1460   20.1810 C   0  0  0  0  0  3  0  0  0  0  0  0
  -21.7820   -6.8450   21.3870 O   0  0  0  0  0  0  0  0  0  0  0  0
  -21.6740   -6.1440   22.5620 C   0  0  0  0  0  0  0  0  0  0  0  0
  -21.1500   -6.7300   23.7340 C   0  0  0  0  0  3  0  0  0  0  0  0
  -20.9910   -5.9540   24.8990 C   0  0  0  0  0  3  0  0  0  0  0  0
  -21.3480   -4.5920   24.8930 C   0  0  0  0  0  0  0  0  0  0  0  0
  -21.8630   -4.0050   23.7250 C   0  0  0  0  0  3  0  0  0  0  0  0
  -22.0230   -4.7780   22.5620 C   0  0  0  0  0  0  0  0  0  0  0  0
  -22.5020   -4.2020   21.4330 F   0  0  0  0  0  0  0  0  0  0  0  0
  -21.1880   -3.8430   26.0100 F   0  0  0  0  0  0  0  0  0  0  0  0
  -22.8490  -13.4930   21.2370 C   0  0  0  0  0  0  0  0  0  0  0  0
  -22.1800  -12.7730   22.1270 N   0  0  0  0  0  0  0  0  0  0  0  0
  -22.3820  -14.5350   20.7780 O   0  0  0  0  0  0  0  0  0  0  0  0
  -22.5760  -11.9320   22.5210 H   0  0  0  0  0  0  0  0  0  0  0  0
  -21.2580  -13.0670   22.4190 H   0  0  0  0  0  0  0  0  0  0  0  0
  -25.4220  -15.1960   20.3260 N   0  0  0  0  0  0  0  0  0  0  0  0
  -24.6580  -15.8360   20.5120 H   0  0  0  0  0  0  0  0  0  0  0  0
  -26.2420  -15.6560   19.9510 H   0  0  0  0  0  0  0  0  0  0  0  0
  -27.9450  -24.9470   19.9500 C   0  0  0  0  0  2  0  0  0  0  0  0
  -28.3090  -26.3780   20.1610 O   0  0  0  0  0  0  0  0  0  0  0  0
  -24.6460  -31.8440   23.2260 C   0  0  0  0  0  0  0  0  0  0  0  0
  -27.2200  -27.2860   20.1140 C   0  0  0  0  0  0  0  0  0  0  0  0
  -23.4370  -30.4760   21.5720 C   0  0  0  0  0  3  0  0  0  0  0  0
  -24.8770  -28.9560   20.1260 C   0  0  0  0  0  0  0  0  0  0  0  0
  -25.9880  -30.7760   21.4030 C   0  0  0  0  0  2  0  0  0  0  0  0
  -26.0590  -29.4120   20.7230 C   0  0  0  0  0  0  0  0  0  0  0  0
  -27.2350  -28.5940   20.7030 C   0  0  0  0  0  3  0  0  0  0  0  0
  -25.9920  -26.9030   19.5070 C   0  0  0  0  0  3  0  0  0  0  0  0
  -24.8470  -27.7060   19.5130 C   0  0  0  0  0  3  0  0  0  0  0  0
  -23.6500  -29.8340   20.1840 C   0  0  0  0  0  2  0  0  0  0  0  0
  -24.7090  -31.0490   22.1190 N   0  0  0  0  0  0  0  0  0  0  0  0
  -23.5640  -32.1250   23.7620 O   0  0  0  0  0  0  0  0  0  0  0  0
  -22.7670  -29.4460   22.5140 C   0  0  0  0  0  0  0  0  0  0  0  0
  -21.4400  -29.2740   22.3860 N   0  0  0  0  0  0  0  0  0  0  0  0
  -23.4410  -28.8030   23.3240 O   0  0  0  0  0  0  0  0  0  0  0  0
  -20.9530  -29.8470   21.7110 H   0  0  0  0  0  0  0  0  0  0  0  0
  -18.0530  -28.1080   22.8930 C   0  0  0  0  0  0  0  0  0  0  0  0
  -20.6160  -28.3340   23.1490 C   0  0  0  0  0  3  0  0  0  0  0  0
  -20.6960  -26.9100   22.5510 C   0  0  0  0  0  2  0  0  0  0  0  0
  -19.5850  -26.6150   21.5390 C   0  0  0  0  0  2  0  0  0  0  0  0
  -18.2090  -26.7660   22.1940 C   0  0  0  0  0  2  0  0  0  0  0  0
  -19.1840  -28.8500   23.3260 C   0  0  0  0  0  0  0  0  0  0  0  0
  -18.9820  -30.1050   23.9400 C   0  0  0  0  0  3  0  0  0  0  0  0
  -17.6850  -30.6190   24.1220 C   0  0  0  0  0  3  0  0  0  0  0  0
  -16.5690  -29.8730   23.7060 C   0  0  0  0  0  3  0  0  0  0  0  0
  -16.7550  -28.6180   23.0980 C   0  0  0  0  0  3  0  0  0  0  0  0
  -25.9330  -32.4650   23.8550 C   0  0  0  0  0  3  0  0  0  0  0  0
  -25.6230  -33.8560   24.2100 N   0  0  0  0  0  0  0  0  0  0  0  0
  -25.9200  -34.9180   23.4480 C   0  0  0  0  0  0  0  0  0  0  0  0
  -26.5520  -34.8290   22.3940 O   0  0  0  0  0  0  0  0  0  0  0  0
  -25.0630  -34.0000   25.0360 H   0  0  0  0  0  0  0  0  0  0  0  0
  -24.1570  -36.6920   23.1900 C   0  0  0  0  0  1  0  0  0  0  0  0
  -25.4410  -36.2980   23.9380 C   0  0  0  0  0  3  0  0  0  0  0  0
  -27.5990  -37.2080   24.6740 C   0  0  0  0  0  1  0  0  0  0  0  0
  -26.4540  -37.3640   23.7800 N   0  0  0  0  0  0  0  0  0  0  0  0
  -26.0450  -38.2780   23.9520 H   0  0  0  0  0  0  0  0  0  0  0  0
  -26.4490  -31.6720   25.1190 C   0  0  1  0  0  0  0  0  0  0  0  0
  -25.3560  -31.4170   26.1830 C   0  0  0  0  0  1  0  0  0  0  0  0
  -27.0300  -30.3000   24.7100 C   0  0  0  0  0  1  0  0  0  0  0  0
  -27.6020  -32.4540   25.7930 C   0  0  0  0  0  1  0  0  0  0  0  0
  1  4  1  0
  2  1  1  0
  2  5  1  0
  4  3  1  0
  4  6  1  1
  5  7  1  6
  5 53  1  0
  5  3  1  0
  8  9  1  0
 10 13  1  0
 11  4  1  0
 11  8  2  0
 12 10  2  0
 12 11  1  0
 13 23  1  0
 13  9  2  0
 14 12  1  0
 15 23  1  0
 16 21  1  0
 17 18  1  0
 17 16  1  0
 19 18  1  0
 19 28  1  0
 19 20  1  0
 21 15  1  0
 21 20  1  0
 22 15  2  0
 23 24  1  0
 25 26  2  0
 26 45  1  0
 27 26  1  0
 27 30  1  0
 28 29  1  0
 28 25  1  0
 29 27  2  0
 30 31  1  0
 31 32  2  0
 33 36  1  0
 33 32  1  0
 34 33  2  0
 35 34  1  0
 35 30  2  0
 36 37  1  0
 37 42  2  0
 37 38  1  0
 38 39  2  0
 40 39  1  0
 40 44  1  0
 41 40  2  0
 42 41  1  0
 43 42  1  0
 45 46  1  0
 46 49  1  0
 46 48  1  0
 47 45  2  0
 50 25  1  0
 50 51  1  0
 52 50  1  0
 53 54  1  0
 55 66  2  0
 56 54  1  0
 56 61  1  0
 57 65  1  0
 57 67  1  0
 58 64  1  0
 58 60  1  0
 59 65  1  0
 60 59  1  0
 61 60  2  0
 62 63  1  0
 62 56  2  0
 63 58  2  0
 64 57  1  0
 65 55  1  0
 67 69  2  0
 68 67  1  0
 70 68  1  0
 71 80  2  0
 71 76  1  0
 72 68  1  0
 72 76  1  0
 73 72  1  0
 74 75  1  0
 74 73  1  0
 75 71  1  0
 76 77  2  0
 77 78  1  0
 79 78  2  0
 80 79  1  0
 81 55  1  0
 81 82  1  0
 81 91  1  0
 82 85  1  0
 83 87  1  0
 83 82  1  0
 84 83  2  0
 87 86  1  0
 89 87  1  0
 89 90  1  0
 89 88  1  0
 91 94  1  1
 91 92  1  0
 93 91  1  0
M  ISO  4  15 100  23 100  53 101  54 101
M  END
>  <TORSDO>  (15) 
F 18

>  <SCORE>  (15) 
-13.984

>  <name>  (15) 
14

>  <ligand_id>  (15) 
14

>  <original_smiles>  (15) 
[H]c1c([H])c([H])c2c(c1[H])C([H])([H])C([H])([H])C([H])([H])C2([H])N([H])C(=O)C1([H])N(C(=O)C([H])(N([H])C(=O)C([H])(N([H])C([H])([H])[H])C([H])([H])[H])C(C([H])([H])[H])(C([H])([H])[H])C([H])([H])[H])C([H])([H])c2c([H])c(OC([H])([H])C3(C([H])([H])[H])C([H])([H])C([H])([H])C(c4c([H])c([H])c(N([H])C(=O)N5C([H])([H])C([H])([H])C([H])([H])C([H])(n6nc(-c7c([H])c([H])c(Oc8c([H])c([H])c(F)c([H])c8F)c([H])c7[H])c(C(=O)N([H])[H])c6N([H])[H])C5([H])[H])c([H])c4C([H])([H])[H])(C([H])([H])[H])C3([H])[H])c([H])c([H])c2C1([H])[H]

>  <smiles>  (15) 
[H]c1c([H])c([H])c2c(c1[H])C([H])([H])C([H])([H])C([H])([H])C2([H])N([H])C(=O)C1([H])N(C(=O)C([H])(N([H])C(=O)C([H])(N([H])C([H])([H])[H])C([H])([H])[H])C(C([H])([H])[H])(C([H])([H])[H])C([H])([H])[H])C([H])([H])c2c([H])c(OC([H])([H])C3(C([H])([H])[H])C([H])([H])C([H])([H])C(c4c([H])c([H])c(N([H])C(=O)N5C([H])([H])C([H])([H])C([H])([H])C([H])(n6nc(-c7c([H])c([H])c(Oc8c([H])c([H])c(F)c([H])c8F)c([H])c7[H])c(C(=O)N([H])[H])c6N([H])[H])C5([H])[H])c([H])c4C([H])([H])[H])(C([H])([H])[H])C3([H])[H])c([H])c([H])c2C1([H])[H]

$$$$
15:0:0
     RDKit          3D

 95103  0  0  1  0  0  0  0  0999 V2000
  -29.7230  -22.0020   21.2420 C   0  0  0  0  0  0  0  0  0  0  0  0
  -29.1930  -21.3880   20.1670 N   0  0  0  0  0  0  0  0  0  0  0  0
  -30.7210  -21.6150   21.8560 O   0  0  0  0  0  0  0  0  0  0  0  0
  -28.5240  -21.9430   19.6510 H   0  0  0  0  0  0  0  0  0  0  0  0
  -28.4540  -18.2640   18.2890 C   0  0  0  0  0  3  0  0  0  0  0  0
  -29.2790  -17.3200   18.9330 C   0  0  0  0  0  3  0  0  0  0  0  0
  -28.4700  -19.6160   18.6880 C   0  0  0  0  0  3  0  0  0  0  0  0
  -30.1520  -19.0890   20.3610 C   0  0  0  0  0  3  0  0  0  0  0  0
  -30.1500  -17.7350   19.9670 C   0  0  0  0  0  0  0  0  0  0  0  0
  -29.3080  -20.0390   19.7400 C   0  0  0  0  0  0  0  0  0  0  0  0
  -31.1480  -16.8120   20.6640 C   0  0  0  0  0  2  0  0  0  0  0  0
  -31.1360  -14.4720   19.9320 C   0  0  0  0  0  0  0  0  0  0  0  0
  -30.6370  -12.3370   18.7970 C   0  0  0  0  0  2  0  0  0  0  0  0
  -29.6210  -12.5360   17.6570 C   0  0  0  0  0  2  0  0  0  0  0  0
  -28.1820  -12.4120   18.1910 C   0  0  0  0  0  2  0  0  0  0  0  0
  -27.9410  -13.2900   19.4430 C   0  0  0  0  0  3  0  0  0  0  0  0
  -29.0630  -13.1060   20.4810 C   0  0  0  0  0  2  0  0  0  0  0  0
  -30.3690  -13.3500   19.8320 N   0  0  0  0  0  0  0  0  0  0  0  0
  -32.0760  -14.6900   19.1580 O   0  0  0  0  0  0  0  0  0  0  0  0
  -30.8000  -15.0070   22.2800 C   0  0  0  0  0  1  0  0  0  0  0  0
  -30.7830  -15.3940   20.8600 N   0  0  0  0  0  0  0  0  0  0  0  0
  -25.6480  -13.9340   20.4120 C   0  0  0  0  0  0  0  0  0  0  0  0
  -24.5910  -13.1770   20.8430 C   0  0  0  0  0  0  0  0  0  0  0  0
  -24.9990  -11.8150   20.7030 C   0  0  0  0  0  0  0  0  0  0  0  0
  -26.6310  -13.0330   20.0350 N   0  0  0  0  0  0  0  0  0  0  0  0
  -26.2500  -11.7520   20.2700 N   0  0  0  0  0  0  0  0  0  0  0  0
  -24.2470  -10.5680   20.8980 C   0  0  0  0  0  0  0  0  0  0  0  0
  -24.6530   -9.6000   21.8440 C   0  0  0  0  0  3  0  0  0  0  0  0
  -23.9020   -8.4180   22.0250 C   0  0  0  0  0  3  0  0  0  0  0  0
  -22.7340   -8.1940   21.2590 C   0  0  0  0  0  0  0  0  0  0  0  0
  -22.3480   -9.1500   20.3030 C   0  0  0  0  0  3  0  0  0  0  0  0
  -23.0980  -10.3230   20.1200 C   0  0  0  0  0  3  0  0  0  0  0  0
  -21.9570   -7.0650   21.3490 O   0  0  0  0  0  0  0  0  0  0  0  0
  -21.7850   -6.4010   22.5370 C   0  0  0  0  0  0  0  0  0  0  0  0
  -21.2280   -7.0330   23.6700 C   0  0  0  0  0  3  0  0  0  0  0  0
  -21.0060   -6.2950   24.8500 C   0  0  0  0  0  3  0  0  0  0  0  0
  -21.3310   -4.9260   24.8960 C   0  0  0  0  0  0  0  0  0  0  0  0
  -21.8810   -4.2940   23.7670 C   0  0  0  0  0  3  0  0  0  0  0  0
  -22.1060   -5.0300   22.5900 C   0  0  0  0  0  0  0  0  0  0  0  0
  -22.6170   -4.4120   21.5000 F   0  0  0  0  0  0  0  0  0  0  0  0
  -21.1100   -4.2140   26.0260 F   0  0  0  0  0  0  0  0  0  0  0  0
  -23.2450  -13.6830   21.2710 C   0  0  0  0  0  0  0  0  0  0  0  0
  -22.5840  -12.9720   22.1790 N   0  0  0  0  0  0  0  0  0  0  0  0
  -22.7920  -14.7420   20.8360 O   0  0  0  0  0  0  0  0  0  0  0  0
  -22.9640  -12.1120   22.5440 H   0  0  0  0  0  0  0  0  0  0  0  0
  -21.6850  -13.2920   22.5100 H   0  0  0  0  0  0  0  0  0  0  0  0
  -25.8480  -15.3060   20.2940 N   0  0  0  0  0  0  0  0  0  0  0  0
  -25.1320  -15.9840   20.5280 H   0  0  0  0  0  0  0  0  0  0  0  0
  -26.6940  -15.7330   19.9360 H   0  0  0  0  0  0  0  0  0  0  0  0
  -28.9890  -23.2640   21.7020 C   0  0  0  0  0  2  0  0  0  0  0  0
  -30.6790  -25.1930   21.5660 C   0  0  0  0  0  1  0  0  0  0  0  0
  -29.3900  -24.5820   20.9900 C   0  0  1  0  0  0  0  0  0  0  0  0
  -29.5830  -24.3290   19.6910 F   0  0  0  0  0  0  0  0  0  0  0  0
  -28.2200  -25.5750   21.0820 C   0  0  0  0  0  2  0  0  0  0  0  0
  -28.4060  -26.7380   20.2710 O   0  0  0  0  0  0  0  0  0  0  0  0
  -24.5290  -31.8630   23.2610 C   0  0  0  0  0  0  0  0  0  0  0  0
  -27.2600  -27.4850   20.2070 C   0  0  0  0  0  0  0  0  0  0  0  0
  -23.3610  -30.4490   21.6030 C   0  0  0  0  0  3  0  0  0  0  0  0
  -24.8490  -28.9440   20.1840 C   0  0  0  0  0  0  0  0  0  0  0  0
  -25.8800  -30.8490   21.4330 C   0  0  0  0  0  2  0  0  0  0  0  0
  -25.9900  -29.4840   20.7910 C   0  0  0  0  0  0  0  0  0  0  0  0
  -27.2000  -28.7580   20.8050 C   0  0  0  0  0  3  0  0  0  0  0  0
  -26.1110  -26.9570   19.5790 C   0  0  0  0  0  3  0  0  0  0  0  0
  -24.9040  -27.6800   19.5730 C   0  0  0  0  0  3  0  0  0  0  0  0
  -23.5920  -29.7820   20.2200 C   0  0  0  0  0  2  0  0  0  0  0  0
  -24.6080  -31.0690   22.1580 N   0  0  0  0  0  0  0  0  0  0  0  0
  -23.4390  -32.1180   23.7940 O   0  0  0  0  0  0  0  0  0  0  0  0
  -22.7220  -29.4090   22.5540 C   0  0  0  0  0  0  0  0  0  0  0  0
  -21.4030  -29.2000   22.4090 N   0  0  0  0  0  0  0  0  0  0  0  0
  -23.4080  -28.7960   23.3760 O   0  0  0  0  0  0  0  0  0  0  0  0
  -20.9110  -29.7440   21.7130 H   0  0  0  0  0  0  0  0  0  0  0  0
  -18.0410  -27.9610   22.8560 C   0  0  0  0  0  0  0  0  0  0  0  0
  -20.5910  -28.2470   23.1660 C   0  0  0  0  0  3  0  0  0  0  0  0
  -20.7210  -26.8200   22.5860 C   0  0  0  0  0  2  0  0  0  0  0  0
  -19.6360  -26.4880   21.5580 C   0  0  0  0  0  2  0  0  0  0  0  0
  -18.2440  -26.6140   22.1840 C   0  0  0  0  0  2  0  0  0  0  0  0
  -19.1440  -28.7340   23.3050 C   0  0  0  0  0  0  0  0  0  0  0  0
  -18.9010  -29.9960   23.8890 C   0  0  0  0  0  3  0  0  0  0  0  0
  -17.5890  -30.4770   24.0430 C   0  0  0  0  0  3  0  0  0  0  0  0
  -16.4990  -29.6980   23.6190 C   0  0  0  0  0  3  0  0  0  0  0  0
  -16.7260  -28.4460   23.0240 C   0  0  0  0  0  3  0  0  0  0  0  0
  -25.8010  -32.5100   23.8940 C   0  0  0  0  0  3  0  0  0  0  0  0
  -25.4830  -33.9140   24.1870 N   0  0  0  0  0  0  0  0  0  0  0  0
  -25.8660  -34.9520   23.4330 C   0  0  0  0  0  0  0  0  0  0  0  0
  -26.5930  -34.8300   22.4440 O   0  0  0  0  0  0  0  0  0  0  0  0
  -24.8470  -34.0830   24.9520 H   0  0  0  0  0  0  0  0  0  0  0  0
  -24.2010  -36.7660   22.9220 C   0  0  0  0  0  1  0  0  0  0  0  0
  -25.3570  -36.3480   23.8430 C   0  0  0  0  0  3  0  0  0  0  0  0
  -27.4200  -37.2070   24.8630 C   0  0  0  0  0  1  0  0  0  0  0  0
  -26.4110  -37.3860   23.8230 N   0  0  0  0  0  0  0  0  0  0  0  0
  -26.0040  -38.3130   23.9310 H   0  0  0  0  0  0  0  0  0  0  0  0
  -26.3000  -31.7670   25.1930 C   0  0  1  0  0  0  0  0  0  0  0  0
  -25.1870  -31.5380   26.2410 C   0  0  0  0  0  1  0  0  0  0  0  0
  -26.9080  -30.3920   24.8310 C   0  0  0  0  0  1  0  0  0  0  0  0
  -27.4250  -32.5850   25.8650 C   0  0  0  0  0  1  0  0  0  0  0  0
  1 50  1  0
  1  3  2  0
  2  1  1  0
  4  2  1  0
  5  7  2  0
  5  6  1  0
  6  9  2  0
  7 10  1  0
  9  8  1  0
  9 11  1  0
 10  2  1  0
 10  8  2  0
 11 21  1  0
 12 21  1  0
 13 18  1  0
 14 15  1  0
 14 13  1  0
 16 15  1  0
 16 25  1  0
 16 17  1  0
 18 12  1  0
 18 17  1  0
 19 12  2  0
 21 20  1  0
 22 23  2  0
 23 42  1  0
 24 23  1  0
 24 27  1  0
 25 26  1  0
 25 22  1  0
 26 24  2  0
 27 28  1  0
 28 29  2  0
 30 33  1  0
 30 29  1  0
 31 30  2  0
 32 31  1  0
 32 27  2  0
 33 34  1  0
 34 39  2  0
 34 35  1  0
 35 36  2  0
 36 37  1  0
 37 41  1  0
 38 37  2  0
 39 38  1  0
 40 39  1  0
 42 43  1  0
 43 46  1  0
 43 45  1  0
 44 42  2  0
 47 22  1  0
 47 48  1  0
 49 47  1  0
 52 54  1  0
 52 51  1  1
 52 50  1  0
 53 52  1  0
 55 54  1  0
 56 67  2  0
 57 55  1  0
 57 62  1  0
 58 66  1  0
 58 68  1  0
 59 65  1  0
 59 61  1  0
 60 66  1  0
 61 62  2  0
 61 60  1  0
 63 57  2  0
 64 63  1  0
 64 59  2  0
 65 58  1  0
 66 56  1  0
 68 70  2  0
 69 68  1  0
 71 69  1  0
 72 81  2  0
 72 77  1  0
 73 69  1  0
 73 77  1  0
 74 73  1  0
 75 76  1  0
 75 74  1  0
 76 72  1  0
 77 78  2  0
 78 79  1  0
 80 79  2  0
 81 80  1  0
 82 56  1  0
 82 83  1  0
 82 92  1  0
 83 86  1  0
 84 88  1  0
 84 83  1  0
 85 84  2  0
 88 87  1  0
 90 88  1  0
 90 91  1  0
 90 89  1  0
 92 95  1  1
 92 93  1  0
 94 92  1  0
M  ISO  4  12 100  21 100  54 101  55 101
M  END
>  <TORSDO>  (16) 
F 21

>  <SCORE>  (16) 
-12.820

>  <name>  (16) 
15

>  <ligand_id>  (16) 
15

>  <original_smiles>  (16) 
[H]c1c([H])c(N([H])C(=O)C([H])([H])C(F)(C([H])([H])[H])C([H])([H])Oc2c([H])c([H])c3c(c2[H])C([H])([H])N(C(=O)C([H])(N([H])C(=O)C([H])(N([H])C([H])([H])[H])C([H])([H])[H])C(C([H])([H])[H])(C([H])([H])[H])C([H])([H])[H])C([H])(C(=O)N([H])C2([H])c4c([H])c([H])c([H])c([H])c4C([H])([H])C([H])([H])C2([H])[H])C3([H])[H])c([H])c(C([H])([H])N(C(=O)N2C([H])([H])C([H])([H])C([H])([H])C([H])(n3nc(-c4c([H])c([H])c(Oc5c([H])c([H])c(F)c([H])c5F)c([H])c4[H])c(C(=O)N([H])[H])c3N([H])[H])C2([H])[H])C([H])([H])[H])c1[H]

>  <smiles>  (16) 
[H]c1c([H])c(N([H])C(=O)C([H])([H])C(F)(C([H])([H])[H])C([H])([H])Oc2c([H])c([H])c3c(c2[H])C([H])([H])N(C(=O)C([H])(N([H])C(=O)C([H])(N([H])C([H])([H])[H])C([H])([H])[H])C(C([H])([H])[H])(C([H])([H])[H])C([H])([H])[H])C([H])(C(=O)N([H])C2([H])c4c([H])c([H])c([H])c([H])c4C([H])([H])C([H])([H])C2([H])[H])C3([H])[H])c([H])c(C([H])([H])N(C(=O)N2C([H])([H])C([H])([H])C([H])([H])C([H])(n3nc(-c4c([H])c([H])c(Oc5c([H])c([H])c(F)c([H])c5F)c([H])c4[H])c(C(=O)N([H])[H])c3N([H])[H])C2([H])[H])C([H])([H])[H])c1[H]

$$$$
16:0:0
     RDKit          3D

 97106  0  0  1  0  0  0  0  0999 V2000
  -30.6150  -20.8260   20.2500 C   0  0  0  0  0  3  0  0  0  0  0  0
  -28.4740  -22.3710   22.8470 C   0  0  0  0  0  2  0  0  0  0  0  0
  -29.7940  -23.1450   22.9240 C   0  0  0  0  0  2  0  0  0  0  0  0
  -28.7270  -21.2520   21.8260 C   0  0  0  0  0  2  0  0  0  0  0  0
  -30.3900  -23.0010   21.5200 C   0  0  0  0  0  3  0  0  0  0  0  0
  -29.9680  -21.6350   21.1240 N   0  0  0  0  0  0  0  0  0  0  0  0
  -31.7210  -21.2820   19.6630 N   0  0  0  0  0  0  0  0  0  0  0  0
  -32.2240  -20.6690   19.0390 H   0  0  0  0  0  0  0  0  0  0  0  0
  -32.0830  -22.2030   19.8360 H   0  0  0  0  0  0  0  0  0  0  0  0
  -29.3470  -18.0560   18.0370 C   0  0  0  0  0  3  0  0  0  0  0  0
  -29.7320  -19.3200   18.5190 C   0  0  0  0  0  3  0  0  0  0  0  0
  -29.4140  -16.9360   18.8820 C   0  0  0  0  0  3  0  0  0  0  0  0
  -30.2070  -18.3510   20.7150 C   0  0  0  0  0  3  0  0  0  0  0  0
  -30.1560  -19.4820   19.8540 C   0  0  0  0  0  0  0  0  0  0  0  0
  -29.8650  -17.0620   20.2180 C   0  0  0  0  0  0  0  0  0  0  0  0
  -30.7400  -14.8480   20.7190 C   0  0  0  0  0  0  0  0  0  0  0  0
  -30.5950  -12.6080   19.7180 C   0  0  0  0  0  2  0  0  0  0  0  0
  -29.7140  -12.7040   18.4540 C   0  0  0  0  0  2  0  0  0  0  0  0
  -28.2210  -12.5490   18.8070 C   0  0  0  0  0  2  0  0  0  0  0  0
  -27.7870  -13.4370   20.0030 C   0  0  0  0  0  3  0  0  0  0  0  0
  -28.7860  -13.3190   21.1790 C   0  0  0  0  0  2  0  0  0  0  0  0
  -30.1300  -13.6340   20.6680 N   0  0  0  0  0  0  0  0  0  0  0  0
  -31.8940  -15.0390   20.3250 O   0  0  0  0  0  0  0  0  0  0  0  0
  -29.9440  -15.8900   21.0340 N   0  0  0  0  0  0  0  0  0  0  0  0
  -29.0970  -15.6450   21.5240 H   0  0  0  0  0  0  0  0  0  0  0  0
  -25.3550  -14.0020   20.6230 C   0  0  0  0  0  0  0  0  0  0  0  0
  -24.2840  -13.2090   20.9400 C   0  0  0  0  0  0  0  0  0  0  0  0
  -24.7650  -11.8640   20.9100 C   0  0  0  0  0  0  0  0  0  0  0  0
  -26.4200  -13.1380   20.4230 N   0  0  0  0  0  0  0  0  0  0  0  0
  -26.0670  -11.8470   20.6530 N   0  0  0  0  0  0  0  0  0  0  0  0
  -24.0520  -10.5890   21.0590 C   0  0  0  0  0  0  0  0  0  0  0  0
  -24.4650   -9.6150   21.9940 C   0  0  0  0  0  3  0  0  0  0  0  0
  -23.7520   -8.4040   22.1290 C   0  0  0  0  0  3  0  0  0  0  0  0
  -22.6110   -8.1590   21.3280 C   0  0  0  0  0  0  0  0  0  0  0  0
  -22.2190   -9.1230   20.3820 C   0  0  0  0  0  3  0  0  0  0  0  0
  -22.9320  -10.3250   20.2450 C   0  0  0  0  0  3  0  0  0  0  0  0
  -21.8740   -7.0010   21.3700 O   0  0  0  0  0  0  0  0  0  0  0  0
  -21.8040   -6.2340   22.5070 C   0  0  0  0  0  0  0  0  0  0  0  0
  -21.3110   -6.7520   23.7250 C   0  0  0  0  0  3  0  0  0  0  0  0
  -21.1890   -5.9100   24.8490 C   0  0  0  0  0  3  0  0  0  0  0  0
  -21.5500   -4.5530   24.7570 C   0  0  0  0  0  0  0  0  0  0  0  0
  -22.0370   -4.0350   23.5430 C   0  0  0  0  0  3  0  0  0  0  0  0
  -22.1610   -4.8750   22.4220 C   0  0  0  0  0  0  0  0  0  0  0  0
  -22.6090   -4.3640   21.2480 F   0  0  0  0  0  0  0  0  0  0  0  0
  -21.4260   -3.7430   25.8330 F   0  0  0  0  0  0  0  0  0  0  0  0
  -22.8700  -13.6630   21.1630 C   0  0  0  0  0  0  0  0  0  0  0  0
  -22.1190  -12.9460   21.9910 N   0  0  0  0  0  0  0  0  0  0  0  0
  -22.4370  -14.6900   20.6420 O   0  0  0  0  0  0  0  0  0  0  0  0
  -22.4790  -12.1150   22.4380 H   0  0  0  0  0  0  0  0  0  0  0  0
  -21.1710  -13.2340   22.1850 H   0  0  0  0  0  0  0  0  0  0  0  0
  -25.5110  -15.3760   20.4680 N   0  0  0  0  0  0  0  0  0  0  0  0
  -24.7390  -16.0270   20.5590 H   0  0  0  0  0  0  0  0  0  0  0  0
  -26.3690  -15.8200   20.1670 H   0  0  0  0  0  0  0  0  0  0  0  0
  -29.8730  -24.1200   20.5670 C   0  0  0  0  0  2  0  0  0  0  0  0
  -30.4600  -25.5140   20.9120 C   0  0  0  0  0  2  0  0  0  0  0  0
  -29.4630  -26.6970   20.9430 C   0  0  0  0  0  2  0  0  0  0  0  0
  -28.9780  -27.0750   19.6530 O   0  0  0  0  0  0  0  0  0  0  0  0
  -24.6470  -31.6160   23.0550 C   0  0  0  0  0  0  0  0  0  0  0  0
  -27.7650  -27.7260   19.6990 C   0  0  0  0  0  0  0  0  0  0  0  0
  -23.6000  -30.1990   21.3170 C   0  0  0  0  0  3  0  0  0  0  0  0
  -25.2150  -28.9380   19.7950 C   0  0  0  0  0  0  0  0  0  0  0  0
  -26.0650  -30.8570   21.1520 C   0  0  0  0  0  2  0  0  0  0  0  0
  -26.3050  -29.5490   20.4290 C   0  0  0  0  0  0  0  0  0  0  0  0
  -27.5820  -28.9480   20.3880 C   0  0  0  0  0  3  0  0  0  0  0  0
  -26.6670  -27.1320   19.0480 C   0  0  0  0  0  3  0  0  0  0  0  0
  -25.3910  -27.7270   19.1010 C   0  0  0  0  0  3  0  0  0  0  0  0
  -23.8790  -29.6410   19.8950 C   0  0  0  0  0  2  0  0  0  0  0  0
  -24.7870  -30.9040   21.9020 N   0  0  0  0  0  0  0  0  0  0  0  0
  -23.5440  -31.7270   23.6090 O   0  0  0  0  0  0  0  0  0  0  0  0
  -23.0720  -29.0510   22.2050 C   0  0  0  0  0  0  0  0  0  0  0  0
  -21.7760  -28.7320   22.0620 N   0  0  0  0  0  0  0  0  0  0  0  0
  -23.8260  -28.4510   22.9770 O   0  0  0  0  0  0  0  0  0  0  0  0
  -21.2230  -29.2760   21.4150 H   0  0  0  0  0  0  0  0  0  0  0  0
  -18.5640  -27.1210   22.4430 C   0  0  0  0  0  0  0  0  0  0  0  0
  -21.0720  -27.6580   22.7650 C   0  0  0  0  0  3  0  0  0  0  0  0
  -21.3460  -26.2880   22.1020 C   0  0  0  0  0  2  0  0  0  0  0  0
  -20.2940  -25.9030   21.0560 C   0  0  0  0  0  2  0  0  0  0  0  0
  -18.9020  -25.8450   21.6890 C   0  0  0  0  0  2  0  0  0  0  0  0
  -19.5830  -27.9800   22.9330 C   0  0  0  0  0  0  0  0  0  0  0  0
  -19.2140  -29.1710   23.5950 C   0  0  0  0  0  3  0  0  0  0  0  0
  -17.8580  -29.5060   23.7750 C   0  0  0  0  0  3  0  0  0  0  0  0
  -16.8540  -28.6430   23.3010 C   0  0  0  0  0  3  0  0  0  0  0  0
  -17.2080  -27.4530   22.6400 C   0  0  0  0  0  3  0  0  0  0  0  0
  -25.8580  -32.3420   23.7220 C   0  0  0  0  0  3  0  0  0  0  0  0
  -26.4090  -31.5920   24.9960 C   0  0  1  0  0  0  0  0  0  0  0  0
  -25.3180  -31.2510   26.0370 C   0  0  0  0  0  1  0  0  0  0  0  0
  -27.1110  -30.2740   24.5920 C   0  0  0  0  0  1  0  0  0  0  0  0
  -27.4800  -32.4650   25.6950 C   0  0  0  0  0  1  0  0  0  0  0  0
  -25.4240  -33.7010   24.0650 N   0  0  0  0  0  0  0  0  0  0  0  0
  -25.6870  -34.7920   23.3320 C   0  0  0  0  0  0  0  0  0  0  0  0
  -26.3930  -34.7640   22.3200 O   0  0  0  0  0  0  0  0  0  0  0  0
  -24.7950  -33.7910   24.8500 H   0  0  0  0  0  0  0  0  0  0  0  0
  -23.8240  -36.4370   22.9510 C   0  0  0  0  0  1  0  0  0  0  0  0
  -25.0700  -36.1250   23.7960 C   0  0  0  0  0  3  0  0  0  0  0  0
  -27.0940  -37.1730   24.7090 C   0  0  0  0  0  1  0  0  0  0  0  0
  -26.0110  -37.2640   23.7330 N   0  0  0  0  0  0  0  0  0  0  0  0
  -25.5230  -38.1440   23.8800 H   0  0  0  0  0  0  0  0  0  0  0  0
  1  7  1  0
  1  6  1  0
  2  3  1  0
  4  2  1  0
  5 54  1  0
  5  3  1  0
  6  5  1  0
  6  4  1  0
  7  9  1  0
  8  7  1  0
 10 11  2  0
 10 12  1  0
 11 14  1  0
 12 15  2  0
 14  1  1  0
 14 13  2  0
 15 13  1  0
 15 24  1  0
 16 24  1  0
 17 22  1  0
 18 19  1  0
 18 17  1  0
 20 19  1  0
 20 29  1  0
 20 21  1  0
 22 16  1  0
 22 21  1  0
 23 16  2  0
 24 25  1  0
 26 27  2  0
 27 46  1  0
 28 27  1  0
 28 31  1  0
 29 26  1  0
 29 30  1  0
 30 28  2  0
 31 32  1  0
 32 33  2  0
 34 37  1  0
 34 33  1  0
 35 34  2  0
 36 35  1  0
 36 31  2  0
 37 38  1  0
 38 39  1  0
 39 40  2  0
 41 40  1  0
 41 45  1  0
 42 41  2  0
 43 38  2  0
 43 42  1  0
 44 43  1  0
 46 47  1  0
 47 50  1  0
 47 49  1  0
 48 46  2  0
 51 52  1  0
 51 26  1  0
 53 51  1  0
 54 55  1  0
 55 56  1  0
 57 59  1  0
 57 56  1  0
 58 69  2  0
 59 64  1  0
 60 68  1  0
 60 70  1  0
 61 67  1  0
 61 63  1  0
 62 68  1  0
 63 62  1  0
 64 63  2  0
 65 66  1  0
 65 59  2  0
 66 61  2  0
 67 60  1  0
 68 58  1  0
 70 72  2  0
 71 70  1  0
 73 71  1  0
 74 83  2  0
 74 79  1  0
 75 71  1  0
 75 79  1  0
 76 75  1  0
 77 78  1  0
 77 76  1  0
 78 74  1  0
 79 80  2  0
 80 81  1  0
 82 81  2  0
 83 82  1  0
 84 58  1  0
 84 89  1  0
 84 85  1  0
 85 88  1  1
 85 86  1  0
 87 85  1  0
 89 92  1  0
 90 94  1  0
 90 89  1  0
 91 90  2  0
 94 93  1  0
 96 94  1  0
 96 97  1  0
 96 95  1  0
M  ISO  4  16 100  24 100  56 101  57 101
M  END
>  <TORSDO>  (17) 
F 20

>  <SCORE>  (17) 
-12.112

>  <name>  (17) 
16

>  <ligand_id>  (17) 
16

>  <original_smiles>  (17) 
[H]c1c([H])c(C(N2C([H])([H])C([H])([H])C([H])([H])C2([H])C([H])([H])C([H])([H])C([H])([H])Oc2c([H])c([H])c3c(c2[H])C([H])([H])N(C(=O)C([H])(N([H])C(=O)C([H])(N([H])C([H])([H])[H])C([H])([H])[H])C(C([H])([H])[H])(C([H])([H])[H])C([H])([H])[H])C([H])(C(=O)N([H])C2([H])c4c([H])c([H])c([H])c([H])c4C([H])([H])C([H])([H])C2([H])[H])C3([H])[H])=[N+]([H])[H])c([H])c(N([H])C(=O)N2C([H])([H])C([H])([H])C([H])([H])C([H])(n3nc(-c4c([H])c([H])c(Oc5c([H])c([H])c(F)c([H])c5F)c([H])c4[H])c(C(=O)N([H])[H])c3N([H])[H])C2([H])[H])c1[H]

>  <smiles>  (17) 
[H]c1c([H])c(C(N2C([H])([H])C([H])([H])C([H])([H])C2([H])C([H])([H])C([H])([H])C([H])([H])Oc2c([H])c([H])c3c(c2[H])C([H])([H])N(C(=O)C([H])(N([H])C(=O)C([H])(N([H])C([H])([H])[H])C([H])([H])[H])C(C([H])([H])[H])(C([H])([H])[H])C([H])([H])[H])C([H])(C(=O)N([H])C2([H])c4c([H])c([H])c([H])c([H])c4C([H])([H])C([H])([H])C2([H])[H])C3([H])[H])=[N+]([H])[H])c([H])c(N([H])C(=O)N2C([H])([H])C([H])([H])C([H])([H])C([H])(n3nc(-c4c([H])c([H])c(Oc5c([H])c([H])c(F)c([H])c5F)c([H])c4[H])c(C(=O)N([H])[H])c3N([H])[H])C2([H])[H])c1[H]

$$$$
17:0:0
     RDKit          3D

 98106  0  0  1  0  0  0  0  0999 V2000
  -31.7390  -24.0760   21.1330 C   0  0  0  0  0  1  0  0  0  0  0  0
  -30.4720  -23.4800   20.4880 C   0  0  1  0  0  0  0  0  0  0  0  0
  -30.4390  -24.0120   19.1720 O   0  0  0  0  0  0  0  0  0  0  0  0
  -31.2290  -23.7420   18.7170 H   0  0  0  0  0  0  0  0  0  0  0  0
  -30.7270  -21.9270   20.4210 C   0  0  0  0  0  2  0  0  0  0  0  0
  -29.7080  -20.9360   19.8170 C   0  0  0  0  0  0  0  0  0  0  0  0
  -28.7250  -21.3100   19.1120 N   0  0  0  0  0  0  0  0  0  0  0  0
  -28.1660  -20.5210   18.8090 H   0  0  0  0  0  0  0  0  0  0  0  0
  -31.2070  -18.8960   20.1340 C   0  0  0  0  0  3  0  0  0  0  0  0
  -28.8120  -18.6410   20.3880 C   0  0  0  0  0  3  0  0  0  0  0  0
  -31.3850  -17.5150   20.3730 C   0  0  0  0  0  3  0  0  0  0  0  0
  -28.9860  -17.2610   20.6330 C   0  0  0  0  0  3  0  0  0  0  0  0
  -29.9180  -19.4840   20.1280 C   0  0  0  0  0  0  0  0  0  0  0  0
  -30.2710  -16.6790   20.6080 C   0  0  0  0  0  0  0  0  0  0  0  0
  -30.9840  -14.3490   20.0830 C   0  0  0  0  0  0  0  0  0  0  0  0
  -30.6470  -12.1680   18.9730 C   0  0  0  0  0  2  0  0  0  0  0  0
  -29.6810  -12.3590   17.7850 C   0  0  0  0  0  2  0  0  0  0  0  0
  -28.2100  -12.2680   18.2440 C   0  0  0  0  0  2  0  0  0  0  0  0
  -27.9180  -13.1440   19.4920 C   0  0  0  0  0  3  0  0  0  0  0  0
  -28.9840  -12.8980   20.5820 C   0  0  0  0  0  2  0  0  0  0  0  0
  -30.3110  -13.1690   19.9960 N   0  0  0  0  0  0  0  0  0  0  0  0
  -32.0510  -14.5580   19.4970 O   0  0  0  0  0  0  0  0  0  0  0  0
  -30.3630  -15.2760   20.8350 N   0  0  0  0  0  0  0  0  0  0  0  0
  -29.5910  -14.8860   21.3540 H   0  0  0  0  0  0  0  0  0  0  0  0
  -25.5550  -13.8380   20.2500 C   0  0  0  0  0  0  0  0  0  0  0  0
  -24.4710  -13.1030   20.6500 C   0  0  0  0  0  0  0  0  0  0  0  0
  -24.8860  -11.7360   20.6140 C   0  0  0  0  0  0  0  0  0  0  0  0
  -26.5650  -12.9210   19.9980 N   0  0  0  0  0  0  0  0  0  0  0  0
  -26.1650  -11.6510   20.2700 N   0  0  0  0  0  0  0  0  0  0  0  0
  -24.1240  -10.4990   20.8310 C   0  0  0  0  0  0  0  0  0  0  0  0
  -24.5190   -9.5500   21.8000 C   0  0  0  0  0  3  0  0  0  0  0  0
  -23.7610   -8.3760   22.0030 C   0  0  0  0  0  3  0  0  0  0  0  0
  -22.5950   -8.1440   21.2370 C   0  0  0  0  0  0  0  0  0  0  0  0
  -22.2170   -9.0820   20.2600 C   0  0  0  0  0  3  0  0  0  0  0  0
  -22.9760  -10.2470   20.0550 C   0  0  0  0  0  3  0  0  0  0  0  0
  -21.8110   -7.0210   21.3470 O   0  0  0  0  0  0  0  0  0  0  0  0
  -21.6930   -6.3390   22.5310 C   0  0  0  0  0  0  0  0  0  0  0  0
  -21.2230   -6.9650   23.7070 C   0  0  0  0  0  3  0  0  0  0  0  0
  -21.0510   -6.2110   24.8840 C   0  0  0  0  0  3  0  0  0  0  0  0
  -21.3350   -4.8320   24.8860 C   0  0  0  0  0  0  0  0  0  0  0  0
  -21.7960   -4.2060   23.7150 C   0  0  0  0  0  3  0  0  0  0  0  0
  -21.9710   -4.9580   22.5400 C   0  0  0  0  0  0  0  0  0  0  0  0
  -22.3950   -4.3460   21.4080 F   0  0  0  0  0  0  0  0  0  0  0  0
  -21.1610   -4.1060   26.0150 F   0  0  0  0  0  0  0  0  0  0  0  0
  -23.0970  -13.6270   20.9560 C   0  0  0  0  0  0  0  0  0  0  0  0
  -22.3720  -12.9640   21.8520 N   0  0  0  0  0  0  0  0  0  0  0  0
  -22.6760  -14.6600   20.4390 O   0  0  0  0  0  0  0  0  0  0  0  0
  -22.7250  -12.1290   22.2940 H   0  0  0  0  0  0  0  0  0  0  0  0
  -21.4530  -13.3000   22.0980 H   0  0  0  0  0  0  0  0  0  0  0  0
  -25.7630  -15.2010   20.0620 N   0  0  0  0  0  0  0  0  0  0  0  0
  -25.0250  -15.8840   20.1940 H   0  0  0  0  0  0  0  0  0  0  0  0
  -26.6200  -15.6070   19.7070 H   0  0  0  0  0  0  0  0  0  0  0  0
  -29.1400  -23.8830   21.2160 C   0  0  0  0  0  2  0  0  0  0  0  0
  -29.6970  -25.5630   23.0910 C   0  0  0  0  0  1  0  0  0  0  0  0
  -27.3950  -25.3500   22.2640 C   0  0  0  0  0  1  0  0  0  0  0  0
  -28.8720  -25.3190   21.8060 C   0  0  2  0  0  0  0  0  0  0  0  0
  -29.1250  -26.4990   20.8150 C   0  0  0  0  0  2  0  0  0  0  0  0
  -28.1880  -26.5830   19.7400 O   0  0  0  0  0  0  0  0  0  0  0  0
  -24.5180  -31.7670   23.0710 C   0  0  0  0  0  0  0  0  0  0  0  0
  -27.0760  -27.3930   19.8470 C   0  0  0  0  0  0  0  0  0  0  0  0
  -23.2700  -30.4270   21.4060 C   0  0  0  0  0  3  0  0  0  0  0  0
  -24.6870  -28.9080   19.9270 C   0  0  0  0  0  0  0  0  0  0  0  0
  -25.7940  -30.7640   21.1830 C   0  0  0  0  0  2  0  0  0  0  0  0
  -25.8550  -29.4070   20.5160 C   0  0  0  0  0  0  0  0  0  0  0  0
  -27.0500  -28.6600   20.4810 C   0  0  0  0  0  3  0  0  0  0  0  0
  -25.8940  -26.9110   19.2480 C   0  0  0  0  0  3  0  0  0  0  0  0
  -24.7000  -27.6550   19.2900 C   0  0  0  0  0  3  0  0  0  0  0  0
  -23.4540  -29.7780   20.0070 C   0  0  0  0  0  2  0  0  0  0  0  0
  -24.5470  -30.9990   21.9450 N   0  0  0  0  0  0  0  0  0  0  0  0
  -23.4490  -32.0390   23.6340 O   0  0  0  0  0  0  0  0  0  0  0  0
  -22.6190  -29.3890   22.3480 C   0  0  0  0  0  0  0  0  0  0  0  0
  -21.2860  -29.2500   22.2530 N   0  0  0  0  0  0  0  0  0  0  0  0
  -23.3060  -28.7130   23.1170 O   0  0  0  0  0  0  0  0  0  0  0  0
  -20.7940  -29.8460   21.6030 H   0  0  0  0  0  0  0  0  0  0  0  0
  -17.8890  -28.1680   22.8310 C   0  0  0  0  0  0  0  0  0  0  0  0
  -20.4630  -28.3090   23.0120 C   0  0  0  0  0  3  0  0  0  0  0  0
  -20.4850  -26.9050   22.3650 C   0  0  0  0  0  2  0  0  0  0  0  0
  -19.3320  -26.6770   21.3820 C   0  0  0  0  0  2  0  0  0  0  0  0
  -17.9840  -26.8460   22.0870 C   0  0  0  0  0  2  0  0  0  0  0  0
  -19.0540  -28.8620   23.2500 C   0  0  0  0  0  0  0  0  0  0  0  0
  -18.9110  -30.1050   23.9060 C   0  0  0  0  0  3  0  0  0  0  0  0
  -17.6370  -30.6500   24.1460 C   0  0  0  0  0  3  0  0  0  0  0  0
  -16.4860  -29.9490   23.7430 C   0  0  0  0  0  3  0  0  0  0  0  0
  -16.6140  -28.7100   23.0910 C   0  0  0  0  0  3  0  0  0  0  0  0
  -25.8220  -32.3600   23.6910 C   0  0  0  0  0  3  0  0  0  0  0  0
  -25.5390  -33.7510   24.0660 N   0  0  0  0  0  0  0  0  0  0  0  0
  -25.8920  -34.8210   23.3420 C   0  0  0  0  0  0  0  0  0  0  0  0
  -26.5640  -34.7390   22.3090 O   0  0  0  0  0  0  0  0  0  0  0  0
  -24.9450  -33.8910   24.8700 H   0  0  0  0  0  0  0  0  0  0  0  0
  -24.2010  -36.6570   23.0340 C   0  0  0  0  0  1  0  0  0  0  0  0
  -25.4270  -36.2020   23.8420 C   0  0  0  0  0  3  0  0  0  0  0  0
  -27.5710  -37.0180   24.7190 C   0  0  0  0  0  1  0  0  0  0  0  0
  -26.4800  -37.2390   23.7720 N   0  0  0  0  0  0  0  0  0  0  0  0
  -26.0900  -38.1610   23.9480 H   0  0  0  0  0  0  0  0  0  0  0  0
  -26.3530  -31.5410   24.9300 C   0  0  1  0  0  0  0  0  0  0  0  0
  -25.2750  -31.2750   26.0060 C   0  0  0  0  0  1  0  0  0  0  0  0
  -26.9170  -30.1740   24.4790 C   0  0  0  0  0  1  0  0  0  0  0  0
  -27.5200  -32.3020   25.6020 C   0  0  0  0  0  1  0  0  0  0  0  0
  2  1  1  1
  2 53  1  0
  3  2  1  0
  4  3  1  0
  5  2  1  0
  6 13  1  0
  6  5  1  0
  7  6  2  0
  8  7  1  0
  9 11  1  0
 10 12  2  0
 11 14  2  0
 13  9  2  0
 13 10  1  0
 14 12  1  0
 14 23  1  0
 15 23  1  0
 16 21  1  0
 17 18  1  0
 17 16  1  0
 19 18  1  0
 19 28  1  0
 19 20  1  0
 21 15  1  0
 21 20  1  0
 22 15  2  0
 23 24  1  0
 25 26  2  0
 26 45  1  0
 27 26  1  0
 27 30  1  0
 28 25  1  0
 28 29  1  0
 29 27  2  0
 30 31  1  0
 31 32  2  0
 33 36  1  0
 33 32  1  0
 34 33  2  0
 35 34  1  0
 35 30  2  0
 36 37  1  0
 37 42  2  0
 37 38  1  0
 38 39  2  0
 39 40  1  0
 40 44  1  0
 41 40  2  0
 42 41  1  0
 43 42  1  0
 45 46  1  0
 46 49  1  0
 46 48  1  0
 47 45  2  0
 50 51  1  0
 50 25  1  0
 52 50  1  0
 53 56  1  0
 56 55  1  1
 56 54  1  0
 57 56  1  0
 58 60  1  0
 58 57  1  0
 59 70  2  0
 60 65  1  0
 61 69  1  0
 61 71  1  0
 62 68  1  0
 62 64  1  0
 63 69  1  0
 64 63  1  0
 65 64  2  0
 66 67  1  0
 66 60  2  0
 67 62  2  0
 68 61  1  0
 69 59  1  0
 71 73  2  0
 72 71  1  0
 74 72  1  0
 75 84  2  0
 75 80  1  0
 76 72  1  0
 76 80  1  0
 77 76  1  0
 78 79  1  0
 78 77  1  0
 79 75  1  0
 80 81  2  0
 81 82  1  0
 83 82  2  0
 84 83  1  0
 85 59  1  0
 85 86  1  0
 85 95  1  0
 86 89  1  0
 87 91  1  0
 87 86  1  0
 88 87  2  0
 91 90  1  0
 93 91  1  0
 93 94  1  0
 93 92  1  0
 95 98  1  1
 95 96  1  0
 97 95  1  0
M  ISO  4  15 100  23 100  57 101  58 101
M  END
>  <TORSDO>  (18) 
F 23

>  <SCORE>  (18) 
-12.533

>  <name>  (18) 
17

>  <ligand_id>  (18) 
17

>  <original_smiles>  (18) 
[H]N=C(c1c([H])c([H])c(N([H])C(=O)N2C([H])([H])C([H])([H])C([H])([H])C([H])(n3nc(-c4c([H])c([H])c(Oc5c([H])c([H])c(F)c([H])c5F)c([H])c4[H])c(C(=O)N([H])[H])c3N([H])[H])C2([H])[H])c([H])c1[H])C([H])([H])C(O[H])(C([H])([H])[H])C([H])([H])C(C([H])([H])[H])(C([H])([H])[H])C([H])([H])Oc1c([H])c([H])c2c(c1[H])C([H])([H])N(C(=O)C([H])(N([H])C(=O)C([H])(N([H])C([H])([H])[H])C([H])([H])[H])C(C([H])([H])[H])(C([H])([H])[H])C([H])([H])[H])C([H])(C(=O)N([H])C1([H])c3c([H])c([H])c([H])c([H])c3C([H])([H])C([H])([H])C1([H])[H])C2([H])[H]

>  <smiles>  (18) 
[H]N=C(c1c([H])c([H])c(N([H])C(=O)N2C([H])([H])C([H])([H])C([H])([H])C([H])(n3nc(-c4c([H])c([H])c(Oc5c([H])c([H])c(F)c([H])c5F)c([H])c4[H])c(C(=O)N([H])[H])c3N([H])[H])C2([H])[H])c([H])c1[H])C([H])([H])C(O[H])(C([H])([H])[H])C([H])([H])C(C([H])([H])[H])(C([H])([H])[H])C([H])([H])Oc1c([H])c([H])c2c(c1[H])C([H])([H])N(C(=O)C([H])(N([H])C(=O)C([H])(N([H])C([H])([H])[H])C([H])([H])[H])C(C([H])([H])[H])(C([H])([H])[H])C([H])([H])[H])C([H])(C(=O)N([H])C1([H])c3c([H])c([H])c([H])c([H])c3C([H])([H])C([H])([H])C1([H])[H])C2([H])[H]

$$$$
18:0:0
     RDKit          3D

 95104  0  0  1  0  0  0  0  0999 V2000
  -30.8030  -22.2640   21.4690 C   0  0  0  0  0  2  0  0  0  0  0  0
  -30.3700  -23.7350   21.2320 C   0  0  0  0  0  2  0  0  0  0  0  0
  -29.8010  -21.3430   20.7420 C   0  0  0  0  0  3  0  0  0  0  0  0
  -29.7470  -23.8390   19.8210 C   0  0  2  0  0  0  0  0  0  0  0  0
  -29.5670  -22.2340   19.4250 C   0  0  2  0  0  0  0  0  0  0  0  0
  -30.6990  -24.6010   18.8640 C   0  0  0  0  0  1  0  0  0  0  0  0
  -28.1490  -21.9610   18.8730 C   0  0  0  0  0  1  0  0  0  0  0  0
  -30.5820  -21.7870   18.3380 C   0  0  0  0  0  1  0  0  0  0  0  0
  -30.8940  -18.0840   22.6560 C   0  0  0  0  0  3  0  0  0  0  0  0
  -31.0290  -17.0630   21.7150 C   0  0  0  0  0  3  0  0  0  0  0  0
  -30.2230  -18.6220   20.0110 C   0  0  0  0  0  3  0  0  0  0  0  0
  -30.1480  -19.7520   20.9560 C   0  0  0  0  0  0  0  0  0  0  0  0
  -30.4220  -19.3690   22.3150 C   0  0  0  0  0  0  0  0  0  0  0  0
  -30.6320  -17.2530   20.3860 C   0  0  0  0  0  0  0  0  0  0  0  0
  -30.1810  -20.2650   23.5290 C   0  0  0  0  0  1  0  0  0  0  0  0
  -31.2220  -14.7920   19.6730 C   0  0  0  0  0  0  0  0  0  0  0  0
  -30.8040  -12.5300   18.6690 C   0  0  0  0  0  2  0  0  0  0  0  0
  -29.7750  -12.6600   17.5280 C   0  0  0  0  0  2  0  0  0  0  0  0
  -28.3290  -12.5960   18.0660 C   0  0  0  0  0  2  0  0  0  0  0  0
  -28.1110  -13.4690   19.3350 C   0  0  0  0  0  3  0  0  0  0  0  0
  -29.2630  -13.3320   20.3520 C   0  0  0  0  0  2  0  0  0  0  0  0
  -30.5060  -13.6150   19.6270 N   0  0  0  0  0  0  0  0  0  0  0  0
  -32.4270  -14.7830   19.4060 O   0  0  0  0  0  0  0  0  0  0  0  0
  -30.5160  -15.9920   19.6060 N   0  0  0  0  0  0  0  0  0  0  0  0
  -29.6070  -15.8780   19.1910 H   0  0  0  0  0  0  0  0  0  0  0  0
  -25.8610  -14.1780   20.3250 C   0  0  0  0  0  0  0  0  0  0  0  0
  -24.7770  -13.4620   20.7540 C   0  0  0  0  0  0  0  0  0  0  0  0
  -25.1340  -12.0870   20.6200 C   0  0  0  0  0  0  0  0  0  0  0  0
  -26.8080  -13.2420   19.9490 N   0  0  0  0  0  0  0  0  0  0  0  0
  -26.3850  -11.9730   20.1910 N   0  0  0  0  0  0  0  0  0  0  0  0
  -24.3340  -10.8700   20.8220 C   0  0  0  0  0  0  0  0  0  0  0  0
  -24.7250   -9.8710   21.7390 C   0  0  0  0  0  3  0  0  0  0  0  0
  -23.9270   -8.7220   21.9300 C   0  0  0  0  0  3  0  0  0  0  0  0
  -22.7230   -8.5660   21.2050 C   0  0  0  0  0  0  0  0  0  0  0  0
  -22.3480   -9.5560   20.2790 C   0  0  0  0  0  3  0  0  0  0  0  0
  -23.1440  -10.6950   20.0860 C   0  0  0  0  0  3  0  0  0  0  0  0
  -21.8970   -7.4740   21.3070 O   0  0  0  0  0  0  0  0  0  0  0  0
  -21.7650   -6.7750   22.4820 C   0  0  0  0  0  0  0  0  0  0  0  0
  -21.3220   -7.3960   23.6690 C   0  0  0  0  0  3  0  0  0  0  0  0
  -21.1320   -6.6280   24.8360 C   0  0  0  0  0  3  0  0  0  0  0  0
  -21.3770   -5.2440   24.8140 C   0  0  0  0  0  0  0  0  0  0  0  0
  -21.8160   -4.6230   23.6320 C   0  0  0  0  0  3  0  0  0  0  0  0
  -22.0060   -5.3880   22.4670 C   0  0  0  0  0  0  0  0  0  0  0  0
  -22.4080   -4.7830   21.3250 F   0  0  0  0  0  0  0  0  0  0  0  0
  -21.1900   -4.5040   25.9330 F   0  0  0  0  0  0  0  0  0  0  0  0
  -23.4520  -14.0270   21.1720 C   0  0  0  0  0  0  0  0  0  0  0  0
  -22.7590  -13.3530   22.0840 N   0  0  0  0  0  0  0  0  0  0  0  0
  -23.0430  -15.0950   20.7230 O   0  0  0  0  0  0  0  0  0  0  0  0
  -23.1080  -12.4870   22.4690 H   0  0  0  0  0  0  0  0  0  0  0  0
  -21.8690  -13.7100   22.3980 H   0  0  0  0  0  0  0  0  0  0  0  0
  -26.1050  -15.5430   20.2010 N   0  0  0  0  0  0  0  0  0  0  0  0
  -25.4000  -16.2320   20.4370 H   0  0  0  0  0  0  0  0  0  0  0  0
  -26.9590  -15.9590   19.8520 H   0  0  0  0  0  0  0  0  0  0  0  0
  -28.4830  -24.8580   19.8430 C   0  0  0  0  0  2  0  0  0  0  0  0
  -28.6480  -26.3310   20.1280 O   0  0  0  0  0  0  0  0  0  0  0  0
  -24.5550  -31.6150   23.0100 C   0  0  0  0  0  0  0  0  0  0  0  0
  -27.5140  -27.1730   20.0470 C   0  0  0  0  0  0  0  0  0  0  0  0
  -23.4970  -30.1450   21.3440 C   0  0  0  0  0  3  0  0  0  0  0  0
  -25.0790  -28.6910   19.9710 C   0  0  0  0  0  0  0  0  0  0  0  0
  -26.0250  -30.6160   21.2290 C   0  0  0  0  0  2  0  0  0  0  0  0
  -26.2060  -29.2320   20.6010 C   0  0  0  0  0  0  0  0  0  0  0  0
  -27.4320  -28.4870   20.6220 C   0  0  0  0  0  3  0  0  0  0  0  0
  -26.3510  -26.7110   19.3850 C   0  0  0  0  0  3  0  0  0  0  0  0
  -25.1590  -27.4410   19.3500 C   0  0  0  0  0  3  0  0  0  0  0  0
  -23.7930  -29.4860   19.9740 C   0  0  0  0  0  2  0  0  0  0  0  0
  -24.7110  -30.8130   21.9180 N   0  0  0  0  0  0  0  0  0  0  0  0
  -23.4370  -31.8200   23.5070 O   0  0  0  0  0  0  0  0  0  0  0  0
  -22.8790  -29.0820   22.2850 C   0  0  0  0  0  0  0  0  0  0  0  0
  -21.5590  -28.8600   22.1570 N   0  0  0  0  0  0  0  0  0  0  0  0
  -23.5800  -28.4650   23.0910 O   0  0  0  0  0  0  0  0  0  0  0  0
  -21.0550  -29.4160   21.4820 H   0  0  0  0  0  0  0  0  0  0  0  0
  -18.2140  -27.5520   22.6440 C   0  0  0  0  0  0  0  0  0  0  0  0
  -20.7680  -27.8800   22.9060 C   0  0  0  0  0  3  0  0  0  0  0  0
  -20.9060  -26.4640   22.2990 C   0  0  0  0  0  2  0  0  0  0  0  0
  -19.8070  -26.1310   21.2840 C   0  0  0  0  0  2  0  0  0  0  0  0
  -18.4260  -26.2220   21.9390 C   0  0  0  0  0  2  0  0  0  0  0  0
  -19.3140  -28.3360   23.0840 C   0  0  0  0  0  0  0  0  0  0  0  0
  -19.0610  -29.5780   23.7050 C   0  0  0  0  0  3  0  0  0  0  0  0
  -17.7420  -30.0350   23.8900 C   0  0  0  0  0  3  0  0  0  0  0  0
  -16.6570  -29.2490   23.4660 C   0  0  0  0  0  3  0  0  0  0  0  0
  -16.8950  -28.0070   22.8480 C   0  0  0  0  0  3  0  0  0  0  0  0
  -25.7690  -32.3360   23.6700 C   0  0  0  0  0  3  0  0  0  0  0  0
  -25.3460  -33.7000   24.0180 N   0  0  0  0  0  0  0  0  0  0  0  0
  -25.6940  -34.8020   23.3400 C   0  0  0  0  0  0  0  0  0  0  0  0
  -26.4720  -34.7780   22.3850 O   0  0  0  0  0  0  0  0  0  0  0  0
  -24.6770  -33.7840   24.7680 H   0  0  0  0  0  0  0  0  0  0  0  0
  -23.9210  -36.5230   22.8520 C   0  0  0  0  0  1  0  0  0  0  0  0
  -25.0780  -36.1440   23.7910 C   0  0  0  0  0  3  0  0  0  0  0  0
  -27.0590  -37.0850   24.8970 C   0  0  0  0  0  1  0  0  0  0  0  0
  -26.0560  -37.2510   23.8490 N   0  0  0  0  0  0  0  0  0  0  0  0
  -25.5860  -38.1420   23.9930 H   0  0  0  0  0  0  0  0  0  0  0  0
  -26.3100  -31.5810   24.9460 C   0  0  1  0  0  0  0  0  0  0  0  0
  -25.2090  -31.2220   25.9750 C   0  0  0  0  0  1  0  0  0  0  0  0
  -27.0180  -30.2680   24.5350 C   0  0  0  0  0  1  0  0  0  0  0  0
  -27.3710  -32.4490   25.6620 C   0  0  0  0  0  1  0  0  0  0  0  0
  2  1  1  0
  3 12  1  0
  3  1  1  0
  4  6  1  6
  4 54  1  0
  4  2  1  0
  5  4  1  0
  5  3  1  0
  5  7  1  6
  8  5  1  0
 10  9  2  0
 11 14  2  0
 11 12  1  0
 12 13  2  0
 13  9  1  0
 13 15  1  0
 14 10  1  0
 17 22  1  0
 18 19  1  0
 18 17  1  0
 20 19  1  0
 20 29  1  0
 20 21  1  0
 22 16  1  0
 22 21  1  0
 23 16  2  0
 24 16  1  0
 24 14  1  0
 25 24  1  0
 26 27  2  0
 27 46  1  0
 28 27  1  0
 28 31  1  0
 29 30  1  0
 29 26  1  0
 30 28  2  0
 31 32  1  0
 32 33  2  0
 34 37  1  0
 34 33  1  0
 35 34  2  0
 36 35  1  0
 36 31  2  0
 37 38  1  0
 38 39  1  0
 39 40  2  0
 41 40  1  0
 41 45  1  0
 42 41  2  0
 43 38  2  0
 43 42  1  0
 44 43  1  0
 46 47  1  0
 47 50  1  0
 47 49  1  0
 48 46  2  0
 51 26  1  0
 51 52  1  0
 53 51  1  0
 54 55  1  0
 56 67  2  0
 57 55  1  0
 57 62  1  0
 58 66  1  0
 58 68  1  0
 59 65  1  0
 59 61  1  0
 60 66  1  0
 61 62  2  0
 61 60  1  0
 63 57  2  0
 64 63  1  0
 64 59  2  0
 65 58  1  0
 66 56  1  0
 68 70  2  0
 69 68  1  0
 71 69  1  0
 72 81  2  0
 72 77  1  0
 73 69  1  0
 73 77  1  0
 74 73  1  0
 75 76  1  0
 75 74  1  0
 76 72  1  0
 77 78  2  0
 78 79  1  0
 80 79  2  0
 81 80  1  0
 82 56  1  0
 82 83  1  0
 82 92  1  0
 83 86  1  0
 84 88  1  0
 84 83  1  0
 85 84  2  0
 88 87  1  0
 88 90  1  0
 90 91  1  0
 90 89  1  0
 92 95  1  1
 92 93  1  0
 94 92  1  0
M  ISO  4  16 100  24 100  54 101  55 101
M  END
>  <TORSDO>  (19) 
F 18

>  <SCORE>  (19) 
-12.709

>  <name>  (19) 
18

>  <ligand_id>  (19) 
18

>  <original_smiles>  (19) 
[H]c1c([H])c([H])c2c(c1[H])C([H])([H])C([H])([H])C([H])([H])C2([H])N([H])C(=O)C1([H])N(C(=O)C([H])(N([H])C(=O)C([H])(N([H])C([H])([H])[H])C([H])([H])[H])C(C([H])([H])[H])(C([H])([H])[H])C([H])([H])[H])C([H])([H])c2c([H])c(OC([H])([H])C3(C([H])([H])[H])C([H])([H])C([H])([H])C([H])(c4c([H])c(N([H])C(=O)N5C([H])([H])C([H])([H])C([H])([H])C([H])(n6nc(-c7c([H])c([H])c(Oc8c([H])c([H])c(F)c([H])c8F)c([H])c7[H])c(C(=O)N([H])[H])c6N([H])[H])C5([H])[H])c([H])c([H])c4C([H])([H])[H])C3(C([H])([H])[H])C([H])([H])[H])c([H])c([H])c2C1([H])[H]

>  <smiles>  (19) 
[H]c1c([H])c([H])c2c(c1[H])C([H])([H])C([H])([H])C([H])([H])C2([H])N([H])C(=O)C1([H])N(C(=O)C([H])(N([H])C(=O)C([H])(N([H])C([H])([H])[H])C([H])([H])[H])C(C([H])([H])[H])(C([H])([H])[H])C([H])([H])[H])C([H])([H])c2c([H])c(OC([H])([H])C3(C([H])([H])[H])C([H])([H])C([H])([H])C([H])(c4c([H])c(N([H])C(=O)N5C([H])([H])C([H])([H])C([H])([H])C([H])(n6nc(-c7c([H])c([H])c(Oc8c([H])c([H])c(F)c([H])c8F)c([H])c7[H])c(C(=O)N([H])[H])c6N([H])[H])C5([H])[H])c([H])c([H])c4C([H])([H])[H])C3(C([H])([H])[H])C([H])([H])[H])c([H])c([H])c2C1([H])[H]

$$$$
19:0:0
     RDKit          3D

 97105  0  0  1  0  0  0  0  0999 V2000
  -30.7310  -21.3850   19.6880 C   0  0  0  0  0  3  0  0  0  0  0  0
  -30.8260  -20.2650   19.0750 N   0  0  0  0  0  0  0  0  0  0  0  0
  -33.3050  -18.0010   20.6680 C   0  0  0  0  0  3  0  0  0  0  0  0
  -32.5230  -16.8480   20.8600 C   0  0  0  0  0  3  0  0  0  0  0  0
  -32.7350  -19.1530   20.1060 C   0  0  0  0  0  3  0  0  0  0  0  0
  -30.5990  -17.9950   19.9460 C   0  0  0  0  0  3  0  0  0  0  0  0
  -31.1470  -16.8100   20.5110 C   0  0  0  0  0  0  0  0  0  0  0  0
  -31.3740  -19.1600   19.7350 C   0  0  0  0  0  0  0  0  0  0  0  0
  -30.2970  -15.5740   20.7440 C   0  0  0  0  0  3  0  0  0  0  0  0
  -30.6950  -14.4770   19.7050 C   0  0  0  0  0  0  0  0  0  0  0  0
  -30.2080  -12.3550   18.5140 C   0  0  0  0  0  2  0  0  0  0  0  0
  -29.1330  -12.5600   17.4270 C   0  0  0  0  0  2  0  0  0  0  0  0
  -27.7200  -12.4090   18.0220 C   0  0  0  0  0  2  0  0  0  0  0  0
  -27.5270  -13.2460   19.3130 C   0  0  0  0  0  3  0  0  0  0  0  0
  -28.7020  -13.0270   20.2930 C   0  0  0  0  0  2  0  0  0  0  0  0
  -29.9600  -13.3320   19.5880 N   0  0  0  0  0  0  0  0  0  0  0  0
  -31.6780  -14.6670   18.9770 O   0  0  0  0  0  0  0  0  0  0  0  0
  -25.2350  -13.8450   20.3230 C   0  0  0  0  0  0  0  0  0  0  0  0
  -24.2140  -13.0670   20.8010 C   0  0  0  0  0  0  0  0  0  0  0  0
  -24.6580  -11.7150   20.6810 C   0  0  0  0  0  0  0  0  0  0  0  0
  -26.2380  -12.9650   19.9440 N   0  0  0  0  0  0  0  0  0  0  0  0
  -25.9020  -11.6780   20.2180 N   0  0  0  0  0  0  0  0  0  0  0  0
  -23.9510  -10.4520   20.9260 C   0  0  0  0  0  0  0  0  0  0  0  0
  -24.4270   -9.5100   21.8660 C   0  0  0  0  0  3  0  0  0  0  0  0
  -23.7190   -8.3100   22.0980 C   0  0  0  0  0  3  0  0  0  0  0  0
  -22.5230   -8.0430   21.3910 C   0  0  0  0  0  0  0  0  0  0  0  0
  -22.0670   -8.9730   20.4400 C   0  0  0  0  0  3  0  0  0  0  0  0
  -22.7750  -10.1640   20.2070 C   0  0  0  0  0  3  0  0  0  0  0  0
  -21.7840   -6.8940   21.5310 O   0  0  0  0  0  0  0  0  0  0  0  0
  -21.7290   -6.2140   22.7220 C   0  0  0  0  0  0  0  0  0  0  0  0
  -21.2670   -6.8240   23.9080 C   0  0  0  0  0  3  0  0  0  0  0  0
  -21.1610   -6.0690   25.0940 C   0  0  0  0  0  3  0  0  0  0  0  0
  -21.5090   -4.7050   25.0930 C   0  0  0  0  0  0  0  0  0  0  0  0
  -21.9650   -4.0950   23.9110 C   0  0  0  0  0  3  0  0  0  0  0  0
  -22.0720   -4.8460   22.7280 C   0  0  0  0  0  0  0  0  0  0  0  0
  -22.4920   -4.2480   21.5880 F   0  0  0  0  0  0  0  0  0  0  0  0
  -21.4010   -3.9780   26.2290 F   0  0  0  0  0  0  0  0  0  0  0  0
  -22.8620  -13.5420   21.2510 C   0  0  0  0  0  0  0  0  0  0  0  0
  -22.2540  -12.8470   22.2070 N   0  0  0  0  0  0  0  0  0  0  0  0
  -22.3590  -14.5660   20.7910 O   0  0  0  0  0  0  0  0  0  0  0  0
  -22.6740  -12.0180   22.6000 H   0  0  0  0  0  0  0  0  0  0  0  0
  -21.3530  -13.1490   22.5500 H   0  0  0  0  0  0  0  0  0  0  0  0
  -25.3870  -15.2180   20.1600 N   0  0  0  0  0  0  0  0  0  0  0  0
  -24.6400  -15.8700   20.3710 H   0  0  0  0  0  0  0  0  0  0  0  0
  -26.1800  -15.6600   19.7120 H   0  0  0  0  0  0  0  0  0  0  0  0
  -30.4300  -15.1100   22.1360 N   0  0  0  0  0  4  0  0  0  0  0  0
  -31.3590  -14.7650   22.2960 H   0  0  0  0  0  0  0  0  0  0  0  0
  -29.7800  -14.3710   22.3330 H   0  0  0  0  0  0  0  0  0  0  0  0
  -30.2520  -15.8710   22.7650 H   0  0  0  0  0  0  0  0  0  0  0  0
  -30.3640  -22.7140   19.0560 C   0  0  0  0  0  0  0  0  0  0  0  0
  -30.4450  -22.9020   17.8350 O   0  0  0  0  0  0  0  0  0  0  0  0
  -29.9010  -23.8540   19.9850 C   0  0  0  0  0  2  0  0  0  0  0  0
  -27.9270  -24.5090   18.4900 C   0  0  0  0  0  1  0  0  0  0  0  0
  -27.5410  -23.0290   20.4760 C   0  0  0  0  0  1  0  0  0  0  0  0
  -28.3800  -24.2160   19.9410 C   0  0  1  0  0  0  0  0  0  0  0  0
  -28.1080  -25.4370   20.8810 C   0  0  0  0  0  2  0  0  0  0  0  0
  -28.2680  -26.7500   20.3100 O   0  0  0  0  0  0  0  0  0  0  0  0
  -24.4530  -31.9920   23.2860 C   0  0  0  0  0  0  0  0  0  0  0  0
  -27.1150  -27.5090   20.2840 C   0  0  0  0  0  0  0  0  0  0  0  0
  -23.2600  -30.5690   21.6570 C   0  0  0  0  0  3  0  0  0  0  0  0
  -24.7220  -29.0200   20.2620 C   0  0  0  0  0  0  0  0  0  0  0  0
  -25.7880  -30.9300   21.4670 C   0  0  0  0  0  2  0  0  0  0  0  0
  -25.8810  -29.5520   20.8450 C   0  0  0  0  0  0  0  0  0  0  0  0
  -27.0860  -28.8070   20.8450 C   0  0  0  0  0  3  0  0  0  0  0  0
  -25.9320  -26.9930   19.7090 C   0  0  0  0  0  3  0  0  0  0  0  0
  -24.7420  -27.7400   19.6910 C   0  0  0  0  0  3  0  0  0  0  0  0
  -23.4790  -29.8770   20.2860 C   0  0  0  0  0  2  0  0  0  0  0  0
  -24.5190  -31.1770   22.1960 N   0  0  0  0  0  0  0  0  0  0  0  0
  -23.3680  -32.2710   23.8150 O   0  0  0  0  0  0  0  0  0  0  0  0
  -22.6030  -29.5570   22.6250 C   0  0  0  0  0  0  0  0  0  0  0  0
  -21.2920  -29.3230   22.4470 N   0  0  0  0  0  0  0  0  0  0  0  0
  -23.2710  -28.9840   23.4900 O   0  0  0  0  0  0  0  0  0  0  0  0
  -20.8140  -29.8390   21.7220 H   0  0  0  0  0  0  0  0  0  0  0  0
  -17.9530  -27.9910   22.8050 C   0  0  0  0  0  0  0  0  0  0  0  0
  -20.4740  -28.3860   23.2160 C   0  0  0  0  0  3  0  0  0  0  0  0
  -20.6780  -26.9350   22.7240 C   0  0  0  0  0  2  0  0  0  0  0  0
  -19.6560  -26.5080   21.6640 C   0  0  0  0  0  2  0  0  0  0  0  0
  -18.2320  -26.6180   22.2150 C   0  0  0  0  0  2  0  0  0  0  0  0
  -19.0060  -28.8260   23.2610 C   0  0  0  0  0  0  0  0  0  0  0  0
  -18.6930  -30.1060   23.7680 C   0  0  0  0  0  3  0  0  0  0  0  0
  -17.3600  -30.5520   23.8260 C   0  0  0  0  0  3  0  0  0  0  0  0
  -16.3200  -29.7140   23.3880 C   0  0  0  0  0  3  0  0  0  0  0  0
  -16.6170  -28.4350   22.8830 C   0  0  0  0  0  3  0  0  0  0  0  0
  -25.7340  -32.6320   23.9050 C   0  0  0  0  0  3  0  0  0  0  0  0
  -26.2510  -31.8690   25.1860 C   0  0  1  0  0  0  0  0  0  0  0  0
  -25.1470  -31.5890   26.2310 C   0  0  0  0  0  1  0  0  0  0  0  0
  -26.8860  -30.5140   24.7920 C   0  0  0  0  0  1  0  0  0  0  0  0
  -27.3630  -32.6960   25.8740 C   0  0  0  0  0  1  0  0  0  0  0  0
  -25.4190  -34.0310   24.2250 N   0  0  0  0  0  0  0  0  0  0  0  0
  -25.7440  -35.0770   23.4540 C   0  0  0  0  0  0  0  0  0  0  0  0
  -26.4150  -34.9680   22.4230 O   0  0  0  0  0  0  0  0  0  0  0  0
  -24.8260  -34.1900   25.0260 H   0  0  0  0  0  0  0  0  0  0  0  0
  -24.0050  -36.8540   23.0810 C   0  0  0  0  0  1  0  0  0  0  0  0
  -25.2480  -36.4660   23.8980 C   0  0  0  0  0  3  0  0  0  0  0  0
  -27.3760  -37.3720   24.7230 C   0  0  0  0  0  1  0  0  0  0  0  0
  -26.2750  -37.5240   23.7760 N   0  0  0  0  0  0  0  0  0  0  0  0
  -25.8620  -38.4420   23.9140 H   0  0  0  0  0  0  0  0  0  0  0  0
  2  1  2  0
  2  8  1  0
  3  4  1  0
  5  3  2  0
  6  7  1  0
  7  9  1  0
  7  4  2  0
  8  6  2  0
  8  5  1  0
  9 10  1  0
  9 46  1  0
 11 16  1  0
 12 13  1  0
 12 11  1  0
 14 13  1  0
 14 21  1  0
 14 15  1  0
 16 10  1  0
 16 15  1  0
 17 10  2  0
 18 19  2  0
 19 38  1  0
 20 19  1  0
 20 23  1  0
 21 22  1  0
 21 18  1  0
 22 20  2  0
 23 24  1  0
 24 25  2  0
 26 29  1  0
 26 25  1  0
 27 26  2  0
 28 27  1  0
 28 23  2  0
 29 30  1  0
 30 35  2  0
 30 31  1  0
 31 32  2  0
 33 32  1  0
 33 37  1  0
 34 33  2  0
 35 34  1  0
 36 35  1  0
 38 39  1  0
 39 42  1  0
 39 41  1  0
 40 38  2  0
 43 18  1  0
 43 44  1  0
 45 43  1  0
 46 47  1  0
 46 48  1  0
 46 49  1  0
 50  1  1  0
 50 52  1  0
 51 50  2  0
 55 53  1  6
 55 52  1  0
 55 54  1  0
 55 56  1  0
 57 56  1  0
 58 69  2  0
 59 57  1  0
 59 64  1  0
 60 68  1  0
 60 70  1  0
 61 67  1  0
 61 63  1  0
 62 68  1  0
 63 62  1  0
 64 63  2  0
 65 59  2  0
 66 65  1  0
 66 61  2  0
 67 60  1  0
 68 58  1  0
 70 72  2  0
 71 70  1  0
 73 71  1  0
 74 83  2  0
 74 79  1  0
 75 71  1  0
 75 79  1  0
 76 75  1  0
 77 78  1  0
 77 76  1  0
 78 74  1  0
 79 80  2  0
 80 81  1  0
 82 81  2  0
 83 82  1  0
 84 58  1  0
 84 89  1  0
 84 85  1  0
 85 88  1  1
 85 86  1  0
 87 85  1  0
 89 92  1  0
 90 94  1  0
 90 89  1  0
 91 90  2  0
 94 93  1  0
 96 94  1  0
 96 97  1  0
 96 95  1  0
M  ISO  4   9 100  10 100  56 101  57 101
M  END
>  <TORSDO>  (20) 
F 23

>  <SCORE>  (20) 
-11.147

>  <name>  (20) 
19

>  <ligand_id>  (20) 
19

>  <original_smiles>  (20) 
[H]C(=Nc1c([H])c([H])c([H])c(C([H])(C(=O)N2C([H])([H])C([H])([H])C([H])([H])C([H])(n3nc(-c4c([H])c([H])c(Oc5c([H])c([H])c(F)c([H])c5F)c([H])c4[H])c(C(=O)N([H])[H])c3N([H])[H])C2([H])[H])[N+]([H])([H])[H])c1[H])C(=O)C([H])([H])C(C([H])([H])[H])(C([H])([H])[H])C([H])([H])Oc1c([H])c([H])c2c(c1[H])C([H])([H])N(C(=O)C([H])(N([H])C(=O)C([H])(N([H])C([H])([H])[H])C([H])([H])[H])C(C([H])([H])[H])(C([H])([H])[H])C([H])([H])[H])C([H])(C(=O)N([H])C1([H])c3c([H])c([H])c([H])c([H])c3C([H])([H])C([H])([H])C1([H])[H])C2([H])[H]

>  <smiles>  (20) 
[H]C(=Nc1c([H])c([H])c([H])c(C([H])(C(=O)N2C([H])([H])C([H])([H])C([H])([H])C([H])(n3nc(-c4c([H])c([H])c(Oc5c([H])c([H])c(F)c([H])c5F)c([H])c4[H])c(C(=O)N([H])[H])c3N([H])[H])C2([H])[H])[N+]([H])([H])[H])c1[H])C(=O)C([H])([H])C(C([H])([H])[H])(C([H])([H])[H])C([H])([H])Oc1c([H])c([H])c2c(c1[H])C([H])([H])N(C(=O)C([H])(N([H])C(=O)C([H])(N([H])C([H])([H])[H])C([H])([H])[H])C(C([H])([H])[H])(C([H])([H])[H])C([H])([H])[H])C([H])(C(=O)N([H])C1([H])c3c([H])c([H])c([H])c([H])c3C([H])([H])C([H])([H])C1([H])[H])C2([H])[H]

$$$$
20:0:0
     RDKit          3D

 98106  0  0  1  0  0  0  0  0999 V2000
  -30.6560  -20.7320   23.0340 C   0  0  0  0  0  1  0  0  0  0  0  0
  -30.3750  -20.9540   21.5380 C   0  0  1  0  0  0  0  0  0  0  0  0
  -31.5250  -21.3440   20.9930 F   0  0  0  0  0  0  0  0  0  0  0  0
  -29.7110  -19.7400   19.4290 C   0  0  0  0  0  3  0  0  0  0  0  0
  -30.2370  -18.3210   21.3270 C   0  0  0  0  0  3  0  0  0  0  0  0
  -30.0800  -19.6330   20.7790 C   0  0  0  0  0  0  0  0  0  0  0  0
  -29.4400  -18.6130   18.6420 C   0  0  0  0  0  0  0  0  0  0  0  0
  -29.6100  -17.3140   19.1820 C   0  0  0  0  0  0  0  0  0  0  0  0
  -30.0240  -17.1470   20.5420 C   0  0  0  0  0  0  0  0  0  0  0  0
  -29.3050  -16.1340   18.2770 C   0  0  0  0  0  1  0  0  0  0  0  0
  -30.9010  -14.8080   20.9480 C   0  0  0  0  0  0  0  0  0  0  0  0
  -30.8040  -12.5300   19.9820 C   0  0  0  0  0  2  0  0  0  0  0  0
  -29.9600  -12.5370   18.6840 C   0  0  0  0  0  2  0  0  0  0  0  0
  -28.4410  -12.5040   18.9740 C   0  0  0  0  0  2  0  0  0  0  0  0
  -27.9880  -13.3900   20.1710 C   0  0  0  0  0  3  0  0  0  0  0  0
  -28.9510  -13.2610   21.3680 C   0  0  0  0  0  2  0  0  0  0  0  0
  -30.3050  -13.5820   20.8860 N   0  0  0  0  0  0  0  0  0  0  0  0
  -32.0870  -14.9870   20.6490 O   0  0  0  0  0  0  0  0  0  0  0  0
  -30.0510  -15.8450   21.1750 N   0  0  0  0  0  0  0  0  0  0  0  0
  -29.1540  -15.5390   21.5160 H   0  0  0  0  0  0  0  0  0  0  0  0
  -25.5490  -14.0160   20.7020 C   0  0  0  0  0  0  0  0  0  0  0  0
  -24.4510  -13.2500   20.9910 C   0  0  0  0  0  0  0  0  0  0  0  0
  -24.9080  -11.8980   21.0030 C   0  0  0  0  0  0  0  0  0  0  0  0
  -26.6030  -13.1280   20.5520 N   0  0  0  0  0  0  0  0  0  0  0  0
  -26.2180  -11.8510   20.7950 N   0  0  0  0  0  0  0  0  0  0  0  0
  -24.1700  -10.6380   21.1450 C   0  0  0  0  0  0  0  0  0  0  0  0
  -24.5160   -9.6910   22.1340 C   0  0  0  0  0  3  0  0  0  0  0  0
  -23.7800   -8.4920   22.2650 C   0  0  0  0  0  3  0  0  0  0  0  0
  -22.6870   -8.2340   21.4030 C   0  0  0  0  0  0  0  0  0  0  0  0
  -22.3640   -9.1690   20.4050 C   0  0  0  0  0  3  0  0  0  0  0  0
  -23.0990  -10.3580   20.2720 C   0  0  0  0  0  3  0  0  0  0  0  0
  -21.9340   -7.0850   21.4370 O   0  0  0  0  0  0  0  0  0  0  0  0
  -21.7590   -6.3740   22.5970 C   0  0  0  0  0  0  0  0  0  0  0  0
  -21.1450   -6.9420   23.7350 C   0  0  0  0  0  3  0  0  0  0  0  0
  -20.9220   -6.1550   24.8800 C   0  0  0  0  0  3  0  0  0  0  0  0
  -21.3040   -4.7990   24.8890 C   0  0  0  0  0  0  0  0  0  0  0  0
  -21.9110   -4.2300   23.7550 C   0  0  0  0  0  3  0  0  0  0  0  0
  -22.1350   -5.0160   22.6120 C   0  0  0  0  0  0  0  0  0  0  0  0
  -22.7020   -4.4590   21.5140 F   0  0  0  0  0  0  0  0  0  0  0  0
  -21.0820   -4.0390   25.9870 F   0  0  0  0  0  0  0  0  0  0  0  0
  -23.0380  -13.7320   21.1490 C   0  0  0  0  0  0  0  0  0  0  0  0
  -22.2420  -13.0480   21.9610 N   0  0  0  0  0  0  0  0  0  0  0  0
  -22.6420  -14.7490   20.5800 O   0  0  0  0  0  0  0  0  0  0  0  0
  -22.5750  -12.2320   22.4510 H   0  0  0  0  0  0  0  0  0  0  0  0
  -21.2870  -13.3450   22.0970 H   0  0  0  0  0  0  0  0  0  0  0  0
  -25.7320  -15.3860   20.5380 N   0  0  0  0  0  0  0  0  0  0  0  0
  -24.9600  -16.0390   20.6150 H   0  0  0  0  0  0  0  0  0  0  0  0
  -26.6040  -15.8330   20.2930 H   0  0  0  0  0  0  0  0  0  0  0  0
  -27.4050  -19.1410   17.2300 C   0  0  0  0  0  1  0  0  0  0  0  0
  -28.9160  -18.8700   17.2350 C   0  0  0  0  0  2  0  0  0  0  0  0
  -29.2840  -22.0980   21.3680 C   0  0  0  0  0  2  0  0  0  0  0  0
  -30.0770  -23.6140   19.4550 C   0  0  0  0  0  1  0  0  0  0  0  0
  -30.9020  -24.0660   21.8080 C   0  0  0  0  0  1  0  0  0  0  0  0
  -29.7030  -23.5760   20.9550 C   0  0  2  0  0  0  0  0  0  0  0  0
  -28.4930  -24.5630   21.1170 C   0  0  0  0  0  0  0  0  0  0  0  0
  -27.3360  -24.1350   21.1150 O   0  0  0  0  0  0  0  0  0  0  0  0
  -28.7320  -26.0950   21.2450 C   0  0  0  0  0  2  0  0  0  0  0  0
  -28.3090  -26.8040   20.0720 O   0  0  0  0  0  0  0  0  0  0  0  0
  -24.5130  -31.9670   23.2780 C   0  0  0  0  0  0  0  0  0  0  0  0
  -27.1490  -27.5360   20.1740 C   0  0  0  0  0  0  0  0  0  0  0  0
  -23.2980  -30.5580   21.6460 C   0  0  0  0  0  3  0  0  0  0  0  0
  -24.7480  -29.0240   20.2130 C   0  0  0  0  0  0  0  0  0  0  0  0
  -25.8200  -30.9290   21.4270 C   0  0  0  0  0  2  0  0  0  0  0  0
  -25.9080  -29.5540   20.7930 C   0  0  0  0  0  0  0  0  0  0  0  0
  -27.1140  -28.8160   20.7750 C   0  0  0  0  0  3  0  0  0  0  0  0
  -25.9770  -27.0200   19.5890 C   0  0  0  0  0  3  0  0  0  0  0  0
  -24.7750  -27.7530   19.6110 C   0  0  0  0  0  3  0  0  0  0  0  0
  -23.4990  -29.8770   20.2660 C   0  0  0  0  0  2  0  0  0  0  0  0
  -24.5620  -31.1660   22.1750 N   0  0  0  0  0  0  0  0  0  0  0  0
  -23.4360  -32.2340   23.8290 O   0  0  0  0  0  0  0  0  0  0  0  0
  -22.6610  -29.5350   22.6140 C   0  0  0  0  0  0  0  0  0  0  0  0
  -21.3420  -29.3200   22.4740 N   0  0  0  0  0  0  0  0  0  0  0  0
  -23.3490  -28.9360   23.4430 O   0  0  0  0  0  0  0  0  0  0  0  0
  -20.8480  -29.8570   21.7760 H   0  0  0  0  0  0  0  0  0  0  0  0
  -17.9900  -28.0540   22.9510 C   0  0  0  0  0  0  0  0  0  0  0  0
  -20.5380  -28.3730   23.2450 C   0  0  0  0  0  3  0  0  0  0  0  0
  -20.6790  -26.9380   22.6850 C   0  0  0  0  0  2  0  0  0  0  0  0
  -19.5950  -26.5800   21.6640 C   0  0  0  0  0  2  0  0  0  0  0  0
  -18.2030  -26.7020   22.2920 C   0  0  0  0  0  2  0  0  0  0  0  0
  -19.0870  -28.8460   23.3840 C   0  0  0  0  0  0  0  0  0  0  0  0
  -18.8340  -30.1100   23.9580 C   0  0  0  0  0  3  0  0  0  0  0  0
  -17.5170  -30.5850   24.1040 C   0  0  0  0  0  3  0  0  0  0  0  0
  -16.4340  -29.7900   23.6880 C   0  0  0  0  0  3  0  0  0  0  0  0
  -16.6720  -28.5270   23.1180 C   0  0  0  0  0  3  0  0  0  0  0  0
  -25.8020  -32.6030   23.8850 C   0  0  0  0  0  3  0  0  0  0  0  0
  -25.4990  -34.0070   24.1950 N   0  0  0  0  0  0  0  0  0  0  0  0
  -25.8540  -35.0480   23.4290 C   0  0  0  0  0  0  0  0  0  0  0  0
  -26.5420  -34.9270   22.4110 O   0  0  0  0  0  0  0  0  0  0  0  0
  -24.8940  -34.1760   24.9850 H   0  0  0  0  0  0  0  0  0  0  0  0
  -24.1680  -36.8620   22.9970 C   0  0  0  0  0  1  0  0  0  0  0  0
  -25.3700  -36.4450   23.8600 C   0  0  0  0  0  3  0  0  0  0  0  0
  -27.4760  -37.3080   24.7800 C   0  0  0  0  0  1  0  0  0  0  0  0
  -26.4220  -37.4820   23.7840 N   0  0  0  0  0  0  0  0  0  0  0  0
  -26.0240  -38.4090   23.9040 H   0  0  0  0  0  0  0  0  0  0  0  0
  -26.3240  -31.8470   25.1690 C   0  0  1  0  0  0  0  0  0  0  0  0
  -25.2310  -31.6060   26.2360 C   0  0  0  0  0  1  0  0  0  0  0  0
  -26.9170  -30.4700   24.7880 C   0  0  0  0  0  1  0  0  0  0  0  0
  -27.4670  -32.6550   25.8260 C   0  0  0  0  0  1  0  0  0  0  0  0
  2  1  1  1
  3  2  1  0
  4  6  1  0
  6  5  2  0
  6  2  1  0
  7  8  1  0
  7  4  2  0
  8  9  2  0
  9 19  1  0
  9  5  1  0
 10  8  1  0
 11 19  1  0
 12 17  1  0
 13 14  1  0
 13 12  1  0
 15 14  1  0
 15 24  1  0
 15 16  1  0
 17 11  1  0
 17 16  1  0
 18 11  2  0
 19 20  1  0
 21 22  2  0
 22 23  1  0
 22 41  1  0
 23 26  1  0
 24 21  1  0
 24 25  1  0
 25 23  2  0
 26 27  1  0
 27 28  2  0
 29 32  1  0
 29 28  1  0
 30 29  2  0
 31 30  1  0
 31 26  2  0
 32 33  1  0
 33 38  2  0
 33 34  1  0
 34 35  2  0
 35 36  1  0
 36 40  1  0
 37 36  2  0
 38 37  1  0
 39 38  1  0
 41 42  1  0
 42 45  1  0
 42 44  1  0
 43 41  2  0
 46 47  1  0
 46 21  1  0
 48 46  1  0
 49 50  1  0
 50  7  1  0
 51  2  1  0
 54 52  1  6
 54 55  1  0
 54 51  1  0
 54 53  1  0
 55 57  1  0
 56 55  2  0
 58 60  1  0
 58 57  1  0
 59 70  2  0
 60 65  1  0
 61 69  1  0
 61 71  1  0
 62 68  1  0
 62 64  1  0
 63 69  1  0
 64 63  1  0
 65 64  2  0
 66 67  1  0
 66 60  2  0
 67 62  2  0
 68 61  1  0
 69 59  1  0
 71 73  2  0
 72 71  1  0
 74 72  1  0
 75 84  2  0
 75 80  1  0
 76 72  1  0
 76 80  1  0
 77 76  1  0
 78 79  1  0
 78 77  1  0
 79 75  1  0
 80 81  2  0
 81 82  1  0
 83 82  2  0
 84 83  1  0
 85 59  1  0
 85 86  1  0
 85 95  1  0
 86 89  1  0
 87 91  1  0
 87 86  1  0
 88 87  2  0
 91 90  1  0
 93 91  1  0
 93 94  1  0
 93 92  1  0
 95 98  1  1
 95 96  1  0
 97 95  1  0
M  ISO  4  11 100  19 100  57 101  58 101
M  END
>  <TORSDO>  (21) 
F 22

>  <SCORE>  (21) 
-12.334

>  <name>  (21) 
20

>  <ligand_id>  (21) 
20

>  <original_smiles>  (21) 
[H]c1c([H])c([H])c2c(c1[H])C([H])([H])C([H])([H])C([H])([H])C2([H])N([H])C(=O)C1([H])N(C(=O)C([H])(N([H])C(=O)C([H])(N([H])C([H])([H])[H])C([H])([H])[H])C(C([H])([H])[H])(C([H])([H])[H])C([H])([H])[H])C([H])([H])c2c([H])c(OC([H])([H])C(=O)C(C([H])([H])[H])(C([H])([H])[H])C([H])([H])C(F)(c3c([H])c(N([H])C(=O)N4C([H])([H])C([H])([H])C([H])([H])C([H])(n5nc(-c6c([H])c([H])c(Oc7c([H])c([H])c(F)c([H])c7F)c([H])c6[H])c(C(=O)N([H])[H])c5N([H])[H])C4([H])[H])c(C([H])([H])[H])c(C([H])([H])C([H])([H])[H])c3[H])C([H])([H])[H])c([H])c([H])c2C1([H])[H]

>  <smiles>  (21) 
[H]c1c([H])c([H])c2c(c1[H])C([H])([H])C([H])([H])C([H])([H])C2([H])N([H])C(=O)C1([H])N(C(=O)C([H])(N([H])C(=O)C([H])(N([H])C([H])([H])[H])C([H])([H])[H])C(C([H])([H])[H])(C([H])([H])[H])C([H])([H])[H])C([H])([H])c2c([H])c(OC([H])([H])C(=O)C(C([H])([H])[H])(C([H])([H])[H])C([H])([H])C(F)(c3c([H])c(N([H])C(=O)N4C([H])([H])C([H])([H])C([H])([H])C([H])(n5nc(-c6c([H])c([H])c(Oc7c([H])c([H])c(F)c([H])c7F)c([H])c6[H])c(C(=O)N([H])[H])c5N([H])[H])C4([H])[H])c(C([H])([H])[H])c(C([H])([H])C([H])([H])[H])c3[H])C([H])([H])[H])c([H])c([H])c2C1([H])[H]

$$$$
21:0:0
     RDKit          3D

 96105  0  0  1  0  0  0  0  0999 V2000
  -29.6740  -22.0820   19.5280 C   0  0  0  0  0  2  0  0  0  0  0  0
  -29.5130  -21.8630   22.0060 C   0  0  0  0  0  2  0  0  0  0  0  0
  -28.9800  -23.4800   19.5780 C   0  0  0  0  0  2  0  0  0  0  0  0
  -28.8200  -23.2460   22.0980 C   0  0  0  0  0  2  0  0  0  0  0  0
  -29.1830  -21.1620   20.6720 C   0  0  0  0  0  3  0  0  0  0  0  0
  -29.1360  -24.2260   20.9310 C   0  0  1  0  0  0  0  0  0  0  0  0
  -30.5710  -19.1100   21.4550 C   0  0  0  0  0  3  0  0  0  0  0  0
  -30.8180  -17.7120   21.5140 C   0  0  0  0  0  3  0  0  0  0  0  0
  -29.1640  -17.3670   19.7840 C   0  0  0  0  0  3  0  0  0  0  0  0
  -29.5920  -19.6620   20.5870 C   0  0  0  0  0  0  0  0  0  0  0  0
  -28.9240  -18.7620   19.7060 C   0  0  0  0  0  0  0  0  0  0  0  0
  -30.0880  -16.8190   20.6990 C   0  0  0  0  0  0  0  0  0  0  0  0
  -30.8040  -14.4680   20.1950 C   0  0  0  0  0  0  0  0  0  0  0  0
  -30.4630  -12.3580   18.9470 C   0  0  0  0  0  2  0  0  0  0  0  0
  -29.4560  -12.6180   17.8060 C   0  0  0  0  0  2  0  0  0  0  0  0
  -28.0030  -12.4760   18.3020 C   0  0  0  0  0  2  0  0  0  0  0  0
  -27.7400  -13.2520   19.6200 C   0  0  0  0  0  3  0  0  0  0  0  0
  -28.8450  -12.9420   20.6560 C   0  0  0  0  0  2  0  0  0  0  0  0
  -30.1460  -13.2810   20.0490 N   0  0  0  0  0  0  0  0  0  0  0  0
  -31.8970  -14.6990   19.6680 O   0  0  0  0  0  0  0  0  0  0  0  0
  -30.1150  -15.4010   20.8880 N   0  0  0  0  0  0  0  0  0  0  0  0
  -29.2640  -15.0170   21.2690 H   0  0  0  0  0  0  0  0  0  0  0  0
  -25.3770  -13.8660   20.4420 C   0  0  0  0  0  0  0  0  0  0  0  0
  -24.3210  -13.0950   20.8460 C   0  0  0  0  0  0  0  0  0  0  0  0
  -24.7700  -11.7400   20.7710 C   0  0  0  0  0  0  0  0  0  0  0  0
  -26.4060  -12.9810   20.1510 N   0  0  0  0  0  0  0  0  0  0  0  0
  -26.0440  -11.6980   20.4040 N   0  0  0  0  0  0  0  0  0  0  0  0
  -24.0430  -10.4810   20.9710 C   0  0  0  0  0  0  0  0  0  0  0  0
  -24.4870   -9.5120   21.8980 C   0  0  0  0  0  3  0  0  0  0  0  0
  -23.7620   -8.3160   22.0850 C   0  0  0  0  0  3  0  0  0  0  0  0
  -22.5780   -8.0800   21.3450 C   0  0  0  0  0  0  0  0  0  0  0  0
  -22.1530   -9.0380   20.4080 C   0  0  0  0  0  3  0  0  0  0  0  0
  -22.8790  -10.2250   20.2190 C   0  0  0  0  0  3  0  0  0  0  0  0
  -21.8250   -6.9350   21.4410 O   0  0  0  0  0  0  0  0  0  0  0  0
  -21.7560   -6.2140   22.6060 C   0  0  0  0  0  0  0  0  0  0  0  0
  -21.2820   -6.7840   23.8080 C   0  0  0  0  0  3  0  0  0  0  0  0
  -21.1620   -5.9870   24.9640 C   0  0  0  0  0  3  0  0  0  0  0  0
  -21.5070   -4.6230   24.9210 C   0  0  0  0  0  0  0  0  0  0  0  0
  -21.9760   -4.0530   23.7240 C   0  0  0  0  0  3  0  0  0  0  0  0
  -22.0980   -4.8470   22.5680 C   0  0  0  0  0  0  0  0  0  0  0  0
  -22.5290   -4.2880   21.4130 F   0  0  0  0  0  0  0  0  0  0  0  0
  -21.3850   -3.8560   26.0290 F   0  0  0  0  0  0  0  0  0  0  0  0
  -22.9410  -13.5780   21.1890 C   0  0  0  0  0  0  0  0  0  0  0  0
  -22.2460  -12.8710   22.0740 N   0  0  0  0  0  0  0  0  0  0  0  0
  -22.4890  -14.6160   20.7100 O   0  0  0  0  0  0  0  0  0  0  0  0
  -22.6240  -12.0300   22.4830 H   0  0  0  0  0  0  0  0  0  0  0  0
  -21.3220  -13.1770   22.3450 H   0  0  0  0  0  0  0  0  0  0  0  0
  -25.5430  -15.2370   20.2800 N   0  0  0  0  0  0  0  0  0  0  0  0
  -24.7790  -15.8900   20.4240 H   0  0  0  0  0  0  0  0  0  0  0  0
  -26.3690  -15.6740   19.8990 H   0  0  0  0  0  0  0  0  0  0  0  0
  -26.4560  -18.9580   19.1260 C   0  0  0  0  0  1  0  0  0  0  0  0
  -27.8980  -19.2350   18.6830 C   0  0  0  0  0  2  0  0  0  0  0  0
  -30.4870  -24.6160   21.0900 O   0  0  0  0  0  0  0  0  0  0  0  0
  -31.0150  -23.8280   21.0340 H   0  0  0  0  0  0  0  0  0  0  0  0
  -28.2380  -25.5060   21.0880 C   0  0  0  0  0  2  0  0  0  0  0  0
  -28.3050  -26.5210   20.0620 O   0  0  0  0  0  0  0  0  0  0  0  0
  -24.5440  -31.7630   23.1430 C   0  0  0  0  0  0  0  0  0  0  0  0
  -27.1820  -27.3260   20.0400 C   0  0  0  0  0  0  0  0  0  0  0  0
  -23.3430  -30.3890   21.4730 C   0  0  0  0  0  3  0  0  0  0  0  0
  -24.8010  -28.8570   20.0420 C   0  0  0  0  0  0  0  0  0  0  0  0
  -25.8740  -30.7300   21.3020 C   0  0  0  0  0  2  0  0  0  0  0  0
  -25.9590  -29.3640   20.6470 C   0  0  0  0  0  0  0  0  0  0  0  0
  -27.1560  -28.6060   20.6440 C   0  0  0  0  0  3  0  0  0  0  0  0
  -26.0130  -26.8390   19.4200 C   0  0  0  0  0  3  0  0  0  0  0  0
  -24.8240  -27.5940   19.4230 C   0  0  0  0  0  3  0  0  0  0  0  0
  -23.5610  -29.7230   20.0870 C   0  0  0  0  0  2  0  0  0  0  0  0
  -24.6050  -30.9750   22.0310 N   0  0  0  0  0  0  0  0  0  0  0  0
  -23.4610  -32.0380   23.6760 O   0  0  0  0  0  0  0  0  0  0  0  0
  -22.6740  -29.3640   22.4160 C   0  0  0  0  0  0  0  0  0  0  0  0
  -21.3470  -29.2020   22.2840 N   0  0  0  0  0  0  0  0  0  0  0  0
  -23.3480  -28.7180   23.2230 O   0  0  0  0  0  0  0  0  0  0  0  0
  -20.8660  -29.7770   21.6070 H   0  0  0  0  0  0  0  0  0  0  0  0
  -17.9530  -28.0630   22.7730 C   0  0  0  0  0  0  0  0  0  0  0  0
  -20.5160  -28.2630   23.0370 C   0  0  0  0  0  3  0  0  0  0  0  0
  -20.5870  -26.8430   22.4280 C   0  0  0  0  0  2  0  0  0  0  0  0
  -19.4730  -26.5660   21.4120 C   0  0  0  0  0  2  0  0  0  0  0  0
  -18.0980  -26.7240   22.0670 C   0  0  0  0  0  2  0  0  0  0  0  0
  -19.0880  -28.7910   23.2140 C   0  0  0  0  0  0  0  0  0  0  0  0
  -18.8980  -30.0460   23.8340 C   0  0  0  0  0  3  0  0  0  0  0  0
  -17.6050  -30.5700   24.0170 C   0  0  0  0  0  3  0  0  0  0  0  0
  -16.4830  -29.8360   23.5910 C   0  0  0  0  0  3  0  0  0  0  0  0
  -16.6580  -28.5850   22.9760 C   0  0  0  0  0  3  0  0  0  0  0  0
  -25.8300  -32.3770   23.7800 C   0  0  0  0  0  3  0  0  0  0  0  0
  -26.3350  -31.5830   25.0470 C   0  0  1  0  0  0  0  0  0  0  0  0
  -25.2360  -31.3330   26.1050 C   0  0  0  0  0  1  0  0  0  0  0  0
  -26.9140  -30.2080   24.6340 C   0  0  0  0  0  1  0  0  0  0  0  0
  -27.4860  -32.3610   25.7280 C   0  0  0  0  0  1  0  0  0  0  0  0
  -25.5300  -33.7720   24.1270 N   0  0  0  0  0  0  0  0  0  0  0  0
  -25.8810  -34.8320   23.3870 C   0  0  0  0  0  0  0  0  0  0  0  0
  -26.5610  -34.7370   22.3620 O   0  0  0  0  0  0  0  0  0  0  0  0
  -24.9280  -33.9200   24.9260 H   0  0  0  0  0  0  0  0  0  0  0  0
  -24.1760  -36.6460   23.0310 C   0  0  0  0  0  1  0  0  0  0  0  0
  -25.3990  -36.2180   23.8580 C   0  0  0  0  0  3  0  0  0  0  0  0
  -27.5220  -37.0740   24.7440 C   0  0  0  0  0  1  0  0  0  0  0  0
  -26.4420  -37.2620   23.7790 N   0  0  0  0  0  0  0  0  0  0  0  0
  -26.0420  -38.1850   23.9270 H   0  0  0  0  0  0  0  0  0  0  0  0
  1  3  1  0
  1  5  1  0
  2  4  1  0
  3  6  1  0
  5 10  1  0
  5  2  1  0
  6 55  1  6
  6 53  1  0
  6  4  1  0
  7  8  1  0
  9 12  1  0
 10  7  2  0
 11  9  2  0
 11 10  1  0
 12 21  1  0
 12  8  2  0
 13 21  1  0
 14 19  1  0
 15 16  1  0
 15 14  1  0
 17 16  1  0
 17 26  1  0
 17 18  1  0
 19 13  1  0
 19 18  1  0
 20 13  2  0
 21 22  1  0
 23 24  2  0
 24 43  1  0
 25 24  1  0
 25 28  1  0
 26 27  1  0
 26 23  1  0
 27 25  2  0
 28 29  1  0
 29 30  2  0
 31 34  1  0
 31 30  1  0
 32 31  2  0
 33 32  1  0
 33 28  2  0
 34 35  1  0
 35 36  1  0
 36 37  2  0
 38 37  1  0
 38 42  1  0
 39 38  2  0
 40 35  2  0
 40 39  1  0
 41 40  1  0
 43 44  1  0
 44 47  1  0
 44 46  1  0
 45 43  2  0
 48 49  1  0
 48 23  1  0
 50 48  1  0
 52 51  1  0
 52 11  1  0
 54 53  1  0
 56 55  1  0
 57 68  2  0
 58 56  1  0
 58 63  1  0
 59 67  1  0
 59 69  1  0
 60 66  1  0
 60 62  1  0
 61 67  1  0
 62 61  1  0
 63 62  2  0
 64 65  1  0
 64 58  2  0
 65 60  2  0
 66 59  1  0
 67 57  1  0
 69 71  2  0
 70 69  1  0
 72 70  1  0
 73 82  2  0
 73 78  1  0
 74 70  1  0
 74 78  1  0
 75 74  1  0
 76 77  1  0
 76 75  1  0
 77 73  1  0
 78 79  2  0
 79 80  1  0
 81 80  2  0
 82 81  1  0
 83 57  1  0
 83 88  1  0
 83 84  1  0
 84 87  1  1
 84 85  1  0
 86 84  1  0
 88 91  1  0
 89 93  1  0
 89 88  1  0
 90 89  2  0
 93 92  1  0
 95 93  1  0
 95 96  1  0
 95 94  1  0
M  ISO  4  13 100  21 100  55 101  56 101
M  END
>  <TORSDO>  (22) 
F 20

>  <SCORE>  (22) 
-14.200

>  <name>  (22) 
21

>  <ligand_id>  (22) 
21

>  <original_smiles>  (22) 
[H]OC1(C([H])([H])Oc2c([H])c([H])c3c(c2[H])C([H])([H])N(C(=O)C([H])(N([H])C(=O)C([H])(N([H])C([H])([H])[H])C([H])([H])[H])C(C([H])([H])[H])(C([H])([H])[H])C([H])([H])[H])C([H])(C(=O)N([H])C2([H])c4c([H])c([H])c([H])c([H])c4C([H])([H])C([H])([H])C2([H])[H])C3([H])[H])C([H])([H])C([H])([H])C([H])(c2c([H])c([H])c(N([H])C(=O)N3C([H])([H])C([H])([H])C([H])([H])C([H])(n4nc(-c5c([H])c([H])c(Oc6c([H])c([H])c(F)c([H])c6F)c([H])c5[H])c(C(=O)N([H])[H])c4N([H])[H])C3([H])[H])c([H])c2C([H])([H])C([H])([H])[H])C([H])([H])C1([H])[H]

>  <smiles>  (22) 
[H]OC1(C([H])([H])Oc2c([H])c([H])c3c(c2[H])C([H])([H])N(C(=O)C([H])(N([H])C(=O)C([H])(N([H])C([H])([H])[H])C([H])([H])[H])C(C([H])([H])[H])(C([H])([H])[H])C([H])([H])[H])C([H])(C(=O)N([H])C2([H])c4c([H])c([H])c([H])c([H])c4C([H])([H])C([H])([H])C2([H])[H])C3([H])[H])C([H])([H])C([H])([H])C([H])(c2c([H])c([H])c(N([H])C(=O)N3C([H])([H])C([H])([H])C([H])([H])C([H])(n4nc(-c5c([H])c([H])c(Oc6c([H])c([H])c(F)c([H])c6F)c([H])c5[H])c(C(=O)N([H])[H])c4N([H])[H])C3([H])[H])c([H])c2C([H])([H])C([H])([H])[H])C([H])([H])C1([H])[H]

$$$$
22:0:0
     RDKit          3D

 99107  0  0  1  0  0  0  0  0999 V2000
  -32.3650  -22.5720   18.0840 C   0  0  0  0  0  1  0  0  0  0  0  0
  -32.4820  -22.5460   20.5690 C   0  0  0  0  0  1  0  0  0  0  0  0
  -31.5090  -22.7200   19.3740 C   0  0  1  0  0  0  0  0  0  0  0  0
  -30.8760  -24.1520   19.3960 C   0  0  0  0  0  0  0  0  0  0  0  0
  -30.8010  -24.8180   18.3580 O   0  0  0  0  0  0  0  0  0  0  0  0
  -30.3150  -24.7130   20.7280 C   0  0  0  0  0  2  0  0  0  0  0  0
  -30.0950  -26.5150   22.5140 C   0  0  0  0  0  1  0  0  0  0  0  0
  -32.0430  -26.5560   20.9490 C   0  0  0  0  0  1  0  0  0  0  0  0
  -30.5350  -26.2260   21.0540 C   0  0  1  0  0  0  0  0  0  0  0  0
  -29.7110  -27.1540   20.1210 C   0  0  0  0  0  2  0  0  0  0  0  0
  -28.3760  -26.6550   20.0160 O   0  0  0  0  0  0  0  0  0  0  0  0
  -24.6100  -31.8680   23.2110 C   0  0  0  0  0  0  0  0  0  0  0  0
  -27.2680  -27.4730   20.0870 C   0  0  0  0  0  0  0  0  0  0  0  0
  -23.4010  -30.4840   21.5540 C   0  0  0  0  0  3  0  0  0  0  0  0
  -24.8550  -28.9510   20.1250 C   0  0  0  0  0  0  0  0  0  0  0  0
  -25.9220  -30.8500   21.3480 C   0  0  0  0  0  2  0  0  0  0  0  0
  -26.0130  -29.4790   20.7130 C   0  0  0  0  0  0  0  0  0  0  0  0
  -27.2210  -28.7470   20.7030 C   0  0  0  0  0  3  0  0  0  0  0  0
  -26.0870  -26.9480   19.5220 C   0  0  0  0  0  3  0  0  0  0  0  0
  -24.8830  -27.6770   19.5320 C   0  0  0  0  0  3  0  0  0  0  0  0
  -23.6110  -29.8080   20.1720 C   0  0  0  0  0  2  0  0  0  0  0  0
  -24.6650  -31.0780   22.1010 N   0  0  0  0  0  0  0  0  0  0  0  0
  -23.5290  -32.1400   23.7510 O   0  0  0  0  0  0  0  0  0  0  0  0
  -22.7410  -29.4620   22.5040 C   0  0  0  0  0  0  0  0  0  0  0  0
  -21.4120  -29.3010   22.3800 N   0  0  0  0  0  0  0  0  0  0  0  0
  -23.4190  -28.8130   23.3060 O   0  0  0  0  0  0  0  0  0  0  0  0
  -20.9270  -29.8780   21.7060 H   0  0  0  0  0  0  0  0  0  0  0  0
  -18.0250  -28.1370   22.8490 C   0  0  0  0  0  0  0  0  0  0  0  0
  -20.5840  -28.3630   23.1360 C   0  0  0  0  0  3  0  0  0  0  0  0
  -20.6740  -26.9380   22.5430 C   0  0  0  0  0  2  0  0  0  0  0  0
  -19.5730  -26.6390   21.5210 C   0  0  0  0  0  2  0  0  0  0  0  0
  -18.1910  -26.7920   22.1620 C   0  0  0  0  0  2  0  0  0  0  0  0
  -19.1500  -28.8820   23.2930 C   0  0  0  0  0  0  0  0  0  0  0  0
  -18.9430  -30.1420   23.8940 C   0  0  0  0  0  3  0  0  0  0  0  0
  -17.6440  -30.6580   24.0570 C   0  0  0  0  0  3  0  0  0  0  0  0
  -16.5330  -29.9090   23.6320 C   0  0  0  0  0  3  0  0  0  0  0  0
  -16.7250  -28.6500   23.0350 C   0  0  0  0  0  3  0  0  0  0  0  0
  -25.8980  -32.4870   23.8410 C   0  0  0  0  0  3  0  0  0  0  0  0
  -25.5830  -33.8660   24.2360 N   0  0  0  0  0  0  0  0  0  0  0  0
  -25.9020  -34.9510   23.5160 C   0  0  0  0  0  0  0  0  0  0  0  0
  -26.5600  -34.8950   22.4740 O   0  0  0  0  0  0  0  0  0  0  0  0
  -24.9970  -33.9840   25.0490 H   0  0  0  0  0  0  0  0  0  0  0  0
  -24.1470  -36.7320   23.2640 C   0  0  0  0  0  1  0  0  0  0  0  0
  -25.4100  -36.3150   24.0340 C   0  0  0  0  0  3  0  0  0  0  0  0
  -27.5590  -37.1820   24.8480 C   0  0  0  0  0  1  0  0  0  0  0  0
  -26.4310  -37.3830   23.9410 N   0  0  0  0  0  0  0  0  0  0  0  0
  -26.0210  -38.2910   24.1420 H   0  0  0  0  0  0  0  0  0  0  0  0
  -26.4440  -31.6620   25.0700 C   0  0  1  0  0  0  0  0  0  0  0  0
  -25.3720  -31.3640   26.1450 C   0  0  0  0  0  1  0  0  0  0  0  0
  -27.0230  -30.3110   24.5920 C   0  0  0  0  0  1  0  0  0  0  0  0
  -27.6040  -32.4290   25.7460 C   0  0  0  0  0  1  0  0  0  0  0  0
  -30.4250  -21.5850   19.3650 C   0  0  0  0  0  3  0  0  0  0  0  0
  -29.5920  -21.4530   20.6610 C   0  0  0  0  0  3  0  0  0  0  0  0
  -27.4840  -20.8920   21.8110 C   0  0  0  0  0  1  0  0  0  0  0  0
  -28.4590  -20.3930   20.7220 C   0  0  0  0  0  3  0  0  0  0  0  0
  -28.9450  -18.9510   21.1070 C   0  0  0  0  0  2  0  0  0  0  0  0
  -30.7770  -14.4070   20.4780 C   0  0  0  0  0  0  0  0  0  0  0  0
  -30.4420  -12.2680   19.3690 C   0  0  0  0  0  2  0  0  0  0  0  0
  -29.4680  -12.3330   18.1750 C   0  0  0  0  0  2  0  0  0  0  0  0
  -27.9940  -12.3180   18.6370 C   0  0  0  0  0  2  0  0  0  0  0  0
  -27.6750  -13.2010   19.8750 C   0  0  0  0  0  3  0  0  0  0  0  0
  -28.7460  -12.9940   20.9650 C   0  0  0  0  0  2  0  0  0  0  0  0
  -30.0470  -13.2770   20.3540 N   0  0  0  0  0  0  0  0  0  0  0  0
  -32.0080  -14.3990   20.5040 O   0  0  0  0  0  0  0  0  0  0  0  0
  -29.0580  -17.1310   17.6060 C   0  0  0  0  0  3  0  0  0  0  0  0
  -28.8990  -18.0420   18.7310 C   0  0  0  0  0  3  0  0  0  0  0  0
  -29.9780  -16.1700   17.5050 C   0  0  0  0  0  3  0  0  0  0  0  0
  -29.2440  -17.8800   20.0340 C   0  0  0  0  0  0  0  0  0  0  0  0
  -30.9350  -15.7970   18.5960 C   0  0  0  0  0  2  0  0  0  0  0  0
  -29.8860  -16.6300   20.6860 C   0  0  0  0  0  2  0  0  0  0  0  0
  -30.2240  -15.4640   19.8470 N   0  0  0  0  0  0  0  0  0  0  0  0
  -25.2770  -13.8230   20.5900 C   0  0  0  0  0  0  0  0  0  0  0  0
  -24.1940  -13.0500   20.9250 C   0  0  0  0  0  0  0  0  0  0  0  0
  -24.6460  -11.7000   20.8850 C   0  0  0  0  0  0  0  0  0  0  0  0
  -26.3210  -12.9360   20.3630 N   0  0  0  0  0  0  0  0  0  0  0  0
  -25.9400  -11.6520   20.6010 N   0  0  0  0  0  0  0  0  0  0  0  0
  -23.9050  -10.4430   21.0580 C   0  0  0  0  0  0  0  0  0  0  0  0
  -24.3580   -9.4360   21.9370 C   0  0  0  0  0  3  0  0  0  0  0  0
  -23.6320   -8.2340   22.0890 C   0  0  0  0  0  3  0  0  0  0  0  0
  -22.4340   -8.0350   21.3640 C   0  0  0  0  0  0  0  0  0  0  0  0
  -21.9980   -9.0360   20.4750 C   0  0  0  0  0  3  0  0  0  0  0  0
  -22.7240  -10.2280   20.3220 C   0  0  0  0  0  3  0  0  0  0  0  0
  -21.6760   -6.8890   21.4200 O   0  0  0  0  0  0  0  0  0  0  0  0
  -21.6930   -6.0720   22.5240 C   0  0  0  0  0  0  0  0  0  0  0  0
  -21.4070   -6.5630   23.8150 C   0  0  0  0  0  3  0  0  0  0  0  0
  -21.3680   -5.6810   24.9130 C   0  0  0  0  0  3  0  0  0  0  0  0
  -21.6050   -4.3080   24.7210 C   0  0  0  0  0  0  0  0  0  0  0  0
  -21.8870   -3.8150   23.4330 C   0  0  0  0  0  3  0  0  0  0  0  0
  -21.9260   -4.6960   22.3380 C   0  0  0  0  0  0  0  0  0  0  0  0
  -22.1760   -4.2130   21.0970 F   0  0  0  0  0  0  0  0  0  0  0  0
  -21.5570   -3.4550   25.7700 F   0  0  0  0  0  0  0  0  0  0  0  0
  -22.7950  -13.5380   21.1750 C   0  0  0  0  0  0  0  0  0  0  0  0
  -22.0500  -12.8440   22.0320 N   0  0  0  0  0  0  0  0  0  0  0  0
  -22.3590  -14.5570   20.6420 O   0  0  0  0  0  0  0  0  0  0  0  0
  -22.4250  -12.0380   22.5080 H   0  0  0  0  0  0  0  0  0  0  0  0
  -21.1160  -13.1550   22.2560 H   0  0  0  0  0  0  0  0  0  0  0  0
  -25.4320  -15.1950   20.4570 N   0  0  0  0  0  0  0  0  0  0  0  0
  -24.6660  -15.8290   20.6540 H   0  0  0  0  0  0  0  0  0  0  0  0
  -26.2810  -15.6740   20.1770 H   0  0  0  0  0  0  0  0  0  0  0  0
  3  1  1  6
  3  4  1  0
  3  2  1  0
  4  6  1  0
  5  4  2  0
  6  9  1  0
  9  8  1  1
  9  7  1  0
 10  9  1  0
 11 13  1  0
 11 10  1  0
 12 23  2  0
 13 18  1  0
 14 22  1  0
 14 24  1  0
 15 21  1  0
 15 17  1  0
 16 22  1  0
 17 16  1  0
 18 17  2  0
 19 20  1  0
 19 13  2  0
 20 15  2  0
 21 14  1  0
 22 12  1  0
 24 26  2  0
 25 24  1  0
 27 25  1  0
 28 37  2  0
 28 33  1  0
 29 25  1  0
 29 33  1  0
 30 29  1  0
 31 32  1  0
 31 30  1  0
 32 28  1  0
 33 34  2  0
 34 35  1  0
 36 35  2  0
 37 36  1  0
 38 12  1  0
 38 39  1  0
 38 48  1  0
 39 42  1  0
 40 44  1  0
 40 39  1  0
 41 40  2  0
 44 43  1  0
 46 44  1  0
 46 47  1  0
 46 45  1  0
 48 51  1  1
 48 49  1  0
 50 48  1  0
 52  3  1  0
 52 53  2  0
 53 55  1  0
 55 56  1  0
 55 54  1  0
 57 64  2  0
 58 63  1  0
 59 60  1  0
 59 58  1  0
 61 60  1  0
 61 75  1  0
 61 62  1  0
 63 57  1  0
 63 62  1  0
 65 66  1  0
 66 68  2  0
 67 65  2  0
 67 69  1  0
 68 70  1  0
 68 56  1  0
 69 71  1  0
 71 57  1  0
 71 70  1  0
 72 73  2  0
 73 92  1  0
 74 73  1  0
 74 77  1  0
 75 72  1  0
 75 76  1  0
 76 74  2  0
 77 78  1  0
 78 79  2  0
 80 83  1  0
 80 79  1  0
 81 80  2  0
 82 81  1  0
 82 77  2  0
 83 84  1  0
 84 85  1  0
 85 86  2  0
 87 86  1  0
 87 91  1  0
 88 87  2  0
 89 84  2  0
 89 88  1  0
 90 89  1  0
 92 93  1  0
 93 96  1  0
 93 95  1  0
 94 92  2  0
 97 72  1  0
 97 98  1  0
 99 97  1  0
M  ISO  4  10 101  11 101  57 100  71 100
M  END
>  <TORSDO>  (23) 
F 24

>  <SCORE>  (23) 
-8.534

>  <name>  (23) 
22

>  <ligand_id>  (23) 
22

>  <original_smiles>  (23) 
[H]C1=C([H])C([H])([H])N(C(=O)N2C([H])([H])C([H])([H])C([H])([H])C([H])(n3nc(-c4c([H])c([H])c(Oc5c([H])c([H])c(F)c([H])c5F)c([H])c4[H])c(C(=O)N([H])[H])c3N([H])[H])C2([H])[H])C([H])([H])C(C([H])([H])C([H])(C([H])([H])[H])C([H])([H])C([H])([H])C(C(=O)C([H])([H])C(C([H])([H])[H])(C([H])([H])[H])C([H])([H])Oc2c([H])c([H])c3c(c2[H])C([H])([H])N(C(=O)C([H])(N([H])C(=O)C([H])(N([H])C([H])([H])[H])C([H])([H])[H])C(C([H])([H])[H])(C([H])([H])[H])C([H])([H])[H])C([H])(C(=O)N([H])C2([H])c4c([H])c([H])c([H])c([H])c4C([H])([H])C([H])([H])C2([H])[H])C3([H])[H])(C([H])([H])[H])C([H])([H])[H])=C1[H]

>  <smiles>  (23) 
[H]C1=C([H])C([H])([H])N(C(=O)N2C([H])([H])C([H])([H])C([H])([H])C([H])(n3nc(-c4c([H])c([H])c(Oc5c([H])c([H])c(F)c([H])c5F)c([H])c4[H])c(C(=O)N([H])[H])c3N([H])[H])C2([H])[H])C([H])([H])C(C([H])([H])C([H])(C([H])([H])[H])C([H])([H])C([H])([H])C(C(=O)C([H])([H])C(C([H])([H])[H])(C([H])([H])[H])C([H])([H])Oc2c([H])c([H])c3c(c2[H])C([H])([H])N(C(=O)C([H])(N([H])C(=O)C([H])(N([H])C([H])([H])[H])C([H])([H])[H])C(C([H])([H])[H])(C([H])([H])[H])C([H])([H])[H])C([H])(C(=O)N([H])C2([H])c4c([H])c([H])c([H])c([H])c4C([H])([H])C([H])([H])C2([H])[H])C3([H])[H])(C([H])([H])[H])C([H])([H])[H])=C1[H]

$$$$
23:0:0
     RDKit          3D

 93101  0  0  1  0  0  0  0  0999 V2000
  -29.1210  -22.2840   22.2610 C   0  0  0  0  0  1  0  0  0  0  0  0
  -27.4220  -21.7800   20.5420 C   0  0  0  0  0  1  0  0  0  0  0  0
  -28.9480  -21.8860   20.7780 C   0  0  2  0  0  0  0  0  0  0  0  0
  -29.2220  -19.2050   21.1260 C   0  0  0  0  0  3  0  0  0  0  0  0
  -30.7400  -20.1770   19.8630 C   0  0  0  0  0  3  0  0  0  0  0  0
  -29.6060  -20.4810   20.5760 C   0  0  0  0  0  0  0  0  0  0  0  0
  -30.2040  -18.2770   20.8440 C   0  0  0  0  0  0  0  0  0  0  0  0
  -31.1140  -18.8660   20.0240 O   0  0  0  0  0  0  0  0  0  0  0  0
  -30.6230  -16.9340   21.4380 C   0  0  0  0  0  2  0  0  0  0  0  0
  -30.8180  -14.6580   20.3170 C   0  0  0  0  0  0  0  0  0  0  0  0
  -30.5680  -12.4730   19.1550 C   0  0  0  0  0  2  0  0  0  0  0  0
  -29.6030  -12.6310   17.9620 C   0  0  0  0  0  2  0  0  0  0  0  0
  -28.1370  -12.4800   18.4100 C   0  0  0  0  0  2  0  0  0  0  0  0
  -27.8070  -13.3280   19.6650 C   0  0  0  0  0  3  0  0  0  0  0  0
  -28.8670  -13.1190   20.7640 C   0  0  0  0  0  2  0  0  0  0  0  0
  -30.1770  -13.4590   20.1800 N   0  0  0  0  0  0  0  0  0  0  0  0
  -31.9600  -14.8480   19.8750 O   0  0  0  0  0  0  0  0  0  0  0  0
  -30.1020  -15.6590   20.8860 N   0  0  0  0  0  0  0  0  0  0  0  0
  -29.1560  -15.4190   21.1500 H   0  0  0  0  0  0  0  0  0  0  0  0
  -25.4200  -13.9540   20.3810 C   0  0  0  0  0  0  0  0  0  0  0  0
  -24.3490  -13.1860   20.7600 C   0  0  0  0  0  0  0  0  0  0  0  0
  -24.8040  -11.8360   20.7360 C   0  0  0  0  0  0  0  0  0  0  0  0
  -26.4590  -13.0680   20.1540 N   0  0  0  0  0  0  0  0  0  0  0  0
  -26.0940  -11.7870   20.4270 N   0  0  0  0  0  0  0  0  0  0  0  0
  -24.0810  -10.5710   20.9360 C   0  0  0  0  0  0  0  0  0  0  0  0
  -24.5040   -9.6220   21.8900 C   0  0  0  0  0  3  0  0  0  0  0  0
  -23.7780   -8.4280   22.0840 C   0  0  0  0  0  3  0  0  0  0  0  0
  -22.6160   -8.1730   21.3190 C   0  0  0  0  0  0  0  0  0  0  0  0
  -22.2090   -9.1140   20.3590 C   0  0  0  0  0  3  0  0  0  0  0  0
  -22.9350  -10.3020   20.1650 C   0  0  0  0  0  3  0  0  0  0  0  0
  -21.8680   -7.0280   21.4140 O   0  0  0  0  0  0  0  0  0  0  0  0
  -21.7920   -6.3120   22.5820 C   0  0  0  0  0  0  0  0  0  0  0  0
  -21.3370   -6.8970   23.7830 C   0  0  0  0  0  3  0  0  0  0  0  0
  -21.2150   -6.1110   24.9450 C   0  0  0  0  0  3  0  0  0  0  0  0
  -21.5300   -4.7380   24.9040 C   0  0  0  0  0  0  0  0  0  0  0  0
  -21.9770   -4.1540   23.7050 C   0  0  0  0  0  3  0  0  0  0  0  0
  -22.1010   -4.9380   22.5450 C   0  0  0  0  0  0  0  0  0  0  0  0
  -22.5120   -4.3680   21.3880 F   0  0  0  0  0  0  0  0  0  0  0  0
  -21.4000   -3.9790   26.0160 F   0  0  0  0  0  0  0  0  0  0  0  0
  -22.9530  -13.6670   21.0320 C   0  0  0  0  0  0  0  0  0  0  0  0
  -22.2380  -12.9800   21.9150 N   0  0  0  0  0  0  0  0  0  0  0  0
  -22.5140  -14.6890   20.5070 O   0  0  0  0  0  0  0  0  0  0  0  0
  -22.6090  -12.1540   22.3630 H   0  0  0  0  0  0  0  0  0  0  0  0
  -21.2970  -13.2730   22.1390 H   0  0  0  0  0  0  0  0  0  0  0  0
  -25.5850  -15.3220   20.1850 N   0  0  0  0  0  0  0  0  0  0  0  0
  -24.8220  -15.9720   20.3150 H   0  0  0  0  0  0  0  0  0  0  0  0
  -26.4270  -15.7670   19.8460 H   0  0  0  0  0  0  0  0  0  0  0  0
  -29.2300  -22.7950   18.3520 C   0  0  0  0  0  1  0  0  0  0  0  0
  -29.6170  -22.9780   19.8350 C   0  0  0  0  0  3  0  0  0  0  0  0
  -29.5830  -24.4930   20.2370 C   0  0  0  0  0  0  0  0  0  0  0  0
  -30.6440  -25.0960   20.4420 O   0  0  0  0  0  0  0  0  0  0  0  0
  -28.2540  -25.2690   20.3120 C   0  0  0  0  0  2  0  0  0  0  0  0
  -28.4600  -26.7040   20.2070 O   0  0  0  0  0  0  0  0  0  0  0  0
  -24.6370  -31.9210   23.2380 C   0  0  0  0  0  0  0  0  0  0  0  0
  -27.3140  -27.4770   20.1670 C   0  0  0  0  0  0  0  0  0  0  0  0
  -23.4490  -30.5120   21.5930 C   0  0  0  0  0  3  0  0  0  0  0  0
  -24.9220  -28.9990   20.1700 C   0  0  0  0  0  0  0  0  0  0  0  0
  -25.9820  -30.8880   21.4140 C   0  0  0  0  0  2  0  0  0  0  0  0
  -26.0790  -29.5190   20.7630 C   0  0  0  0  0  0  0  0  0  0  0  0
  -27.2830  -28.7690   20.7530 C   0  0  0  0  0  3  0  0  0  0  0  0
  -26.1370  -26.9920   19.5490 C   0  0  0  0  0  3  0  0  0  0  0  0
  -24.9480  -27.7380   19.5570 C   0  0  0  0  0  3  0  0  0  0  0  0
  -23.6740  -29.8480   20.2100 C   0  0  0  0  0  2  0  0  0  0  0  0
  -24.7090  -31.1150   22.1410 N   0  0  0  0  0  0  0  0  0  0  0  0
  -23.5500  -32.1830   23.7710 O   0  0  0  0  0  0  0  0  0  0  0  0
  -22.8110  -29.4740   22.5440 C   0  0  0  0  0  0  0  0  0  0  0  0
  -21.4870  -29.2740   22.4140 N   0  0  0  0  0  0  0  0  0  0  0  0
  -23.4990  -28.8510   23.3550 O   0  0  0  0  0  0  0  0  0  0  0  0
  -20.9880  -29.8350   21.7390 H   0  0  0  0  0  0  0  0  0  0  0  0
  -18.1260  -28.0470   22.8870 C   0  0  0  0  0  0  0  0  0  0  0  0
  -20.6770  -28.3260   23.1760 C   0  0  0  0  0  3  0  0  0  0  0  0
  -20.7940  -26.8970   22.6040 C   0  0  0  0  0  2  0  0  0  0  0  0
  -19.7090  -26.5740   21.5740 C   0  0  0  0  0  2  0  0  0  0  0  0
  -18.3200  -26.7030   22.2040 C   0  0  0  0  0  2  0  0  0  0  0  0
  -19.2350  -28.8160   23.3290 C   0  0  0  0  0  0  0  0  0  0  0  0
  -19.0020  -30.0800   23.9190 C   0  0  0  0  0  3  0  0  0  0  0  0
  -17.6950  -30.5670   24.0830 C   0  0  0  0  0  3  0  0  0  0  0  0
  -16.5970  -29.7940   23.6610 C   0  0  0  0  0  3  0  0  0  0  0  0
  -16.8140  -28.5360   23.0660 C   0  0  0  0  0  3  0  0  0  0  0  0
  -25.9140  -32.5610   23.8610 C   0  0  0  0  0  3  0  0  0  0  0  0
  -25.5920  -33.9590   24.1810 N   0  0  0  0  0  0  0  0  0  0  0  0
  -25.9220  -35.0080   23.4160 C   0  0  0  0  0  0  0  0  0  0  0  0
  -26.5960  -34.9040   22.3870 O   0  0  0  0  0  0  0  0  0  0  0  0
  -24.9830  -34.1130   24.9710 H   0  0  0  0  0  0  0  0  0  0  0  0
  -24.1810  -36.7840   23.0330 C   0  0  0  0  0  1  0  0  0  0  0  0
  -25.4180  -36.3930   23.8590 C   0  0  0  0  0  3  0  0  0  0  0  0
  -27.5350  -37.3060   24.7030 C   0  0  0  0  0  1  0  0  0  0  0  0
  -26.4430  -37.4560   23.7470 N   0  0  0  0  0  0  0  0  0  0  0  0
  -26.0250  -38.3740   23.8820 H   0  0  0  0  0  0  0  0  0  0  0  0
  -26.4320  -31.7980   25.1420 C   0  0  1  0  0  0  0  0  0  0  0  0
  -25.3330  -31.5580   26.2010 C   0  0  0  0  0  1  0  0  0  0  0  0
  -27.0340  -30.4270   24.7600 C   0  0  0  0  0  1  0  0  0  0  0  0
  -27.5660  -32.6100   25.8070 C   0  0  0  0  0  1  0  0  0  0  0  0
  3  2  1  6
  3  1  1  0
  5  8  1  0
  5  6  2  0
  6  3  1  0
  6  4  1  0
  7  4  2  0
  7  9  1  0
  8  7  1  0
 10 18  1  0
 11 16  1  0
 12 13  1  0
 12 11  1  0
 14 13  1  0
 14 23  1  0
 14 15  1  0
 16 10  1  0
 16 15  1  0
 17 10  2  0
 18 19  1  0
 18  9  1  0
 20 21  2  0
 21 40  1  0
 22 21  1  0
 22 25  1  0
 23 20  1  0
 23 24  1  0
 24 22  2  0
 25 26  1  0
 26 27  2  0
 28 31  1  0
 28 27  1  0
 29 28  2  0
 30 29  1  0
 30 25  2  0
 31 32  1  0
 32 33  1  0
 33 34  2  0
 35 34  1  0
 35 39  1  0
 36 35  2  0
 37 32  2  0
 37 36  1  0
 38 37  1  0
 40 41  1  0
 41 44  1  0
 41 43  1  0
 42 40  2  0
 45 46  1  0
 45 20  1  0
 47 45  1  0
 49 48  1  0
 49 50  1  0
 49  3  1  0
 50 52  1  0
 50 51  2  0
 53 52  1  0
 54 65  2  0
 55 53  1  0
 55 60  1  0
 56 64  1  0
 56 66  1  0
 57 63  1  0
 57 59  1  0
 58 64  1  0
 59 58  1  0
 60 59  2  0
 61 62  1  0
 61 55  2  0
 62 57  2  0
 63 56  1  0
 64 54  1  0
 66 68  2  0
 67 66  1  0
 69 67  1  0
 70 79  2  0
 70 75  1  0
 71 67  1  0
 71 75  1  0
 72 71  1  0
 73 74  1  0
 73 72  1  0
 74 70  1  0
 75 76  2  0
 76 77  1  0
 78 77  2  0
 79 78  1  0
 80 54  1  0
 80 81  1  0
 80 90  1  0
 81 84  1  0
 82 86  1  0
 82 81  1  0
 83 82  2  0
 86 85  1  0
 88 86  1  0
 88 89  1  0
 88 87  1  0
 90 93  1  1
 90 91  1  0
 92 90  1  0
M  ISO  4  10 100  18 100  52 101  53 101
M  END
>  <TORSDO>  (24) 
F 21

>  <SCORE>  (24) 
-13.355

>  <name>  (24) 
23

>  <ligand_id>  (24) 
23

>  <original_smiles>  (24) 
[H]c1oc(C([H])([H])N([H])C(=O)N2C([H])([H])C([H])([H])C([H])([H])C([H])(n3nc(-c4c([H])c([H])c(Oc5c([H])c([H])c(F)c([H])c5F)c([H])c4[H])c(C(=O)N([H])[H])c3N([H])[H])C2([H])[H])c([H])c1C(C([H])([H])[H])(C([H])([H])[H])C([H])(C(=O)C([H])([H])Oc1c([H])c([H])c2c(c1[H])C([H])([H])N(C(=O)C([H])(N([H])C(=O)C([H])(N([H])C([H])([H])[H])C([H])([H])[H])C(C([H])([H])[H])(C([H])([H])[H])C([H])([H])[H])C([H])(C(=O)N([H])C1([H])c3c([H])c([H])c([H])c([H])c3C([H])([H])C([H])([H])C1([H])[H])C2([H])[H])C([H])([H])[H]

>  <smiles>  (24) 
[H]c1oc(C([H])([H])N([H])C(=O)N2C([H])([H])C([H])([H])C([H])([H])C([H])(n3nc(-c4c([H])c([H])c(Oc5c([H])c([H])c(F)c([H])c5F)c([H])c4[H])c(C(=O)N([H])[H])c3N([H])[H])C2([H])[H])c([H])c1C(C([H])([H])[H])(C([H])([H])[H])C([H])(C(=O)C([H])([H])Oc1c([H])c([H])c2c(c1[H])C([H])([H])N(C(=O)C([H])(N([H])C(=O)C([H])(N([H])C([H])([H])[H])C([H])([H])[H])C(C([H])([H])[H])(C([H])([H])[H])C([H])([H])[H])C([H])(C(=O)N([H])C1([H])c3c([H])c([H])c([H])c([H])c3C([H])([H])C([H])([H])C1([H])[H])C2([H])[H])C([H])([H])[H]

$$$$
24:0:0
     RDKit          3D

 93102  0  0  1  0  0  0  0  0999 V2000
  -27.9320  -21.3930   21.1230 C   0  0  0  0  0  0  0  0  0  0  0  0
  -28.0280  -22.4640   22.2050 C   0  0  0  0  0  2  0  0  0  0  0  0
  -29.4910  -22.8910   22.0940 C   0  0  0  0  0  2  0  0  0  0  0  0
  -29.7680  -22.6440   20.6050 C   0  0  0  0  0  3  0  0  0  0  0  0
  -29.0680  -21.3000   20.3970 N   0  0  0  0  0  0  0  0  0  0  0  0
  -26.8960  -20.7490   20.9470 O   0  0  0  0  0  0  0  0  0  0  0  0
  -30.8840  -19.6620   19.6640 C   0  0  0  0  0  3  0  0  0  0  0  0
  -31.1930  -18.2330   19.6380 C   0  0  0  0  0  3  0  0  0  0  0  0
  -29.6530  -20.0220   20.1890 C   0  0  0  0  0  0  0  0  0  0  0  0
  -30.2260  -17.3820   20.1410 C   0  0  0  0  0  0  0  0  0  0  0  0
  -28.8970  -18.4510   20.6520 S   0  0  0  0  0  0  0  0  0  0  0  0
  -30.9460  -14.9160   19.9060 C   0  0  0  0  0  0  0  0  0  0  0  0
  -30.7250  -12.6250   18.9240 C   0  0  0  0  0  2  0  0  0  0  0  0
  -29.7160  -12.6910   17.7550 C   0  0  0  0  0  2  0  0  0  0  0  0
  -28.2710  -12.5250   18.2670 C   0  0  0  0  0  2  0  0  0  0  0  0
  -27.9690  -13.4230   19.4960 C   0  0  0  0  0  3  0  0  0  0  0  0
  -29.0860  -13.3190   20.5590 C   0  0  0  0  0  2  0  0  0  0  0  0
  -30.3520  -13.6740   19.9000 N   0  0  0  0  0  0  0  0  0  0  0  0
  -32.0890  -15.0590   19.4560 O   0  0  0  0  0  0  0  0  0  0  0  0
  -30.1450  -15.9850   20.2760 N   0  0  0  0  0  0  0  0  0  0  0  0
  -29.2640  -15.6690   20.6520 H   0  0  0  0  0  0  0  0  0  0  0  0
  -25.6490  -14.0460   20.4010 C   0  0  0  0  0  0  0  0  0  0  0  0
  -24.5900  -13.2840   20.8160 C   0  0  0  0  0  0  0  0  0  0  0  0
  -25.0140  -11.9230   20.7010 C   0  0  0  0  0  0  0  0  0  0  0  0
  -26.6510  -13.1500   20.0620 N   0  0  0  0  0  0  0  0  0  0  0  0
  -26.2790  -11.8660   20.3030 N   0  0  0  0  0  0  0  0  0  0  0  0
  -24.2690  -10.6730   20.8940 C   0  0  0  0  0  0  0  0  0  0  0  0
  -24.6860   -9.7010   21.8290 C   0  0  0  0  0  3  0  0  0  0  0  0
  -23.9410   -8.5150   22.0090 C   0  0  0  0  0  3  0  0  0  0  0  0
  -22.7660   -8.2930   21.2540 C   0  0  0  0  0  0  0  0  0  0  0  0
  -22.3680   -9.2540   20.3080 C   0  0  0  0  0  3  0  0  0  0  0  0
  -23.1120  -10.4310   20.1260 C   0  0  0  0  0  3  0  0  0  0  0  0
  -21.9950   -7.1590   21.3430 O   0  0  0  0  0  0  0  0  0  0  0  0
  -21.8550   -6.4740   22.5220 C   0  0  0  0  0  0  0  0  0  0  0  0
  -21.3260   -7.0840   23.6810 C   0  0  0  0  0  3  0  0  0  0  0  0
  -21.1350   -6.3250   24.8520 C   0  0  0  0  0  3  0  0  0  0  0  0
  -21.4630   -4.9560   24.8660 C   0  0  0  0  0  0  0  0  0  0  0  0
  -21.9860   -4.3460   23.7120 C   0  0  0  0  0  3  0  0  0  0  0  0
  -22.1770   -5.1040   22.5430 C   0  0  0  0  0  0  0  0  0  0  0  0
  -22.6610   -4.5050   21.4270 F   0  0  0  0  0  0  0  0  0  0  0  0
  -21.2730   -4.2240   25.9880 F   0  0  0  0  0  0  0  0  0  0  0  0
  -23.2280  -13.7830   21.2030 C   0  0  0  0  0  0  0  0  0  0  0  0
  -22.5490  -13.0780   22.1020 N   0  0  0  0  0  0  0  0  0  0  0  0
  -22.7780  -14.8320   20.7430 O   0  0  0  0  0  0  0  0  0  0  0  0
  -22.9290  -12.2280   22.4920 H   0  0  0  0  0  0  0  0  0  0  0  0
  -21.6380  -13.3930   22.4030 H   0  0  0  0  0  0  0  0  0  0  0  0
  -25.8340  -15.4170   20.2600 N   0  0  0  0  0  0  0  0  0  0  0  0
  -25.0790  -16.0750   20.4250 H   0  0  0  0  0  0  0  0  0  0  0  0
  -26.6500  -15.8490   19.8460 H   0  0  0  0  0  0  0  0  0  0  0  0
  -29.3520  -23.9490   19.6890 C   0  0  0  0  0  0  0  0  0  0  0  0
  -29.7530  -24.0170   18.5260 O   0  0  0  0  0  0  0  0  0  0  0  0
  -28.4410  -25.1660   20.2200 C   0  0  0  0  0  2  0  0  0  0  0  0
  -28.5880  -26.5320   19.6080 O   0  0  0  0  0  0  0  0  0  0  0  0
  -24.7370  -31.6700   23.0130 C   0  0  0  0  0  0  0  0  0  0  0  0
  -27.4580  -27.3770   19.6590 C   0  0  0  0  0  0  0  0  0  0  0  0
  -23.5570  -30.3290   21.3090 C   0  0  0  0  0  3  0  0  0  0  0  0
  -25.0390  -28.9160   19.7720 C   0  0  0  0  0  0  0  0  0  0  0  0
  -26.0790  -30.7490   21.1040 C   0  0  0  0  0  2  0  0  0  0  0  0
  -26.2020  -29.4100   20.3780 C   0  0  0  0  0  0  0  0  0  0  0  0
  -27.4170  -28.6550   20.3060 C   0  0  0  0  0  3  0  0  0  0  0  0
  -26.2730  -26.9490   19.0250 C   0  0  0  0  0  3  0  0  0  0  0  0
  -25.0780  -27.6940   19.0820 C   0  0  0  0  0  3  0  0  0  0  0  0
  -23.7730  -29.7430   19.8880 C   0  0  0  0  0  2  0  0  0  0  0  0
  -24.8100  -30.9310   21.8670 N   0  0  0  0  0  0  0  0  0  0  0  0
  -23.6520  -31.8740   23.5810 O   0  0  0  0  0  0  0  0  0  0  0  0
  -22.9450  -29.2350   22.2160 C   0  0  0  0  0  0  0  0  0  0  0  0
  -21.6190  -29.0350   22.1160 N   0  0  0  0  0  0  0  0  0  0  0  0
  -23.6610  -28.5700   22.9700 O   0  0  0  0  0  0  0  0  0  0  0  0
  -21.0950  -29.6270   21.4880 H   0  0  0  0  0  0  0  0  0  0  0  0
  -18.2790  -27.7520   22.6610 C   0  0  0  0  0  0  0  0  0  0  0  0
  -20.8450  -28.0260   22.8450 C   0  0  0  0  0  3  0  0  0  0  0  0
  -20.9370  -26.6460   22.1530 C   0  0  0  0  0  2  0  0  0  0  0  0
  -19.7960  -26.3900   21.1630 C   0  0  0  0  0  2  0  0  0  0  0  0
  -18.4420  -26.4620   21.8740 C   0  0  0  0  0  2  0  0  0  0  0  0
  -19.4060  -28.4940   23.1040 C   0  0  0  0  0  0  0  0  0  0  0  0
  -19.1960  -29.7030   23.8020 C   0  0  0  0  0  3  0  0  0  0  0  0
  -17.8940  -30.1690   24.0630 C   0  0  0  0  0  3  0  0  0  0  0  0
  -16.7820  -29.4220   23.6380 C   0  0  0  0  0  3  0  0  0  0  0  0
  -16.9760  -28.2150   22.9430 C   0  0  0  0  0  3  0  0  0  0  0  0
  -26.0050  -32.3120   23.6550 C   0  0  0  0  0  3  0  0  0  0  0  0
  -26.5530  -31.4990   24.8920 C   0  0  1  0  0  0  0  0  0  0  0  0
  -25.4770  -31.1910   25.9610 C   0  0  0  0  0  1  0  0  0  0  0  0
  -27.1620  -30.1540   24.4300 C   0  0  0  0  0  1  0  0  0  0  0  0
  -27.6920  -32.2890   25.5760 C   0  0  0  0  0  1  0  0  0  0  0  0
  -25.6590  -33.6830   24.0550 N   0  0  0  0  0  0  0  0  0  0  0  0
  -25.9540  -34.7800   23.3440 C   0  0  0  0  0  0  0  0  0  0  0  0
  -26.6130  -34.7440   22.3000 O   0  0  0  0  0  0  0  0  0  0  0  0
  -25.0720  -33.7840   24.8700 H   0  0  0  0  0  0  0  0  0  0  0  0
  -24.1650  -36.5330   23.0970 C   0  0  0  0  0  1  0  0  0  0  0  0
  -25.4320  -36.1310   23.8710 C   0  0  0  0  0  3  0  0  0  0  0  0
  -27.5570  -37.0400   24.7030 C   0  0  0  0  0  1  0  0  0  0  0  0
  -26.4270  -37.2240   23.7960 N   0  0  0  0  0  0  0  0  0  0  0  0
  -25.9940  -38.1170   24.0120 H   0  0  0  0  0  0  0  0  0  0  0  0
  1  2  1  0
  3  2  1  0
  4 50  1  0
  4  3  1  0
  5  4  1  0
  5  1  1  0
  6  1  2  0
  7  9  2  0
  8  7  1  0
  8 10  2  0
  9  5  1  0
  9 11  1  0
 10 20  1  0
 10 11  1  0
 12 20  1  0
 13 18  1  0
 14 15  1  0
 14 13  1  0
 16 15  1  0
 16 25  1  0
 16 17  1  0
 18 12  1  0
 18 17  1  0
 19 12  2  0
 20 21  1  0
 22 23  2  0
 23 42  1  0
 24 23  1  0
 24 27  1  0
 25 26  1  0
 25 22  1  0
 26 24  2  0
 27 28  1  0
 28 29  2  0
 30 33  1  0
 30 29  1  0
 31 30  2  0
 32 31  1  0
 32 27  2  0
 33 34  1  0
 34 39  2  0
 34 35  1  0
 35 36  2  0
 36 37  1  0
 37 41  1  0
 38 37  2  0
 39 38  1  0
 40 39  1  0
 42 43  1  0
 43 46  1  0
 43 45  1  0
 44 42  2  0
 47 22  1  0
 47 48  1  0
 49 47  1  0
 50 52  1  0
 51 50  2  0
 53 55  1  0
 53 52  1  0
 54 65  2  0
 55 60  1  0
 56 64  1  0
 56 66  1  0
 57 63  1  0
 57 59  1  0
 58 64  1  0
 59 58  1  0
 60 59  2  0
 61 62  1  0
 61 55  2  0
 62 57  2  0
 63 56  1  0
 64 54  1  0
 66 68  2  0
 67 66  1  0
 69 67  1  0
 70 79  2  0
 70 75  1  0
 71 67  1  0
 71 75  1  0
 72 71  1  0
 73 74  1  0
 73 72  1  0
 74 70  1  0
 75 76  2  0
 76 77  1  0
 78 77  2  0
 79 78  1  0
 80 54  1  0
 80 85  1  0
 80 81  1  0
 81 84  1  1
 81 82  1  0
 83 81  1  0
 85 88  1  0
 86 90  1  0
 86 85  1  0
 87 86  2  0
 90 89  1  0
 92 90  1  0
 92 93  1  0
 92 91  1  0
M  ISO  4  12 100  20 100  52 101  53 101
M  END
>  <TORSDO>  (25) 
F 19

>  <SCORE>  (25) 
-11.908

>  <name>  (25) 
24

>  <ligand_id>  (25) 
24

>  <original_smiles>  (25) 
[H]c1c(N([H])C(=O)N2C([H])([H])C([H])([H])C([H])([H])C([H])(n3nc(-c4c([H])c([H])c(Oc5c([H])c([H])c(F)c([H])c5F)c([H])c4[H])c(C(=O)N([H])[H])c3N([H])[H])C2([H])[H])sc(N2C(=O)C([H])([H])C([H])([H])C2([H])C(=O)C([H])([H])Oc2c([H])c([H])c3c(c2[H])C([H])([H])N(C(=O)C([H])(N([H])C(=O)C([H])(N([H])C([H])([H])[H])C([H])([H])[H])C(C([H])([H])[H])(C([H])([H])[H])C([H])([H])[H])C([H])(C(=O)N([H])C2([H])c4c([H])c([H])c([H])c([H])c4C([H])([H])C([H])([H])C2([H])[H])C3([H])[H])c1[H]

>  <smiles>  (25) 
[H]c1c(N([H])C(=O)N2C([H])([H])C([H])([H])C([H])([H])C([H])(n3nc(-c4c([H])c([H])c(Oc5c([H])c([H])c(F)c([H])c5F)c([H])c4[H])c(C(=O)N([H])[H])c3N([H])[H])C2([H])[H])sc(N2C(=O)C([H])([H])C([H])([H])C2([H])C(=O)C([H])([H])Oc2c([H])c([H])c3c(c2[H])C([H])([H])N(C(=O)C([H])(N([H])C(=O)C([H])(N([H])C([H])([H])[H])C([H])([H])[H])C(C([H])([H])[H])(C([H])([H])[H])C([H])([H])[H])C([H])(C(=O)N([H])C2([H])c4c([H])c([H])c([H])c([H])c4C([H])([H])C([H])([H])C2([H])[H])C3([H])[H])c1[H]

$$$$
25:0:0
     RDKit          3D

 97105  0  0  1  0  0  0  0  0999 V2000
  -34.8840  -20.5700   19.4960 C   0  0  0  0  0  1  0  0  0  0  0  0
  -33.5800  -19.7280   17.5710 C   0  0  0  0  0  1  0  0  0  0  0  0
  -33.4510  -20.5040   18.9150 C   0  0  1  0  0  0  0  0  0  0  0  0
  -32.3480  -20.0660   21.2620 C   0  0  0  0  0  3  0  0  0  0  0  0
  -32.3730  -18.2450   19.6910 C   0  0  0  0  0  3  0  0  0  0  0  0
  -32.6650  -19.6180   19.9560 C   0  0  0  0  0  0  0  0  0  0  0  0
  -31.6720  -19.2690   22.2080 C   0  0  0  0  0  0  0  0  0  0  0  0
  -31.3470  -17.9310   21.8960 C   0  0  0  0  0  0  0  0  0  0  0  0
  -31.7550  -17.4030   20.6500 C   0  0  0  0  0  0  0  0  0  0  0  0
  -31.3190  -19.8860   23.5510 C   0  0  0  0  0  1  0  0  0  0  0  0
  -30.5850  -17.0450   22.8830 C   0  0  0  0  0  1  0  0  0  0  0  0
  -32.2040  -15.0430   19.9180 C   0  0  0  0  0  0  0  0  0  0  0  0
  -32.0600  -12.6490   19.2900 C   0  0  0  0  0  2  0  0  0  0  0  0
  -31.1100  -12.5000   18.0830 C   0  0  0  0  0  2  0  0  0  0  0  0
  -29.6380  -12.4000   18.5430 C   0  0  0  0  0  2  0  0  0  0  0  0
  -29.2560  -13.5070   19.5610 C   0  0  0  0  0  3  0  0  0  0  0  0
  -30.3090  -13.5730   20.6880 C   0  0  0  0  0  2  0  0  0  0  0  0
  -31.6220  -13.8220   20.0580 N   0  0  0  0  0  0  0  0  0  0  0  0
  -33.2860  -15.2170   19.3420 O   0  0  0  0  0  0  0  0  0  0  0  0
  -31.4320  -16.0480   20.3700 N   0  0  0  0  0  0  0  0  0  0  0  0
  -30.5910  -15.7130   20.8120 H   0  0  0  0  0  0  0  0  0  0  0  0
  -26.9360  -14.2560   20.3950 C   0  0  0  0  0  0  0  0  0  0  0  0
  -25.8370  -13.5470   20.8000 C   0  0  0  0  0  0  0  0  0  0  0  0
  -26.2060  -12.1690   20.7170 C   0  0  0  0  0  0  0  0  0  0  0  0
  -27.9080  -13.3140   20.0930 N   0  0  0  0  0  0  0  0  0  0  0  0
  -27.4730  -12.0530   20.3400 N   0  0  0  0  0  0  0  0  0  0  0  0
  -25.4090  -10.9520   20.9200 C   0  0  0  0  0  0  0  0  0  0  0  0
  -25.5880  -10.1360   22.0590 C   0  0  0  0  0  3  0  0  0  0  0  0
  -24.8000   -8.9790   22.2390 C   0  0  0  0  0  3  0  0  0  0  0  0
  -23.8200   -8.6310   21.2810 C   0  0  0  0  0  0  0  0  0  0  0  0
  -23.6610   -9.4360   20.1380 C   0  0  0  0  0  3  0  0  0  0  0  0
  -24.4500  -10.5830   19.9570 C   0  0  0  0  0  3  0  0  0  0  0  0
  -23.0260   -7.5120   21.3600 O   0  0  0  0  0  0  0  0  0  0  0  0
  -22.4060   -7.1520   22.5290 C   0  0  0  0  0  0  0  0  0  0  0  0
  -21.4810   -8.0010   23.1740 C   0  0  0  0  0  3  0  0  0  0  0  0
  -20.8120   -7.5640   24.3350 C   0  0  0  0  0  3  0  0  0  0  0  0
  -21.0600   -6.2750   24.8450 C   0  0  0  0  0  0  0  0  0  0  0  0
  -21.9770   -5.4250   24.2020 C   0  0  0  0  0  3  0  0  0  0  0  0
  -22.6450   -5.8630   23.0460 C   0  0  0  0  0  0  0  0  0  0  0  0
  -23.5110   -5.0330   22.4170 F   0  0  0  0  0  0  0  0  0  0  0  0
  -20.4140   -5.8500   25.9570 F   0  0  0  0  0  0  0  0  0  0  0  0
  -24.4870  -14.1070   21.1520 C   0  0  0  0  0  0  0  0  0  0  0  0
  -23.7910  -13.4820   22.0940 N   0  0  0  0  0  0  0  0  0  0  0  0
  -24.0620  -15.1340   20.6240 O   0  0  0  0  0  0  0  0  0  0  0  0
  -24.1450  -12.6530   22.5450 H   0  0  0  0  0  0  0  0  0  0  0  0
  -22.8870  -13.8400   22.3730 H   0  0  0  0  0  0  0  0  0  0  0  0
  -27.1820  -15.6160   20.2400 N   0  0  0  0  0  0  0  0  0  0  0  0
  -26.4680  -16.3170   20.4010 H   0  0  0  0  0  0  0  0  0  0  0  0
  -28.0410  -16.0080   19.8760 H   0  0  0  0  0  0  0  0  0  0  0  0
  -33.7840  -22.6900   17.4920 C   0  0  0  0  0  1  0  0  0  0  0  0
  -32.9850  -22.9950   19.7810 C   0  0  0  0  0  1  0  0  0  0  0  0
  -32.9090  -22.0060   18.5880 C   0  0  2  0  0  0  0  0  0  0  0  0
  -31.4380  -22.0000   18.0370 C   0  0  0  0  0  2  0  0  0  0  0  0
  -30.4060  -22.9420   18.7410 C   0  0  0  0  0  2  0  0  0  0  0  0
  -29.6410  -23.9330   17.8320 C   0  0  0  0  0  2  0  0  0  0  0  0
  -28.7840  -24.9400   18.6420 C   0  0  0  0  0  2  0  0  0  0  0  0
  -28.7020  -26.2200   18.0060 O   0  0  0  0  0  0  0  0  0  0  0  0
  -25.3400  -29.6870   23.2680 C   0  0  0  0  0  0  0  0  0  0  0  0
  -27.6440  -27.0030   18.4040 C   0  0  0  0  0  0  0  0  0  0  0  0
  -24.1150  -29.5010   21.1280 C   0  0  0  0  0  3  0  0  0  0  0  0
  -25.4760  -28.6570   19.1410 C   0  0  0  0  0  0  0  0  0  0  0  0
  -26.6730  -29.4990   21.1700 C   0  0  0  0  0  2  0  0  0  0  0  0
  -26.6350  -28.6310   19.9290 C   0  0  0  0  0  0  0  0  0  0  0  0
  -27.7270  -27.8130   19.5580 C   0  0  0  0  0  3  0  0  0  0  0  0
  -26.4710  -27.0340   17.6230 C   0  0  0  0  0  3  0  0  0  0  0  0
  -25.3880  -27.8600   17.9850 C   0  0  0  0  0  3  0  0  0  0  0  0
  -24.3580  -29.5680   19.5970 C   0  0  0  0  0  2  0  0  0  0  0  0
  -25.3900  -29.5430   21.9140 N   0  0  0  0  0  0  0  0  0  0  0  0
  -24.2600  -29.8270   23.8580 O   0  0  0  0  0  0  0  0  0  0  0  0
  -23.2460  -28.2590   21.4340 C   0  0  0  0  0  0  0  0  0  0  0  0
  -21.9210  -28.4020   21.2710 N   0  0  0  0  0  0  0  0  0  0  0  0
  -23.7650  -27.1950   21.7820 O   0  0  0  0  0  0  0  0  0  0  0  0
  -21.5740  -29.3070   20.9870 H   0  0  0  0  0  0  0  0  0  0  0  0
  -18.3650  -27.7600   21.3010 C   0  0  0  0  0  0  0  0  0  0  0  0
  -20.9140  -27.3590   21.4640 C   0  0  0  0  0  3  0  0  0  0  0  0
  -20.7550  -26.4970   20.1890 C   0  0  0  0  0  2  0  0  0  0  0  0
  -19.6460  -26.9950   19.2570 C   0  0  0  0  0  2  0  0  0  0  0  0
  -18.2980  -27.0060   19.9840 C   0  0  0  0  0  2  0  0  0  0  0  0
  -19.5940  -27.9400   21.9870 C   0  0  0  0  0  0  0  0  0  0  0  0
  -19.6060  -28.6800   23.1890 C   0  0  0  0  0  3  0  0  0  0  0  0
  -18.4190  -29.2310   23.7070 C   0  0  0  0  0  3  0  0  0  0  0  0
  -17.2010  -29.0360   23.0320 C   0  0  0  0  0  3  0  0  0  0  0  0
  -17.1760  -28.2990   21.8350 C   0  0  0  0  0  3  0  0  0  0  0  0
  -26.6360  -29.7070   24.1370 C   0  0  0  0  0  3  0  0  0  0  0  0
  -26.5490  -30.8650   25.0360 N   0  0  0  0  0  0  0  0  0  0  0  0
  -27.2510  -31.9960   24.8880 C   0  0  0  0  0  0  0  0  0  0  0  0
  -28.1050  -32.1450   24.0090 O   0  0  0  0  0  0  0  0  0  0  0  0
  -25.8300  -30.8350   25.7450 H   0  0  0  0  0  0  0  0  0  0  0  0
  -26.0780  -34.2000   25.1840 C   0  0  0  0  0  1  0  0  0  0  0  0
  -26.9610  -33.1460   25.8730 C   0  0  0  0  0  3  0  0  0  0  0  0
  -28.9240  -32.9340   27.3300 C   0  0  0  0  0  1  0  0  0  0  0  0
  -28.1820  -33.7870   26.4050 N   0  0  0  0  0  0  0  0  0  0  0  0
  -27.9540  -34.6540   26.8850 H   0  0  0  0  0  0  0  0  0  0  0  0
  -26.8550  -28.3780   24.9590 C   0  0  1  0  0  0  0  0  0  0  0  0
  -25.6230  -27.9520   25.7920 C   0  0  0  0  0  1  0  0  0  0  0  0
  -27.2160  -27.2070   24.0150 C   0  0  0  0  0  1  0  0  0  0  0  0
  -28.0520  -28.5510   25.9240 C   0  0  0  0  0  1  0  0  0  0  0  0
  3  2  1  6
  3  1  1  0
  3  6  1  0
  4  7  1  0
  5  6  1  0
  5  9  2  0
  6  4  2  0
  7 10  1  0
  8  7  2  0
  8 11  1  0
  9  8  1  0
 12 18  1  0
 12 20  1  0
 13 18  1  0
 14 15  1  0
 14 13  1  0
 16 15  1  0
 16 25  1  0
 16 17  1  0
 18 17  1  0
 19 12  2  0
 20  9  1  0
 20 21  1  0
 22 23  2  0
 23 42  1  0
 24 23  1  0
 24 27  1  0
 25 26  1  0
 25 22  1  0
 26 24  2  0
 27 28  1  0
 28 29  2  0
 30 33  1  0
 30 29  1  0
 31 30  2  0
 32 31  1  0
 32 27  2  0
 33 34  1  0
 34 39  2  0
 34 35  1  0
 35 36  2  0
 36 37  1  0
 37 41  1  0
 38 37  2  0
 39 38  1  0
 40 39  1  0
 42 43  1  0
 43 46  1  0
 43 45  1  0
 44 42  2  0
 47 22  1  0
 47 48  1  0
 49 47  1  0
 52 50  1  6
 52  3  1  0
 52 51  1  0
 53 52  1  0
 53 54  1  0
 55 56  1  0
 55 54  1  0
 57 59  1  0
 57 56  1  0
 58 69  2  0
 59 64  1  0
 60 70  1  0
 60 68  1  0
 61 67  1  0
 61 63  1  0
 62 68  1  0
 63 62  1  0
 64 63  2  0
 65 66  1  0
 65 59  2  0
 66 61  2  0
 67 60  1  0
 68 58  1  0
 70 72  2  0
 71 70  1  0
 73 71  1  0
 74 83  2  0
 74 79  1  0
 75 71  1  0
 75 79  1  0
 76 75  1  0
 77 78  1  0
 77 76  1  0
 78 74  1  0
 79 80  2  0
 80 81  1  0
 82 81  2  0
 83 82  1  0
 84 58  1  0
 84 94  1  0
 84 85  1  0
 85 88  1  0
 86 85  1  0
 86 90  1  0
 87 86  2  0
 90 89  1  0
 90 92  1  0
 92 93  1  0
 92 91  1  0
 94 95  1  1
 94 97  1  0
 96 94  1  0
M  ISO  4  12 100  20 100  56 101  57 101
M  END
>  <TORSDO>  (26) 
F 22

>  <SCORE>  (26) 
-8.184

>  <name>  (26) 
25

>  <ligand_id>  (26) 
25

>  <original_smiles>  (26) 
[H]c1c([H])c([H])c2c(c1[H])C([H])([H])C([H])([H])C([H])([H])C2([H])N([H])C(=O)C1([H])N(C(=O)C([H])(N([H])C(=O)C([H])(N([H])C([H])([H])[H])C([H])([H])[H])C(C([H])([H])[H])(C([H])([H])[H])C([H])([H])[H])C([H])([H])c2c([H])c(OC([H])([H])C([H])([H])C([H])([H])C([H])([H])C(C([H])([H])[H])(C([H])([H])[H])C(c3c([H])c(N([H])C(=O)N4C([H])([H])C([H])([H])C([H])([H])C([H])(n5nc(-c6c([H])c([H])c(Oc7c([H])c([H])c(F)c([H])c7F)c([H])c6[H])c(C(=O)N([H])[H])c5N([H])[H])C4([H])[H])c(C([H])([H])[H])c(C([H])([H])[H])c3[H])(C([H])([H])[H])C([H])([H])[H])c([H])c([H])c2C1([H])[H]

>  <smiles>  (26) 
[H]c1c([H])c([H])c2c(c1[H])C([H])([H])C([H])([H])C([H])([H])C2([H])N([H])C(=O)C1([H])N(C(=O)C([H])(N([H])C(=O)C([H])(N([H])C([H])([H])[H])C([H])([H])[H])C(C([H])([H])[H])(C([H])([H])[H])C([H])([H])[H])C([H])([H])c2c([H])c(OC([H])([H])C([H])([H])C([H])([H])C([H])([H])C(C([H])([H])[H])(C([H])([H])[H])C(c3c([H])c(N([H])C(=O)N4C([H])([H])C([H])([H])C([H])([H])C([H])(n5nc(-c6c([H])c([H])c(Oc7c([H])c([H])c(F)c([H])c7F)c([H])c6[H])c(C(=O)N([H])[H])c5N([H])[H])C4([H])[H])c(C([H])([H])[H])c(C([H])([H])[H])c3[H])(C([H])([H])[H])C([H])([H])[H])c([H])c([H])c2C1([H])[H]

$$$$
26:0:0
     RDKit          3D

 93102  0  0  1  0  0  0  0  0999 V2000
  -29.6710  -20.8430   21.5900 C   0  0  0  0  0  0  0  0  0  0  0  0
  -29.1490  -23.8010   19.3300 C   0  0  0  0  0  2  0  0  0  0  0  0
  -29.3710  -22.2780   19.4900 C   0  0  0  0  0  2  0  0  0  0  0  0
  -29.1940  -23.3110   21.6200 C   0  0  0  0  0  2  0  0  0  0  0  0
  -28.4560  -24.2500   20.6240 C   0  0  2  0  0  0  0  0  0  0  0  0
  -26.9630  -23.8530   20.6010 C   0  0  0  0  0  1  0  0  0  0  0  0
  -29.4760  -22.0280   20.9310 N   0  0  0  0  0  0  0  0  0  0  0  0
  -29.5130  -20.7900   22.8150 O   0  0  0  0  0  0  0  0  0  0  0  0
  -29.6890  -18.2470   21.1870 C   0  0  0  0  0  3  0  0  0  0  0  0
  -31.3970  -17.8100   19.6530 C   0  0  0  0  0  3  0  0  0  0  0  0
  -30.4500  -17.2480   20.4750 C   0  0  0  0  0  0  0  0  0  0  0  0
  -30.0660  -19.5540   20.9120 C   0  0  0  0  0  0  0  0  0  0  0  0
  -31.3950  -19.5570   19.7710 S   0  0  0  0  0  0  0  0  0  0  0  0
  -30.8770  -14.7740   20.0700 C   0  0  0  0  0  0  0  0  0  0  0  0
  -30.5290  -12.6020   18.9440 C   0  0  0  0  0  2  0  0  0  0  0  0
  -29.5330  -12.7940   17.7790 C   0  0  0  0  0  2  0  0  0  0  0  0
  -28.0790  -12.6580   18.2670 C   0  0  0  0  0  2  0  0  0  0  0  0
  -27.7970  -13.4830   19.5490 C   0  0  0  0  0  3  0  0  0  0  0  0
  -28.9040  -13.2800   20.6110 C   0  0  0  0  0  2  0  0  0  0  0  0
  -30.1980  -13.5920   19.9860 N   0  0  0  0  0  0  0  0  0  0  0  0
  -31.9910  -14.9120   19.5590 O   0  0  0  0  0  0  0  0  0  0  0  0
  -30.2120  -15.8230   20.6280 N   0  0  0  0  0  0  0  0  0  0  0  0
  -29.3760  -15.5680   21.1320 H   0  0  0  0  0  0  0  0  0  0  0  0
  -25.4380  -14.0700   20.3900 C   0  0  0  0  0  0  0  0  0  0  0  0
  -24.3910  -13.2890   20.7970 C   0  0  0  0  0  0  0  0  0  0  0  0
  -24.8490  -11.9390   20.7200 C   0  0  0  0  0  0  0  0  0  0  0  0
  -26.4700  -13.1940   20.0890 N   0  0  0  0  0  0  0  0  0  0  0  0
  -26.1230  -11.9070   20.3480 N   0  0  0  0  0  0  0  0  0  0  0  0
  -24.1320  -10.6740   20.9230 C   0  0  0  0  0  0  0  0  0  0  0  0
  -24.5690   -9.7190   21.8680 C   0  0  0  0  0  3  0  0  0  0  0  0
  -23.8490   -8.5190   22.0580 C   0  0  0  0  0  3  0  0  0  0  0  0
  -22.6810   -8.2640   21.3020 C   0  0  0  0  0  0  0  0  0  0  0  0
  -22.2640   -9.2080   20.3470 C   0  0  0  0  0  3  0  0  0  0  0  0
  -22.9830  -10.4000   20.1570 C   0  0  0  0  0  3  0  0  0  0  0  0
  -21.9330   -7.1150   21.3990 O   0  0  0  0  0  0  0  0  0  0  0  0
  -21.8360   -6.4180   22.5760 C   0  0  0  0  0  0  0  0  0  0  0  0
  -21.2980   -7.0020   23.7440 C   0  0  0  0  0  3  0  0  0  0  0  0
  -21.1490   -6.2290   24.9130 C   0  0  0  0  0  3  0  0  0  0  0  0
  -21.5320   -4.8730   24.9150 C   0  0  0  0  0  0  0  0  0  0  0  0
  -22.0620   -4.2890   23.7510 C   0  0  0  0  0  3  0  0  0  0  0  0
  -22.2110   -5.0600   22.5850 C   0  0  0  0  0  0  0  0  0  0  0  0
  -22.7030   -4.4860   21.4590 F   0  0  0  0  0  0  0  0  0  0  0  0
  -21.3830   -4.1280   26.0350 F   0  0  0  0  0  0  0  0  0  0  0  0
  -23.0100  -13.7620   21.1480 C   0  0  0  0  0  0  0  0  0  0  0  0
  -22.3280  -13.0540   22.0410 N   0  0  0  0  0  0  0  0  0  0  0  0
  -22.5470  -14.7950   20.6670 O   0  0  0  0  0  0  0  0  0  0  0  0
  -22.7170  -12.2170   22.4490 H   0  0  0  0  0  0  0  0  0  0  0  0
  -21.4060  -13.3550   22.3230 H   0  0  0  0  0  0  0  0  0  0  0  0
  -25.5970  -15.4430   20.2260 N   0  0  0  0  0  0  0  0  0  0  0  0
  -24.8360  -16.0970   20.3800 H   0  0  0  0  0  0  0  0  0  0  0  0
  -26.4190  -15.8820   19.8290 H   0  0  0  0  0  0  0  0  0  0  0  0
  -28.6230  -25.7780   20.9960 C   0  0  0  0  0  2  0  0  0  0  0  0
  -28.4030  -26.7760   19.9690 O   0  0  0  0  0  0  0  0  0  0  0  0
  -24.6470  -31.9650   23.2400 C   0  0  0  0  0  0  0  0  0  0  0  0
  -27.2530  -27.5400   20.0630 C   0  0  0  0  0  0  0  0  0  0  0  0
  -23.4210  -30.5620   21.6180 C   0  0  0  0  0  3  0  0  0  0  0  0
  -24.8560  -29.0550   20.1440 C   0  0  0  0  0  0  0  0  0  0  0  0
  -25.9440  -30.9310   21.3780 C   0  0  0  0  0  2  0  0  0  0  0  0
  -26.0270  -29.5660   20.7240 C   0  0  0  0  0  0  0  0  0  0  0  0
  -27.2280  -28.8120   20.6890 C   0  0  0  0  0  3  0  0  0  0  0  0
  -26.0750  -27.0670   19.4540 C   0  0  0  0  0  3  0  0  0  0  0  0
  -24.8760  -27.8020   19.5100 C   0  0  0  0  0  3  0  0  0  0  0  0
  -23.6070  -29.9030   20.2270 C   0  0  0  0  0  2  0  0  0  0  0  0
  -24.6880  -31.1710   22.1340 N   0  0  0  0  0  0  0  0  0  0  0  0
  -23.5760  -32.2220   23.8070 O   0  0  0  0  0  0  0  0  0  0  0  0
  -22.8060  -29.5220   22.5830 C   0  0  0  0  0  0  0  0  0  0  0  0
  -21.4870  -29.3030   22.4630 N   0  0  0  0  0  0  0  0  0  0  0  0
  -23.5110  -28.9180   23.3960 O   0  0  0  0  0  0  0  0  0  0  0  0
  -20.9840  -29.8380   21.7720 H   0  0  0  0  0  0  0  0  0  0  0  0
  -18.1490  -28.0110   22.9750 C   0  0  0  0  0  0  0  0  0  0  0  0
  -20.7000  -28.3450   23.2380 C   0  0  0  0  0  3  0  0  0  0  0  0
  -20.8440  -26.9160   22.6670 C   0  0  0  0  0  2  0  0  0  0  0  0
  -19.7490  -26.5550   21.6590 C   0  0  0  0  0  2  0  0  0  0  0  0
  -18.3640  -26.6640   22.3050 C   0  0  0  0  0  2  0  0  0  0  0  0
  -19.2460  -28.8070   23.3970 C   0  0  0  0  0  0  0  0  0  0  0  0
  -18.9940  -30.0670   23.9830 C   0  0  0  0  0  3  0  0  0  0  0  0
  -17.6780  -30.5310   24.1530 C   0  0  0  0  0  3  0  0  0  0  0  0
  -16.5940  -29.7320   23.7500 C   0  0  0  0  0  3  0  0  0  0  0  0
  -16.8310  -28.4750   23.1670 C   0  0  0  0  0  3  0  0  0  0  0  0
  -25.9400  -32.6080   23.8330 C   0  0  0  0  0  3  0  0  0  0  0  0
  -25.6330  -34.0080   24.1470 N   0  0  0  0  0  0  0  0  0  0  0  0
  -25.9520  -35.0520   23.3700 C   0  0  0  0  0  0  0  0  0  0  0  0
  -26.6080  -34.9380   22.3310 O   0  0  0  0  0  0  0  0  0  0  0  0
  -25.0510  -34.1710   24.9550 H   0  0  0  0  0  0  0  0  0  0  0  0
  -24.2160  -36.8360   23.0060 C   0  0  0  0  0  1  0  0  0  0  0  0
  -25.4620  -36.4430   23.8160 C   0  0  0  0  0  3  0  0  0  0  0  0
  -27.5910  -37.3420   24.6400 C   0  0  0  0  0  1  0  0  0  0  0  0
  -26.4910  -37.4970   23.6920 N   0  0  0  0  0  0  0  0  0  0  0  0
  -26.0820  -38.4170   23.8320 H   0  0  0  0  0  0  0  0  0  0  0  0
  -26.4780  -31.8580   25.1130 C   0  0  1  0  0  0  0  0  0  0  0  0
  -25.4000  -31.6240   26.1960 C   0  0  0  0  0  1  0  0  0  0  0  0
  -27.0730  -30.4820   24.7300 C   0  0  0  0  0  1  0  0  0  0  0  0
  -27.6240  -32.6760   25.7540 C   0  0  0  0  0  1  0  0  0  0  0  0
  1  8  2  0
  2  3  1  0
  2  5  1  0
  3  7  1  0
  5  6  1  6
  5 52  1  0
  5  4  1  0
  7  1  1  0
  7  4  1  0
 10 13  1  0
 10 11  2  0
 11 22  1  0
 11  9  1  0
 12  9  2  0
 12  1  1  0
 13 12  1  0
 14 22  1  0
 15 20  1  0
 16 17  1  0
 16 15  1  0
 18 17  1  0
 18 27  1  0
 18 19  1  0
 20 14  1  0
 20 19  1  0
 21 14  2  0
 22 23  1  0
 24 25  2  0
 25 44  1  0
 26 25  1  0
 26 29  1  0
 27 28  1  0
 27 24  1  0
 28 26  2  0
 29 30  1  0
 30 31  2  0
 32 35  1  0
 32 31  1  0
 33 32  2  0
 34 33  1  0
 34 29  2  0
 35 36  1  0
 36 41  2  0
 36 37  1  0
 37 38  2  0
 38 39  1  0
 39 43  1  0
 40 39  2  0
 41 40  1  0
 42 41  1  0
 44 45  1  0
 45 48  1  0
 45 47  1  0
 46 44  2  0
 49 50  1  0
 49 24  1  0
 51 49  1  0
 53 55  1  0
 53 52  1  0
 54 65  2  0
 55 60  1  0
 56 64  1  0
 56 66  1  0
 57 63  1  0
 57 59  1  0
 58 64  1  0
 59 58  1  0
 60 59  2  0
 61 62  1  0
 61 55  2  0
 62 57  2  0
 63 56  1  0
 64 54  1  0
 66 68  2  0
 67 66  1  0
 69 67  1  0
 70 79  2  0
 70 75  1  0
 71 67  1  0
 71 75  1  0
 72 71  1  0
 73 74  1  0
 73 72  1  0
 74 70  1  0
 75 76  2  0
 76 77  1  0
 78 77  2  0
 79 78  1  0
 80 54  1  0
 80 81  1  0
 80 90  1  0
 81 84  1  0
 82 86  1  0
 82 81  1  0
 83 82  2  0
 86 85  1  0
 88 86  1  0
 88 89  1  0
 88 87  1  0
 90 93  1  1
 90 91  1  0
 92 90  1  0
M  ISO  4  14 100  22 100  52 101  53 101
M  END
>  <TORSDO>  (27) 
F 18

>  <SCORE>  (27) 
-14.027

>  <name>  (27) 
26

>  <ligand_id>  (27) 
26

>  <original_smiles>  (27) 
[H]c1sc(C(=O)N2C([H])([H])C([H])([H])C(C([H])([H])[H])(C([H])([H])Oc3c([H])c([H])c4c(c3[H])C([H])([H])N(C(=O)C([H])(N([H])C(=O)C([H])(N([H])C([H])([H])[H])C([H])([H])[H])C(C([H])([H])[H])(C([H])([H])[H])C([H])([H])[H])C([H])(C(=O)N([H])C3([H])c5c([H])c([H])c([H])c([H])c5C([H])([H])C([H])([H])C3([H])[H])C4([H])[H])C2([H])[H])c([H])c1N([H])C(=O)N1C([H])([H])C([H])([H])C([H])([H])C([H])(n2nc(-c3c([H])c([H])c(Oc4c([H])c([H])c(F)c([H])c4F)c([H])c3[H])c(C(=O)N([H])[H])c2N([H])[H])C1([H])[H]

>  <smiles>  (27) 
[H]c1sc(C(=O)N2C([H])([H])C([H])([H])C(C([H])([H])[H])(C([H])([H])Oc3c([H])c([H])c4c(c3[H])C([H])([H])N(C(=O)C([H])(N([H])C(=O)C([H])(N([H])C([H])([H])[H])C([H])([H])[H])C(C([H])([H])[H])(C([H])([H])[H])C([H])([H])[H])C([H])(C(=O)N([H])C3([H])c5c([H])c([H])c([H])c([H])c5C([H])([H])C([H])([H])C3([H])[H])C4([H])[H])C2([H])[H])c([H])c1N([H])C(=O)N1C([H])([H])C([H])([H])C([H])([H])C([H])(n2nc(-c3c([H])c([H])c(Oc4c([H])c([H])c(F)c([H])c4F)c([H])c3[H])c(C(=O)N([H])[H])c2N([H])[H])C1([H])[H]

$$$$
27:0:0
     RDKit          3D

 97106  0  0  1  0  0  0  0  0999 V2000
  -29.7310  -23.2980   18.5170 C   0  0  0  0  0  2  0  0  0  0  0  0
  -29.9930  -21.9650   19.2400 C   0  0  0  0  0  2  0  0  0  0  0  0
  -29.4620  -23.6080   20.8680 C   0  0  0  0  0  2  0  0  0  0  0  0
  -29.7200  -24.4190   19.5780 C   0  0  1  0  0  0  0  0  0  0  0  0
  -30.1080  -22.2730   20.6790 N   0  0  1  0  0  4  0  0  0  0  0  0
  -31.0960  -22.4080   20.8330 H   0  0  0  0  0  0  0  0  0  0  0  0
  -30.1580  -21.4900   23.0570 C   0  0  0  0  0  1  0  0  0  0  0  0
  -29.6540  -21.2070   21.6300 C   0  0  0  0  0  3  0  0  0  0  0  0
  -31.1850  -19.1180   21.5910 C   0  0  0  0  0  3  0  0  0  0  0  0
  -31.3870  -17.7180   21.4630 C   0  0  0  0  0  3  0  0  0  0  0  0
  -29.1510  -17.5060   20.5570 C   0  0  0  0  0  3  0  0  0  0  0  0
  -29.9510  -19.7290   21.2390 C   0  0  0  0  0  0  0  0  0  0  0  0
  -28.9460  -18.8990   20.6620 C   0  0  0  0  0  0  0  0  0  0  0  0
  -30.3480  -16.8940   20.9810 C   0  0  0  0  0  0  0  0  0  0  0  0
  -27.5990  -19.4460   20.2050 C   0  0  0  0  0  1  0  0  0  0  0  0
  -31.0480  -14.5610   20.3370 C   0  0  0  0  0  0  0  0  0  0  0  0
  -30.7180  -12.4420   19.0950 C   0  0  0  0  0  2  0  0  0  0  0  0
  -29.7590  -12.7060   17.9130 C   0  0  0  0  0  2  0  0  0  0  0  0
  -28.2830  -12.6000   18.3530 C   0  0  0  0  0  2  0  0  0  0  0  0
  -27.9880  -13.3920   19.6540 C   0  0  0  0  0  3  0  0  0  0  0  0
  -29.0470  -13.0740   20.7330 C   0  0  0  0  0  2  0  0  0  0  0  0
  -30.3770  -13.3850   20.1710 N   0  0  0  0  0  0  0  0  0  0  0  0
  -32.1480  -14.7920   19.8230 O   0  0  0  0  0  0  0  0  0  0  0  0
  -30.3600  -15.4690   21.0540 N   0  0  0  0  0  0  0  0  0  0  0  0
  -29.5060  -15.0700   21.4120 H   0  0  0  0  0  0  0  0  0  0  0  0
  -25.6030  -14.0540   20.3700 C   0  0  0  0  0  0  0  0  0  0  0  0
  -24.5220  -13.3050   20.7530 C   0  0  0  0  0  0  0  0  0  0  0  0
  -24.9550  -11.9450   20.7200 C   0  0  0  0  0  0  0  0  0  0  0  0
  -26.6290  -13.1500   20.1360 N   0  0  0  0  0  0  0  0  0  0  0  0
  -26.2410  -11.8780   20.4020 N   0  0  0  0  0  0  0  0  0  0  0  0
  -24.2040  -10.6980   20.9170 C   0  0  0  0  0  0  0  0  0  0  0  0
  -24.6030   -9.7380   21.8730 C   0  0  0  0  0  3  0  0  0  0  0  0
  -23.8540   -8.5560   22.0550 C   0  0  0  0  0  3  0  0  0  0  0  0
  -22.6930   -8.3250   21.2800 C   0  0  0  0  0  0  0  0  0  0  0  0
  -22.3120   -9.2740   20.3160 C   0  0  0  0  0  3  0  0  0  0  0  0
  -23.0610  -10.4470   20.1310 C   0  0  0  0  0  3  0  0  0  0  0  0
  -21.9180   -7.1930   21.3720 O   0  0  0  0  0  0  0  0  0  0  0  0
  -21.7960   -6.4970   22.5480 C   0  0  0  0  0  0  0  0  0  0  0  0
  -21.3190   -7.1060   23.7280 C   0  0  0  0  0  3  0  0  0  0  0  0
  -21.1420   -6.3370   24.8950 C   0  0  0  0  0  3  0  0  0  0  0  0
  -21.4340   -4.9600   24.8830 C   0  0  0  0  0  0  0  0  0  0  0  0
  -21.9050   -4.3510   23.7070 C   0  0  0  0  0  3  0  0  0  0  0  0
  -22.0820   -5.1160   22.5410 C   0  0  0  0  0  0  0  0  0  0  0  0
  -22.5160   -4.5200   21.4040 F   0  0  0  0  0  0  0  0  0  0  0  0
  -21.2580   -4.2190   26.0020 F   0  0  0  0  0  0  0  0  0  0  0  0
  -23.1370  -13.8130   21.0340 C   0  0  0  0  0  0  0  0  0  0  0  0
  -22.4070  -13.1440   21.9190 N   0  0  0  0  0  0  0  0  0  0  0  0
  -22.7120  -14.8390   20.5050 O   0  0  0  0  0  0  0  0  0  0  0  0
  -22.7620  -12.3130   22.3680 H   0  0  0  0  0  0  0  0  0  0  0  0
  -21.4770  -13.4680   22.1500 H   0  0  0  0  0  0  0  0  0  0  0  0
  -25.7930  -15.4190   20.1800 N   0  0  0  0  0  0  0  0  0  0  0  0
  -25.0270  -16.0790   20.2610 H   0  0  0  0  0  0  0  0  0  0  0  0
  -26.6090  -15.8120   19.7320 H   0  0  0  0  0  0  0  0  0  0  0  0
  -31.3480  -26.0570   20.3810 C   0  0  0  0  0  1  0  0  0  0  0  0
  -31.0670  -24.9150   19.5770 O   0  0  0  0  0  0  0  0  0  0  0  0
  -28.6260  -25.4830   19.2000 C   0  0  0  0  0  2  0  0  0  0  0  0
  -28.4710  -26.6520   20.0410 O   0  0  0  0  0  0  0  0  0  0  0  0
  -24.6290  -31.8010   23.1630 C   0  0  0  0  0  0  0  0  0  0  0  0
  -27.2900  -27.3880   20.0020 C   0  0  0  0  0  0  0  0  0  0  0  0
  -23.4300  -30.4210   21.5000 C   0  0  0  0  0  3  0  0  0  0  0  0
  -24.8890  -28.9150   20.0500 C   0  0  0  0  0  0  0  0  0  0  0  0
  -25.9600  -30.7800   21.3150 C   0  0  0  0  0  2  0  0  0  0  0  0
  -26.0480  -29.4190   20.6510 C   0  0  0  0  0  0  0  0  0  0  0  0
  -27.2460  -28.6590   20.6340 C   0  0  0  0  0  3  0  0  0  0  0  0
  -26.1020  -26.9180   19.3880 C   0  0  0  0  0  3  0  0  0  0  0  0
  -24.9130  -27.6640   19.4200 C   0  0  0  0  0  3  0  0  0  0  0  0
  -23.6440  -29.7700   20.1090 C   0  0  0  0  0  2  0  0  0  0  0  0
  -24.6910  -31.0150   22.0500 N   0  0  0  0  0  0  0  0  0  0  0  0
  -23.5460  -32.0600   23.7050 O   0  0  0  0  0  0  0  0  0  0  0  0
  -22.7830  -29.3790   22.4410 C   0  0  0  0  0  0  0  0  0  0  0  0
  -21.4610  -29.1800   22.2990 N   0  0  0  0  0  0  0  0  0  0  0  0
  -23.4650  -28.7550   23.2580 O   0  0  0  0  0  0  0  0  0  0  0  0
  -20.9720  -29.7390   21.6150 H   0  0  0  0  0  0  0  0  0  0  0  0
  -18.1030  -27.9170   22.7300 C   0  0  0  0  0  0  0  0  0  0  0  0
  -20.6500  -28.2250   23.0530 C   0  0  0  0  0  3  0  0  0  0  0  0
  -20.7920  -26.7970   22.4760 C   0  0  0  0  0  2  0  0  0  0  0  0
  -19.7170  -26.4550   21.4400 C   0  0  0  0  0  2  0  0  0  0  0  0
  -18.3200  -26.5720   22.0570 C   0  0  0  0  0  2  0  0  0  0  0  0
  -19.1980  -28.7010   23.1830 C   0  0  0  0  0  0  0  0  0  0  0  0
  -18.9430  -29.9590   23.7700 C   0  0  0  0  0  3  0  0  0  0  0  0
  -17.6250  -30.4340   23.9110 C   0  0  0  0  0  3  0  0  0  0  0  0
  -16.5450  -29.6470   23.4730 C   0  0  0  0  0  3  0  0  0  0  0  0
  -16.7840  -28.3920   22.8890 C   0  0  0  0  0  3  0  0  0  0  0  0
  -25.9110  -32.4280   23.7910 C   0  0  0  0  0  3  0  0  0  0  0  0
  -26.4390  -31.6340   25.0500 C   0  0  1  0  0  0  0  0  0  0  0  0
  -25.3520  -31.3670   26.1170 C   0  0  0  0  0  1  0  0  0  0  0  0
  -27.0310  -30.2710   24.6250 C   0  0  0  0  0  1  0  0  0  0  0  0
  -27.5870  -32.4250   25.7220 C   0  0  0  0  0  1  0  0  0  0  0  0
  -25.5940  -33.8160   24.1500 N   0  0  0  0  0  0  0  0  0  0  0  0
  -25.9010  -34.8850   23.4020 C   0  0  0  0  0  0  0  0  0  0  0  0
  -26.5550  -34.8050   22.3590 O   0  0  0  0  0  0  0  0  0  0  0  0
  -25.0110  -33.9510   24.9630 H   0  0  0  0  0  0  0  0  0  0  0  0
  -24.1410  -36.6570   23.1130 C   0  0  0  0  0  1  0  0  0  0  0  0
  -25.4060  -36.2590   23.8900 C   0  0  0  0  0  3  0  0  0  0  0  0
  -27.5470  -37.1640   24.6830 C   0  0  0  0  0  1  0  0  0  0  0  0
  -26.4210  -37.3280   23.7670 N   0  0  0  0  0  0  0  0  0  0  0  0
  -26.0060  -38.2400   23.9370 H   0  0  0  0  0  0  0  0  0  0  0  0
  1  2  1  0
  1  4  1  0
  2  5  1  0
  4 56  1  6
  4  3  1  0
  5  6  1  1
  5  3  1  0
  5  8  1  0
  8  7  1  0
 10  9  1  0
 11 13  2  0
 11 14  1  0
 12  9  2  0
 12  8  1  0
 13 12  1  0
 14 24  1  0
 14 10  2  0
 15 13  1  0
 16 24  1  0
 17 22  1  0
 18 19  1  0
 18 17  1  0
 20 19  1  0
 20 29  1  0
 20 21  1  0
 22 16  1  0
 22 21  1  0
 23 16  2  0
 24 25  1  0
 26 27  2  0
 27 46  1  0
 28 27  1  0
 28 31  1  0
 29 26  1  0
 29 30  1  0
 30 28  2  0
 31 32  1  0
 32 33  2  0
 34 37  1  0
 34 33  1  0
 35 34  2  0
 36 35  1  0
 36 31  2  0
 37 38  1  0
 38 39  1  0
 39 40  2  0
 41 40  1  0
 41 45  1  0
 42 41  2  0
 43 38  2  0
 43 42  1  0
 44 43  1  0
 46 47  1  0
 47 50  1  0
 47 49  1  0
 48 46  2  0
 51 52  1  0
 51 26  1  0
 53 51  1  0
 55  4  1  0
 55 54  1  0
 56 57  1  0
 58 69  2  0
 59 57  1  0
 59 64  1  0
 60 68  1  0
 60 70  1  0
 61 67  1  0
 61 63  1  0
 62 68  1  0
 63 62  1  0
 64 63  2  0
 65 66  1  0
 65 59  2  0
 66 61  2  0
 67 60  1  0
 68 58  1  0
 70 72  2  0
 71 70  1  0
 73 71  1  0
 74 83  2  0
 74 79  1  0
 75 71  1  0
 75 79  1  0
 76 75  1  0
 77 78  1  0
 77 76  1  0
 78 74  1  0
 79 80  2  0
 80 81  1  0
 82 81  2  0
 83 82  1  0
 84 58  1  0
 84 89  1  0
 84 85  1  0
 85 88  1  1
 85 86  1  0
 87 85  1  0
 89 92  1  0
 90 94  1  0
 90 89  1  0
 91 90  2  0
 94 93  1  0
 96 94  1  0
 96 97  1  0
 96 95  1  0
M  ISO  4  16 100  24 100  56 101  57 101
M  END
>  <TORSDO>  (28) 
F 20

>  <SCORE>  (28) 
-13.922

>  <name>  (28) 
27

>  <ligand_id>  (28) 
27

>  <original_smiles>  (28) 
[H]c1c([H])c([H])c2c(c1[H])C([H])([H])C([H])([H])C([H])([H])C2([H])N([H])C(=O)C1([H])N(C(=O)C([H])(N([H])C(=O)C([H])(N([H])C([H])([H])[H])C([H])([H])[H])C(C([H])([H])[H])(C([H])([H])[H])C([H])([H])[H])C([H])([H])c2c([H])c(OC([H])([H])C3(OC([H])([H])[H])C([H])([H])C([H])([H])[N+]([H])(C([H])(c4c([H])c([H])c(N([H])C(=O)N5C([H])([H])C([H])([H])C([H])([H])C([H])(n6nc(-c7c([H])c([H])c(Oc8c([H])c([H])c(F)c([H])c8F)c([H])c7[H])c(C(=O)N([H])[H])c6N([H])[H])C5([H])[H])c([H])c4C([H])([H])[H])C([H])([H])[H])C3([H])[H])c([H])c([H])c2C1([H])[H]

>  <smiles>  (28) 
[H]c1c([H])c([H])c2c(c1[H])C([H])([H])C([H])([H])C([H])([H])C2([H])N([H])C(=O)C1([H])N(C(=O)C([H])(N([H])C(=O)C([H])(N([H])C([H])([H])[H])C([H])([H])[H])C(C([H])([H])[H])(C([H])([H])[H])C([H])([H])[H])C([H])([H])c2c([H])c(OC([H])([H])C3(OC([H])([H])[H])C([H])([H])C([H])([H])[N+]([H])(C([H])(c4c([H])c([H])c(N([H])C(=O)N5C([H])([H])C([H])([H])C([H])([H])C([H])(n6nc(-c7c([H])c([H])c(Oc8c([H])c([H])c(F)c([H])c8F)c([H])c7[H])c(C(=O)N([H])[H])c6N([H])[H])C5([H])[H])c([H])c4C([H])([H])[H])C([H])([H])[H])C3([H])[H])c([H])c([H])c2C1([H])[H]

$$$$
28:0:0
     RDKit          3D

 92101  0  0  1  0  0  0  0  0999 V2000
  -29.8660  -19.4690   20.8690 C   0  0  0  0  0  3  0  0  0  0  0  0
  -28.2420  -19.1970   19.4200 C   0  0  0  0  0  3  0  0  0  0  0  0
  -28.7460  -20.1440   20.2790 C   0  0  0  0  0  0  0  0  0  0  0  0
  -29.9240  -18.1730   20.3990 C   0  0  0  0  0  0  0  0  0  0  0  0
  -28.9390  -18.0100   19.4750 O   0  0  0  0  0  0  0  0  0  0  0  0
  -30.7670  -14.6500   19.7990 C   0  0  0  0  0  0  0  0  0  0  0  0
  -30.3180  -12.5240   18.5920 C   0  0  0  0  0  2  0  0  0  0  0  0
  -29.2770  -12.7290   17.4730 C   0  0  0  0  0  2  0  0  0  0  0  0
  -27.8520  -12.5440   18.0250 C   0  0  0  0  0  2  0  0  0  0  0  0
  -27.6140  -13.3530   19.3270 C   0  0  0  0  0  3  0  0  0  0  0  0
  -28.7630  -13.1560   20.3360 C   0  0  0  0  0  2  0  0  0  0  0  0
  -30.0360  -13.4940   19.6730 N   0  0  0  0  0  0  0  0  0  0  0  0
  -31.7360  -14.8540   19.0600 O   0  0  0  0  0  0  0  0  0  0  0  0
  -31.7190  -15.8810   22.6560 C   0  0  0  0  0  2  0  0  0  0  0  0
  -31.6610  -17.2390   21.9890 C   0  0  0  0  0  2  0  0  0  0  0  0
  -30.4640  -15.2050   22.1240 C   0  0  0  0  0  2  0  0  0  0  0  0
  -30.9000  -17.0180   20.6610 C   0  0  0  0  0  3  0  0  0  0  0  0
  -30.3790  -15.6000   20.7110 N   0  0  0  0  0  0  0  0  0  0  0  0
  -25.2920  -13.9000   20.2850 C   0  0  0  0  0  0  0  0  0  0  0  0
  -24.2720  -13.1030   20.7270 C   0  0  0  0  0  0  0  0  0  0  0  0
  -24.7420  -11.7580   20.6100 C   0  0  0  0  0  0  0  0  0  0  0  0
  -26.3180  -13.0410   19.9240 N   0  0  0  0  0  0  0  0  0  0  0  0
  -25.9970  -11.7450   20.1790 N   0  0  0  0  0  0  0  0  0  0  0  0
  -24.0480  -10.4820   20.8260 C   0  0  0  0  0  0  0  0  0  0  0  0
  -24.4820   -9.5600   21.8040 C   0  0  0  0  0  3  0  0  0  0  0  0
  -23.7860   -8.3490   22.0070 C   0  0  0  0  0  3  0  0  0  0  0  0
  -22.6410   -8.0500   21.2290 C   0  0  0  0  0  0  0  0  0  0  0  0
  -22.2270   -8.9610   20.2410 C   0  0  0  0  0  3  0  0  0  0  0  0
  -22.9240  -10.1640   20.0380 C   0  0  0  0  0  3  0  0  0  0  0  0
  -21.9170   -6.8880   21.3370 O   0  0  0  0  0  0  0  0  0  0  0  0
  -21.7470   -6.2540   22.5430 C   0  0  0  0  0  0  0  0  0  0  0  0
  -21.1290   -6.8930   23.6400 C   0  0  0  0  0  3  0  0  0  0  0  0
  -20.9130   -6.1820   24.8370 C   0  0  0  0  0  3  0  0  0  0  0  0
  -21.3040   -4.8340   24.9370 C   0  0  0  0  0  0  0  0  0  0  0  0
  -21.9140   -4.1940   23.8440 C   0  0  0  0  0  3  0  0  0  0  0  0
  -22.1320   -4.9020   22.6490 C   0  0  0  0  0  0  0  0  0  0  0  0
  -22.7010   -4.2750   21.5920 F   0  0  0  0  0  0  0  0  0  0  0  0
  -21.0880   -4.1490   26.0860 F   0  0  0  0  0  0  0  0  0  0  0  0
  -22.9030  -13.5540   21.1460 C   0  0  0  0  0  0  0  0  0  0  0  0
  -22.2640  -12.8200   22.0490 N   0  0  0  0  0  0  0  0  0  0  0  0
  -22.4100  -14.5930   20.7060 O   0  0  0  0  0  0  0  0  0  0  0  0
  -22.6760  -11.9780   22.4240 H   0  0  0  0  0  0  0  0  0  0  0  0
  -21.3490  -13.1020   22.3710 H   0  0  0  0  0  0  0  0  0  0  0  0
  -25.4290  -15.2770   20.1390 N   0  0  0  0  0  0  0  0  0  0  0  0
  -24.6780  -15.9250   20.3510 H   0  0  0  0  0  0  0  0  0  0  0  0
  -26.2560  -15.7370   19.7780 H   0  0  0  0  0  0  0  0  0  0  0  0
  -28.1780  -21.5410   20.6390 C   0  0  0  0  0  2  0  0  0  0  0  0
  -28.4850  -22.7850   19.7540 C   0  0  0  0  0  0  0  0  0  0  0  0
  -29.0220  -22.6650   18.6460 O   0  0  0  0  0  0  0  0  0  0  0  0
  -28.0750  -24.1890   20.3110 C   0  0  0  0  0  3  0  0  0  0  0  0
  -28.3680  -25.4350   19.4030 C   0  0  0  0  0  3  0  0  0  0  0  0
  -28.2890  -26.7450   20.0400 O   0  0  0  0  0  0  0  0  0  0  0  0
  -24.6220  -31.9100   23.3700 C   0  0  0  0  0  0  0  0  0  0  0  0
  -27.1170  -27.4930   20.0690 C   0  0  0  0  0  0  0  0  0  0  0  0
  -23.3540  -30.5710   21.7230 C   0  0  0  0  0  3  0  0  0  0  0  0
  -24.7460  -29.0630   20.2030 C   0  0  0  0  0  0  0  0  0  0  0  0
  -25.8810  -30.8990   21.4630 C   0  0  0  0  0  2  0  0  0  0  0  0
  -25.9310  -29.5450   20.7730 C   0  0  0  0  0  0  0  0  0  0  0  0
  -27.1150  -28.7680   20.7000 C   0  0  0  0  0  3  0  0  0  0  0  0
  -25.9040  -27.0350   19.5060 C   0  0  0  0  0  3  0  0  0  0  0  0
  -24.7310  -27.8110   19.5690 C   0  0  0  0  0  3  0  0  0  0  0  0
  -23.5160  -29.9360   20.3160 C   0  0  0  0  0  2  0  0  0  0  0  0
  -24.6400  -31.1410   22.2440 N   0  0  0  0  0  0  0  0  0  0  0  0
  -23.5590  -32.1750   23.9500 O   0  0  0  0  0  0  0  0  0  0  0  0
  -22.7210  -29.5260   22.6700 C   0  0  0  0  0  0  0  0  0  0  0  0
  -21.4030  -29.3050   22.5260 N   0  0  0  0  0  0  0  0  0  0  0  0
  -23.4120  -28.9160   23.4890 O   0  0  0  0  0  0  0  0  0  0  0  0
  -20.9040  -29.8510   21.8380 H   0  0  0  0  0  0  0  0  0  0  0  0
  -18.0790  -27.9450   22.9180 C   0  0  0  0  0  0  0  0  0  0  0  0
  -20.6080  -28.3370   23.2800 C   0  0  0  0  0  3  0  0  0  0  0  0
  -20.8050  -26.9050   22.7300 C   0  0  0  0  0  2  0  0  0  0  0  0
  -19.7590  -26.5130   21.6820 C   0  0  0  0  0  2  0  0  0  0  0  0
  -18.3480  -26.5960   22.2710 C   0  0  0  0  0  2  0  0  0  0  0  0
  -19.1400  -28.7680   23.3780 C   0  0  0  0  0  0  0  0  0  0  0  0
  -18.8360  -30.0270   23.9400 C   0  0  0  0  0  3  0  0  0  0  0  0
  -17.5030  -30.4640   24.0490 C   0  0  0  0  0  3  0  0  0  0  0  0
  -16.4550  -29.6380   23.6080 C   0  0  0  0  0  3  0  0  0  0  0  0
  -16.7440  -28.3800   23.0480 C   0  0  0  0  0  3  0  0  0  0  0  0
  -25.9300  -32.5110   23.9720 C   0  0  0  0  0  3  0  0  0  0  0  0
  -26.4620  -31.7110   25.2240 C   0  0  1  0  0  0  0  0  0  0  0  0
  -25.3760  -31.4250   26.2870 C   0  0  0  0  0  1  0  0  0  0  0  0
  -27.0610  -30.3530   24.7890 C   0  0  0  0  0  1  0  0  0  0  0  0
  -27.6080  -32.4990   25.9020 C   0  0  0  0  0  1  0  0  0  0  0  0
  -25.6530  -33.9090   24.3310 N   0  0  0  0  0  0  0  0  0  0  0  0
  -25.9750  -34.9650   23.5720 C   0  0  0  0  0  0  0  0  0  0  0  0
  -26.6080  -34.8640   22.5180 O   0  0  0  0  0  0  0  0  0  0  0  0
  -25.0870  -34.0640   25.1520 H   0  0  0  0  0  0  0  0  0  0  0  0
  -24.2530  -36.7790   23.3020 C   0  0  0  0  0  1  0  0  0  0  0  0
  -25.5210  -36.3540   24.0610 C   0  0  0  0  0  3  0  0  0  0  0  0
  -27.6950  -37.2100   24.8160 C   0  0  0  0  0  1  0  0  0  0  0  0
  -26.5610  -37.3970   23.9160 N   0  0  0  0  0  0  0  0  0  0  0  0
  -26.1700  -38.3200   24.0870 H   0  0  0  0  0  0  0  0  0  0  0  0
  2  5  1  0
  2  3  2  0
  3 47  1  0
  3  1  1  0
  4  1  2  0
  5  4  1  0
  6 18  1  0
  7 12  1  0
  8  9  1  0
  8  7  1  0
 10  9  1  0
 10 22  1  0
 10 11  1  0
 12  6  1  0
 12 11  1  0
 13  6  2  0
 15 14  1  0
 16 14  1  0
 17  4  1  0
 17 18  1  0
 17 15  1  0
 18 16  1  0
 19 20  2  0
 20 39  1  0
 21 20  1  0
 21 24  1  0
 22 23  1  0
 22 19  1  0
 23 21  2  0
 24 25  1  0
 25 26  2  0
 27 30  1  0
 27 26  1  0
 28 27  2  0
 29 28  1  0
 29 24  2  0
 30 31  1  0
 31 36  2  0
 31 32  1  0
 32 33  2  0
 33 34  1  0
 34 38  1  0
 35 34  2  0
 36 35  1  0
 37 36  1  0
 39 40  1  0
 40 43  1  0
 40 42  1  0
 41 39  2  0
 44 19  1  0
 44 45  1  0
 46 44  1  0
 48 50  1  0
 48 47  1  0
 49 48  2  0
 51 52  1  0
 51 50  2  0
 52 54  1  0
 53 64  2  0
 54 59  1  0
 55 63  1  0
 55 65  1  0
 56 62  1  0
 56 58  1  0
 57 63  1  0
 58 57  1  0
 59 58  2  0
 60 61  1  0
 60 54  2  0
 61 56  2  0
 62 55  1  0
 63 53  1  0
 65 67  2  0
 66 65  1  0
 68 66  1  0
 69 78  2  0
 69 74  1  0
 70 66  1  0
 70 74  1  0
 71 70  1  0
 72 73  1  0
 72 71  1  0
 73 69  1  0
 74 75  2  0
 75 76  1  0
 77 76  2  0
 78 77  1  0
 79 53  1  0
 79 84  1  0
 79 80  1  0
 80 83  1  1
 80 81  1  0
 82 80  1  0
 84 87  1  0
 85 89  1  0
 85 84  1  0
 86 85  2  0
 89 88  1  0
 91 89  1  0
 91 92  1  0
 91 90  1  0
M  ISO  4   6 100  18 100  51 101  52 101
M  END
>  <TORSDO>  (29) 
F 20

>  <SCORE>  (29) 
-10.733

>  <name>  (29) 
28

>  <ligand_id>  (29) 
28

>  <original_smiles>  (29) 
[H]c1oc(C2([H])N(C(=O)N3C([H])([H])C([H])([H])C([H])([H])C([H])(n4nc(-c5c([H])c([H])c(Oc6c([H])c([H])c(F)c([H])c6F)c([H])c5[H])c(C(=O)N([H])[H])c4N([H])[H])C3([H])[H])C([H])([H])C([H])([H])C2([H])[H])c([H])c1C([H])([H])C(=O)C([H])([H])C([H])([H])Oc1c([H])c([H])c2c(c1[H])C([H])([H])N(C(=O)C([H])(N([H])C(=O)C([H])(N([H])C([H])([H])[H])C([H])([H])[H])C(C([H])([H])[H])(C([H])([H])[H])C([H])([H])[H])C([H])(C(=O)N([H])C1([H])c3c([H])c([H])c([H])c([H])c3C([H])([H])C([H])([H])C1([H])[H])C2([H])[H]

>  <smiles>  (29) 
[H]c1oc(C2([H])N(C(=O)N3C([H])([H])C([H])([H])C([H])([H])C([H])(n4nc(-c5c([H])c([H])c(Oc6c([H])c([H])c(F)c([H])c6F)c([H])c5[H])c(C(=O)N([H])[H])c4N([H])[H])C3([H])[H])C([H])([H])C([H])([H])C2([H])[H])c([H])c1C([H])([H])C(=O)C([H])([H])C([H])([H])Oc1c([H])c([H])c2c(c1[H])C([H])([H])N(C(=O)C([H])(N([H])C(=O)C([H])(N([H])C([H])([H])[H])C([H])([H])[H])C(C([H])([H])[H])(C([H])([H])[H])C([H])([H])[H])C([H])(C(=O)N([H])C1([H])c3c([H])c([H])c([H])c([H])c3C([H])([H])C([H])([H])C1([H])[H])C2([H])[H]

$$$$
29:0:0
     RDKit          3D

 99107  0  0  1  0  0  0  0  0999 V2000
  -29.5200  -21.3330   21.6570 C   0  0  0  0  0  2  0  0  0  0  0  0
  -30.3400  -22.4640   23.7560 C   0  0  0  0  0  1  0  0  0  0  0  0
  -31.2300  -23.3180   21.6210 C   0  0  0  0  0  1  0  0  0  0  0  0
  -29.9660  -22.7030   22.2710 C   0  0  1  0  0  0  0  0  0  0  0  0
  -28.7680  -23.7110   22.3190 C   0  0  0  0  0  2  0  0  0  0  0  0
  -28.5090  -23.8700   19.6730 C   0  0  0  0  0  1  0  0  0  0  0  0
  -26.6230  -24.3070   21.1970 C   0  0  0  0  0  1  0  0  0  0  0  0
  -28.1550  -24.4490   21.0590 C   0  0  1  0  0  0  0  0  0  0  0  0
  -28.5750  -25.9580   21.0920 C   0  0  0  0  0  2  0  0  0  0  0  0
  -28.3030  -26.7000   19.8910 O   0  0  0  0  0  0  0  0  0  0  0  0
  -24.9720  -31.7030   23.6940 C   0  0  0  0  0  0  0  0  0  0  0  0
  -27.2280  -27.5500   19.9970 C   0  0  0  0  0  0  0  0  0  0  0  0
  -23.6290  -30.5880   21.9380 C   0  0  0  0  0  3  0  0  0  0  0  0
  -24.9390  -29.1700   20.2730 C   0  0  0  0  0  0  0  0  0  0  0  0
  -26.1640  -30.8220   21.6930 C   0  0  0  0  0  2  0  0  0  0  0  0
  -26.1410  -29.5430   20.8890 C   0  0  0  0  0  0  0  0  0  0  0  0
  -27.2920  -28.7340   20.7650 C   0  0  0  0  0  3  0  0  0  0  0  0
  -26.0310  -27.2230   19.3360 C   0  0  0  0  0  3  0  0  0  0  0  0
  -24.8750  -28.0020   19.4960 C   0  0  0  0  0  3  0  0  0  0  0  0
  -23.7530  -30.0860   20.4740 C   0  0  0  0  0  2  0  0  0  0  0  0
  -24.9420  -31.0430   22.5000 N   0  0  0  0  0  0  0  0  0  0  0  0
  -23.9270  -31.9670   24.3020 O   0  0  0  0  0  0  0  0  0  0  0  0
  -22.9500  -29.4900   22.7870 C   0  0  0  0  0  0  0  0  0  0  0  0
  -21.6290  -29.3310   22.6080 N   0  0  0  0  0  0  0  0  0  0  0  0
  -23.6100  -28.7840   23.5560 O   0  0  0  0  0  0  0  0  0  0  0  0
  -21.1620  -29.9530   21.9630 H   0  0  0  0  0  0  0  0  0  0  0  0
  -18.2500  -28.0860   22.8560 C   0  0  0  0  0  0  0  0  0  0  0  0
  -20.7870  -28.3390   23.2760 C   0  0  0  0  0  3  0  0  0  0  0  0
  -20.9340  -26.9490   22.6140 C   0  0  0  0  0  2  0  0  0  0  0  0
  -19.8880  -26.6880   21.5260 C   0  0  0  0  0  2  0  0  0  0  0  0
  -18.4730  -26.7850   22.1050 C   0  0  0  0  0  2  0  0  0  0  0  0
  -19.3360  -28.8220   23.3920 C   0  0  0  0  0  0  0  0  0  0  0  0
  -19.0760  -30.0450   24.0480 C   0  0  0  0  0  3  0  0  0  0  0  0
  -17.7610  -30.5280   24.1790 C   0  0  0  0  0  3  0  0  0  0  0  0
  -16.6860  -29.7830   23.6640 C   0  0  0  0  0  3  0  0  0  0  0  0
  -16.9310  -28.5650   23.0050 C   0  0  0  0  0  3  0  0  0  0  0  0
  -26.3160  -32.1710   24.3340 C   0  0  0  0  0  3  0  0  0  0  0  0
  -26.0840  -33.4960   24.9240 N   0  0  0  0  0  0  0  0  0  0  0  0
  -26.4410  -34.6520   24.3530 C   0  0  0  0  0  0  0  0  0  0  0  0
  -27.0730  -34.7140   23.2960 O   0  0  0  0  0  0  0  0  0  0  0  0
  -25.5320  -33.5290   25.7670 H   0  0  0  0  0  0  0  0  0  0  0  0
  -24.8050  -36.5640   24.3600 C   0  0  0  0  0  1  0  0  0  0  0  0
  -26.0250  -35.9530   25.0690 C   0  0  0  0  0  3  0  0  0  0  0  0
  -28.1990  -36.5530   26.0370 C   0  0  0  0  0  1  0  0  0  0  0  0
  -27.1100  -36.9530   25.1480 N   0  0  0  0  0  0  0  0  0  0  0  0
  -26.7520  -37.8470   25.4710 H   0  0  0  0  0  0  0  0  0  0  0  0
  -26.8720  -31.1670   25.4170 C   0  0  1  0  0  0  0  0  0  0  0  0
  -25.8290  -30.7680   26.4850 C   0  0  0  0  0  1  0  0  0  0  0  0
  -27.3850  -29.8690   24.7450 C   0  0  0  0  0  1  0  0  0  0  0  0
  -28.0820  -31.8000   26.1440 C   0  0  0  0  0  1  0  0  0  0  0  0
  -30.5810  -20.5040   20.9210 C   0  0  0  0  0  0  0  0  0  0  0  0
  -30.6390  -20.5000   19.6890 O   0  0  0  0  0  0  0  0  0  0  0  0
  -31.5540  -19.6680   21.7500 C   0  0  0  0  0  2  0  0  0  0  0  0
  -31.3530  -17.5180   23.0240 C   0  0  0  0  0  3  0  0  0  0  0  0
  -31.0800  -17.3990   20.6090 C   0  0  0  0  0  3  0  0  0  0  0  0
  -31.0520  -15.3550   21.9390 C   0  0  0  0  0  3  0  0  0  0  0  0
  -31.3090  -18.1660   21.7750 C   0  0  0  0  0  0  0  0  0  0  0  0
  -31.2260  -16.1200   23.1100 C   0  0  0  0  0  0  0  0  0  0  0  0
  -30.9460  -15.9980   20.6850 C   0  0  0  0  0  0  0  0  0  0  0  0
  -31.2190  -14.1760   19.0880 C   0  0  0  0  0  0  0  0  0  0  0  0
  -30.5860  -12.0070   18.1160 C   0  0  0  0  0  2  0  0  0  0  0  0
  -29.4820  -12.2060   17.0580 C   0  0  0  0  0  2  0  0  0  0  0  0
  -28.0900  -12.1880   17.7180 C   0  0  0  0  0  2  0  0  0  0  0  0
  -28.0020  -13.1220   18.9510 C   0  0  0  0  0  3  0  0  0  0  0  0
  -29.1980  -12.9060   19.9020 C   0  0  0  0  0  2  0  0  0  0  0  0
  -30.4380  -13.0670   19.1270 N   0  0  0  0  0  0  0  0  0  0  0  0
  -32.2640  -14.2490   18.4370 O   0  0  0  0  0  0  0  0  0  0  0  0
  -30.6330  -15.3090   19.4900 N   0  0  0  0  0  0  0  0  0  0  0  0
  -30.6630  -15.9510   18.7110 H   0  0  0  0  0  0  0  0  0  0  0  0
  -25.8120  -13.9370   20.0260 C   0  0  0  0  0  0  0  0  0  0  0  0
  -24.7580  -13.2560   20.5720 C   0  0  0  0  0  0  0  0  0  0  0  0
  -25.0950  -11.8710   20.4950 C   0  0  0  0  0  0  0  0  0  0  0  0
  -26.7280  -12.9680   19.6500 N   0  0  0  0  0  0  0  0  0  0  0  0
  -26.3120  -11.7200   19.9880 N   0  0  0  0  0  0  0  0  0  0  0  0
  -24.3110  -10.6740   20.8220 C   0  0  0  0  0  0  0  0  0  0  0  0
  -24.7560   -9.7410   21.7850 C   0  0  0  0  0  3  0  0  0  0  0  0
  -23.9760   -8.6060   22.0950 C   0  0  0  0  0  3  0  0  0  0  0  0
  -22.7390   -8.3970   21.4430 C   0  0  0  0  0  0  0  0  0  0  0  0
  -22.3100   -9.3150   20.4720 C   0  0  0  0  0  3  0  0  0  0  0  0
  -23.0880  -10.4430   20.1610 C   0  0  0  0  0  3  0  0  0  0  0  0
  -21.9280   -7.3090   21.6620 O   0  0  0  0  0  0  0  0  0  0  0  0
  -21.8070   -6.7380   22.9040 C   0  0  0  0  0  0  0  0  0  0  0  0
  -21.4620   -7.4970   24.0440 C   0  0  0  0  0  3  0  0  0  0  0  0
  -21.2840   -6.8580   25.2860 C   0  0  0  0  0  3  0  0  0  0  0  0
  -21.4360   -5.4620   25.3890 C   0  0  0  0  0  0  0  0  0  0  0  0
  -21.7730   -4.7040   24.2550 C   0  0  0  0  0  3  0  0  0  0  0  0
  -21.9540   -5.3420   23.0150 C   0  0  0  0  0  0  0  0  0  0  0  0
  -22.2580   -4.6040   21.9200 F   0  0  0  0  0  0  0  0  0  0  0  0
  -21.2560   -4.8480   26.5820 F   0  0  0  0  0  0  0  0  0  0  0  0
  -23.4680  -13.8490   21.0570 C   0  0  0  0  0  0  0  0  0  0  0  0
  -22.8960  -13.2830   22.1160 N   0  0  0  0  0  0  0  0  0  0  0  0
  -22.9840  -14.8470   20.5290 O   0  0  0  0  0  0  0  0  0  0  0  0
  -23.3070  -12.4760   22.5630 H   0  0  0  0  0  0  0  0  0  0  0  0
  -22.0380  -13.6620   22.4850 H   0  0  0  0  0  0  0  0  0  0  0  0
  -26.0570  -15.2880   19.8000 N   0  0  0  0  0  0  0  0  0  0  0  0
  -25.3880  -16.0100   20.0430 H   0  0  0  0  0  0  0  0  0  0  0  0
  -26.9040  -15.6530   19.3800 H   0  0  0  0  0  0  0  0  0  0  0  0
  -32.5500  -14.6010   24.6250 C   0  0  0  0  0  1  0  0  0  0  0  0
  -31.2770  -15.4390   24.4630 C   0  0  0  0  0  2  0  0  0  0  0  0
  1  4  1  0
  4  3  1  6
  4  5  1  0
  4  2  1  0
  8  6  1  6
  8  9  1  0
  8  7  1  0
  8  5  1  0
 10 12  1  0
 10  9  1  0
 11 22  2  0
 12 17  1  0
 13 21  1  0
 13 23  1  0
 14 20  1  0
 14 16  1  0
 15 21  1  0
 16 15  1  0
 17 16  2  0
 18 19  1  0
 18 12  2  0
 19 14  2  0
 20 13  1  0
 21 11  1  0
 23 25  2  0
 24 23  1  0
 26 24  1  0
 27 36  2  0
 27 32  1  0
 28 24  1  0
 28 32  1  0
 29 28  1  0
 30 31  1  0
 30 29  1  0
 31 27  1  0
 32 33  2  0
 33 34  1  0
 35 34  2  0
 36 35  1  0
 37 11  1  0
 37 38  1  0
 37 47  1  0
 38 41  1  0
 39 38  1  0
 39 43  1  0
 40 39  2  0
 43 42  1  0
 43 45  1  0
 45 46  1  0
 45 44  1  0
 47 50  1  1
 47 48  1  0
 49 47  1  0
 51  1  1  0
 51 53  1  0
 52 51  2  0
 53 57  1  0
 54 58  1  0
 55 59  2  0
 55 57  1  0
 56 58  2  0
 57 54  2  0
 58 99  1  0
 59 56  1  0
 60 66  1  0
 60 68  1  0
 61 66  1  0
 62 63  1  0
 62 61  1  0
 64 63  1  0
 64 73  1  0
 64 65  1  0
 66 65  1  0
 67 60  2  0
 68 59  1  0
 69 68  1  0
 70 71  2  0
 71 90  1  0
 72 71  1  0
 72 75  1  0
 73 74  1  0
 73 70  1  0
 74 72  2  0
 75 76  1  0
 76 77  2  0
 78 81  1  0
 78 77  1  0
 79 78  2  0
 80 79  1  0
 80 75  2  0
 81 82  1  0
 82 87  2  0
 82 83  1  0
 83 84  2  0
 84 85  1  0
 85 89  1  0
 86 85  2  0
 87 86  1  0
 88 87  1  0
 90 91  1  0
 91 94  1  0
 91 93  1  0
 92 90  2  0
 95 70  1  0
 95 96  1  0
 97 95  1  0
 99 98  1  0
M  ISO  4   9 101  10 101  60 100  68 100
M  END
>  <TORSDO>  (30) 
F 24

>  <SCORE>  (30) 
1.266

>  <name>  (30) 
29

>  <ligand_id>  (30) 
29

>  <original_smiles>  (30) 
[H]c1c([H])c([H])c2c(c1[H])C([H])([H])C([H])([H])C([H])([H])C2([H])N([H])C(=O)C1([H])N(C(=O)C([H])(N([H])C(=O)C([H])(N([H])C([H])([H])[H])C([H])([H])[H])C(C([H])([H])[H])(C([H])([H])[H])C([H])([H])[H])C([H])([H])c2c([H])c(OC([H])([H])C(C([H])([H])[H])(C([H])([H])[H])C([H])([H])C(C([H])([H])[H])(C([H])([H])[H])C([H])([H])C(=O)C([H])([H])c3c([H])c(N([H])C(=O)N4C([H])([H])C([H])([H])C([H])([H])C([H])(n5nc(-c6c([H])c([H])c(Oc7c([H])c([H])c(F)c([H])c7F)c([H])c6[H])c(C(=O)N([H])[H])c5N([H])[H])C4([H])[H])c([H])c(C([H])([H])C([H])([H])[H])c3[H])c([H])c([H])c2C1([H])[H]

>  <smiles>  (30) 
[H]c1c([H])c([H])c2c(c1[H])C([H])([H])C([H])([H])C([H])([H])C2([H])N([H])C(=O)C1([H])N(C(=O)C([H])(N([H])C(=O)C([H])(N([H])C([H])([H])[H])C([H])([H])[H])C(C([H])([H])[H])(C([H])([H])[H])C([H])([H])[H])C([H])([H])c2c([H])c(OC([H])([H])C(C([H])([H])[H])(C([H])([H])[H])C([H])([H])C(C([H])([H])[H])(C([H])([H])[H])C([H])([H])C(=O)C([H])([H])c3c([H])c(N([H])C(=O)N4C([H])([H])C([H])([H])C([H])([H])C([H])(n5nc(-c6c([H])c([H])c(Oc7c([H])c([H])c(F)c([H])c7F)c([H])c6[H])c(C(=O)N([H])[H])c5N([H])[H])C4([H])[H])c([H])c(C([H])([H])C([H])([H])[H])c3[H])c([H])c([H])c2C1([H])[H]

$$$$
30:0:0
     RDKit          3D

 93102  0  0  1  0  0  0  0  0999 V2000
  -29.6780  -21.1840   20.9220 C   0  0  0  0  0  2  0  0  0  0  0  0
  -27.6060  -21.8010   20.0080 C   0  0  0  0  0  2  0  0  0  0  0  0
  -28.7860  -19.8880   20.9410 C   0  0  0  0  0  3  0  0  0  0  0  0
  -28.6900  -22.4220   20.9110 C   0  0  0  0  0  3  0  0  0  0  0  0
  -27.4930  -20.3680   20.3950 N   0  0  0  0  0  4  0  0  0  0  0  0
  -27.1650  -19.8050   19.6290 H   0  0  0  0  0  0  0  0  0  0  0  0
  -26.8070  -20.2980   21.1320 H   0  0  0  0  0  0  0  0  0  0  0  0
  -29.6890  -16.7360   18.8200 C   0  0  0  0  0  3  0  0  0  0  0  0
  -29.2050  -18.0790   19.0410 C   0  0  0  0  0  3  0  0  0  0  0  0
  -30.1820  -16.0920   19.9330 C   0  0  0  0  0  0  0  0  0  0  0  0
  -29.2950  -18.5310   20.3430 C   0  0  0  0  0  0  0  0  0  0  0  0
  -30.0760  -17.2320   21.2950 S   0  0  0  0  0  0  0  0  0  0  0  0
  -30.9560  -14.7700   20.0250 C   0  0  0  0  0  0  0  0  0  0  0  0
  -30.6840  -12.4860   19.0950 C   0  0  0  0  0  2  0  0  0  0  0  0
  -29.7170  -12.5780   17.8970 C   0  0  0  0  0  2  0  0  0  0  0  0
  -28.2570  -12.4370   18.3680 C   0  0  0  0  0  2  0  0  0  0  0  0
  -27.9300  -13.3480   19.5820 C   0  0  0  0  0  3  0  0  0  0  0  0
  -29.0200  -13.2790   20.6700 C   0  0  0  0  0  2  0  0  0  0  0  0
  -30.3100  -13.5600   20.0380 N   0  0  0  0  0  0  0  0  0  0  0  0
  -32.1530  -14.8250   19.7360 O   0  0  0  0  0  0  0  0  0  0  0  0
  -25.5910  -13.9780   20.4200 C   0  0  0  0  0  0  0  0  0  0  0  0
  -24.5200  -13.2220   20.8110 C   0  0  0  0  0  0  0  0  0  0  0  0
  -24.9470  -11.8620   20.7300 C   0  0  0  0  0  0  0  0  0  0  0  0
  -26.6010  -13.0790   20.1210 N   0  0  0  0  0  0  0  0  0  0  0  0
  -26.2230  -11.7990   20.3700 N   0  0  0  0  0  0  0  0  0  0  0  0
  -24.1980  -10.6120   20.9190 C   0  0  0  0  0  0  0  0  0  0  0  0
  -24.5890   -9.6520   21.8780 C   0  0  0  0  0  3  0  0  0  0  0  0
  -23.8400   -8.4670   22.0540 C   0  0  0  0  0  3  0  0  0  0  0  0
  -22.6850   -8.2340   21.2700 C   0  0  0  0  0  0  0  0  0  0  0  0
  -22.3130   -9.1830   20.3000 C   0  0  0  0  0  3  0  0  0  0  0  0
  -23.0620  -10.3590   20.1230 C   0  0  0  0  0  3  0  0  0  0  0  0
  -21.9090   -7.1040   21.3570 O   0  0  0  0  0  0  0  0  0  0  0  0
  -21.7410   -6.4350   22.5430 C   0  0  0  0  0  0  0  0  0  0  0  0
  -21.1810   -7.0590   23.6800 C   0  0  0  0  0  3  0  0  0  0  0  0
  -20.9660   -6.3140   24.8570 C   0  0  0  0  0  3  0  0  0  0  0  0
  -21.2970   -4.9460   24.8950 C   0  0  0  0  0  0  0  0  0  0  0  0
  -21.8470   -4.3210   23.7630 C   0  0  0  0  0  3  0  0  0  0  0  0
  -22.0670   -5.0630   22.5900 C   0  0  0  0  0  0  0  0  0  0  0  0
  -22.5810   -4.4540   21.4930 F   0  0  0  0  0  0  0  0  0  0  0  0
  -21.0800   -4.2280   26.0210 F   0  0  0  0  0  0  0  0  0  0  0  0
  -23.1470  -13.7250   21.1480 C   0  0  0  0  0  0  0  0  0  0  0  0
  -22.4340  -13.0280   22.0260 N   0  0  0  0  0  0  0  0  0  0  0  0
  -22.7180  -14.7720   20.6660 O   0  0  0  0  0  0  0  0  0  0  0  0
  -22.7930  -12.1830   22.4410 H   0  0  0  0  0  0  0  0  0  0  0  0
  -21.5140  -13.3500   22.2930 H   0  0  0  0  0  0  0  0  0  0  0  0
  -25.7840  -15.3510   20.2700 N   0  0  0  0  0  0  0  0  0  0  0  0
  -25.0400  -16.0160   20.4510 H   0  0  0  0  0  0  0  0  0  0  0  0
  -26.6420  -15.7850   19.9510 H   0  0  0  0  0  0  0  0  0  0  0  0
  -29.8990  -23.9040   19.1900 C   0  0  0  0  0  1  0  0  0  0  0  0
  -30.2390  -24.3310   21.6320 C   0  0  0  0  0  1  0  0  0  0  0  0
  -29.2030  -23.9180   20.5630 C   0  0  2  0  0  0  0  0  0  0  0  0
  -28.0670  -25.0520   20.5290 C   0  0  0  0  0  2  0  0  0  0  0  0
  -28.3910  -26.4780   20.2250 O   0  0  0  0  0  0  0  0  0  0  0  0
  -24.6200  -31.8540   23.1840 C   0  0  0  0  0  0  0  0  0  0  0  0
  -27.2980  -27.3580   20.1300 C   0  0  0  0  0  0  0  0  0  0  0  0
  -23.4540  -30.4800   21.4950 C   0  0  0  0  0  3  0  0  0  0  0  0
  -24.9400  -28.9760   20.0640 C   0  0  0  0  0  0  0  0  0  0  0  0
  -25.9940  -30.8180   21.3670 C   0  0  0  0  0  2  0  0  0  0  0  0
  -26.0930  -29.4540   20.6970 C   0  0  0  0  0  0  0  0  0  0  0  0
  -27.2800  -28.6610   20.7170 C   0  0  0  0  0  3  0  0  0  0  0  0
  -26.1290  -26.9460   19.4510 C   0  0  0  0  0  3  0  0  0  0  0  0
  -24.9610  -27.7280   19.4270 C   0  0  0  0  0  3  0  0  0  0  0  0
  -23.6950  -29.8380   20.1040 C   0  0  0  0  0  2  0  0  0  0  0  0
  -24.7060  -31.0670   22.0720 N   0  0  0  0  0  0  0  0  0  0  0  0
  -23.5250  -32.1150   23.7050 O   0  0  0  0  0  0  0  0  0  0  0  0
  -22.7850  -29.4370   22.4200 C   0  0  0  0  0  0  0  0  0  0  0  0
  -21.4600  -29.2590   22.2750 N   0  0  0  0  0  0  0  0  0  0  0  0
  -23.4560  -28.7930   23.2320 O   0  0  0  0  0  0  0  0  0  0  0  0
  -20.9780  -29.8310   21.5960 H   0  0  0  0  0  0  0  0  0  0  0  0
  -18.0740  -28.0900   22.7490 C   0  0  0  0  0  0  0  0  0  0  0  0
  -20.6350  -28.3070   23.0180 C   0  0  0  0  0  3  0  0  0  0  0  0
  -20.7170  -26.8950   22.3920 C   0  0  0  0  0  2  0  0  0  0  0  0
  -19.6070  -26.6220   21.3700 C   0  0  0  0  0  2  0  0  0  0  0  0
  -18.2290  -26.7640   22.0230 C   0  0  0  0  0  2  0  0  0  0  0  0
  -19.2030  -28.8220   23.2020 C   0  0  0  0  0  0  0  0  0  0  0  0
  -19.0000  -30.0660   23.8380 C   0  0  0  0  0  3  0  0  0  0  0  0
  -17.7030  -30.5790   24.0230 C   0  0  0  0  0  3  0  0  0  0  0  0
  -16.5870  -29.8420   23.5880 C   0  0  0  0  0  3  0  0  0  0  0  0
  -16.7740  -28.5980   22.9570 C   0  0  0  0  0  3  0  0  0  0  0  0
  -25.8870  -32.4840   23.8380 C   0  0  0  0  0  3  0  0  0  0  0  0
  -26.3800  -31.6970   25.1140 C   0  0  1  0  0  0  0  0  0  0  0  0
  -25.2640  -31.4430   26.1510 C   0  0  0  0  0  1  0  0  0  0  0  0
  -26.9800  -30.3270   24.7200 C   0  0  0  0  0  1  0  0  0  0  0  0
  -27.5100  -32.4840   25.8170 C   0  0  0  0  0  1  0  0  0  0  0  0
  -25.5630  -33.8750   24.1810 N   0  0  0  0  0  0  0  0  0  0  0  0
  -25.8840  -34.9380   23.4330 C   0  0  0  0  0  0  0  0  0  0  0  0
  -26.5540  -34.8560   22.4000 O   0  0  0  0  0  0  0  0  0  0  0  0
  -24.9570  -34.0140   24.9760 H   0  0  0  0  0  0  0  0  0  0  0  0
  -24.1310  -36.7180   23.1080 C   0  0  0  0  0  1  0  0  0  0  0  0
  -25.3800  -36.3150   23.9070 C   0  0  0  0  0  3  0  0  0  0  0  0
  -27.5060  -37.2260   24.7370 C   0  0  0  0  0  1  0  0  0  0  0  0
  -26.3970  -37.3850   23.8010 N   0  0  0  0  0  0  0  0  0  0  0  0
  -25.9740  -38.2950   23.9640 H   0  0  0  0  0  0  0  0  0  0  0  0
  1  3  1  0
  2  5  1  0
  2  4  1  0
  3 11  1  0
  4 51  1  0
  4  1  1  0
  5  3  1  0
  5  7  1  0
  6  5  1  0
  8  9  1  0
  8 10  2  0
  9 11  2  0
 10 13  1  0
 10 12  1  0
 11 12  1  0
 13 19  1  0
 14 19  1  0
 15 16  1  0
 15 14  1  0
 17 16  1  0
 17 24  1  0
 17 18  1  0
 19 18  1  0
 20 13  2  0
 21 22  2  0
 22 41  1  0
 23 22  1  0
 23 26  1  0
 24 25  1  0
 24 21  1  0
 25 23  2  0
 26 27  1  0
 27 28  2  0
 29 32  1  0
 29 28  1  0
 30 29  2  0
 31 30  1  0
 31 26  2  0
 32 33  1  0
 33 38  2  0
 33 34  1  0
 34 35  2  0
 35 36  1  0
 36 40  1  0
 37 36  2  0
 38 37  1  0
 39 38  1  0
 41 42  1  0
 42 45  1  0
 42 44  1  0
 43 41  2  0
 46 21  1  0
 46 47  1  0
 48 46  1  0
 51 49  1  6
 51 50  1  0
 52 51  1  0
 53 52  1  0
 54 65  2  0
 55 53  1  0
 55 60  1  0
 56 64  1  0
 56 66  1  0
 57 63  1  0
 57 59  1  0
 58 64  1  0
 59 60  2  0
 59 58  1  0
 61 55  2  0
 62 61  1  0
 62 57  2  0
 63 56  1  0
 64 54  1  0
 66 68  2  0
 67 66  1  0
 69 67  1  0
 70 79  2  0
 70 75  1  0
 71 67  1  0
 71 75  1  0
 72 71  1  0
 73 74  1  0
 73 72  1  0
 74 70  1  0
 75 76  2  0
 76 77  1  0
 78 77  2  0
 79 78  1  0
 80 54  1  0
 80 85  1  0
 80 81  1  0
 81 84  1  1
 81 82  1  0
 83 81  1  0
 85 88  1  0
 86 90  1  0
 86 85  1  0
 87 86  2  0
 90 89  1  0
 92 90  1  0
 92 93  1  0
 92 91  1  0
M  ISO  4  10 100  13 100  52 101  53 101
M  END
>  <TORSDO>  (31) 
F 19

>  <SCORE>  (31) 
-14.051

>  <name>  (31) 
30

>  <ligand_id>  (31) 
30

>  <original_smiles>  (31) 
[H]c1c(C(=O)N2C([H])([H])C([H])([H])C([H])([H])C([H])(n3nc(-c4c([H])c([H])c(Oc5c([H])c([H])c(F)c([H])c5F)c([H])c4[H])c(C(=O)N([H])[H])c3N([H])[H])C2([H])[H])sc(C2([H])C([H])([H])C([H])(C(C([H])([H])[H])(C([H])([H])[H])C([H])([H])Oc3c([H])c([H])c4c(c3[H])C([H])([H])N(C(=O)C([H])(N([H])C(=O)C([H])(N([H])C([H])([H])[H])C([H])([H])[H])C(C([H])([H])[H])(C([H])([H])[H])C([H])([H])[H])C([H])(C(=O)N([H])C3([H])c5c([H])c([H])c([H])c([H])c5C([H])([H])C([H])([H])C3([H])[H])C4([H])[H])C([H])([H])[N+]2([H])[H])c1[H]

>  <smiles>  (31) 
[H]c1c(C(=O)N2C([H])([H])C([H])([H])C([H])([H])C([H])(n3nc(-c4c([H])c([H])c(Oc5c([H])c([H])c(F)c([H])c5F)c([H])c4[H])c(C(=O)N([H])[H])c3N([H])[H])C2([H])[H])sc(C2([H])C([H])([H])C([H])(C(C([H])([H])[H])(C([H])([H])[H])C([H])([H])Oc3c([H])c([H])c4c(c3[H])C([H])([H])N(C(=O)C([H])(N([H])C(=O)C([H])(N([H])C([H])([H])[H])C([H])([H])[H])C(C([H])([H])[H])(C([H])([H])[H])C([H])([H])[H])C([H])(C(=O)N([H])C3([H])c5c([H])c([H])c([H])c([H])c5C([H])([H])C([H])([H])C3([H])[H])C4([H])[H])C([H])([H])[N+]2([H])[H])c1[H]

$$$$
31:0:0
     RDKit          3D

 95103  0  0  1  0  0  0  0  0999 V2000
  -27.1020  -23.6420   21.6950 C   0  0  0  0  0  1  0  0  0  0  0  0
  -28.1080  -23.8180   20.5390 C   0  0  2  0  0  0  0  0  0  0  0  0
  -29.1160  -25.7220   22.1210 C   0  0  0  0  0  1  0  0  0  0  0  0
  -30.1760  -25.2250   19.9200 C   0  0  0  0  0  1  0  0  0  0  0  0
  -28.8230  -25.3080   20.6630 C   0  0  1  0  0  0  0  0  0  0  0  0
  -28.3740  -26.5720   19.9950 O   0  0  0  0  0  0  0  0  0  0  0  0
  -24.6250  -31.9130   23.2500 C   0  0  0  0  0  0  0  0  0  0  0  0
  -27.2170  -27.3440   20.1910 C   0  0  0  0  0  0  0  0  0  0  0  0
  -23.4120  -30.5200   21.6130 C   0  0  0  0  0  3  0  0  0  0  0  0
  -24.8570  -28.9680   20.1910 C   0  0  0  0  0  0  0  0  0  0  0  0
  -25.9530  -30.8290   21.4280 C   0  0  0  0  0  2  0  0  0  0  0  0
  -26.0260  -29.4430   20.7970 C   0  0  0  0  0  0  0  0  0  0  0  0
  -27.2100  -28.6410   20.7970 C   0  0  0  0  0  3  0  0  0  0  0  0
  -26.0450  -26.9660   19.5040 C   0  0  0  0  0  3  0  0  0  0  0  0
  -24.8660  -27.7310   19.5370 C   0  0  0  0  0  3  0  0  0  0  0  0
  -23.6230  -29.8470   20.2320 C   0  0  0  0  0  2  0  0  0  0  0  0
  -24.6810  -31.1060   22.1510 N   0  0  0  0  0  0  0  0  0  0  0  0
  -23.5450  -32.1890   23.7920 O   0  0  0  0  0  0  0  0  0  0  0  0
  -22.7620  -29.4940   22.5730 C   0  0  0  0  0  0  0  0  0  0  0  0
  -21.4380  -29.2990   22.4470 N   0  0  0  0  0  0  0  0  0  0  0  0
  -23.4480  -28.8770   23.3930 O   0  0  0  0  0  0  0  0  0  0  0  0
  -20.9420  -29.8540   21.7650 H   0  0  0  0  0  0  0  0  0  0  0  0
  -18.0760  -28.0620   22.9380 C   0  0  0  0  0  0  0  0  0  0  0  0
  -20.6290  -28.3550   23.2190 C   0  0  0  0  0  3  0  0  0  0  0  0
  -20.7500  -26.9220   22.6510 C   0  0  0  0  0  2  0  0  0  0  0  0
  -19.6580  -26.5800   21.6320 C   0  0  0  0  0  2  0  0  0  0  0  0
  -18.2720  -26.7110   22.2700 C   0  0  0  0  0  2  0  0  0  0  0  0
  -19.1830  -28.8420   23.3690 C   0  0  0  0  0  0  0  0  0  0  0  0
  -18.9440  -30.1060   23.9510 C   0  0  0  0  0  3  0  0  0  0  0  0
  -17.6320  -30.5880   24.1120 C   0  0  0  0  0  3  0  0  0  0  0  0
  -16.5390  -29.8050   23.7010 C   0  0  0  0  0  3  0  0  0  0  0  0
  -16.7630  -28.5450   23.1190 C   0  0  0  0  0  3  0  0  0  0  0  0
  -25.9100  -32.5490   23.8600 C   0  0  0  0  0  3  0  0  0  0  0  0
  -25.5950  -33.9460   24.1950 N   0  0  0  0  0  0  0  0  0  0  0  0
  -25.9110  -35.0040   23.4360 C   0  0  0  0  0  0  0  0  0  0  0  0
  -26.5680  -34.9070   22.3970 O   0  0  0  0  0  0  0  0  0  0  0  0
  -25.0180  -34.0930   25.0110 H   0  0  0  0  0  0  0  0  0  0  0  0
  -24.1710  -36.7890   23.1030 C   0  0  0  0  0  1  0  0  0  0  0  0
  -25.4210  -36.3880   23.9030 C   0  0  0  0  0  3  0  0  0  0  0  0
  -27.5610  -37.2820   24.7150 C   0  0  0  0  0  1  0  0  0  0  0  0
  -26.4460  -37.4480   23.7840 N   0  0  0  0  0  0  0  0  0  0  0  0
  -26.0370  -38.3650   23.9430 H   0  0  0  0  0  0  0  0  0  0  0  0
  -26.4390  -31.7770   25.1310 C   0  0  1  0  0  0  0  0  0  0  0  0
  -25.3540  -31.5350   26.2050 C   0  0  0  0  0  1  0  0  0  0  0  0
  -27.0210  -30.3980   24.7360 C   0  0  0  0  0  1  0  0  0  0  0  0
  -27.5930  -32.5730   25.7840 C   0  0  0  0  0  1  0  0  0  0  0  0
  -26.8150  -22.5090   18.5990 C   0  0  0  0  0  1  0  0  0  0  0  0
  -27.2900  -23.8280   19.2170 C   0  0  0  0  0  2  0  0  0  0  0  0
  -29.1220  -22.5300   20.5970 C   0  0  0  0  0  3  0  0  0  0  0  0
  -28.6690  -21.0070   20.9600 C   0  0  0  0  0  3  0  0  0  0  0  0
  -31.0750  -20.0760   20.8230 C   0  0  0  0  0  3  0  0  0  0  0  0
  -31.6450  -17.6900   20.6980 C   0  0  0  0  0  3  0  0  0  0  0  0
  -29.3230  -18.3850   20.7800 C   0  0  0  0  0  3  0  0  0  0  0  0
  -32.0340  -19.0450   20.7700 C   0  0  0  0  0  0  0  0  0  0  0  0
  -29.6930  -19.7940   20.8320 C   0  0  0  0  0  0  0  0  0  0  0  0
  -30.2870  -17.2980   20.6920 C   0  0  0  0  0  0  0  0  0  0  0  0
  -33.5150  -19.3740   20.8030 C   0  0  0  0  0  1  0  0  0  0  0  0
  -30.6550  -14.7330   20.3000 C   0  0  0  0  0  0  0  0  0  0  0  0
  -30.4000  -12.4760   19.2540 C   0  0  0  0  0  2  0  0  0  0  0  0
  -29.4610  -12.5920   18.0350 C   0  0  0  0  0  2  0  0  0  0  0  0
  -27.9930  -12.4280   18.4720 C   0  0  0  0  0  2  0  0  0  0  0  0
  -27.6380  -13.2980   19.7110 C   0  0  0  0  0  3  0  0  0  0  0  0
  -28.7060  -13.1790   20.8210 C   0  0  0  0  0  2  0  0  0  0  0  0
  -30.0000  -13.5250   20.2200 N   0  0  0  0  0  0  0  0  0  0  0  0
  -31.8180  -14.8130   19.9000 O   0  0  0  0  0  0  0  0  0  0  0  0
  -29.9160  -15.8590   20.6400 N   0  0  0  0  0  0  0  0  0  0  0  0
  -28.9500  -15.6530   20.8380 H   0  0  0  0  0  0  0  0  0  0  0  0
  -25.2610  -13.8900   20.4800 C   0  0  0  0  0  0  0  0  0  0  0  0
  -24.1990  -13.1160   20.8620 C   0  0  0  0  0  0  0  0  0  0  0  0
  -24.6600  -11.7640   20.8150 C   0  0  0  0  0  0  0  0  0  0  0  0
  -26.2990  -13.0110   20.2160 N   0  0  0  0  0  0  0  0  0  0  0  0
  -25.9450  -11.7260   20.4810 N   0  0  0  0  0  0  0  0  0  0  0  0
  -23.9340  -10.5020   21.0110 C   0  0  0  0  0  0  0  0  0  0  0  0
  -24.3650   -9.5370   21.9470 C   0  0  0  0  0  3  0  0  0  0  0  0
  -23.6430   -8.3380   22.1280 C   0  0  0  0  0  3  0  0  0  0  0  0
  -22.4710   -8.0950   21.3690 C   0  0  0  0  0  0  0  0  0  0  0  0
  -22.0590   -9.0470   20.4200 C   0  0  0  0  0  3  0  0  0  0  0  0
  -22.7840  -10.2370   20.2390 C   0  0  0  0  0  3  0  0  0  0  0  0
  -21.7170   -6.9510   21.4610 O   0  0  0  0  0  0  0  0  0  0  0  0
  -21.6460   -6.2240   22.6230 C   0  0  0  0  0  0  0  0  0  0  0  0
  -21.1890   -6.7950   23.8320 C   0  0  0  0  0  3  0  0  0  0  0  0
  -21.0700   -5.9960   24.9860 C   0  0  0  0  0  3  0  0  0  0  0  0
  -21.3930   -4.6250   24.9310 C   0  0  0  0  0  0  0  0  0  0  0  0
  -21.8390   -4.0540   23.7270 C   0  0  0  0  0  3  0  0  0  0  0  0
  -21.9630   -4.8520   22.5760 C   0  0  0  0  0  0  0  0  0  0  0  0
  -22.3760   -4.2930   21.4120 F   0  0  0  0  0  0  0  0  0  0  0  0
  -21.2690   -3.8540   26.0370 F   0  0  0  0  0  0  0  0  0  0  0  0
  -22.8070  -13.5950   21.1560 C   0  0  0  0  0  0  0  0  0  0  0  0
  -22.0830  -12.8970   22.0260 N   0  0  0  0  0  0  0  0  0  0  0  0
  -22.3670  -14.6230   20.6490 O   0  0  0  0  0  0  0  0  0  0  0  0
  -22.4470  -12.0650   22.4650 H   0  0  0  0  0  0  0  0  0  0  0  0
  -21.1490  -13.2030   22.2540 H   0  0  0  0  0  0  0  0  0  0  0  0
  -25.4290  -15.2640   20.3180 N   0  0  0  0  0  0  0  0  0  0  0  0
  -24.6710  -15.9200   20.4680 H   0  0  0  0  0  0  0  0  0  0  0  0
  -26.2840  -15.7080   20.0060 H   0  0  0  0  0  0  0  0  0  0  0  0
  2 49  1  0
  2  5  1  0
  2  1  1  1
  5  4  1  6
  5  3  1  0
  6  8  1  0
  6  5  1  0
  7 18  2  0
  8 13  1  0
  9 17  1  0
  9 19  1  0
 10 16  1  0
 10 12  1  0
 11 17  1  0
 12 13  2  0
 12 11  1  0
 14 15  1  0
 14  8  2  0
 15 10  2  0
 16  9  1  0
 17  7  1  0
 19 21  2  0
 20 19  1  0
 22 20  1  0
 23 32  2  0
 23 28  1  0
 24 20  1  0
 24 28  1  0
 25 24  1  0
 26 27  1  0
 26 25  1  0
 27 23  1  0
 28 29  2  0
 29 30  1  0
 31 30  2  0
 32 31  1  0
 33  7  1  0
 33 34  1  0
 33 43  1  0
 34 37  1  0
 35 39  1  0
 35 34  1  0
 36 35  2  0
 39 38  1  0
 41 39  1  0
 41 42  1  0
 41 40  1  0
 43 46  1  1
 43 44  1  0
 45 43  1  0
 47 48  1  0
 48  2  1  0
 49 50  2  0
 51 55  1  0
 52 54  1  0
 53 55  2  0
 54 57  1  0
 54 51  2  0
 55 50  1  0
 56 52  2  0
 56 53  1  0
 58 66  1  0
 59 64  1  0
 60 61  1  0
 60 59  1  0
 62 61  1  0
 62 71  1  0
 62 63  1  0
 64 58  1  0
 64 63  1  0
 65 58  2  0
 66 56  1  0
 66 67  1  0
 68 69  2  0
 69 88  1  0
 70 69  1  0
 70 73  1  0
 71 68  1  0
 71 72  1  0
 72 70  2  0
 73 74  1  0
 74 75  2  0
 76 79  1  0
 76 75  1  0
 77 76  2  0
 78 77  1  0
 78 73  2  0
 79 80  1  0
 80 81  1  0
 81 82  2  0
 83 82  1  0
 83 87  1  0
 84 83  2  0
 85 80  2  0
 85 84  1  0
 86 85  1  0
 88 89  1  0
 89 92  1  0
 89 91  1  0
 90 88  2  0
 93 94  1  0
 93 68  1  0
 95 93  1  0
M  ISO  4   5 101   6 101  58 100  66 100
M  END
>  <TORSDO>  (32) 
F 21

>  <SCORE>  (32) 
-13.970

>  <name>  (32) 
31

>  <ligand_id>  (32) 
31

>  <original_smiles>  (32) 
[H]c1c([H])c([H])c2c(c1[H])C([H])([H])C([H])([H])C([H])([H])C2([H])N([H])C(=O)C1([H])N(C(=O)C([H])(N([H])C(=O)C([H])(N([H])C([H])([H])[H])C([H])([H])[H])C(C([H])([H])[H])(C([H])([H])[H])C([H])([H])[H])C([H])([H])c2c([H])c(OC(C([H])([H])[H])(C([H])([H])[H])C(C([H])([H])[H])(C([H])([H])C([H])([H])[H])C([H])([H])C([H])([H])c3c([H])c(N([H])C(=O)N4C([H])([H])C([H])([H])C([H])([H])C([H])(n5nc(-c6c([H])c([H])c(Oc7c([H])c([H])c(F)c([H])c7F)c([H])c6[H])c(C(=O)N([H])[H])c5N([H])[H])C4([H])[H])c([H])c(C([H])([H])[H])c3[H])c([H])c([H])c2C1([H])[H]

>  <smiles>  (32) 
[H]c1c([H])c([H])c2c(c1[H])C([H])([H])C([H])([H])C([H])([H])C2([H])N([H])C(=O)C1([H])N(C(=O)C([H])(N([H])C(=O)C([H])(N([H])C([H])([H])[H])C([H])([H])[H])C(C([H])([H])[H])(C([H])([H])[H])C([H])([H])[H])C([H])([H])c2c([H])c(OC(C([H])([H])[H])(C([H])([H])[H])C(C([H])([H])[H])(C([H])([H])C([H])([H])[H])C([H])([H])C([H])([H])c3c([H])c(N([H])C(=O)N4C([H])([H])C([H])([H])C([H])([H])C([H])(n5nc(-c6c([H])c([H])c(Oc7c([H])c([H])c(F)c([H])c7F)c([H])c6[H])c(C(=O)N([H])[H])c5N([H])[H])C4([H])[H])c([H])c(C([H])([H])[H])c3[H])c([H])c([H])c2C1([H])[H]

$$$$
32:0:0
     RDKit          3D

 96105  0  0  1  0  0  0  0  0999 V2000
  -28.2700  -21.9860   19.1590 C   0  0  0  0  0  2  0  0  0  0  0  0
  -28.8860  -22.6720   20.3510 C   0  0  0  0  0  3  0  0  0  0  0  0
  -29.6240  -21.4900   19.6330 C   0  0  1  0  0  0  0  0  0  0  0  0
  -29.0810  -19.0140   19.2420 C   0  0  0  0  0  3  0  0  0  0  0  0
  -30.4510  -18.1080   21.4890 C   0  0  0  0  0  3  0  0  0  0  0  0
  -29.6800  -19.9980   20.0710 C   0  0  0  0  0  0  0  0  0  0  0  0
  -29.1540  -17.6220   19.5100 C   0  0  0  0  0  0  0  0  0  0  0  0
  -29.8510  -17.1300   20.6490 C   0  0  0  0  0  0  0  0  0  0  0  0
  -30.3790  -19.5060   21.2030 C   0  0  0  0  0  0  0  0  0  0  0  0
  -28.4480  -16.6810   18.5490 C   0  0  0  0  0  1  0  0  0  0  0  0
  -30.9920  -20.3820   22.0350 F   0  0  0  0  0  0  0  0  0  0  0  0
  -30.5790  -14.6820   20.6630 C   0  0  0  0  0  0  0  0  0  0  0  0
  -30.3900  -12.4330   19.6310 C   0  0  0  0  0  2  0  0  0  0  0  0
  -29.4800  -12.5460   18.3880 C   0  0  0  0  0  2  0  0  0  0  0  0
  -27.9940  -12.4070   18.7760 C   0  0  0  0  0  2  0  0  0  0  0  0
  -27.6040  -13.2830   19.9960 C   0  0  0  0  0  3  0  0  0  0  0  0
  -28.6300  -13.1410   21.1420 C   0  0  0  0  0  2  0  0  0  0  0  0
  -29.9620  -13.4630   20.5970 N   0  0  0  0  0  0  0  0  0  0  0  0
  -31.7420  -14.8460   20.2790 O   0  0  0  0  0  0  0  0  0  0  0  0
  -29.7870  -15.7280   21.0360 N   0  0  0  0  0  0  0  0  0  0  0  0
  -28.8850  -15.4300   21.3730 H   0  0  0  0  0  0  0  0  0  0  0  0
  -25.1980  -13.9070   20.6590 C   0  0  0  0  0  0  0  0  0  0  0  0
  -24.1150  -13.1420   20.9960 C   0  0  0  0  0  0  0  0  0  0  0  0
  -24.5640  -11.7870   20.9680 C   0  0  0  0  0  0  0  0  0  0  0  0
  -26.2400  -13.0160   20.4440 N   0  0  0  0  0  0  0  0  0  0  0  0
  -25.8610  -11.7360   20.6880 N   0  0  0  0  0  0  0  0  0  0  0  0
  -23.8230  -10.5310   21.1330 C   0  0  0  0  0  0  0  0  0  0  0  0
  -24.2230   -9.5570   22.0760 C   0  0  0  0  0  3  0  0  0  0  0  0
  -23.4850   -8.3640   22.2290 C   0  0  0  0  0  3  0  0  0  0  0  0
  -22.3340   -8.1350   21.4410 C   0  0  0  0  0  0  0  0  0  0  0  0
  -21.9520   -9.0980   20.4880 C   0  0  0  0  0  3  0  0  0  0  0  0
  -22.6900  -10.2830   20.3330 C   0  0  0  0  0  3  0  0  0  0  0  0
  -21.5680   -6.9960   21.5040 O   0  0  0  0  0  0  0  0  0  0  0  0
  -21.4750   -6.2550   22.6550 C   0  0  0  0  0  0  0  0  0  0  0  0
  -20.9760   -6.8030   23.8560 C   0  0  0  0  0  3  0  0  0  0  0  0
  -20.8300   -5.9850   24.9950 C   0  0  0  0  0  3  0  0  0  0  0  0
  -21.1740   -4.6220   24.9340 C   0  0  0  0  0  0  0  0  0  0  0  0
  -21.6650   -4.0730   23.7360 C   0  0  0  0  0  3  0  0  0  0  0  0
  -21.8130   -4.8870   22.6000 C   0  0  0  0  0  0  0  0  0  0  0  0
  -22.2680   -4.3480   21.4420 F   0  0  0  0  0  0  0  0  0  0  0  0
  -21.0280   -3.8350   26.0250 F   0  0  0  0  0  0  0  0  0  0  0  0
  -22.7150  -13.6300   21.2360 C   0  0  0  0  0  0  0  0  0  0  0  0
  -21.9540  -12.9330   22.0730 N   0  0  0  0  0  0  0  0  0  0  0  0
  -22.3000  -14.6660   20.7170 O   0  0  0  0  0  0  0  0  0  0  0  0
  -22.2990  -12.0980   22.5220 H   0  0  0  0  0  0  0  0  0  0  0  0
  -21.0120  -13.2410   22.2690 H   0  0  0  0  0  0  0  0  0  0  0  0
  -25.3770  -15.2780   20.4990 N   0  0  0  0  0  0  0  0  0  0  0  0
  -24.6170  -15.9370   20.6290 H   0  0  0  0  0  0  0  0  0  0  0  0
  -26.2420  -15.7250   20.2280 H   0  0  0  0  0  0  0  0  0  0  0  0
  -30.8720  -21.8140   18.8170 C   0  0  0  0  0  3  0  0  0  0  0  0
  -31.0280  -20.9720   17.7960 F   0  0  0  0  0  0  0  0  0  0  0  0
  -31.9580  -21.7910   19.5880 F   0  0  0  0  0  0  0  0  0  0  0  0
  -29.2270  -24.1990   20.2160 C   0  0  0  0  0  2  0  0  0  0  0  0
  -28.1050  -25.2870   22.2510 C   0  0  0  0  0  1  0  0  0  0  0  0
  -28.1380  -25.2250   20.7150 C   0  0  0  0  0  3  0  0  0  0  0  0
  -28.3060  -26.6070   20.2330 O   0  0  0  0  0  0  0  0  0  0  0  0
  -24.5220  -31.9180   23.2560 C   0  0  0  0  0  0  0  0  0  0  0  0
  -27.1670  -27.4130   20.2040 C   0  0  0  0  0  0  0  0  0  0  0  0
  -23.3210  -30.5040   21.6270 C   0  0  0  0  0  3  0  0  0  0  0  0
  -24.7790  -28.9650   20.1990 C   0  0  0  0  0  0  0  0  0  0  0  0
  -25.8530  -30.8580   21.4250 C   0  0  0  0  0  2  0  0  0  0  0  0
  -25.9430  -29.4800   20.7860 C   0  0  0  0  0  0  0  0  0  0  0  0
  -27.1410  -28.7150   20.7800 C   0  0  0  0  0  3  0  0  0  0  0  0
  -25.9870  -26.9460   19.5840 C   0  0  0  0  0  3  0  0  0  0  0  0
  -24.8010  -27.7020   19.5890 C   0  0  0  0  0  3  0  0  0  0  0  0
  -23.5320  -29.8230   20.2480 C   0  0  0  0  0  2  0  0  0  0  0  0
  -24.5840  -31.1110   22.1580 N   0  0  0  0  0  0  0  0  0  0  0  0
  -23.4410  -32.1850   23.7970 O   0  0  0  0  0  0  0  0  0  0  0  0
  -22.6760  -29.4820   22.5930 C   0  0  0  0  0  0  0  0  0  0  0  0
  -21.3540  -29.2830   22.4630 N   0  0  0  0  0  0  0  0  0  0  0  0
  -23.3630  -28.8720   23.4160 O   0  0  0  0  0  0  0  0  0  0  0  0
  -20.8590  -29.8280   21.7710 H   0  0  0  0  0  0  0  0  0  0  0  0
  -17.9910  -28.0480   22.9600 C   0  0  0  0  0  0  0  0  0  0  0  0
  -20.5460  -28.3400   23.2380 C   0  0  0  0  0  3  0  0  0  0  0  0
  -20.6680  -26.9060   22.6720 C   0  0  0  0  0  2  0  0  0  0  0  0
  -19.5730  -26.5620   21.6570 C   0  0  0  0  0  2  0  0  0  0  0  0
  -18.1870  -26.6950   22.2960 C   0  0  0  0  0  2  0  0  0  0  0  0
  -19.1000  -28.8270   23.3880 C   0  0  0  0  0  0  0  0  0  0  0  0
  -18.8630  -30.0930   23.9670 C   0  0  0  0  0  3  0  0  0  0  0  0
  -17.5510  -30.5780   24.1280 C   0  0  0  0  0  3  0  0  0  0  0  0
  -16.4580  -29.7950   23.7170 C   0  0  0  0  0  3  0  0  0  0  0  0
  -16.6800  -28.5330   23.1390 C   0  0  0  0  0  3  0  0  0  0  0  0
  -25.8040  -32.5610   23.8700 C   0  0  0  0  0  3  0  0  0  0  0  0
  -26.3170  -31.8100   25.1600 C   0  0  1  0  0  0  0  0  0  0  0  0
  -25.2210  -31.5890   26.2290 C   0  0  0  0  0  1  0  0  0  0  0  0
  -26.9040  -30.4260   24.7950 C   0  0  0  0  0  1  0  0  0  0  0  0
  -27.4650  -32.6170   25.8120 C   0  0  0  0  0  1  0  0  0  0  0  0
  -25.4920  -33.9640   24.1740 N   0  0  0  0  0  0  0  0  0  0  0  0
  -25.8300  -35.0040   23.4000 C   0  0  0  0  0  0  0  0  0  0  0  0
  -26.5060  -34.8830   22.3740 O   0  0  0  0  0  0  0  0  0  0  0  0
  -24.8860  -34.1300   24.9640 H   0  0  0  0  0  0  0  0  0  0  0  0
  -24.1120  -36.7990   22.9980 C   0  0  0  0  0  1  0  0  0  0  0  0
  -25.3390  -36.4000   23.8320 C   0  0  0  0  0  3  0  0  0  0  0  0
  -27.4620  -37.2930   24.6840 C   0  0  0  0  0  1  0  0  0  0  0  0
  -26.3760  -37.4490   23.7210 N   0  0  0  0  0  0  0  0  0  0  0  0
  -25.9690  -38.3720   23.8480 H   0  0  0  0  0  0  0  0  0  0  0  0
  1  3  1  0
  1  2  1  0
  2 53  1  0
  3 50  1  6
  3  6  1  0
  3  2  1  0
  4  7  2  0
  4  6  1  0
  6  9  2  0
  7  8  1  0
  8 20  1  0
  8  5  2  0
  9  5  1  0
  9 11  1  0
 10  7  1  0
 12 20  1  0
 13 18  1  0
 14 15  1  0
 14 13  1  0
 16 15  1  0
 16 25  1  0
 16 17  1  0
 18 12  1  0
 18 17  1  0
 19 12  2  0
 20 21  1  0
 22 23  2  0
 23 42  1  0
 24 23  1  0
 24 27  1  0
 25 22  1  0
 25 26  1  0
 26 24  2  0
 27 28  1  0
 28 29  2  0
 30 33  1  0
 30 29  1  0
 31 30  2  0
 32 31  1  0
 32 27  2  0
 33 34  1  0
 34 35  1  0
 35 36  2  0
 37 36  1  0
 37 41  1  0
 38 37  2  0
 39 34  2  0
 39 38  1  0
 40 39  1  0
 42 43  1  0
 43 46  1  0
 43 45  1  0
 44 42  2  0
 47 48  1  0
 47 22  1  0
 49 47  1  0
 50 52  1  0
 51 50  1  0
 53 55  1  0
 55 54  1  0
 56 55  1  0
 57 68  2  0
 58 56  1  0
 58 63  1  0
 59 67  1  0
 59 69  1  0
 60 66  1  0
 60 62  1  0
 61 67  1  0
 62 61  1  0
 63 62  2  0
 64 65  1  0
 64 58  2  0
 65 60  2  0
 66 59  1  0
 67 57  1  0
 69 71  2  0
 70 69  1  0
 72 70  1  0
 73 82  2  0
 73 78  1  0
 74 70  1  0
 74 78  1  0
 75 74  1  0
 76 77  1  0
 76 75  1  0
 77 73  1  0
 78 79  2  0
 79 80  1  0
 81 80  2  0
 82 81  1  0
 83 57  1  0
 83 88  1  0
 83 84  1  0
 84 87  1  1
 84 85  1  0
 86 84  1  0
 88 91  1  0
 89 93  1  0
 89 88  1  0
 90 89  2  0
 93 92  1  0
 95 93  1  0
 95 96  1  0
 95 94  1  0
M  ISO  4  12 100  20 100  55 101  56 101
M  END
>  <TORSDO>  (33) 
F 20

>  <SCORE>  (33) 
-13.871

>  <name>  (33) 
32

>  <ligand_id>  (33) 
32

>  <original_smiles>  (33) 
[H]c1c([H])c([H])c2c(c1[H])C([H])([H])C([H])([H])C([H])([H])C2([H])N([H])C(=O)C1([H])N(C(=O)C([H])(N([H])C(=O)C([H])(N([H])C([H])([H])[H])C([H])([H])[H])C(C([H])([H])[H])(C([H])([H])[H])C([H])([H])[H])C([H])([H])c2c([H])c(OC([H])(C([H])([H])[H])C([H])([H])C3([H])C([H])([H])C3(c3c([H])c(C([H])([H])[H])c(N([H])C(=O)N4C([H])([H])C([H])([H])C([H])([H])C([H])(n5nc(-c6c([H])c([H])c(Oc7c([H])c([H])c(F)c([H])c7F)c([H])c6[H])c(C(=O)N([H])[H])c5N([H])[H])C4([H])[H])c([H])c3F)C([H])(F)F)c([H])c([H])c2C1([H])[H]

>  <smiles>  (33) 
[H]c1c([H])c([H])c2c(c1[H])C([H])([H])C([H])([H])C([H])([H])C2([H])N([H])C(=O)C1([H])N(C(=O)C([H])(N([H])C(=O)C([H])(N([H])C([H])([H])[H])C([H])([H])[H])C(C([H])([H])[H])(C([H])([H])[H])C([H])([H])[H])C([H])([H])c2c([H])c(OC([H])(C([H])([H])[H])C([H])([H])C3([H])C([H])([H])C3(c3c([H])c(C([H])([H])[H])c(N([H])C(=O)N4C([H])([H])C([H])([H])C([H])([H])C([H])(n5nc(-c6c([H])c([H])c(Oc7c([H])c([H])c(F)c([H])c7F)c([H])c6[H])c(C(=O)N([H])[H])c5N([H])[H])C4([H])[H])c([H])c3F)C([H])(F)F)c([H])c([H])c2C1([H])[H]

$$$$
33:0:0
     RDKit          3D

 96105  0  0  1  0  0  0  0  0999 V2000
  -29.6720  -23.5920   21.7020 C   0  0  0  0  0  2  0  0  0  0  0  0
  -30.6440  -22.4080   21.5290 C   0  0  0  0  0  2  0  0  0  0  0  0
  -29.3160  -23.9810   20.2780 C   0  0  0  0  0  3  0  0  0  0  0  0
  -30.3530  -21.7190   20.1600 C   0  0  2  0  0  0  0  0  0  0  0  0
  -29.2450  -22.6080   19.7250 O   0  0  0  0  0  0  0  0  0  0  0  0
  -29.0120  -19.4670   19.6620 C   0  0  0  0  0  3  0  0  0  0  0  0
  -30.8070  -18.0310   21.1570 C   0  0  0  0  0  3  0  0  0  0  0  0
  -28.9190  -18.0430   19.6980 C   0  0  0  0  0  0  0  0  0  0  0  0
  -29.8410  -17.2640   20.4600 C   0  0  0  0  0  0  0  0  0  0  0  0
  -30.0240  -20.1550   20.3730 C   0  0  0  0  0  0  0  0  0  0  0  0
  -27.8300  -17.3800   18.8780 C   0  0  0  0  0  1  0  0  0  0  0  0
  -30.8810  -19.3990   21.1270 N   0  0  0  0  0  0  0  0  0  0  0  0
  -30.5450  -14.7470   20.4030 C   0  0  0  0  0  0  0  0  0  0  0  0
  -30.3700  -12.4880   19.3620 C   0  0  0  0  0  2  0  0  0  0  0  0
  -29.4180  -12.5910   18.1490 C   0  0  0  0  0  2  0  0  0  0  0  0
  -27.9480  -12.4170   18.5830 C   0  0  0  0  0  2  0  0  0  0  0  0
  -27.5830  -13.2830   19.8180 C   0  0  0  0  0  3  0  0  0  0  0  0
  -28.6490  -13.1540   20.9300 C   0  0  0  0  0  2  0  0  0  0  0  0
  -29.9490  -13.5110   20.3410 N   0  0  0  0  0  0  0  0  0  0  0  0
  -31.7240  -14.9110   20.0770 O   0  0  0  0  0  0  0  0  0  0  0  0
  -29.6900  -15.8040   20.6140 N   0  0  0  0  0  0  0  0  0  0  0  0
  -28.7420  -15.4960   20.7580 H   0  0  0  0  0  0  0  0  0  0  0  0
  -25.1940  -13.8770   20.5540 C   0  0  0  0  0  0  0  0  0  0  0  0
  -24.1280  -13.1040   20.9210 C   0  0  0  0  0  0  0  0  0  0  0  0
  -24.5900  -11.7530   20.8800 C   0  0  0  0  0  0  0  0  0  0  0  0
  -26.2370  -12.9980   20.3080 N   0  0  0  0  0  0  0  0  0  0  0  0
  -25.8800  -11.7150   20.5670 N   0  0  0  0  0  0  0  0  0  0  0  0
  -23.8640  -10.4910   21.0650 C   0  0  0  0  0  0  0  0  0  0  0  0
  -24.2960   -9.5190   21.9940 C   0  0  0  0  0  3  0  0  0  0  0  0
  -23.5700   -8.3230   22.1670 C   0  0  0  0  0  3  0  0  0  0  0  0
  -22.3970   -8.0890   21.4100 C   0  0  0  0  0  0  0  0  0  0  0  0
  -21.9840   -9.0490   20.4700 C   0  0  0  0  0  3  0  0  0  0  0  0
  -22.7110  -10.2380   20.2950 C   0  0  0  0  0  3  0  0  0  0  0  0
  -21.6430   -6.9440   21.4920 O   0  0  0  0  0  0  0  0  0  0  0  0
  -21.5880   -6.1990   22.6430 C   0  0  0  0  0  0  0  0  0  0  0  0
  -21.1360   -6.7460   23.8650 C   0  0  0  0  0  3  0  0  0  0  0  0
  -21.0300   -5.9270   25.0060 C   0  0  0  0  0  3  0  0  0  0  0  0
  -21.3660   -4.5620   24.9280 C   0  0  0  0  0  0  0  0  0  0  0  0
  -21.8120   -4.0150   23.7120 C   0  0  0  0  0  3  0  0  0  0  0  0
  -21.9190   -4.8310   22.5730 C   0  0  0  0  0  0  0  0  0  0  0  0
  -22.3290   -4.2940   21.3990 F   0  0  0  0  0  0  0  0  0  0  0  0
  -21.2570   -3.7740   26.0230 F   0  0  0  0  0  0  0  0  0  0  0  0
  -22.7320  -13.5820   21.1980 C   0  0  0  0  0  0  0  0  0  0  0  0
  -22.0070  -12.8860   22.0680 N   0  0  0  0  0  0  0  0  0  0  0  0
  -22.2930  -14.6080   20.6810 O   0  0  0  0  0  0  0  0  0  0  0  0
  -22.3750  -12.0580   22.5090 H   0  0  0  0  0  0  0  0  0  0  0  0
  -21.0700  -13.1890   22.2950 H   0  0  0  0  0  0  0  0  0  0  0  0
  -25.3520  -15.2480   20.3870 N   0  0  0  0  0  0  0  0  0  0  0  0
  -24.5770  -15.8910   20.5010 H   0  0  0  0  0  0  0  0  0  0  0  0
  -26.1890  -15.6920   20.0390 H   0  0  0  0  0  0  0  0  0  0  0  0
  -31.0550  -21.2910   17.7130 C   0  0  0  0  0  1  0  0  0  0  0  0
  -32.8040  -21.0530   19.4700 C   0  0  0  0  0  1  0  0  0  0  0  0
  -32.0300  -23.2850   18.7840 C   0  0  0  0  0  1  0  0  0  0  0  0
  -31.5320  -21.8470   19.0750 C   0  0  2  0  0  0  0  0  0  0  0  0
  -28.1090  -25.0170   20.0680 C   0  0  0  0  0  2  0  0  0  0  0  0
  -28.3170  -26.4850   20.2540 O   0  0  0  0  0  0  0  0  0  0  0  0
  -24.6230  -31.9250   23.2880 C   0  0  0  0  0  0  0  0  0  0  0  0
  -27.2000  -27.3470   20.2090 C   0  0  0  0  0  0  0  0  0  0  0  0
  -23.4060  -30.5410   21.6450 C   0  0  0  0  0  3  0  0  0  0  0  0
  -24.8430  -28.9860   20.2110 C   0  0  0  0  0  0  0  0  0  0  0  0
  -25.9480  -30.8400   21.4560 C   0  0  0  0  0  2  0  0  0  0  0  0
  -26.0190  -29.4620   20.8050 C   0  0  0  0  0  0  0  0  0  0  0  0
  -27.2000  -28.6570   20.7910 C   0  0  0  0  0  3  0  0  0  0  0  0
  -25.9970  -26.9290   19.5940 C   0  0  0  0  0  3  0  0  0  0  0  0
  -24.8360  -27.7250   19.5960 C   0  0  0  0  0  3  0  0  0  0  0  0
  -23.6120  -29.8680   20.2640 C   0  0  0  0  0  2  0  0  0  0  0  0
  -24.6790  -31.1190   22.1870 N   0  0  0  0  0  0  0  0  0  0  0  0
  -23.5420  -32.2090   23.8250 O   0  0  0  0  0  0  0  0  0  0  0  0
  -22.7380  -29.5260   22.6050 C   0  0  0  0  0  0  0  0  0  0  0  0
  -21.4120  -29.3520   22.4730 N   0  0  0  0  0  0  0  0  0  0  0  0
  -23.4120  -28.8990   23.4260 O   0  0  0  0  0  0  0  0  0  0  0  0
  -20.9270  -29.9100   21.7850 H   0  0  0  0  0  0  0  0  0  0  0  0
  -18.0320  -28.1550   22.9540 C   0  0  0  0  0  0  0  0  0  0  0  0
  -20.5880  -28.4170   23.2410 C   0  0  0  0  0  3  0  0  0  0  0  0
  -20.6940  -26.9830   22.6710 C   0  0  0  0  0  2  0  0  0  0  0  0
  -19.5980  -26.6570   21.6500 C   0  0  0  0  0  2  0  0  0  0  0  0
  -18.2130  -26.8030   22.2840 C   0  0  0  0  0  2  0  0  0  0  0  0
  -19.1470  -28.9190   23.3890 C   0  0  0  0  0  0  0  0  0  0  0  0
  -18.9230  -30.1840   23.9760 C   0  0  0  0  0  3  0  0  0  0  0  0
  -17.6160  -30.6850   24.1300 C   0  0  0  0  0  3  0  0  0  0  0  0
  -16.5150  -29.9190   23.7110 C   0  0  0  0  0  3  0  0  0  0  0  0
  -16.7230  -28.6550   23.1290 C   0  0  0  0  0  3  0  0  0  0  0  0
  -25.9120  -32.5470   23.9090 C   0  0  0  0  0  3  0  0  0  0  0  0
  -26.4190  -31.7720   25.1880 C   0  0  1  0  0  0  0  0  0  0  0  0
  -25.3240  -31.5480   26.2550 C   0  0  0  0  0  1  0  0  0  0  0  0
  -26.9900  -30.3890   24.7990 C   0  0  0  0  0  1  0  0  0  0  0  0
  -27.5760  -32.5580   25.8500 C   0  0  0  0  0  1  0  0  0  0  0  0
  -25.6130  -33.9480   24.2390 N   0  0  0  0  0  0  0  0  0  0  0  0
  -25.9260  -34.9960   23.4640 C   0  0  0  0  0  0  0  0  0  0  0  0
  -26.5650  -34.8850   22.4150 O   0  0  0  0  0  0  0  0  0  0  0  0
  -25.0400  -34.1080   25.0540 H   0  0  0  0  0  0  0  0  0  0  0  0
  -24.1800  -36.7840   23.1670 C   0  0  0  0  0  1  0  0  0  0  0  0
  -25.4560  -36.3890   23.9270 C   0  0  0  0  0  3  0  0  0  0  0  0
  -27.6200  -37.2890   24.6580 C   0  0  0  0  0  1  0  0  0  0  0  0
  -26.4800  -37.4430   23.7590 N   0  0  0  0  0  0  0  0  0  0  0  0
  -26.0780  -38.3630   23.9110 H   0  0  0  0  0  0  0  0  0  0  0  0
  2  1  1  0
  3 55  1  0
  3  1  1  0
  4 54  1  0
  4 10  1  1
  4  2  1  0
  5  4  1  0
  5  3  1  0
  6  8  2  0
  6 10  1  0
  8  9  1  0
  9 21  1  0
  9  7  2  0
 10 12  2  0
 11  8  1  0
 12  7  1  0
 13 21  1  0
 14 19  1  0
 15 16  1  0
 15 14  1  0
 17 16  1  0
 17 26  1  0
 17 18  1  0
 19 13  1  0
 19 18  1  0
 20 13  2  0
 21 22  1  0
 23 24  2  0
 24 43  1  0
 25 24  1  0
 25 28  1  0
 26 23  1  0
 26 27  1  0
 27 25  2  0
 28 29  1  0
 29 30  2  0
 31 34  1  0
 31 30  1  0
 32 31  2  0
 33 32  1  0
 33 28  2  0
 34 35  1  0
 35 36  1  0
 36 37  2  0
 38 37  1  0
 38 42  1  0
 39 38  2  0
 40 35  2  0
 40 39  1  0
 41 40  1  0
 43 44  1  0
 44 47  1  0
 44 46  1  0
 45 43  2  0
 48 49  1  0
 48 23  1  0
 50 48  1  0
 54 51  1  6
 53 54  1  0
 54 52  1  0
 55 56  1  0
 57 68  2  0
 58 56  1  0
 58 63  1  0
 59 67  1  0
 59 69  1  0
 60 66  1  0
 60 62  1  0
 61 67  1  0
 62 61  1  0
 63 62  2  0
 64 65  1  0
 64 58  2  0
 65 60  2  0
 66 59  1  0
 67 57  1  0
 69 71  2  0
 70 69  1  0
 72 70  1  0
 73 82  2  0
 73 78  1  0
 74 70  1  0
 74 78  1  0
 75 74  1  0
 76 77  1  0
 76 75  1  0
 77 73  1  0
 78 79  2  0
 79 80  1  0
 81 80  2  0
 82 81  1  0
 83 57  1  0
 83 88  1  0
 83 84  1  0
 84 87  1  1
 84 85  1  0
 86 84  1  0
 88 91  1  0
 89 93  1  0
 89 88  1  0
 90 89  2  0
 93 92  1  0
 95 96  1  0
 95 93  1  0
 95 94  1  0
M  ISO  4  13 100  21 100  55 101  56 101
M  END
>  <TORSDO>  (34) 
F 19

>  <SCORE>  (34) 
-14.787

>  <name>  (34) 
33

>  <ligand_id>  (34) 
33

>  <original_smiles>  (34) 
[H]c1nc(C2(C(C([H])([H])[H])(C([H])([H])[H])C([H])([H])[H])OC([H])(C([H])([H])Oc3c([H])c([H])c4c(c3[H])C([H])([H])N(C(=O)C([H])(N([H])C(=O)C([H])(N([H])C([H])([H])[H])C([H])([H])[H])C(C([H])([H])[H])(C([H])([H])[H])C([H])([H])[H])C([H])(C(=O)N([H])C3([H])c5c([H])c([H])c([H])c([H])c5C([H])([H])C([H])([H])C3([H])[H])C4([H])[H])C([H])([H])C2([H])[H])c([H])c(C([H])([H])[H])c1N([H])C(=O)N1C([H])([H])C([H])([H])C([H])([H])C([H])(n2nc(-c3c([H])c([H])c(Oc4c([H])c([H])c(F)c([H])c4F)c([H])c3[H])c(C(=O)N([H])[H])c2N([H])[H])C1([H])[H]

>  <smiles>  (34) 
[H]c1nc(C2(C(C([H])([H])[H])(C([H])([H])[H])C([H])([H])[H])OC([H])(C([H])([H])Oc3c([H])c([H])c4c(c3[H])C([H])([H])N(C(=O)C([H])(N([H])C(=O)C([H])(N([H])C([H])([H])[H])C([H])([H])[H])C(C([H])([H])[H])(C([H])([H])[H])C([H])([H])[H])C([H])(C(=O)N([H])C3([H])c5c([H])c([H])c([H])c([H])c5C([H])([H])C([H])([H])C3([H])[H])C4([H])[H])C([H])([H])C2([H])[H])c([H])c(C([H])([H])[H])c1N([H])C(=O)N1C([H])([H])C([H])([H])C([H])([H])C([H])(n2nc(-c3c([H])c([H])c(Oc4c([H])c([H])c(F)c([H])c4F)c([H])c3[H])c(C(=O)N([H])[H])c2N([H])[H])C1([H])[H]

$$$$
34:0:0
     RDKit          3D

 94103  0  0  1  0  0  0  0  0999 V2000
  -28.7930  -18.7550   21.5100 C   0  0  0  0  0  3  0  0  0  0  0  0
  -29.1010  -17.3680   21.5190 C   0  0  0  0  0  3  0  0  0  0  0  0
  -31.0200  -17.6210   19.9620 C   0  0  0  0  0  3  0  0  0  0  0  0
  -30.6920  -18.9870   19.9760 C   0  0  0  0  0  0  0  0  0  0  0  0
  -29.6090  -19.5750   20.7240 C   0  0  0  0  0  0  0  0  0  0  0  0
  -30.1780  -16.7930   20.7680 C   0  0  0  0  0  0  0  0  0  0  0  0
  -29.3970  -22.1600   20.0750 C   0  0  0  0  0  0  0  0  0  0  0  0
  -31.0880  -20.3140   19.3870 C   0  0  0  0  0  2  0  0  0  0  0  0
  -29.9660  -20.8870   20.1930 N   0  0  0  0  0  0  0  0  0  0  0  0
  -28.2760  -22.3750   20.5390 O   0  0  0  0  0  0  0  0  0  0  0  0
  -30.9200  -14.4880   20.0680 C   0  0  0  0  0  0  0  0  0  0  0  0
  -30.5820  -12.3490   18.8780 C   0  0  0  0  0  2  0  0  0  0  0  0
  -29.5650  -12.5750   17.7400 C   0  0  0  0  0  2  0  0  0  0  0  0
  -28.1160  -12.4270   18.2520 C   0  0  0  0  0  2  0  0  0  0  0  0
  -27.8580  -13.2340   19.5530 C   0  0  0  0  0  3  0  0  0  0  0  0
  -28.9750  -12.9660   20.5860 C   0  0  0  0  0  2  0  0  0  0  0  0
  -30.2700  -13.2960   19.9600 N   0  0  0  0  0  0  0  0  0  0  0  0
  -31.9640  -14.7430   19.4600 O   0  0  0  0  0  0  0  0  0  0  0  0
  -30.3060  -15.3730   20.8740 N   0  0  0  0  0  0  0  0  0  0  0  0
  -29.5980  -14.9370   21.4420 H   0  0  0  0  0  0  0  0  0  0  0  0
  -25.5110  -13.8360   20.4260 C   0  0  0  0  0  0  0  0  0  0  0  0
  -24.4600  -13.0600   20.8370 C   0  0  0  0  0  0  0  0  0  0  0  0
  -24.9060  -11.7060   20.7330 C   0  0  0  0  0  0  0  0  0  0  0  0
  -26.5320  -12.9560   20.1020 N   0  0  0  0  0  0  0  0  0  0  0  0
  -26.1730  -11.6680   20.3400 N   0  0  0  0  0  0  0  0  0  0  0  0
  -24.1830  -10.4430   20.9320 C   0  0  0  0  0  0  0  0  0  0  0  0
  -24.6150   -9.4850   21.8750 C   0  0  0  0  0  3  0  0  0  0  0  0
  -23.8950   -8.2860   22.0590 C   0  0  0  0  0  3  0  0  0  0  0  0
  -22.7280   -8.0350   21.3010 C   0  0  0  0  0  0  0  0  0  0  0  0
  -22.3140   -8.9820   20.3470 C   0  0  0  0  0  3  0  0  0  0  0  0
  -23.0350  -10.1730   20.1610 C   0  0  0  0  0  3  0  0  0  0  0  0
  -21.9780   -6.8870   21.3930 O   0  0  0  0  0  0  0  0  0  0  0  0
  -21.8560   -6.2020   22.5750 C   0  0  0  0  0  0  0  0  0  0  0  0
  -21.3190   -6.8040   23.7330 C   0  0  0  0  0  3  0  0  0  0  0  0
  -21.1460   -6.0430   24.9070 C   0  0  0  0  0  3  0  0  0  0  0  0
  -21.5000   -4.6800   24.9210 C   0  0  0  0  0  0  0  0  0  0  0  0
  -22.0290   -4.0770   23.7660 C   0  0  0  0  0  3  0  0  0  0  0  0
  -22.2030   -4.8350   22.5960 C   0  0  0  0  0  0  0  0  0  0  0  0
  -22.6950   -4.2450   21.4800 F   0  0  0  0  0  0  0  0  0  0  0  0
  -21.3260   -3.9460   26.0450 F   0  0  0  0  0  0  0  0  0  0  0  0
  -23.0870  -13.5360   21.2160 C   0  0  0  0  0  0  0  0  0  0  0  0
  -22.4100  -12.8160   22.1030 N   0  0  0  0  0  0  0  0  0  0  0  0
  -22.6250  -14.5820   20.7620 O   0  0  0  0  0  0  0  0  0  0  0  0
  -22.7960  -11.9690   22.4950 H   0  0  0  0  0  0  0  0  0  0  0  0
  -21.4910  -13.1170   22.3960 H   0  0  0  0  0  0  0  0  0  0  0  0
  -25.6750  -15.2110   20.2840 N   0  0  0  0  0  0  0  0  0  0  0  0
  -24.9240  -15.8670   20.4670 H   0  0  0  0  0  0  0  0  0  0  0  0
  -26.5140  -15.6550   19.9320 H   0  0  0  0  0  0  0  0  0  0  0  0
  -30.1690  -23.2570   19.3060 C   0  0  0  0  0  2  0  0  0  0  0  0
  -31.0480  -25.5760   18.9590 C   0  0  0  0  0  1  0  0  0  0  0  0
  -30.3950  -24.8820   21.2740 C   0  0  0  0  0  1  0  0  0  0  0  0
  -30.0300  -24.7490   19.7780 C   0  0  2  0  0  0  0  0  0  0  0  0
  -28.6100  -25.3450   19.5280 C   0  0  0  0  0  2  0  0  0  0  0  0
  -28.5860  -26.7440   19.8540 O   0  0  0  0  0  0  0  0  0  0  0  0
  -24.7070  -31.7200   23.1360 C   0  0  0  0  0  0  0  0  0  0  0  0
  -27.3800  -27.4180   19.8760 C   0  0  0  0  0  0  0  0  0  0  0  0
  -23.4990  -30.3580   21.4610 C   0  0  0  0  0  3  0  0  0  0  0  0
  -24.9560  -28.8870   19.9700 C   0  0  0  0  0  0  0  0  0  0  0  0
  -26.0180  -30.7570   21.2470 C   0  0  0  0  0  2  0  0  0  0  0  0
  -26.1140  -29.4090   20.5600 C   0  0  0  0  0  0  0  0  0  0  0  0
  -27.3240  -28.6840   20.5070 C   0  0  0  0  0  3  0  0  0  0  0  0
  -26.2000  -26.9050   19.2890 C   0  0  0  0  0  3  0  0  0  0  0  0
  -24.9950  -27.6330   19.3340 C   0  0  0  0  0  3  0  0  0  0  0  0
  -23.7000  -29.7250   20.0590 C   0  0  0  0  0  2  0  0  0  0  0  0
  -24.7610  -30.9590   22.0070 N   0  0  0  0  0  0  0  0  0  0  0  0
  -23.6290  -31.9590   23.6970 O   0  0  0  0  0  0  0  0  0  0  0  0
  -22.8720  -29.2980   22.3950 C   0  0  0  0  0  0  0  0  0  0  0  0
  -21.5500  -29.0980   22.2710 N   0  0  0  0  0  0  0  0  0  0  0  0
  -23.5710  -28.6580   23.1860 O   0  0  0  0  0  0  0  0  0  0  0  0
  -21.0450  -29.6670   21.6060 H   0  0  0  0  0  0  0  0  0  0  0  0
  -18.2010  -27.8300   22.7470 C   0  0  0  0  0  0  0  0  0  0  0  0
  -20.7540  -28.1230   23.0170 C   0  0  0  0  0  3  0  0  0  0  0  0
  -20.8790  -26.7130   22.3980 C   0  0  0  0  0  2  0  0  0  0  0  0
  -19.7780  -26.4020   21.3780 C   0  0  0  0  0  2  0  0  0  0  0  0
  -18.3970  -26.5040   22.0310 C   0  0  0  0  0  2  0  0  0  0  0  0
  -19.3080  -28.5980   23.1950 C   0  0  0  0  0  0  0  0  0  0  0  0
  -19.0700  -29.8400   23.8230 C   0  0  0  0  0  3  0  0  0  0  0  0
  -17.7580  -30.3150   24.0060 C   0  0  0  0  0  3  0  0  0  0  0  0
  -16.6650  -29.5440   23.5740 C   0  0  0  0  0  3  0  0  0  0  0  0
  -16.8870  -28.3030   22.9500 C   0  0  0  0  0  3  0  0  0  0  0  0
  -25.9920  -32.3460   23.7630 C   0  0  0  0  0  3  0  0  0  0  0  0
  -26.5280  -31.5470   25.0130 C   0  0  1  0  0  0  0  0  0  0  0  0
  -25.4480  -31.2690   26.0840 C   0  0  0  0  0  1  0  0  0  0  0  0
  -27.1210  -30.1870   24.5770 C   0  0  0  0  0  1  0  0  0  0  0  0
  -27.6780  -32.3340   25.6870 C   0  0  0  0  0  1  0  0  0  0  0  0
  -25.6740  -33.7320   24.1310 N   0  0  0  0  0  0  0  0  0  0  0  0
  -25.9900  -34.8060   23.3950 C   0  0  0  0  0  0  0  0  0  0  0  0
  -26.6500  -34.7340   22.3550 O   0  0  0  0  0  0  0  0  0  0  0  0
  -25.0850  -33.8610   24.9410 H   0  0  0  0  0  0  0  0  0  0  0  0
  -24.2400  -36.5870   23.1030 C   0  0  0  0  0  1  0  0  0  0  0  0
  -25.4940  -36.1780   23.8910 C   0  0  0  0  0  3  0  0  0  0  0  0
  -27.6260  -37.0650   24.7250 C   0  0  0  0  0  1  0  0  0  0  0  0
  -26.5150  -37.2430   23.7940 N   0  0  0  0  0  0  0  0  0  0  0  0
  -26.1010  -38.1560   23.9650 H   0  0  0  0  0  0  0  0  0  0  0  0
  1  2  1  0
  3  4  2  0
  3  6  1  0
  4  5  1  0
  5  1  2  0
  6 19  1  0
  6  2  2  0
  7  9  1  0
  7 10  2  0
  8  4  1  0
  8  9  1  0
  9  5  1  0
 11 19  1  0
 12 17  1  0
 13 14  1  0
 13 12  1  0
 15 14  1  0
 15 24  1  0
 15 16  1  0
 17 11  1  0
 17 16  1  0
 18 11  2  0
 19 20  1  0
 21 22  2  0
 22 41  1  0
 23 22  1  0
 23 26  1  0
 24 25  1  0
 24 21  1  0
 25 23  2  0
 26 27  1  0
 27 28  2  0
 29 32  1  0
 29 28  1  0
 30 29  2  0
 31 30  1  0
 31 26  2  0
 32 33  1  0
 33 38  2  0
 33 34  1  0
 34 35  2  0
 35 36  1  0
 36 40  1  0
 37 36  2  0
 38 37  1  0
 39 38  1  0
 41 42  1  0
 42 45  1  0
 42 44  1  0
 43 41  2  0
 46 21  1  0
 46 47  1  0
 48 46  1  0
 49 52  1  0
 49  7  1  0
 52 50  1  6
 52 51  1  0
 53 52  1  0
 53 54  1  0
 54 56  1  0
 55 66  2  0
 56 61  1  0
 57 65  1  0
 57 67  1  0
 58 64  1  0
 58 60  1  0
 59 65  1  0
 60 59  1  0
 61 60  2  0
 62 63  1  0
 62 56  2  0
 63 58  2  0
 64 57  1  0
 65 55  1  0
 67 69  2  0
 68 67  1  0
 70 68  1  0
 71 80  2  0
 71 76  1  0
 72 68  1  0
 72 76  1  0
 73 72  1  0
 74 75  1  0
 74 73  1  0
 75 71  1  0
 76 77  2  0
 77 78  1  0
 79 78  2  0
 80 79  1  0
 81 55  1  0
 81 86  1  0
 81 82  1  0
 82 85  1  1
 82 83  1  0
 84 82  1  0
 86 89  1  0
 87 91  1  0
 87 86  1  0
 88 87  2  0
 91 90  1  0
 93 91  1  0
 93 94  1  0
 93 92  1  0
M  ISO  4  11 100  19 100  53 101  54 101
M  END
>  <TORSDO>  (35) 
F 19

>  <SCORE>  (35) 
-12.385

>  <name>  (35) 
34

>  <ligand_id>  (35) 
34

>  <original_smiles>  (35) 
[H]c1c([H])c([H])c2c(c1[H])C([H])([H])C([H])([H])C([H])([H])C2([H])N([H])C(=O)C1([H])N(C(=O)C([H])(N([H])C(=O)C([H])(N([H])C([H])([H])[H])C([H])([H])[H])C(C([H])([H])[H])(C([H])([H])[H])C([H])([H])[H])C([H])([H])c2c([H])c(OC([H])([H])C(C([H])([H])[H])(C([H])([H])[H])C([H])([H])C(=O)N3c4c([H])c([H])c(N([H])C(=O)N5C([H])([H])C([H])([H])C([H])([H])C([H])(n6nc(-c7c([H])c([H])c(Oc8c([H])c([H])c(F)c([H])c8F)c([H])c7[H])c(C(=O)N([H])[H])c6N([H])[H])C5([H])[H])c([H])c4C3([H])[H])c([H])c([H])c2C1([H])[H]

>  <smiles>  (35) 
[H]c1c([H])c([H])c2c(c1[H])C([H])([H])C([H])([H])C([H])([H])C2([H])N([H])C(=O)C1([H])N(C(=O)C([H])(N([H])C(=O)C([H])(N([H])C([H])([H])[H])C([H])([H])[H])C(C([H])([H])[H])(C([H])([H])[H])C([H])([H])[H])C([H])([H])c2c([H])c(OC([H])([H])C(C([H])([H])[H])(C([H])([H])[H])C([H])([H])C(=O)N3c4c([H])c([H])c(N([H])C(=O)N5C([H])([H])C([H])([H])C([H])([H])C([H])(n6nc(-c7c([H])c([H])c(Oc8c([H])c([H])c(F)c([H])c8F)c([H])c7[H])c(C(=O)N([H])[H])c6N([H])[H])C5([H])[H])c([H])c4C3([H])[H])c([H])c([H])c2C1([H])[H]

$$$$
35:0:0
     RDKit          3D

 91100  0  0  1  0  0  0  0  0999 V2000
  -28.8280  -22.4520   20.3940 C   0  0  0  0  0  0  0  0  0  0  0  0
  -29.2680  -21.4020   19.6290 N   0  0  0  0  0  0  0  0  0  0  0  0
  -28.4380  -22.2900   21.5540 O   0  0  0  0  0  0  0  0  0  0  0  0
  -29.4690  -21.6710   18.6760 H   0  0  0  0  0  0  0  0  0  0  0  0
  -30.6730  -14.7100   20.0780 C   0  0  0  0  0  0  0  0  0  0  0  0
  -30.4190  -12.4580   19.0770 C   0  0  0  0  0  2  0  0  0  0  0  0
  -29.4300  -12.5780   17.8970 C   0  0  0  0  0  2  0  0  0  0  0  0
  -27.9740  -12.4310   18.3810 C   0  0  0  0  0  2  0  0  0  0  0  0
  -27.6590  -13.2920   19.6350 C   0  0  0  0  0  3  0  0  0  0  0  0
  -28.7670  -13.1720   20.7060 C   0  0  0  0  0  2  0  0  0  0  0  0
  -30.0460  -13.4920   20.0590 N   0  0  0  0  0  0  0  0  0  0  0  0
  -31.8740  -14.8100   19.8100 O   0  0  0  0  0  0  0  0  0  0  0  0
  -29.8780  -17.9920   21.4630 C   0  0  0  0  0  3  0  0  0  0  0  0
  -29.6780  -19.4010   21.2100 C   0  0  0  0  0  3  0  0  0  0  0  0
  -29.4350  -19.0800   18.7710 C   0  0  0  0  0  3  0  0  0  0  0  0
  -29.6260  -17.7080   19.0440 C   0  0  0  0  0  0  0  0  0  0  0  0
  -29.8450  -17.1460   20.3400 C   0  0  0  0  0  0  0  0  0  0  0  0
  -29.4460  -19.9700   19.8980 C   0  0  0  0  0  0  0  0  0  0  0  0
  -29.6570  -16.3250   18.4340 C   0  0  0  0  0  2  0  0  0  0  0  0
  -29.8360  -15.7790   19.8430 N   0  0  0  0  0  0  0  0  0  0  0  0
  -25.3080  -13.8860   20.4710 C   0  0  0  0  0  0  0  0  0  0  0  0
  -24.2500  -13.1100   20.8620 C   0  0  0  0  0  0  0  0  0  0  0  0
  -24.7060  -11.7590   20.7920 C   0  0  0  0  0  0  0  0  0  0  0  0
  -26.3360  -13.0040   20.1770 N   0  0  0  0  0  0  0  0  0  0  0  0
  -25.9830  -11.7190   20.4350 N   0  0  0  0  0  0  0  0  0  0  0  0
  -23.9820  -10.4960   20.9830 C   0  0  0  0  0  0  0  0  0  0  0  0
  -24.4210   -9.5270   21.9110 C   0  0  0  0  0  3  0  0  0  0  0  0
  -23.6990   -8.3280   22.0920 C   0  0  0  0  0  3  0  0  0  0  0  0
  -22.5230   -8.0880   21.3420 C   0  0  0  0  0  0  0  0  0  0  0  0
  -22.1020   -9.0470   20.4030 C   0  0  0  0  0  3  0  0  0  0  0  0
  -22.8250  -10.2380   20.2210 C   0  0  0  0  0  3  0  0  0  0  0  0
  -21.7700   -6.9430   21.4340 O   0  0  0  0  0  0  0  0  0  0  0  0
  -21.6950   -6.2200   22.5980 C   0  0  0  0  0  0  0  0  0  0  0  0
  -21.2130   -6.7860   23.7980 C   0  0  0  0  0  3  0  0  0  0  0  0
  -21.0890   -5.9890   24.9530 C   0  0  0  0  0  3  0  0  0  0  0  0
  -21.4350   -4.6240   24.9080 C   0  0  0  0  0  0  0  0  0  0  0  0
  -21.9090   -4.0570   23.7120 C   0  0  0  0  0  3  0  0  0  0  0  0
  -22.0360   -4.8520   22.5610 C   0  0  0  0  0  0  0  0  0  0  0  0
  -22.4730   -4.2950   21.4040 F   0  0  0  0  0  0  0  0  0  0  0  0
  -21.3090   -3.8560   26.0140 F   0  0  0  0  0  0  0  0  0  0  0  0
  -22.8660  -13.5880   21.1910 C   0  0  0  0  0  0  0  0  0  0  0  0
  -22.1590  -12.8820   22.0670 N   0  0  0  0  0  0  0  0  0  0  0  0
  -22.4170  -14.6260   20.7060 O   0  0  0  0  0  0  0  0  0  0  0  0
  -22.5310  -12.0440   22.4870 H   0  0  0  0  0  0  0  0  0  0  0  0
  -21.2310  -13.1880   22.3180 H   0  0  0  0  0  0  0  0  0  0  0  0
  -25.4750  -15.2580   20.3140 N   0  0  0  0  0  0  0  0  0  0  0  0
  -24.7310  -15.9250   20.4830 H   0  0  0  0  0  0  0  0  0  0  0  0
  -26.3340  -15.6980   20.0050 H   0  0  0  0  0  0  0  0  0  0  0  0
  -28.8010  -23.9090   19.7720 C   0  0  0  0  0  3  0  0  0  0  0  0
  -28.1850  -25.1010   20.6350 C   0  0  0  0  0  3  0  0  0  0  0  0
  -28.3780  -26.5110   20.2100 O   0  0  0  0  0  0  0  0  0  0  0  0
  -24.6080  -31.8910   23.2410 C   0  0  0  0  0  0  0  0  0  0  0  0
  -27.2560  -27.3460   20.1980 C   0  0  0  0  0  0  0  0  0  0  0  0
  -23.4220  -30.4830   21.5960 C   0  0  0  0  0  3  0  0  0  0  0  0
  -24.8830  -28.9330   20.1840 C   0  0  0  0  0  0  0  0  0  0  0  0
  -25.9580  -30.8150   21.4240 C   0  0  0  0  0  2  0  0  0  0  0  0
  -26.0480  -29.4360   20.7800 C   0  0  0  0  0  0  0  0  0  0  0  0
  -27.2410  -28.6540   20.7740 C   0  0  0  0  0  3  0  0  0  0  0  0
  -26.0710  -26.8930   19.5800 C   0  0  0  0  0  3  0  0  0  0  0  0
  -24.8960  -27.6660   19.5790 C   0  0  0  0  0  3  0  0  0  0  0  0
  -23.6430  -29.8000   20.2220 C   0  0  0  0  0  2  0  0  0  0  0  0
  -24.6820  -31.0800   22.1440 N   0  0  0  0  0  0  0  0  0  0  0  0
  -23.5200  -32.1640   23.7690 O   0  0  0  0  0  0  0  0  0  0  0  0
  -22.7580  -29.4670   22.5560 C   0  0  0  0  0  0  0  0  0  0  0  0
  -21.4310  -29.2910   22.4260 N   0  0  0  0  0  0  0  0  0  0  0  0
  -23.4330  -28.8390   23.3740 O   0  0  0  0  0  0  0  0  0  0  0  0
  -20.9450  -29.8520   21.7420 H   0  0  0  0  0  0  0  0  0  0  0  0
  -18.0490  -28.1120   22.9300 C   0  0  0  0  0  0  0  0  0  0  0  0
  -20.6100  -28.3520   23.1930 C   0  0  0  0  0  3  0  0  0  0  0  0
  -20.6990  -26.9230   22.6070 C   0  0  0  0  0  2  0  0  0  0  0  0
  -19.5930  -26.6150   21.5930 C   0  0  0  0  0  2  0  0  0  0  0  0
  -18.2150  -26.7660   22.2440 C   0  0  0  0  0  2  0  0  0  0  0  0
  -19.1750  -28.8640   23.3600 C   0  0  0  0  0  0  0  0  0  0  0  0
  -18.9670  -30.1240   23.9610 C   0  0  0  0  0  3  0  0  0  0  0  0
  -17.6660  -30.6330   24.1360 C   0  0  0  0  0  3  0  0  0  0  0  0
  -16.5550  -29.8770   23.7230 C   0  0  0  0  0  3  0  0  0  0  0  0
  -16.7480  -28.6180   23.1270 C   0  0  0  0  0  3  0  0  0  0  0  0
  -25.8830  -32.5310   23.8700 C   0  0  0  0  0  3  0  0  0  0  0  0
  -25.5660  -33.9320   24.1860 N   0  0  0  0  0  0  0  0  0  0  0  0
  -25.9080  -34.9820   23.4280 C   0  0  0  0  0  0  0  0  0  0  0  0
  -26.5910  -34.8720   22.4050 O   0  0  0  0  0  0  0  0  0  0  0  0
  -24.9570  -34.0890   24.9760 H   0  0  0  0  0  0  0  0  0  0  0  0
  -24.1880  -36.7760   23.0390 C   0  0  0  0  0  1  0  0  0  0  0  0
  -25.4150  -36.3720   23.8710 C   0  0  0  0  0  3  0  0  0  0  0  0
  -27.5360  -37.2600   24.7380 C   0  0  0  0  0  1  0  0  0  0  0  0
  -26.4510  -37.4230   23.7720 N   0  0  0  0  0  0  0  0  0  0  0  0
  -26.0440  -38.3450   23.9050 H   0  0  0  0  0  0  0  0  0  0  0  0
  -26.3860  -31.7730   25.1600 C   0  0  1  0  0  0  0  0  0  0  0  0
  -25.2820  -31.5400   26.2180 C   0  0  0  0  0  1  0  0  0  0  0  0
  -26.9760  -30.3940   24.7840 C   0  0  0  0  0  1  0  0  0  0  0  0
  -27.5270  -32.5740   25.8280 C   0  0  0  0  0  1  0  0  0  0  0  0
  1  3  2  0
  2 18  1  0
  2  1  1  0
  4  2  1  0
  6 11  1  0
  7  8  1  0
  7  6  1  0
  9  8  1  0
  9 24  1  0
  9 10  1  0
 11  5  1  0
 11 10  1  0
 12  5  2  0
 14 13  1  0
 15 16  2  0
 15 18  1  0
 16 17  1  0
 17 13  2  0
 18 14  2  0
 19 16  1  0
 19 20  1  0
 20  5  1  0
 20 17  1  0
 21 22  2  0
 22 41  1  0
 23 22  1  0
 23 26  1  0
 24 25  1  0
 24 21  1  0
 25 23  2  0
 26 27  1  0
 27 28  2  0
 29 32  1  0
 29 28  1  0
 30 29  2  0
 31 30  1  0
 31 26  2  0
 32 33  1  0
 33 34  1  0
 34 35  2  0
 36 35  1  0
 36 40  1  0
 37 36  2  0
 38 33  2  0
 38 37  1  0
 39 38  1  0
 41 42  1  0
 42 45  1  0
 42 44  1  0
 43 41  2  0
 46 21  1  0
 46 47  1  0
 48 46  1  0
 49  1  1  0
 49 50  2  0
 51 50  1  0
 52 63  2  0
 53 51  1  0
 53 58  1  0
 54 62  1  0
 54 64  1  0
 55 61  1  0
 55 57  1  0
 56 62  1  0
 57 56  1  0
 58 57  2  0
 59 53  2  0
 60 59  1  0
 60 55  2  0
 61 54  1  0
 62 52  1  0
 64 66  2  0
 65 64  1  0
 67 65  1  0
 68 77  2  0
 68 73  1  0
 69 65  1  0
 69 73  1  0
 70 69  1  0
 71 72  1  0
 71 70  1  0
 72 68  1  0
 73 74  2  0
 74 75  1  0
 76 75  2  0
 77 76  1  0
 78 52  1  0
 78 79  1  0
 78 88  1  0
 79 82  1  0
 80 84  1  0
 80 79  1  0
 81 80  2  0
 84 83  1  0
 86 84  1  0
 86 87  1  0
 86 85  1  0
 88 91  1  1
 88 89  1  0
 90 88  1  0
M  ISO  4   5 100  20 100  50 101  51 101
M  END
>  <TORSDO>  (36) 
F 18

>  <SCORE>  (36) 
-14.036

>  <name>  (36) 
35

>  <ligand_id>  (36) 
35

>  <original_smiles>  (36) 
[H]c1c([H])c([H])c2c(c1[H])C([H])([H])C([H])([H])C([H])([H])C2([H])N([H])C(=O)C1([H])N(C(=O)C([H])(N([H])C(=O)C([H])(N([H])C([H])([H])[H])C([H])([H])[H])C(C([H])([H])[H])(C([H])([H])[H])C([H])([H])[H])C([H])([H])c2c([H])c(OC([H])([H])C([H])([H])C(=O)N([H])c3c([H])c([H])c4c(c3[H])C([H])([H])N4C(=O)N3C([H])([H])C([H])([H])C([H])([H])C([H])(n4nc(-c5c([H])c([H])c(Oc6c([H])c([H])c(F)c([H])c6F)c([H])c5[H])c(C(=O)N([H])[H])c4N([H])[H])C3([H])[H])c([H])c([H])c2C1([H])[H]

>  <smiles>  (36) 
[H]c1c([H])c([H])c2c(c1[H])C([H])([H])C([H])([H])C([H])([H])C2([H])N([H])C(=O)C1([H])N(C(=O)C([H])(N([H])C(=O)C([H])(N([H])C([H])([H])[H])C([H])([H])[H])C(C([H])([H])[H])(C([H])([H])[H])C([H])([H])[H])C([H])([H])c2c([H])c(OC([H])([H])C([H])([H])C(=O)N([H])c3c([H])c([H])c4c(c3[H])C([H])([H])N4C(=O)N3C([H])([H])C([H])([H])C([H])([H])C([H])(n4nc(-c5c([H])c([H])c(Oc6c([H])c([H])c(F)c([H])c6F)c([H])c5[H])c(C(=O)N([H])[H])c4N([H])[H])C3([H])[H])c([H])c([H])c2C1([H])[H]

$$$$
36:0:0
     RDKit          3D

 93102  0  0  1  0  0  0  0  0999 V2000
  -28.0570  -20.9000   21.2300 C   0  0  0  0  0  2  0  0  0  0  0  0
  -28.8080  -21.7680   20.2450 C   0  0  0  0  0  3  0  0  0  0  0  0
  -29.4240  -20.5750   20.8530 N   0  0  0  0  0  0  0  0  0  0  0  0
  -29.9370  -18.1450   18.0260 C   0  0  0  0  0  3  0  0  0  0  0  0
  -29.7210  -19.3530   18.7150 C   0  0  0  0  0  3  0  0  0  0  0  0
  -30.0320  -16.9320   18.7290 C   0  0  0  0  0  3  0  0  0  0  0  0
  -29.6610  -18.1270   20.8200 C   0  0  0  0  0  3  0  0  0  0  0  0
  -29.5780  -19.3680   20.1240 C   0  0  0  0  0  0  0  0  0  0  0  0
  -29.9120  -16.9010   20.1390 C   0  0  0  0  0  0  0  0  0  0  0  0
  -30.7440  -14.5910   20.4850 C   0  0  0  0  0  0  0  0  0  0  0  0
  -30.5100  -12.3960   19.4030 C   0  0  0  0  0  2  0  0  0  0  0  0
  -29.6030  -12.5930   18.1720 C   0  0  0  0  0  2  0  0  0  0  0  0
  -28.1150  -12.4710   18.5580 C   0  0  0  0  0  2  0  0  0  0  0  0
  -27.7450  -13.3060   19.8120 C   0  0  0  0  0  3  0  0  0  0  0  0
  -28.7700  -13.0920   20.9490 C   0  0  0  0  0  2  0  0  0  0  0  0
  -30.1070  -13.3910   20.4110 N   0  0  0  0  0  0  0  0  0  0  0  0
  -31.9020  -14.7540   20.0880 O   0  0  0  0  0  0  0  0  0  0  0  0
  -29.9750  -15.6470   20.8420 N   0  0  0  0  0  0  0  0  0  0  0  0
  -29.1620  -15.4220   21.3960 H   0  0  0  0  0  0  0  0  0  0  0  0
  -25.3270  -13.9170   20.4450 C   0  0  0  0  0  0  0  0  0  0  0  0
  -24.2500  -13.1480   20.8010 C   0  0  0  0  0  0  0  0  0  0  0  0
  -24.7160  -11.7980   20.8060 C   0  0  0  0  0  0  0  0  0  0  0  0
  -26.3800  -13.0350   20.2560 N   0  0  0  0  0  0  0  0  0  0  0  0
  -26.0130  -11.7560   20.5280 N   0  0  0  0  0  0  0  0  0  0  0  0
  -23.9880  -10.5380   21.0010 C   0  0  0  0  0  0  0  0  0  0  0  0
  -24.4030   -9.5850   21.9560 C   0  0  0  0  0  3  0  0  0  0  0  0
  -23.6780   -8.3870   22.1360 C   0  0  0  0  0  3  0  0  0  0  0  0
  -22.5220   -8.1350   21.3590 C   0  0  0  0  0  0  0  0  0  0  0  0
  -22.1250   -9.0770   20.3950 C   0  0  0  0  0  3  0  0  0  0  0  0
  -22.8510  -10.2650   20.2130 C   0  0  0  0  0  3  0  0  0  0  0  0
  -21.7690   -6.9890   21.4470 O   0  0  0  0  0  0  0  0  0  0  0  0
  -21.7020   -6.2580   22.6070 C   0  0  0  0  0  0  0  0  0  0  0  0
  -21.2510   -6.8250   23.8190 C   0  0  0  0  0  3  0  0  0  0  0  0
  -21.1300   -6.0210   24.9700 C   0  0  0  0  0  3  0  0  0  0  0  0
  -21.4500   -4.6520   24.9090 C   0  0  0  0  0  0  0  0  0  0  0  0
  -21.8920   -4.0830   23.7010 C   0  0  0  0  0  3  0  0  0  0  0  0
  -22.0150   -4.8850   22.5520 C   0  0  0  0  0  0  0  0  0  0  0  0
  -22.4220   -4.3280   21.3860 F   0  0  0  0  0  0  0  0  0  0  0  0
  -21.3290   -3.8770   26.0130 F   0  0  0  0  0  0  0  0  0  0  0  0
  -22.8440  -13.6280   21.0300 C   0  0  0  0  0  0  0  0  0  0  0  0
  -22.0940  -12.9440   21.8870 N   0  0  0  0  0  0  0  0  0  0  0  0
  -22.4170  -14.6420   20.4820 O   0  0  0  0  0  0  0  0  0  0  0  0
  -22.4500  -12.1260   22.3570 H   0  0  0  0  0  0  0  0  0  0  0  0
  -21.1490  -13.2470   22.0770 H   0  0  0  0  0  0  0  0  0  0  0  0
  -25.4980  -15.2840   20.2460 N   0  0  0  0  0  0  0  0  0  0  0  0
  -24.7350  -15.9480   20.3170 H   0  0  0  0  0  0  0  0  0  0  0  0
  -26.3610  -15.7060   19.9260 H   0  0  0  0  0  0  0  0  0  0  0  0
  -29.5530  -23.0570   20.6440 C   0  0  0  0  0  2  0  0  0  0  0  0
  -30.6400  -25.0880   19.6400 C   0  0  0  0  0  1  0  0  0  0  0  0
  -28.6410  -24.1380   18.4700 C   0  0  0  0  0  1  0  0  0  0  0  0
  -29.2730  -24.3970   19.8540 C   0  0  1  0  0  0  0  0  0  0  0  0
  -28.3560  -25.3810   20.6520 C   0  0  0  0  0  2  0  0  0  0  0  0
  -28.4190  -26.7410   20.1610 O   0  0  0  0  0  0  0  0  0  0  0  0
  -24.6040  -31.9340   23.2310 C   0  0  0  0  0  0  0  0  0  0  0  0
  -27.2530  -27.4770   20.1750 C   0  0  0  0  0  0  0  0  0  0  0  0
  -23.4000  -30.5250   21.5920 C   0  0  0  0  0  3  0  0  0  0  0  0
  -24.8590  -28.9890   20.1690 C   0  0  0  0  0  0  0  0  0  0  0  0
  -25.9250  -30.8920   21.3910 C   0  0  0  0  0  2  0  0  0  0  0  0
  -26.0160  -29.5160   20.7570 C   0  0  0  0  0  0  0  0  0  0  0  0
  -27.2170  -28.7690   20.7520 C   0  0  0  0  0  3  0  0  0  0  0  0
  -26.0820  -26.9720   19.5700 C   0  0  0  0  0  3  0  0  0  0  0  0
  -24.8880  -27.7180   19.5680 C   0  0  0  0  0  3  0  0  0  0  0  0
  -23.6120  -29.8430   20.2140 C   0  0  0  0  0  2  0  0  0  0  0  0
  -24.6620  -31.1330   22.1300 N   0  0  0  0  0  0  0  0  0  0  0  0
  -23.5220  -32.2030   23.7740 O   0  0  0  0  0  0  0  0  0  0  0  0
  -22.7540  -29.5030   22.5560 C   0  0  0  0  0  0  0  0  0  0  0  0
  -21.4300  -29.3160   22.4330 N   0  0  0  0  0  0  0  0  0  0  0  0
  -23.4430  -28.8820   23.3700 O   0  0  0  0  0  0  0  0  0  0  0  0
  -20.9350  -29.8720   21.7490 H   0  0  0  0  0  0  0  0  0  0  0  0
  -18.0620  -28.1120   22.9400 C   0  0  0  0  0  0  0  0  0  0  0  0
  -20.6200  -28.3750   23.2060 C   0  0  0  0  0  3  0  0  0  0  0  0
  -20.7240  -26.9450   22.6270 C   0  0  0  0  0  2  0  0  0  0  0  0
  -19.6210  -26.6210   21.6150 C   0  0  0  0  0  2  0  0  0  0  0  0
  -18.2400  -26.7630   22.2630 C   0  0  0  0  0  2  0  0  0  0  0  0
  -19.1790  -28.8760   23.3670 C   0  0  0  0  0  0  0  0  0  0  0  0
  -18.9610  -30.1390   23.9590 C   0  0  0  0  0  3  0  0  0  0  0  0
  -17.6560  -30.6400   24.1270 C   0  0  0  0  0  3  0  0  0  0  0  0
  -16.5520  -29.8730   23.7150 C   0  0  0  0  0  3  0  0  0  0  0  0
  -16.7560  -28.6110   23.1290 C   0  0  0  0  0  3  0  0  0  0  0  0
  -25.8890  -32.5720   23.8470 C   0  0  0  0  0  3  0  0  0  0  0  0
  -26.4130  -31.8060   25.1240 C   0  0  1  0  0  0  0  0  0  0  0  0
  -25.3230  -31.5690   26.1960 C   0  0  0  0  0  1  0  0  0  0  0  0
  -27.0000  -30.4300   24.7330 C   0  0  0  0  0  1  0  0  0  0  0  0
  -27.5610  -32.6060   25.7820 C   0  0  0  0  0  1  0  0  0  0  0  0
  -25.5770  -33.9700   24.1710 N   0  0  0  0  0  0  0  0  0  0  0  0
  -25.9140  -35.0200   23.4100 C   0  0  0  0  0  0  0  0  0  0  0  0
  -26.5900  -34.9130   22.3830 O   0  0  0  0  0  0  0  0  0  0  0  0
  -24.9780  -34.1240   24.9680 H   0  0  0  0  0  0  0  0  0  0  0  0
  -24.1930  -36.8150   23.0290 C   0  0  0  0  0  1  0  0  0  0  0  0
  -25.4210  -36.4090   23.8590 C   0  0  0  0  0  3  0  0  0  0  0  0
  -27.5450  -37.2930   24.7190 C   0  0  0  0  0  1  0  0  0  0  0  0
  -26.4570  -37.4610   23.7600 N   0  0  0  0  0  0  0  0  0  0  0  0
  -26.0500  -38.3810   23.9000 H   0  0  0  0  0  0  0  0  0  0  0  0
  2 48  1  0
  2  3  1  0
  2  1  1  0
  3  1  1  0
  4  5  2  0
  4  6  1  0
  5  8  1  0
  6  9  2  0
  8  7  2  0
  8  3  1  0
  9  7  1  0
  9 18  1  0
 10 18  1  0
 11 16  1  0
 12 13  1  0
 12 11  1  0
 14 13  1  0
 14 23  1  0
 14 15  1  0
 16 10  1  0
 16 15  1  0
 17 10  2  0
 18 19  1  0
 20 21  2  0
 21 22  1  0
 21 40  1  0
 22 25  1  0
 23 20  1  0
 23 24  1  0
 24 22  2  0
 25 26  1  0
 26 27  2  0
 28 31  1  0
 28 27  1  0
 29 28  2  0
 30 29  1  0
 30 25  2  0
 31 32  1  0
 32 33  1  0
 33 34  2  0
 35 34  1  0
 35 39  1  0
 36 35  2  0
 37 32  2  0
 37 36  1  0
 38 37  1  0
 40 41  1  0
 41 44  1  0
 41 43  1  0
 42 40  2  0
 45 46  1  0
 45 20  1  0
 47 45  1  0
 51 49  1  6
 50 51  1  0
 51 48  1  0
 51 52  1  0
 53 55  1  0
 53 52  1  0
 54 65  2  0
 55 60  1  0
 56 64  1  0
 56 66  1  0
 57 63  1  0
 57 59  1  0
 58 64  1  0
 59 58  1  0
 60 59  2  0
 61 55  2  0
 62 61  1  0
 62 57  2  0
 63 56  1  0
 64 54  1  0
 66 68  2  0
 67 66  1  0
 69 67  1  0
 70 79  2  0
 70 75  1  0
 71 67  1  0
 71 75  1  0
 72 71  1  0
 73 74  1  0
 73 72  1  0
 74 70  1  0
 75 76  2  0
 76 77  1  0
 78 77  2  0
 79 78  1  0
 80 54  1  0
 80 85  1  0
 80 81  1  0
 81 84  1  1
 81 82  1  0
 83 81  1  0
 85 88  1  0
 86 90  1  0
 86 85  1  0
 87 86  2  0
 90 89  1  0
 92 90  1  0
 92 93  1  0
 92 91  1  0
M  ISO  4  10 100  18 100  52 101  53 101
M  END
>  <TORSDO>  (37) 
F 20

>  <SCORE>  (37) 
-13.639

>  <name>  (37) 
36

>  <ligand_id>  (37) 
36

>  <original_smiles>  (37) 
[H]c1c([H])c(N([H])C(=O)N2C([H])([H])C([H])([H])C([H])([H])C([H])(n3nc(-c4c([H])c([H])c(Oc5c([H])c([H])c(F)c([H])c5F)c([H])c4[H])c(C(=O)N([H])[H])c3N([H])[H])C2([H])[H])c([H])c(N2C([H])([H])C2([H])C([H])([H])C(C([H])([H])[H])(C([H])([H])[H])C([H])([H])Oc2c([H])c([H])c3c(c2[H])C([H])([H])N(C(=O)C([H])(N([H])C(=O)C([H])(N([H])C([H])([H])[H])C([H])([H])[H])C(C([H])([H])[H])(C([H])([H])[H])C([H])([H])[H])C([H])(C(=O)N([H])C2([H])c4c([H])c([H])c([H])c([H])c4C([H])([H])C([H])([H])C2([H])[H])C3([H])[H])c1[H]

>  <smiles>  (37) 
[H]c1c([H])c(N([H])C(=O)N2C([H])([H])C([H])([H])C([H])([H])C([H])(n3nc(-c4c([H])c([H])c(Oc5c([H])c([H])c(F)c([H])c5F)c([H])c4[H])c(C(=O)N([H])[H])c3N([H])[H])C2([H])[H])c([H])c(N2C([H])([H])C2([H])C([H])([H])C(C([H])([H])[H])(C([H])([H])[H])C([H])([H])Oc2c([H])c([H])c3c(c2[H])C([H])([H])N(C(=O)C([H])(N([H])C(=O)C([H])(N([H])C([H])([H])[H])C([H])([H])[H])C(C([H])([H])[H])(C([H])([H])[H])C([H])([H])[H])C([H])(C(=O)N([H])C2([H])c4c([H])c([H])c([H])c([H])c4C([H])([H])C([H])([H])C2([H])[H])C3([H])[H])c1[H]

$$$$
37:0:0
     RDKit          3D

 91 99  0  0  1  0  0  0  0  0999 V2000
  -30.0100  -21.9540   18.4110 C   0  0  0  0  0  1  0  0  0  0  0  0
  -30.5370  -21.7860   20.8080 C   0  0  0  0  0  1  0  0  0  0  0  0
  -29.3720  -21.7290   19.8010 C   0  0  1  0  0  0  0  0  0  0  0  0
  -27.9700  -23.1070   21.5790 C   0  0  0  0  0  1  0  0  0  0  0  0
  -27.0340  -22.8140   19.3040 C   0  0  0  0  0  1  0  0  0  0  0  0
  -28.3350  -23.0920   20.0850 C   0  0  2  0  0  0  0  0  0  0  0  0
  -28.7060  -24.7140   19.6860 C   0  0  0  0  0  2  0  0  0  0  0  0
  -28.3830  -26.1120   20.3170 O   0  0  0  0  0  0  0  0  0  0  0  0
  -24.5370  -31.7000   23.1450 C   0  0  0  0  0  0  0  0  0  0  0  0
  -27.2790  -27.0290   20.1600 C   0  0  0  0  0  0  0  0  0  0  0  0
  -23.3950  -30.2740   21.4850 C   0  0  0  0  0  3  0  0  0  0  0  0
  -24.9000  -28.7150   20.0870 C   0  0  0  0  0  0  0  0  0  0  0  0
  -25.9440  -30.5870   21.3670 C   0  0  0  0  0  2  0  0  0  0  0  0
  -26.0560  -29.1940   20.7160 C   0  0  0  0  0  0  0  0  0  0  0  0
  -27.2370  -28.3630   20.7400 C   0  0  0  0  0  3  0  0  0  0  0  0
  -26.1010  -26.6460   19.4850 C   0  0  0  0  0  3  0  0  0  0  0  0
  -24.9360  -27.4560   19.4570 C   0  0  0  0  0  3  0  0  0  0  0  0
  -23.6520  -29.5870   20.1140 C   0  0  0  0  0  2  0  0  0  0  0  0
  -24.6440  -30.8780   22.0530 N   0  0  0  0  0  0  0  0  0  0  0  0
  -23.4350  -31.9640   23.6510 O   0  0  0  0  0  0  0  0  0  0  0  0
  -22.7160  -29.2610   22.4420 C   0  0  0  0  0  0  0  0  0  0  0  0
  -21.3860  -29.0940   22.3180 N   0  0  0  0  0  0  0  0  0  0  0  0
  -23.3880  -28.6300   23.2610 O   0  0  0  0  0  0  0  0  0  0  0  0
  -20.9010  -29.6560   21.6350 H   0  0  0  0  0  0  0  0  0  0  0  0
  -18.0010  -27.9160   22.8380 C   0  0  0  0  0  0  0  0  0  0  0  0
  -20.5650  -28.1500   23.0820 C   0  0  0  0  0  3  0  0  0  0  0  0
  -20.6460  -26.7290   22.4780 C   0  0  0  0  0  2  0  0  0  0  0  0
  -19.5300  -26.4350   21.4720 C   0  0  0  0  0  2  0  0  0  0  0  0
  -18.1580  -26.5790   22.1340 C   0  0  0  0  0  2  0  0  0  0  0  0
  -19.1310  -28.6610   23.2690 C   0  0  0  0  0  0  0  0  0  0  0  0
  -18.9280  -29.9120   23.8890 C   0  0  0  0  0  3  0  0  0  0  0  0
  -17.6280  -30.4170   24.0860 C   0  0  0  0  0  3  0  0  0  0  0  0
  -16.5140  -29.6680   23.6720 C   0  0  0  0  0  3  0  0  0  0  0  0
  -16.7010  -28.4200   23.0530 C   0  0  0  0  0  3  0  0  0  0  0  0
  -25.7900  -32.3650   23.7950 C   0  0  0  0  0  3  0  0  0  0  0  0
  -26.3040  -31.6010   25.0760 C   0  0  1  0  0  0  0  0  0  0  0  0
  -25.2010  -31.3300   26.1270 C   0  0  0  0  0  1  0  0  0  0  0  0
  -26.9290  -30.2410   24.6920 C   0  0  0  0  0  1  0  0  0  0  0  0
  -27.4220  -32.4200   25.7610 C   0  0  0  0  0  1  0  0  0  0  0  0
  -25.4350  -33.7520   24.1390 N   0  0  0  0  0  0  0  0  0  0  0  0
  -25.7430  -34.8280   23.4030 C   0  0  0  0  0  0  0  0  0  0  0  0
  -26.4230  -34.7580   22.3750 O   0  0  0  0  0  0  0  0  0  0  0  0
  -24.8340  -33.8790   24.9410 H   0  0  0  0  0  0  0  0  0  0  0  0
  -23.9680  -36.5820   23.0710 C   0  0  0  0  0  1  0  0  0  0  0  0
  -25.2180  -36.1970   23.8790 C   0  0  0  0  0  3  0  0  0  0  0  0
  -27.3240  -37.1300   24.7320 C   0  0  0  0  0  1  0  0  0  0  0  0
  -26.2230  -37.2800   23.7860 N   0  0  0  0  0  0  0  0  0  0  0  0
  -25.7900  -38.1870   23.9430 H   0  0  0  0  0  0  0  0  0  0  0  0
  -28.8360  -20.0990   19.7260 C   0  0  0  0  0  2  0  0  0  0  0  0
  -30.5510  -14.8710   19.6080 C   0  0  0  0  0  0  0  0  0  0  0  0
  -30.2460  -12.5540   18.5940 C   0  0  0  0  0  2  0  0  0  0  0  0
  -29.1640  -12.5870   17.4880 C   0  0  0  0  0  2  0  0  0  0  0  0
  -27.7600  -12.3920   18.0910 C   0  0  0  0  0  2  0  0  0  0  0  0
  -27.5420  -13.2550   19.3610 C   0  0  0  0  0  3  0  0  0  0  0  0
  -28.7320  -13.1750   20.3360 C   0  0  0  0  0  2  0  0  0  0  0  0
  -29.9260  -13.6150   19.5990 N   0  0  0  0  0  0  0  0  0  0  0  0
  -31.6300  -14.9450   19.0070 O   0  0  0  0  0  0  0  0  0  0  0  0
  -29.8620  -18.6130   21.6320 C   0  0  0  0  0  3  0  0  0  0  0  0
  -30.0940  -17.4630   22.2900 C   0  0  0  0  0  3  0  0  0  0  0  0
  -29.6720  -17.4040   19.5700 C   0  0  0  0  0  2  0  0  0  0  0  0
  -29.5410  -18.6710   20.2200 C   0  0  0  0  0  0  0  0  0  0  0  0
  -30.0680  -16.0780   21.6600 C   0  0  0  0  0  3  0  0  0  0  0  0
  -29.9580  -16.0500   20.1830 N   0  0  0  0  0  0  0  0  0  0  0  0
  -25.3110  -13.8420   20.4650 C   0  0  0  0  0  0  0  0  0  0  0  0
  -24.2820  -13.0710   20.9310 C   0  0  0  0  0  0  0  0  0  0  0  0
  -24.6910  -11.7140   20.7490 C   0  0  0  0  0  0  0  0  0  0  0  0
  -26.2760  -12.9550   20.0210 N   0  0  0  0  0  0  0  0  0  0  0  0
  -25.9230  -11.6650   20.2550 N   0  0  0  0  0  0  0  0  0  0  0  0
  -23.9530  -10.4620   20.9580 C   0  0  0  0  0  0  0  0  0  0  0  0
  -24.4170   -9.4670   21.8450 C   0  0  0  0  0  3  0  0  0  0  0  0
  -23.6780   -8.2830   22.0410 C   0  0  0  0  0  3  0  0  0  0  0  0
  -22.4600   -8.0830   21.3520 C   0  0  0  0  0  0  0  0  0  0  0  0
  -22.0120   -9.0660   20.4510 C   0  0  0  0  0  3  0  0  0  0  0  0
  -22.7520  -10.2430   20.2520 C   0  0  0  0  0  3  0  0  0  0  0  0
  -21.6880   -6.9520   21.4630 O   0  0  0  0  0  0  0  0  0  0  0  0
  -21.6250   -6.2320   22.6290 C   0  0  0  0  0  0  0  0  0  0  0  0
  -21.1990   -6.8140   23.8420 C   0  0  0  0  0  3  0  0  0  0  0  0
  -21.0800   -6.0210   25.0000 C   0  0  0  0  0  3  0  0  0  0  0  0
  -21.3810   -4.6470   24.9470 C   0  0  0  0  0  0  0  0  0  0  0  0
  -21.8060   -4.0650   23.7400 C   0  0  0  0  0  3  0  0  0  0  0  0
  -21.9220   -4.8550   22.5820 C   0  0  0  0  0  0  0  0  0  0  0  0
  -22.3080   -4.2840   21.4160 F   0  0  0  0  0  0  0  0  0  0  0  0
  -21.2620   -3.8850   26.0600 F   0  0  0  0  0  0  0  0  0  0  0  0
  -22.9540  -13.5670   21.4220 C   0  0  0  0  0  0  0  0  0  0  0  0
  -22.3340  -12.8500   22.3530 N   0  0  0  0  0  0  0  0  0  0  0  0
  -22.4770  -14.6270   21.0160 O   0  0  0  0  0  0  0  0  0  0  0  0
  -22.7320  -11.9920   22.7050 H   0  0  0  0  0  0  0  0  0  0  0  0
  -21.4470  -13.1670   22.7190 H   0  0  0  0  0  0  0  0  0  0  0  0
  -25.4940  -15.2180   20.3620 N   0  0  0  0  0  0  0  0  0  0  0  0
  -24.7770  -15.8710   20.6580 H   0  0  0  0  0  0  0  0  0  0  0  0
  -26.3150  -15.6750   19.9860 H   0  0  0  0  0  0  0  0  0  0  0  0
  3  1  1  6
  3  6  1  0
  3  2  1  0
  6  5  1  6
  6  4  1  0
  7  6  1  0
  7  8  1  0
  9 20  2  0
 10  8  1  0
 10 15  1  0
 11 19  1  0
 11 21  1  0
 12 18  1  0
 12 14  1  0
 13 19  1  0
 14 15  2  0
 14 13  1  0
 16 10  2  0
 17 16  1  0
 17 12  2  0
 18 11  1  0
 19  9  1  0
 21 23  2  0
 22 21  1  0
 24 22  1  0
 25 34  2  0
 25 30  1  0
 26 22  1  0
 26 30  1  0
 27 26  1  0
 28 29  1  0
 28 27  1  0
 29 25  1  0
 30 31  2  0
 31 32  1  0
 33 32  2  0
 34 33  1  0
 35  9  1  0
 35 40  1  0
 35 36  1  0
 36 39  1  1
 36 37  1  0
 38 36  1  0
 40 43  1  0
 41 45  1  0
 41 40  1  0
 42 41  2  0
 45 44  1  0
 47 45  1  0
 47 48  1  0
 47 46  1  0
 49  3  1  0
 49 61  1  0
 50 63  1  0
 51 56  1  0
 52 53  1  0
 52 51  1  0
 54 53  1  0
 54 67  1  0
 54 55  1  0
 56 50  1  0
 56 55  1  0
 57 50  2  0
 58 59  1  0
 60 63  1  0
 60 61  1  0
 61 58  2  0
 62 59  2  0
 63 62  1  0
 64 65  2  0
 65 84  1  0
 66 65  1  0
 66 69  1  0
 67 68  1  0
 67 64  1  0
 68 66  2  0
 69 70  1  0
 70 71  2  0
 72 75  1  0
 72 71  1  0
 73 72  2  0
 74 73  1  0
 74 69  2  0
 75 76  1  0
 76 77  1  0
 77 78  2  0
 79 78  1  0
 79 83  1  0
 80 79  2  0
 81 76  2  0
 81 80  1  0
 82 81  1  0
 84 85  1  0
 85 87  1  0
 85 88  1  0
 86 84  2  0
 89 64  1  0
 89 90  1  0
 91 89  1  0
M  ISO  4   7 101   8 101  50 100  63 100
M  END
>  <TORSDO>  (38) 
F 19

>  <SCORE>  (38) 
-14.602

>  <name>  (38) 
37

>  <ligand_id>  (38) 
37

>  <original_smiles>  (38) 
[H]C1=C([H])C([H])([H])N(C(=O)N2C([H])([H])C([H])([H])C([H])([H])C([H])(n3nc(-c4c([H])c([H])c(Oc5c([H])c([H])c(F)c([H])c5F)c([H])c4[H])c(C(=O)N([H])[H])c3N([H])[H])C2([H])[H])C([H])=C1C([H])([H])C(C([H])([H])[H])(C([H])([H])[H])C(C([H])([H])[H])(C([H])([H])[H])C([H])([H])Oc1c([H])c([H])c2c(c1[H])C([H])([H])N(C(=O)C([H])(N([H])C(=O)C([H])(N([H])C([H])([H])[H])C([H])([H])[H])C(C([H])([H])[H])(C([H])([H])[H])C([H])([H])[H])C([H])(C(=O)N([H])C1([H])c3c([H])c([H])c([H])c([H])c3C([H])([H])C([H])([H])C1([H])[H])C2([H])[H]

>  <smiles>  (38) 
[H]C1=C([H])C([H])([H])N(C(=O)N2C([H])([H])C([H])([H])C([H])([H])C([H])(n3nc(-c4c([H])c([H])c(Oc5c([H])c([H])c(F)c([H])c5F)c([H])c4[H])c(C(=O)N([H])[H])c3N([H])[H])C2([H])[H])C([H])=C1C([H])([H])C(C([H])([H])[H])(C([H])([H])[H])C(C([H])([H])[H])(C([H])([H])[H])C([H])([H])Oc1c([H])c([H])c2c(c1[H])C([H])([H])N(C(=O)C([H])(N([H])C(=O)C([H])(N([H])C([H])([H])[H])C([H])([H])[H])C(C([H])([H])[H])(C([H])([H])[H])C([H])([H])[H])C([H])(C(=O)N([H])C1([H])c3c([H])c([H])c([H])c([H])c3C([H])([H])C([H])([H])C1([H])[H])C2([H])[H]

$$$$
38:0:0
     RDKit          3D

101110  0  0  1  0  0  0  0  0999 V2000
  -28.3910  -24.3180   20.1840 C   0  0  0  0  0  3  0  0  0  0  0  0
  -28.6920  -25.5230   19.6060 C   0  0  0  0  0  2  0  0  0  0  0  0
  -28.1720  -20.5290   20.5960 C   0  0  0  0  0  3  0  0  0  0  0  0
  -27.5010  -24.1170   21.3790 C   0  0  0  0  0  2  0  0  0  0  0  0
  -28.8890  -22.9120   19.7400 C   0  0  0  0  0  2  0  0  0  0  0  0
  -27.0310  -22.6590   21.2620 C   0  0  0  0  0  2  0  0  0  0  0  0
  -28.0690  -21.9110   20.5010 N   0  0  0  0  0  0  0  0  0  0  0  0
  -27.1230  -19.9060   21.1330 N   0  0  0  0  0  0  0  0  0  0  0  0
  -27.1900  -18.9200   21.3240 H   0  0  0  0  0  0  0  0  0  0  0  0
  -26.2510  -20.3740   21.3100 H   0  0  0  0  0  0  0  0  0  0  0  0
  -30.6340  -20.1240   20.3230 C   0  0  0  0  0  3  0  0  0  0  0  0
  -29.1640  -18.1830   20.1860 C   0  0  0  0  0  3  0  0  0  0  0  0
  -31.5680  -17.8530   20.2860 C   0  0  0  0  0  3  0  0  0  0  0  0
  -29.3210  -19.6130   20.2730 C   0  0  0  0  0  0  0  0  0  0  0  0
  -31.7470  -19.2520   20.3440 C   0  0  0  0  0  0  0  0  0  0  0  0
  -30.2800  -17.2810   20.1990 C   0  0  0  0  0  0  0  0  0  0  0  0
  -30.9920  -14.8070   20.1260 C   0  0  0  0  0  0  0  0  0  0  0  0
  -30.9200  -12.4490   19.3590 C   0  0  0  0  0  2  0  0  0  0  0  0
  -29.9800  -12.3760   18.1370 C   0  0  0  0  0  2  0  0  0  0  0  0
  -28.5110  -12.2040   18.5800 C   0  0  0  0  0  2  0  0  0  0  0  0
  -28.1020  -13.2030   19.6940 C   0  0  0  0  0  3  0  0  0  0  0  0
  -29.1530  -13.2360   20.8240 C   0  0  0  0  0  2  0  0  0  0  0  0
  -30.4480  -13.5590   20.2070 N   0  0  0  0  0  0  0  0  0  0  0  0
  -32.1570  -14.9770   19.7500 O   0  0  0  0  0  0  0  0  0  0  0  0
  -30.0970  -15.8370   20.2450 N   0  0  0  0  0  0  0  0  0  0  0  0
  -29.1470  -15.5280   20.3800 H   0  0  0  0  0  0  0  0  0  0  0  0
  -25.7470  -13.8180   20.5110 C   0  0  0  0  0  0  0  0  0  0  0  0
  -24.6820  -13.0500   20.8940 C   0  0  0  0  0  0  0  0  0  0  0  0
  -25.1210  -11.6930   20.8010 C   0  0  0  0  0  0  0  0  0  0  0  0
  -26.7660  -12.9290   20.2110 N   0  0  0  0  0  0  0  0  0  0  0  0
  -26.4000  -11.6450   20.4460 N   0  0  0  0  0  0  0  0  0  0  0  0
  -24.3850  -10.4360   20.9730 C   0  0  0  0  0  0  0  0  0  0  0  0
  -24.7780   -9.4750   21.9310 C   0  0  0  0  0  3  0  0  0  0  0  0
  -24.0430   -8.2800   22.0890 C   0  0  0  0  0  3  0  0  0  0  0  0
  -22.9010   -8.0390   21.2900 C   0  0  0  0  0  0  0  0  0  0  0  0
  -22.5280   -8.9890   20.3210 C   0  0  0  0  0  3  0  0  0  0  0  0
  -23.2630  -10.1740   20.1620 C   0  0  0  0  0  3  0  0  0  0  0  0
  -22.1390   -6.8970   21.3560 O   0  0  0  0  0  0  0  0  0  0  0  0
  -21.9410   -6.2330   22.5390 C   0  0  0  0  0  0  0  0  0  0  0  0
  -21.3670   -6.8690   23.6630 C   0  0  0  0  0  3  0  0  0  0  0  0
  -21.1160   -6.1300   24.8370 C   0  0  0  0  0  3  0  0  0  0  0  0
  -21.4290   -4.7580   24.8870 C   0  0  0  0  0  0  0  0  0  0  0  0
  -21.9960   -4.1230   23.7670 C   0  0  0  0  0  3  0  0  0  0  0  0
  -22.2490   -4.8590   22.5970 C   0  0  0  0  0  0  0  0  0  0  0  0
  -22.7750   -4.2380   21.5130 F   0  0  0  0  0  0  0  0  0  0  0  0
  -21.1810   -4.0460   26.0110 F   0  0  0  0  0  0  0  0  0  0  0  0
  -23.3010  -13.5360   21.2260 C   0  0  0  0  0  0  0  0  0  0  0  0
  -22.5950  -12.8280   22.0990 N   0  0  0  0  0  0  0  0  0  0  0  0
  -22.8590  -14.5790   20.7430 O   0  0  0  0  0  0  0  0  0  0  0  0
  -22.9660  -11.9830   22.5090 H   0  0  0  0  0  0  0  0  0  0  0  0
  -21.6700  -13.1340   22.3620 H   0  0  0  0  0  0  0  0  0  0  0  0
  -25.9260  -15.1920   20.3700 N   0  0  0  0  0  0  0  0  0  0  0  0
  -25.1560  -15.8400   20.4910 H   0  0  0  0  0  0  0  0  0  0  0  0
  -26.7300  -15.6140   19.9250 H   0  0  0  0  0  0  0  0  0  0  0  0
  -33.1430  -19.8160   20.5710 C   0  0  0  0  0  2  0  0  0  0  0  0
  -33.5990  -19.3700   18.0390 C   0  0  0  0  0  1  0  0  0  0  0  0
  -33.7490  -21.6610   18.9930 C   0  0  0  0  0  1  0  0  0  0  0  0
  -33.9870  -20.1690   19.3050 C   0  0  1  0  0  0  0  0  0  0  0  0
  -35.9990  -18.5370   19.7600 C   0  0  0  0  0  1  0  0  0  0  0  0
  -35.5010  -19.9870   19.5970 C   0  0  0  0  0  2  0  0  0  0  0  0
  -28.5260  -26.8100   20.1390 O   0  0  0  0  0  0  0  0  0  0  0  0
  -24.8810  -31.9810   23.4670 C   0  0  0  0  0  0  0  0  0  0  0  0
  -27.3590  -27.5700   20.1360 C   0  0  0  0  0  0  0  0  0  0  0  0
  -23.6130  -30.6770   21.7920 C   0  0  0  0  0  3  0  0  0  0  0  0
  -25.0010  -29.1710   20.2560 C   0  0  0  0  0  0  0  0  0  0  0  0
  -26.1430  -30.9830   21.5510 C   0  0  0  0  0  2  0  0  0  0  0  0
  -26.1830  -29.6350   20.8450 C   0  0  0  0  0  0  0  0  0  0  0  0
  -27.3580  -28.8430   20.7790 C   0  0  0  0  0  3  0  0  0  0  0  0
  -26.1610  -27.1400   19.5300 C   0  0  0  0  0  3  0  0  0  0  0  0
  -24.9890  -27.9290   19.5930 C   0  0  0  0  0  3  0  0  0  0  0  0
  -23.7760  -30.0560   20.3780 C   0  0  0  0  0  2  0  0  0  0  0  0
  -24.9000  -31.2280   22.3270 N   0  0  0  0  0  0  0  0  0  0  0  0
  -23.8190  -32.2470   24.0440 O   0  0  0  0  0  0  0  0  0  0  0  0
  -22.9630  -29.6270   22.7240 C   0  0  0  0  0  0  0  0  0  0  0  0
  -21.6450  -29.4220   22.5720 N   0  0  0  0  0  0  0  0  0  0  0  0
  -23.6440  -28.9990   23.5390 O   0  0  0  0  0  0  0  0  0  0  0  0
  -21.1530  -29.9770   21.8840 H   0  0  0  0  0  0  0  0  0  0  0  0
  -18.3050  -28.0850   22.9310 C   0  0  0  0  0  0  0  0  0  0  0  0
  -20.8370  -28.4530   23.3110 C   0  0  0  0  0  3  0  0  0  0  0  0
  -21.0230  -27.0270   22.7430 C   0  0  0  0  0  2  0  0  0  0  0  0
  -19.9810  -26.6570   21.6830 C   0  0  0  0  0  2  0  0  0  0  0  0
  -18.5680  -26.7440   22.2650 C   0  0  0  0  0  2  0  0  0  0  0  0
  -19.3710  -28.8950   23.4080 C   0  0  0  0  0  0  0  0  0  0  0  0
  -19.0720  -30.1460   23.9870 C   0  0  0  0  0  3  0  0  0  0  0  0
  -17.7400  -30.5920   24.0940 C   0  0  0  0  0  3  0  0  0  0  0  0
  -16.6900  -29.7800   23.6320 C   0  0  0  0  0  3  0  0  0  0  0  0
  -16.9730  -28.5280   23.0580 C   0  0  0  0  0  3  0  0  0  0  0  0
  -26.1900  -32.5630   24.0850 C   0  0  0  0  0  3  0  0  0  0  0  0
  -26.7010  -31.7520   25.3390 C   0  0  1  0  0  0  0  0  0  0  0  0
  -25.6140  -31.5200   26.4140 C   0  0  0  0  0  1  0  0  0  0  0  0
  -27.2420  -30.3680   24.9090 C   0  0  0  0  0  1  0  0  0  0  0  0
  -27.8820  -32.4990   26.0030 C   0  0  0  0  0  1  0  0  0  0  0  0
  -25.9260  -33.9610   24.4500 N   0  0  0  0  0  0  0  0  0  0  0  0
  -26.2540  -35.0200   23.6970 C   0  0  0  0  0  0  0  0  0  0  0  0
  -26.8810  -34.9180   22.6380 O   0  0  0  0  0  0  0  0  0  0  0  0
  -25.3670  -34.1150   25.2770 H   0  0  0  0  0  0  0  0  0  0  0  0
  -24.5430  -36.8440   23.4500 C   0  0  0  0  0  1  0  0  0  0  0  0
  -25.8170  -36.4100   24.1940 C   0  0  0  0  0  3  0  0  0  0  0  0
  -28.0070  -37.2430   24.9260 C   0  0  0  0  0  1  0  0  0  0  0  0
  -26.8620  -37.4460   24.0430 N   0  0  0  0  0  0  0  0  0  0  0  0
  -26.4820  -38.3710   24.2230 H   0  0  0  0  0  0  0  0  0  0  0  0
  1  2  1  0
  1  4  1  0
  2 61  1  0
  3  8  1  0
  5  1  1  0
  5  7  1  0
  6  4  1  0
  7  3  1  0
  7  6  1  0
  8 10  1  0
  8  9  1  0
 11 15  1  0
 12 16  2  0
 12 14  1  0
 13 15  2  0
 14 11  2  0
 14  3  1  0
 15 55  1  0
 16 25  1  0
 16 13  1  0
 17 23  1  0
 17 25  1  0
 18 23  1  0
 19 20  1  0
 19 18  1  0
 21 20  1  0
 21 30  1  0
 21 22  1  0
 23 22  1  0
 24 17  2  0
 25 26  1  0
 27 28  2  0
 28 47  1  0
 29 28  1  0
 29 32  1  0
 30 31  1  0
 30 27  1  0
 31 29  2  0
 32 33  1  0
 33 34  2  0
 35 38  1  0
 35 34  1  0
 36 35  2  0
 37 36  1  0
 37 32  2  0
 38 39  1  0
 39 44  2  0
 39 40  1  0
 40 41  2  0
 41 42  1  0
 42 46  1  0
 43 42  2  0
 44 43  1  0
 45 44  1  0
 47 48  1  0
 48 51  1  0
 48 50  1  0
 49 47  2  0
 52 53  1  0
 52 27  1  0
 54 52  1  0
 58 56  1  6
 57 58  1  0
 58 60  1  0
 58 55  1  0
 60 59  1  0
 62 73  2  0
 63 61  1  0
 63 68  1  0
 64 72  1  0
 64 74  1  0
 65 71  1  0
 65 67  1  0
 66 72  1  0
 67 66  1  0
 68 67  2  0
 69 70  1  0
 69 63  2  0
 70 65  2  0
 71 64  1  0
 72 62  1  0
 74 76  2  0
 75 74  1  0
 77 75  1  0
 78 87  2  0
 78 83  1  0
 79 75  1  0
 79 83  1  0
 80 79  1  0
 81 82  1  0
 81 80  1  0
 82 78  1  0
 83 84  2  0
 84 85  1  0
 86 85  2  0
 87 86  1  0
 88 62  1  0
 88 93  1  0
 88 89  1  0
 89 92  1  1
 89 90  1  0
 91 89  1  0
 93 96  1  0
 94 98  1  0
 94 93  1  0
 95 94  2  0
 98 97  1  0
100 98  1  0
100101  1  0
100 99  1  0
M  ISO  4   2 101  17 100  25 100  61 101
M  END
>  <TORSDO>  (39) 
F 20

>  <SCORE>  (39) 
-12.289

>  <name>  (39) 
38

>  <ligand_id>  (39) 
38

>  <original_smiles>  (39) 
[H]C(Oc1c([H])c([H])c2c(c1[H])C([H])([H])N(C(=O)C([H])(N([H])C(=O)C([H])(N([H])C([H])([H])[H])C([H])([H])[H])C(C([H])([H])[H])(C([H])([H])[H])C([H])([H])[H])C([H])(C(=O)N([H])C1([H])c3c([H])c([H])c([H])c([H])c3C([H])([H])C([H])([H])C1([H])[H])C2([H])[H])=C1C([H])([H])N(C(c2c([H])c(N([H])C(=O)N3C([H])([H])C([H])([H])C([H])([H])C([H])(n4nc(-c5c([H])c([H])c(Oc6c([H])c([H])c(F)c([H])c6F)c([H])c5[H])c(C(=O)N([H])[H])c4N([H])[H])C3([H])[H])c([H])c(C([H])([H])C(C([H])([H])[H])(C([H])([H])[H])C([H])([H])C([H])([H])[H])c2[H])=[N+]([H])[H])C([H])([H])C1([H])[H]

>  <smiles>  (39) 
[H]C(Oc1c([H])c([H])c2c(c1[H])C([H])([H])N(C(=O)C([H])(N([H])C(=O)C([H])(N([H])C([H])([H])[H])C([H])([H])[H])C(C([H])([H])[H])(C([H])([H])[H])C([H])([H])[H])C([H])(C(=O)N([H])C1([H])c3c([H])c([H])c([H])c([H])c3C([H])([H])C([H])([H])C1([H])[H])C2([H])[H])=C1C([H])([H])N(C(c2c([H])c(N([H])C(=O)N3C([H])([H])C([H])([H])C([H])([H])C([H])(n4nc(-c5c([H])c([H])c(Oc6c([H])c([H])c(F)c([H])c6F)c([H])c5[H])c(C(=O)N([H])[H])c4N([H])[H])C3([H])[H])c([H])c(C([H])([H])C(C([H])([H])[H])(C([H])([H])[H])C([H])([H])C([H])([H])[H])c2[H])=[N+]([H])[H])C([H])([H])C1([H])[H]

$$$$
39:0:0
     RDKit          3D

 92100  0  0  1  0  0  0  0  0999 V2000
  -28.0780  -22.0110   21.2220 C   0  0  0  0  0  3  0  0  0  0  0  0
  -28.4070  -18.5210   19.6420 C   0  0  0  0  0  3  0  0  0  0  0  0
  -27.8510  -19.8420   19.7860 C   0  0  0  0  0  3  0  0  0  0  0  0
  -29.5370  -18.2990   20.3950 C   0  0  0  0  0  0  0  0  0  0  0  0
  -28.5380  -20.6620   20.6560 C   0  0  0  0  0  0  0  0  0  0  0  0
  -29.9560  -19.7960   21.2460 S   0  0  0  0  0  0  0  0  0  0  0  0
  -30.7670  -14.7440   20.0100 C   0  0  0  0  0  0  0  0  0  0  0  0
  -30.4290  -12.5430   18.9280 C   0  0  0  0  0  2  0  0  0  0  0  0
  -29.4170  -12.6910   17.7740 C   0  0  0  0  0  2  0  0  0  0  0  0
  -27.9770  -12.5300   18.2970 C   0  0  0  0  0  2  0  0  0  0  0  0
  -27.6950  -13.3920   19.5580 C   0  0  0  0  0  3  0  0  0  0  0  0
  -28.8190  -13.2450   20.6050 C   0  0  0  0  0  2  0  0  0  0  0  0
  -30.0870  -13.5630   19.9370 N   0  0  0  0  0  0  0  0  0  0  0  0
  -31.9300  -14.8180   19.5990 O   0  0  0  0  0  0  0  0  0  0  0  0
  -30.4940  -17.1320   20.4910 C   0  0  0  0  0  0  0  0  0  0  0  0
  -30.0350  -15.8580   20.3140 N   0  0  0  0  0  0  0  0  0  0  0  0
  -31.6790  -17.3830   20.7450 O   0  0  0  0  0  0  0  0  0  0  0  0
  -29.0380  -15.7380   20.3600 H   0  0  0  0  0  0  0  0  0  0  0  0
  -25.3620  -13.9850   20.4560 C   0  0  0  0  0  0  0  0  0  0  0  0
  -24.3160  -13.2060   20.8710 C   0  0  0  0  0  0  0  0  0  0  0  0
  -24.7660  -11.8540   20.7690 C   0  0  0  0  0  0  0  0  0  0  0  0
  -26.3800  -13.1060   20.1250 N   0  0  0  0  0  0  0  0  0  0  0  0
  -26.0320  -11.8180   20.3770 N   0  0  0  0  0  0  0  0  0  0  0  0
  -24.0440  -10.5900   20.9660 C   0  0  0  0  0  0  0  0  0  0  0  0
  -24.4930   -9.6210   21.8890 C   0  0  0  0  0  3  0  0  0  0  0  0
  -23.7720   -8.4220   22.0750 C   0  0  0  0  0  3  0  0  0  0  0  0
  -22.5880   -8.1840   21.3370 C   0  0  0  0  0  0  0  0  0  0  0  0
  -22.1580   -9.1420   20.4020 C   0  0  0  0  0  3  0  0  0  0  0  0
  -22.8800  -10.3320   20.2150 C   0  0  0  0  0  3  0  0  0  0  0  0
  -21.8340   -7.0390   21.4340 O   0  0  0  0  0  0  0  0  0  0  0  0
  -21.7570   -6.3250   22.6010 C   0  0  0  0  0  0  0  0  0  0  0  0
  -21.2580   -6.8970   23.7930 C   0  0  0  0  0  3  0  0  0  0  0  0
  -21.1310   -6.1070   24.9530 C   0  0  0  0  0  3  0  0  0  0  0  0
  -21.4940   -4.7470   24.9230 C   0  0  0  0  0  0  0  0  0  0  0  0
  -21.9860   -4.1760   23.7360 C   0  0  0  0  0  3  0  0  0  0  0  0
  -22.1150   -4.9620   22.5790 C   0  0  0  0  0  0  0  0  0  0  0  0
  -22.5700   -4.4030   21.4320 F   0  0  0  0  0  0  0  0  0  0  0  0
  -21.3650   -3.9850   26.0340 F   0  0  0  0  0  0  0  0  0  0  0  0
  -22.9440  -13.6830   21.2470 C   0  0  0  0  0  0  0  0  0  0  0  0
  -22.2650  -12.9610   22.1320 N   0  0  0  0  0  0  0  0  0  0  0  0
  -22.4840  -14.7290   20.7920 O   0  0  0  0  0  0  0  0  0  0  0  0
  -22.6520  -12.1140   22.5210 H   0  0  0  0  0  0  0  0  0  0  0  0
  -21.3470  -13.2620   22.4270 H   0  0  0  0  0  0  0  0  0  0  0  0
  -25.5240  -15.3590   20.3100 N   0  0  0  0  0  0  0  0  0  0  0  0
  -24.7630  -16.0060   20.4900 H   0  0  0  0  0  0  0  0  0  0  0  0
  -26.3370  -15.8080   19.9110 H   0  0  0  0  0  0  0  0  0  0  0  0
  -28.6940  -23.3880   20.7450 C   0  0  0  0  0  3  0  0  0  0  0  0
  -29.0320  -24.4510   23.0210 C   0  0  0  0  0  1  0  0  0  0  0  0
  -26.8270  -24.7340   21.9020 C   0  0  0  0  0  1  0  0  0  0  0  0
  -28.3460  -24.6510   21.6480 C   0  0  2  0  0  0  0  0  0  0  0  0
  -28.8850  -26.0580   21.1370 C   0  0  0  0  0  2  0  0  0  0  0  0
  -28.3950  -26.6610   19.9200 O   0  0  0  0  0  0  0  0  0  0  0  0
  -24.6290  -31.8810   23.1540 C   0  0  0  0  0  0  0  0  0  0  0  0
  -27.2780  -27.4770   19.9950 C   0  0  0  0  0  0  0  0  0  0  0  0
  -23.4300  -30.4980   21.4950 C   0  0  0  0  0  3  0  0  0  0  0  0
  -24.8900  -29.0020   20.0290 C   0  0  0  0  0  0  0  0  0  0  0  0
  -25.9560  -30.8720   21.2950 C   0  0  0  0  0  2  0  0  0  0  0  0
  -26.0490  -29.5080   20.6350 C   0  0  0  0  0  0  0  0  0  0  0  0
  -27.2500  -28.7490   20.6250 C   0  0  0  0  0  3  0  0  0  0  0  0
  -26.1150  -27.0150   19.3520 C   0  0  0  0  0  3  0  0  0  0  0  0
  -24.9190  -27.7540   19.3840 C   0  0  0  0  0  3  0  0  0  0  0  0
  -23.6400  -29.8520   20.1000 C   0  0  0  0  0  2  0  0  0  0  0  0
  -24.6910  -31.1000   22.0380 N   0  0  0  0  0  0  0  0  0  0  0  0
  -23.5470  -32.1320   23.7050 O   0  0  0  0  0  0  0  0  0  0  0  0
  -22.7930  -29.4500   22.4380 C   0  0  0  0  0  0  0  0  0  0  0  0
  -21.4650  -29.2720   22.3290 N   0  0  0  0  0  0  0  0  0  0  0  0
  -23.4890  -28.8040   23.2260 O   0  0  0  0  0  0  0  0  0  0  0  0
  -20.9640  -29.8480   21.6690 H   0  0  0  0  0  0  0  0  0  0  0  0
  -18.0960  -28.0730   22.8660 C   0  0  0  0  0  0  0  0  0  0  0  0
  -20.6610  -28.3120   23.0860 C   0  0  0  0  0  3  0  0  0  0  0  0
  -20.7420  -26.9010   22.4610 C   0  0  0  0  0  2  0  0  0  0  0  0
  -19.6170  -26.6140   21.4640 C   0  0  0  0  0  2  0  0  0  0  0  0
  -18.2500  -26.7450   22.1430 C   0  0  0  0  0  2  0  0  0  0  0  0
  -19.2280  -28.8160   23.2930 C   0  0  0  0  0  0  0  0  0  0  0  0
  -19.0290  -30.0610   23.9300 C   0  0  0  0  0  3  0  0  0  0  0  0
  -17.7310  -30.5610   24.1430 C   0  0  0  0  0  3  0  0  0  0  0  0
  -16.6150  -29.8140   23.7320 C   0  0  0  0  0  3  0  0  0  0  0  0
  -16.7970  -28.5710   23.0990 C   0  0  0  0  0  3  0  0  0  0  0  0
  -25.9100  -32.5140   23.7820 C   0  0  0  0  0  3  0  0  0  0  0  0
  -26.4410  -31.7280   25.0420 C   0  0  1  0  0  0  0  0  0  0  0  0
  -25.3560  -31.4670   26.1160 C   0  0  0  0  0  1  0  0  0  0  0  0
  -27.0320  -30.3600   24.6240 C   0  0  0  0  0  1  0  0  0  0  0  0
  -27.5930  -32.5190   25.7060 C   0  0  0  0  0  1  0  0  0  0  0  0
  -25.5910  -33.9030   24.1360 N   0  0  0  0  0  0  0  0  0  0  0  0
  -25.9030  -34.9710   23.3890 C   0  0  0  0  0  0  0  0  0  0  0  0
  -26.5660  -34.8880   22.3500 O   0  0  0  0  0  0  0  0  0  0  0  0
  -25.0090  -34.0420   24.9500 H   0  0  0  0  0  0  0  0  0  0  0  0
  -24.1580  -36.7530   23.0700 C   0  0  0  0  0  1  0  0  0  0  0  0
  -25.4070  -36.3470   23.8700 C   0  0  0  0  0  3  0  0  0  0  0  0
  -27.5310  -37.2400   24.7150 C   0  0  0  0  0  1  0  0  0  0  0  0
  -26.4290  -37.4100   23.7710 N   0  0  0  0  0  0  0  0  0  0  0  0
  -26.0160  -38.3250   23.9310 H   0  0  0  0  0  0  0  0  0  0  0  0
  2  3  1  0
  2  4  2  0
  3  5  2  0
  4 15  1  0
  4  6  1  0
  5  1  1  0
  5  6  1  0
  7 16  1  0
  8 13  1  0
  9 10  1  0
  9  8  1  0
 11 10  1  0
 11 22  1  0
 11 12  1  0
 13  7  1  0
 13 12  1  0
 14  7  2  0
 15 17  2  0
 16 18  1  0
 16 15  1  0
 19 20  2  0
 20 39  1  0
 21 20  1  0
 21 24  1  0
 22 23  1  0
 22 19  1  0
 23 21  2  0
 24 25  1  0
 25 26  2  0
 27 30  1  0
 27 26  1  0
 28 27  2  0
 29 28  1  0
 29 24  2  0
 30 31  1  0
 31 32  1  0
 32 33  2  0
 34 33  1  0
 34 38  1  0
 35 34  2  0
 36 31  2  0
 36 35  1  0
 37 36  1  0
 39 40  1  0
 40 43  1  0
 40 42  1  0
 41 39  2  0
 44 19  1  0
 44 45  1  0
 46 44  1  0
 47  1  2  0
 47 50  1  0
 50 49  1  1
 50 48  1  0
 51 50  1  0
 52 54  1  0
 52 51  1  0
 53 64  2  0
 54 59  1  0
 55 63  1  0
 55 65  1  0
 56 62  1  0
 56 58  1  0
 57 63  1  0
 58 57  1  0
 59 58  2  0
 60 61  1  0
 60 54  2  0
 61 56  2  0
 62 55  1  0
 63 53  1  0
 65 67  2  0
 66 65  1  0
 68 66  1  0
 69 78  2  0
 69 74  1  0
 70 66  1  0
 70 74  1  0
 71 70  1  0
 72 73  1  0
 72 71  1  0
 73 69  1  0
 74 75  2  0
 75 76  1  0
 77 76  2  0
 78 77  1  0
 79 53  1  0
 79 84  1  0
 79 80  1  0
 80 83  1  1
 80 81  1  0
 82 80  1  0
 84 87  1  0
 85 89  1  0
 85 84  1  0
 86 85  2  0
 89 88  1  0
 91 89  1  0
 91 92  1  0
 91 90  1  0
M  ISO  4   7 100  16 100  51 101  52 101
M  END
>  <TORSDO>  (40) 
F 20

>  <SCORE>  (40) 
-13.822

>  <name>  (40) 
39

>  <ligand_id>  (40) 
39

>  <original_smiles>  (40) 
[H]c1c(C(=O)N([H])C(=O)N2C([H])([H])C([H])([H])C([H])([H])C([H])(n3nc(-c4c([H])c([H])c(Oc5c([H])c([H])c(F)c([H])c5F)c([H])c4[H])c(C(=O)N([H])[H])c3N([H])[H])C2([H])[H])sc(C([H])([H])C([H])([H])C(C([H])([H])[H])(C([H])([H])[H])C([H])([H])Oc2c([H])c([H])c3c(c2[H])C([H])([H])N(C(=O)C([H])(N([H])C(=O)C([H])(N([H])C([H])([H])[H])C([H])([H])[H])C(C([H])([H])[H])(C([H])([H])[H])C([H])([H])[H])C([H])(C(=O)N([H])C2([H])c4c([H])c([H])c([H])c([H])c4C([H])([H])C([H])([H])C2([H])[H])C3([H])[H])c1[H]

>  <smiles>  (40) 
[H]c1c(C(=O)N([H])C(=O)N2C([H])([H])C([H])([H])C([H])([H])C([H])(n3nc(-c4c([H])c([H])c(Oc5c([H])c([H])c(F)c([H])c5F)c([H])c4[H])c(C(=O)N([H])[H])c3N([H])[H])C2([H])[H])sc(C([H])([H])C([H])([H])C(C([H])([H])[H])(C([H])([H])[H])C([H])([H])Oc2c([H])c([H])c3c(c2[H])C([H])([H])N(C(=O)C([H])(N([H])C(=O)C([H])(N([H])C([H])([H])[H])C([H])([H])[H])C(C([H])([H])[H])(C([H])([H])[H])C([H])([H])[H])C([H])(C(=O)N([H])C2([H])c4c([H])c([H])c([H])c([H])c4C([H])([H])C([H])([H])C2([H])[H])C3([H])[H])c1[H]

$$$$
40:0:0
     RDKit          3D

 92101  0  0  1  0  0  0  0  0999 V2000
  -28.8830  -23.8950   20.3730 C   0  0  0  0  0  0  0  0  0  0  0  0
  -28.5390  -25.1280   19.8060 C   0  0  0  0  0  2  0  0  0  0  0  0
  -29.2790  -23.5500   21.8010 C   0  0  0  0  0  3  0  0  0  0  0  0
  -28.9670  -22.5200   19.6380 C   0  0  0  0  0  3  0  0  0  0  0  0
  -29.5740  -22.0000   21.8810 C   0  0  0  0  0  3  0  0  0  0  0  0
  -29.3150  -21.3920   20.5720 N   0  0  0  0  0  0  0  0  0  0  0  0
  -30.3940  -18.6290   18.2690 C   0  0  0  0  0  3  0  0  0  0  0  0
  -30.0590  -19.8740   18.8170 C   0  0  0  0  0  3  0  0  0  0  0  0
  -29.7370  -18.7840   20.9580 C   0  0  0  0  0  3  0  0  0  0  0  0
  -30.3830  -17.4400   19.0230 C   0  0  0  0  0  0  0  0  0  0  0  0
  -29.6980  -20.0300   20.1700 C   0  0  0  0  0  0  0  0  0  0  0  0
  -30.0900  -17.4540   20.4200 C   0  0  0  0  0  0  0  0  0  0  0  0
  -30.5980  -16.1630   18.2320 C   0  0  0  0  0  1  0  0  0  0  0  0
  -30.8050  -14.9880   21.1360 C   0  0  0  0  0  0  0  0  0  0  0  0
  -30.7730  -12.6200   20.3170 C   0  0  0  0  0  2  0  0  0  0  0  0
  -29.9910  -12.5260   18.9860 C   0  0  0  0  0  2  0  0  0  0  0  0
  -28.4750  -12.4060   19.2350 C   0  0  0  0  0  2  0  0  0  0  0  0
  -27.9480  -13.3690   20.3340 C   0  0  0  0  0  3  0  0  0  0  0  0
  -28.8640  -13.3910   21.5750 C   0  0  0  0  0  2  0  0  0  0  0  0
  -30.2120  -13.7400   21.1120 N   0  0  0  0  0  0  0  0  0  0  0  0
  -32.0270  -15.0670   20.9770 O   0  0  0  0  0  0  0  0  0  0  0  0
  -30.0020  -16.1390   21.1620 N   0  0  0  0  0  0  0  0  0  0  0  0
  -29.0930  -15.9660   21.5640 H   0  0  0  0  0  0  0  0  0  0  0  0
  -25.4920  -13.9580   20.7820 C   0  0  0  0  0  0  0  0  0  0  0  0
  -24.3950  -13.1870   21.0500 C   0  0  0  0  0  0  0  0  0  0  0  0
  -24.8630  -11.8380   21.1060 C   0  0  0  0  0  0  0  0  0  0  0  0
  -26.5600  -13.0810   20.6840 N   0  0  0  0  0  0  0  0  0  0  0  0
  -26.1810  -11.8020   20.9450 N   0  0  0  0  0  0  0  0  0  0  0  0
  -24.1250  -10.5760   21.2430 C   0  0  0  0  0  0  0  0  0  0  0  0
  -24.4820   -9.6100   22.2090 C   0  0  0  0  0  3  0  0  0  0  0  0
  -23.7440   -8.4130   22.3330 C   0  0  0  0  0  3  0  0  0  0  0  0
  -22.6320   -8.1740   21.4910 C   0  0  0  0  0  0  0  0  0  0  0  0
  -22.2940   -9.1290   20.5160 C   0  0  0  0  0  3  0  0  0  0  0  0
  -23.0330  -10.3160   20.3900 C   0  0  0  0  0  3  0  0  0  0  0  0
  -21.8720   -7.0290   21.5240 O   0  0  0  0  0  0  0  0  0  0  0  0
  -21.7590   -6.2730   22.6620 C   0  0  0  0  0  0  0  0  0  0  0  0
  -21.2220   -6.8000   23.8560 C   0  0  0  0  0  3  0  0  0  0  0  0
  -21.0590   -5.9680   24.9820 C   0  0  0  0  0  3  0  0  0  0  0  0
  -21.4210   -4.6090   24.9140 C   0  0  0  0  0  0  0  0  0  0  0  0
  -21.9520   -4.0820   23.7240 C   0  0  0  0  0  3  0  0  0  0  0  0
  -22.1160   -4.9100   22.6000 C   0  0  0  0  0  0  0  0  0  0  0  0
  -22.6080   -4.3910   21.4490 F   0  0  0  0  0  0  0  0  0  0  0  0
  -21.2580   -3.8090   25.9930 F   0  0  0  0  0  0  0  0  0  0  0  0
  -22.9750  -13.6620   21.1490 C   0  0  0  0  0  0  0  0  0  0  0  0
  -22.1560  -12.9850   21.9470 N   0  0  0  0  0  0  0  0  0  0  0  0
  -22.5960  -14.6700   20.5550 O   0  0  0  0  0  0  0  0  0  0  0  0
  -22.4710  -12.1700   22.4500 H   0  0  0  0  0  0  0  0  0  0  0  0
  -21.1990  -13.2890   22.0570 H   0  0  0  0  0  0  0  0  0  0  0  0
  -25.6710  -15.3240   20.5890 N   0  0  0  0  0  0  0  0  0  0  0  0
  -24.8930  -15.9760   20.5930 H   0  0  0  0  0  0  0  0  0  0  0  0
  -26.5470  -15.7580   20.3270 H   0  0  0  0  0  0  0  0  0  0  0  0
  -28.5300  -26.4640   20.3270 O   0  0  0  0  0  0  0  0  0  0  0  0
  -24.6090  -31.8600   23.2110 C   0  0  0  0  0  0  0  0  0  0  0  0
  -27.4180  -27.3390   20.1950 C   0  0  0  0  0  0  0  0  0  0  0  0
  -23.4850  -30.4300   21.5450 C   0  0  0  0  0  3  0  0  0  0  0  0
  -25.0110  -28.9280   20.1340 C   0  0  0  0  0  0  0  0  0  0  0  0
  -26.0200  -30.8130   21.4160 C   0  0  0  0  0  2  0  0  0  0  0  0
  -26.1560  -29.4360   20.7610 C   0  0  0  0  0  0  0  0  0  0  0  0
  -27.3580  -28.6520   20.7830 C   0  0  0  0  0  3  0  0  0  0  0  0
  -26.2440  -26.9050   19.5370 C   0  0  0  0  0  3  0  0  0  0  0  0
  -25.0630  -27.6720   19.5100 C   0  0  0  0  0  3  0  0  0  0  0  0
  -23.7480  -29.7680   20.1660 C   0  0  0  0  0  2  0  0  0  0  0  0
  -24.7230  -31.0540   22.1140 N   0  0  0  0  0  0  0  0  0  0  0  0
  -23.5060  -32.1020   23.7250 O   0  0  0  0  0  0  0  0  0  0  0  0
  -22.8330  -29.3910   22.4900 C   0  0  0  0  0  0  0  0  0  0  0  0
  -21.5080  -29.1990   22.3650 N   0  0  0  0  0  0  0  0  0  0  0  0
  -23.5200  -28.7610   23.2990 O   0  0  0  0  0  0  0  0  0  0  0  0
  -21.0120  -29.7590   21.6870 H   0  0  0  0  0  0  0  0  0  0  0  0
  -18.1430  -27.9730   22.8840 C   0  0  0  0  0  0  0  0  0  0  0  0
  -20.7030  -28.2390   23.1230 C   0  0  0  0  0  3  0  0  0  0  0  0
  -20.8020  -26.8230   22.5090 C   0  0  0  0  0  2  0  0  0  0  0  0
  -19.6880  -26.5210   21.5020 C   0  0  0  0  0  2  0  0  0  0  0  0
  -18.3150  -26.6440   22.1690 C   0  0  0  0  0  2  0  0  0  0  0  0
  -19.2640  -28.7300   23.3180 C   0  0  0  0  0  0  0  0  0  0  0  0
  -19.0480  -29.9740   23.9480 C   0  0  0  0  0  3  0  0  0  0  0  0
  -17.7430  -30.4630   24.1470 C   0  0  0  0  0  3  0  0  0  0  0  0
  -16.6360  -29.7040   23.7280 C   0  0  0  0  0  3  0  0  0  0  0  0
  -16.8370  -28.4610   23.1030 C   0  0  0  0  0  3  0  0  0  0  0  0
  -25.8570  -32.5340   23.8600 C   0  0  0  0  0  3  0  0  0  0  0  0
  -25.4950  -33.9210   24.1880 N   0  0  0  0  0  0  0  0  0  0  0  0
  -25.8960  -34.9980   23.4990 C   0  0  0  0  0  0  0  0  0  0  0  0
  -26.6760  -34.9290   22.5460 O   0  0  0  0  0  0  0  0  0  0  0  0
  -24.8130  -34.0480   24.9220 H   0  0  0  0  0  0  0  0  0  0  0  0
  -24.2270  -36.8080   22.9770 C   0  0  0  0  0  1  0  0  0  0  0  0
  -25.3450  -36.3690   23.9370 C   0  0  0  0  0  3  0  0  0  0  0  0
  -27.3370  -37.2210   25.0930 C   0  0  0  0  0  1  0  0  0  0  0  0
  -26.3800  -37.4240   24.0100 N   0  0  0  0  0  0  0  0  0  0  0  0
  -25.9540  -38.3390   24.1290 H   0  0  0  0  0  0  0  0  0  0  0  0
  -26.3710  -31.7780   25.1460 C   0  0  1  0  0  0  0  0  0  0  0  0
  -25.2670  -31.5100   26.1950 C   0  0  0  0  0  1  0  0  0  0  0  0
  -27.0000  -30.4170   24.7690 C   0  0  0  0  0  1  0  0  0  0  0  0
  -27.4880  -32.6050   25.8280 C   0  0  0  0  0  1  0  0  0  0  0  0
  1  3  1  0
  2 52  1  0
  2  1  1  0
  3  5  2  0
  4  1  2  0
  4  6  1  0
  6  5  1  0
  7  8  2  0
  7 10  1  0
  8 11  1  0
 10 12  2  0
 11  6  1  0
 11  9  2  0
 12  9  1  0
 12 22  1  0
 13 10  1  0
 14 22  1  0
 15 20  1  0
 16 17  1  0
 16 15  1  0
 18 17  1  0
 18 27  1  0
 18 19  1  0
 20 14  1  0
 20 19  1  0
 21 14  2  0
 22 23  1  0
 24 25  2  0
 25 26  1  0
 25 44  1  0
 26 29  1  0
 27 24  1  0
 27 28  1  0
 28 26  2  0
 29 30  1  0
 30 31  2  0
 32 35  1  0
 32 31  1  0
 33 32  2  0
 34 33  1  0
 34 29  2  0
 35 36  1  0
 36 37  1  0
 37 38  2  0
 39 38  1  0
 39 43  1  0
 40 39  2  0
 41 36  2  0
 41 40  1  0
 42 41  1  0
 44 45  1  0
 45 48  1  0
 45 47  1  0
 46 44  2  0
 49 50  1  0
 49 24  1  0
 51 49  1  0
 53 64  2  0
 54 52  1  0
 54 59  1  0
 55 63  1  0
 55 65  1  0
 56 62  1  0
 56 58  1  0
 57 63  1  0
 58 59  2  0
 58 57  1  0
 60 54  2  0
 61 60  1  0
 61 56  2  0
 62 55  1  0
 63 53  1  0
 65 67  2  0
 66 65  1  0
 68 66  1  0
 69 78  2  0
 69 74  1  0
 70 66  1  0
 70 74  1  0
 71 70  1  0
 72 73  1  0
 72 71  1  0
 73 69  1  0
 74 75  2  0
 75 76  1  0
 77 76  2  0
 78 77  1  0
 79 53  1  0
 79 80  1  0
 79 89  1  0
 80 83  1  0
 81 85  1  0
 81 80  1  0
 82 81  2  0
 85 84  1  0
 85 87  1  0
 87 88  1  0
 87 86  1  0
 89 92  1  1
 89 90  1  0
 91 89  1  0
M  ISO  4   2 101  14 100  22 100  52 101
M  END
>  <TORSDO>  (41) 
F 17

>  <SCORE>  (41) 
-14.442

>  <name>  (41) 
40

>  <ligand_id>  (41) 
40

>  <original_smiles>  (41) 
[H]C(Oc1c([H])c([H])c2c(c1[H])C([H])([H])N(C(=O)C([H])(N([H])C(=O)C([H])(N([H])C([H])([H])[H])C([H])([H])[H])C(C([H])([H])[H])(C([H])([H])[H])C([H])([H])[H])C([H])(C(=O)N([H])C1([H])c3c([H])c([H])c([H])c([H])c3C([H])([H])C([H])([H])C1([H])[H])C2([H])[H])=C1C([H])([H])N(c2c([H])c([H])c(C([H])([H])[H])c(N([H])C(=O)N3C([H])([H])C([H])([H])C([H])([H])C([H])(n4nc(-c5c([H])c([H])c(Oc6c([H])c([H])c(F)c([H])c6F)c([H])c5[H])c(C(=O)N([H])[H])c4N([H])[H])C3([H])[H])c2[H])C([H])([H])C1([H])[H]

>  <smiles>  (41) 
[H]C(Oc1c([H])c([H])c2c(c1[H])C([H])([H])N(C(=O)C([H])(N([H])C(=O)C([H])(N([H])C([H])([H])[H])C([H])([H])[H])C(C([H])([H])[H])(C([H])([H])[H])C([H])([H])[H])C([H])(C(=O)N([H])C1([H])c3c([H])c([H])c([H])c([H])c3C([H])([H])C([H])([H])C1([H])[H])C2([H])[H])=C1C([H])([H])N(c2c([H])c([H])c(C([H])([H])[H])c(N([H])C(=O)N3C([H])([H])C([H])([H])C([H])([H])C([H])(n4nc(-c5c([H])c([H])c(Oc6c([H])c([H])c(F)c([H])c6F)c([H])c5[H])c(C(=O)N([H])[H])c4N([H])[H])C3([H])[H])c2[H])C([H])([H])C1([H])[H]

$$$$
41:0:0
     RDKit          3D

 97105  0  0  1  0  0  0  0  0999 V2000
  -29.8380  -20.6870   18.7670 O   0  0  0  0  0  0  0  0  0  0  0  0
  -31.4470  -18.0080   21.6330 C   0  0  0  0  0  3  0  0  0  0  0  0
  -30.7250  -20.2430   21.0180 C   0  0  0  0  0  3  0  0  0  0  0  0
  -30.6140  -18.4420   19.3820 C   0  0  0  0  0  3  0  0  0  0  0  0
  -31.2400  -19.3590   21.9920 C   0  0  0  0  0  0  0  0  0  0  0  0
  -31.1240  -17.5270   20.3490 C   0  0  0  0  0  0  0  0  0  0  0  0
  -30.4020  -19.8190   19.7050 C   0  0  0  0  0  0  0  0  0  0  0  0
  -31.8950  -15.0620   20.2660 C   0  0  0  0  0  0  0  0  0  0  0  0
  -31.6620  -12.6370   19.7760 C   0  0  0  0  0  2  0  0  0  0  0  0
  -30.8330  -12.4920   18.4780 C   0  0  0  0  0  2  0  0  0  0  0  0
  -29.3150  -12.5390   18.7640 C   0  0  0  0  0  2  0  0  0  0  0  0
  -28.9190  -13.7220   19.6860 C   0  0  0  0  0  3  0  0  0  0  0  0
  -29.8480  -13.7570   20.9220 C   0  0  0  0  0  2  0  0  0  0  0  0
  -31.2360  -13.8780   20.4350 N   0  0  0  0  0  0  0  0  0  0  0  0
  -33.0850  -15.1370   19.9360 O   0  0  0  0  0  0  0  0  0  0  0  0
  -31.0310  -16.1010   20.2620 N   0  0  0  0  0  0  0  0  0  0  0  0
  -30.1120  -15.7600   20.4990 H   0  0  0  0  0  0  0  0  0  0  0  0
  -26.6060  -14.7200   20.2220 C   0  0  0  0  0  0  0  0  0  0  0  0
  -25.4030  -14.1330   20.5080 C   0  0  0  0  0  0  0  0  0  0  0  0
  -25.6430  -12.7250   20.5050 C   0  0  0  0  0  0  0  0  0  0  0  0
  -27.5090  -13.6780   20.0630 N   0  0  0  0  0  0  0  0  0  0  0  0
  -26.9260  -12.4740   20.2890 N   0  0  0  0  0  0  0  0  0  0  0  0
  -24.7120  -11.5960   20.6390 C   0  0  0  0  0  0  0  0  0  0  0  0
  -25.0090  -10.4890   21.4630 C   0  0  0  0  0  3  0  0  0  0  0  0
  -24.0920   -9.4240   21.5860 C   0  0  0  0  0  3  0  0  0  0  0  0
  -22.8650   -9.4590   20.8850 C   0  0  0  0  0  0  0  0  0  0  0  0
  -22.5840  -10.5540   20.0470 C   0  0  0  0  0  3  0  0  0  0  0  0
  -23.4990  -11.6120   19.9210 C   0  0  0  0  0  3  0  0  0  0  0  0
  -21.9250   -8.4570   20.9220 O   0  0  0  0  0  0  0  0  0  0  0  0
  -21.7690   -7.6600   22.0270 C   0  0  0  0  0  0  0  0  0  0  0  0
  -21.4500   -8.1950   23.2940 C   0  0  0  0  0  3  0  0  0  0  0  0
  -21.2300   -7.3340   24.3880 C   0  0  0  0  0  3  0  0  0  0  0  0
  -21.3190   -5.9390   24.2160 C   0  0  0  0  0  0  0  0  0  0  0  0
  -21.6340   -5.4040   22.9530 C   0  0  0  0  0  3  0  0  0  0  0  0
  -21.8550   -6.2620   21.8630 C   0  0  0  0  0  0  0  0  0  0  0  0
  -22.1360   -5.7410   20.6440 F   0  0  0  0  0  0  0  0  0  0  0  0
  -21.1010   -5.1100   25.2640 F   0  0  0  0  0  0  0  0  0  0  0  0
  -24.0840  -14.8310   20.6790 C   0  0  0  0  0  0  0  0  0  0  0  0
  -23.2460  -14.3420   21.5870 N   0  0  0  0  0  0  0  0  0  0  0  0
  -23.8090  -15.8460   20.0430 O   0  0  0  0  0  0  0  0  0  0  0  0
  -23.4780  -13.5230   22.1290 H   0  0  0  0  0  0  0  0  0  0  0  0
  -22.3580  -14.7990   21.7450 H   0  0  0  0  0  0  0  0  0  0  0  0
  -27.0000  -16.0450   20.0670 N   0  0  0  0  0  0  0  0  0  0  0  0
  -26.3410  -16.8130   20.1280 H   0  0  0  0  0  0  0  0  0  0  0  0
  -27.9300  -16.3460   19.7990 H   0  0  0  0  0  0  0  0  0  0  0  0
  -32.6260  -19.1630   24.1530 C   0  0  0  0  0  1  0  0  0  0  0  0
  -30.1720  -19.5820   24.2470 C   0  0  0  0  0  1  0  0  0  0  0  0
  -31.7460  -21.3780   23.4470 C   0  0  0  0  0  1  0  0  0  0  0  0
  -31.4520  -19.8630   23.4340 C   0  0  2  0  0  0  0  0  0  0  0  0
  -29.3920  -22.0110   19.1800 C   0  0  0  0  0  2  0  0  0  0  0  0
  -28.1240  -22.5410   17.0360 C   0  0  0  0  0  1  0  0  0  0  0  0
  -29.2460  -23.0150   17.9810 C   0  0  0  0  0  3  0  0  0  0  0  0
  -30.0560  -25.2830   17.1670 C   0  0  0  0  0  1  0  0  0  0  0  0
  -29.8430  -24.9240   19.6240 C   0  0  0  0  0  1  0  0  0  0  0  0
  -29.2020  -24.5960   18.2590 C   0  0  2  0  0  0  0  0  0  0  0  0
  -27.7830  -25.2820   18.1990 C   0  0  0  0  0  2  0  0  0  0  0  0
  -27.8220  -26.7270   18.3790 O   0  0  0  0  0  0  0  0  0  0  0  0
  -24.3810  -31.2590   22.7050 C   0  0  0  0  0  0  0  0  0  0  0  0
  -26.6380  -27.4110   18.6320 C   0  0  0  0  0  0  0  0  0  0  0  0
  -22.9730  -30.0260   21.0910 C   0  0  0  0  0  3  0  0  0  0  0  0
  -24.2240  -28.7920   19.2390 C   0  0  0  0  0  0  0  0  0  0  0  0
  -25.4200  -30.5520   20.5470 C   0  0  0  0  0  2  0  0  0  0  0  0
  -25.4480  -29.2890   19.7050 C   0  0  0  0  0  0  0  0  0  0  0  0
  -26.6530  -28.6080   19.3950 C   0  0  0  0  0  3  0  0  0  0  0  0
  -25.3860  -26.9430   18.1620 C   0  0  0  0  0  3  0  0  0  0  0  0
  -24.1900  -27.6220   18.4640 C   0  0  0  0  0  3  0  0  0  0  0  0
  -22.9740  -29.5620   19.6110 C   0  0  0  0  0  2  0  0  0  0  0  0
  -24.2860  -30.6210   21.5040 N   0  0  0  0  0  0  0  0  0  0  0  0
  -23.3950  -31.3860   23.4460 O   0  0  0  0  0  0  0  0  0  0  0  0
  -22.5300  -28.8440   21.9830 C   0  0  0  0  0  0  0  0  0  0  0  0
  -21.2430  -28.4730   21.8940 N   0  0  0  0  0  0  0  0  0  0  0  0
  -23.3400  -28.2660   22.7130 O   0  0  0  0  0  0  0  0  0  0  0  0
  -20.6390  -29.0020   21.2800 H   0  0  0  0  0  0  0  0  0  0  0  0
  -18.1300  -26.7000   22.3700 C   0  0  0  0  0  0  0  0  0  0  0  0
  -20.6160  -27.3630   22.6110 C   0  0  0  0  0  3  0  0  0  0  0  0
  -20.9370  -26.0110   21.9320 C   0  0  0  0  0  2  0  0  0  0  0  0
  -19.8730  -25.5770   20.9180 C   0  0  0  0  0  2  0  0  0  0  0  0
  -18.5070  -25.4470   21.5960 C   0  0  0  0  0  2  0  0  0  0  0  0
  -19.1200  -27.6080   22.8320 C   0  0  0  0  0  0  0  0  0  0  0  0
  -18.7140  -28.7740   23.5150 C   0  0  0  0  0  3  0  0  0  0  0  0
  -17.3500  -29.0380   23.7410 C   0  0  0  0  0  3  0  0  0  0  0  0
  -16.3750  -28.1300   23.2950 C   0  0  0  0  0  3  0  0  0  0  0  0
  -16.7660  -26.9630   22.6150 C   0  0  0  0  0  3  0  0  0  0  0  0
  -25.7270  -31.8780   23.1970 C   0  0  0  0  0  3  0  0  0  0  0  0
  -25.4070  -33.1290   23.8990 N   0  0  0  0  0  0  0  0  0  0  0  0
  -25.5200  -34.3520   23.3630 C   0  0  0  0  0  0  0  0  0  0  0  0
  -25.9780  -34.5490   22.2340 O   0  0  0  0  0  0  0  0  0  0  0  0
  -24.9760  -33.0410   24.8080 H   0  0  0  0  0  0  0  0  0  0  0  0
  -23.6640  -36.0070   23.7400 C   0  0  0  0  0  1  0  0  0  0  0  0
  -25.0510  -35.5470   24.2150 C   0  0  0  0  0  3  0  0  0  0  0  0
  -27.2400  -36.4260   24.8980 C   0  0  0  0  0  1  0  0  0  0  0  0
  -25.9890  -36.6910   24.1920 N   0  0  0  0  0  0  0  0  0  0  0  0
  -25.5620  -37.5160   24.6050 H   0  0  0  0  0  0  0  0  0  0  0  0
  -26.5530  -30.9110   24.1310 C   0  0  1  0  0  0  0  0  0  0  0  0
  -25.7010  -30.2280   25.2270 C   0  0  0  0  0  1  0  0  0  0  0  0
  -27.2330  -29.7980   23.3000 C   0  0  0  0  0  1  0  0  0  0  0  0
  -27.6860  -31.6980   24.8290 C   0  0  0  0  0  1  0  0  0  0  0  0
  1 50  1  0
  1  7  1  0
  2  5  1  0
  3  5  2  0
  4  7  2  0
  4  6  1  0
  5 49  1  0
  6  2  2  0
  7  3  1  0
  8 14  1  0
  9 14  1  0
 10 11  1  0
 10  9  1  0
 12 11  1  0
 12 21  1  0
 12 13  1  0
 14 13  1  0
 15  8  2  0
 16  8  1  0
 16  6  1  0
 16 17  1  0
 18 19  2  0
 19 38  1  0
 20 19  1  0
 20 23  1  0
 21 18  1  0
 21 22  1  0
 22 20  2  0
 23 24  1  0
 24 25  2  0
 26 29  1  0
 26 25  1  0
 27 26  2  0
 28 27  1  0
 28 23  2  0
 29 30  1  0
 30 31  1  0
 31 32  2  0
 33 32  1  0
 33 37  1  0
 34 33  2  0
 35 30  2  0
 35 34  1  0
 36 35  1  0
 38 39  1  0
 39 42  1  0
 39 41  1  0
 40 38  2  0
 43 44  1  0
 43 18  1  0
 45 43  1  0
 49 48  1  6
 49 46  1  0
 49 47  1  0
 52 51  1  0
 52 55  1  0
 52 50  1  0
 55 53  1  6
 55 54  1  0
 56 55  1  0
 56 57  1  0
 57 59  1  0
 58 69  2  0
 59 64  1  0
 60 68  1  0
 60 70  1  0
 61 67  1  0
 61 63  1  0
 62 68  1  0
 63 62  1  0
 64 63  2  0
 65 66  1  0
 65 59  2  0
 66 61  2  0
 67 60  1  0
 68 58  1  0
 70 72  2  0
 71 70  1  0
 73 71  1  0
 74 83  2  0
 74 79  1  0
 75 71  1  0
 75 79  1  0
 76 75  1  0
 77 78  1  0
 77 76  1  0
 78 74  1  0
 79 80  2  0
 80 81  1  0
 82 81  2  0
 83 82  1  0
 84 58  1  0
 84 85  1  0
 84 94  1  0
 85 88  1  0
 86 85  1  0
 86 90  1  0
 87 86  2  0
 90 89  1  0
 92 90  1  0
 92 93  1  0
 92 91  1  0
 94 97  1  1
 94 95  1  0
 96 94  1  0
M  ISO  4   8 100  16 100  56 101  57 101
M  END
>  <TORSDO>  (42) 
F 22

>  <SCORE>  (42) 
-5.747

>  <name>  (42) 
41

>  <ligand_id>  (42) 
41

>  <original_smiles>  (42) 
[H]c1c([H])c([H])c2c(c1[H])C([H])([H])C([H])([H])C([H])([H])C2([H])N([H])C(=O)C1([H])N(C(=O)C([H])(N([H])C(=O)C([H])(N([H])C([H])([H])[H])C([H])([H])[H])C(C([H])([H])[H])(C([H])([H])[H])C([H])([H])[H])C([H])([H])c2c([H])c(OC([H])([H])C(C([H])([H])[H])(C([H])([H])[H])C([H])(C([H])([H])[H])C([H])([H])Oc3c([H])c(N([H])C(=O)N4C([H])([H])C([H])([H])C([H])([H])C([H])(n5nc(-c6c([H])c([H])c(Oc7c([H])c([H])c(F)c([H])c7F)c([H])c6[H])c(C(=O)N([H])[H])c5N([H])[H])C4([H])[H])c([H])c(C(C([H])([H])[H])(C([H])([H])[H])C([H])([H])[H])c3[H])c([H])c([H])c2C1([H])[H]

>  <smiles>  (42) 
[H]c1c([H])c([H])c2c(c1[H])C([H])([H])C([H])([H])C([H])([H])C2([H])N([H])C(=O)C1([H])N(C(=O)C([H])(N([H])C(=O)C([H])(N([H])C([H])([H])[H])C([H])([H])[H])C(C([H])([H])[H])(C([H])([H])[H])C([H])([H])[H])C([H])([H])c2c([H])c(OC([H])([H])C(C([H])([H])[H])(C([H])([H])[H])C([H])(C([H])([H])[H])C([H])([H])Oc3c([H])c(N([H])C(=O)N4C([H])([H])C([H])([H])C([H])([H])C([H])(n5nc(-c6c([H])c([H])c(Oc7c([H])c([H])c(F)c([H])c7F)c([H])c6[H])c(C(=O)N([H])[H])c5N([H])[H])C4([H])[H])c([H])c(C(C([H])([H])[H])(C([H])([H])[H])C([H])([H])[H])c3[H])c([H])c([H])c2C1([H])[H]

$$$$
42:0:0
     RDKit          3D

 93102  0  0  1  0  0  0  0  0999 V2000
  -31.8250  -18.6540   21.9750 C   0  0  0  0  0  3  0  0  0  0  0  0
  -31.3380  -17.3880   21.6290 C   0  0  0  0  0  3  0  0  0  0  0  0
  -29.5440  -18.4810   20.4100 C   0  0  0  0  0  3  0  0  0  0  0  0
  -30.0100  -19.8200   20.7610 C   0  0  0  0  0  0  0  0  0  0  0  0
  -31.2100  -19.8480   21.5360 C   0  0  0  0  0  0  0  0  0  0  0  0
  -30.2020  -17.2470   20.8120 C   0  0  0  0  0  0  0  0  0  0  0  0
  -29.3290  -21.1160   20.1810 C   0  0  0  0  0  0  0  0  0  0  0  0
  -31.9570  -21.1160   21.8930 C   0  0  0  0  0  2  0  0  0  0  0  0
  -31.0980  -22.1240   22.6330 C   0  0  0  0  0  2  0  0  0  0  0  0
  -30.4320  -23.0730   21.6520 C   0  0  0  0  0  2  0  0  0  0  0  0
  -29.1820  -22.5530   20.9120 C   0  0  0  0  0  3  0  0  0  0  0  0
  -28.7880  -21.0310   19.0740 O   0  0  0  0  0  0  0  0  0  0  0  0
  -30.5120  -14.7480   20.2360 C   0  0  0  0  0  0  0  0  0  0  0  0
  -30.2710  -12.5260   19.1280 C   0  0  0  0  0  2  0  0  0  0  0  0
  -29.2950  -12.6430   17.9370 C   0  0  0  0  0  2  0  0  0  0  0  0
  -27.8410  -12.4460   18.4070 C   0  0  0  0  0  2  0  0  0  0  0  0
  -27.4990  -13.2880   19.6660 C   0  0  0  0  0  3  0  0  0  0  0  0
  -28.5920  -13.1690   20.7500 C   0  0  0  0  0  2  0  0  0  0  0  0
  -29.8670  -13.5410   20.1240 N   0  0  0  0  0  0  0  0  0  0  0  0
  -31.6890  -14.8490   19.8810 O   0  0  0  0  0  0  0  0  0  0  0  0
  -29.7550  -15.8770   20.4960 N   0  0  0  0  0  0  0  0  0  0  0  0
  -28.7580  -15.7250   20.5130 H   0  0  0  0  0  0  0  0  0  0  0  0
  -25.1150  -13.8240   20.4520 C   0  0  0  0  0  0  0  0  0  0  0  0
  -24.0760  -13.0250   20.8430 C   0  0  0  0  0  0  0  0  0  0  0  0
  -24.5690  -11.6850   20.7950 C   0  0  0  0  0  0  0  0  0  0  0  0
  -26.1740  -12.9690   20.1880 N   0  0  0  0  0  0  0  0  0  0  0  0
  -25.8520  -11.6780   20.4580 N   0  0  0  0  0  0  0  0  0  0  0  0
  -23.8760  -10.4050   20.9950 C   0  0  0  0  0  0  0  0  0  0  0  0
  -24.3410   -9.4500   21.9250 C   0  0  0  0  0  3  0  0  0  0  0  0
  -23.6450   -8.2360   22.1130 C   0  0  0  0  0  3  0  0  0  0  0  0
  -22.4700   -7.9690   21.3700 C   0  0  0  0  0  0  0  0  0  0  0  0
  -22.0250   -8.9140   20.4280 C   0  0  0  0  0  3  0  0  0  0  0  0
  -22.7210  -10.1180   20.2390 C   0  0  0  0  0  3  0  0  0  0  0  0
  -21.7440   -6.8070   21.4670 O   0  0  0  0  0  0  0  0  0  0  0  0
  -21.7150   -6.0710   22.6240 C   0  0  0  0  0  0  0  0  0  0  0  0
  -21.2530   -6.6140   23.8420 C   0  0  0  0  0  3  0  0  0  0  0  0
  -21.1760   -5.8020   24.9910 C   0  0  0  0  0  3  0  0  0  0  0  0
  -21.5490   -4.4470   24.9220 C   0  0  0  0  0  0  0  0  0  0  0  0
  -22.0050   -3.9020   23.7100 C   0  0  0  0  0  3  0  0  0  0  0  0
  -22.0850   -4.7110   22.5630 C   0  0  0  0  0  0  0  0  0  0  0  0
  -22.5040   -4.1760   21.3910 F   0  0  0  0  0  0  0  0  0  0  0  0
  -21.4680   -3.6640   26.0250 F   0  0  0  0  0  0  0  0  0  0  0  0
  -22.6750  -13.4690   21.1470 C   0  0  0  0  0  0  0  0  0  0  0  0
  -21.9790  -12.7510   22.0210 N   0  0  0  0  0  0  0  0  0  0  0  0
  -22.2050  -14.4890   20.6430 O   0  0  0  0  0  0  0  0  0  0  0  0
  -22.3730  -11.9260   22.4500 H   0  0  0  0  0  0  0  0  0  0  0  0
  -21.0400  -13.0310   22.2670 H   0  0  0  0  0  0  0  0  0  0  0  0
  -25.2420  -15.1990   20.2750 N   0  0  0  0  0  0  0  0  0  0  0  0
  -24.4580  -15.8290   20.4020 H   0  0  0  0  0  0  0  0  0  0  0  0
  -26.0600  -15.6600   19.8980 H   0  0  0  0  0  0  0  0  0  0  0  0
  -28.6630  -23.8180   20.0340 C   0  0  0  0  0  2  0  0  0  0  0  0
  -28.0720  -25.1270   20.7680 C   0  0  0  0  0  2  0  0  0  0  0  0
  -28.2470  -26.4960   20.2060 O   0  0  0  0  0  0  0  0  0  0  0  0
  -24.5650  -31.9390   23.2590 C   0  0  0  0  0  0  0  0  0  0  0  0
  -27.1400  -27.3580   20.2060 C   0  0  0  0  0  0  0  0  0  0  0  0
  -23.3480  -30.5440   21.6250 C   0  0  0  0  0  3  0  0  0  0  0  0
  -24.7850  -28.9820   20.1970 C   0  0  0  0  0  0  0  0  0  0  0  0
  -25.8880  -30.8510   21.4290 C   0  0  0  0  0  2  0  0  0  0  0  0
  -25.9600  -29.4690   20.7860 C   0  0  0  0  0  0  0  0  0  0  0  0
  -27.1440  -28.6710   20.7750 C   0  0  0  0  0  3  0  0  0  0  0  0
  -25.9470  -26.9220   19.5960 C   0  0  0  0  0  3  0  0  0  0  0  0
  -24.7810  -27.7140   19.5910 C   0  0  0  0  0  3  0  0  0  0  0  0
  -23.5530  -29.8630   20.2460 C   0  0  0  0  0  2  0  0  0  0  0  0
  -24.6200  -31.1290   22.1600 N   0  0  0  0  0  0  0  0  0  0  0  0
  -23.4860  -32.2220   23.7980 O   0  0  0  0  0  0  0  0  0  0  0  0
  -22.6840  -29.5330   22.5900 C   0  0  0  0  0  0  0  0  0  0  0  0
  -21.3580  -29.3520   22.4600 N   0  0  0  0  0  0  0  0  0  0  0  0
  -23.3610  -28.9130   23.4140 O   0  0  0  0  0  0  0  0  0  0  0  0
  -20.8720  -29.9040   21.7670 H   0  0  0  0  0  0  0  0  0  0  0  0
  -17.9820  -28.1550   22.9560 C   0  0  0  0  0  0  0  0  0  0  0  0
  -20.5390  -28.4190   23.2330 C   0  0  0  0  0  3  0  0  0  0  0  0
  -20.6450  -26.9850   22.6670 C   0  0  0  0  0  2  0  0  0  0  0  0
  -19.5460  -26.6540   21.6500 C   0  0  0  0  0  2  0  0  0  0  0  0
  -18.1620  -26.8010   22.2890 C   0  0  0  0  0  2  0  0  0  0  0  0
  -19.0970  -28.9210   23.3850 C   0  0  0  0  0  0  0  0  0  0  0  0
  -18.8740  -30.1870   23.9690 C   0  0  0  0  0  3  0  0  0  0  0  0
  -17.5680  -30.6870   24.1270 C   0  0  0  0  0  3  0  0  0  0  0  0
  -16.4660  -29.9180   23.7140 C   0  0  0  0  0  3  0  0  0  0  0  0
  -16.6740  -28.6540   23.1340 C   0  0  0  0  0  3  0  0  0  0  0  0
  -25.8540  -32.5660   23.8760 C   0  0  0  0  0  3  0  0  0  0  0  0
  -25.5590  -33.9730   24.1820 N   0  0  0  0  0  0  0  0  0  0  0  0
  -25.9170  -35.0120   23.4150 C   0  0  0  0  0  0  0  0  0  0  0  0
  -26.5990  -34.8840   22.3940 O   0  0  0  0  0  0  0  0  0  0  0  0
  -24.9560  -34.1470   24.9730 H   0  0  0  0  0  0  0  0  0  0  0  0
  -24.2330  -36.8340   23.0030 C   0  0  0  0  0  1  0  0  0  0  0  0
  -25.4460  -36.4130   23.8480 C   0  0  0  0  0  3  0  0  0  0  0  0
  -27.5730  -37.2690   24.7260 C   0  0  0  0  0  1  0  0  0  0  0  0
  -26.5010  -37.4450   23.7510 N   0  0  0  0  0  0  0  0  0  0  0  0
  -26.1080  -38.3750   23.8750 H   0  0  0  0  0  0  0  0  0  0  0  0
  -26.3540  -31.8110   25.1670 C   0  0  1  0  0  0  0  0  0  0  0  0
  -25.2540  -31.6020   26.2330 C   0  0  0  0  0  1  0  0  0  0  0  0
  -26.9250  -30.4200   24.8020 C   0  0  0  0  0  1  0  0  0  0  0  0
  -27.5110  -32.6030   25.8220 C   0  0  0  0  0  1  0  0  0  0  0  0
  2  1  1  0
  3  4  2  0
  3  6  1  0
  4  5  1  0
  5  8  1  0
  5  1  2  0
  6  2  2  0
  7  4  1  0
  7 11  1  0
  8  9  1  0
 10  9  1  0
 11 51  1  0
 11 10  1  0
 12  7  2  0
 13 21  1  0
 14 19  1  0
 15 16  1  0
 15 14  1  0
 17 16  1  0
 17 26  1  0
 17 18  1  0
 19 13  1  0
 19 18  1  0
 20 13  2  0
 21 22  1  0
 21  6  1  0
 23 24  2  0
 24 43  1  0
 25 24  1  0
 25 28  1  0
 26 23  1  0
 26 27  1  0
 27 25  2  0
 28 29  1  0
 29 30  2  0
 31 34  1  0
 31 30  1  0
 32 31  2  0
 33 32  1  0
 33 28  2  0
 34 35  1  0
 35 36  1  0
 36 37  2  0
 38 37  1  0
 38 42  1  0
 39 38  2  0
 40 35  2  0
 40 39  1  0
 41 40  1  0
 43 44  1  0
 44 47  1  0
 44 46  1  0
 45 43  2  0
 48 49  1  0
 48 23  1  0
 50 48  1  0
 51 52  1  0
 53 52  1  0
 54 65  2  0
 55 53  1  0
 55 60  1  0
 56 64  1  0
 56 66  1  0
 57 63  1  0
 57 59  1  0
 58 64  1  0
 59 58  1  0
 60 59  2  0
 61 55  2  0
 62 61  1  0
 62 57  2  0
 63 56  1  0
 64 54  1  0
 66 68  2  0
 67 66  1  0
 69 67  1  0
 70 79  2  0
 70 75  1  0
 71 67  1  0
 71 75  1  0
 72 71  1  0
 73 74  1  0
 73 72  1  0
 74 70  1  0
 75 76  2  0
 76 77  1  0
 78 77  2  0
 79 78  1  0
 80 54  1  0
 80 81  1  0
 80 90  1  0
 81 84  1  0
 82 86  1  0
 82 81  1  0
 83 82  2  0
 86 85  1  0
 88 86  1  0
 88 89  1  0
 88 87  1  0
 90 93  1  1
 90 91  1  0
 92 90  1  0
M  ISO  4  13 100  21 100  52 101  53 101
M  END
>  <TORSDO>  (43) 
F 18

>  <SCORE>  (43) 
-14.820

>  <name>  (43) 
42

>  <ligand_id>  (43) 
42

>  <original_smiles>  (43) 
[H]c1c([H])c([H])c2c(c1[H])C([H])([H])C([H])([H])C([H])([H])C2([H])N([H])C(=O)C1([H])N(C(=O)C([H])(N([H])C(=O)C([H])(N([H])C([H])([H])[H])C([H])([H])[H])C(C([H])([H])[H])(C([H])([H])[H])C([H])([H])[H])C([H])([H])c2c([H])c(OC([H])([H])C([H])([H])C3([H])C(=O)c4c([H])c(N([H])C(=O)N5C([H])([H])C([H])([H])C([H])([H])C([H])(n6nc(-c7c([H])c([H])c(Oc8c([H])c([H])c(F)c([H])c8F)c([H])c7[H])c(C(=O)N([H])[H])c6N([H])[H])C5([H])[H])c([H])c([H])c4C([H])([H])C([H])([H])C3([H])[H])c([H])c([H])c2C1([H])[H]

>  <smiles>  (43) 
[H]c1c([H])c([H])c2c(c1[H])C([H])([H])C([H])([H])C([H])([H])C2([H])N([H])C(=O)C1([H])N(C(=O)C([H])(N([H])C(=O)C([H])(N([H])C([H])([H])[H])C([H])([H])[H])C(C([H])([H])[H])(C([H])([H])[H])C([H])([H])[H])C([H])([H])c2c([H])c(OC([H])([H])C([H])([H])C3([H])C(=O)c4c([H])c(N([H])C(=O)N5C([H])([H])C([H])([H])C([H])([H])C([H])(n6nc(-c7c([H])c([H])c(Oc8c([H])c([H])c(F)c([H])c8F)c([H])c7[H])c(C(=O)N([H])[H])c6N([H])[H])C5([H])[H])c([H])c([H])c4C([H])([H])C([H])([H])C3([H])[H])c([H])c([H])c2C1([H])[H]

$$$$
43:0:0
     RDKit          3D

 92100  0  0  1  0  0  0  0  0999 V2000
  -31.6500  -23.3080   19.2840 C   0  0  0  0  0  1  0  0  0  0  0  0
  -29.6270  -22.9970   17.8470 C   0  0  0  0  0  1  0  0  0  0  0  0
  -30.1230  -23.0650   19.3090 C   0  0  2  0  0  0  0  0  0  0  0  0
  -29.4940  -24.2920   20.0790 C   0  0  0  0  0  0  0  0  0  0  0  0
  -29.8420  -24.5130   21.2440 O   0  0  0  0  0  0  0  0  0  0  0  0
  -28.4300  -25.2230   19.4200 C   0  0  0  0  0  2  0  0  0  0  0  0
  -28.4530  -26.5890   19.9310 O   0  0  0  0  0  0  0  0  0  0  0  0
  -24.5330  -31.7280   23.0210 C   0  0  0  0  0  0  0  0  0  0  0  0
  -27.2790  -27.3360   19.8900 C   0  0  0  0  0  0  0  0  0  0  0  0
  -23.3720  -30.3420   21.3370 C   0  0  0  0  0  3  0  0  0  0  0  0
  -24.8660  -28.8530   19.9010 C   0  0  0  0  0  0  0  0  0  0  0  0
  -25.9030  -30.7210   21.1930 C   0  0  0  0  0  2  0  0  0  0  0  0
  -26.0130  -29.3630   20.5190 C   0  0  0  0  0  0  0  0  0  0  0  0
  -27.2190  -28.6120   20.5110 C   0  0  0  0  0  3  0  0  0  0  0  0
  -26.1050  -26.8600   19.2560 C   0  0  0  0  0  3  0  0  0  0  0  0
  -24.9090  -27.6000   19.2680 C   0  0  0  0  0  3  0  0  0  0  0  0
  -23.6150  -29.7010   19.9450 C   0  0  0  0  0  2  0  0  0  0  0  0
  -24.6190  -30.9450   21.9070 N   0  0  0  0  0  0  0  0  0  0  0  0
  -23.4390  -31.9750   23.5490 O   0  0  0  0  0  0  0  0  0  0  0  0
  -22.7200  -29.2920   22.2650 C   0  0  0  0  0  0  0  0  0  0  0  0
  -21.3920  -29.1220   22.1430 N   0  0  0  0  0  0  0  0  0  0  0  0
  -23.4050  -28.6360   23.0550 O   0  0  0  0  0  0  0  0  0  0  0  0
  -20.9000  -29.7050   21.4810 H   0  0  0  0  0  0  0  0  0  0  0  0
  -18.0090  -27.9550   22.6570 C   0  0  0  0  0  0  0  0  0  0  0  0
  -20.5760  -28.1640   22.8900 C   0  0  0  0  0  3  0  0  0  0  0  0
  -20.6450  -26.7570   22.2520 C   0  0  0  0  0  2  0  0  0  0  0  0
  -19.5190  -26.4940   21.2460 C   0  0  0  0  0  2  0  0  0  0  0  0
  -18.1520  -26.6320   21.9210 C   0  0  0  0  0  2  0  0  0  0  0  0
  -19.1470  -28.6800   23.0980 C   0  0  0  0  0  0  0  0  0  0  0  0
  -18.9600  -29.9200   23.7470 C   0  0  0  0  0  3  0  0  0  0  0  0
  -17.6670  -30.4340   23.9580 C   0  0  0  0  0  3  0  0  0  0  0  0
  -16.5430  -29.7030   23.5340 C   0  0  0  0  0  3  0  0  0  0  0  0
  -16.7150  -28.4650   22.8900 C   0  0  0  0  0  3  0  0  0  0  0  0
  -25.8000  -32.3650   23.6700 C   0  0  0  0  0  3  0  0  0  0  0  0
  -25.4570  -33.7420   24.0510 N   0  0  0  0  0  0  0  0  0  0  0  0
  -25.7600  -34.8290   23.3290 C   0  0  0  0  0  0  0  0  0  0  0  0
  -26.4300  -34.7800   22.2940 O   0  0  0  0  0  0  0  0  0  0  0  0
  -24.8620  -33.8530   24.8590 H   0  0  0  0  0  0  0  0  0  0  0  0
  -23.9850  -36.5860   23.0370 C   0  0  0  0  0  1  0  0  0  0  0  0
  -25.2380  -36.1870   23.8350 C   0  0  0  0  0  3  0  0  0  0  0  0
  -27.3470  -37.0960   24.7010 C   0  0  0  0  0  1  0  0  0  0  0  0
  -26.2430  -37.2700   23.7610 N   0  0  0  0  0  0  0  0  0  0  0  0
  -25.8120  -38.1730   23.9400 H   0  0  0  0  0  0  0  0  0  0  0  0
  -26.3340  -31.5600   24.9170 C   0  0  1  0  0  0  0  0  0  0  0  0
  -25.2450  -31.2550   25.9730 C   0  0  0  0  0  1  0  0  0  0  0  0
  -26.9520  -30.2130   24.4770 C   0  0  0  0  0  1  0  0  0  0  0  0
  -27.4650  -32.3560   25.6100 C   0  0  0  0  0  1  0  0  0  0  0  0
  -29.8140  -21.6940   20.0410 C   0  0  0  0  0  3  0  0  0  0  0  0
  -30.4700  -20.3690   19.4850 C   0  0  0  0  0  3  0  0  0  0  0  0
  -30.5610  -17.7660   19.8920 C   0  0  0  0  0  3  0  0  0  0  0  0
  -29.1350  -17.2970   21.6890 C   0  0  0  0  0  3  0  0  0  0  0  0
  -29.9760  -16.7630   20.7490 C   0  0  0  0  0  0  0  0  0  0  0  0
  -30.1310  -19.0570   20.1880 C   0  0  0  0  0  0  0  0  0  0  0  0
  -29.0290  -19.0290   21.5480 S   0  0  0  0  0  0  0  0  0  0  0  0
  -30.6930  -14.4980   19.8080 C   0  0  0  0  0  0  0  0  0  0  0  0
  -30.2940  -12.4070   18.5340 C   0  0  0  0  0  2  0  0  0  0  0  0
  -29.2170  -12.6720   17.4580 C   0  0  0  0  0  2  0  0  0  0  0  0
  -27.7950  -12.5250   18.0330 C   0  0  0  0  0  2  0  0  0  0  0  0
  -27.6110  -13.2880   19.3720 C   0  0  0  0  0  3  0  0  0  0  0  0
  -28.7690  -12.9510   20.3370 C   0  0  0  0  0  2  0  0  0  0  0  0
  -30.0400  -13.3080   19.6720 N   0  0  0  0  0  0  0  0  0  0  0  0
  -31.7140  -14.7820   19.1680 O   0  0  0  0  0  0  0  0  0  0  0  0
  -30.1220  -15.3340   20.7040 N   0  0  0  0  0  0  0  0  0  0  0  0
  -29.4680  -14.8370   21.2890 H   0  0  0  0  0  0  0  0  0  0  0  0
  -25.3110  -13.9090   20.3520 C   0  0  0  0  0  0  0  0  0  0  0  0
  -24.2640  -13.1420   20.7930 C   0  0  0  0  0  0  0  0  0  0  0  0
  -24.6870  -11.7840   20.6520 C   0  0  0  0  0  0  0  0  0  0  0  0
  -26.3030  -13.0190   19.9710 N   0  0  0  0  0  0  0  0  0  0  0  0
  -25.9360  -11.7330   20.2040 N   0  0  0  0  0  0  0  0  0  0  0  0
  -23.9530  -10.5300   20.8620 C   0  0  0  0  0  0  0  0  0  0  0  0
  -24.4200   -9.5480   21.7640 C   0  0  0  0  0  3  0  0  0  0  0  0
  -23.6930   -8.3540   21.9640 C   0  0  0  0  0  3  0  0  0  0  0  0
  -22.4830   -8.1360   21.2630 C   0  0  0  0  0  0  0  0  0  0  0  0
  -22.0340   -9.1060   20.3500 C   0  0  0  0  0  3  0  0  0  0  0  0
  -22.7630  -10.2910   20.1480 C   0  0  0  0  0  3  0  0  0  0  0  0
  -21.7240   -6.9960   21.3720 O   0  0  0  0  0  0  0  0  0  0  0  0
  -21.6770   -6.2710   22.5360 C   0  0  0  0  0  0  0  0  0  0  0  0
  -21.2560   -6.8460   23.7550 C   0  0  0  0  0  3  0  0  0  0  0  0
  -21.1550   -6.0480   24.9120 C   0  0  0  0  0  3  0  0  0  0  0  0
  -21.4640   -4.6760   24.8500 C   0  0  0  0  0  0  0  0  0  0  0  0
  -21.8760   -4.1020   23.6370 C   0  0  0  0  0  3  0  0  0  0  0  0
  -21.9790   -4.8970   22.4820 C   0  0  0  0  0  0  0  0  0  0  0  0
  -22.3570   -4.3330   21.3100 F   0  0  0  0  0  0  0  0  0  0  0  0
  -21.3590   -3.9070   25.9600 F   0  0  0  0  0  0  0  0  0  0  0  0
  -22.9140  -13.6330   21.2270 C   0  0  0  0  0  0  0  0  0  0  0  0
  -22.2760  -12.9330   22.1600 N   0  0  0  0  0  0  0  0  0  0  0  0
  -22.4340  -14.6710   20.7760 O   0  0  0  0  0  0  0  0  0  0  0  0
  -22.6770  -12.0920   22.5460 H   0  0  0  0  0  0  0  0  0  0  0  0
  -21.3720  -13.2420   22.4900 H   0  0  0  0  0  0  0  0  0  0  0  0
  -25.4950  -15.2820   20.2300 N   0  0  0  0  0  0  0  0  0  0  0  0
  -24.7830  -15.9530   20.5010 H   0  0  0  0  0  0  0  0  0  0  0  0
  -26.3280  -15.7170   19.8590 H   0  0  0  0  0  0  0  0  0  0  0  0
  3  1  1  6
  2  3  1  0
  3 48  1  0
  3  4  1  0
  4  5  2  0
  6  7  1  0
  6  4  1  0
  8 19  2  0
  9  7  1  0
  9 14  1  0
 10 18  1  0
 10 20  1  0
 11 17  1  0
 11 13  1  0
 12 18  1  0
 13 12  1  0
 14 13  2  0
 15 16  1  0
 15  9  2  0
 16 11  2  0
 17 10  1  0
 18  8  1  0
 20 22  2  0
 21 20  1  0
 23 21  1  0
 24 33  2  0
 24 29  1  0
 25 21  1  0
 25 29  1  0
 26 25  1  0
 27 28  1  0
 27 26  1  0
 28 24  1  0
 29 30  2  0
 30 31  1  0
 32 31  2  0
 33 32  1  0
 34  8  1  0
 34 35  1  0
 34 44  1  0
 35 38  1  0
 36 40  1  0
 36 35  1  0
 37 36  2  0
 40 39  1  0
 42 40  1  0
 42 43  1  0
 42 41  1  0
 44 47  1  1
 44 45  1  0
 46 44  1  0
 49 48  2  0
 49 53  1  0
 50 53  2  0
 50 52  1  0
 52 51  2  0
 53 54  1  0
 54 51  1  0
 55 63  1  0
 56 61  1  0
 57 58  1  0
 57 56  1  0
 59 58  1  0
 59 68  1  0
 59 60  1  0
 61 55  1  0
 61 60  1  0
 62 55  2  0
 63 52  1  0
 63 64  1  0
 65 66  2  0
 66 85  1  0
 67 66  1  0
 67 70  1  0
 68 69  1  0
 68 65  1  0
 69 67  2  0
 70 71  1  0
 71 72  2  0
 73 76  1  0
 73 72  1  0
 74 73  2  0
 75 74  1  0
 75 70  2  0
 76 77  1  0
 77 78  1  0
 78 79  2  0
 80 79  1  0
 80 84  1  0
 81 80  2  0
 82 77  2  0
 82 81  1  0
 83 82  1  0
 85 86  1  0
 86 89  1  0
 86 88  1  0
 87 85  2  0
 90 65  1  0
 90 91  1  0
 92 90  1  0
M  ISO  4   6 101   7 101  55 100  63 100
M  END
>  <TORSDO>  (44) 
F 21

>  <SCORE>  (44) 
-11.091

>  <name>  (44) 
43

>  <ligand_id>  (44) 
43

>  <original_smiles>  (44) 
[H]c1sc(C([H])([H])C([H])([H])C(C(=O)C([H])([H])Oc2c([H])c([H])c3c(c2[H])C([H])([H])N(C(=O)C([H])(N([H])C(=O)C([H])(N([H])C([H])([H])[H])C([H])([H])[H])C(C([H])([H])[H])(C([H])([H])[H])C([H])([H])[H])C([H])(C(=O)N([H])C2([H])c4c([H])c([H])c([H])c([H])c4C([H])([H])C([H])([H])C2([H])[H])C3([H])[H])(C([H])([H])[H])C([H])([H])[H])c([H])c1N([H])C(=O)N1C([H])([H])C([H])([H])C([H])([H])C([H])(n2nc(-c3c([H])c([H])c(Oc4c([H])c([H])c(F)c([H])c4F)c([H])c3[H])c(C(=O)N([H])[H])c2N([H])[H])C1([H])[H]

>  <smiles>  (44) 
[H]c1sc(C([H])([H])C([H])([H])C(C(=O)C([H])([H])Oc2c([H])c([H])c3c(c2[H])C([H])([H])N(C(=O)C([H])(N([H])C(=O)C([H])(N([H])C([H])([H])[H])C([H])([H])[H])C(C([H])([H])[H])(C([H])([H])[H])C([H])([H])[H])C([H])(C(=O)N([H])C2([H])c4c([H])c([H])c([H])c([H])c4C([H])([H])C([H])([H])C2([H])[H])C3([H])[H])(C([H])([H])[H])C([H])([H])[H])c([H])c1N([H])C(=O)N1C([H])([H])C([H])([H])C([H])([H])C([H])(n2nc(-c3c([H])c([H])c(Oc4c([H])c([H])c(F)c([H])c4F)c([H])c3[H])c(C(=O)N([H])[H])c2N([H])[H])C1([H])[H]

$$$$
44:0:0
     RDKit          3D

 96105  0  0  1  0  0  0  0  0999 V2000
  -28.7230  -21.1650   20.2200 C   0  0  0  0  0  3  0  0  0  0  0  0
  -30.1500  -23.9150   22.1450 C   0  0  0  0  0  2  0  0  0  0  0  0
  -28.6370  -24.1640   22.1370 C   0  0  0  0  0  2  0  0  0  0  0  0
  -30.3940  -22.7860   21.1300 C   0  0  0  0  0  2  0  0  0  0  0  0
  -28.2090  -23.7670   20.7240 C   0  0  0  0  0  3  0  0  0  0  0  0
  -29.0690  -22.4880   20.5430 N   0  0  0  0  0  0  0  0  0  0  0  0
  -27.4440  -20.9470   19.9420 N   0  0  0  0  0  0  0  0  0  0  0  0
  -27.1570  -20.0290   19.6390 H   0  0  0  0  0  0  0  0  0  0  0  0
  -26.7460  -21.6650   20.0240 H   0  0  0  0  0  0  0  0  0  0  0  0
  -29.3310  -18.5520   20.4720 C   0  0  0  0  0  3  0  0  0  0  0  0
  -30.9110  -20.1420   19.5190 C   0  0  0  0  0  3  0  0  0  0  0  0
  -31.4830  -17.7610   19.6800 C   0  0  0  0  0  3  0  0  0  0  0  0
  -29.6520  -19.9370   20.1180 C   0  0  0  0  0  0  0  0  0  0  0  0
  -30.2310  -17.4170   20.2560 C   0  0  0  0  0  0  0  0  0  0  0  0
  -31.8100  -19.0820   19.3190 C   0  0  0  0  0  0  0  0  0  0  0  0
  -33.0080  -19.3390   18.7420 F   0  0  0  0  0  0  0  0  0  0  0  0
  -30.6380  -14.8080   20.3520 C   0  0  0  0  0  0  0  0  0  0  0  0
  -30.4030  -12.5330   19.3520 C   0  0  0  0  0  2  0  0  0  0  0  0
  -29.4670  -12.6120   18.1260 C   0  0  0  0  0  2  0  0  0  0  0  0
  -27.9990  -12.4430   18.5590 C   0  0  0  0  0  2  0  0  0  0  0  0
  -27.6290  -13.3250   19.7830 C   0  0  0  0  0  3  0  0  0  0  0  0
  -28.6930  -13.2510   20.9000 C   0  0  0  0  0  2  0  0  0  0  0  0
  -29.9860  -13.5950   20.2980 N   0  0  0  0  0  0  0  0  0  0  0  0
  -31.8320  -14.8400   20.0470 O   0  0  0  0  0  0  0  0  0  0  0  0
  -29.9040  -15.9810   20.5520 N   0  0  0  0  0  0  0  0  0  0  0  0
  -28.9590  -15.8130   20.8600 H   0  0  0  0  0  0  0  0  0  0  0  0
  -25.2470  -13.9040   20.5300 C   0  0  0  0  0  0  0  0  0  0  0  0
  -24.1840  -13.1270   20.9010 C   0  0  0  0  0  0  0  0  0  0  0  0
  -24.6470  -11.7770   20.8550 C   0  0  0  0  0  0  0  0  0  0  0  0
  -26.2900  -13.0280   20.2810 N   0  0  0  0  0  0  0  0  0  0  0  0
  -25.9370  -11.7430   20.5410 N   0  0  0  0  0  0  0  0  0  0  0  0
  -23.9210  -10.5130   21.0380 C   0  0  0  0  0  0  0  0  0  0  0  0
  -24.3440   -9.5470   21.9770 C   0  0  0  0  0  3  0  0  0  0  0  0
  -23.6160   -8.3490   22.1480 C   0  0  0  0  0  3  0  0  0  0  0  0
  -22.4540   -8.1080   21.3800 C   0  0  0  0  0  0  0  0  0  0  0  0
  -22.0490   -9.0640   20.4310 C   0  0  0  0  0  3  0  0  0  0  0  0
  -22.7770  -10.2530   20.2580 C   0  0  0  0  0  3  0  0  0  0  0  0
  -21.6990   -6.9620   21.4600 O   0  0  0  0  0  0  0  0  0  0  0  0
  -21.6200   -6.2310   22.6180 C   0  0  0  0  0  0  0  0  0  0  0  0
  -21.1360   -6.7900   23.8210 C   0  0  0  0  0  3  0  0  0  0  0  0
  -21.0070   -5.9850   24.9710 C   0  0  0  0  0  3  0  0  0  0  0  0
  -21.3520   -4.6200   24.9170 C   0  0  0  0  0  0  0  0  0  0  0  0
  -21.8280   -4.0620   23.7190 C   0  0  0  0  0  3  0  0  0  0  0  0
  -21.9590   -4.8640   22.5720 C   0  0  0  0  0  0  0  0  0  0  0  0
  -22.4000   -4.3150   21.4140 F   0  0  0  0  0  0  0  0  0  0  0  0
  -21.2210   -3.8450   26.0170 F   0  0  0  0  0  0  0  0  0  0  0  0
  -22.7880  -13.6040   21.1800 C   0  0  0  0  0  0  0  0  0  0  0  0
  -22.0600  -12.8980   22.0360 N   0  0  0  0  0  0  0  0  0  0  0  0
  -22.3530  -14.6370   20.6740 O   0  0  0  0  0  0  0  0  0  0  0  0
  -22.4260  -12.0620   22.4690 H   0  0  0  0  0  0  0  0  0  0  0  0
  -21.1230  -13.1980   22.2640 H   0  0  0  0  0  0  0  0  0  0  0  0
  -25.4060  -15.2760   20.3580 N   0  0  0  0  0  0  0  0  0  0  0  0
  -24.6270  -15.9180   20.4600 H   0  0  0  0  0  0  0  0  0  0  0  0
  -26.2300  -15.7160   19.9720 H   0  0  0  0  0  0  0  0  0  0  0  0
  -28.4470  -25.0540   19.7570 C   0  0  0  0  0  2  0  0  0  0  0  0
  -28.3630  -26.4780   20.2460 O   0  0  0  0  0  0  0  0  0  0  0  0
  -24.6060  -31.8980   23.2460 C   0  0  0  0  0  0  0  0  0  0  0  0
  -27.2200  -27.3070   20.1860 C   0  0  0  0  0  0  0  0  0  0  0  0
  -23.4040  -30.4930   21.6100 C   0  0  0  0  0  3  0  0  0  0  0  0
  -24.8530  -28.9360   20.1830 C   0  0  0  0  0  0  0  0  0  0  0  0
  -25.9420  -30.8090   21.4200 C   0  0  0  0  0  2  0  0  0  0  0  0
  -26.0230  -29.4240   20.7760 C   0  0  0  0  0  0  0  0  0  0  0  0
  -27.2060  -28.6210   20.7670 C   0  0  0  0  0  3  0  0  0  0  0  0
  -26.0220  -26.8740   19.5790 C   0  0  0  0  0  3  0  0  0  0  0  0
  -24.8560  -27.6690   19.5780 C   0  0  0  0  0  3  0  0  0  0  0  0
  -23.6160  -29.8120   20.2310 C   0  0  0  0  0  2  0  0  0  0  0  0
  -24.6700  -31.0860   22.1480 N   0  0  0  0  0  0  0  0  0  0  0  0
  -23.5240  -32.1740   23.7840 O   0  0  0  0  0  0  0  0  0  0  0  0
  -22.7460  -29.4790   22.5750 C   0  0  0  0  0  0  0  0  0  0  0  0
  -21.4210  -29.2960   22.4520 N   0  0  0  0  0  0  0  0  0  0  0  0
  -23.4290  -28.8590   23.3940 O   0  0  0  0  0  0  0  0  0  0  0  0
  -20.9310  -29.8500   21.7630 H   0  0  0  0  0  0  0  0  0  0  0  0
  -18.0490  -28.0880   22.9610 C   0  0  0  0  0  0  0  0  0  0  0  0
  -20.6060  -28.3560   23.2240 C   0  0  0  0  0  3  0  0  0  0  0  0
  -20.7110  -26.9240   22.6490 C   0  0  0  0  0  2  0  0  0  0  0  0
  -19.6080  -26.5970   21.6370 C   0  0  0  0  0  2  0  0  0  0  0  0
  -18.2270  -26.7390   22.2850 C   0  0  0  0  0  2  0  0  0  0  0  0
  -19.1660  -28.8540   23.3880 C   0  0  0  0  0  0  0  0  0  0  0  0
  -18.9440  -30.1160   23.9810 C   0  0  0  0  0  3  0  0  0  0  0  0
  -17.6390  -30.6120   24.1510 C   0  0  0  0  0  3  0  0  0  0  0  0
  -16.5360  -29.8430   23.7400 C   0  0  0  0  0  3  0  0  0  0  0  0
  -16.7410  -28.5830   23.1510 C   0  0  0  0  0  3  0  0  0  0  0  0
  -25.8880  -32.5360   23.8650 C   0  0  0  0  0  3  0  0  0  0  0  0
  -25.5780  -33.9380   24.1850 N   0  0  0  0  0  0  0  0  0  0  0  0
  -25.9140  -34.9860   23.4210 C   0  0  0  0  0  0  0  0  0  0  0  0
  -26.5860  -34.8770   22.3920 O   0  0  0  0  0  0  0  0  0  0  0  0
  -24.9800  -34.0970   24.9820 H   0  0  0  0  0  0  0  0  0  0  0  0
  -24.1950  -36.7850   23.0480 C   0  0  0  0  0  1  0  0  0  0  0  0
  -25.4280  -36.3790   23.8700 C   0  0  0  0  0  3  0  0  0  0  0  0
  -27.5570  -37.2620   24.7190 C   0  0  0  0  0  1  0  0  0  0  0  0
  -26.4660  -37.4270   23.7620 N   0  0  0  0  0  0  0  0  0  0  0  0
  -26.0610  -38.3490   23.8990 H   0  0  0  0  0  0  0  0  0  0  0  0
  -26.4030  -31.7770   25.1500 C   0  0  1  0  0  0  0  0  0  0  0  0
  -25.3080  -31.5480   26.2180 C   0  0  0  0  0  1  0  0  0  0  0  0
  -26.9870  -30.3970   24.7700 C   0  0  0  0  0  1  0  0  0  0  0  0
  -27.5510  -32.5770   25.8070 C   0  0  0  0  0  1  0  0  0  0  0  0
  1  7  1  0
  1  6  1  0
  3  2  1  0
  4  2  1  0
  5 55  1  0
  5  3  1  0
  6  5  1  0
  6  4  1  0
  7  9  1  0
  8  7  1  0
 11 13  1  0
 12 14  2  0
 13  1  1  0
 13 10  2  0
 14 10  1  0
 14 25  1  0
 15 11  2  0
 15 12  1  0
 16 15  1  0
 17 25  1  0
 18 23  1  0
 19 20  1  0
 19 18  1  0
 21 20  1  0
 21 30  1  0
 21 22  1  0
 23 17  1  0
 23 22  1  0
 24 17  2  0
 25 26  1  0
 27 28  2  0
 28 47  1  0
 29 28  1  0
 29 32  1  0
 30 27  1  0
 30 31  1  0
 31 29  2  0
 32 33  1  0
 33 34  2  0
 35 38  1  0
 35 34  1  0
 36 35  2  0
 37 36  1  0
 37 32  2  0
 38 39  1  0
 39 40  1  0
 40 41  2  0
 42 41  1  0
 42 46  1  0
 43 42  2  0
 44 39  2  0
 44 43  1  0
 45 44  1  0
 47 48  1  0
 48 51  1  0
 48 50  1  0
 49 47  2  0
 52 53  1  0
 52 27  1  0
 54 52  1  0
 55 56  1  0
 57 68  2  0
 58 56  1  0
 58 63  1  0
 59 67  1  0
 59 69  1  0
 60 66  1  0
 60 62  1  0
 61 67  1  0
 62 61  1  0
 63 62  2  0
 64 58  2  0
 65 64  1  0
 65 60  2  0
 66 59  1  0
 67 57  1  0
 69 71  2  0
 70 69  1  0
 72 70  1  0
 73 82  2  0
 73 78  1  0
 74 70  1  0
 74 78  1  0
 75 74  1  0
 76 77  1  0
 76 75  1  0
 77 73  1  0
 78 79  2  0
 79 80  1  0
 81 80  2  0
 82 81  1  0
 83 57  1  0
 83 84  1  0
 83 93  1  0
 84 87  1  0
 85 89  1  0
 85 84  1  0
 86 85  2  0
 89 88  1  0
 91 89  1  0
 91 92  1  0
 91 90  1  0
 93 96  1  1
 93 94  1  0
 95 93  1  0
M  ISO  4  17 100  25 100  55 101  56 101
M  END
>  <TORSDO>  (45) 
F 18

>  <SCORE>  (45) 
-14.998

>  <name>  (45) 
44

>  <ligand_id>  (45) 
44

>  <original_smiles>  (45) 
[H]c1c([H])c([H])c2c(c1[H])C([H])([H])C([H])([H])C([H])([H])C2([H])N([H])C(=O)C1([H])N(C(=O)C([H])(N([H])C(=O)C([H])(N([H])C([H])([H])[H])C([H])([H])[H])C(C([H])([H])[H])(C([H])([H])[H])C([H])([H])[H])C([H])([H])c2c([H])c(OC([H])([H])C3([H])N(C(c4c([H])c(F)c([H])c(N([H])C(=O)N5C([H])([H])C([H])([H])C([H])([H])C([H])(n6nc(-c7c([H])c([H])c(Oc8c([H])c([H])c(F)c([H])c8F)c([H])c7[H])c(C(=O)N([H])[H])c6N([H])[H])C5([H])[H])c4[H])=[N+]([H])[H])C([H])([H])C([H])([H])C3([H])[H])c([H])c([H])c2C1([H])[H]

>  <smiles>  (45) 
[H]c1c([H])c([H])c2c(c1[H])C([H])([H])C([H])([H])C([H])([H])C2([H])N([H])C(=O)C1([H])N(C(=O)C([H])(N([H])C(=O)C([H])(N([H])C([H])([H])[H])C([H])([H])[H])C(C([H])([H])[H])(C([H])([H])[H])C([H])([H])[H])C([H])([H])c2c([H])c(OC([H])([H])C3([H])N(C(c4c([H])c(F)c([H])c(N([H])C(=O)N5C([H])([H])C([H])([H])C([H])([H])C([H])(n6nc(-c7c([H])c([H])c(Oc8c([H])c([H])c(F)c([H])c8F)c([H])c7[H])c(C(=O)N([H])[H])c6N([H])[H])C5([H])[H])c4[H])=[N+]([H])[H])C([H])([H])C([H])([H])C3([H])[H])c([H])c([H])c2C1([H])[H]

$$$$
45:0:0
     RDKit          3D

 94102  0  0  1  0  0  0  0  0999 V2000
  -28.6470  -21.4500   21.9530 C   0  0  0  0  0  1  0  0  0  0  0  0
  -31.0650  -22.1210   21.9820 C   0  0  0  0  0  1  0  0  0  0  0  0
  -29.8340  -21.9100   21.0790 C   0  0  1  0  0  0  0  0  0  0  0  0
  -30.1330  -20.8100   20.0060 C   0  0  0  0  0  2  0  0  0  0  0  0
  -31.6460  -17.4630   20.9820 C   0  0  0  0  0  3  0  0  0  0  0  0
  -31.7070  -18.8670   20.7280 C   0  0  0  0  0  0  0  0  0  0  0  0
  -30.4730  -19.4040   20.4460 C   0  0  0  0  0  0  0  0  0  0  0  0
  -30.3980  -16.9030   20.8450 C   0  0  0  0  0  0  0  0  0  0  0  0
  -33.0080  -19.6140   20.7390 C   0  0  0  0  0  1  0  0  0  0  0  0
  -29.2330  -18.1640   20.5180 S   0  0  0  0  0  0  0  0  0  0  0  0
  -30.7260  -14.5480   20.4270 C   0  0  0  0  0  0  0  0  0  0  0  0
  -30.3870  -12.4160   19.2500 C   0  0  0  0  0  2  0  0  0  0  0  0
  -29.4380  -12.6490   18.0560 C   0  0  0  0  0  2  0  0  0  0  0  0
  -27.9640  -12.5210   18.4910 C   0  0  0  0  0  2  0  0  0  0  0  0
  -27.6430  -13.3360   19.7730 C   0  0  0  0  0  3  0  0  0  0  0  0
  -28.7070  -13.0950   20.8690 C   0  0  0  0  0  2  0  0  0  0  0  0
  -30.0290  -13.3880   20.2930 N   0  0  0  0  0  0  0  0  0  0  0  0
  -31.8660  -14.6870   19.9740 O   0  0  0  0  0  0  0  0  0  0  0  0
  -30.0340  -15.5910   20.9280 N   0  0  0  0  0  0  0  0  0  0  0  0
  -29.0690  -15.3960   21.1560 H   0  0  0  0  0  0  0  0  0  0  0  0
  -25.2480  -13.9400   20.4880 C   0  0  0  0  0  0  0  0  0  0  0  0
  -24.1800  -13.1670   20.8610 C   0  0  0  0  0  0  0  0  0  0  0  0
  -24.6430  -11.8170   20.8330 C   0  0  0  0  0  0  0  0  0  0  0  0
  -26.2930  -13.0590   20.2580 N   0  0  0  0  0  0  0  0  0  0  0  0
  -25.9330  -11.7770   20.5200 N   0  0  0  0  0  0  0  0  0  0  0  0
  -23.9180  -10.5530   21.0270 C   0  0  0  0  0  0  0  0  0  0  0  0
  -24.3560   -9.5870   21.9600 C   0  0  0  0  0  3  0  0  0  0  0  0
  -23.6310   -8.3900   22.1440 C   0  0  0  0  0  3  0  0  0  0  0  0
  -22.4560   -8.1500   21.3940 C   0  0  0  0  0  0  0  0  0  0  0  0
  -22.0380   -9.1030   20.4500 C   0  0  0  0  0  3  0  0  0  0  0  0
  -22.7620  -10.2920   20.2650 C   0  0  0  0  0  3  0  0  0  0  0  0
  -21.7040   -7.0040   21.4850 O   0  0  0  0  0  0  0  0  0  0  0  0
  -21.6620   -6.2590   22.6370 C   0  0  0  0  0  0  0  0  0  0  0  0
  -21.2430   -6.8120   23.8660 C   0  0  0  0  0  3  0  0  0  0  0  0
  -21.1490   -5.9950   25.0110 C   0  0  0  0  0  3  0  0  0  0  0  0
  -21.4630   -4.6250   24.9260 C   0  0  0  0  0  0  0  0  0  0  0  0
  -21.8770   -4.0720   23.7020 C   0  0  0  0  0  3  0  0  0  0  0  0
  -21.9720   -4.8860   22.5600 C   0  0  0  0  0  0  0  0  0  0  0  0
  -22.3490   -4.3430   21.3780 F   0  0  0  0  0  0  0  0  0  0  0  0
  -21.3650   -3.8380   26.0240 F   0  0  0  0  0  0  0  0  0  0  0  0
  -22.7840  -13.6440   21.1370 C   0  0  0  0  0  0  0  0  0  0  0  0
  -22.0600  -12.9470   22.0070 N   0  0  0  0  0  0  0  0  0  0  0  0
  -22.3440  -14.6680   20.6180 O   0  0  0  0  0  0  0  0  0  0  0  0
  -22.4310  -12.1190   22.4490 H   0  0  0  0  0  0  0  0  0  0  0  0
  -21.1230  -13.2470   22.2350 H   0  0  0  0  0  0  0  0  0  0  0  0
  -25.4110  -15.3100   20.3070 N   0  0  0  0  0  0  0  0  0  0  0  0
  -24.6410  -15.9630   20.4040 H   0  0  0  0  0  0  0  0  0  0  0  0
  -26.2570  -15.7460   19.9610 H   0  0  0  0  0  0  0  0  0  0  0  0
  -29.4570  -23.1940   20.2610 C   0  0  0  0  0  2  0  0  0  0  0  0
  -28.6040  -24.6970   22.2170 C   0  0  0  0  0  1  0  0  0  0  0  0
  -30.7580  -25.2640   21.0420 C   0  0  0  0  0  1  0  0  0  0  0  0
  -29.3540  -24.6390   20.8680 C   0  0  1  0  0  0  0  0  0  0  0  0
  -28.5480  -25.4660   19.8280 C   0  0  0  0  0  2  0  0  0  0  0  0
  -28.4680  -26.8530   20.1690 O   0  0  0  0  0  0  0  0  0  0  0  0
  -24.5800  -31.9190   23.2370 C   0  0  0  0  0  0  0  0  0  0  0  0
  -27.2570  -27.5160   20.1390 C   0  0  0  0  0  0  0  0  0  0  0  0
  -23.3830  -30.5150   21.5890 C   0  0  0  0  0  3  0  0  0  0  0  0
  -24.8450  -29.0000   20.1530 C   0  0  0  0  0  0  0  0  0  0  0  0
  -25.9040  -30.8920   21.3980 C   0  0  0  0  0  2  0  0  0  0  0  0
  -25.9950  -29.5260   20.7530 C   0  0  0  0  0  0  0  0  0  0  0  0
  -27.1990  -28.7900   20.7450 C   0  0  0  0  0  3  0  0  0  0  0  0
  -26.0890  -27.0070   19.5220 C   0  0  0  0  0  3  0  0  0  0  0  0
  -24.8870  -27.7390   19.5340 C   0  0  0  0  0  3  0  0  0  0  0  0
  -23.5960  -29.8460   20.2050 C   0  0  0  0  0  2  0  0  0  0  0  0
  -24.6400  -31.1250   22.1330 N   0  0  0  0  0  0  0  0  0  0  0  0
  -23.4970  -32.1880   23.7760 O   0  0  0  0  0  0  0  0  0  0  0  0
  -22.7400  -29.4880   22.5450 C   0  0  0  0  0  0  0  0  0  0  0  0
  -21.4180  -29.2990   22.4100 N   0  0  0  0  0  0  0  0  0  0  0  0
  -23.4230  -28.8670   23.3620 O   0  0  0  0  0  0  0  0  0  0  0  0
  -20.9330  -29.8590   21.7240 H   0  0  0  0  0  0  0  0  0  0  0  0
  -18.0450  -28.0930   22.8790 C   0  0  0  0  0  0  0  0  0  0  0  0
  -20.5980  -28.3550   23.1700 C   0  0  0  0  0  3  0  0  0  0  0  0
  -20.7090  -26.9270   22.5880 C   0  0  0  0  0  2  0  0  0  0  0  0
  -19.6140  -26.6050   21.5670 C   0  0  0  0  0  2  0  0  0  0  0  0
  -18.2290  -26.7460   22.2030 C   0  0  0  0  0  2  0  0  0  0  0  0
  -19.1580  -28.8560   23.3180 C   0  0  0  0  0  0  0  0  0  0  0  0
  -18.9330  -30.1160   23.9110 C   0  0  0  0  0  3  0  0  0  0  0  0
  -17.6260  -30.6130   24.0740 C   0  0  0  0  0  3  0  0  0  0  0  0
  -16.5250  -29.8440   23.6540 C   0  0  0  0  0  3  0  0  0  0  0  0
  -16.7380  -28.5850   23.0620 C   0  0  0  0  0  3  0  0  0  0  0  0
  -25.8640  -32.5520   23.8630 C   0  0  0  0  0  3  0  0  0  0  0  0
  -25.5540  -33.9500   24.1880 N   0  0  0  0  0  0  0  0  0  0  0  0
  -25.8900  -35.0000   23.4270 C   0  0  0  0  0  0  0  0  0  0  0  0
  -26.5640  -34.8940   22.4000 O   0  0  0  0  0  0  0  0  0  0  0  0
  -24.9570  -34.1070   24.9860 H   0  0  0  0  0  0  0  0  0  0  0  0
  -24.1610  -36.7910   23.0540 C   0  0  0  0  0  1  0  0  0  0  0  0
  -25.3970  -36.3890   23.8770 C   0  0  0  0  0  3  0  0  0  0  0  0
  -27.5230  -37.2750   24.7260 C   0  0  0  0  0  1  0  0  0  0  0  0
  -26.4300  -37.4410   23.7730 N   0  0  0  0  0  0  0  0  0  0  0  0
  -26.0230  -38.3600   23.9210 H   0  0  0  0  0  0  0  0  0  0  0  0
  -26.3810  -31.7820   25.1390 C   0  0  1  0  0  0  0  0  0  0  0  0
  -25.2880  -31.5370   26.2060 C   0  0  0  0  0  1  0  0  0  0  0  0
  -26.9680  -30.4070   24.7410 C   0  0  0  0  0  1  0  0  0  0  0  0
  -27.5280  -32.5820   25.8030 C   0  0  0  0  0  1  0  0  0  0  0  0
  3  1  1  1
  3  2  1  0
  4  7  1  0
  4  3  1  0
  6  9  1  0
  6  5  1  0
  7 10  1  0
  7  6  2  0
  8 19  1  0
  8  5  2  0
 10  8  1  0
 11 19  1  0
 12 17  1  0
 13 14  1  0
 13 12  1  0
 15 14  1  0
 15 24  1  0
 15 16  1  0
 17 11  1  0
 17 16  1  0
 18 11  2  0
 19 20  1  0
 21 22  2  0
 22 41  1  0
 23 22  1  0
 23 26  1  0
 24 21  1  0
 24 25  1  0
 25 23  2  0
 26 27  1  0
 27 28  2  0
 29 32  1  0
 29 28  1  0
 30 29  2  0
 31 30  1  0
 31 26  2  0
 32 33  1  0
 33 34  1  0
 34 35  2  0
 36 35  1  0
 36 40  1  0
 37 36  2  0
 38 33  2  0
 38 37  1  0
 39 38  1  0
 41 42  1  0
 42 45  1  0
 42 44  1  0
 43 41  2  0
 46 47  1  0
 46 21  1  0
 48 46  1  0
 49 52  1  0
 49  3  1  0
 52 51  1  1
 52 50  1  0
 53 54  1  0
 53 52  1  0
 55 66  2  0
 56 54  1  0
 56 61  1  0
 57 65  1  0
 57 67  1  0
 58 64  1  0
 58 60  1  0
 59 65  1  0
 60 59  1  0
 61 60  2  0
 62 63  1  0
 62 56  2  0
 63 58  2  0
 64 57  1  0
 65 55  1  0
 67 69  2  0
 68 67  1  0
 70 68  1  0
 71 80  2  0
 71 76  1  0
 72 68  1  0
 72 76  1  0
 73 72  1  0
 74 75  1  0
 74 73  1  0
 75 71  1  0
 76 77  2  0
 77 78  1  0
 79 78  2  0
 80 79  1  0
 81 55  1  0
 81 82  1  0
 81 91  1  0
 82 85  1  0
 83 87  1  0
 83 82  1  0
 84 83  2  0
 87 86  1  0
 89 87  1  0
 89 90  1  0
 89 88  1  0
 91 94  1  1
 91 92  1  0
 93 91  1  0
M  ISO  4  11 100  19 100  53 101  54 101
M  END
>  <TORSDO>  (46) 
F 21

>  <SCORE>  (46) 
-13.864

>  <name>  (46) 
45

>  <ligand_id>  (46) 
45

>  <original_smiles>  (46) 
[H]c1c([H])c([H])c2c(c1[H])C([H])([H])C([H])([H])C([H])([H])C2([H])N([H])C(=O)C1([H])N(C(=O)C([H])(N([H])C(=O)C([H])(N([H])C([H])([H])[H])C([H])([H])[H])C(C([H])([H])[H])(C([H])([H])[H])C([H])([H])[H])C([H])([H])c2c([H])c(OC([H])([H])C(C([H])([H])[H])(C([H])([H])[H])C([H])([H])C(C([H])([H])[H])(C([H])([H])[H])C([H])([H])c3sc(N([H])C(=O)N4C([H])([H])C([H])([H])C([H])([H])C([H])(n5nc(-c6c([H])c([H])c(Oc7c([H])c([H])c(F)c([H])c7F)c([H])c6[H])c(C(=O)N([H])[H])c5N([H])[H])C4([H])[H])c([H])c3C([H])([H])[H])c([H])c([H])c2C1([H])[H]

>  <smiles>  (46) 
[H]c1c([H])c([H])c2c(c1[H])C([H])([H])C([H])([H])C([H])([H])C2([H])N([H])C(=O)C1([H])N(C(=O)C([H])(N([H])C(=O)C([H])(N([H])C([H])([H])[H])C([H])([H])[H])C(C([H])([H])[H])(C([H])([H])[H])C([H])([H])[H])C([H])([H])c2c([H])c(OC([H])([H])C(C([H])([H])[H])(C([H])([H])[H])C([H])([H])C(C([H])([H])[H])(C([H])([H])[H])C([H])([H])c3sc(N([H])C(=O)N4C([H])([H])C([H])([H])C([H])([H])C([H])(n5nc(-c6c([H])c([H])c(Oc7c([H])c([H])c(F)c([H])c7F)c([H])c6[H])c(C(=O)N([H])[H])c5N([H])[H])C4([H])[H])c([H])c3C([H])([H])[H])c([H])c([H])c2C1([H])[H]

$$$$
46:0:0
     RDKit          3D

 94103  0  0  1  0  0  0  0  0999 V2000
  -30.5010  -18.0210   19.1940 C   0  0  0  0  0  3  0  0  0  0  0  0
  -29.9310  -18.4960   21.5470 C   0  0  0  0  0  3  0  0  0  0  0  0
  -30.2310  -19.4030   18.9730 C   0  0  0  0  0  0  0  0  0  0  0  0
  -29.8390  -20.3400   19.9840 C   0  0  0  0  0  0  0  0  0  0  0  0
  -29.6410  -19.8820   21.2980 C   0  0  0  0  0  0  0  0  0  0  0  0
  -30.3500  -17.5480   20.5440 C   0  0  0  0  0  0  0  0  0  0  0  0
  -29.9850  -20.4260   17.8770 C   0  0  0  0  0  2  0  0  0  0  0  0
  -29.4940  -21.5030   18.9980 C   0  0  0  0  0  3  0  0  0  0  0  0
  -29.0660  -20.7700   22.3800 C   0  0  0  0  0  1  0  0  0  0  0  0
  -31.2550  -15.0900   20.7260 C   0  0  0  0  0  0  0  0  0  0  0  0
  -31.2400  -12.6800   20.0890 C   0  0  0  0  0  2  0  0  0  0  0  0
  -30.4540  -12.5460   18.7640 C   0  0  0  0  0  2  0  0  0  0  0  0
  -28.9400  -12.4170   19.0290 C   0  0  0  0  0  2  0  0  0  0  0  0
  -28.4180  -13.4790   20.0320 C   0  0  0  0  0  3  0  0  0  0  0  0
  -29.3250  -13.5500   21.2820 C   0  0  0  0  0  2  0  0  0  0  0  0
  -30.6930  -13.8410   20.8240 N   0  0  0  0  0  0  0  0  0  0  0  0
  -32.4310  -15.2410   20.3800 O   0  0  0  0  0  0  0  0  0  0  0  0
  -30.4040  -16.1400   20.9590 N   0  0  0  0  0  0  0  0  0  0  0  0
  -29.5720  -15.8330   21.4390 H   0  0  0  0  0  0  0  0  0  0  0  0
  -25.9910  -14.1720   20.5180 C   0  0  0  0  0  0  0  0  0  0  0  0
  -24.8640  -13.4410   20.7850 C   0  0  0  0  0  0  0  0  0  0  0  0
  -25.2760  -12.0730   20.7980 C   0  0  0  0  0  0  0  0  0  0  0  0
  -27.0190  -13.2520   20.3840 N   0  0  0  0  0  0  0  0  0  0  0  0
  -26.5880  -11.9840   20.6110 N   0  0  0  0  0  0  0  0  0  0  0  0
  -24.4880  -10.8400   20.9190 C   0  0  0  0  0  0  0  0  0  0  0  0
  -24.8220   -9.8400   21.8580 C   0  0  0  0  0  3  0  0  0  0  0  0
  -24.0390   -8.6710   21.9680 C   0  0  0  0  0  3  0  0  0  0  0  0
  -22.9060   -8.4950   21.1390 C   0  0  0  0  0  0  0  0  0  0  0  0
  -22.5910   -9.4840   20.1910 C   0  0  0  0  0  3  0  0  0  0  0  0
  -23.3740  -10.6440   20.0780 C   0  0  0  0  0  3  0  0  0  0  0  0
  -22.1020   -7.3820   21.1580 O   0  0  0  0  0  0  0  0  0  0  0  0
  -21.9900   -6.5930   22.2760 C   0  0  0  0  0  0  0  0  0  0  0  0
  -21.5430   -7.1110   23.5110 C   0  0  0  0  0  3  0  0  0  0  0  0
  -21.3770   -6.2510   24.6150 C   0  0  0  0  0  3  0  0  0  0  0  0
  -21.6470   -4.8760   24.4850 C   0  0  0  0  0  0  0  0  0  0  0  0
  -22.0870   -4.3580   23.2540 C   0  0  0  0  0  3  0  0  0  0  0  0
  -22.2550   -5.2140   22.1510 C   0  0  0  0  0  0  0  0  0  0  0  0
  -22.6580   -4.7070   20.9620 F   0  0  0  0  0  0  0  0  0  0  0  0
  -21.4810   -4.0480   25.5430 F   0  0  0  0  0  0  0  0  0  0  0  0
  -23.4670  -13.9720   20.9260 C   0  0  0  0  0  0  0  0  0  0  0  0
  -22.6380  -13.3090   21.7240 N   0  0  0  0  0  0  0  0  0  0  0  0
  -23.1160  -15.0090   20.3640 O   0  0  0  0  0  0  0  0  0  0  0  0
  -22.9310  -12.4700   22.2030 H   0  0  0  0  0  0  0  0  0  0  0  0
  -21.6950  -13.6470   21.8620 H   0  0  0  0  0  0  0  0  0  0  0  0
  -26.2230  -15.5350   20.3570 N   0  0  0  0  0  0  0  0  0  0  0  0
  -25.4740  -16.2190   20.3960 H   0  0  0  0  0  0  0  0  0  0  0  0
  -27.1180  -15.9430   20.1150 H   0  0  0  0  0  0  0  0  0  0  0  0
  -31.0660  -23.0580   20.3450 C   0  0  0  0  0  1  0  0  0  0  0  0
  -31.0070  -23.2920   17.8910 C   0  0  0  0  0  1  0  0  0  0  0  0
  -30.1220  -22.9890   19.1220 C   0  0  1  0  0  0  0  0  0  0  0  0
  -29.0620  -24.1820   19.3230 C   0  0  0  0  0  0  0  0  0  0  0  0
  -28.2130  -24.0650   20.2130 O   0  0  0  0  0  0  0  0  0  0  0  0
  -29.0280  -25.5060   18.4420 C   0  0  0  0  0  2  0  0  0  0  0  0
  -28.8320  -26.7890   19.1570 O   0  0  0  0  0  0  0  0  0  0  0  0
  -24.7750  -31.4240   22.8710 C   0  0  0  0  0  0  0  0  0  0  0  0
  -27.6180  -27.4880   19.2120 C   0  0  0  0  0  0  0  0  0  0  0  0
  -23.6180  -30.1300   21.1110 C   0  0  0  0  0  3  0  0  0  0  0  0
  -25.1260  -28.8750   19.4670 C   0  0  0  0  0  0  0  0  0  0  0  0
  -26.1120  -30.6760   20.8900 C   0  0  0  0  0  2  0  0  0  0  0  0
  -26.2710  -29.3920   20.0830 C   0  0  0  0  0  0  0  0  0  0  0  0
  -27.5130  -28.7070   19.9500 C   0  0  0  0  0  3  0  0  0  0  0  0
  -26.4410  -27.0100   18.5910 C   0  0  0  0  0  3  0  0  0  0  0  0
  -25.2120  -27.6900   18.7160 C   0  0  0  0  0  3  0  0  0  0  0  0
  -23.8270  -29.6340   19.6550 C   0  0  0  0  0  2  0  0  0  0  0  0
  -24.8540  -30.7560   21.6820 N   0  0  0  0  0  0  0  0  0  0  0  0
  -23.6950  -31.5480   23.4680 O   0  0  0  0  0  0  0  0  0  0  0  0
  -23.0730  -28.9610   21.9660 C   0  0  0  0  0  0  0  0  0  0  0  0
  -21.7670  -28.6720   21.8340 N   0  0  0  0  0  0  0  0  0  0  0  0
  -23.8240  -28.3210   22.7070 O   0  0  0  0  0  0  0  0  0  0  0  0
  -21.2160  -29.2490   21.2140 H   0  0  0  0  0  0  0  0  0  0  0  0
  -18.5410  -27.0770   22.1870 C   0  0  0  0  0  0  0  0  0  0  0  0
  -21.0550  -27.5850   22.5090 C   0  0  0  0  0  3  0  0  0  0  0  0
  -21.3140  -26.2320   21.8070 C   0  0  0  0  0  2  0  0  0  0  0  0
  -20.2550  -25.8860   20.7560 C   0  0  0  0  0  2  0  0  0  0  0  0
  -18.8650  -25.8220   21.3950 C   0  0  0  0  0  2  0  0  0  0  0  0
  -19.5700  -27.9130   22.6970 C   0  0  0  0  0  0  0  0  0  0  0  0
  -19.2140  -29.0860   23.3980 C   0  0  0  0  0  3  0  0  0  0  0  0
  -17.8620  -29.4260   23.5950 C   0  0  0  0  0  3  0  0  0  0  0  0
  -16.8480  -28.5870   23.1000 C   0  0  0  0  0  3  0  0  0  0  0  0
  -17.1880  -27.4130   22.4030 C   0  0  0  0  0  3  0  0  0  0  0  0
  -26.0290  -32.0810   23.5250 C   0  0  0  0  0  3  0  0  0  0  0  0
  -26.6390  -31.2220   24.7010 C   0  0  1  0  0  0  0  0  0  0  0  0
  -25.6010  -30.8060   25.7700 C   0  0  0  0  0  1  0  0  0  0  0  0
  -27.2960  -29.9330   24.1530 C   0  0  0  0  0  1  0  0  0  0  0  0
  -27.7580  -32.0220   25.4080 C   0  0  0  0  0  1  0  0  0  0  0  0
  -25.6320  -33.4110   24.0100 N   0  0  0  0  0  0  0  0  0  0  0  0
  -25.8750  -34.5600   23.3660 C   0  0  0  0  0  0  0  0  0  0  0  0
  -26.5260  -34.6150   22.3190 O   0  0  0  0  0  0  0  0  0  0  0  0
  -25.0470  -33.4360   24.8320 H   0  0  0  0  0  0  0  0  0  0  0  0
  -24.0120  -36.2470   23.2470 C   0  0  0  0  0  1  0  0  0  0  0  0
  -25.3050  -35.8540   23.9800 C   0  0  0  0  0  3  0  0  0  0  0  0
  -27.3970  -36.8050   24.8470 C   0  0  0  0  0  1  0  0  0  0  0  0
  -26.2570  -36.9860   23.9520 N   0  0  0  0  0  0  0  0  0  0  0  0
  -25.7910  -37.8540   24.2040 H   0  0  0  0  0  0  0  0  0  0  0  0
  1  6  1  0
  3  1  2  0
  3  4  1  0
  4  5  2  0
  5  2  1  0
  5  9  1  0
  6 18  1  0
  6  2  2  0
  7  3  1  0
  7  8  1  0
  8 50  1  0
  8  4  1  0
 10 16  1  0
 10 18  1  0
 11 16  1  0
 12 13  1  0
 12 11  1  0
 14 13  1  0
 14 23  1  0
 14 15  1  0
 16 15  1  0
 17 10  2  0
 18 19  1  0
 20 21  2  0
 21 22  1  0
 21 40  1  0
 22 25  1  0
 23 20  1  0
 23 24  1  0
 24 22  2  0
 25 26  1  0
 26 27  2  0
 28 31  1  0
 28 27  1  0
 29 28  2  0
 30 29  1  0
 30 25  2  0
 31 32  1  0
 32 33  1  0
 33 34  2  0
 35 34  1  0
 35 39  1  0
 36 35  2  0
 37 32  2  0
 37 36  1  0
 38 37  1  0
 40 41  1  0
 41 44  1  0
 41 43  1  0
 42 40  2  0
 45 46  1  0
 45 20  1  0
 47 45  1  0
 50 49  1  6
 50 51  1  0
 50 48  1  0
 51 52  2  0
 53 54  1  0
 53 51  1  0
 54 56  1  0
 55 66  2  0
 56 61  1  0
 57 65  1  0
 57 67  1  0
 58 64  1  0
 58 60  1  0
 59 65  1  0
 60 59  1  0
 61 60  2  0
 62 63  1  0
 62 56  2  0
 63 58  2  0
 64 57  1  0
 65 55  1  0
 67 69  2  0
 68 67  1  0
 70 68  1  0
 71 80  2  0
 71 76  1  0
 72 68  1  0
 72 76  1  0
 73 72  1  0
 74 75  1  0
 74 73  1  0
 75 71  1  0
 76 77  2  0
 77 78  1  0
 79 78  2  0
 80 79  1  0
 81 55  1  0
 81 86  1  0
 81 82  1  0
 82 85  1  1
 82 83  1  0
 84 82  1  0
 86 89  1  0
 87 91  1  0
 87 86  1  0
 88 87  2  0
 91 90  1  0
 93 91  1  0
 93 94  1  0
 93 92  1  0
M  ISO  4  10 100  18 100  53 101  54 101
M  END
>  <TORSDO>  (47) 
F 19

>  <SCORE>  (47) 
-10.259

>  <name>  (47) 
46

>  <ligand_id>  (47) 
46

>  <original_smiles>  (47) 
[H]c1c([H])c([H])c2c(c1[H])C([H])([H])C([H])([H])C([H])([H])C2([H])N([H])C(=O)C1([H])N(C(=O)C([H])(N([H])C(=O)C([H])(N([H])C([H])([H])[H])C([H])([H])[H])C(C([H])([H])[H])(C([H])([H])[H])C([H])([H])[H])C([H])([H])c2c([H])c(OC([H])([H])C(=O)C(C([H])([H])[H])(C([H])([H])[H])C3([H])c4c(C([H])([H])[H])c([H])c(N([H])C(=O)N5C([H])([H])C([H])([H])C([H])([H])C([H])(n6nc(-c7c([H])c([H])c(Oc8c([H])c([H])c(F)c([H])c8F)c([H])c7[H])c(C(=O)N([H])[H])c6N([H])[H])C5([H])[H])c([H])c4C3([H])[H])c([H])c([H])c2C1([H])[H]

>  <smiles>  (47) 
[H]c1c([H])c([H])c2c(c1[H])C([H])([H])C([H])([H])C([H])([H])C2([H])N([H])C(=O)C1([H])N(C(=O)C([H])(N([H])C(=O)C([H])(N([H])C([H])([H])[H])C([H])([H])[H])C(C([H])([H])[H])(C([H])([H])[H])C([H])([H])[H])C([H])([H])c2c([H])c(OC([H])([H])C(=O)C(C([H])([H])[H])(C([H])([H])[H])C3([H])c4c(C([H])([H])[H])c([H])c(N([H])C(=O)N5C([H])([H])C([H])([H])C([H])([H])C([H])(n6nc(-c7c([H])c([H])c(Oc8c([H])c([H])c(F)c([H])c8F)c([H])c7[H])c(C(=O)N([H])[H])c6N([H])[H])C5([H])[H])c([H])c4C3([H])[H])c([H])c([H])c2C1([H])[H]

$$$$
47:0:0
     RDKit          3D

 92100  0  0  1  0  0  0  0  0999 V2000
  -30.3160  -21.5630   20.5590 C   0  0  0  0  0  3  0  0  0  0  0  0
  -31.2200  -19.2560   19.7480 C   0  0  0  0  0  3  0  0  0  0  0  0
  -31.2110  -17.8320   19.7490 C   0  0  0  0  0  3  0  0  0  0  0  0
  -29.1130  -19.2850   20.9130 C   0  0  0  0  0  3  0  0  0  0  0  0
  -30.1800  -20.0190   20.3430 C   0  0  0  0  0  0  0  0  0  0  0  0
  -29.1010  -17.8590   20.9270 C   0  0  0  0  0  0  0  0  0  0  0  0
  -30.1590  -17.0940   20.3540 C   0  0  0  0  0  0  0  0  0  0  0  0
  -27.9380  -17.1550   21.6070 C   0  0  0  0  0  1  0  0  0  0  0  0
  -30.7860  -14.6390   19.7910 C   0  0  0  0  0  0  0  0  0  0  0  0
  -30.4340  -12.4680   18.6360 C   0  0  0  0  0  2  0  0  0  0  0  0
  -29.3770  -12.6750   17.5270 C   0  0  0  0  0  2  0  0  0  0  0  0
  -27.9490  -12.5200   18.0880 C   0  0  0  0  0  2  0  0  0  0  0  0
  -27.7310  -13.3250   19.3970 C   0  0  0  0  0  3  0  0  0  0  0  0
  -28.8850  -13.0850   20.3950 C   0  0  0  0  0  2  0  0  0  0  0  0
  -30.1460  -13.4310   19.7160 N   0  0  0  0  0  0  0  0  0  0  0  0
  -31.8820  -14.8260   19.2500 O   0  0  0  0  0  0  0  0  0  0  0  0
  -30.0750  -15.6390   20.3880 N   0  0  0  0  0  0  0  0  0  0  0  0
  -29.2690  -15.2870   20.8820 H   0  0  0  0  0  0  0  0  0  0  0  0
  -25.4250  -13.9280   20.3630 C   0  0  0  0  0  0  0  0  0  0  0  0
  -24.3850  -13.1550   20.8020 C   0  0  0  0  0  0  0  0  0  0  0  0
  -24.8150  -11.8000   20.6650 C   0  0  0  0  0  0  0  0  0  0  0  0
  -26.4270  -13.0430   19.9930 N   0  0  0  0  0  0  0  0  0  0  0  0
  -26.0690  -11.7560   20.2320 N   0  0  0  0  0  0  0  0  0  0  0  0
  -24.0860  -10.5410   20.8680 C   0  0  0  0  0  0  0  0  0  0  0  0
  -24.5410   -9.5630   21.7790 C   0  0  0  0  0  3  0  0  0  0  0  0
  -23.8120   -8.3690   21.9700 C   0  0  0  0  0  3  0  0  0  0  0  0
  -22.6160   -8.1440   21.2480 C   0  0  0  0  0  0  0  0  0  0  0  0
  -22.1790   -9.1120   20.3260 C   0  0  0  0  0  3  0  0  0  0  0  0
  -22.9080  -10.2960   20.1330 C   0  0  0  0  0  3  0  0  0  0  0  0
  -21.8560   -7.0040   21.3500 O   0  0  0  0  0  0  0  0  0  0  0  0
  -21.7630   -6.3040   22.5270 C   0  0  0  0  0  0  0  0  0  0  0  0
  -21.3020   -6.9060   23.7170 C   0  0  0  0  0  3  0  0  0  0  0  0
  -21.1550   -6.1320   24.8870 C   0  0  0  0  0  3  0  0  0  0  0  0
  -21.4580   -4.7590   24.8650 C   0  0  0  0  0  0  0  0  0  0  0  0
  -21.9130   -4.1560   23.6790 C   0  0  0  0  0  3  0  0  0  0  0  0
  -22.0610   -4.9260   22.5120 C   0  0  0  0  0  0  0  0  0  0  0  0
  -22.4780   -4.3360   21.3660 F   0  0  0  0  0  0  0  0  0  0  0  0
  -21.3110   -4.0130   25.9860 F   0  0  0  0  0  0  0  0  0  0  0  0
  -23.0290  -13.6390   21.2290 C   0  0  0  0  0  0  0  0  0  0  0  0
  -22.3870  -12.9290   22.1510 N   0  0  0  0  0  0  0  0  0  0  0  0
  -22.5530  -14.6820   20.7830 O   0  0  0  0  0  0  0  0  0  0  0  0
  -22.7880  -12.0860   22.5320 H   0  0  0  0  0  0  0  0  0  0  0  0
  -21.4820  -13.2340   22.4780 H   0  0  0  0  0  0  0  0  0  0  0  0
  -25.5960  -15.3030   20.2270 N   0  0  0  0  0  0  0  0  0  0  0  0
  -24.8470  -15.9580   20.4240 H   0  0  0  0  0  0  0  0  0  0  0  0
  -26.4000  -15.7410   19.7960 H   0  0  0  0  0  0  0  0  0  0  0  0
  -29.3390  -22.6030   19.8670 C   0  0  0  0  0  3  0  0  0  0  0  0
  -30.9100  -24.6250   20.1080 C   0  0  0  0  0  1  0  0  0  0  0  0
  -29.1000  -24.2660   21.8080 C   0  0  0  0  0  1  0  0  0  0  0  0
  -29.4630  -24.1380   20.3140 C   0  0  2  0  0  0  0  0  0  0  0  0
  -28.4970  -25.1170   19.5260 C   0  0  0  0  0  2  0  0  0  0  0  0
  -28.5140  -26.5400   19.9150 O   0  0  0  0  0  0  0  0  0  0  0  0
  -24.4760  -31.6340   22.9700 C   0  0  0  0  0  0  0  0  0  0  0  0
  -27.3320  -27.2840   19.8630 C   0  0  0  0  0  0  0  0  0  0  0  0
  -23.3440  -30.1860   21.3190 C   0  0  0  0  0  3  0  0  0  0  0  0
  -24.8740  -28.7360   19.8760 C   0  0  0  0  0  0  0  0  0  0  0  0
  -25.8560  -30.6550   21.1300 C   0  0  0  0  0  2  0  0  0  0  0  0
  -26.0110  -29.2910   20.4770 C   0  0  0  0  0  0  0  0  0  0  0  0
  -27.2390  -28.5720   20.4670 C   0  0  0  0  0  3  0  0  0  0  0  0
  -26.1710  -26.7830   19.2250 C   0  0  0  0  0  3  0  0  0  0  0  0
  -24.9530  -27.4850   19.2470 C   0  0  0  0  0  3  0  0  0  0  0  0
  -23.5890  -29.5330   19.9330 C   0  0  0  0  0  2  0  0  0  0  0  0
  -24.5770  -30.8400   21.8650 N   0  0  0  0  0  0  0  0  0  0  0  0
  -23.3800  -31.8490   23.5100 O   0  0  0  0  0  0  0  0  0  0  0  0
  -22.7430  -29.1260   22.2710 C   0  0  0  0  0  0  0  0  0  0  0  0
  -21.4330  -28.8590   22.1300 N   0  0  0  0  0  0  0  0  0  0  0  0
  -23.4540  -28.5470   23.0970 O   0  0  0  0  0  0  0  0  0  0  0  0
  -20.9160  -29.3820   21.4370 H   0  0  0  0  0  0  0  0  0  0  0  0
  -18.1400  -27.4430   22.5850 C   0  0  0  0  0  0  0  0  0  0  0  0
  -20.6710  -27.8700   22.8910 C   0  0  0  0  0  3  0  0  0  0  0  0
  -20.8750  -26.4480   22.3160 C   0  0  0  0  0  2  0  0  0  0  0  0
  -19.8120  -26.0540   21.2890 C   0  0  0  0  0  2  0  0  0  0  0  0
  -18.4150  -26.1080   21.9130 C   0  0  0  0  0  2  0  0  0  0  0  0
  -19.2000  -28.2770   23.0290 C   0  0  0  0  0  0  0  0  0  0  0  0
  -18.8890  -29.5240   23.6150 C   0  0  0  0  0  3  0  0  0  0  0  0
  -17.5520  -29.9380   23.7620 C   0  0  0  0  0  3  0  0  0  0  0  0
  -16.5060  -29.1030   23.3330 C   0  0  0  0  0  3  0  0  0  0  0  0
  -16.8010  -27.8560   22.7500 C   0  0  0  0  0  3  0  0  0  0  0  0
  -25.7260  -32.3290   23.5930 C   0  0  0  0  0  3  0  0  0  0  0  0
  -26.2540  -31.6060   24.8930 C   0  0  1  0  0  0  0  0  0  0  0  0
  -25.1540  -31.3440   25.9480 C   0  0  0  0  0  1  0  0  0  0  0  0
  -26.9000  -30.2470   24.5380 C   0  0  0  0  0  1  0  0  0  0  0  0
  -27.3570  -32.4620   25.5590 C   0  0  0  0  0  1  0  0  0  0  0  0
  -25.3580  -33.7210   23.8880 N   0  0  0  0  0  0  0  0  0  0  0  0
  -25.6450  -34.7670   23.1020 C   0  0  0  0  0  0  0  0  0  0  0  0
  -26.3180  -34.6650   22.0730 O   0  0  0  0  0  0  0  0  0  0  0  0
  -24.7570  -33.8710   24.6850 H   0  0  0  0  0  0  0  0  0  0  0  0
  -23.8360  -36.4720   22.7130 C   0  0  0  0  0  1  0  0  0  0  0  0
  -25.0990  -36.1430   23.5250 C   0  0  0  0  0  3  0  0  0  0  0  0
  -27.1920  -37.1500   24.3230 C   0  0  0  0  0  1  0  0  0  0  0  0
  -26.0830  -37.2380   23.3770 N   0  0  0  0  0  0  0  0  0  0  0  0
  -25.6340  -38.1420   23.4990 H   0  0  0  0  0  0  0  0  0  0  0  0
  2  3  2  0
  2  5  1  0
  3  7  1  0
  4  6  1  0
  5  1  1  0
  5  4  2  0
  6  8  1  0
  7 17  1  0
  7  6  2  0
  9 17  1  0
 10 15  1  0
 11 12  1  0
 11 10  1  0
 13 12  1  0
 13 22  1  0
 13 14  1  0
 15  9  1  0
 15 14  1  0
 16  9  2  0
 17 18  1  0
 19 20  2  0
 20 39  1  0
 21 20  1  0
 21 24  1  0
 22 23  1  0
 22 19  1  0
 23 21  2  0
 24 25  1  0
 25 26  2  0
 27 30  1  0
 27 26  1  0
 28 27  2  0
 29 28  1  0
 29 24  2  0
 30 31  1  0
 31 32  1  0
 32 33  2  0
 34 33  1  0
 34 38  1  0
 35 34  2  0
 36 31  2  0
 36 35  1  0
 37 36  1  0
 39 40  1  0
 40 43  1  0
 40 42  1  0
 41 39  2  0
 44 19  1  0
 44 45  1  0
 46 44  1  0
 47 50  1  0
 47  1  2  0
 50 48  1  1
 50 49  1  0
 51 52  1  0
 51 50  1  0
 53 64  2  0
 54 52  1  0
 54 59  1  0
 55 63  1  0
 55 65  1  0
 56 62  1  0
 56 58  1  0
 57 63  1  0
 58 57  1  0
 59 58  2  0
 60 61  1  0
 60 54  2  0
 61 56  2  0
 62 55  1  0
 63 53  1  0
 65 67  2  0
 66 65  1  0
 68 66  1  0
 69 78  2  0
 69 74  1  0
 70 66  1  0
 70 74  1  0
 71 70  1  0
 72 73  1  0
 72 71  1  0
 73 69  1  0
 74 75  2  0
 75 76  1  0
 77 76  2  0
 78 77  1  0
 79 53  1  0
 79 84  1  0
 79 80  1  0
 80 83  1  1
 80 81  1  0
 82 80  1  0
 84 87  1  0
 85 89  1  0
 85 84  1  0
 86 85  2  0
 89 88  1  0
 91 92  1  0
 91 89  1  0
 91 90  1  0
M  ISO  4   9 100  17 100  51 101  52 101
M  END
>  <TORSDO>  (48) 
F 20

>  <SCORE>  (48) 
-10.491

>  <name>  (48) 
47

>  <ligand_id>  (48) 
47

>  <original_smiles>  (48) 
[H]c1c([H])c([H])c2c(c1[H])C([H])([H])C([H])([H])C([H])([H])C2([H])N([H])C(=O)C1([H])N(C(=O)C([H])(N([H])C(=O)C([H])(N([H])C([H])([H])[H])C([H])([H])[H])C(C([H])([H])[H])(C([H])([H])[H])C([H])([H])[H])C([H])([H])c2c([H])c(OC([H])([H])C(C([H])([H])[H])(C([H])([H])[H])C([H])([H])C([H])([H])c3c([H])c([H])c(N([H])C(=O)N4C([H])([H])C([H])([H])C([H])([H])C([H])(n5nc(-c6c([H])c([H])c(Oc7c([H])c([H])c(F)c([H])c7F)c([H])c6[H])c(C(=O)N([H])[H])c5N([H])[H])C4([H])[H])c(C([H])([H])[H])c3[H])c([H])c([H])c2C1([H])[H]

>  <smiles>  (48) 
[H]c1c([H])c([H])c2c(c1[H])C([H])([H])C([H])([H])C([H])([H])C2([H])N([H])C(=O)C1([H])N(C(=O)C([H])(N([H])C(=O)C([H])(N([H])C([H])([H])[H])C([H])([H])[H])C(C([H])([H])[H])(C([H])([H])[H])C([H])([H])[H])C([H])([H])c2c([H])c(OC([H])([H])C(C([H])([H])[H])(C([H])([H])[H])C([H])([H])C([H])([H])c3c([H])c([H])c(N([H])C(=O)N4C([H])([H])C([H])([H])C([H])([H])C([H])(n5nc(-c6c([H])c([H])c(Oc7c([H])c([H])c(F)c([H])c7F)c([H])c6[H])c(C(=O)N([H])[H])c5N([H])[H])C4([H])[H])c(C([H])([H])[H])c3[H])c([H])c([H])c2C1([H])[H]

$$$$
48:0:0
     RDKit          3D

 96105  0  0  1  0  0  0  0  0999 V2000
  -31.5470  -17.5850   19.4770 C   0  0  0  0  0  3  0  0  0  0  0  0
  -31.2600  -18.8500   18.9130 C   0  0  0  0  0  3  0  0  0  0  0  0
  -29.2800  -17.4720   20.3180 C   0  0  0  0  0  3  0  0  0  0  0  0
  -28.9690  -18.7200   19.7380 C   0  0  0  0  0  0  0  0  0  0  0  0
  -30.5480  -16.8810   20.1910 C   0  0  0  0  0  0  0  0  0  0  0  0
  -29.9750  -19.4360   19.0370 C   0  0  0  0  0  0  0  0  0  0  0  0
  -31.3010  -14.4960   20.2910 C   0  0  0  0  0  0  0  0  0  0  0  0
  -31.0130  -12.0880   19.8210 C   0  0  0  0  0  2  0  0  0  0  0  0
  -30.1900  -11.9210   18.5270 C   0  0  0  0  0  2  0  0  0  0  0  0
  -28.6780  -11.9500   18.8270 C   0  0  0  0  0  2  0  0  0  0  0  0
  -28.2710  -13.1500   19.7220 C   0  0  0  0  0  3  0  0  0  0  0  0
  -29.2050  -13.2550   20.9500 C   0  0  0  0  0  2  0  0  0  0  0  0
  -30.6020  -13.3420   20.4690 N   0  0  0  0  0  0  0  0  0  0  0  0
  -32.4140  -14.5370   19.7530 O   0  0  0  0  0  0  0  0  0  0  0  0
  -30.6890  -15.5870   20.7710 N   0  0  0  0  0  0  0  0  0  0  0  0
  -29.9540  -15.3510   21.4210 H   0  0  0  0  0  0  0  0  0  0  0  0
  -25.9260  -14.0890   20.2430 C   0  0  0  0  0  0  0  0  0  0  0  0
  -24.7500  -13.4750   20.5820 C   0  0  0  0  0  0  0  0  0  0  0  0
  -25.0380  -12.0770   20.6420 C   0  0  0  0  0  0  0  0  0  0  0  0
  -26.8650  -13.0740   20.1190 N   0  0  0  0  0  0  0  0  0  0  0  0
  -26.3270  -11.8610   20.4150 N   0  0  0  0  0  0  0  0  0  0  0  0
  -24.1510  -10.9250   20.8480 C   0  0  0  0  0  0  0  0  0  0  0  0
  -24.4690   -9.9060   21.7740 C   0  0  0  0  0  3  0  0  0  0  0  0
  -23.5930   -8.8150   21.9630 C   0  0  0  0  0  3  0  0  0  0  0  0
  -22.3840   -8.7390   21.2310 C   0  0  0  0  0  0  0  0  0  0  0  0
  -22.0860   -9.7450   20.2960 C   0  0  0  0  0  3  0  0  0  0  0  0
  -22.9600  -10.8270   20.1020 C   0  0  0  0  0  3  0  0  0  0  0  0
  -21.4850   -7.7050   21.3330 O   0  0  0  0  0  0  0  0  0  0  0  0
  -21.4510   -6.8860   22.4330 C   0  0  0  0  0  0  0  0  0  0  0  0
  -21.2670   -7.3950   23.7370 C   0  0  0  0  0  3  0  0  0  0  0  0
  -21.1680   -6.5120   24.8330 C   0  0  0  0  0  3  0  0  0  0  0  0
  -21.2380   -5.1210   24.6250 C   0  0  0  0  0  0  0  0  0  0  0  0
  -21.4150   -4.6130   23.3260 C   0  0  0  0  0  3  0  0  0  0  0  0
  -21.5160   -5.4910   22.2340 C   0  0  0  0  0  0  0  0  0  0  0  0
  -21.6650   -4.9920   20.9830 F   0  0  0  0  0  0  0  0  0  0  0  0
  -21.1360   -4.2730   25.6750 F   0  0  0  0  0  0  0  0  0  0  0  0
  -23.4100  -14.1350   20.7440 C   0  0  0  0  0  0  0  0  0  0  0  0
  -22.5600  -13.6020   21.6170 N   0  0  0  0  0  0  0  0  0  0  0  0
  -23.1240  -15.1600   20.1270 O   0  0  0  0  0  0  0  0  0  0  0  0
  -22.7990  -12.7740   22.1440 H   0  0  0  0  0  0  0  0  0  0  0  0
  -21.6570  -14.0300   21.7630 H   0  0  0  0  0  0  0  0  0  0  0  0
  -26.2730  -15.4160   20.0110 N   0  0  0  0  0  0  0  0  0  0  0  0
  -25.5910  -16.1650   20.0380 H   0  0  0  0  0  0  0  0  0  0  0  0
  -27.1950  -15.7230   19.7220 H   0  0  0  0  0  0  0  0  0  0  0  0
  -26.4070  -18.2810   19.5570 C   0  0  0  0  0  2  0  0  0  0  0  0
  -26.7150  -19.4270   18.6340 C   0  0  0  0  0  2  0  0  0  0  0  0
  -27.5580  -19.2230   19.8730 C   0  0  2  0  0  0  0  0  0  0  0  0
  -27.4270  -20.1650   21.0500 C   0  0  0  0  0  1  0  0  0  0  0  0
  -29.6760  -20.6950   18.5460 O   0  0  0  0  0  0  0  0  0  0  0  0
  -30.0750  -21.0330   17.2100 C   0  0  0  0  0  2  0  0  0  0  0  0
  -27.8570  -22.2680   17.1610 C   0  0  0  0  0  1  0  0  0  0  0  0
  -29.3020  -22.2470   15.1340 C   0  0  0  0  0  1  0  0  0  0  0  0
  -29.3270  -22.3120   16.6750 C   0  0  2  0  0  0  0  0  0  0  0  0
  -30.0500  -23.6410   17.1120 C   0  0  0  0  0  2  0  0  0  0  0  0
  -29.2480  -24.6370   18.0090 C   0  0  0  0  0  2  0  0  0  0  0  0
  -29.3940  -26.0410   17.6990 O   0  0  0  0  0  0  0  0  0  0  0  0
  -25.3170  -28.2980   23.0900 C   0  0  0  0  0  0  0  0  0  0  0  0
  -28.3020  -26.7880   18.0920 C   0  0  0  0  0  0  0  0  0  0  0  0
  -24.3480  -28.5220   20.8270 C   0  0  0  0  0  3  0  0  0  0  0  0
  -25.9720  -28.1800   18.8870 C   0  0  0  0  0  0  0  0  0  0  0  0
  -26.8830  -28.6080   21.1760 C   0  0  0  0  0  2  0  0  0  0  0  0
  -27.0390  -28.0270   19.7850 C   0  0  0  0  0  0  0  0  0  0  0  0
  -28.2080  -27.3360   19.3910 C   0  0  0  0  0  3  0  0  0  0  0  0
  -27.2270  -26.9710   17.1930 C   0  0  0  0  0  3  0  0  0  0  0  0
  -26.0610  -27.6470   17.5880 C   0  0  0  0  0  3  0  0  0  0  0  0
  -24.7520  -28.9240   19.3840 C   0  0  0  0  0  2  0  0  0  0  0  0
  -25.5250  -28.4460   21.7510 N   0  0  0  0  0  0  0  0  0  0  0  0
  -24.1720  -28.2640   23.5620 O   0  0  0  0  0  0  0  0  0  0  0  0
  -23.5390  -27.2070   20.7650 C   0  0  0  0  0  0  0  0  0  0  0  0
  -22.2660  -27.3060   20.3450 N   0  0  0  0  0  0  0  0  0  0  0  0
  -24.0580  -26.1290   21.0640 O   0  0  0  0  0  0  0  0  0  0  0  0
  -21.9180  -28.2280   20.1250 H   0  0  0  0  0  0  0  0  0  0  0  0
  -18.9010  -26.4790   19.3220 C   0  0  0  0  0  0  0  0  0  0  0  0
  -21.3250  -26.2010   20.1690 C   0  0  0  0  0  3  0  0  0  0  0  0
  -21.5970  -25.4520   18.8430 C   0  0  0  0  0  2  0  0  0  0  0  0
  -20.7560  -25.9800   17.6740 C   0  0  0  0  0  2  0  0  0  0  0  0
  -19.2630  -25.8520   17.9880 C   0  0  0  0  0  2  0  0  0  0  0  0
  -19.8740  -26.6610   20.3410 C   0  0  0  0  0  0  0  0  0  0  0  0
  -19.4970  -27.2910   21.5470 C   0  0  0  0  0  3  0  0  0  0  0  0
  -18.1740  -27.7300   21.7450 C   0  0  0  0  0  3  0  0  0  0  0  0
  -17.2110  -27.5320   20.7400 C   0  0  0  0  0  3  0  0  0  0  0  0
  -17.5750  -26.9050   19.5340 C   0  0  0  0  0  3  0  0  0  0  0  0
  -26.5070  -28.1900   24.0930 C   0  0  0  0  0  3  0  0  0  0  0  0
  -26.1240  -28.9190   25.3090 N   0  0  0  0  0  0  0  0  0  0  0  0
  -26.5900  -30.1250   25.6560 C   0  0  0  0  0  0  0  0  0  0  0  0
  -27.4640  -30.7130   25.0110 O   0  0  0  0  0  0  0  0  0  0  0  0
  -25.3810  -28.5120   25.8600 H   0  0  0  0  0  0  0  0  0  0  0  0
  -24.9900  -31.8610   26.5180 C   0  0  0  0  0  1  0  0  0  0  0  0
  -26.0040  -30.7790   26.9220 C   0  0  0  0  0  3  0  0  0  0  0  0
  -27.8750  -30.3700   28.4580 C   0  0  0  0  0  1  0  0  0  0  0  0
  -27.0300  -31.3690   27.8100 N   0  0  0  0  0  0  0  0  0  0  0  0
  -26.5980  -31.9410   28.5310 H   0  0  0  0  0  0  0  0  0  0  0  0
  -26.8980  -26.7010   24.4370 C   0  0  1  0  0  0  0  0  0  0  0  0
  -25.7020  -25.8300   24.8800 C   0  0  0  0  0  1  0  0  0  0  0  0
  -27.5560  -26.0150   23.2160 C   0  0  0  0  0  1  0  0  0  0  0  0
  -27.9440  -26.6820   25.5760 C   0  0  0  0  0  1  0  0  0  0  0  0
  1  5  1  0
  2  6  1  0
  2  1  2  0
  4 47  1  0
  4  3  1  0
  5  3  2  0
  5 15  1  0
  6  4  2  0
  7 13  1  0
  7 15  1  0
  8 13  1  0
  9 10  1  0
  9  8  1  0
 11 10  1  0
 11 20  1  0
 11 12  1  0
 13 12  1  0
 14  7  2  0
 15 16  1  0
 17 18  2  0
 18 19  1  0
 18 37  1  0
 19 22  1  0
 20 17  1  0
 20 21  1  0
 21 19  2  0
 22 23  1  0
 23 24  2  0
 25 28  1  0
 25 24  1  0
 26 25  2  0
 27 26  1  0
 27 22  2  0
 28 29  1  0
 29 30  1  0
 30 31  2  0
 32 31  1  0
 32 36  1  0
 33 32  2  0
 34 29  2  0
 34 33  1  0
 35 34  1  0
 37 38  1  0
 38 41  1  0
 38 40  1  0
 39 37  2  0
 42 43  1  0
 42 17  1  0
 44 42  1  0
 45 47  1  0
 46 45  1  0
 46 47  1  0
 47 48  1  1
 49  6  1  0
 50 49  1  0
 53 52  1  6
 53 54  1  0
 53 51  1  0
 53 50  1  0
 54 55  1  0
 56 55  1  0
 56 58  1  0
 57 68  2  0
 58 63  1  0
 59 69  1  0
 59 67  1  0
 60 66  1  0
 60 62  1  0
 61 67  1  0
 62 61  1  0
 63 62  2  0
 64 65  1  0
 64 58  2  0
 65 60  2  0
 66 59  1  0
 67 57  1  0
 69 71  2  0
 70 69  1  0
 72 70  1  0
 73 82  2  0
 73 78  1  0
 74 78  1  0
 74 70  1  0
 75 74  1  0
 76 77  1  0
 76 75  1  0
 77 73  1  0
 78 79  2  0
 79 80  1  0
 81 80  2  0
 82 81  1  0
 83 57  1  0
 83 93  1  0
 83 84  1  0
 84 85  1  0
 84 87  1  0
 85 89  1  0
 86 85  2  0
 89 88  1  0
 89 91  1  0
 91 90  1  0
 91 92  1  0
 93 94  1  1
 93 96  1  0
 95 93  1  0
M  ISO  4   7 100  15 100  55 101  56 101
M  END
>  <TORSDO>  (49) 
F 22

>  <SCORE>  (49) 
-6.840

>  <name>  (49) 
48

>  <ligand_id>  (49) 
48

>  <original_smiles>  (49) 
[H]c1c([H])c([H])c2c(c1[H])C([H])([H])C([H])([H])C([H])([H])C2([H])N([H])C(=O)C1([H])N(C(=O)C([H])(N([H])C(=O)C([H])(N([H])C([H])([H])[H])C([H])([H])[H])C(C([H])([H])[H])(C([H])([H])[H])C([H])([H])[H])C([H])([H])c2c([H])c(OC([H])([H])C([H])([H])C(C([H])([H])[H])(C([H])([H])[H])C([H])([H])Oc3c([H])c([H])c(N([H])C(=O)N4C([H])([H])C([H])([H])C([H])([H])C([H])(n5nc(-c6c([H])c([H])c(Oc7c([H])c([H])c(F)c([H])c7F)c([H])c6[H])c(C(=O)N([H])[H])c5N([H])[H])C4([H])[H])c([H])c3C3(C([H])([H])[H])C([H])([H])C3([H])[H])c([H])c([H])c2C1([H])[H]

>  <smiles>  (49) 
[H]c1c([H])c([H])c2c(c1[H])C([H])([H])C([H])([H])C([H])([H])C2([H])N([H])C(=O)C1([H])N(C(=O)C([H])(N([H])C(=O)C([H])(N([H])C([H])([H])[H])C([H])([H])[H])C(C([H])([H])[H])(C([H])([H])[H])C([H])([H])[H])C([H])([H])c2c([H])c(OC([H])([H])C([H])([H])C(C([H])([H])[H])(C([H])([H])[H])C([H])([H])Oc3c([H])c([H])c(N([H])C(=O)N4C([H])([H])C([H])([H])C([H])([H])C([H])(n5nc(-c6c([H])c([H])c(Oc7c([H])c([H])c(F)c([H])c7F)c([H])c6[H])c(C(=O)N([H])[H])c5N([H])[H])C4([H])[H])c([H])c3C3(C([H])([H])[H])C([H])([H])C3([H])[H])c([H])c([H])c2C1([H])[H]

$$$$
49:0:0
     RDKit          3D

 95104  0  0  1  0  0  0  0  0999 V2000
  -29.6050  -22.5760   21.9350 C   0  0  0  0  0  0  0  0  0  0  0  0
  -29.7160  -23.9090   21.7500 C   0  0  0  0  0  3  0  0  0  0  0  0
  -29.9790  -21.8620   23.2130 C   0  0  0  0  0  2  0  0  0  0  0  0
  -29.1880  -21.5320   20.9320 C   0  0  0  0  0  2  0  0  0  0  0  0
  -30.1370  -20.3900   22.8140 C   0  0  0  0  0  2  0  0  0  0  0  0
  -29.4080  -20.2370   21.5590 N   0  0  0  0  0  0  0  0  0  0  0  0
  -29.5260  -18.0830   18.5020 C   0  0  0  0  0  3  0  0  0  0  0  0
  -29.3190  -19.1850   19.3450 C   0  0  0  0  0  3  0  0  0  0  0  0
  -30.0050  -16.8750   19.0290 C   0  0  0  0  0  3  0  0  0  0  0  0
  -30.0560  -17.8740   21.2580 C   0  0  0  0  0  3  0  0  0  0  0  0
  -29.6000  -19.1070   20.7320 C   0  0  0  0  0  0  0  0  0  0  0  0
  -30.2700  -16.7600   20.4160 C   0  0  0  0  0  0  0  0  0  0  0  0
  -31.2830  -14.5510   20.3080 C   0  0  0  0  0  0  0  0  0  0  0  0
  -30.9070  -12.4190   19.1490 C   0  0  0  0  0  2  0  0  0  0  0  0
  -29.9520  -12.6770   17.9640 C   0  0  0  0  0  2  0  0  0  0  0  0
  -28.4810  -12.5860   18.4150 C   0  0  0  0  0  2  0  0  0  0  0  0
  -28.1930  -13.4240   19.6890 C   0  0  0  0  0  3  0  0  0  0  0  0
  -29.2540  -13.1390   20.7780 C   0  0  0  0  0  2  0  0  0  0  0  0
  -30.5900  -13.3900   20.2050 N   0  0  0  0  0  0  0  0  0  0  0  0
  -32.3620  -14.7620   19.7430 O   0  0  0  0  0  0  0  0  0  0  0  0
  -30.6560  -15.5190   20.9890 N   0  0  0  0  0  0  0  0  0  0  0  0
  -30.0230  -15.1790   21.6980 H   0  0  0  0  0  0  0  0  0  0  0  0
  -25.8370  -14.1170   20.4690 C   0  0  0  0  0  0  0  0  0  0  0  0
  -24.7440  -13.3780   20.8360 C   0  0  0  0  0  0  0  0  0  0  0  0
  -25.1440  -12.0100   20.7450 C   0  0  0  0  0  0  0  0  0  0  0  0
  -26.8370  -13.1980   20.1850 N   0  0  0  0  0  0  0  0  0  0  0  0
  -26.4230  -11.9260   20.4050 N   0  0  0  0  0  0  0  0  0  0  0  0
  -24.3690  -10.7730   20.9100 C   0  0  0  0  0  0  0  0  0  0  0  0
  -24.7400   -9.7890   21.8520 C   0  0  0  0  0  3  0  0  0  0  0  0
  -23.9700   -8.6160   22.0030 C   0  0  0  0  0  3  0  0  0  0  0  0
  -22.8150   -8.4200   21.2110 C   0  0  0  0  0  0  0  0  0  0  0  0
  -22.4610   -9.3920   20.2590 C   0  0  0  0  0  3  0  0  0  0  0  0
  -23.2320  -10.5570   20.1060 C   0  0  0  0  0  3  0  0  0  0  0  0
  -22.0190   -7.3000   21.2710 O   0  0  0  0  0  0  0  0  0  0  0  0
  -21.8450   -6.6040   22.4390 C   0  0  0  0  0  0  0  0  0  0  0  0
  -21.3010   -7.2090   23.5940 C   0  0  0  0  0  3  0  0  0  0  0  0
  -21.0740   -6.4370   24.7510 C   0  0  0  0  0  3  0  0  0  0  0  0
  -21.3810   -5.0630   24.7550 C   0  0  0  0  0  0  0  0  0  0  0  0
  -21.9180   -4.4590   23.6050 C   0  0  0  0  0  3  0  0  0  0  0  0
  -22.1470   -5.2270   22.4500 C   0  0  0  0  0  0  0  0  0  0  0  0
  -22.6450   -4.6350   21.3370 F   0  0  0  0  0  0  0  0  0  0  0  0
  -21.1550   -4.3200   25.8630 F   0  0  0  0  0  0  0  0  0  0  0  0
  -23.3740  -13.9040   21.1610 C   0  0  0  0  0  0  0  0  0  0  0  0
  -22.6490  -13.2210   22.0400 N   0  0  0  0  0  0  0  0  0  0  0  0
  -22.9580  -14.9530   20.6730 O   0  0  0  0  0  0  0  0  0  0  0  0
  -22.9980  -12.3720   22.4590 H   0  0  0  0  0  0  0  0  0  0  0  0
  -21.7320  -13.5550   22.3010 H   0  0  0  0  0  0  0  0  0  0  0  0
  -26.0580  -15.4850   20.3390 N   0  0  0  0  0  0  0  0  0  0  0  0
  -25.3250  -16.1670   20.4990 H   0  0  0  0  0  0  0  0  0  0  0  0
  -26.9310  -15.9010   20.0390 H   0  0  0  0  0  0  0  0  0  0  0  0
  -28.5610  -24.0920   19.4320 C   0  0  0  0  0  1  0  0  0  0  0  0
  -30.7440  -25.2260   19.9100 C   0  0  0  0  0  1  0  0  0  0  0  0
  -29.4050  -24.7840   20.5260 C   0  0  2  0  0  0  0  0  0  0  0  0
  -28.6230  -26.0200   21.0230 C   0  0  0  0  0  2  0  0  0  0  0  0
  -28.4470  -26.9470   19.9570 O   0  0  0  0  0  0  0  0  0  0  0  0
  -24.6240  -31.9650   23.2100 C   0  0  0  0  0  0  0  0  0  0  0  0
  -27.2690  -27.6380   20.0220 C   0  0  0  0  0  0  0  0  0  0  0  0
  -23.4000  -30.5660   21.5730 C   0  0  0  0  0  3  0  0  0  0  0  0
  -24.8460  -29.0660   20.1050 C   0  0  0  0  0  0  0  0  0  0  0  0
  -25.9100  -30.9740   21.3260 C   0  0  0  0  0  2  0  0  0  0  0  0
  -26.0030  -29.6130   20.6750 C   0  0  0  0  0  0  0  0  0  0  0  0
  -27.2190  -28.9020   20.6380 C   0  0  0  0  0  3  0  0  0  0  0  0
  -26.1040  -27.0900   19.4490 C   0  0  0  0  0  3  0  0  0  0  0  0
  -24.8890  -27.7990   19.4920 C   0  0  0  0  0  3  0  0  0  0  0  0
  -23.5880  -29.9000   20.1830 C   0  0  0  0  0  2  0  0  0  0  0  0
  -24.6630  -31.1820   22.0940 N   0  0  0  0  0  0  0  0  0  0  0  0
  -23.5530  -32.2140   23.7780 O   0  0  0  0  0  0  0  0  0  0  0  0
  -22.7850  -29.5260   22.5350 C   0  0  0  0  0  0  0  0  0  0  0  0
  -21.4660  -29.3020   22.4080 N   0  0  0  0  0  0  0  0  0  0  0  0
  -23.4880  -28.9210   23.3480 O   0  0  0  0  0  0  0  0  0  0  0  0
  -20.9580  -29.8460   21.7250 H   0  0  0  0  0  0  0  0  0  0  0  0
  -18.1380  -27.9760   22.8680 C   0  0  0  0  0  0  0  0  0  0  0  0
  -20.6790  -28.3380   23.1750 C   0  0  0  0  0  3  0  0  0  0  0  0
  -20.8470  -26.9070   22.6140 C   0  0  0  0  0  2  0  0  0  0  0  0
  -19.7750  -26.5310   21.5870 C   0  0  0  0  0  2  0  0  0  0  0  0
  -18.3790  -26.6280   22.2090 C   0  0  0  0  0  2  0  0  0  0  0  0
  -19.2190  -28.7860   23.3070 C   0  0  0  0  0  0  0  0  0  0  0  0
  -18.9420  -30.0460   23.8790 C   0  0  0  0  0  3  0  0  0  0  0  0
  -17.6170  -30.4990   24.0180 C   0  0  0  0  0  3  0  0  0  0  0  0
  -16.5500  -29.6860   23.5970 C   0  0  0  0  0  3  0  0  0  0  0  0
  -16.8120  -28.4260   23.0290 C   0  0  0  0  0  3  0  0  0  0  0  0
  -25.9170  -32.6010   23.8100 C   0  0  0  0  0  3  0  0  0  0  0  0
  -26.4700  -31.8200   25.0660 C   0  0  1  0  0  0  0  0  0  0  0  0
  -25.3990  -31.5390   26.1440 C   0  0  0  0  0  1  0  0  0  0  0  0
  -27.0800  -30.4630   24.6400 C   0  0  0  0  0  1  0  0  0  0  0  0
  -27.6120  -32.6280   25.7260 C   0  0  0  0  0  1  0  0  0  0  0  0
  -25.6040  -33.9930   24.1600 N   0  0  0  0  0  0  0  0  0  0  0  0
  -25.9170  -35.0540   23.4040 C   0  0  0  0  0  0  0  0  0  0  0  0
  -26.5750  -34.9650   22.3640 O   0  0  0  0  0  0  0  0  0  0  0  0
  -25.0200  -34.1360   24.9710 H   0  0  0  0  0  0  0  0  0  0  0  0
  -24.1780  -36.8400   23.0780 C   0  0  0  0  0  1  0  0  0  0  0  0
  -25.4240  -36.4340   23.8790 C   0  0  0  0  0  3  0  0  0  0  0  0
  -27.5540  -37.3270   24.7130 C   0  0  0  0  0  1  0  0  0  0  0  0
  -26.4510  -37.4930   23.7710 N   0  0  0  0  0  0  0  0  0  0  0  0
  -26.0400  -38.4100   23.9230 H   0  0  0  0  0  0  0  0  0  0  0  0
  1  3  1  0
  2  1  2  0
  4  6  1  0
  4  1  1  0
  5  3  1  0
  6  5  1  0
  7  9  2  0
  7  8  1  0
  8 11  2  0
  9 12  1  0
 11 10  1  0
 11  6  1  0
 12 21  1  0
 12 10  2  0
 13 21  1  0
 14 19  1  0
 15 16  1  0
 15 14  1  0
 17 16  1  0
 17 26  1  0
 17 18  1  0
 19 13  1  0
 19 18  1  0
 20 13  2  0
 21 22  1  0
 23 24  2  0
 24 43  1  0
 25 24  1  0
 25 28  1  0
 26 27  1  0
 26 23  1  0
 27 25  2  0
 28 29  1  0
 29 30  2  0
 31 34  1  0
 31 30  1  0
 32 31  2  0
 33 32  1  0
 33 28  2  0
 34 35  1  0
 35 40  2  0
 35 36  1  0
 36 37  2  0
 37 38  1  0
 38 42  1  0
 39 38  2  0
 40 39  1  0
 41 40  1  0
 43 44  1  0
 44 47  1  0
 44 46  1  0
 45 43  2  0
 48 23  1  0
 48 49  1  0
 50 48  1  0
 53 51  1  6
 52 53  1  0
 53 54  1  0
 53  2  1  0
 55 57  1  0
 55 54  1  0
 56 67  2  0
 57 62  1  0
 58 66  1  0
 58 68  1  0
 59 65  1  0
 59 61  1  0
 60 66  1  0
 61 60  1  0
 62 61  2  0
 63 64  1  0
 63 57  2  0
 64 59  2  0
 65 58  1  0
 66 56  1  0
 68 70  2  0
 69 68  1  0
 71 69  1  0
 72 81  2  0
 72 77  1  0
 73 69  1  0
 73 77  1  0
 74 73  1  0
 75 76  1  0
 75 74  1  0
 76 72  1  0
 77 78  2  0
 78 79  1  0
 80 79  2  0
 81 80  1  0
 82 56  1  0
 82 87  1  0
 82 83  1  0
 83 86  1  1
 83 84  1  0
 85 83  1  0
 87 90  1  0
 88 92  1  0
 88 87  1  0
 89 88  2  0
 92 91  1  0
 94 92  1  0
 94 95  1  0
 94 93  1  0
M  ISO  4  13 100  21 100  54 101  55 101
M  END
>  <TORSDO>  (50) 
F 19

>  <SCORE>  (50) 
-13.684

>  <name>  (50) 
49

>  <ligand_id>  (50) 
49

>  <original_smiles>  (50) 
[H]C(=C1C([H])([H])N(c2c([H])c([H])c([H])c(N([H])C(=O)N3C([H])([H])C([H])([H])C([H])([H])C([H])(n4nc(-c5c([H])c([H])c(Oc6c([H])c([H])c(F)c([H])c6F)c([H])c5[H])c(C(=O)N([H])[H])c4N([H])[H])C3([H])[H])c2[H])C([H])([H])C1([H])[H])C(C([H])([H])[H])(C([H])([H])[H])C([H])([H])Oc1c([H])c([H])c2c(c1[H])C([H])([H])N(C(=O)C([H])(N([H])C(=O)C([H])(N([H])C([H])([H])[H])C([H])([H])[H])C(C([H])([H])[H])(C([H])([H])[H])C([H])([H])[H])C([H])(C(=O)N([H])C1([H])c3c([H])c([H])c([H])c([H])c3C([H])([H])C([H])([H])C1([H])[H])C2([H])[H]

>  <smiles>  (50) 
[H]C(=C1C([H])([H])N(c2c([H])c([H])c([H])c(N([H])C(=O)N3C([H])([H])C([H])([H])C([H])([H])C([H])(n4nc(-c5c([H])c([H])c(Oc6c([H])c([H])c(F)c([H])c6F)c([H])c5[H])c(C(=O)N([H])[H])c4N([H])[H])C3([H])[H])c2[H])C([H])([H])C1([H])[H])C(C([H])([H])[H])(C([H])([H])[H])C([H])([H])Oc1c([H])c([H])c2c(c1[H])C([H])([H])N(C(=O)C([H])(N([H])C(=O)C([H])(N([H])C([H])([H])[H])C([H])([H])[H])C(C([H])([H])[H])(C([H])([H])[H])C([H])([H])[H])C([H])(C(=O)N([H])C1([H])c3c([H])c([H])c([H])c([H])c3C([H])([H])C([H])([H])C1([H])[H])C2([H])[H]

$$$$
50:0:0
     RDKit          3D

100109  0  0  1  0  0  0  0  0999 V2000
  -29.7050  -21.6470   21.0550 C   0  0  0  0  0  2  0  0  0  0  0  0
  -29.5860  -23.2110   21.1410 C   0  0  0  0  0  2  0  0  0  0  0  0
  -28.0710  -22.3140   19.4990 C   0  0  0  0  0  2  0  0  0  0  0  0
  -29.2210  -21.2000   19.6550 C   0  0  2  0  0  0  0  0  0  0  0  0
  -28.3140  -23.6420   20.3740 C   0  0  1  0  0  0  0  0  0  0  0  0
  -27.9290  -17.8020   18.1130 C   0  0  0  0  0  3  0  0  0  0  0  0
  -28.5250  -16.8050   18.8950 C   0  0  0  0  0  3  0  0  0  0  0  0
  -29.4200  -18.5420   20.3340 C   0  0  0  0  0  3  0  0  0  0  0  0
  -28.8580  -19.6210   19.5080 C   0  0  0  0  0  0  0  0  0  0  0  0
  -28.0860  -19.1780   18.3850 C   0  0  0  0  0  0  0  0  0  0  0  0
  -29.2730  -17.1130   20.0420 C   0  0  0  0  0  0  0  0  0  0  0  0
  -27.4340  -20.1070   17.3660 C   0  0  0  0  0  1  0  0  0  0  0  0
  -30.4660  -14.8570   20.5700 C   0  0  0  0  0  0  0  0  0  0  0  0
  -30.3870  -12.5580   19.6100 C   0  0  0  0  0  2  0  0  0  0  0  0
  -29.4800  -12.6040   18.3580 C   0  0  0  0  0  2  0  0  0  0  0  0
  -28.0020  -12.3960   18.7430 C   0  0  0  0  0  2  0  0  0  0  0  0
  -27.5740  -13.2630   19.9590 C   0  0  0  0  0  3  0  0  0  0  0  0
  -28.6050  -13.1950   21.1060 C   0  0  0  0  0  2  0  0  0  0  0  0
  -29.9050  -13.5970   20.5500 N   0  0  0  0  0  0  0  0  0  0  0  0
  -31.6400  -15.0040   20.2190 O   0  0  0  0  0  0  0  0  0  0  0  0
  -29.6660  -15.9510   20.8830 N   0  0  0  0  0  0  0  0  0  0  0  0
  -28.9040  -15.6590   21.4790 H   0  0  0  0  0  0  0  0  0  0  0  0
  -25.1570  -13.8210   20.5990 C   0  0  0  0  0  0  0  0  0  0  0  0
  -24.0960  -13.0290   20.9380 C   0  0  0  0  0  0  0  0  0  0  0  0
  -24.5860  -11.6870   20.9320 C   0  0  0  0  0  0  0  0  0  0  0  0
  -26.2230  -12.9580   20.4070 N   0  0  0  0  0  0  0  0  0  0  0  0
  -25.8860  -11.6710   20.6660 N   0  0  0  0  0  0  0  0  0  0  0  0
  -23.8830  -10.4120   21.1050 C   0  0  0  0  0  0  0  0  0  0  0  0
  -24.3100   -9.4580   22.0550 C   0  0  0  0  0  3  0  0  0  0  0  0
  -23.6070   -8.2450   22.2170 C   0  0  0  0  0  3  0  0  0  0  0  0
  -22.4630   -7.9790   21.4290 C   0  0  0  0  0  0  0  0  0  0  0  0
  -22.0590   -8.9200   20.4660 C   0  0  0  0  0  3  0  0  0  0  0  0
  -22.7620  -10.1220   20.3020 C   0  0  0  0  0  3  0  0  0  0  0  0
  -21.7340   -6.8170   21.4980 O   0  0  0  0  0  0  0  0  0  0  0  0
  -21.6650   -6.0820   22.6540 C   0  0  0  0  0  0  0  0  0  0  0  0
  -21.1680   -6.6290   23.8580 C   0  0  0  0  0  3  0  0  0  0  0  0
  -21.0500   -5.8170   25.0040 C   0  0  0  0  0  3  0  0  0  0  0  0
  -21.4210   -4.4600   24.9470 C   0  0  0  0  0  0  0  0  0  0  0  0
  -21.9140   -3.9140   23.7490 C   0  0  0  0  0  3  0  0  0  0  0  0
  -22.0330   -4.7230   22.6050 C   0  0  0  0  0  0  0  0  0  0  0  0
  -22.4880   -4.1870   21.4460 F   0  0  0  0  0  0  0  0  0  0  0  0
  -21.3010   -3.6780   26.0440 F   0  0  0  0  0  0  0  0  0  0  0  0
  -22.6800  -13.4780   21.1650 C   0  0  0  0  0  0  0  0  0  0  0  0
  -21.9400  -12.7680   22.0080 N   0  0  0  0  0  0  0  0  0  0  0  0
  -22.2390  -14.4940   20.6270 O   0  0  0  0  0  0  0  0  0  0  0  0
  -22.3120  -11.9490   22.4670 H   0  0  0  0  0  0  0  0  0  0  0  0
  -20.9870  -13.0460   22.2010 H   0  0  0  0  0  0  0  0  0  0  0  0
  -25.3000  -15.1950   20.4180 N   0  0  0  0  0  0  0  0  0  0  0  0
  -24.5160  -15.8330   20.4920 H   0  0  0  0  0  0  0  0  0  0  0  0
  -26.1490  -15.6470   20.1040 H   0  0  0  0  0  0  0  0  0  0  0  0
  -27.2140  -23.7130   21.2680 O   0  0  0  0  0  0  0  0  0  0  0  0
  -27.0790  -22.8500   21.6420 H   0  0  0  0  0  0  0  0  0  0  0  0
  -30.3110  -21.5530   18.5860 C   0  0  0  0  0  3  0  0  0  0  0  0
  -31.4020  -20.4970   18.2640 C   0  0  0  0  0  3  0  0  0  0  0  0
  -31.2010  -20.4500   15.7220 C   0  0  0  0  0  1  0  0  0  0  0  0
  -33.2910  -19.6740   16.8290 C   0  0  0  0  0  1  0  0  0  0  0  0
  -32.7350  -22.1200   16.8050 C   0  0  0  0  0  1  0  0  0  0  0  0
  -32.1460  -20.7010   16.9160 C   0  0  2  0  0  0  0  0  0  0  0  0
  -28.3510  -25.0900   19.6160 C   0  0  0  0  0  2  0  0  0  0  0  0
  -28.3170  -26.4500   20.2820 O   0  0  0  0  0  0  0  0  0  0  0  0
  -24.5940  -31.9620   23.2690 C   0  0  0  0  0  0  0  0  0  0  0  0
  -27.2040  -27.3310   20.2270 C   0  0  0  0  0  0  0  0  0  0  0  0
  -23.3960  -30.5560   21.6320 C   0  0  0  0  0  3  0  0  0  0  0  0
  -24.8530  -28.9990   20.2100 C   0  0  0  0  0  0  0  0  0  0  0  0
  -25.9440  -30.8520   21.4660 C   0  0  0  0  0  2  0  0  0  0  0  0
  -26.0240  -29.4690   20.8160 C   0  0  0  0  0  0  0  0  0  0  0  0
  -27.1980  -28.6440   20.8200 C   0  0  0  0  0  3  0  0  0  0  0  0
  -25.9960  -26.9260   19.6190 C   0  0  0  0  0  3  0  0  0  0  0  0
  -24.8470  -27.7350   19.6040 C   0  0  0  0  0  3  0  0  0  0  0  0
  -23.6200  -29.8820   20.2540 C   0  0  0  0  0  2  0  0  0  0  0  0
  -24.6630  -31.1410   22.1770 N   0  0  0  0  0  0  0  0  0  0  0  0
  -23.5070  -32.2430   23.7970 O   0  0  0  0  0  0  0  0  0  0  0  0
  -22.7280  -29.5430   22.5930 C   0  0  0  0  0  0  0  0  0  0  0  0
  -21.4030  -29.3530   22.4550 N   0  0  0  0  0  0  0  0  0  0  0  0
  -23.4010  -28.9290   23.4260 O   0  0  0  0  0  0  0  0  0  0  0  0
  -20.9120  -29.8970   21.7590 H   0  0  0  0  0  0  0  0  0  0  0  0
  -18.0360  -28.1230   22.9370 C   0  0  0  0  0  0  0  0  0  0  0  0
  -20.5880  -28.4180   23.2320 C   0  0  0  0  0  3  0  0  0  0  0  0
  -20.7150  -26.9800   22.6770 C   0  0  0  0  0  2  0  0  0  0  0  0
  -19.6280  -26.6320   21.6550 C   0  0  0  0  0  2  0  0  0  0  0  0
  -18.2370  -26.7680   22.2800 C   0  0  0  0  0  2  0  0  0  0  0  0
  -19.1400  -28.9050   23.3700 C   0  0  0  0  0  0  0  0  0  0  0  0
  -18.8980  -30.1720   23.9440 C   0  0  0  0  0  3  0  0  0  0  0  0
  -17.5860  -30.6580   24.0900 C   0  0  0  0  0  3  0  0  0  0  0  0
  -16.4960  -29.8740   23.6730 C   0  0  0  0  0  3  0  0  0  0  0  0
  -16.7210  -28.6100   23.1010 C   0  0  0  0  0  3  0  0  0  0  0  0
  -25.8730  -32.6020   23.8900 C   0  0  0  0  0  3  0  0  0  0  0  0
  -25.5610  -34.0050   24.2010 N   0  0  0  0  0  0  0  0  0  0  0  0
  -25.9020  -35.0500   23.4360 C   0  0  0  0  0  0  0  0  0  0  0  0
  -26.5800  -34.9370   22.4100 O   0  0  0  0  0  0  0  0  0  0  0  0
  -24.9690  -34.1730   25.0000 H   0  0  0  0  0  0  0  0  0  0  0  0
  -24.1890  -36.8500   23.0440 C   0  0  0  0  0  1  0  0  0  0  0  0
  -25.4150  -36.4440   23.8770 C   0  0  0  0  0  3  0  0  0  0  0  0
  -27.5370  -37.3280   24.7370 C   0  0  0  0  0  1  0  0  0  0  0  0
  -26.4530  -37.4910   23.7740 N   0  0  0  0  0  0  0  0  0  0  0  0
  -26.0480  -38.4130   23.9060 H   0  0  0  0  0  0  0  0  0  0  0  0
  -26.3810  -31.8470   25.1780 C   0  0  1  0  0  0  0  0  0  0  0  0
  -25.2790  -31.6220   26.2400 C   0  0  0  0  0  1  0  0  0  0  0  0
  -26.9710  -30.4630   24.8170 C   0  0  0  0  0  1  0  0  0  0  0  0
  -27.5250  -32.6510   25.8380 C   0  0  0  0  0  1  0  0  0  0  0  0
  1  2  1  0
  3  4  1  0
  3  5  1  0
  4 53  1  6
  4  1  1  0
  5 59  1  6
  5  2  1  0
  5 51  1  0
  6 10  2  0
  6  7  1  0
  7 11  2  0
  9  4  1  0
  9  8  2  0
 10  9  1  0
 11  8  1  0
 11 21  1  0
 12 10  1  0
 13 21  1  0
 14 19  1  0
 15 16  1  0
 15 14  1  0
 17 16  1  0
 17 26  1  0
 17 18  1  0
 19 13  1  0
 19 18  1  0
 20 13  2  0
 21 22  1  0
 23 24  2  0
 24 43  1  0
 25 24  1  0
 25 28  1  0
 26 23  1  0
 26 27  1  0
 27 25  2  0
 28 29  1  0
 29 30  2  0
 31 34  1  0
 31 30  1  0
 32 31  2  0
 33 32  1  0
 33 28  2  0
 34 35  1  0
 35 36  1  0
 36 37  2  0
 38 37  1  0
 38 42  1  0
 39 38  2  0
 40 35  2  0
 40 39  1  0
 41 40  1  0
 43 44  1  0
 44 47  1  0
 44 46  1  0
 45 43  2  0
 48 49  1  0
 48 23  1  0
 50 48  1  0
 51 52  1  0
 54 53  2  0
 58 55  1  6
 56 58  1  0
 57 58  1  0
 58 54  1  0
 59 60  1  0
 61 72  2  0
 62 60  1  0
 62 67  1  0
 63 71  1  0
 63 73  1  0
 64 70  1  0
 64 66  1  0
 65 71  1  0
 66 67  2  0
 66 65  1  0
 68 62  2  0
 69 68  1  0
 69 64  2  0
 70 63  1  0
 71 61  1  0
 73 75  2  0
 74 73  1  0
 76 74  1  0
 77 86  2  0
 77 82  1  0
 78 74  1  0
 78 82  1  0
 79 78  1  0
 80 81  1  0
 80 79  1  0
 81 77  1  0
 82 83  2  0
 83 84  1  0
 85 84  2  0
 86 85  1  0
 87 61  1  0
 87 88  1  0
 87 97  1  0
 88 91  1  0
 89 93  1  0
 89 88  1  0
 90 89  2  0
 93 92  1  0
 95 93  1  0
 95 96  1  0
 95 94  1  0
 97100  1  1
 97 98  1  0
 99 97  1  0
M  ISO  4  13 100  21 100  59 101  60 101
M  END
>  <TORSDO>  (51) 
F 22

>  <SCORE>  (51) 
-13.826

>  <name>  (51) 
50

>  <ligand_id>  (51) 
50

>  <original_smiles>  (51) 
[H]OC1(C([H])([H])Oc2c([H])c([H])c3c(c2[H])C([H])([H])N(C(=O)C([H])(N([H])C(=O)C([H])(N([H])C([H])([H])[H])C([H])([H])[H])C(C([H])([H])[H])(C([H])([H])[H])C([H])([H])[H])C([H])(C(=O)N([H])C2([H])c4c([H])c([H])c([H])c([H])c4C([H])([H])C([H])([H])C2([H])[H])C3([H])[H])C([H])([H])C([H])([H])C(c2c([H])c(N([H])C(=O)N3C([H])([H])C([H])([H])C([H])([H])C([H])(n4nc(-c5c([H])c([H])c(Oc6c([H])c([H])c(F)c([H])c6F)c([H])c5[H])c(C(=O)N([H])[H])c4N([H])[H])C3([H])[H])c([H])c([H])c2C([H])([H])[H])(C([H])([H])C([H])([H])C(C([H])([H])[H])(C([H])([H])[H])C([H])([H])[H])C1([H])[H]

>  <smiles>  (51) 
[H]OC1(C([H])([H])Oc2c([H])c([H])c3c(c2[H])C([H])([H])N(C(=O)C([H])(N([H])C(=O)C([H])(N([H])C([H])([H])[H])C([H])([H])[H])C(C([H])([H])[H])(C([H])([H])[H])C([H])([H])[H])C([H])(C(=O)N([H])C2([H])c4c([H])c([H])c([H])c([H])c4C([H])([H])C([H])([H])C2([H])[H])C3([H])[H])C([H])([H])C([H])([H])C(c2c([H])c(N([H])C(=O)N3C([H])([H])C([H])([H])C([H])([H])C([H])(n4nc(-c5c([H])c([H])c(Oc6c([H])c([H])c(F)c([H])c6F)c([H])c5[H])c(C(=O)N([H])[H])c4N([H])[H])C3([H])[H])c([H])c([H])c2C([H])([H])[H])(C([H])([H])C([H])([H])C(C([H])([H])[H])(C([H])([H])[H])C([H])([H])[H])C1([H])[H]

$$$$
51:0:0
     RDKit          3D

 92101  0  0  1  0  0  0  0  0999 V2000
  -29.7480  -21.9650   19.0120 C   0  0  0  0  0  2  0  0  0  0  0  0
  -29.8660  -21.1030   20.2720 C   0  0  0  0  0  3  0  0  0  0  0  0
  -28.8600  -22.3400   20.1420 C   0  0  1  0  0  0  0  0  0  0  0  0
  -29.6880  -18.4150   20.8180 C   0  0  0  0  0  3  0  0  0  0  0  0
  -30.1860  -17.3010   18.8170 C   0  0  0  0  0  3  0  0  0  0  0  0
  -29.9480  -17.1290   20.1530 C   0  0  0  0  0  0  0  0  0  0  0  0
  -29.7970  -19.5480   19.9910 C   0  0  0  0  0  0  0  0  0  0  0  0
  -30.1370  -18.9850   18.3590 S   0  0  0  0  0  0  0  0  0  0  0  0
  -30.6300  -14.6670   20.3880 C   0  0  0  0  0  0  0  0  0  0  0  0
  -30.3950  -12.4100   19.3740 C   0  0  0  0  0  2  0  0  0  0  0  0
  -29.4640  -12.5370   18.1470 C   0  0  0  0  0  2  0  0  0  0  0  0
  -27.9900  -12.3840   18.5690 C   0  0  0  0  0  2  0  0  0  0  0  0
  -27.6290  -13.2520   19.8050 C   0  0  0  0  0  3  0  0  0  0  0  0
  -28.6850  -13.1210   20.9270 C   0  0  0  0  0  2  0  0  0  0  0  0
  -29.9960  -13.4500   20.3490 N   0  0  0  0  0  0  0  0  0  0  0  0
  -31.7910  -14.7760   19.9800 O   0  0  0  0  0  0  0  0  0  0  0  0
  -29.9030  -15.7820   20.7480 N   0  0  0  0  0  0  0  0  0  0  0  0
  -29.0970  -15.5950   21.3270 H   0  0  0  0  0  0  0  0  0  0  0  0
  -25.2360  -13.8500   20.5180 C   0  0  0  0  0  0  0  0  0  0  0  0
  -24.1670  -13.0770   20.8900 C   0  0  0  0  0  0  0  0  0  0  0  0
  -24.6290  -11.7260   20.8600 C   0  0  0  0  0  0  0  0  0  0  0  0
  -26.2800  -12.9680   20.2880 N   0  0  0  0  0  0  0  0  0  0  0  0
  -25.9210  -11.6870   20.5530 N   0  0  0  0  0  0  0  0  0  0  0  0
  -23.9000  -10.4640   21.0510 C   0  0  0  0  0  0  0  0  0  0  0  0
  -24.3400   -9.4910   21.9750 C   0  0  0  0  0  3  0  0  0  0  0  0
  -23.6110   -8.2940   22.1540 C   0  0  0  0  0  3  0  0  0  0  0  0
  -22.4290   -8.0630   21.4100 C   0  0  0  0  0  0  0  0  0  0  0  0
  -22.0100   -9.0270   20.4770 C   0  0  0  0  0  3  0  0  0  0  0  0
  -22.7370  -10.2140   20.2950 C   0  0  0  0  0  3  0  0  0  0  0  0
  -21.6680   -6.9210   21.5010 O   0  0  0  0  0  0  0  0  0  0  0  0
  -21.6370   -6.1670   22.6460 C   0  0  0  0  0  0  0  0  0  0  0  0
  -21.2360   -6.7110   23.8870 C   0  0  0  0  0  3  0  0  0  0  0  0
  -21.1520   -5.8820   25.0250 C   0  0  0  0  0  3  0  0  0  0  0  0
  -21.4580   -4.5120   24.9230 C   0  0  0  0  0  0  0  0  0  0  0  0
  -21.8500   -3.9680   23.6870 C   0  0  0  0  0  3  0  0  0  0  0  0
  -21.9380   -4.7930   22.5520 C   0  0  0  0  0  0  0  0  0  0  0  0
  -22.2970   -4.2580   21.3590 F   0  0  0  0  0  0  0  0  0  0  0  0
  -21.3700   -3.7160   26.0150 F   0  0  0  0  0  0  0  0  0  0  0  0
  -22.7700  -13.5550   21.1610 C   0  0  0  0  0  0  0  0  0  0  0  0
  -22.0390  -12.8620   22.0260 N   0  0  0  0  0  0  0  0  0  0  0  0
  -22.3340  -14.5820   20.6400 O   0  0  0  0  0  0  0  0  0  0  0  0
  -22.4020  -12.0330   22.4730 H   0  0  0  0  0  0  0  0  0  0  0  0
  -21.1010  -13.1660   22.2480 H   0  0  0  0  0  0  0  0  0  0  0  0
  -25.4040  -15.2200   20.3400 N   0  0  0  0  0  0  0  0  0  0  0  0
  -24.6400  -15.8780   20.4480 H   0  0  0  0  0  0  0  0  0  0  0  0
  -26.2600  -15.6540   20.0150 H   0  0  0  0  0  0  0  0  0  0  0  0
  -28.6680  -23.8530   22.2060 C   0  0  0  0  0  1  0  0  0  0  0  0
  -28.9710  -23.8320   20.7010 C   0  0  0  0  0  3  0  0  0  0  0  0
  -28.1150  -24.9690   19.9630 C   0  0  0  0  0  2  0  0  0  0  0  0
  -28.3140  -26.4200   20.2590 O   0  0  0  0  0  0  0  0  0  0  0  0
  -24.6260  -31.8660   23.2570 C   0  0  0  0  0  0  0  0  0  0  0  0
  -27.2120  -27.2970   20.1790 C   0  0  0  0  0  0  0  0  0  0  0  0
  -23.4150  -30.4760   21.6170 C   0  0  0  0  0  3  0  0  0  0  0  0
  -24.8570  -28.9320   20.1770 C   0  0  0  0  0  0  0  0  0  0  0  0
  -25.9580  -30.7830   21.4320 C   0  0  0  0  0  2  0  0  0  0  0  0
  -26.0300  -29.4080   20.7750 C   0  0  0  0  0  0  0  0  0  0  0  0
  -27.2110  -28.6010   20.7670 C   0  0  0  0  0  3  0  0  0  0  0  0
  -26.0190  -26.8940   19.5320 C   0  0  0  0  0  3  0  0  0  0  0  0
  -24.8540  -27.6810   19.5460 C   0  0  0  0  0  3  0  0  0  0  0  0
  -23.6240  -29.8090   20.2330 C   0  0  0  0  0  2  0  0  0  0  0  0
  -24.6850  -31.0580   22.1570 N   0  0  0  0  0  0  0  0  0  0  0  0
  -23.5450  -32.1450   23.7950 O   0  0  0  0  0  0  0  0  0  0  0  0
  -22.7540  -29.4560   22.5740 C   0  0  0  0  0  0  0  0  0  0  0  0
  -21.4270  -29.2810   22.4490 N   0  0  0  0  0  0  0  0  0  0  0  0
  -23.4330  -28.8270   23.3880 O   0  0  0  0  0  0  0  0  0  0  0  0
  -20.9390  -29.8420   21.7640 H   0  0  0  0  0  0  0  0  0  0  0  0
  -18.0480  -28.0870   22.9480 C   0  0  0  0  0  0  0  0  0  0  0  0
  -20.6060  -28.3450   23.2210 C   0  0  0  0  0  3  0  0  0  0  0  0
  -20.7070  -26.9120   22.6470 C   0  0  0  0  0  2  0  0  0  0  0  0
  -19.6060  -26.5890   21.6320 C   0  0  0  0  0  2  0  0  0  0  0  0
  -18.2250  -26.7360   22.2750 C   0  0  0  0  0  2  0  0  0  0  0  0
  -19.1670  -28.8480   23.3780 C   0  0  0  0  0  0  0  0  0  0  0  0
  -18.9490  -30.1120   23.9690 C   0  0  0  0  0  3  0  0  0  0  0  0
  -17.6440  -30.6130   24.1350 C   0  0  0  0  0  3  0  0  0  0  0  0
  -16.5400  -29.8490   23.7220 C   0  0  0  0  0  3  0  0  0  0  0  0
  -16.7420  -28.5890   23.1330 C   0  0  0  0  0  3  0  0  0  0  0  0
  -25.9120  -32.4940   23.8770 C   0  0  0  0  0  3  0  0  0  0  0  0
  -26.4240  -31.7250   25.1570 C   0  0  1  0  0  0  0  0  0  0  0  0
  -25.3290  -31.4990   26.2250 C   0  0  0  0  0  1  0  0  0  0  0  0
  -26.9990  -30.3420   24.7730 C   0  0  0  0  0  1  0  0  0  0  0  0
  -27.5800  -32.5160   25.8150 C   0  0  0  0  0  1  0  0  0  0  0  0
  -25.6090  -33.8940   24.2030 N   0  0  0  0  0  0  0  0  0  0  0  0
  -25.9410  -34.9430   23.4390 C   0  0  0  0  0  0  0  0  0  0  0  0
  -26.6010  -34.8340   22.4020 O   0  0  0  0  0  0  0  0  0  0  0  0
  -25.0210  -34.0530   25.0080 H   0  0  0  0  0  0  0  0  0  0  0  0
  -24.2120  -36.7390   23.0930 C   0  0  0  0  0  1  0  0  0  0  0  0
  -25.4600  -36.3360   23.8950 C   0  0  0  0  0  3  0  0  0  0  0  0
  -27.6050  -37.2170   24.7020 C   0  0  0  0  0  1  0  0  0  0  0  0
  -26.4940  -37.3860   23.7680 N   0  0  0  0  0  0  0  0  0  0  0  0
  -26.0920  -38.3070   23.9160 H   0  0  0  0  0  0  0  0  0  0  0  0
  -27.5300  -21.8650   20.0260 O   0  0  0  0  0  0  0  0  0  0  0  0
  -27.1890  -22.1280   19.1770 H   0  0  0  0  0  0  0  0  0  0  0  0
  1  3  1  0
  1  2  1  0
  2  7  1  0
  3 91  1  6
  3  2  1  0
  3 48  1  0
  5  6  2  0
  6 17  1  0
  6  4  1  0
  7  4  2  0
  8  5  1  0
  8  7  1  0
  9 17  1  0
 10 15  1  0
 11 12  1  0
 11 10  1  0
 13 12  1  0
 13 22  1  0
 13 14  1  0
 15  9  1  0
 15 14  1  0
 16  9  2  0
 17 18  1  0
 19 20  2  0
 20 39  1  0
 21 20  1  0
 21 24  1  0
 22 19  1  0
 22 23  1  0
 23 21  2  0
 24 25  1  0
 25 26  2  0
 27 30  1  0
 27 26  1  0
 28 27  2  0
 29 28  1  0
 29 24  2  0
 30 31  1  0
 31 32  1  0
 32 33  2  0
 34 33  1  0
 34 38  1  0
 35 34  2  0
 36 31  2  0
 36 35  1  0
 37 36  1  0
 39 40  1  0
 40 43  1  0
 40 42  1  0
 41 39  2  0
 44 45  1  0
 44 19  1  0
 46 44  1  0
 48 47  1  0
 49 50  1  0
 49 48  1  0
 51 62  2  0
 52 50  1  0
 52 57  1  0
 53 61  1  0
 53 63  1  0
 54 60  1  0
 54 56  1  0
 55 61  1  0
 56 55  1  0
 57 56  2  0
 58 59  1  0
 58 52  2  0
 59 54  2  0
 60 53  1  0
 61 51  1  0
 63 65  2  0
 64 63  1  0
 66 64  1  0
 67 76  2  0
 67 72  1  0
 68 64  1  0
 68 72  1  0
 69 68  1  0
 70 71  1  0
 70 69  1  0
 71 67  1  0
 72 73  2  0
 73 74  1  0
 75 74  2  0
 76 75  1  0
 77 51  1  0
 77 82  1  0
 77 78  1  0
 78 81  1  1
 78 79  1  0
 80 78  1  0
 82 85  1  0
 83 87  1  0
 83 82  1  0
 84 83  2  0
 87 86  1  0
 89 87  1  0
 89 90  1  0
 89 88  1  0
 92 91  1  0
M  ISO  4   9 100  17 100  49 101  50 101
M  END
>  <TORSDO>  (52) 
F 20

>  <SCORE>  (52) 
-14.043

>  <name>  (52) 
51

>  <ligand_id>  (52) 
51

>  <original_smiles>  (52) 
[H]OC1(C([H])(C([H])([H])[H])C([H])([H])Oc2c([H])c([H])c3c(c2[H])C([H])([H])N(C(=O)C([H])(N([H])C(=O)C([H])(N([H])C([H])([H])[H])C([H])([H])[H])C(C([H])([H])[H])(C([H])([H])[H])C([H])([H])[H])C([H])(C(=O)N([H])C2([H])c4c([H])c([H])c([H])c([H])c4C([H])([H])C([H])([H])C2([H])[H])C3([H])[H])C([H])([H])C1([H])c1sc([H])c(N([H])C(=O)N2C([H])([H])C([H])([H])C([H])([H])C([H])(n3nc(-c4c([H])c([H])c(Oc5c([H])c([H])c(F)c([H])c5F)c([H])c4[H])c(C(=O)N([H])[H])c3N([H])[H])C2([H])[H])c1[H]

>  <smiles>  (52) 
[H]OC1(C([H])(C([H])([H])[H])C([H])([H])Oc2c([H])c([H])c3c(c2[H])C([H])([H])N(C(=O)C([H])(N([H])C(=O)C([H])(N([H])C([H])([H])[H])C([H])([H])[H])C(C([H])([H])[H])(C([H])([H])[H])C([H])([H])[H])C([H])(C(=O)N([H])C2([H])c4c([H])c([H])c([H])c([H])c4C([H])([H])C([H])([H])C2([H])[H])C3([H])[H])C([H])([H])C1([H])c1sc([H])c(N([H])C(=O)N2C([H])([H])C([H])([H])C([H])([H])C([H])(n3nc(-c4c([H])c([H])c(Oc5c([H])c([H])c(F)c([H])c5F)c([H])c4[H])c(C(=O)N([H])[H])c3N([H])[H])C2([H])[H])c1[H]

$$$$
52:0:0
     RDKit          3D

 93102  0  0  1  0  0  0  0  0999 V2000
  -27.9320  -21.3930   21.1230 C   0  0  0  0  0  0  0  0  0  0  0  0
  -28.0280  -22.4640   22.2050 C   0  0  0  0  0  2  0  0  0  0  0  0
  -29.4910  -22.8910   22.0940 C   0  0  0  0  0  2  0  0  0  0  0  0
  -29.7680  -22.6440   20.6050 C   0  0  0  0  0  3  0  0  0  0  0  0
  -29.0680  -21.3000   20.3970 N   0  0  0  0  0  0  0  0  0  0  0  0
  -26.8960  -20.7490   20.9470 O   0  0  0  0  0  0  0  0  0  0  0  0
  -30.8840  -19.6620   19.6640 C   0  0  0  0  0  3  0  0  0  0  0  0
  -31.1930  -18.2330   19.6380 C   0  0  0  0  0  3  0  0  0  0  0  0
  -29.6530  -20.0220   20.1890 C   0  0  0  0  0  0  0  0  0  0  0  0
  -30.2260  -17.3820   20.1410 C   0  0  0  0  0  0  0  0  0  0  0  0
  -28.8970  -18.4510   20.6520 S   0  0  0  0  0  0  0  0  0  0  0  0
  -30.9460  -14.9160   19.9060 C   0  0  0  0  0  0  0  0  0  0  0  0
  -30.7250  -12.6250   18.9240 C   0  0  0  0  0  2  0  0  0  0  0  0
  -29.7160  -12.6910   17.7550 C   0  0  0  0  0  2  0  0  0  0  0  0
  -28.2710  -12.5250   18.2670 C   0  0  0  0  0  2  0  0  0  0  0  0
  -27.9690  -13.4230   19.4960 C   0  0  0  0  0  3  0  0  0  0  0  0
  -29.0860  -13.3190   20.5590 C   0  0  0  0  0  2  0  0  0  0  0  0
  -30.3520  -13.6740   19.9000 N   0  0  0  0  0  0  0  0  0  0  0  0
  -32.0890  -15.0590   19.4560 O   0  0  0  0  0  0  0  0  0  0  0  0
  -30.1450  -15.9850   20.2760 N   0  0  0  0  0  0  0  0  0  0  0  0
  -29.2640  -15.6690   20.6520 H   0  0  0  0  0  0  0  0  0  0  0  0
  -25.6490  -14.0460   20.4010 C   0  0  0  0  0  0  0  0  0  0  0  0
  -24.5900  -13.2840   20.8160 C   0  0  0  0  0  0  0  0  0  0  0  0
  -25.0140  -11.9230   20.7010 C   0  0  0  0  0  0  0  0  0  0  0  0
  -26.6510  -13.1500   20.0620 N   0  0  0  0  0  0  0  0  0  0  0  0
  -26.2790  -11.8660   20.3030 N   0  0  0  0  0  0  0  0  0  0  0  0
  -24.2690  -10.6730   20.8940 C   0  0  0  0  0  0  0  0  0  0  0  0
  -24.6860   -9.7010   21.8290 C   0  0  0  0  0  3  0  0  0  0  0  0
  -23.9410   -8.5150   22.0090 C   0  0  0  0  0  3  0  0  0  0  0  0
  -22.7660   -8.2930   21.2540 C   0  0  0  0  0  0  0  0  0  0  0  0
  -22.3680   -9.2540   20.3080 C   0  0  0  0  0  3  0  0  0  0  0  0
  -23.1120  -10.4310   20.1260 C   0  0  0  0  0  3  0  0  0  0  0  0
  -21.9950   -7.1590   21.3430 O   0  0  0  0  0  0  0  0  0  0  0  0
  -21.8550   -6.4740   22.5220 C   0  0  0  0  0  0  0  0  0  0  0  0
  -21.3260   -7.0840   23.6810 C   0  0  0  0  0  3  0  0  0  0  0  0
  -21.1350   -6.3250   24.8520 C   0  0  0  0  0  3  0  0  0  0  0  0
  -21.4630   -4.9560   24.8660 C   0  0  0  0  0  0  0  0  0  0  0  0
  -21.9860   -4.3460   23.7120 C   0  0  0  0  0  3  0  0  0  0  0  0
  -22.1770   -5.1040   22.5430 C   0  0  0  0  0  0  0  0  0  0  0  0
  -22.6610   -4.5050   21.4270 F   0  0  0  0  0  0  0  0  0  0  0  0
  -21.2730   -4.2240   25.9880 F   0  0  0  0  0  0  0  0  0  0  0  0
  -23.2280  -13.7830   21.2030 C   0  0  0  0  0  0  0  0  0  0  0  0
  -22.5490  -13.0780   22.1020 N   0  0  0  0  0  0  0  0  0  0  0  0
  -22.7780  -14.8320   20.7430 O   0  0  0  0  0  0  0  0  0  0  0  0
  -22.9290  -12.2280   22.4920 H   0  0  0  0  0  0  0  0  0  0  0  0
  -21.6380  -13.3930   22.4030 H   0  0  0  0  0  0  0  0  0  0  0  0
  -25.8340  -15.4170   20.2600 N   0  0  0  0  0  0  0  0  0  0  0  0
  -25.0790  -16.0750   20.4250 H   0  0  0  0  0  0  0  0  0  0  0  0
  -26.6500  -15.8490   19.8460 H   0  0  0  0  0  0  0  0  0  0  0  0
  -29.3520  -23.9490   19.6890 C   0  0  0  0  0  0  0  0  0  0  0  0
  -29.7530  -24.0170   18.5260 O   0  0  0  0  0  0  0  0  0  0  0  0
  -28.4410  -25.1660   20.2200 C   0  0  0  0  0  2  0  0  0  0  0  0
  -28.5880  -26.5320   19.6080 O   0  0  0  0  0  0  0  0  0  0  0  0
  -24.7370  -31.6700   23.0130 C   0  0  0  0  0  0  0  0  0  0  0  0
  -27.4580  -27.3770   19.6590 C   0  0  0  0  0  0  0  0  0  0  0  0
  -23.5570  -30.3290   21.3090 C   0  0  0  0  0  3  0  0  0  0  0  0
  -25.0390  -28.9160   19.7720 C   0  0  0  0  0  0  0  0  0  0  0  0
  -26.0790  -30.7490   21.1040 C   0  0  0  0  0  2  0  0  0  0  0  0
  -26.2020  -29.4100   20.3780 C   0  0  0  0  0  0  0  0  0  0  0  0
  -27.4170  -28.6550   20.3060 C   0  0  0  0  0  3  0  0  0  0  0  0
  -26.2730  -26.9490   19.0250 C   0  0  0  0  0  3  0  0  0  0  0  0
  -25.0780  -27.6940   19.0820 C   0  0  0  0  0  3  0  0  0  0  0  0
  -23.7730  -29.7430   19.8880 C   0  0  0  0  0  2  0  0  0  0  0  0
  -24.8100  -30.9310   21.8670 N   0  0  0  0  0  0  0  0  0  0  0  0
  -23.6520  -31.8740   23.5810 O   0  0  0  0  0  0  0  0  0  0  0  0
  -22.9450  -29.2350   22.2160 C   0  0  0  0  0  0  0  0  0  0  0  0
  -21.6190  -29.0350   22.1160 N   0  0  0  0  0  0  0  0  0  0  0  0
  -23.6610  -28.5700   22.9700 O   0  0  0  0  0  0  0  0  0  0  0  0
  -21.0950  -29.6270   21.4880 H   0  0  0  0  0  0  0  0  0  0  0  0
  -18.2790  -27.7520   22.6610 C   0  0  0  0  0  0  0  0  0  0  0  0
  -20.8450  -28.0260   22.8450 C   0  0  0  0  0  3  0  0  0  0  0  0
  -20.9370  -26.6460   22.1530 C   0  0  0  0  0  2  0  0  0  0  0  0
  -19.7960  -26.3900   21.1630 C   0  0  0  0  0  2  0  0  0  0  0  0
  -18.4420  -26.4620   21.8740 C   0  0  0  0  0  2  0  0  0  0  0  0
  -19.4060  -28.4940   23.1040 C   0  0  0  0  0  0  0  0  0  0  0  0
  -19.1960  -29.7030   23.8020 C   0  0  0  0  0  3  0  0  0  0  0  0
  -17.8940  -30.1690   24.0630 C   0  0  0  0  0  3  0  0  0  0  0  0
  -16.7820  -29.4220   23.6380 C   0  0  0  0  0  3  0  0  0  0  0  0
  -16.9760  -28.2150   22.9430 C   0  0  0  0  0  3  0  0  0  0  0  0
  -26.0050  -32.3120   23.6550 C   0  0  0  0  0  3  0  0  0  0  0  0
  -26.5530  -31.4990   24.8920 C   0  0  1  0  0  0  0  0  0  0  0  0
  -25.4770  -31.1910   25.9610 C   0  0  0  0  0  1  0  0  0  0  0  0
  -27.1620  -30.1540   24.4300 C   0  0  0  0  0  1  0  0  0  0  0  0
  -27.6920  -32.2890   25.5760 C   0  0  0  0  0  1  0  0  0  0  0  0
  -25.6590  -33.6830   24.0550 N   0  0  0  0  0  0  0  0  0  0  0  0
  -25.9540  -34.7800   23.3440 C   0  0  0  0  0  0  0  0  0  0  0  0
  -26.6130  -34.7440   22.3000 O   0  0  0  0  0  0  0  0  0  0  0  0
  -25.0720  -33.7840   24.8700 H   0  0  0  0  0  0  0  0  0  0  0  0
  -24.1650  -36.5330   23.0970 C   0  0  0  0  0  1  0  0  0  0  0  0
  -25.4320  -36.1310   23.8710 C   0  0  0  0  0  3  0  0  0  0  0  0
  -27.5570  -37.0400   24.7030 C   0  0  0  0  0  1  0  0  0  0  0  0
  -26.4270  -37.2240   23.7960 N   0  0  0  0  0  0  0  0  0  0  0  0
  -25.9940  -38.1170   24.0120 H   0  0  0  0  0  0  0  0  0  0  0  0
  1  2  1  0
  3  2  1  0
  4 50  1  0
  4  3  1  0
  5  4  1  0
  5  1  1  0
  6  1  2  0
  7  9  2  0
  8  7  1  0
  8 10  2  0
  9  5  1  0
  9 11  1  0
 10 20  1  0
 10 11  1  0
 12 20  1  0
 13 18  1  0
 14 15  1  0
 14 13  1  0
 16 15  1  0
 16 25  1  0
 16 17  1  0
 18 12  1  0
 18 17  1  0
 19 12  2  0
 20 21  1  0
 22 23  2  0
 23 42  1  0
 24 23  1  0
 24 27  1  0
 25 26  1  0
 25 22  1  0
 26 24  2  0
 27 28  1  0
 28 29  2  0
 30 33  1  0
 30 29  1  0
 31 30  2  0
 32 31  1  0
 32 27  2  0
 33 34  1  0
 34 39  2  0
 34 35  1  0
 35 36  2  0
 36 37  1  0
 37 41  1  0
 38 37  2  0
 39 38  1  0
 40 39  1  0
 42 43  1  0
 43 46  1  0
 43 45  1  0
 44 42  2  0
 47 22  1  0
 47 48  1  0
 49 47  1  0
 50 52  1  0
 51 50  2  0
 53 55  1  0
 53 52  1  0
 54 65  2  0
 55 60  1  0
 56 64  1  0
 56 66  1  0
 57 63  1  0
 57 59  1  0
 58 64  1  0
 59 58  1  0
 60 59  2  0
 61 62  1  0
 61 55  2  0
 62 57  2  0
 63 56  1  0
 64 54  1  0
 66 68  2  0
 67 66  1  0
 69 67  1  0
 70 79  2  0
 70 75  1  0
 71 67  1  0
 71 75  1  0
 72 71  1  0
 73 74  1  0
 73 72  1  0
 74 70  1  0
 75 76  2  0
 76 77  1  0
 78 77  2  0
 79 78  1  0
 80 54  1  0
 80 85  1  0
 80 81  1  0
 81 84  1  1
 81 82  1  0
 83 81  1  0
 85 88  1  0
 86 90  1  0
 86 85  1  0
 87 86  2  0
 90 89  1  0
 92 90  1  0
 92 93  1  0
 92 91  1  0
M  ISO  4  12 100  20 100  52 101  53 101
M  END
>  <TORSDO>  (53) 
F 19

>  <SCORE>  (53) 
-11.908

>  <name>  (53) 
52

>  <ligand_id>  (53) 
52

>  <original_smiles>  (53) 
[H]c1c(N([H])C(=O)N2C([H])([H])C([H])([H])C([H])([H])C([H])(n3nc(-c4c([H])c([H])c(Oc5c([H])c([H])c(F)c([H])c5F)c([H])c4[H])c(C(=O)N([H])[H])c3N([H])[H])C2([H])[H])sc(N2C(=O)C([H])([H])C([H])([H])C2([H])C(=O)C([H])([H])Oc2c([H])c([H])c3c(c2[H])C([H])([H])N(C(=O)C([H])(N([H])C(=O)C([H])(N([H])C([H])([H])[H])C([H])([H])[H])C(C([H])([H])[H])(C([H])([H])[H])C([H])([H])[H])C([H])(C(=O)N([H])C2([H])c4c([H])c([H])c([H])c([H])c4C([H])([H])C([H])([H])C2([H])[H])C3([H])[H])c1[H]

>  <smiles>  (53) 
[H]c1c(N([H])C(=O)N2C([H])([H])C([H])([H])C([H])([H])C([H])(n3nc(-c4c([H])c([H])c(Oc5c([H])c([H])c(F)c([H])c5F)c([H])c4[H])c(C(=O)N([H])[H])c3N([H])[H])C2([H])[H])sc(N2C(=O)C([H])([H])C([H])([H])C2([H])C(=O)C([H])([H])Oc2c([H])c([H])c3c(c2[H])C([H])([H])N(C(=O)C([H])(N([H])C(=O)C([H])(N([H])C([H])([H])[H])C([H])([H])[H])C(C([H])([H])[H])(C([H])([H])[H])C([H])([H])[H])C([H])(C(=O)N([H])C2([H])c4c([H])c([H])c([H])c([H])c4C([H])([H])C([H])([H])C2([H])[H])C3([H])[H])c1[H]

$$$$
53:0:0
     RDKit          3D

 95104  0  0  1  0  0  0  0  0999 V2000
  -29.0250  -24.5360   20.8150 C   0  0  0  0  0  0  0  0  0  0  0  0
  -28.7100  -25.8430   20.9970 C   0  0  0  0  0  2  0  0  0  0  0  0
  -30.0920  -21.1550   21.9370 C   0  0  0  0  0  3  0  0  0  0  0  0
  -29.0200  -23.7830   19.5040 C   0  0  0  0  0  3  0  0  0  0  0  0
  -29.4340  -23.5860   21.9270 C   0  0  0  0  0  3  0  0  0  0  0  0
  -29.2350  -22.2970   19.8600 C   0  0  0  0  0  3  0  0  0  0  0  0
  -29.6160  -22.2550   21.2870 N   0  0  0  0  0  0  0  0  0  0  0  0
  -30.5350  -21.3190   23.1810 N   0  0  0  0  0  0  0  0  0  0  0  0
  -30.8430  -20.5070   23.6940 H   0  0  0  0  0  0  0  0  0  0  0  0
  -30.5580  -22.2140   23.6370 H   0  0  0  0  0  0  0  0  0  0  0  0
  -31.3010  -18.9710   21.5860 C   0  0  0  0  0  3  0  0  0  0  0  0
  -28.9830  -19.1520   20.8860 C   0  0  0  0  0  3  0  0  0  0  0  0
  -31.2890  -17.5800   21.3050 C   0  0  0  0  0  3  0  0  0  0  0  0
  -28.9630  -17.7610   20.6300 C   0  0  0  0  0  3  0  0  0  0  0  0
  -30.1410  -19.7680   21.4080 C   0  0  0  0  0  0  0  0  0  0  0  0
  -30.1040  -16.9510   20.8570 C   0  0  0  0  0  0  0  0  0  0  0  0
  -30.7170  -14.5920   20.1490 C   0  0  0  0  0  0  0  0  0  0  0  0
  -30.4150  -12.4680   18.9140 C   0  0  0  0  0  2  0  0  0  0  0  0
  -29.3970  -12.7040   17.7770 C   0  0  0  0  0  2  0  0  0  0  0  0
  -27.9470  -12.5410   18.2800 C   0  0  0  0  0  2  0  0  0  0  0  0
  -27.6780  -13.3220   19.5940 C   0  0  0  0  0  3  0  0  0  0  0  0
  -28.7930  -13.0370   20.6260 C   0  0  0  0  0  2  0  0  0  0  0  0
  -30.0830  -13.3940   20.0060 N   0  0  0  0  0  0  0  0  0  0  0  0
  -31.8220  -14.8330   19.6510 O   0  0  0  0  0  0  0  0  0  0  0  0
  -29.9500  -15.5340   20.7400 N   0  0  0  0  0  0  0  0  0  0  0  0
  -29.0460  -15.1810   21.0110 H   0  0  0  0  0  0  0  0  0  0  0  0
  -25.3170  -13.9110   20.4360 C   0  0  0  0  0  0  0  0  0  0  0  0
  -24.2720  -13.1290   20.8450 C   0  0  0  0  0  0  0  0  0  0  0  0
  -24.7330  -11.7790   20.7590 C   0  0  0  0  0  0  0  0  0  0  0  0
  -26.3500  -13.0370   20.1320 N   0  0  0  0  0  0  0  0  0  0  0  0
  -26.0050  -11.7490   20.3820 N   0  0  0  0  0  0  0  0  0  0  0  0
  -24.0200  -10.5100   20.9570 C   0  0  0  0  0  0  0  0  0  0  0  0
  -24.4740   -9.5460   21.8840 C   0  0  0  0  0  3  0  0  0  0  0  0
  -23.7610   -8.3410   22.0680 C   0  0  0  0  0  3  0  0  0  0  0  0
  -22.5820   -8.0940   21.3270 C   0  0  0  0  0  0  0  0  0  0  0  0
  -22.1480   -9.0470   20.3900 C   0  0  0  0  0  3  0  0  0  0  0  0
  -22.8610  -10.2430   20.2030 C   0  0  0  0  0  3  0  0  0  0  0  0
  -21.8400   -6.9410   21.4230 O   0  0  0  0  0  0  0  0  0  0  0  0
  -21.7730   -6.2230   22.5900 C   0  0  0  0  0  0  0  0  0  0  0  0
  -21.2910   -6.7930   23.7880 C   0  0  0  0  0  3  0  0  0  0  0  0
  -21.1730   -5.9990   24.9480 C   0  0  0  0  0  3  0  0  0  0  0  0
  -21.5280   -4.6370   24.9080 C   0  0  0  0  0  0  0  0  0  0  0  0
  -22.0020   -4.0670   23.7140 C   0  0  0  0  0  3  0  0  0  0  0  0
  -22.1220   -4.8580   22.5570 C   0  0  0  0  0  0  0  0  0  0  0  0
  -22.5600   -4.2990   21.4040 F   0  0  0  0  0  0  0  0  0  0  0  0
  -21.4070   -3.8730   26.0180 F   0  0  0  0  0  0  0  0  0  0  0  0
  -22.8890  -13.5950   21.2010 C   0  0  0  0  0  0  0  0  0  0  0  0
  -22.2050  -12.8730   22.0820 N   0  0  0  0  0  0  0  0  0  0  0  0
  -22.4250  -14.6340   20.7310 O   0  0  0  0  0  0  0  0  0  0  0  0
  -22.5940  -12.0330   22.4820 H   0  0  0  0  0  0  0  0  0  0  0  0
  -21.2800  -13.1660   22.3600 H   0  0  0  0  0  0  0  0  0  0  0  0
  -25.4690  -15.2850   20.2740 N   0  0  0  0  0  0  0  0  0  0  0  0
  -24.6940  -15.9250   20.4100 H   0  0  0  0  0  0  0  0  0  0  0  0
  -26.2600  -15.7170   19.8150 H   0  0  0  0  0  0  0  0  0  0  0  0
  -28.4430  -26.7310   19.9800 O   0  0  0  0  0  0  0  0  0  0  0  0
  -24.6020  -31.8690   23.1880 C   0  0  0  0  0  0  0  0  0  0  0  0
  -27.2880  -27.4770   20.0660 C   0  0  0  0  0  0  0  0  0  0  0  0
  -23.4110  -30.4770   21.5270 C   0  0  0  0  0  3  0  0  0  0  0  0
  -24.8820  -28.9640   20.0920 C   0  0  0  0  0  0  0  0  0  0  0  0
  -25.9350  -30.8580   21.3370 C   0  0  0  0  0  2  0  0  0  0  0  0
  -26.0360  -29.4910   20.6900 C   0  0  0  0  0  0  0  0  0  0  0  0
  -27.2450  -28.7540   20.6780 C   0  0  0  0  0  3  0  0  0  0  0  0
  -26.1220  -26.9670   19.4670 C   0  0  0  0  0  3  0  0  0  0  0  0
  -24.9200  -27.6990   19.4790 C   0  0  0  0  0  3  0  0  0  0  0  0
  -23.6310  -29.8130   20.1410 C   0  0  0  0  0  2  0  0  0  0  0  0
  -24.6680  -31.0830   22.0750 N   0  0  0  0  0  0  0  0  0  0  0  0
  -23.5180  -32.1260   23.7280 O   0  0  0  0  0  0  0  0  0  0  0  0
  -22.7670  -29.4400   22.4750 C   0  0  0  0  0  0  0  0  0  0  0  0
  -21.4450  -29.2410   22.3360 N   0  0  0  0  0  0  0  0  0  0  0  0
  -23.4530  -28.8160   23.2880 O   0  0  0  0  0  0  0  0  0  0  0  0
  -20.9530  -29.7990   21.6520 H   0  0  0  0  0  0  0  0  0  0  0  0
  -18.0880  -27.9770   22.7750 C   0  0  0  0  0  0  0  0  0  0  0  0
  -20.6360  -28.2860   23.0910 C   0  0  0  0  0  3  0  0  0  0  0  0
  -20.7770  -26.8590   22.5150 C   0  0  0  0  0  2  0  0  0  0  0  0
  -19.6990  -26.5150   21.4820 C   0  0  0  0  0  2  0  0  0  0  0  0
  -18.3050  -26.6320   22.1020 C   0  0  0  0  0  2  0  0  0  0  0  0
  -19.1840  -28.7610   23.2250 C   0  0  0  0  0  0  0  0  0  0  0  0
  -18.9290  -30.0190   23.8120 C   0  0  0  0  0  3  0  0  0  0  0  0
  -17.6110  -30.4940   23.9550 C   0  0  0  0  0  3  0  0  0  0  0  0
  -16.5300  -29.7070   23.5200 C   0  0  0  0  0  3  0  0  0  0  0  0
  -16.7690  -28.4500   22.9370 C   0  0  0  0  0  3  0  0  0  0  0  0
  -25.8830  -32.5030   23.8180 C   0  0  0  0  0  3  0  0  0  0  0  0
  -25.5630  -33.8950   24.1620 N   0  0  0  0  0  0  0  0  0  0  0  0
  -25.8920  -34.9570   23.4120 C   0  0  0  0  0  0  0  0  0  0  0  0
  -26.5660  -34.8670   22.3820 O   0  0  0  0  0  0  0  0  0  0  0  0
  -24.9660  -34.0380   24.9620 H   0  0  0  0  0  0  0  0  0  0  0  0
  -24.1550  -36.7430   23.0660 C   0  0  0  0  0  1  0  0  0  0  0  0
  -25.3930  -36.3380   23.8820 C   0  0  0  0  0  3  0  0  0  0  0  0
  -27.5150  -37.2260   24.7390 C   0  0  0  0  0  1  0  0  0  0  0  0
  -26.4210  -37.3970   23.7870 N   0  0  0  0  0  0  0  0  0  0  0  0
  -26.0080  -38.3120   23.9410 H   0  0  0  0  0  0  0  0  0  0  0  0
  -26.4060  -31.7200   25.0830 C   0  0  1  0  0  0  0  0  0  0  0  0
  -25.3150  -31.4580   26.1470 C   0  0  0  0  0  1  0  0  0  0  0  0
  -27.0010  -30.3520   24.6730 C   0  0  0  0  0  1  0  0  0  0  0  0
  -27.5500  -32.5140   25.7570 C   0  0  0  0  0  1  0  0  0  0  0  0
  1  2  1  0
  1  5  2  0
  3  8  1  0
  4  6  2  0
  4  1  1  0
  6  7  1  0
  7  5  1  0
  7  3  1  0
  8 10  1  0
  8  9  1  0
 12 15  2  0
 13 11  2  0
 14 16  2  0
 14 12  1  0
 15 11  1  0
 15  3  1  0
 16 13  1  0
 17 25  1  0
 18 23  1  0
 19 20  1  0
 19 18  1  0
 21 20  1  0
 21 30  1  0
 21 22  1  0
 23 17  1  0
 23 22  1  0
 24 17  2  0
 25 16  1  0
 25 26  1  0
 27 28  2  0
 28 47  1  0
 29 28  1  0
 29 32  1  0
 30 31  1  0
 30 27  1  0
 31 29  2  0
 32 33  1  0
 33 34  2  0
 35 38  1  0
 35 34  1  0
 36 35  2  0
 37 36  1  0
 37 32  2  0
 38 39  1  0
 39 40  1  0
 40 41  2  0
 42 41  1  0
 42 46  1  0
 43 42  2  0
 44 39  2  0
 44 43  1  0
 45 44  1  0
 47 48  1  0
 48 51  1  0
 48 50  1  0
 49 47  2  0
 52 53  1  0
 52 27  1  0
 54 52  1  0
 55 57  1  0
 55  2  1  0
 56 67  2  0
 57 62  1  0
 58 66  1  0
 58 68  1  0
 59 65  1  0
 59 61  1  0
 60 66  1  0
 61 60  1  0
 62 61  2  0
 63 64  1  0
 63 57  2  0
 64 59  2  0
 65 58  1  0
 66 56  1  0
 68 70  2  0
 69 68  1  0
 71 69  1  0
 72 81  2  0
 72 77  1  0
 73 69  1  0
 73 77  1  0
 74 73  1  0
 75 76  1  0
 75 74  1  0
 76 72  1  0
 77 78  2  0
 78 79  1  0
 80 79  2  0
 81 80  1  0
 82 56  1  0
 82 83  1  0
 82 92  1  0
 83 86  1  0
 84 88  1  0
 84 83  1  0
 85 84  2  0
 88 87  1  0
 90 88  1  0
 90 91  1  0
 90 89  1  0
 92 95  1  1
 92 93  1  0
 94 92  1  0
M  ISO  4   2 101  17 100  25 100  55 101
M  END
>  <TORSDO>  (54) 
F 17

>  <SCORE>  (54) 
-15.259

>  <name>  (54) 
53

>  <ligand_id>  (54) 
53

>  <original_smiles>  (54) 
[H]C(Oc1c([H])c([H])c2c(c1[H])C([H])([H])N(C(=O)C([H])(N([H])C(=O)C([H])(N([H])C([H])([H])[H])C([H])([H])[H])C(C([H])([H])[H])(C([H])([H])[H])C([H])([H])[H])C([H])(C(=O)N([H])C1([H])c3c([H])c([H])c([H])c([H])c3C([H])([H])C([H])([H])C1([H])[H])C2([H])[H])=C1C([H])([H])N(C(c2c([H])c([H])c(N([H])C(=O)N3C([H])([H])C([H])([H])C([H])([H])C([H])(n4nc(-c5c([H])c([H])c(Oc6c([H])c([H])c(F)c([H])c6F)c([H])c5[H])c(C(=O)N([H])[H])c4N([H])[H])C3([H])[H])c([H])c2[H])=[N+]([H])[H])C([H])([H])C1([H])[H]

>  <smiles>  (54) 
[H]C(Oc1c([H])c([H])c2c(c1[H])C([H])([H])N(C(=O)C([H])(N([H])C(=O)C([H])(N([H])C([H])([H])[H])C([H])([H])[H])C(C([H])([H])[H])(C([H])([H])[H])C([H])([H])[H])C([H])(C(=O)N([H])C1([H])c3c([H])c([H])c([H])c([H])c3C([H])([H])C([H])([H])C1([H])[H])C2([H])[H])=C1C([H])([H])N(C(c2c([H])c([H])c(N([H])C(=O)N3C([H])([H])C([H])([H])C([H])([H])C([H])(n4nc(-c5c([H])c([H])c(Oc6c([H])c([H])c(F)c([H])c6F)c([H])c5[H])c(C(=O)N([H])[H])c4N([H])[H])C3([H])[H])c([H])c2[H])=[N+]([H])[H])C([H])([H])C1([H])[H]

$$$$
54:0:0
     RDKit          3D

102110  0  0  1  0  0  0  0  0999 V2000
  -30.5840  -21.4890   21.7040 C   0  0  0  0  0  1  0  0  0  0  0  0
  -30.5820  -21.8720   20.1980 C   0  0  1  0  0  0  0  0  0  0  0  0
  -29.3510  -22.7710   19.8730 C   0  0  0  0  0  0  0  0  0  0  0  0
  -28.6050  -23.1880   20.9000 N   0  0  0  0  0  0  0  0  0  0  0  0
  -29.0920  -23.0960   18.7140 O   0  0  0  0  0  0  0  0  0  0  0  0
  -28.8750  -22.8350   21.8090 H   0  0  0  0  0  0  0  0  0  0  0  0
  -27.5260  -24.1730   20.8950 C   0  0  0  0  0  2  0  0  0  0  0  0
  -28.6850  -24.9850   23.0090 C   0  0  0  0  0  1  0  0  0  0  0  0
  -26.5700  -26.0390   22.3180 C   0  0  0  0  0  1  0  0  0  0  0  0
  -27.8770  -25.4190   21.7610 C   0  0  2  0  0  0  0  0  0  0  0  0
  -28.7510  -26.4470   20.9530 C   0  0  0  0  0  2  0  0  0  0  0  0
  -28.2940  -26.8370   19.6480 O   0  0  0  0  0  0  0  0  0  0  0  0
  -24.4280  -31.6820   23.0840 C   0  0  0  0  0  0  0  0  0  0  0  0
  -27.1700  -27.6150   19.6530 C   0  0  0  0  0  0  0  0  0  0  0  0
  -23.2520  -30.3800   21.3380 C   0  0  0  0  0  3  0  0  0  0  0  0
  -24.7410  -29.0290   19.7690 C   0  0  0  0  0  0  0  0  0  0  0  0
  -25.7600  -30.8410   21.1620 C   0  0  0  0  0  2  0  0  0  0  0  0
  -25.8810  -29.5370   20.4070 C   0  0  0  0  0  0  0  0  0  0  0  0
  -27.1010  -28.8370   20.3560 C   0  0  0  0  0  3  0  0  0  0  0  0
  -26.0350  -27.1330   18.9750 C   0  0  0  0  0  3  0  0  0  0  0  0
  -24.8130  -27.8260   19.0430 C   0  0  0  0  0  3  0  0  0  0  0  0
  -23.4690  -29.8310   19.9010 C   0  0  0  0  0  2  0  0  0  0  0  0
  -24.4970  -30.9790   21.9200 N   0  0  0  0  0  0  0  0  0  0  0  0
  -23.3460  -31.8780   23.6520 O   0  0  0  0  0  0  0  0  0  0  0  0
  -22.6470  -29.2610   22.2140 C   0  0  0  0  0  0  0  0  0  0  0  0
  -21.3280  -29.0550   22.0860 N   0  0  0  0  0  0  0  0  0  0  0  0
  -23.3590  -28.5850   22.9620 O   0  0  0  0  0  0  0  0  0  0  0  0
  -20.8190  -29.6550   21.4520 H   0  0  0  0  0  0  0  0  0  0  0  0
  -17.9850  -27.7690   22.5310 C   0  0  0  0  0  0  0  0  0  0  0  0
  -20.5400  -28.0430   22.7860 C   0  0  0  0  0  3  0  0  0  0  0  0
  -20.6580  -26.6720   22.0840 C   0  0  0  0  0  2  0  0  0  0  0  0
  -19.5480  -26.4180   21.0590 C   0  0  0  0  0  2  0  0  0  0  0  0
  -18.1710  -26.4880   21.7320 C   0  0  0  0  0  2  0  0  0  0  0  0
  -19.0970  -28.5080   23.0100 C   0  0  0  0  0  0  0  0  0  0  0  0
  -18.8710  -29.7090   23.7170 C   0  0  0  0  0  3  0  0  0  0  0  0
  -17.5620  -30.1740   23.9470 C   0  0  0  0  0  3  0  0  0  0  0  0
  -16.4650  -29.4260   23.4890 C   0  0  0  0  0  3  0  0  0  0  0  0
  -16.6750  -28.2250   22.7880 C   0  0  0  0  0  3  0  0  0  0  0  0
  -25.7030  -32.2960   23.7430 C   0  0  0  0  0  3  0  0  0  0  0  0
  -26.2330  -31.4610   24.9740 C   0  0  1  0  0  0  0  0  0  0  0  0
  -25.1400  -31.1460   26.0200 C   0  0  0  0  0  1  0  0  0  0  0  0
  -26.8410  -30.1180   24.5040 C   0  0  0  0  0  1  0  0  0  0  0  0
  -27.3670  -32.2370   25.6830 C   0  0  0  0  0  1  0  0  0  0  0  0
  -25.3710  -33.6690   24.1460 N   0  0  0  0  0  0  0  0  0  0  0  0
  -25.7130  -34.7650   23.4580 C   0  0  0  0  0  0  0  0  0  0  0  0
  -26.4130  -34.7300   22.4430 O   0  0  0  0  0  0  0  0  0  0  0  0
  -24.7530  -33.7730   24.9370 H   0  0  0  0  0  0  0  0  0  0  0  0
  -23.9910  -36.5690   23.1400 C   0  0  0  0  0  1  0  0  0  0  0  0
  -25.1940  -36.1170   23.9820 C   0  0  0  0  0  3  0  0  0  0  0  0
  -27.2800  -36.9550   24.9720 C   0  0  0  0  0  1  0  0  0  0  0  0
  -26.2240  -37.1800   23.9870 N   0  0  0  0  0  0  0  0  0  0  0  0
  -25.8050  -38.0880   24.1680 H   0  0  0  0  0  0  0  0  0  0  0  0
  -32.3610  -22.9040   18.4900 C   0  0  0  0  0  1  0  0  0  0  0  0
  -31.8770  -22.7180   19.9450 C   0  0  0  0  0  2  0  0  0  0  0  0
  -30.5140  -20.5680   19.3230 C   0  0  0  0  0  2  0  0  0  0  0  0
  -33.4790  -18.2790   20.0760 C   0  0  0  0  0  3  0  0  0  0  0  0
  -32.6830  -19.3480   19.6510 C   0  0  0  0  0  3  0  0  0  0  0  0
  -32.8660  -17.1130   20.5440 C   0  0  0  0  0  3  0  0  0  0  0  0
  -31.2860  -19.3340   19.8360 C   0  0  0  0  0  0  0  0  0  0  0  0
  -30.6620  -18.1710   20.4010 C   0  0  0  0  0  0  0  0  0  0  0  0
  -31.4530  -16.9940   20.5830 C   0  0  0  0  0  0  0  0  0  0  0  0
  -31.2520  -14.6390   19.9410 C   0  0  0  0  0  0  0  0  0  0  0  0
  -30.6860  -12.5300   18.8170 C   0  0  0  0  0  2  0  0  0  0  0  0
  -29.7030  -12.8140   17.6660 C   0  0  0  0  0  2  0  0  0  0  0  0
  -28.2590  -12.7160   18.1840 C   0  0  0  0  0  2  0  0  0  0  0  0
  -28.0310  -13.5460   19.4770 C   0  0  0  0  0  3  0  0  0  0  0  0
  -29.1540  -13.3240   20.5200 C   0  0  0  0  0  2  0  0  0  0  0  0
  -30.4530  -13.5410   19.8660 N   0  0  0  0  0  0  0  0  0  0  0  0
  -32.2810  -14.7090   19.2650 O   0  0  0  0  0  0  0  0  0  0  0  0
  -30.8720  -15.6830   20.7110 N   0  0  0  0  0  0  0  0  0  0  0  0
  -29.9750  -15.6090   21.1680 H   0  0  0  0  0  0  0  0  0  0  0  0
  -25.7090  -14.1940   20.3740 C   0  0  0  0  0  0  0  0  0  0  0  0
  -24.6440  -13.4420   20.7870 C   0  0  0  0  0  0  0  0  0  0  0  0
  -25.0560  -12.0800   20.6730 C   0  0  0  0  0  0  0  0  0  0  0  0
  -26.7080  -13.2930   20.0400 N   0  0  0  0  0  0  0  0  0  0  0  0
  -26.3200  -12.0120   20.2740 N   0  0  0  0  0  0  0  0  0  0  0  0
  -24.3000  -10.8350   20.8610 C   0  0  0  0  0  0  0  0  0  0  0  0
  -24.6930   -9.8710   21.8130 C   0  0  0  0  0  3  0  0  0  0  0  0
  -23.9390   -8.6920   21.9920 C   0  0  0  0  0  3  0  0  0  0  0  0
  -22.7760   -8.4700   21.2160 C   0  0  0  0  0  0  0  0  0  0  0  0
  -22.4010   -9.4230   20.2520 C   0  0  0  0  0  3  0  0  0  0  0  0
  -23.1560  -10.5930   20.0730 C   0  0  0  0  0  3  0  0  0  0  0  0
  -21.9970   -7.3420   21.3010 O   0  0  0  0  0  0  0  0  0  0  0  0
  -21.8230   -6.6750   22.4890 C   0  0  0  0  0  0  0  0  0  0  0  0
  -21.2950   -7.3130   23.6320 C   0  0  0  0  0  3  0  0  0  0  0  0
  -21.0700   -6.5760   24.8110 C   0  0  0  0  0  3  0  0  0  0  0  0
  -21.3600   -5.1970   24.8450 C   0  0  0  0  0  0  0  0  0  0  0  0
  -21.8810   -4.5590   23.7060 C   0  0  0  0  0  3  0  0  0  0  0  0
  -22.1070   -5.2960   22.5300 C   0  0  0  0  0  0  0  0  0  0  0  0
  -22.5900   -4.6710   21.4290 F   0  0  0  0  0  0  0  0  0  0  0  0
  -21.1360   -4.4860   25.9740 F   0  0  0  0  0  0  0  0  0  0  0  0
  -23.2870  -13.9560   21.1770 C   0  0  0  0  0  0  0  0  0  0  0  0
  -22.6200  -13.2810   22.1070 N   0  0  0  0  0  0  0  0  0  0  0  0
  -22.8330  -14.9930   20.6950 O   0  0  0  0  0  0  0  0  0  0  0  0
  -22.9990  -12.4410   22.5180 H   0  0  0  0  0  0  0  0  0  0  0  0
  -21.7160  -13.6110   22.4150 H   0  0  0  0  0  0  0  0  0  0  0  0
  -25.9020  -15.5630   20.2360 N   0  0  0  0  0  0  0  0  0  0  0  0
  -25.1610  -16.2320   20.4160 H   0  0  0  0  0  0  0  0  0  0  0  0
  -26.7420  -15.9890   19.8720 H   0  0  0  0  0  0  0  0  0  0  0  0
  -28.7660  -17.2250   21.8990 C   0  0  0  0  0  1  0  0  0  0  0  0
  -28.2620  -18.1450   19.5550 C   0  0  0  0  0  1  0  0  0  0  0  0
  -29.1740  -18.2130   20.7830 C   0  0  0  0  0  3  0  0  0  0  0  0
  2  1  1  1
  3  2  1  0
  3  4  1  0
  4  6  1  0
  5  3  2  0
  7  4  1  0
  7 10  1  0
 10  9  1  1
 10  8  1  0
 11 10  1  0
 12 14  1  0
 12 11  1  0
 13 24  2  0
 14 19  1  0
 15 23  1  0
 15 25  1  0
 16 22  1  0
 16 18  1  0
 17 23  1  0
 18 17  1  0
 19 18  2  0
 20 21  1  0
 20 14  2  0
 21 16  2  0
 22 15  1  0
 23 13  1  0
 25 27  2  0
 26 25  1  0
 28 26  1  0
 29 38  2  0
 29 34  1  0
 30 26  1  0
 30 34  1  0
 31 30  1  0
 32 33  1  0
 32 31  1  0
 33 29  1  0
 34 35  2  0
 35 36  1  0
 37 36  2  0
 38 37  1  0
 39 13  1  0
 39 44  1  0
 39 40  1  0
 40 43  1  1
 40 41  1  0
 42 40  1  0
 44 47  1  0
 45 49  1  0
 45 44  1  0
 46 45  2  0
 49 48  1  0
 49 51  1  0
 51 52  1  0
 51 50  1  0
 53 54  1  0
 54  2  1  0
 55 59  1  0
 55  2  1  0
 56 58  1  0
 57 59  1  0
 57 56  2  0
 58 61  2  0
 59 60  2  0
 60 61  1  0
 60102  1  0
 61 70  1  0
 62 70  1  0
 63 68  1  0
 64 65  1  0
 64 63  1  0
 66 65  1  0
 66 75  1  0
 66 67  1  0
 68 62  1  0
 68 67  1  0
 69 62  2  0
 70 71  1  0
 72 73  2  0
 73 92  1  0
 74 73  1  0
 74 77  1  0
 75 76  1  0
 75 72  1  0
 76 74  2  0
 77 78  1  0
 78 79  2  0
 80 83  1  0
 80 79  1  0
 81 80  2  0
 82 81  1  0
 82 77  2  0
 83 84  1  0
 84 89  2  0
 84 85  1  0
 85 86  2  0
 86 87  1  0
 87 91  1  0
 88 87  2  0
 89 88  1  0
 90 89  1  0
 92 93  1  0
 93 96  1  0
 93 95  1  0
 94 92  2  0
 97 72  1  0
 97 98  1  0
 99 97  1  0
101102  1  0
102100  1  0
M  ISO  4  11 101  12 101  62 100  70 100
M  END
>  <TORSDO>  (55) 
F 24

>  <SCORE>  (55) 
-10.282

>  <name>  (55) 
54

>  <ligand_id>  (55) 
54

>  <original_smiles>  (55) 
[H]c1c([H])c([H])c2c(c1[H])C([H])([H])C([H])([H])C([H])([H])C2([H])N([H])C(=O)C1([H])N(C(=O)C([H])(N([H])C(=O)C([H])(N([H])C([H])([H])[H])C([H])([H])[H])C(C([H])([H])[H])(C([H])([H])[H])C([H])([H])[H])C([H])([H])c2c([H])c(OC([H])([H])C(C([H])([H])[H])(C([H])([H])[H])C([H])([H])N([H])C(=O)C(C([H])([H])[H])(C([H])([H])c3c([H])c([H])c([H])c(N([H])C(=O)N4C([H])([H])C([H])([H])C([H])([H])C([H])(n5nc(-c6c([H])c([H])c(Oc7c([H])c([H])c(F)c([H])c7F)c([H])c6[H])c(C(=O)N([H])[H])c5N([H])[H])C4([H])[H])c3C([H])(C([H])([H])[H])C([H])([H])[H])C([H])([H])C([H])([H])[H])c([H])c([H])c2C1([H])[H]

>  <smiles>  (55) 
[H]c1c([H])c([H])c2c(c1[H])C([H])([H])C([H])([H])C([H])([H])C2([H])N([H])C(=O)C1([H])N(C(=O)C([H])(N([H])C(=O)C([H])(N([H])C([H])([H])[H])C([H])([H])[H])C(C([H])([H])[H])(C([H])([H])[H])C([H])([H])[H])C([H])([H])c2c([H])c(OC([H])([H])C(C([H])([H])[H])(C([H])([H])[H])C([H])([H])N([H])C(=O)C(C([H])([H])[H])(C([H])([H])c3c([H])c([H])c([H])c(N([H])C(=O)N4C([H])([H])C([H])([H])C([H])([H])C([H])(n5nc(-c6c([H])c([H])c(Oc7c([H])c([H])c(F)c([H])c7F)c([H])c6[H])c(C(=O)N([H])[H])c5N([H])[H])C4([H])[H])c3C([H])(C([H])([H])[H])C([H])([H])[H])C([H])([H])C([H])([H])[H])c([H])c([H])c2C1([H])[H]

$$$$
55:0:0
     RDKit          3D

 93102  0  0  1  0  0  0  0  0999 V2000
  -28.9840  -21.4800   18.7700 C   0  0  0  0  0  2  0  0  0  0  0  0
  -28.6350  -23.0080   18.6760 C   0  0  0  0  0  2  0  0  0  0  0  0
  -29.9020  -22.5860   20.6490 C   0  0  0  0  0  2  0  0  0  0  0  0
  -30.1610  -21.3030   19.7460 C   0  0  0  0  0  3  0  0  0  0  0  0
  -29.4390  -23.8100   19.7420 C   0  0  1  0  0  0  0  0  0  0  0  0
  -30.6920  -24.4510   19.1150 C   0  0  0  0  0  1  0  0  0  0  0  0
  -30.4120  -19.7700   21.8080 C   0  0  0  0  0  3  0  0  0  0  0  0
  -30.6340  -18.6150   19.6790 C   0  0  0  0  0  3  0  0  0  0  0  0
  -30.9530  -17.3720   21.7500 C   0  0  0  0  0  3  0  0  0  0  0  0
  -30.3890  -19.8600   20.4010 C   0  0  0  0  0  0  0  0  0  0  0  0
  -30.6800  -18.5520   22.4730 C   0  0  0  0  0  0  0  0  0  0  0  0
  -30.9370  -17.3520   20.3420 C   0  0  0  0  0  0  0  0  0  0  0  0
  -30.6540  -18.5040   23.9870 C   0  0  0  0  0  1  0  0  0  0  0  0
  -31.7250  -14.8760   19.9210 C   0  0  0  0  0  0  0  0  0  0  0  0
  -31.3680  -12.5810   18.9860 C   0  0  0  0  0  2  0  0  0  0  0  0
  -30.4000  -12.6840   17.7860 C   0  0  0  0  0  2  0  0  0  0  0  0
  -28.9300  -12.6460   18.2540 C   0  0  0  0  0  2  0  0  0  0  0  0
  -28.6550  -13.6020   19.4460 C   0  0  0  0  0  3  0  0  0  0  0  0
  -29.7320  -13.4620   20.5420 C   0  0  0  0  0  2  0  0  0  0  0  0
  -31.0330  -13.6910   19.8980 N   0  0  0  0  0  0  0  0  0  0  0  0
  -32.9420  -14.9000   19.7180 O   0  0  0  0  0  0  0  0  0  0  0  0
  -30.9550  -16.0120   19.7290 N   0  0  0  0  0  0  0  0  0  0  0  0
  -30.0260  -15.7240   19.4670 H   0  0  0  0  0  0  0  0  0  0  0  0
  -26.3690  -14.4240   20.2720 C   0  0  0  0  0  0  0  0  0  0  0  0
  -25.2350  -13.7580   20.6480 C   0  0  0  0  0  0  0  0  0  0  0  0
  -25.5500  -12.3670   20.5670 C   0  0  0  0  0  0  0  0  0  0  0  0
  -27.3050  -13.4460   19.9770 N   0  0  0  0  0  0  0  0  0  0  0  0
  -26.8210  -12.2010   20.2200 N   0  0  0  0  0  0  0  0  0  0  0  0
  -24.6990  -11.1840   20.7440 C   0  0  0  0  0  0  0  0  0  0  0  0
  -25.0380  -10.1560   21.6510 C   0  0  0  0  0  3  0  0  0  0  0  0
  -24.1920   -9.0400   21.8160 C   0  0  0  0  0  3  0  0  0  0  0  0
  -22.9910   -8.9420   21.0730 C   0  0  0  0  0  0  0  0  0  0  0  0
  -22.6700   -9.9570   20.1540 C   0  0  0  0  0  3  0  0  0  0  0  0
  -23.5160  -11.0660   19.9860 C   0  0  0  0  0  3  0  0  0  0  0  0
  -22.1210   -7.8810   21.1480 O   0  0  0  0  0  0  0  0  0  0  0  0
  -21.9630   -7.1610   22.3060 C   0  0  0  0  0  0  0  0  0  0  0  0
  -21.5780   -7.7740   23.5170 C   0  0  0  0  0  3  0  0  0  0  0  0
  -21.3590   -6.9860   24.6660 C   0  0  0  0  0  3  0  0  0  0  0  0
  -21.5150   -5.5880   24.6030 C   0  0  0  0  0  0  0  0  0  0  0  0
  -21.8960   -4.9770   23.3950 C   0  0  0  0  0  3  0  0  0  0  0  0
  -22.1160   -5.7620   22.2500 C   0  0  0  0  0  0  0  0  0  0  0  0
  -22.4600   -5.1630   21.0830 F   0  0  0  0  0  0  0  0  0  0  0  0
  -21.3000   -4.8310   25.7030 F   0  0  0  0  0  0  0  0  0  0  0  0
  -23.9040  -14.3720   20.9740 C   0  0  0  0  0  0  0  0  0  0  0  0
  -23.1440  -13.7530   21.8700 N   0  0  0  0  0  0  0  0  0  0  0  0
  -23.5500  -15.4360   20.4670 O   0  0  0  0  0  0  0  0  0  0  0  0
  -23.4440  -12.8900   22.2980 H   0  0  0  0  0  0  0  0  0  0  0  0
  -22.2500  -14.1450   22.1300 H   0  0  0  0  0  0  0  0  0  0  0  0
  -26.6690  -15.7770   20.1320 N   0  0  0  0  0  0  0  0  0  0  0  0
  -25.9710  -16.4930   20.3020 H   0  0  0  0  0  0  0  0  0  0  0  0
  -27.5530  -16.1560   19.8210 H   0  0  0  0  0  0  0  0  0  0  0  0
  -28.5960  -24.9960   20.4580 C   0  0  0  0  0  2  0  0  0  0  0  0
  -28.7630  -26.4470   20.1080 O   0  0  0  0  0  0  0  0  0  0  0  0
  -24.7260  -31.6110   23.2360 C   0  0  0  0  0  0  0  0  0  0  0  0
  -27.6150  -27.2640   20.1020 C   0  0  0  0  0  0  0  0  0  0  0  0
  -23.6170  -30.1840   21.5530 C   0  0  0  0  0  3  0  0  0  0  0  0
  -25.1650  -28.7530   20.1020 C   0  0  0  0  0  0  0  0  0  0  0  0
  -26.1360  -30.6500   21.3980 C   0  0  0  0  0  2  0  0  0  0  0  0
  -26.3010  -29.2910   20.7220 C   0  0  0  0  0  0  0  0  0  0  0  0
  -27.5300  -28.5580   20.7110 C   0  0  0  0  0  3  0  0  0  0  0  0
  -26.4580  -26.7930   19.4450 C   0  0  0  0  0  3  0  0  0  0  0  0
  -25.2470  -27.5110   19.4520 C   0  0  0  0  0  3  0  0  0  0  0  0
  -23.8800  -29.5550   20.1610 C   0  0  0  0  0  2  0  0  0  0  0  0
  -24.8440  -30.8340   22.1180 N   0  0  0  0  0  0  0  0  0  0  0  0
  -23.6240  -31.8120   23.7690 O   0  0  0  0  0  0  0  0  0  0  0  0
  -23.0110  -29.1080   22.4860 C   0  0  0  0  0  0  0  0  0  0  0  0
  -21.7060  -28.8310   22.3230 N   0  0  0  0  0  0  0  0  0  0  0  0
  -23.7140  -28.5250   23.3160 O   0  0  0  0  0  0  0  0  0  0  0  0
  -21.1960  -29.3580   21.6290 H   0  0  0  0  0  0  0  0  0  0  0  0
  -18.4350  -27.3220   22.6650 C   0  0  0  0  0  0  0  0  0  0  0  0
  -20.9400  -27.8260   23.0620 C   0  0  0  0  0  3  0  0  0  0  0  0
  -21.2070  -26.4080   22.5080 C   0  0  0  0  0  2  0  0  0  0  0  0
  -20.1940  -25.9750   21.4430 C   0  0  0  0  0  2  0  0  0  0  0  0
  -18.7730  -25.9910   22.0150 C   0  0  0  0  0  2  0  0  0  0  0  0
  -19.4530  -28.1890   23.1420 C   0  0  0  0  0  0  0  0  0  0  0  0
  -19.0860  -29.4280   23.7090 C   0  0  0  0  0  3  0  0  0  0  0  0
  -17.7320  -29.8040   23.8040 C   0  0  0  0  0  3  0  0  0  0  0  0
  -16.7280  -28.9350   23.3440 C   0  0  0  0  0  3  0  0  0  0  0  0
  -17.0790  -27.6950   22.7800 C   0  0  0  0  0  3  0  0  0  0  0  0
  -25.9660  -32.3030   23.8810 C   0  0  0  0  0  3  0  0  0  0  0  0
  -25.5720  -33.6720   24.2430 N   0  0  0  0  0  0  0  0  0  0  0  0
  -25.8630  -34.7640   23.5240 C   0  0  0  0  0  0  0  0  0  0  0  0
  -26.5620  -34.7290   22.5080 O   0  0  0  0  0  0  0  0  0  0  0  0
  -24.9500  -33.7680   25.0320 H   0  0  0  0  0  0  0  0  0  0  0  0
  -24.0450  -36.4700   23.1860 C   0  0  0  0  0  1  0  0  0  0  0  0
  -25.2910  -36.1100   24.0110 C   0  0  0  0  0  3  0  0  0  0  0  0
  -27.3580  -37.0850   24.9080 C   0  0  0  0  0  1  0  0  0  0  0  0
  -26.2650  -37.2210   23.9490 N   0  0  0  0  0  0  0  0  0  0  0  0
  -25.8050  -38.1120   24.1150 H   0  0  0  0  0  0  0  0  0  0  0  0
  -26.5200  -31.5320   25.1420 C   0  0  1  0  0  0  0  0  0  0  0  0
  -25.4370  -31.2100   26.1980 C   0  0  0  0  0  1  0  0  0  0  0  0
  -27.1820  -30.1990   24.7230 C   0  0  0  0  0  1  0  0  0  0  0  0
  -27.6200  -32.3760   25.8300 C   0  0  0  0  0  1  0  0  0  0  0  0
  1  4  1  0
  2  1  1  0
  2  5  1  0
  4 10  1  0
  4  3  1  0
  5  6  1  6
  5 52  1  0
  5  3  1  0
  7 11  1  0
  8 12  2  0
  8 10  1  0
  9 11  2  0
 10  7  2  0
 11 13  1  0
 12  9  1  0
 15 20  1  0
 16 17  1  0
 16 15  1  0
 18 17  1  0
 18 27  1  0
 18 19  1  0
 20 14  1  0
 20 19  1  0
 21 14  2  0
 22 14  1  0
 22 12  1  0
 23 22  1  0
 24 25  2  0
 25 44  1  0
 26 25  1  0
 26 29  1  0
 27 28  1  0
 27 24  1  0
 28 26  2  0
 29 30  1  0
 30 31  2  0
 32 35  1  0
 32 31  1  0
 33 32  2  0
 34 33  1  0
 34 29  2  0
 35 36  1  0
 36 37  1  0
 37 38  2  0
 39 38  1  0
 39 43  1  0
 40 39  2  0
 41 36  2  0
 41 40  1  0
 42 41  1  0
 44 45  1  0
 45 48  1  0
 45 47  1  0
 46 44  2  0
 49 24  1  0
 49 50  1  0
 51 49  1  0
 53 52  1  0
 54 65  2  0
 55 53  1  0
 55 60  1  0
 56 64  1  0
 56 66  1  0
 57 63  1  0
 57 59  1  0
 58 64  1  0
 59 58  1  0
 60 59  2  0
 61 62  1  0
 61 55  2  0
 62 57  2  0
 63 56  1  0
 64 54  1  0
 66 68  2  0
 67 66  1  0
 69 67  1  0
 70 79  2  0
 70 75  1  0
 71 67  1  0
 71 75  1  0
 72 71  1  0
 73 74  1  0
 73 72  1  0
 74 70  1  0
 75 76  2  0
 76 77  1  0
 78 77  2  0
 79 78  1  0
 80 54  1  0
 80 81  1  0
 80 90  1  0
 81 84  1  0
 82 86  1  0
 82 81  1  0
 83 82  2  0
 86 85  1  0
 88 86  1  0
 88 89  1  0
 88 87  1  0
 90 93  1  1
 90 91  1  0
 92 90  1  0
M  ISO  4  14 100  22 100  52 101  53 101
M  END
>  <TORSDO>  (56) 
F 18

>  <SCORE>  (56) 
-11.940

>  <name>  (56) 
55

>  <ligand_id>  (56) 
55

>  <original_smiles>  (56) 
[H]c1c([H])c([H])c2c(c1[H])C([H])([H])C([H])([H])C([H])([H])C2([H])N([H])C(=O)C1([H])N(C(=O)C([H])(N([H])C(=O)C([H])(N([H])C([H])([H])[H])C([H])([H])[H])C(C([H])([H])[H])(C([H])([H])[H])C([H])([H])[H])C([H])([H])c2c([H])c(OC([H])([H])C3(C([H])([H])[H])C([H])([H])C([H])([H])C([H])(c4c([H])c(N([H])C(=O)N5C([H])([H])C([H])([H])C([H])([H])C([H])(n6nc(-c7c([H])c([H])c(Oc8c([H])c([H])c(F)c([H])c8F)c([H])c7[H])c(C(=O)N([H])[H])c6N([H])[H])C5([H])[H])c([H])c(C([H])([H])[H])c4[H])C3([H])[H])c([H])c([H])c2C1([H])[H]

>  <smiles>  (56) 
[H]c1c([H])c([H])c2c(c1[H])C([H])([H])C([H])([H])C([H])([H])C2([H])N([H])C(=O)C1([H])N(C(=O)C([H])(N([H])C(=O)C([H])(N([H])C([H])([H])[H])C([H])([H])[H])C(C([H])([H])[H])(C([H])([H])[H])C([H])([H])[H])C([H])([H])c2c([H])c(OC([H])([H])C3(C([H])([H])[H])C([H])([H])C([H])([H])C([H])(c4c([H])c(N([H])C(=O)N5C([H])([H])C([H])([H])C([H])([H])C([H])(n6nc(-c7c([H])c([H])c(Oc8c([H])c([H])c(F)c([H])c8F)c([H])c7[H])c(C(=O)N([H])[H])c6N([H])[H])C5([H])[H])c([H])c(C([H])([H])[H])c4[H])C3([H])[H])c([H])c([H])c2C1([H])[H]

$$$$
56:0:0
     RDKit          3D

 96104  0  0  1  0  0  0  0  0999 V2000
  -32.2570  -23.0580   21.3980 C   0  0  0  0  0  1  0  0  0  0  0  0
  -30.9150  -22.9510   20.6270 C   0  0  2  0  0  0  0  0  0  0  0  0
  -32.0830  -23.8710   18.4530 C   0  0  0  0  0  1  0  0  0  0  0  0
  -31.2070  -22.7850   19.1070 C   0  0  0  0  0  2  0  0  0  0  0  0
  -30.0450  -24.2160   20.9100 C   0  0  0  0  0  0  0  0  0  0  0  0
  -30.3970  -25.0530   21.7490 O   0  0  0  0  0  0  0  0  0  0  0  0
  -28.7070  -24.4120   20.1690 C   0  0  0  0  0  2  0  0  0  0  0  0
  -28.6180  -25.7440   19.3870 C   0  0  0  0  0  2  0  0  0  0  0  0
  -28.3740  -26.8710   20.2380 O   0  0  0  0  0  0  0  0  0  0  0  0
  -24.5160  -31.9980   23.2940 C   0  0  0  0  0  0  0  0  0  0  0  0
  -27.1580  -27.5270   20.2330 C   0  0  0  0  0  0  0  0  0  0  0  0
  -23.3000  -30.5770   21.6740 C   0  0  0  0  0  3  0  0  0  0  0  0
  -24.7440  -29.0170   20.2620 C   0  0  0  0  0  0  0  0  0  0  0  0
  -25.8240  -30.9290   21.4600 C   0  0  0  0  0  2  0  0  0  0  0  0
  -25.9020  -29.5500   20.8390 C   0  0  0  0  0  0  0  0  0  0  0  0
  -27.1040  -28.8080   20.8300 C   0  0  0  0  0  3  0  0  0  0  0  0
  -25.9700  -26.9930   19.6760 C   0  0  0  0  0  3  0  0  0  0  0  0
  -24.7720  -27.7350   19.6850 C   0  0  0  0  0  3  0  0  0  0  0  0
  -23.5000  -29.8760   20.3030 C   0  0  0  0  0  2  0  0  0  0  0  0
  -24.5660  -31.1840   22.2010 N   0  0  0  0  0  0  0  0  0  0  0  0
  -23.4380  -32.2800   23.8340 O   0  0  0  0  0  0  0  0  0  0  0  0
  -22.6520  -29.5710   22.6510 C   0  0  0  0  0  0  0  0  0  0  0  0
  -21.3330  -29.3680   22.5110 N   0  0  0  0  0  0  0  0  0  0  0  0
  -23.3350  -28.9730   23.4880 O   0  0  0  0  0  0  0  0  0  0  0  0
  -20.8450  -29.8990   21.8040 H   0  0  0  0  0  0  0  0  0  0  0  0
  -17.9750  -28.1140   22.9670 C   0  0  0  0  0  0  0  0  0  0  0  0
  -20.5190  -28.4370   23.2910 C   0  0  0  0  0  3  0  0  0  0  0  0
  -20.6680  -26.9920   22.7630 C   0  0  0  0  0  2  0  0  0  0  0  0
  -19.5990  -26.6130   21.7340 C   0  0  0  0  0  2  0  0  0  0  0  0
  -18.1980  -26.7470   22.3400 C   0  0  0  0  0  2  0  0  0  0  0  0
  -19.0660  -28.9130   23.3990 C   0  0  0  0  0  0  0  0  0  0  0  0
  -18.8060  -30.1900   23.9420 C   0  0  0  0  0  3  0  0  0  0  0  0
  -17.4870  -30.6680   24.0600 C   0  0  0  0  0  3  0  0  0  0  0  0
  -16.4100  -29.8660   23.6450 C   0  0  0  0  0  3  0  0  0  0  0  0
  -16.6560  -28.5900   23.1040 C   0  0  0  0  0  3  0  0  0  0  0  0
  -25.8080  -32.6330   23.8990 C   0  0  0  0  0  3  0  0  0  0  0  0
  -25.5020  -34.0330   24.2240 N   0  0  0  0  0  0  0  0  0  0  0  0
  -25.8350  -35.0800   23.4580 C   0  0  0  0  0  0  0  0  0  0  0  0
  -26.5020  -34.9710   22.4260 O   0  0  0  0  0  0  0  0  0  0  0  0
  -24.9080  -34.1930   25.0240 H   0  0  0  0  0  0  0  0  0  0  0  0
  -24.1090  -36.8720   23.0920 C   0  0  0  0  0  1  0  0  0  0  0  0
  -25.3490  -36.4720   23.9070 C   0  0  0  0  0  3  0  0  0  0  0  0
  -27.4850  -37.3550   24.7340 C   0  0  0  0  0  1  0  0  0  0  0  0
  -26.3830  -37.5220   23.7910 N   0  0  0  0  0  0  0  0  0  0  0  0
  -25.9800  -38.4430   23.9340 H   0  0  0  0  0  0  0  0  0  0  0  0
  -26.3360  -31.8700   25.1750 C   0  0  1  0  0  0  0  0  0  0  0  0
  -25.2510  -31.6340   26.2520 C   0  0  0  0  0  1  0  0  0  0  0  0
  -26.9210  -30.4920   24.7840 C   0  0  0  0  0  1  0  0  0  0  0  0
  -27.4900  -32.6690   25.8240 C   0  0  0  0  0  1  0  0  0  0  0  0
  -30.1600  -21.6910   21.1330 C   0  0  0  0  0  2  0  0  0  0  0  0
  -31.0040  -20.5270   21.1370 O   0  0  0  0  0  0  0  0  0  0  0  0
  -29.2870  -19.0200   20.1310 C   0  0  0  0  0  3  0  0  0  0  0  0
  -28.9470  -17.6390   20.1940 C   0  0  0  0  0  0  0  0  0  0  0  0
  -29.8190  -16.8970   20.9690 C   0  0  0  0  0  0  0  0  0  0  0  0
  -30.3850  -19.3500   20.8770 C   0  0  0  0  0  0  0  0  0  0  0  0
  -31.1060  -17.9220   21.5830 S   0  0  0  0  0  0  0  0  0  0  0  0
  -30.5520  -14.5840   21.0750 C   0  0  0  0  0  0  0  0  0  0  0  0
  -30.4530  -12.3510   20.0410 C   0  0  0  0  0  2  0  0  0  0  0  0
  -29.5920  -12.4530   18.7640 C   0  0  0  0  0  2  0  0  0  0  0  0
  -28.0900  -12.2960   19.0850 C   0  0  0  0  0  2  0  0  0  0  0  0
  -27.6300  -13.1650   20.2870 C   0  0  0  0  0  3  0  0  0  0  0  0
  -28.6120  -13.0300   21.4750 C   0  0  0  0  0  2  0  0  0  0  0  0
  -29.9630  -13.3640   20.9860 N   0  0  0  0  0  0  0  0  0  0  0  0
  -31.7310  -14.7940   20.7740 O   0  0  0  0  0  0  0  0  0  0  0  0
  -29.6820  -15.5850   21.3070 N   0  0  0  0  0  0  0  0  0  0  0  0
  -28.7380  -15.2650   21.4520 H   0  0  0  0  0  0  0  0  0  0  0  0
  -25.1740  -13.7260   20.8430 C   0  0  0  0  0  0  0  0  0  0  0  0
  -24.1030  -12.9280   21.1330 C   0  0  0  0  0  0  0  0  0  0  0  0
  -24.5980  -11.5890   21.1290 C   0  0  0  0  0  0  0  0  0  0  0  0
  -26.2540  -12.8700   20.6770 N   0  0  0  0  0  0  0  0  0  0  0  0
  -25.9060  -11.5800   20.9090 N   0  0  0  0  0  0  0  0  0  0  0  0
  -23.8920  -10.3110   21.2640 C   0  0  0  0  0  0  0  0  0  0  0  0
  -24.3100   -9.3340   22.1930 C   0  0  0  0  0  3  0  0  0  0  0  0
  -23.6030   -8.1200   22.3200 C   0  0  0  0  0  3  0  0  0  0  0  0
  -22.4670   -7.8740   21.5140 C   0  0  0  0  0  0  0  0  0  0  0  0
  -22.0690   -8.8400   20.5740 C   0  0  0  0  0  3  0  0  0  0  0  0
  -22.7760  -10.0470   20.4460 C   0  0  0  0  0  3  0  0  0  0  0  0
  -21.7350   -6.7110   21.5480 O   0  0  0  0  0  0  0  0  0  0  0  0
  -21.6900   -5.9240   22.6700 C   0  0  0  0  0  0  0  0  0  0  0  0
  -21.2400   -6.4210   23.9120 C   0  0  0  0  0  3  0  0  0  0  0  0
  -21.1420   -5.5570   25.0220 C   0  0  0  0  0  3  0  0  0  0  0  0
  -21.4830   -4.1990   24.8910 C   0  0  0  0  0  0  0  0  0  0  0  0
  -21.9270   -3.7020   23.6530 C   0  0  0  0  0  3  0  0  0  0  0  0
  -22.0260   -4.5610   22.5440 C   0  0  0  0  0  0  0  0  0  0  0  0
  -22.4330   -4.0710   21.3490 F   0  0  0  0  0  0  0  0  0  0  0  0
  -21.3830   -3.3670   25.9540 F   0  0  0  0  0  0  0  0  0  0  0  0
  -22.6790  -13.3710   21.3130 C   0  0  0  0  0  0  0  0  0  0  0  0
  -21.9150  -12.6600   22.1320 N   0  0  0  0  0  0  0  0  0  0  0  0
  -22.2500  -14.3860   20.7620 O   0  0  0  0  0  0  0  0  0  0  0  0
  -22.2760  -11.8410   22.5980 H   0  0  0  0  0  0  0  0  0  0  0  0
  -20.9560  -12.9370   22.2950 H   0  0  0  0  0  0  0  0  0  0  0  0
  -25.3040  -15.1020   20.6940 N   0  0  0  0  0  0  0  0  0  0  0  0
  -24.5070  -15.7240   20.7780 H   0  0  0  0  0  0  0  0  0  0  0  0
  -26.1540  -15.5810   20.4380 H   0  0  0  0  0  0  0  0  0  0  0  0
  -28.0820  -16.3730   18.1870 C   0  0  0  0  0  1  0  0  0  0  0  0
  -27.7380  -17.1090   19.4860 C   0  0  0  0  0  2  0  0  0  0  0  0
  2  5  1  0
  2 50  1  0
  2  1  1  1
  3  4  1  0
  4  2  1  0
  5  6  2  0
  7  5  1  0
  8  7  1  0
  8  9  1  0
 10 21  2  0
 11  9  1  0
 11 16  1  0
 12 20  1  0
 12 22  1  0
 13 19  1  0
 13 15  1  0
 14 20  1  0
 15 14  1  0
 16 15  2  0
 17 18  1  0
 17 11  2  0
 18 13  2  0
 19 12  1  0
 20 10  1  0
 22 24  2  0
 23 22  1  0
 25 23  1  0
 26 35  2  0
 26 31  1  0
 27 23  1  0
 27 31  1  0
 28 27  1  0
 29 30  1  0
 29 28  1  0
 30 26  1  0
 31 32  2  0
 32 33  1  0
 34 33  2  0
 35 34  1  0
 36 10  1  0
 36 37  1  0
 36 46  1  0
 37 40  1  0
 38 42  1  0
 38 37  1  0
 39 38  2  0
 42 41  1  0
 44 42  1  0
 44 45  1  0
 44 43  1  0
 46 49  1  1
 46 47  1  0
 48 46  1  0
 50 51  1  0
 52 53  1  0
 52 55  2  0
 53 54  2  0
 54 65  1  0
 54 56  1  0
 55 51  1  0
 55 56  1  0
 57 65  1  0
 58 63  1  0
 59 60  1  0
 59 58  1  0
 61 60  1  0
 61 70  1  0
 61 62  1  0
 63 57  1  0
 63 62  1  0
 64 57  2  0
 65 66  1  0
 67 68  2  0
 68 87  1  0
 69 68  1  0
 69 72  1  0
 70 67  1  0
 70 71  1  0
 71 69  2  0
 72 73  1  0
 73 74  2  0
 75 78  1  0
 75 74  1  0
 76 75  2  0
 77 76  1  0
 77 72  2  0
 78 79  1  0
 79 80  1  0
 80 81  2  0
 82 81  1  0
 82 86  1  0
 83 82  2  0
 84 79  2  0
 84 83  1  0
 85 84  1  0
 87 88  1  0
 88 91  1  0
 88 90  1  0
 89 87  2  0
 92 93  1  0
 92 67  1  0
 94 92  1  0
 95 96  1  0
 96 53  1  0
M  ISO  4   8 101   9 101  57 100  65 100
M  END
>  <TORSDO>  (57) 
F 24

>  <SCORE>  (57) 
-11.103

>  <name>  (57) 
56

>  <ligand_id>  (57) 
56

>  <original_smiles>  (57) 
[H]c1c([H])c([H])c2c(c1[H])C([H])([H])C([H])([H])C([H])([H])C2([H])N([H])C(=O)C1([H])N(C(=O)C([H])(N([H])C(=O)C([H])(N([H])C([H])([H])[H])C([H])([H])[H])C(C([H])([H])[H])(C([H])([H])[H])C([H])([H])[H])C([H])([H])c2c([H])c(OC([H])([H])C([H])([H])C(=O)C(C([H])([H])[H])(C([H])([H])Oc3sc(N([H])C(=O)N4C([H])([H])C([H])([H])C([H])([H])C([H])(n5nc(-c6c([H])c([H])c(Oc7c([H])c([H])c(F)c([H])c7F)c([H])c6[H])c(C(=O)N([H])[H])c5N([H])[H])C4([H])[H])c(C([H])([H])C([H])([H])[H])c3[H])C([H])([H])C([H])([H])[H])c([H])c([H])c2C1([H])[H]

>  <smiles>  (57) 
[H]c1c([H])c([H])c2c(c1[H])C([H])([H])C([H])([H])C([H])([H])C2([H])N([H])C(=O)C1([H])N(C(=O)C([H])(N([H])C(=O)C([H])(N([H])C([H])([H])[H])C([H])([H])[H])C(C([H])([H])[H])(C([H])([H])[H])C([H])([H])[H])C([H])([H])c2c([H])c(OC([H])([H])C([H])([H])C(=O)C(C([H])([H])[H])(C([H])([H])Oc3sc(N([H])C(=O)N4C([H])([H])C([H])([H])C([H])([H])C([H])(n5nc(-c6c([H])c([H])c(Oc7c([H])c([H])c(F)c([H])c7F)c([H])c6[H])c(C(=O)N([H])[H])c5N([H])[H])C4([H])[H])c(C([H])([H])C([H])([H])[H])c3[H])C([H])([H])C([H])([H])[H])c([H])c([H])c2C1([H])[H]

$$$$
57:0:0
     RDKit          3D

 94103  0  0  1  0  0  0  0  0999 V2000
  -31.3110  -22.2900   21.4430 C   0  0  0  0  0  2  0  0  0  0  0  0
  -31.1840  -22.8830   20.0380 C   0  0  0  0  0  2  0  0  0  0  0  0
  -29.8910  -21.7220   21.2910 C   0  0  0  0  0  3  0  0  0  0  0  0
  -29.6570  -22.8930   20.2220 C   0  0  0  0  0  3  0  0  0  0  0  0
  -29.5910  -19.5060   19.8940 C   0  0  0  0  0  3  0  0  0  0  0  0
  -29.7180  -18.0930   19.7030 C   0  0  0  0  0  3  0  0  0  0  0  0
  -30.3810  -17.8690   22.0010 C   0  0  0  0  0  3  0  0  0  0  0  0
  -29.8780  -20.1470   21.1350 C   0  0  0  0  0  0  0  0  0  0  0  0
  -30.3030  -19.2770   22.1910 C   0  0  0  0  0  0  0  0  0  0  0  0
  -30.1130  -17.2380   20.7670 C   0  0  0  0  0  0  0  0  0  0  0  0
  -30.8830  -14.8650   20.0300 C   0  0  0  0  0  0  0  0  0  0  0  0
  -30.6480  -12.6690   18.8780 C   0  0  0  0  0  2  0  0  0  0  0  0
  -29.6140  -12.8320   17.7410 C   0  0  0  0  0  2  0  0  0  0  0  0
  -28.1760  -12.6410   18.2630 C   0  0  0  0  0  2  0  0  0  0  0  0
  -27.9020  -13.4520   19.5580 C   0  0  0  0  0  3  0  0  0  0  0  0
  -29.0340  -13.2370   20.5880 C   0  0  0  0  0  2  0  0  0  0  0  0
  -30.3020  -13.6270   19.9470 N   0  0  0  0  0  0  0  0  0  0  0  0
  -31.9470  -15.1260   19.4590 O   0  0  0  0  0  0  0  0  0  0  0  0
  -30.1670  -15.7850   20.7390 N   0  0  0  0  0  0  0  0  0  0  0  0
  -29.4650  -15.3430   21.3140 H   0  0  0  0  0  0  0  0  0  0  0  0
  -25.5690  -14.0160   20.4830 C   0  0  0  0  0  0  0  0  0  0  0  0
  -24.5290  -13.2240   20.8860 C   0  0  0  0  0  0  0  0  0  0  0  0
  -24.9800  -11.8760   20.7390 C   0  0  0  0  0  0  0  0  0  0  0  0
  -26.5890  -13.1500   20.1200 N   0  0  0  0  0  0  0  0  0  0  0  0
  -26.2420  -11.8540   20.3290 N   0  0  0  0  0  0  0  0  0  0  0  0
  -24.2630  -10.6060   20.9100 C   0  0  0  0  0  0  0  0  0  0  0  0
  -24.6610   -9.6580   21.8790 C   0  0  0  0  0  3  0  0  0  0  0  0
  -23.9460   -8.4520   22.0360 C   0  0  0  0  0  3  0  0  0  0  0  0
  -22.8170   -8.1870   21.2250 C   0  0  0  0  0  0  0  0  0  0  0  0
  -22.4400   -9.1220   20.2460 C   0  0  0  0  0  3  0  0  0  0  0  0
  -23.1570  -10.3200   20.0860 C   0  0  0  0  0  3  0  0  0  0  0  0
  -22.0770   -7.0310   21.2890 O   0  0  0  0  0  0  0  0  0  0  0  0
  -21.8260   -6.4020   22.4820 C   0  0  0  0  0  0  0  0  0  0  0  0
  -21.1680   -7.0570   23.5460 C   0  0  0  0  0  3  0  0  0  0  0  0
  -20.8680   -6.3520   24.7290 C   0  0  0  0  0  3  0  0  0  0  0  0
  -21.2170   -4.9930   24.8470 C   0  0  0  0  0  0  0  0  0  0  0  0
  -21.8690   -4.3380   23.7880 C   0  0  0  0  0  3  0  0  0  0  0  0
  -22.1710   -5.0410   22.6070 C   0  0  0  0  0  0  0  0  0  0  0  0
  -22.7790   -4.3990   21.5800 F   0  0  0  0  0  0  0  0  0  0  0  0
  -20.9230   -4.3140   25.9800 F   0  0  0  0  0  0  0  0  0  0  0  0
  -23.1600  -13.6860   21.2960 C   0  0  0  0  0  0  0  0  0  0  0  0
  -22.5110  -12.9560   22.1980 N   0  0  0  0  0  0  0  0  0  0  0  0
  -22.6770  -14.7270   20.8530 O   0  0  0  0  0  0  0  0  0  0  0  0
  -22.9170  -12.1130   22.5760 H   0  0  0  0  0  0  0  0  0  0  0  0
  -21.5980  -13.2450   22.5150 H   0  0  0  0  0  0  0  0  0  0  0  0
  -25.7250  -15.3950   20.3800 N   0  0  0  0  0  0  0  0  0  0  0  0
  -24.9710  -16.0360   20.5960 H   0  0  0  0  0  0  0  0  0  0  0  0
  -26.5580  -15.8630   20.0440 H   0  0  0  0  0  0  0  0  0  0  0  0
  -32.2040  -20.3280   23.5020 C   0  0  0  0  0  1  0  0  0  0  0  0
  -30.7680  -19.7860   23.5530 C   0  0  0  0  0  2  0  0  0  0  0  0
  -29.0810  -24.2890   20.6740 C   0  0  0  0  0  0  0  0  0  0  0  0
  -28.7130  -24.5480   21.8250 O   0  0  0  0  0  0  0  0  0  0  0  0
  -28.9630  -25.4340   19.5950 C   0  0  0  0  0  2  0  0  0  0  0  0
  -28.7910  -26.8080   20.1180 O   0  0  0  0  0  0  0  0  0  0  0  0
  -24.6750  -31.8100   23.2110 C   0  0  0  0  0  0  0  0  0  0  0  0
  -27.5830  -27.5160   20.0620 C   0  0  0  0  0  0  0  0  0  0  0  0
  -23.5660  -30.3890   21.5210 C   0  0  0  0  0  3  0  0  0  0  0  0
  -25.1130  -28.9630   20.0700 C   0  0  0  0  0  0  0  0  0  0  0  0
  -26.0800  -30.8700   21.3640 C   0  0  0  0  0  2  0  0  0  0  0  0
  -26.2430  -29.5170   20.6830 C   0  0  0  0  0  0  0  0  0  0  0  0
  -27.4750  -28.8050   20.6660 C   0  0  0  0  0  3  0  0  0  0  0  0
  -26.4220  -26.9980   19.4450 C   0  0  0  0  0  3  0  0  0  0  0  0
  -25.2040  -27.7070   19.4470 C   0  0  0  0  0  3  0  0  0  0  0  0
  -23.8260  -29.7610   20.1260 C   0  0  0  0  0  2  0  0  0  0  0  0
  -24.7910  -31.0400   22.0890 N   0  0  0  0  0  0  0  0  0  0  0  0
  -23.5730  -32.0080   23.7440 O   0  0  0  0  0  0  0  0  0  0  0  0
  -22.9590  -29.3110   22.4500 C   0  0  0  0  0  0  0  0  0  0  0  0
  -21.6560  -29.0290   22.2810 N   0  0  0  0  0  0  0  0  0  0  0  0
  -23.6600  -28.7310   23.2840 O   0  0  0  0  0  0  0  0  0  0  0  0
  -21.1460  -29.5550   21.5850 H   0  0  0  0  0  0  0  0  0  0  0  0
  -18.3820  -27.5300   22.6190 C   0  0  0  0  0  0  0  0  0  0  0  0
  -20.8900  -28.0200   23.0140 C   0  0  0  0  0  3  0  0  0  0  0  0
  -21.1490  -26.6050   22.4500 C   0  0  0  0  0  2  0  0  0  0  0  0
  -20.1340  -26.1850   21.3840 C   0  0  0  0  0  2  0  0  0  0  0  0
  -18.7120  -26.2050   21.9550 C   0  0  0  0  0  2  0  0  0  0  0  0
  -19.4040  -28.3910   23.1020 C   0  0  0  0  0  0  0  0  0  0  0  0
  -19.0430  -29.6270   23.6800 C   0  0  0  0  0  3  0  0  0  0  0  0
  -17.6910  -30.0060   23.7810 C   0  0  0  0  0  3  0  0  0  0  0  0
  -16.6830  -29.1450   23.3160 C   0  0  0  0  0  3  0  0  0  0  0  0
  -17.0290  -27.9090   22.7410 C   0  0  0  0  0  3  0  0  0  0  0  0
  -25.9140  -32.5000   23.8610 C   0  0  0  0  0  3  0  0  0  0  0  0
  -26.4620  -31.7310   25.1250 C   0  0  1  0  0  0  0  0  0  0  0  0
  -25.3710  -31.3880   26.1660 C   0  0  0  0  0  1  0  0  0  0  0  0
  -27.1470  -30.4090   24.7050 C   0  0  0  0  0  1  0  0  0  0  0  0
  -27.5470  -32.5820   25.8270 C   0  0  0  0  0  1  0  0  0  0  0  0
  -25.5240  -33.8700   24.2210 N   0  0  0  0  0  0  0  0  0  0  0  0
  -25.8020  -34.9590   23.4920 C   0  0  0  0  0  0  0  0  0  0  0  0
  -26.4850  -34.9180   22.4640 O   0  0  0  0  0  0  0  0  0  0  0  0
  -24.9200  -33.9730   25.0230 H   0  0  0  0  0  0  0  0  0  0  0  0
  -23.9750  -36.6550   23.1690 C   0  0  0  0  0  1  0  0  0  0  0  0
  -25.2350  -36.3060   23.9790 C   0  0  0  0  0  3  0  0  0  0  0  0
  -27.3120  -37.2930   24.8390 C   0  0  0  0  0  1  0  0  0  0  0  0
  -26.2050  -37.4200   23.8940 N   0  0  0  0  0  0  0  0  0  0  0  0
  -25.7450  -38.3120   24.0600 H   0  0  0  0  0  0  0  0  0  0  0  0
  2  4  1  0
  2  1  1  0
  3  8  1  0
  3  1  1  0
  4 51  1  0
  4  3  1  0
  5  8  1  0
  6  5  2  0
  6 10  1  0
  7  9  1  0
  8  9  2  0
  9 50  1  0
 10  7  2  0
 11 19  1  0
 12 17  1  0
 13 14  1  0
 13 12  1  0
 15 14  1  0
 15 24  1  0
 15 16  1  0
 17 11  1  0
 17 16  1  0
 18 11  2  0
 19 10  1  0
 19 20  1  0
 21 22  2  0
 22 41  1  0
 23 22  1  0
 23 26  1  0
 24 25  1  0
 24 21  1  0
 25 23  2  0
 26 27  1  0
 27 28  2  0
 29 32  1  0
 29 28  1  0
 30 29  2  0
 31 30  1  0
 31 26  2  0
 32 33  1  0
 33 38  2  0
 33 34  1  0
 34 35  2  0
 35 36  1  0
 36 40  1  0
 37 36  2  0
 38 37  1  0
 39 38  1  0
 41 42  1  0
 42 45  1  0
 42 44  1  0
 43 41  2  0
 46 21  1  0
 46 47  1  0
 48 46  1  0
 49 50  1  0
 51 52  2  0
 53 54  1  0
 53 51  1  0
 55 66  2  0
 56 54  1  0
 56 61  1  0
 57 65  1  0
 57 67  1  0
 58 64  1  0
 58 60  1  0
 59 65  1  0
 60 59  1  0
 61 60  2  0
 62 63  1  0
 62 56  2  0
 63 58  2  0
 64 57  1  0
 65 55  1  0
 67 69  2  0
 68 67  1  0
 70 68  1  0
 71 80  2  0
 71 76  1  0
 72 68  1  0
 72 76  1  0
 73 72  1  0
 74 75  1  0
 74 73  1  0
 75 71  1  0
 76 77  2  0
 77 78  1  0
 79 78  2  0
 80 79  1  0
 81 55  1  0
 81 86  1  0
 81 82  1  0
 82 85  1  1
 82 83  1  0
 84 82  1  0
 86 89  1  0
 87 91  1  0
 87 86  1  0
 88 87  2  0
 91 90  1  0
 93 91  1  0
 93 94  1  0
 93 92  1  0
M  ISO  4  11 100  19 100  53 101  54 101
M  END
>  <TORSDO>  (58) 
F 20

>  <SCORE>  (58) 
-12.584

>  <name>  (58) 
57

>  <ligand_id>  (58) 
57

>  <original_smiles>  (58) 
[H]c1c([H])c([H])c2c(c1[H])C([H])([H])C([H])([H])C([H])([H])C2([H])N([H])C(=O)C1([H])N(C(=O)C([H])(N([H])C(=O)C([H])(N([H])C([H])([H])[H])C([H])([H])[H])C(C([H])([H])[H])(C([H])([H])[H])C([H])([H])[H])C([H])([H])c2c([H])c(OC([H])([H])C(=O)C3([H])C([H])([H])C([H])([H])C3([H])c3c([H])c([H])c(N([H])C(=O)N4C([H])([H])C([H])([H])C([H])([H])C([H])(n5nc(-c6c([H])c([H])c(Oc7c([H])c([H])c(F)c([H])c7F)c([H])c6[H])c(C(=O)N([H])[H])c5N([H])[H])C4([H])[H])c([H])c3C([H])([H])C([H])([H])[H])c([H])c([H])c2C1([H])[H]

>  <smiles>  (58) 
[H]c1c([H])c([H])c2c(c1[H])C([H])([H])C([H])([H])C([H])([H])C2([H])N([H])C(=O)C1([H])N(C(=O)C([H])(N([H])C(=O)C([H])(N([H])C([H])([H])[H])C([H])([H])[H])C(C([H])([H])[H])(C([H])([H])[H])C([H])([H])[H])C([H])([H])c2c([H])c(OC([H])([H])C(=O)C3([H])C([H])([H])C([H])([H])C3([H])c3c([H])c([H])c(N([H])C(=O)N4C([H])([H])C([H])([H])C([H])([H])C([H])(n5nc(-c6c([H])c([H])c(Oc7c([H])c([H])c(F)c([H])c7F)c([H])c6[H])c(C(=O)N([H])[H])c5N([H])[H])C4([H])[H])c([H])c3C([H])([H])C([H])([H])[H])c([H])c([H])c2C1([H])[H]

$$$$
58:0:0
     RDKit          3D

 97106  0  0  1  0  0  0  0  0999 V2000
  -28.7060  -24.2910   20.3660 C   0  0  0  0  0  0  0  0  0  0  0  0
  -28.1810  -25.4960   20.7040 C   0  0  0  0  0  2  0  0  0  0  0  0
  -29.0480  -20.5980   20.8820 C   0  0  0  0  0  3  0  0  0  0  0  0
  -29.7920  -23.9860   19.3640 C   0  0  0  0  0  3  0  0  0  0  0  0
  -28.2380  -22.9820   20.9860 C   0  0  0  0  0  3  0  0  0  0  0  0
  -30.1760  -22.5030   19.5940 C   0  0  0  0  0  3  0  0  0  0  0  0
  -29.1650  -21.9180   20.5090 N   0  0  0  0  0  0  0  0  0  0  0  0
  -27.9740  -20.2810   21.6060 N   0  0  0  0  0  0  0  0  0  0  0  0
  -27.8050  -19.3070   21.8140 H   0  0  0  0  0  0  0  0  0  0  0  0
  -27.2650  -20.9510   21.8440 H   0  0  0  0  0  0  0  0  0  0  0  0
  -31.3990  -19.8160   20.5840 C   0  0  0  0  0  3  0  0  0  0  0  0
  -31.9830  -17.4540   20.3850 C   0  0  0  0  0  3  0  0  0  0  0  0
  -30.0240  -19.5030   20.6090 C   0  0  0  0  0  0  0  0  0  0  0  0
  -30.6150  -17.0830   20.4120 C   0  0  0  0  0  0  0  0  0  0  0  0
  -32.3670  -18.8050   20.4630 C   0  0  0  0  0  0  0  0  0  0  0  0
  -29.6460  -18.1230   20.5250 C   0  0  0  0  0  0  0  0  0  0  0  0
  -33.6810  -19.1330   20.4570 F   0  0  0  0  0  0  0  0  0  0  0  0
  -28.3390  -17.7660   20.6000 F   0  0  0  0  0  0  0  0  0  0  0  0
  -30.8640  -14.6180   19.9380 C   0  0  0  0  0  0  0  0  0  0  0  0
  -30.5460  -12.3740   18.9530 C   0  0  0  0  0  2  0  0  0  0  0  0
  -29.5570  -12.4710   17.7730 C   0  0  0  0  0  2  0  0  0  0  0  0
  -28.1070  -12.3300   18.2720 C   0  0  0  0  0  2  0  0  0  0  0  0
  -27.7980  -13.2440   19.4880 C   0  0  0  0  0  3  0  0  0  0  0  0
  -28.9020  -13.1450   20.5650 C   0  0  0  0  0  2  0  0  0  0  0  0
  -30.1910  -13.4310   19.9170 N   0  0  0  0  0  0  0  0  0  0  0  0
  -31.9770  -14.7350   19.4200 O   0  0  0  0  0  0  0  0  0  0  0  0
  -30.1870  -15.7000   20.3940 N   0  0  0  0  0  0  0  0  0  0  0  0
  -29.2290  -15.5360   20.6630 H   0  0  0  0  0  0  0  0  0  0  0  0
  -25.4470  -13.8560   20.3320 C   0  0  0  0  0  0  0  0  0  0  0  0
  -24.3950  -13.0870   20.7520 C   0  0  0  0  0  0  0  0  0  0  0  0
  -24.8460  -11.7330   20.6860 C   0  0  0  0  0  0  0  0  0  0  0  0
  -26.4730  -12.9700   20.0390 N   0  0  0  0  0  0  0  0  0  0  0  0
  -26.1180  -11.6890   20.3110 N   0  0  0  0  0  0  0  0  0  0  0  0
  -24.1220  -10.4750   20.9060 C   0  0  0  0  0  0  0  0  0  0  0  0
  -24.5280   -9.5510   21.8950 C   0  0  0  0  0  3  0  0  0  0  0  0
  -23.8040   -8.3570   22.0990 C   0  0  0  0  0  3  0  0  0  0  0  0
  -22.6590   -8.0760   21.3150 C   0  0  0  0  0  0  0  0  0  0  0  0
  -22.2730   -8.9870   20.3170 C   0  0  0  0  0  3  0  0  0  0  0  0
  -22.9980  -10.1730   20.1110 C   0  0  0  0  0  3  0  0  0  0  0  0
  -21.9110   -6.9300   21.4260 O   0  0  0  0  0  0  0  0  0  0  0  0
  -21.7370   -6.2970   22.6300 C   0  0  0  0  0  0  0  0  0  0  0  0
  -21.1590   -6.9510   23.7400 C   0  0  0  0  0  3  0  0  0  0  0  0
  -20.9350   -6.2430   24.9380 C   0  0  0  0  0  3  0  0  0  0  0  0
  -21.2790   -4.8810   25.0250 C   0  0  0  0  0  0  0  0  0  0  0  0
  -21.8510   -4.2250   23.9200 C   0  0  0  0  0  3  0  0  0  0  0  0
  -22.0770   -4.9310   22.7250 C   0  0  0  0  0  0  0  0  0  0  0  0
  -22.6070   -4.2910   21.6560 F   0  0  0  0  0  0  0  0  0  0  0  0
  -21.0580   -4.1980   26.1730 F   0  0  0  0  0  0  0  0  0  0  0  0
  -23.0180  -13.5720   21.1010 C   0  0  0  0  0  0  0  0  0  0  0  0
  -22.3330  -12.8740   22.0020 N   0  0  0  0  0  0  0  0  0  0  0  0
  -22.5600  -14.6040   20.6130 O   0  0  0  0  0  0  0  0  0  0  0  0
  -22.7180  -12.0400   22.4190 H   0  0  0  0  0  0  0  0  0  0  0  0
  -21.4110  -13.1810   22.2780 H   0  0  0  0  0  0  0  0  0  0  0  0
  -25.6110  -15.2270   20.1560 N   0  0  0  0  0  0  0  0  0  0  0  0
  -24.8530  -15.8830   20.3110 H   0  0  0  0  0  0  0  0  0  0  0  0
  -26.4460  -15.6700   19.7950 H   0  0  0  0  0  0  0  0  0  0  0  0
  -28.4580  -26.7480   20.1670 O   0  0  0  0  0  0  0  0  0  0  0  0
  -24.6380  -31.9460   23.2580 C   0  0  0  0  0  0  0  0  0  0  0  0
  -27.3490  -27.5760   20.1080 C   0  0  0  0  0  0  0  0  0  0  0  0
  -23.4590  -30.5530   21.5890 C   0  0  0  0  0  3  0  0  0  0  0  0
  -24.9430  -29.0720   20.1320 C   0  0  0  0  0  0  0  0  0  0  0  0
  -25.9840  -30.9510   21.4060 C   0  0  0  0  0  2  0  0  0  0  0  0
  -26.0950  -29.5940   20.7350 C   0  0  0  0  0  0  0  0  0  0  0  0
  -27.3060  -28.8540   20.7200 C   0  0  0  0  0  3  0  0  0  0  0  0
  -26.1820  -27.0870   19.4810 C   0  0  0  0  0  3  0  0  0  0  0  0
  -24.9830  -27.8200   19.4980 C   0  0  0  0  0  3  0  0  0  0  0  0
  -23.6830  -29.9080   20.1970 C   0  0  0  0  0  2  0  0  0  0  0  0
  -24.7120  -31.1630   22.1430 N   0  0  0  0  0  0  0  0  0  0  0  0
  -23.5510  -32.1920   23.7980 O   0  0  0  0  0  0  0  0  0  0  0  0
  -22.8220  -29.5050   22.5310 C   0  0  0  0  0  0  0  0  0  0  0  0
  -21.5000  -29.3020   22.3970 N   0  0  0  0  0  0  0  0  0  0  0  0
  -23.5140  -28.8780   23.3370 O   0  0  0  0  0  0  0  0  0  0  0  0
  -21.0030  -29.8610   21.7180 H   0  0  0  0  0  0  0  0  0  0  0  0
  -18.1490  -28.0250   22.8500 C   0  0  0  0  0  0  0  0  0  0  0  0
  -20.6980  -28.3370   23.1480 C   0  0  0  0  0  3  0  0  0  0  0  0
  -20.8380  -26.9160   22.5560 C   0  0  0  0  0  2  0  0  0  0  0  0
  -19.7530  -26.5810   21.5290 C   0  0  0  0  0  2  0  0  0  0  0  0
  -18.3610  -26.6880   22.1610 C   0  0  0  0  0  2  0  0  0  0  0  0
  -19.2460  -28.8080   23.2990 C   0  0  0  0  0  0  0  0  0  0  0  0
  -18.9940  -30.0590   23.9010 C   0  0  0  0  0  3  0  0  0  0  0  0
  -17.6770  -30.5290   24.0600 C   0  0  0  0  0  3  0  0  0  0  0  0
  -16.5940  -29.7440   23.6270 C   0  0  0  0  0  3  0  0  0  0  0  0
  -16.8310  -28.4940   23.0280 C   0  0  0  0  0  3  0  0  0  0  0  0
  -25.9120  -32.5880   23.8900 C   0  0  0  0  0  3  0  0  0  0  0  0
  -25.5870  -33.9830   24.2180 N   0  0  0  0  0  0  0  0  0  0  0  0
  -25.9110  -35.0370   23.4580 C   0  0  0  0  0  0  0  0  0  0  0  0
  -26.5840  -34.9380   22.4280 O   0  0  0  0  0  0  0  0  0  0  0  0
  -24.9900  -34.1330   25.0170 H   0  0  0  0  0  0  0  0  0  0  0  0
  -24.1620  -36.8090   23.0960 C   0  0  0  0  0  1  0  0  0  0  0  0
  -25.4070  -36.4220   23.9110 C   0  0  0  0  0  3  0  0  0  0  0  0
  -27.5290  -37.3330   24.7450 C   0  0  0  0  0  1  0  0  0  0  0  0
  -26.4280  -37.4850   23.7970 N   0  0  0  0  0  0  0  0  0  0  0  0
  -26.0120  -38.4010   23.9380 H   0  0  0  0  0  0  0  0  0  0  0  0
  -26.4250  -31.8200   25.1700 C   0  0  1  0  0  0  0  0  0  0  0  0
  -25.3230  -31.5640   26.2260 C   0  0  0  0  0  1  0  0  0  0  0  0
  -27.0280  -30.4510   24.7790 C   0  0  0  0  0  1  0  0  0  0  0  0
  -27.5580  -32.6260   25.8460 C   0  0  0  0  0  1  0  0  0  0  0  0
  1  2  1  0
  1  5  2  0
  3  8  1  0
  4  6  2  0
  4  1  1  0
  6  7  1  0
  7  3  1  0
  7  5  1  0
  8  9  1  0
  8 10  1  0
 11 13  1  0
 12 14  2  0
 12 15  1  0
 13  3  1  0
 14 16  1  0
 15 11  2  0
 16 18  1  0
 16 13  2  0
 17 15  1  0
 19 27  1  0
 20 25  1  0
 21 22  1  0
 21 20  1  0
 23 22  1  0
 23 32  1  0
 23 24  1  0
 25 19  1  0
 25 24  1  0
 26 19  2  0
 27 14  1  0
 27 28  1  0
 29 30  2  0
 30 49  1  0
 31 30  1  0
 31 34  1  0
 32 33  1  0
 32 29  1  0
 33 31  2  0
 34 35  1  0
 35 36  2  0
 37 40  1  0
 37 36  1  0
 38 37  2  0
 39 38  1  0
 39 34  2  0
 40 41  1  0
 41 46  2  0
 41 42  1  0
 42 43  2  0
 43 44  1  0
 44 48  1  0
 45 44  2  0
 46 45  1  0
 47 46  1  0
 49 50  1  0
 50 53  1  0
 50 52  1  0
 51 49  2  0
 54 55  1  0
 54 29  1  0
 56 54  1  0
 57  2  1  0
 58 69  2  0
 59 57  1  0
 59 64  1  0
 60 68  1  0
 60 70  1  0
 61 67  1  0
 61 63  1  0
 62 68  1  0
 63 62  1  0
 64 63  2  0
 65 66  1  0
 65 59  2  0
 66 61  2  0
 67 60  1  0
 68 58  1  0
 70 72  2  0
 71 70  1  0
 73 71  1  0
 74 83  2  0
 74 79  1  0
 75 71  1  0
 75 79  1  0
 76 75  1  0
 77 78  1  0
 77 76  1  0
 78 74  1  0
 79 80  2  0
 80 81  1  0
 82 81  2  0
 83 82  1  0
 84 58  1  0
 84 85  1  0
 84 94  1  0
 85 88  1  0
 86 90  1  0
 86 85  1  0
 87 86  2  0
 90 89  1  0
 92 90  1  0
 92 93  1  0
 92 91  1  0
 94 97  1  1
 94 95  1  0
 96 94  1  0
M  ISO  4   2 101  19 100  27 100  57 101
M  END
>  <TORSDO>  (59) 
F 17

>  <SCORE>  (59) 
-14.695

>  <name>  (59) 
58

>  <ligand_id>  (59) 
58

>  <original_smiles>  (59) 
[H]C(Oc1c([H])c([H])c2c(c1[H])C([H])([H])N(C(=O)C([H])(N([H])C(=O)C([H])(N([H])C([H])([H])[H])C([H])([H])[H])C(C([H])([H])[H])(C([H])([H])[H])C([H])([H])[H])C([H])(C(=O)N([H])C1([H])c3c([H])c([H])c([H])c([H])c3C([H])([H])C([H])([H])C1([H])[H])C2([H])[H])=C1C([H])([H])N(C(c2c([H])c(F)c([H])c(N([H])C(=O)N3C([H])([H])C([H])([H])C([H])([H])C([H])(n4nc(-c5c([H])c([H])c(Oc6c([H])c([H])c(F)c([H])c6F)c([H])c5[H])c(C(=O)N([H])[H])c4N([H])[H])C3([H])[H])c2F)=[N+]([H])[H])C([H])([H])C1([H])[H]

>  <smiles>  (59) 
[H]C(Oc1c([H])c([H])c2c(c1[H])C([H])([H])N(C(=O)C([H])(N([H])C(=O)C([H])(N([H])C([H])([H])[H])C([H])([H])[H])C(C([H])([H])[H])(C([H])([H])[H])C([H])([H])[H])C([H])(C(=O)N([H])C1([H])c3c([H])c([H])c([H])c([H])c3C([H])([H])C([H])([H])C1([H])[H])C2([H])[H])=C1C([H])([H])N(C(c2c([H])c(F)c([H])c(N([H])C(=O)N3C([H])([H])C([H])([H])C([H])([H])C([H])(n4nc(-c5c([H])c([H])c(Oc6c([H])c([H])c(F)c([H])c6F)c([H])c5[H])c(C(=O)N([H])[H])c4N([H])[H])C3([H])[H])c2F)=[N+]([H])[H])C([H])([H])C1([H])[H]

$$$$
59:0:0
     RDKit          3D

 96104  0  0  1  0  0  0  0  0999 V2000
  -30.0680  -19.5470   21.8120 C   0  0  0  0  0  3  0  0  0  0  0  0
  -29.9240  -18.0830   19.8810 C   0  0  0  0  0  3  0  0  0  0  0  0
  -30.6430  -18.5080   22.5720 C   0  0  0  0  0  0  0  0  0  0  0  0
  -30.8230  -17.2160   21.9950 C   0  0  0  0  0  0  0  0  0  0  0  0
  -30.4680  -16.9940   20.6340 C   0  0  0  0  0  0  0  0  0  0  0  0
  -29.7040  -19.3760   20.4600 C   0  0  0  0  0  0  0  0  0  0  0  0
  -31.2980  -16.0270   22.8350 C   0  0  0  0  0  1  0  0  0  0  0  0
  -31.2460  -14.5990   19.9640 C   0  0  0  0  0  0  0  0  0  0  0  0
  -30.9730  -12.3250   18.9870 C   0  0  0  0  0  2  0  0  0  0  0  0
  -30.0030  -12.4470   17.7880 C   0  0  0  0  0  2  0  0  0  0  0  0
  -28.5270  -12.3890   18.2440 C   0  0  0  0  0  2  0  0  0  0  0  0
  -28.2380  -13.3250   19.4470 C   0  0  0  0  0  3  0  0  0  0  0  0
  -29.3030  -13.1160   20.5490 C   0  0  0  0  0  2  0  0  0  0  0  0
  -30.6200  -13.3850   19.9450 N   0  0  0  0  0  0  0  0  0  0  0  0
  -32.4030  -14.7600   19.5620 O   0  0  0  0  0  0  0  0  0  0  0  0
  -30.3710  -15.6150   20.2060 N   0  0  0  0  0  0  0  0  0  0  0  0
  -29.4670  -15.2190   20.4070 H   0  0  0  0  0  0  0  0  0  0  0  0
  -25.9200  -14.1270   20.2190 C   0  0  0  0  0  0  0  0  0  0  0  0
  -24.8020  -13.4420   20.6160 C   0  0  0  0  0  0  0  0  0  0  0  0
  -25.1520  -12.0570   20.5700 C   0  0  0  0  0  0  0  0  0  0  0  0
  -26.8820  -13.1630   19.9600 N   0  0  0  0  0  0  0  0  0  0  0  0
  -26.4260  -11.9150   20.2280 N   0  0  0  0  0  0  0  0  0  0  0  0
  -24.3330  -10.8570   20.7780 C   0  0  0  0  0  0  0  0  0  0  0  0
  -24.6640   -9.9010   21.7640 C   0  0  0  0  0  3  0  0  0  0  0  0
  -23.8530   -8.7620   21.9550 C   0  0  0  0  0  3  0  0  0  0  0  0
  -22.6970   -8.5710   21.1620 C   0  0  0  0  0  0  0  0  0  0  0  0
  -22.3870   -9.5140   20.1650 C   0  0  0  0  0  3  0  0  0  0  0  0
  -23.1970  -10.6440   19.9730 C   0  0  0  0  0  3  0  0  0  0  0  0
  -21.8640   -7.4830   21.2620 O   0  0  0  0  0  0  0  0  0  0  0  0
  -21.6450   -6.8530   22.4610 C   0  0  0  0  0  0  0  0  0  0  0  0
  -21.1220   -7.5400   23.5780 C   0  0  0  0  0  3  0  0  0  0  0  0
  -20.8450   -6.8370   24.7680 C   0  0  0  0  0  3  0  0  0  0  0  0
  -21.0810   -5.4520   24.8390 C   0  0  0  0  0  0  0  0  0  0  0  0
  -21.5950   -4.7660   23.7240 C   0  0  0  0  0  3  0  0  0  0  0  0
  -21.8730   -5.4660   22.5370 C   0  0  0  0  0  0  0  0  0  0  0  0
  -22.3490   -4.7970   21.4600 F   0  0  0  0  0  0  0  0  0  0  0  0
  -20.8080   -4.7750   25.9790 F   0  0  0  0  0  0  0  0  0  0  0  0
  -23.4560  -14.0270   20.9250 C   0  0  0  0  0  0  0  0  0  0  0  0
  -22.7070  -13.4010   21.8280 N   0  0  0  0  0  0  0  0  0  0  0  0
  -23.0760  -15.0730   20.3980 O   0  0  0  0  0  0  0  0  0  0  0  0
  -23.0290  -12.5550   22.2750 H   0  0  0  0  0  0  0  0  0  0  0  0
  -21.8030  -13.7750   22.0790 H   0  0  0  0  0  0  0  0  0  0  0  0
  -26.1900  -15.4800   20.0410 N   0  0  0  0  0  0  0  0  0  0  0  0
  -25.4750  -16.1860   20.1680 H   0  0  0  0  0  0  0  0  0  0  0  0
  -27.0450  -15.8530   19.6490 H   0  0  0  0  0  0  0  0  0  0  0  0
  -30.9120  -18.8390   23.9990 C   0  0  0  0  0  0  0  0  0  0  0  0
  -32.3600  -18.7940   24.4760 C   0  0  0  0  0  1  0  0  0  0  0  0
  -30.0360  -19.2340   24.7720 O   0  0  0  0  0  0  0  0  0  0  0  0
  -29.1430  -20.4170   19.7090 O   0  0  0  0  0  0  0  0  0  0  0  0
  -28.5760  -21.6030   20.3550 C   0  0  0  0  0  2  0  0  0  0  0  0
  -27.8500  -22.2780   18.0360 C   0  0  0  0  0  1  0  0  0  0  0  0
  -29.7460  -23.4900   19.1200 C   0  0  0  0  0  1  0  0  0  0  0  0
  -28.3760  -22.8270   19.3810 C   0  0  2  0  0  0  0  0  0  0  0  0
  -27.3130  -23.9200   19.8330 C   0  0  0  0  0  2  0  0  0  0  0  0
  -27.6340  -25.0020   20.9210 C   0  0  0  0  0  2  0  0  0  0  0  0
  -27.7650  -26.3660   20.4210 O   0  0  0  0  0  0  0  0  0  0  0  0
  -24.5350  -32.0140   23.4090 C   0  0  0  0  0  0  0  0  0  0  0  0
  -26.6580  -27.2040   20.4420 C   0  0  0  0  0  0  0  0  0  0  0  0
  -23.1430  -30.6420   21.8930 C   0  0  0  0  0  3  0  0  0  0  0  0
  -24.3970  -28.9250   20.4790 C   0  0  0  0  0  0  0  0  0  0  0  0
  -25.6770  -30.7820   21.5590 C   0  0  0  0  0  2  0  0  0  0  0  0
  -25.6240  -29.3760   20.9830 C   0  0  0  0  0  0  0  0  0  0  0  0
  -26.7570  -28.5250   20.9500 C   0  0  0  0  0  3  0  0  0  0  0  0
  -25.4130  -26.7750   19.9350 C   0  0  0  0  0  3  0  0  0  0  0  0
  -24.2890  -27.6270   19.9480 C   0  0  0  0  0  3  0  0  0  0  0  0
  -23.2300  -29.8870   20.5410 C   0  0  0  0  0  2  0  0  0  0  0  0
  -24.4740  -31.1640   22.3430 N   0  0  0  0  0  0  0  0  0  0  0  0
  -23.5070  -32.3950   23.9880 O   0  0  0  0  0  0  0  0  0  0  0  0
  -22.4630  -29.7220   22.9330 C   0  0  0  0  0  0  0  0  0  0  0  0
  -21.1560  -29.4730   22.7510 N   0  0  0  0  0  0  0  0  0  0  0  0
  -23.1120  -29.2290   23.8590 O   0  0  0  0  0  0  0  0  0  0  0  0
  -20.6920  -29.9190   21.9710 H   0  0  0  0  0  0  0  0  0  0  0  0
  -17.8540  -28.0400   23.0680 C   0  0  0  0  0  0  0  0  0  0  0  0
  -20.3250  -28.6010   23.5810 C   0  0  0  0  0  3  0  0  0  0  0  0
  -20.6190  -27.1110   23.2870 C   0  0  0  0  0  2  0  0  0  0  0  0
  -19.6880  -26.5100   22.2300 C   0  0  0  0  0  2  0  0  0  0  0  0
  -18.2270  -26.6200   22.6740 C   0  0  0  0  0  2  0  0  0  0  0  0
  -18.8420  -28.9740   23.4800 C   0  0  0  0  0  0  0  0  0  0  0  0
  -18.4470  -30.2910   23.8040 C   0  0  0  0  0  3  0  0  0  0  0  0
  -17.0950  -30.6760   23.7270 C   0  0  0  0  0  3  0  0  0  0  0  0
  -16.1200  -29.7440   23.3350 C   0  0  0  0  0  3  0  0  0  0  0  0
  -16.4990  -28.4290   23.0100 C   0  0  0  0  0  3  0  0  0  0  0  0
  -25.8950  -32.5720   23.9360 C   0  0  0  0  0  3  0  0  0  0  0  0
  -25.6950  -33.9870   24.2750 N   0  0  0  0  0  0  0  0  0  0  0  0
  -26.0400  -35.0140   23.4860 C   0  0  0  0  0  0  0  0  0  0  0  0
  -26.6320  -34.8650   22.4130 O   0  0  0  0  0  0  0  0  0  0  0  0
  -25.1660  -34.1810   25.1120 H   0  0  0  0  0  0  0  0  0  0  0  0
  -24.3980  -36.9060   23.2420 C   0  0  0  0  0  1  0  0  0  0  0  0
  -25.6680  -36.4310   23.9650 C   0  0  0  0  0  3  0  0  0  0  0  0
  -27.9060  -37.1930   24.6300 C   0  0  0  0  0  1  0  0  0  0  0  0
  -26.7490  -37.4200   23.7670 N   0  0  0  0  0  0  0  0  0  0  0  0
  -26.4090  -38.3630   23.9360 H   0  0  0  0  0  0  0  0  0  0  0  0
  -26.4510  -31.7760   25.1800 C   0  0  1  0  0  0  0  0  0  0  0  0
  -25.4120  -31.5760   26.3070 C   0  0  0  0  0  1  0  0  0  0  0  0
  -26.9590  -30.3790   24.7510 C   0  0  0  0  0  1  0  0  0  0  0  0
  -27.6660  -32.5230   25.7790 C   0  0  0  0  0  1  0  0  0  0  0  0
  1  3  1  0
  2  6  1  0
  2  5  2  0
  3 46  1  0
  4  3  2  0
  4  7  1  0
  5  4  1  0
  6  1  2  0
  8 16  1  0
  9 14  1  0
 10 11  1  0
 10  9  1  0
 12 11  1  0
 12 21  1  0
 12 13  1  0
 14  8  1  0
 14 13  1  0
 15  8  2  0
 16 17  1  0
 16  5  1  0
 18 19  2  0
 19 38  1  0
 20 19  1  0
 20 23  1  0
 21 18  1  0
 21 22  1  0
 22 20  2  0
 23 24  1  0
 24 25  2  0
 26 29  1  0
 26 25  1  0
 27 26  2  0
 28 27  1  0
 28 23  2  0
 29 30  1  0
 30 35  2  0
 30 31  1  0
 31 32  2  0
 32 33  1  0
 33 37  1  0
 34 33  2  0
 35 34  1  0
 36 35  1  0
 38 39  1  0
 39 42  1  0
 39 41  1  0
 40 38  2  0
 43 44  1  0
 43 18  1  0
 45 43  1  0
 46 47  1  0
 46 48  2  0
 49 50  1  0
 49  6  1  0
 53 51  1  6
 52 53  1  0
 53 54  1  0
 53 50  1  0
 54 55  1  0
 56 58  1  0
 56 55  1  0
 57 68  2  0
 58 63  1  0
 59 67  1  0
 59 69  1  0
 60 66  1  0
 60 62  1  0
 61 67  1  0
 62 61  1  0
 63 62  2  0
 64 65  1  0
 64 58  2  0
 65 60  2  0
 66 59  1  0
 67 57  1  0
 69 71  2  0
 70 69  1  0
 72 70  1  0
 73 78  1  0
 74 70  1  0
 75 74  1  0
 76 77  1  0
 76 75  1  0
 77 73  1  0
 78 74  1  0
 78 79  2  0
 80 79  1  0
 81 80  2  0
 82 73  2  0
 82 81  1  0
 83 57  1  0
 83 84  1  0
 83 93  1  0
 84 87  1  0
 85 89  1  0
 85 84  1  0
 86 85  2  0
 89 88  1  0
 91 92  1  0
 91 89  1  0
 91 90  1  0
 93 96  1  1
 93 94  1  0
 95 93  1  0
M  ISO  4   8 100  16 100  55 101  56 101
M  END
>  <TORSDO>  (60) 
F 22

>  <SCORE>  (60) 
-6.153

>  <name>  (60) 
59

>  <ligand_id>  (60) 
59

>  <original_smiles>  (60) 
[H]c1c([H])c([H])c2c(c1[H])C([H])([H])C([H])([H])C([H])([H])C2([H])N([H])C(=O)C1([H])N(C(=O)C([H])(N([H])C(=O)C([H])(N([H])C([H])([H])[H])C([H])([H])[H])C(C([H])([H])[H])(C([H])([H])[H])C([H])([H])[H])C([H])([H])c2c([H])c(OC([H])([H])C([H])([H])C(C([H])([H])[H])(C([H])([H])[H])C([H])([H])Oc3c([H])c(C(=O)C([H])([H])[H])c(C([H])([H])[H])c(N([H])C(=O)N4C([H])([H])C([H])([H])C([H])([H])C([H])(n5nc(-c6c([H])c([H])c(Oc7c([H])c([H])c(F)c([H])c7F)c([H])c6[H])c(C(=O)N([H])[H])c5N([H])[H])C4([H])[H])c3[H])c([H])c([H])c2C1([H])[H]

>  <smiles>  (60) 
[H]c1c([H])c([H])c2c(c1[H])C([H])([H])C([H])([H])C([H])([H])C2([H])N([H])C(=O)C1([H])N(C(=O)C([H])(N([H])C(=O)C([H])(N([H])C([H])([H])[H])C([H])([H])[H])C(C([H])([H])[H])(C([H])([H])[H])C([H])([H])[H])C([H])([H])c2c([H])c(OC([H])([H])C([H])([H])C(C([H])([H])[H])(C([H])([H])[H])C([H])([H])Oc3c([H])c(C(=O)C([H])([H])[H])c(C([H])([H])[H])c(N([H])C(=O)N4C([H])([H])C([H])([H])C([H])([H])C([H])(n5nc(-c6c([H])c([H])c(Oc7c([H])c([H])c(F)c([H])c7F)c([H])c6[H])c(C(=O)N([H])[H])c5N([H])[H])C4([H])[H])c3[H])c([H])c([H])c2C1([H])[H]

$$$$
60:0:0
     RDKit          3D

 92101  0  0  1  0  0  0  0  0999 V2000
  -28.7010  -24.3410   21.2450 C   0  0  0  0  0  0  0  0  0  0  0  0
  -28.4670  -25.6890   21.1990 C   0  0  0  0  0  3  0  0  0  0  0  0
  -28.8330  -23.6120   22.5650 C   0  0  0  0  0  2  0  0  0  0  0  0
  -28.8650  -23.2770   20.1460 C   0  0  0  0  0  2  0  0  0  0  0  0
  -29.3770  -22.2080   22.2580 C   0  0  0  0  0  2  0  0  0  0  0  0
  -29.2300  -22.0050   20.8240 N   0  0  0  0  0  0  0  0  0  0  0  0
  -28.8640  -19.1800   18.3610 C   0  0  0  0  0  3  0  0  0  0  0  0
  -29.3190  -18.0640   19.0940 C   0  0  0  0  0  3  0  0  0  0  0  0
  -28.8480  -20.4730   18.9300 C   0  0  0  0  0  3  0  0  0  0  0  0
  -29.7380  -19.5400   20.9830 C   0  0  0  0  0  3  0  0  0  0  0  0
  -29.7740  -18.2240   20.4180 C   0  0  0  0  0  0  0  0  0  0  0  0
  -29.2740  -20.6890   20.2580 C   0  0  0  0  0  0  0  0  0  0  0  0
  -30.3660  -17.0200   21.2040 C   0  0  0  0  0  2  0  0  0  0  0  0
  -30.6220  -14.5790   20.4530 C   0  0  0  0  0  0  0  0  0  0  0  0
  -30.3540  -12.3740   19.3500 C   0  0  0  0  0  2  0  0  0  0  0  0
  -29.4070  -12.5250   18.1400 C   0  0  0  0  0  2  0  0  0  0  0  0
  -27.9360  -12.3760   18.5800 C   0  0  0  0  0  2  0  0  0  0  0  0
  -27.5910  -13.2420   19.8220 C   0  0  0  0  0  3  0  0  0  0  0  0
  -28.6520  -13.0690   20.9320 C   0  0  0  0  0  2  0  0  0  0  0  0
  -29.9620  -13.3880   20.3450 N   0  0  0  0  0  0  0  0  0  0  0  0
  -31.7780  -14.7220   20.0430 O   0  0  0  0  0  0  0  0  0  0  0  0
  -29.8940  -15.6380   20.8930 N   0  0  0  0  0  0  0  0  0  0  0  0
  -28.9380  -15.4350   21.1440 H   0  0  0  0  0  0  0  0  0  0  0  0
  -25.2050  -13.8570   20.5510 C   0  0  0  0  0  0  0  0  0  0  0  0
  -24.1350  -13.0900   20.9270 C   0  0  0  0  0  0  0  0  0  0  0  0
  -24.5890  -11.7360   20.8940 C   0  0  0  0  0  0  0  0  0  0  0  0
  -26.2420  -12.9700   20.3120 N   0  0  0  0  0  0  0  0  0  0  0  0
  -25.8770  -11.6890   20.5780 N   0  0  0  0  0  0  0  0  0  0  0  0
  -23.8570  -10.4780   21.0870 C   0  0  0  0  0  0  0  0  0  0  0  0
  -24.3080   -9.4920   21.9930 C   0  0  0  0  0  3  0  0  0  0  0  0
  -23.5770   -8.2980   22.1760 C   0  0  0  0  0  3  0  0  0  0  0  0
  -22.3800   -8.0810   21.4520 C   0  0  0  0  0  0  0  0  0  0  0  0
  -21.9470   -9.0550   20.5350 C   0  0  0  0  0  3  0  0  0  0  0  0
  -22.6790  -10.2400   20.3510 C   0  0  0  0  0  3  0  0  0  0  0  0
  -21.6200   -6.9410   21.5450 O   0  0  0  0  0  0  0  0  0  0  0  0
  -21.6210   -6.1650   22.6750 C   0  0  0  0  0  0  0  0  0  0  0  0
  -21.2850   -6.6920   23.9420 C   0  0  0  0  0  3  0  0  0  0  0  0
  -21.2330   -5.8440   25.0660 C   0  0  0  0  0  3  0  0  0  0  0  0
  -21.5030   -4.4700   24.9250 C   0  0  0  0  0  0  0  0  0  0  0  0
  -21.8290   -3.9420   23.6650 C   0  0  0  0  0  3  0  0  0  0  0  0
  -21.8860   -4.7870   22.5420 C   0  0  0  0  0  0  0  0  0  0  0  0
  -22.1820   -4.2690   21.3260 F   0  0  0  0  0  0  0  0  0  0  0  0
  -21.4440   -3.6530   26.0040 F   0  0  0  0  0  0  0  0  0  0  0  0
  -22.7410  -13.5740   21.2050 C   0  0  0  0  0  0  0  0  0  0  0  0
  -22.0150  -12.8860   22.0780 N   0  0  0  0  0  0  0  0  0  0  0  0
  -22.3050  -14.5990   20.6830 O   0  0  0  0  0  0  0  0  0  0  0  0
  -22.3800  -12.0560   22.5240 H   0  0  0  0  0  0  0  0  0  0  0  0
  -21.0780  -13.1900   22.3040 H   0  0  0  0  0  0  0  0  0  0  0  0
  -25.3770  -15.2260   20.3730 N   0  0  0  0  0  0  0  0  0  0  0  0
  -24.6150  -15.8860   20.4790 H   0  0  0  0  0  0  0  0  0  0  0  0
  -26.2250  -15.6570   20.0260 H   0  0  0  0  0  0  0  0  0  0  0  0
  -28.3360  -26.5400   20.1120 O   0  0  0  0  0  0  0  0  0  0  0  0
  -24.6290  -31.8800   23.2120 C   0  0  0  0  0  0  0  0  0  0  0  0
  -27.2300  -27.3800   20.1270 C   0  0  0  0  0  0  0  0  0  0  0  0
  -23.4080  -30.4750   21.5850 C   0  0  0  0  0  3  0  0  0  0  0  0
  -24.8500  -28.9310   20.1470 C   0  0  0  0  0  0  0  0  0  0  0  0
  -25.9380  -30.8190   21.3670 C   0  0  0  0  0  2  0  0  0  0  0  0
  -26.0190  -29.4420   20.7290 C   0  0  0  0  0  0  0  0  0  0  0  0
  -27.2160  -28.6740   20.7170 C   0  0  0  0  0  3  0  0  0  0  0  0
  -26.0480  -26.9020   19.5300 C   0  0  0  0  0  3  0  0  0  0  0  0
  -24.8620  -27.6630   19.5410 C   0  0  0  0  0  3  0  0  0  0  0  0
  -23.6070  -29.7940   20.2050 C   0  0  0  0  0  2  0  0  0  0  0  0
  -24.6770  -31.0750   22.1120 N   0  0  0  0  0  0  0  0  0  0  0  0
  -23.5520  -32.1550   23.7610 O   0  0  0  0  0  0  0  0  0  0  0  0
  -22.7630  -29.4590   22.5550 C   0  0  0  0  0  0  0  0  0  0  0  0
  -21.4370  -29.2750   22.4400 N   0  0  0  0  0  0  0  0  0  0  0  0
  -23.4520  -28.8380   23.3680 O   0  0  0  0  0  0  0  0  0  0  0  0
  -20.9400  -29.8250   21.7530 H   0  0  0  0  0  0  0  0  0  0  0  0
  -18.0700  -28.0650   22.9640 C   0  0  0  0  0  0  0  0  0  0  0  0
  -20.6280  -28.3380   23.2210 C   0  0  0  0  0  3  0  0  0  0  0  0
  -20.7350  -26.9040   22.6540 C   0  0  0  0  0  2  0  0  0  0  0  0
  -19.6310  -26.5700   21.6460 C   0  0  0  0  0  2  0  0  0  0  0  0
  -18.2510  -26.7130   22.2960 C   0  0  0  0  0  2  0  0  0  0  0  0
  -19.1870  -28.8360   23.3840 C   0  0  0  0  0  0  0  0  0  0  0  0
  -18.9650  -30.1010   23.9680 C   0  0  0  0  0  3  0  0  0  0  0  0
  -17.6580  -30.5960   24.1370 C   0  0  0  0  0  3  0  0  0  0  0  0
  -16.5560  -29.8230   23.7330 C   0  0  0  0  0  3  0  0  0  0  0  0
  -16.7630  -28.5600   23.1530 C   0  0  0  0  0  3  0  0  0  0  0  0
  -25.9200  -32.5150   23.8170 C   0  0  0  0  0  3  0  0  0  0  0  0
  -25.6070  -33.9060   24.1690 N   0  0  0  0  0  0  0  0  0  0  0  0
  -25.9180  -34.9690   23.4150 C   0  0  0  0  0  0  0  0  0  0  0  0
  -26.5680  -34.8810   22.3690 O   0  0  0  0  0  0  0  0  0  0  0  0
  -25.0270  -34.0480   24.9820 H   0  0  0  0  0  0  0  0  0  0  0  0
  -24.1650  -36.7490   23.1180 C   0  0  0  0  0  1  0  0  0  0  0  0
  -25.4300  -36.3490   23.8950 C   0  0  0  0  0  3  0  0  0  0  0  0
  -27.5790  -37.2420   24.6780 C   0  0  0  0  0  1  0  0  0  0  0  0
  -26.4500  -37.4120   23.7670 N   0  0  0  0  0  0  0  0  0  0  0  0
  -26.0400  -38.3270   23.9350 H   0  0  0  0  0  0  0  0  0  0  0  0
  -26.4640  -31.7320   25.0750 C   0  0  1  0  0  0  0  0  0  0  0  0
  -25.3940  -31.4770   26.1610 C   0  0  0  0  0  1  0  0  0  0  0  0
  -27.0480  -30.3610   24.6560 C   0  0  0  0  0  1  0  0  0  0  0  0
  -27.6240  -32.5240   25.7220 C   0  0  0  0  0  1  0  0  0  0  0  0
  1  3  1  0
  2  1  2  0
  4  6  1  0
  4  1  1  0
  5  3  1  0
  6  5  1  0
  7  9  2  0
  7  8  1  0
  8 11  2  0
  9 12  1  0
 11 10  1  0
 11 13  1  0
 12  6  1  0
 12 10  2  0
 14 22  1  0
 15 20  1  0
 16 17  1  0
 16 15  1  0
 18 17  1  0
 18 27  1  0
 18 19  1  0
 20 14  1  0
 20 19  1  0
 21 14  2  0
 22 23  1  0
 22 13  1  0
 24 25  2  0
 25 44  1  0
 26 25  1  0
 26 29  1  0
 27 24  1  0
 27 28  1  0
 28 26  2  0
 29 30  1  0
 30 31  2  0
 32 35  1  0
 32 31  1  0
 33 32  2  0
 34 33  1  0
 34 29  2  0
 35 36  1  0
 36 37  1  0
 37 38  2  0
 39 38  1  0
 39 43  1  0
 40 39  2  0
 41 36  2  0
 41 40  1  0
 42 41  1  0
 44 45  1  0
 45 48  1  0
 45 47  1  0
 46 44  2  0
 49 50  1  0
 49 24  1  0
 51 49  1  0
 52 54  1  0
 52  2  1  0
 53 64  2  0
 54 59  1  0
 55 63  1  0
 55 65  1  0
 56 62  1  0
 56 58  1  0
 57 63  1  0
 58 57  1  0
 59 58  2  0
 60 61  1  0
 60 54  2  0
 61 56  2  0
 62 55  1  0
 63 53  1  0
 65 67  2  0
 66 65  1  0
 68 66  1  0
 69 78  2  0
 69 74  1  0
 70 66  1  0
 70 74  1  0
 71 70  1  0
 72 73  1  0
 72 71  1  0
 73 69  1  0
 74 75  2  0
 75 76  1  0
 77 76  2  0
 78 77  1  0
 79 53  1  0
 79 80  1  0
 79 89  1  0
 80 83  1  0
 81 85  1  0
 81 80  1  0
 82 81  2  0
 85 84  1  0
 87 85  1  0
 87 88  1  0
 87 86  1  0
 89 92  1  1
 89 90  1  0
 91 89  1  0
M  ISO  4   2 101  14 100  22 100  52 101
M  END
>  <TORSDO>  (61) 
F 18

>  <SCORE>  (61) 
-14.704

>  <name>  (61) 
60

>  <ligand_id>  (61) 
60

>  <original_smiles>  (61) 
[H]C(Oc1c([H])c([H])c2c(c1[H])C([H])([H])N(C(=O)C([H])(N([H])C(=O)C([H])(N([H])C([H])([H])[H])C([H])([H])[H])C(C([H])([H])[H])(C([H])([H])[H])C([H])([H])[H])C([H])(C(=O)N([H])C1([H])c3c([H])c([H])c([H])c([H])c3C([H])([H])C([H])([H])C1([H])[H])C2([H])[H])=C1C([H])([H])N(c2c([H])c([H])c([H])c(C([H])([H])N([H])C(=O)N3C([H])([H])C([H])([H])C([H])([H])C([H])(n4nc(-c5c([H])c([H])c(Oc6c([H])c([H])c(F)c([H])c6F)c([H])c5[H])c(C(=O)N([H])[H])c4N([H])[H])C3([H])[H])c2[H])C([H])([H])C1([H])[H]

>  <smiles>  (61) 
[H]C(Oc1c([H])c([H])c2c(c1[H])C([H])([H])N(C(=O)C([H])(N([H])C(=O)C([H])(N([H])C([H])([H])[H])C([H])([H])[H])C(C([H])([H])[H])(C([H])([H])[H])C([H])([H])[H])C([H])(C(=O)N([H])C1([H])c3c([H])c([H])c([H])c([H])c3C([H])([H])C([H])([H])C1([H])[H])C2([H])[H])=C1C([H])([H])N(c2c([H])c([H])c([H])c(C([H])([H])N([H])C(=O)N3C([H])([H])C([H])([H])C([H])([H])C([H])(n4nc(-c5c([H])c([H])c(Oc6c([H])c([H])c(F)c([H])c6F)c([H])c5[H])c(C(=O)N([H])[H])c4N([H])[H])C3([H])[H])c2[H])C([H])([H])C1([H])[H]

$$$$
61:0:0
     RDKit          3D

 97105  0  0  1  0  0  0  0  0999 V2000
  -28.8500  -21.9120   20.7870 C   0  0  0  0  0  2  0  0  0  0  0  0
  -30.7810  -23.2250   19.7540 C   0  0  0  0  0  1  0  0  0  0  0  0
  -29.4960  -23.3550   20.6190 C   0  0  2  0  0  0  0  0  0  0  0  0
  -30.5450  -25.2890   22.1140 C   0  0  0  0  0  1  0  0  0  0  0  0
  -29.9240  -23.8740   22.0300 C   0  0  0  0  0  2  0  0  0  0  0  0
  -28.5430  -24.3530   19.8520 C   0  0  0  0  0  0  0  0  0  0  0  0
  -28.3750  -24.2070   18.6380 O   0  0  0  0  0  0  0  0  0  0  0  0
  -27.7780  -25.4980   20.5730 C   0  0  0  0  0  2  0  0  0  0  0  0
  -27.9160  -26.7820   19.8990 O   0  0  0  0  0  0  0  0  0  0  0  0
  -24.4780  -32.0740   23.2610 C   0  0  0  0  0  0  0  0  0  0  0  0
  -26.7990  -27.5940   19.9600 C   0  0  0  0  0  0  0  0  0  0  0  0
  -23.1410  -30.7380   21.6690 C   0  0  0  0  0  3  0  0  0  0  0  0
  -24.4660  -29.1900   20.1310 C   0  0  0  0  0  0  0  0  0  0  0  0
  -25.6660  -31.0220   21.3360 C   0  0  0  0  0  2  0  0  0  0  0  0
  -25.6730  -29.6640   20.6580 C   0  0  0  0  0  0  0  0  0  0  0  0
  -26.8480  -28.8770   20.5600 C   0  0  0  0  0  3  0  0  0  0  0  0
  -25.5750  -27.1440   19.4180 C   0  0  0  0  0  3  0  0  0  0  0  0
  -24.4120  -27.9320   19.5060 C   0  0  0  0  0  3  0  0  0  0  0  0
  -23.2530  -30.0820   20.2660 C   0  0  0  0  0  2  0  0  0  0  0  0
  -24.4510  -31.2930   22.1460 N   0  0  0  0  0  0  0  0  0  0  0  0
  -23.4370  -32.3640   23.8670 O   0  0  0  0  0  0  0  0  0  0  0  0
  -22.5170  -29.7170   22.6460 C   0  0  0  0  0  0  0  0  0  0  0  0
  -21.1940  -29.5100   22.5380 N   0  0  0  0  0  0  0  0  0  0  0  0
  -23.2180  -29.1120   23.4610 O   0  0  0  0  0  0  0  0  0  0  0  0
  -20.6850  -30.0500   21.8530 H   0  0  0  0  0  0  0  0  0  0  0  0
  -17.8640  -28.1890   23.0210 C   0  0  0  0  0  0  0  0  0  0  0  0
  -20.4030  -28.5650   23.3260 C   0  0  0  0  0  3  0  0  0  0  0  0
  -20.5760  -27.1200   22.8050 C   0  0  0  0  0  2  0  0  0  0  0  0
  -19.5080  -26.7150   21.7840 C   0  0  0  0  0  2  0  0  0  0  0  0
  -18.1100  -26.8240   22.3980 C   0  0  0  0  0  2  0  0  0  0  0  0
  -18.9420  -29.0110   23.4420 C   0  0  0  0  0  0  0  0  0  0  0  0
  -18.6620  -30.2840   23.9850 C   0  0  0  0  0  3  0  0  0  0  0  0
  -17.3350  -30.7370   24.1110 C   0  0  0  0  0  3  0  0  0  0  0  0
  -16.2710  -29.9130   23.7070 C   0  0  0  0  0  3  0  0  0  0  0  0
  -16.5360  -28.6400   23.1700 C   0  0  0  0  0  3  0  0  0  0  0  0
  -25.8140  -32.6620   23.8150 C   0  0  0  0  0  3  0  0  0  0  0  0
  -25.5670  -34.0670   24.1660 N   0  0  0  0  0  0  0  0  0  0  0  0
  -25.9180  -35.1140   23.4070 C   0  0  0  0  0  0  0  0  0  0  0  0
  -26.5510  -34.9960   22.3560 O   0  0  0  0  0  0  0  0  0  0  0  0
  -25.0010  -34.2350   24.9850 H   0  0  0  0  0  0  0  0  0  0  0  0
  -24.2670  -36.9880   23.1030 C   0  0  0  0  0  1  0  0  0  0  0  0
  -25.4970  -36.5160   23.8940 C   0  0  0  0  0  3  0  0  0  0  0  0
  -27.6750  -37.2960   24.7170 C   0  0  0  0  0  1  0  0  0  0  0  0
  -26.5750  -37.5230   23.7850 N   0  0  0  0  0  0  0  0  0  0  0  0
  -26.2110  -38.4590   23.9450 H   0  0  0  0  0  0  0  0  0  0  0  0
  -26.3760  -31.8650   25.0550 C   0  0  1  0  0  0  0  0  0  0  0  0
  -25.3330  -31.6420   26.1760 C   0  0  0  0  0  1  0  0  0  0  0  0
  -26.9090  -30.4780   24.6230 C   0  0  0  0  0  1  0  0  0  0  0  0
  -27.5720  -32.6280   25.6690 C   0  0  0  0  0  1  0  0  0  0  0  0
  -29.8420  -20.8490   20.6780 O   0  0  0  0  0  0  0  0  0  0  0  0
  -29.3600  -17.0560   18.8610 C   0  0  0  0  0  3  0  0  0  0  0  0
  -29.9300  -18.4460   20.7590 C   0  0  0  0  0  3  0  0  0  0  0  0
  -28.9900  -18.2010   18.1310 C   0  0  0  0  0  0  0  0  0  0  0  0
  -29.1660  -19.5090   18.6710 C   0  0  0  0  0  0  0  0  0  0  0  0
  -29.8420  -17.1490   20.1800 C   0  0  0  0  0  0  0  0  0  0  0  0
  -29.5970  -19.6340   20.0350 C   0  0  0  0  0  0  0  0  0  0  0  0
  -28.4000  -17.9580   16.7480 C   0  0  0  0  0  1  0  0  0  0  0  0
  -30.8490  -14.8990   20.4530 C   0  0  0  0  0  0  0  0  0  0  0  0
  -30.6210  -12.6950   19.3700 C   0  0  0  0  0  2  0  0  0  0  0  0
  -29.6940  -12.8870   18.1490 C   0  0  0  0  0  2  0  0  0  0  0  0
  -28.2110  -12.7460   18.5540 C   0  0  0  0  0  2  0  0  0  0  0  0
  -27.8520  -13.5580   19.8290 C   0  0  0  0  0  3  0  0  0  0  0  0
  -28.9060  -13.3560   20.9420 C   0  0  0  0  0  2  0  0  0  0  0  0
  -30.2250  -13.6880   20.3830 N   0  0  0  0  0  0  0  0  0  0  0  0
  -31.9840  -15.0860   20.0030 O   0  0  0  0  0  0  0  0  0  0  0  0
  -30.1070  -15.9350   20.9120 N   0  0  0  0  0  0  0  0  0  0  0  0
  -29.3390  -15.6430   21.5000 H   0  0  0  0  0  0  0  0  0  0  0  0
  -25.4530  -14.1320   20.5500 C   0  0  0  0  0  0  0  0  0  0  0  0
  -24.3890  -13.3460   20.9010 C   0  0  0  0  0  0  0  0  0  0  0  0
  -24.8570  -11.9970   20.8390 C   0  0  0  0  0  0  0  0  0  0  0  0
  -26.5030  -13.2620   20.2990 N   0  0  0  0  0  0  0  0  0  0  0  0
  -26.1480  -11.9720   20.5280 N   0  0  0  0  0  0  0  0  0  0  0  0
  -24.1410  -10.7280   21.0030 C   0  0  0  0  0  0  0  0  0  0  0  0
  -24.5460   -9.7680   21.9550 C   0  0  0  0  0  3  0  0  0  0  0  0
  -23.8310   -8.5620   22.1060 C   0  0  0  0  0  3  0  0  0  0  0  0
  -22.6930   -8.3090   21.3030 C   0  0  0  0  0  0  0  0  0  0  0  0
  -22.3060   -9.2570   20.3400 C   0  0  0  0  0  3  0  0  0  0  0  0
  -23.0240  -10.4550   20.1870 C   0  0  0  0  0  3  0  0  0  0  0  0
  -21.9500   -7.1550   21.3630 O   0  0  0  0  0  0  0  0  0  0  0  0
  -21.8150   -6.4440   22.5280 C   0  0  0  0  0  0  0  0  0  0  0  0
  -21.2400   -7.0100   23.6860 C   0  0  0  0  0  3  0  0  0  0  0  0
  -21.0570   -6.2210   24.8390 C   0  0  0  0  0  3  0  0  0  0  0  0
  -21.4420   -4.8660   24.8350 C   0  0  0  0  0  0  0  0  0  0  0  0
  -22.0110   -4.3000   23.6800 C   0  0  0  0  0  3  0  0  0  0  0  0
  -22.1930   -5.0850   22.5290 C   0  0  0  0  0  0  0  0  0  0  0  0
  -22.7210   -4.5290   21.4130 F   0  0  0  0  0  0  0  0  0  0  0  0
  -21.2610   -4.1070   25.9400 F   0  0  0  0  0  0  0  0  0  0  0  0
  -22.9890  -13.8100   21.1780 C   0  0  0  0  0  0  0  0  0  0  0  0
  -22.2670  -13.1020   22.0400 N   0  0  0  0  0  0  0  0  0  0  0  0
  -22.5390  -14.8360   20.6670 O   0  0  0  0  0  0  0  0  0  0  0  0
  -22.6370  -12.2750   22.4810 H   0  0  0  0  0  0  0  0  0  0  0  0
  -21.3240  -13.3950   22.2570 H   0  0  0  0  0  0  0  0  0  0  0  0
  -25.6110  -15.5050   20.3970 N   0  0  0  0  0  0  0  0  0  0  0  0
  -24.8490  -16.1620   20.5260 H   0  0  0  0  0  0  0  0  0  0  0  0
  -26.4590  -15.9540   20.0730 H   0  0  0  0  0  0  0  0  0  0  0  0
  -29.8750  -20.8740   16.5660 C   0  0  0  0  0  1  0  0  0  0  0  0
  -28.9330  -20.7400   17.7750 C   0  0  0  0  0  2  0  0  0  0  0  0
  3  2  1  6
  3  1  1  0
  3  5  1  0
  5  4  1  0
  6  8  1  0
  6  3  1  0
  7  6  2  0
  9 11  1  0
  9  8  1  0
 10 21  2  0
 11 16  1  0
 12 20  1  0
 12 22  1  0
 13 19  1  0
 13 15  1  0
 14 20  1  0
 15 14  1  0
 16 15  2  0
 17 18  1  0
 17 11  2  0
 18 13  2  0
 19 12  1  0
 20 10  1  0
 22 24  2  0
 23 22  1  0
 25 23  1  0
 26 35  2  0
 26 31  1  0
 27 23  1  0
 27 31  1  0
 28 27  1  0
 29 30  1  0
 29 28  1  0
 30 26  1  0
 31 32  2  0
 32 33  1  0
 34 33  2  0
 35 34  1  0
 36 10  1  0
 36 37  1  0
 36 46  1  0
 37 40  1  0
 38 42  1  0
 38 37  1  0
 39 38  2  0
 42 41  1  0
 44 42  1  0
 44 45  1  0
 44 43  1  0
 46 49  1  1
 46 47  1  0
 48 46  1  0
 50  1  1  0
 51 55  1  0
 53 54  1  0
 53 51  2  0
 54 56  2  0
 55 52  2  0
 55 66  1  0
 56 50  1  0
 56 52  1  0
 57 53  1  0
 58 66  1  0
 59 64  1  0
 60 61  1  0
 60 59  1  0
 62 61  1  0
 62 71  1  0
 62 63  1  0
 64 58  1  0
 64 63  1  0
 65 58  2  0
 66 67  1  0
 68 69  2  0
 69 88  1  0
 70 69  1  0
 70 73  1  0
 71 72  1  0
 71 68  1  0
 72 70  2  0
 73 74  1  0
 74 75  2  0
 76 79  1  0
 76 75  1  0
 77 76  2  0
 78 77  1  0
 78 73  2  0
 79 80  1  0
 80 85  2  0
 80 81  1  0
 81 82  2  0
 83 82  1  0
 83 87  1  0
 84 83  2  0
 85 84  1  0
 86 85  1  0
 88 89  1  0
 89 92  1  0
 89 91  1  0
 90 88  2  0
 93 94  1  0
 93 68  1  0
 95 93  1  0
 96 97  1  0
 97 54  1  0
M  ISO  4   8 101   9 101  58 100  66 100
M  END
>  <TORSDO>  (62) 
F 23

>  <SCORE>  (62) 
-12.130

>  <name>  (62) 
61

>  <ligand_id>  (62) 
61

>  <original_smiles>  (62) 
[H]c1c([H])c([H])c2c(c1[H])C([H])([H])C([H])([H])C([H])([H])C2([H])N([H])C(=O)C1([H])N(C(=O)C([H])(N([H])C(=O)C([H])(N([H])C([H])([H])[H])C([H])([H])[H])C(C([H])([H])[H])(C([H])([H])[H])C([H])([H])[H])C([H])([H])c2c([H])c(OC([H])([H])C(=O)C(C([H])([H])[H])(C([H])([H])Oc3c([H])c(N([H])C(=O)N4C([H])([H])C([H])([H])C([H])([H])C([H])(n5nc(-c6c([H])c([H])c(Oc7c([H])c([H])c(F)c([H])c7F)c([H])c6[H])c(C(=O)N([H])[H])c5N([H])[H])C4([H])[H])c([H])c(C([H])([H])[H])c3C([H])([H])C([H])([H])[H])C([H])([H])C([H])([H])[H])c([H])c([H])c2C1([H])[H]

>  <smiles>  (62) 
[H]c1c([H])c([H])c2c(c1[H])C([H])([H])C([H])([H])C([H])([H])C2([H])N([H])C(=O)C1([H])N(C(=O)C([H])(N([H])C(=O)C([H])(N([H])C([H])([H])[H])C([H])([H])[H])C(C([H])([H])[H])(C([H])([H])[H])C([H])([H])[H])C([H])([H])c2c([H])c(OC([H])([H])C(=O)C(C([H])([H])[H])(C([H])([H])Oc3c([H])c(N([H])C(=O)N4C([H])([H])C([H])([H])C([H])([H])C([H])(n5nc(-c6c([H])c([H])c(Oc7c([H])c([H])c(F)c([H])c7F)c([H])c6[H])c(C(=O)N([H])[H])c5N([H])[H])C4([H])[H])c([H])c(C([H])([H])[H])c3C([H])([H])C([H])([H])[H])C([H])([H])C([H])([H])[H])c([H])c([H])c2C1([H])[H]

$$$$
62:0:0
     RDKit          3D

 95104  0  0  1  0  0  0  0  0999 V2000
  -29.6230  -18.3280   20.4820 C   0  0  0  0  0  3  0  0  0  0  0  0
  -31.3910  -18.4370   22.6310 C   0  0  0  0  0  3  0  0  0  0  0  0
  -30.0820  -19.6250   20.9110 C   0  0  0  0  0  0  0  0  0  0  0  0
  -30.9110  -17.1820   22.2230 C   0  0  0  0  0  0  0  0  0  0  0  0
  -30.0520  -17.0940   21.0940 C   0  0  0  0  0  0  0  0  0  0  0  0
  -31.0170  -19.6310   21.9860 C   0  0  0  0  0  0  0  0  0  0  0  0
  -31.3140  -15.9690   23.0500 C   0  0  0  0  0  1  0  0  0  0  0  0
  -30.2800  -14.7560   20.1280 C   0  0  0  0  0  0  0  0  0  0  0  0
  -29.9610  -12.6230   18.8940 C   0  0  0  0  0  2  0  0  0  0  0  0
  -28.9180  -12.8480   17.7850 C   0  0  0  0  0  2  0  0  0  0  0  0
  -27.4900  -12.6340   18.3180 C   0  0  0  0  0  2  0  0  0  0  0  0
  -27.2350  -13.3630   19.6670 C   0  0  0  0  0  3  0  0  0  0  0  0
  -28.3970  -13.1470   20.6610 C   0  0  0  0  0  2  0  0  0  0  0  0
  -29.6370  -13.5590   19.9870 N   0  0  0  0  0  0  0  0  0  0  0  0
  -31.3920  -14.9470   19.6250 O   0  0  0  0  0  0  0  0  0  0  0  0
  -29.5670  -15.7940   20.6600 N   0  0  0  0  0  0  0  0  0  0  0  0
  -28.5860  -15.6110   20.8190 H   0  0  0  0  0  0  0  0  0  0  0  0
  -24.8860  -13.8060   20.6040 C   0  0  0  0  0  0  0  0  0  0  0  0
  -23.8890  -12.9650   21.0160 C   0  0  0  0  0  0  0  0  0  0  0  0
  -24.4080  -11.6420   20.8820 C   0  0  0  0  0  0  0  0  0  0  0  0
  -25.9470  -12.9910   20.2440 N   0  0  0  0  0  0  0  0  0  0  0  0
  -25.6700  -11.6820   20.4710 N   0  0  0  0  0  0  0  0  0  0  0  0
  -23.7560  -10.3350   21.0640 C   0  0  0  0  0  0  0  0  0  0  0  0
  -24.2650   -9.3750   21.9650 C   0  0  0  0  0  3  0  0  0  0  0  0
  -23.6090   -8.1380   22.1410 C   0  0  0  0  0  3  0  0  0  0  0  0
  -22.4310   -7.8500   21.4130 C   0  0  0  0  0  0  0  0  0  0  0  0
  -21.9390   -8.8010   20.5020 C   0  0  0  0  0  3  0  0  0  0  0  0
  -22.5960  -10.0300   20.3230 C   0  0  0  0  0  3  0  0  0  0  0  0
  -21.7410   -6.6640   21.4970 O   0  0  0  0  0  0  0  0  0  0  0  0
  -21.7250   -5.9210   22.6500 C   0  0  0  0  0  0  0  0  0  0  0  0
  -21.2390   -6.4460   23.8690 C   0  0  0  0  0  3  0  0  0  0  0  0
  -21.1780   -5.6280   25.0130 C   0  0  0  0  0  3  0  0  0  0  0  0
  -21.5870   -4.2820   24.9420 C   0  0  0  0  0  0  0  0  0  0  0  0
  -22.0640   -3.7550   23.7300 C   0  0  0  0  0  3  0  0  0  0  0  0
  -22.1320   -4.5720   22.5870 C   0  0  0  0  0  0  0  0  0  0  0  0
  -22.5700   -4.0530   21.4150 F   0  0  0  0  0  0  0  0  0  0  0  0
  -21.5210   -3.4940   26.0400 F   0  0  0  0  0  0  0  0  0  0  0  0
  -22.4980  -13.3590   21.4170 C   0  0  0  0  0  0  0  0  0  0  0  0
  -21.8820  -12.5960   22.3110 N   0  0  0  0  0  0  0  0  0  0  0  0
  -21.9690  -14.3800   20.9760 O   0  0  0  0  0  0  0  0  0  0  0  0
  -22.3240  -11.7700   22.6860 H   0  0  0  0  0  0  0  0  0  0  0  0
  -20.9530  -12.8370   22.6240 H   0  0  0  0  0  0  0  0  0  0  0  0
  -24.9710  -15.1910   20.4820 N   0  0  0  0  0  0  0  0  0  0  0  0
  -24.1890  -15.7990   20.7010 H   0  0  0  0  0  0  0  0  0  0  0  0
  -25.7680  -15.6890   20.1110 H   0  0  0  0  0  0  0  0  0  0  0  0
  -29.9570  -22.4200   20.6550 C   0  0  0  0  0  2  0  0  0  0  0  0
  -28.1970  -21.4970   20.0670 C   0  0  0  0  0  2  0  0  0  0  0  0
  -29.6490  -20.9580   20.1800 C   0  0  0  0  0  3  0  0  0  0  0  0
  -28.7210  -22.9660   19.9080 C   0  0  0  0  0  3  0  0  0  0  0  0
  -27.8480  -24.1950   20.3920 C   0  0  0  0  0  2  0  0  0  0  0  0
  -28.4980  -25.6040   20.7050 C   0  0  0  0  0  2  0  0  0  0  0  0
  -28.2970  -26.7650   19.8390 O   0  0  0  0  0  0  0  0  0  0  0  0
  -24.5670  -31.9610   23.2080 C   0  0  0  0  0  0  0  0  0  0  0  0
  -27.1430  -27.5300   19.9760 C   0  0  0  0  0  0  0  0  0  0  0  0
  -23.3300  -30.5870   21.5690 C   0  0  0  0  0  3  0  0  0  0  0  0
  -24.7550  -29.0770   20.0800 C   0  0  0  0  0  0  0  0  0  0  0  0
  -25.8580  -30.9400   21.3260 C   0  0  0  0  0  2  0  0  0  0  0  0
  -25.9330  -29.5800   20.6490 C   0  0  0  0  0  0  0  0  0  0  0  0
  -27.1340  -28.8180   20.5830 C   0  0  0  0  0  3  0  0  0  0  0  0
  -25.9470  -27.0600   19.3980 C   0  0  0  0  0  3  0  0  0  0  0  0
  -24.7600  -27.8210   19.4500 C   0  0  0  0  0  3  0  0  0  0  0  0
  -23.5140  -29.9390   20.1730 C   0  0  0  0  0  2  0  0  0  0  0  0
  -24.6050  -31.1780   22.0920 N   0  0  0  0  0  0  0  0  0  0  0  0
  -23.4980  -32.2200   23.7760 O   0  0  0  0  0  0  0  0  0  0  0  0
  -22.7040  -29.5440   22.5260 C   0  0  0  0  0  0  0  0  0  0  0  0
  -21.3810  -29.3430   22.4110 N   0  0  0  0  0  0  0  0  0  0  0  0
  -23.4070  -28.9230   23.3270 O   0  0  0  0  0  0  0  0  0  0  0  0
  -20.8740  -29.8980   21.7360 H   0  0  0  0  0  0  0  0  0  0  0  0
  -18.0330  -28.0730   22.9170 C   0  0  0  0  0  0  0  0  0  0  0  0
  -20.5880  -28.3790   23.1770 C   0  0  0  0  0  3  0  0  0  0  0  0
  -20.7160  -26.9570   22.5850 C   0  0  0  0  0  2  0  0  0  0  0  0
  -19.6150  -26.6240   21.5740 C   0  0  0  0  0  2  0  0  0  0  0  0
  -18.2340  -26.7340   22.2270 C   0  0  0  0  0  2  0  0  0  0  0  0
  -19.1400  -28.8520   23.3480 C   0  0  0  0  0  0  0  0  0  0  0  0
  -18.8990  -30.1050   23.9540 C   0  0  0  0  0  3  0  0  0  0  0  0
  -17.5850  -30.5770   24.1350 C   0  0  0  0  0  3  0  0  0  0  0  0
  -16.4940  -29.7920   23.7230 C   0  0  0  0  0  3  0  0  0  0  0  0
  -16.7190  -28.5430   23.1180 C   0  0  0  0  0  3  0  0  0  0  0  0
  -25.8630  -32.5890   23.8110 C   0  0  0  0  0  3  0  0  0  0  0  0
  -26.4000  -31.8120   25.0760 C   0  0  1  0  0  0  0  0  0  0  0  0
  -25.3220  -31.5670   26.1580 C   0  0  0  0  0  1  0  0  0  0  0  0
  -26.9790  -30.4370   24.6680 C   0  0  0  0  0  1  0  0  0  0  0  0
  -27.5580  -32.6060   25.7250 C   0  0  0  0  0  1  0  0  0  0  0  0
  -25.5610  -33.9860   24.1520 N   0  0  0  0  0  0  0  0  0  0  0  0
  -25.8920  -35.0430   23.3970 C   0  0  0  0  0  0  0  0  0  0  0  0
  -26.5490  -34.9410   22.3570 O   0  0  0  0  0  0  0  0  0  0  0  0
  -24.9690  -34.1400   24.9550 H   0  0  0  0  0  0  0  0  0  0  0  0
  -24.1630  -36.8430   23.0800 C   0  0  0  0  0  1  0  0  0  0  0  0
  -25.4180  -36.4300   23.8680 C   0  0  0  0  0  3  0  0  0  0  0  0
  -27.5680  -37.3040   24.6730 C   0  0  0  0  0  1  0  0  0  0  0  0
  -26.4520  -37.4800   23.7450 N   0  0  0  0  0  0  0  0  0  0  0  0
  -26.0520  -38.4010   23.9040 H   0  0  0  0  0  0  0  0  0  0  0  0
  -31.6250  -20.7870   22.4650 N   0  0  0  0  0  0  0  0  0  0  0  0
  -32.4320  -20.6960   23.0730 H   0  0  0  0  0  0  0  0  0  0  0  0
  -31.6640  -21.6000   21.8590 H   0  0  0  0  0  0  0  0  0  0  0  0
  1  3  2  0
  1  5  1  0
  3  6  1  0
  4  2  1  0
  4  7  1  0
  5  4  2  0
  6 93  1  0
  6  2  2  0
  8 16  1  0
  9 14  1  0
 10 11  1  0
 10  9  1  0
 12 11  1  0
 12 21  1  0
 12 13  1  0
 14  8  1  0
 14 13  1  0
 15  8  2  0
 16 17  1  0
 16  5  1  0
 18 19  2  0
 19 38  1  0
 20 19  1  0
 20 23  1  0
 21 22  1  0
 21 18  1  0
 22 20  2  0
 23 24  1  0
 24 25  2  0
 26 29  1  0
 26 25  1  0
 27 26  2  0
 28 27  1  0
 28 23  2  0
 29 30  1  0
 30 31  1  0
 31 32  2  0
 33 32  1  0
 33 37  1  0
 34 33  2  0
 35 30  2  0
 35 34  1  0
 36 35  1  0
 38 39  1  0
 39 42  1  0
 39 41  1  0
 40 38  2  0
 43 18  1  0
 43 44  1  0
 45 43  1  0
 47 48  1  0
 48 46  1  0
 48  3  1  0
 49 47  1  0
 49 50  1  0
 49 46  1  0
 50 51  1  0
 52 54  1  0
 52 51  1  0
 53 64  2  0
 54 59  1  0
 55 63  1  0
 55 65  1  0
 56 62  1  0
 56 58  1  0
 57 63  1  0
 58 57  1  0
 59 58  2  0
 60 61  1  0
 60 54  2  0
 61 56  2  0
 62 55  1  0
 63 53  1  0
 65 67  2  0
 66 65  1  0
 68 66  1  0
 69 78  2  0
 69 74  1  0
 70 66  1  0
 70 74  1  0
 71 70  1  0
 72 73  1  0
 72 71  1  0
 73 69  1  0
 74 75  2  0
 75 76  1  0
 77 76  2  0
 78 77  1  0
 79 53  1  0
 79 84  1  0
 79 80  1  0
 80 83  1  1
 80 81  1  0
 82 80  1  0
 84 87  1  0
 85 89  1  0
 85 84  1  0
 86 85  2  0
 89 88  1  0
 91 89  1  0
 91 92  1  0
 91 90  1  0
 93 94  1  0
 95 93  1  0
M  ISO  4   8 100  16 100  51 101  52 101
M  END
>  <TORSDO>  (63) 
F 20

>  <SCORE>  (63) 
-12.369

>  <name>  (63) 
62

>  <ligand_id>  (63) 
62

>  <original_smiles>  (63) 
[H]c1c([H])c([H])c2c(c1[H])C([H])([H])C([H])([H])C([H])([H])C2([H])N([H])C(=O)C1([H])N(C(=O)C([H])(N([H])C(=O)C([H])(N([H])C([H])([H])[H])C([H])([H])[H])C(C([H])([H])[H])(C([H])([H])[H])C([H])([H])[H])C([H])([H])c2c([H])c(OC([H])([H])C([H])([H])C3([H])C([H])([H])C([H])(c4c([H])c(N([H])C(=O)N5C([H])([H])C([H])([H])C([H])([H])C([H])(n6nc(-c7c([H])c([H])c(Oc8c([H])c([H])c(F)c([H])c8F)c([H])c7[H])c(C(=O)N([H])[H])c6N([H])[H])C5([H])[H])c(C([H])([H])[H])c([H])c4N([H])[H])C3([H])[H])c([H])c([H])c2C1([H])[H]

>  <smiles>  (63) 
[H]c1c([H])c([H])c2c(c1[H])C([H])([H])C([H])([H])C([H])([H])C2([H])N([H])C(=O)C1([H])N(C(=O)C([H])(N([H])C(=O)C([H])(N([H])C([H])([H])[H])C([H])([H])[H])C(C([H])([H])[H])(C([H])([H])[H])C([H])([H])[H])C([H])([H])c2c([H])c(OC([H])([H])C([H])([H])C3([H])C([H])([H])C([H])(c4c([H])c(N([H])C(=O)N5C([H])([H])C([H])([H])C([H])([H])C([H])(n6nc(-c7c([H])c([H])c(Oc8c([H])c([H])c(F)c([H])c8F)c([H])c7[H])c(C(=O)N([H])[H])c6N([H])[H])C5([H])[H])c(C([H])([H])[H])c([H])c4N([H])[H])C3([H])[H])c([H])c([H])c2C1([H])[H]

$$$$
63:0:0
     RDKit          3D

 93101  0  0  1  0  0  0  0  0999 V2000
  -29.3310  -21.8730   20.3470 O   0  0  0  0  0  0  0  0  0  0  0  0
  -28.8390  -20.5940   20.1470 C   0  0  0  0  0  0  0  0  0  0  0  0
  -27.7180  -20.3830   19.6770 O   0  0  0  0  0  0  0  0  0  0  0  0
  -31.9770  -18.7270   21.3420 C   0  0  0  0  0  3  0  0  0  0  0  0
  -31.0880  -19.7640   20.9980 C   0  0  0  0  0  3  0  0  0  0  0  0
  -31.5910  -17.3790   21.2210 C   0  0  0  0  0  3  0  0  0  0  0  0
  -29.4040  -18.0940   20.4290 C   0  0  0  0  0  3  0  0  0  0  0  0
  -29.7840  -19.4710   20.5330 C   0  0  0  0  0  0  0  0  0  0  0  0
  -30.3040  -17.0330   20.7500 C   0  0  0  0  0  0  0  0  0  0  0  0
  -30.6260  -14.5770   20.2340 C   0  0  0  0  0  0  0  0  0  0  0  0
  -30.2980  -12.4100   19.0910 C   0  0  0  0  0  2  0  0  0  0  0  0
  -29.3160  -12.6150   17.9200 C   0  0  0  0  0  2  0  0  0  0  0  0
  -27.8590  -12.4620   18.3990 C   0  0  0  0  0  2  0  0  0  0  0  0
  -27.5610  -13.2860   19.6810 C   0  0  0  0  0  3  0  0  0  0  0  0
  -28.6590  -13.0790   20.7490 C   0  0  0  0  0  2  0  0  0  0  0  0
  -29.9530  -13.3970   20.1280 N   0  0  0  0  0  0  0  0  0  0  0  0
  -31.7690  -14.7120   19.7890 O   0  0  0  0  0  0  0  0  0  0  0  0
  -29.8970  -15.6480   20.6510 N   0  0  0  0  0  0  0  0  0  0  0  0
  -28.9240  -15.4520   20.8290 H   0  0  0  0  0  0  0  0  0  0  0  0
  -25.1930  -13.8760   20.4890 C   0  0  0  0  0  0  0  0  0  0  0  0
  -24.1410  -13.0970   20.8880 C   0  0  0  0  0  0  0  0  0  0  0  0
  -24.6030  -11.7470   20.8240 C   0  0  0  0  0  0  0  0  0  0  0  0
  -26.2290  -13.0000   20.2080 N   0  0  0  0  0  0  0  0  0  0  0  0
  -25.8810  -11.7130   20.4700 N   0  0  0  0  0  0  0  0  0  0  0  0
  -23.8840  -10.4810   21.0230 C   0  0  0  0  0  0  0  0  0  0  0  0
  -24.3460   -9.5070   21.9350 C   0  0  0  0  0  3  0  0  0  0  0  0
  -23.6280   -8.3060   22.1250 C   0  0  0  0  0  3  0  0  0  0  0  0
  -22.4350   -8.0700   21.4010 C   0  0  0  0  0  0  0  0  0  0  0  0
  -21.9930   -9.0330   20.4760 C   0  0  0  0  0  3  0  0  0  0  0  0
  -22.7120  -10.2250   20.2850 C   0  0  0  0  0  3  0  0  0  0  0  0
  -21.6870   -6.9220   21.4990 O   0  0  0  0  0  0  0  0  0  0  0  0
  -21.6700   -6.1690   22.6460 C   0  0  0  0  0  0  0  0  0  0  0  0
  -21.2590   -6.7070   23.8850 C   0  0  0  0  0  3  0  0  0  0  0  0
  -21.1900   -5.8810   25.0230 C   0  0  0  0  0  3  0  0  0  0  0  0
  -21.5220   -4.5170   24.9250 C   0  0  0  0  0  0  0  0  0  0  0  0
  -21.9270   -3.9770   23.6910 C   0  0  0  0  0  3  0  0  0  0  0  0
  -21.9980   -4.8020   22.5550 C   0  0  0  0  0  0  0  0  0  0  0  0
  -22.3670   -4.2720   21.3640 F   0  0  0  0  0  0  0  0  0  0  0  0
  -21.4500   -3.7210   26.0170 F   0  0  0  0  0  0  0  0  0  0  0  0
  -22.7530  -13.5680   21.2150 C   0  0  0  0  0  0  0  0  0  0  0  0
  -22.0550  -12.8550   22.0920 N   0  0  0  0  0  0  0  0  0  0  0  0
  -22.2970  -14.6020   20.7280 O   0  0  0  0  0  0  0  0  0  0  0  0
  -22.4380  -12.0210   22.5090 H   0  0  0  0  0  0  0  0  0  0  0  0
  -21.1240  -13.1500   22.3510 H   0  0  0  0  0  0  0  0  0  0  0  0
  -25.3490  -15.2490   20.3220 N   0  0  0  0  0  0  0  0  0  0  0  0
  -24.5800  -15.8970   20.4560 H   0  0  0  0  0  0  0  0  0  0  0  0
  -26.1750  -15.6920   19.9410 H   0  0  0  0  0  0  0  0  0  0  0  0
  -28.5860  -23.0400   19.9200 C   0  0  0  0  0  2  0  0  0  0  0  0
  -29.4040  -24.3710   20.0660 C   0  0  0  0  0  2  0  0  0  0  0  0
  -30.1760  -26.4960   18.9370 C   0  0  0  0  0  1  0  0  0  0  0  0
  -28.1490  -25.4030   18.0470 C   0  0  0  0  0  1  0  0  0  0  0  0
  -28.9210  -25.7030   19.3530 C   0  0  1  0  0  0  0  0  0  0  0  0
  -28.3620  -26.6510   20.3170 O   0  0  0  0  0  0  0  0  0  0  0  0
  -24.5550  -31.9130   23.2620 C   0  0  0  0  0  0  0  0  0  0  0  0
  -27.2050  -27.4170   20.1900 C   0  0  0  0  0  0  0  0  0  0  0  0
  -23.3580  -30.5100   21.6180 C   0  0  0  0  0  3  0  0  0  0  0  0
  -24.8150  -28.9690   20.1970 C   0  0  0  0  0  0  0  0  0  0  0  0
  -25.8910  -30.8510   21.4360 C   0  0  0  0  0  2  0  0  0  0  0  0
  -25.9760  -29.4790   20.7870 C   0  0  0  0  0  0  0  0  0  0  0  0
  -27.1690  -28.7100   20.7810 C   0  0  0  0  0  3  0  0  0  0  0  0
  -26.0050  -26.9220   19.6340 C   0  0  0  0  0  3  0  0  0  0  0  0
  -24.8270  -27.6910   19.6170 C   0  0  0  0  0  3  0  0  0  0  0  0
  -23.5730  -29.8330   20.2390 C   0  0  0  0  0  2  0  0  0  0  0  0
  -24.6200  -31.1070   22.1630 N   0  0  0  0  0  0  0  0  0  0  0  0
  -23.4700  -32.1890   23.7930 O   0  0  0  0  0  0  0  0  0  0  0  0
  -22.6980  -29.4920   22.5770 C   0  0  0  0  0  0  0  0  0  0  0  0
  -21.3740  -29.3100   22.4430 N   0  0  0  0  0  0  0  0  0  0  0  0
  -23.3760  -28.8670   23.3980 O   0  0  0  0  0  0  0  0  0  0  0  0
  -20.8900  -29.8670   21.7520 H   0  0  0  0  0  0  0  0  0  0  0  0
  -17.9920  -28.1270   22.9300 C   0  0  0  0  0  0  0  0  0  0  0  0
  -20.5510  -28.3750   23.2090 C   0  0  0  0  0  3  0  0  0  0  0  0
  -20.6500  -26.9450   22.6310 C   0  0  0  0  0  2  0  0  0  0  0  0
  -19.5500  -26.6280   21.6140 C   0  0  0  0  0  2  0  0  0  0  0  0
  -18.1660  -26.7770   22.2540 C   0  0  0  0  0  2  0  0  0  0  0  0
  -19.1120  -28.8850   23.3650 C   0  0  0  0  0  0  0  0  0  0  0  0
  -18.8970  -30.1480   23.9550 C   0  0  0  0  0  3  0  0  0  0  0  0
  -17.5940  -30.6550   24.1180 C   0  0  0  0  0  3  0  0  0  0  0  0
  -16.4880  -29.8940   23.6990 C   0  0  0  0  0  3  0  0  0  0  0  0
  -16.6880  -28.6330   23.1110 C   0  0  0  0  0  3  0  0  0  0  0  0
  -25.8350  -32.5460   23.8890 C   0  0  0  0  0  3  0  0  0  0  0  0
  -25.5290  -33.9490   24.1980 N   0  0  0  0  0  0  0  0  0  0  0  0
  -25.8800  -34.9920   23.4340 C   0  0  0  0  0  0  0  0  0  0  0  0
  -26.5680  -34.8740   22.4150 O   0  0  0  0  0  0  0  0  0  0  0  0
  -24.9200  -34.1150   24.9860 H   0  0  0  0  0  0  0  0  0  0  0  0
  -24.1760  -36.7970   23.0230 C   0  0  0  0  0  1  0  0  0  0  0  0
  -25.3930  -36.3880   23.8680 C   0  0  0  0  0  3  0  0  0  0  0  0
  -27.5140  -37.2610   24.7440 C   0  0  0  0  0  1  0  0  0  0  0  0
  -26.4370  -37.4320   23.7740 N   0  0  0  0  0  0  0  0  0  0  0  0
  -26.0360  -38.3570   23.9050 H   0  0  0  0  0  0  0  0  0  0  0  0
  -26.3360  -31.7870   25.1790 C   0  0  1  0  0  0  0  0  0  0  0  0
  -25.2320  -31.5670   26.2390 C   0  0  0  0  0  1  0  0  0  0  0  0
  -26.9180  -30.4030   24.8070 C   0  0  0  0  0  1  0  0  0  0  0  0
  -27.4820  -32.5850   25.8440 C   0  0  0  0  0  1  0  0  0  0  0  0
  2  1  1  0
  2  8  1  0
  3  2  2  0
  5  4  2  0
  6  4  1  0
  7  8  2  0
  7  9  1  0
  8  5  1  0
  9  6  2  0
 10 18  1  0
 11 16  1  0
 12 13  1  0
 12 11  1  0
 14 13  1  0
 14 23  1  0
 14 15  1  0
 16 10  1  0
 16 15  1  0
 17 10  2  0
 18  9  1  0
 18 19  1  0
 20 21  2  0
 21 40  1  0
 22 21  1  0
 22 25  1  0
 23 24  1  0
 23 20  1  0
 24 22  2  0
 25 26  1  0
 26 27  2  0
 28 31  1  0
 28 27  1  0
 29 28  2  0
 30 29  1  0
 30 25  2  0
 31 32  1  0
 32 33  1  0
 33 34  2  0
 35 34  1  0
 35 39  1  0
 36 35  2  0
 37 32  2  0
 37 36  1  0
 38 37  1  0
 40 41  1  0
 41 44  1  0
 41 43  1  0
 42 40  2  0
 45 46  1  0
 45 20  1  0
 47 45  1  0
 48 49  1  0
 48  1  1  0
 52 50  1  6
 51 52  1  0
 52 49  1  0
 52 53  1  0
 54 65  2  0
 55 53  1  0
 55 60  1  0
 56 64  1  0
 56 66  1  0
 57 63  1  0
 57 59  1  0
 58 64  1  0
 59 58  1  0
 60 59  2  0
 61 55  2  0
 62 61  1  0
 62 57  2  0
 63 56  1  0
 64 54  1  0
 66 68  2  0
 67 66  1  0
 69 67  1  0
 70 79  2  0
 70 75  1  0
 71 67  1  0
 71 75  1  0
 72 71  1  0
 73 74  1  0
 73 72  1  0
 74 70  1  0
 75 76  2  0
 76 77  1  0
 78 77  2  0
 79 78  1  0
 80 54  1  0
 80 81  1  0
 80 90  1  0
 81 84  1  0
 82 86  1  0
 82 81  1  0
 83 82  2  0
 86 85  1  0
 88 86  1  0
 88 89  1  0
 88 87  1  0
 90 93  1  1
 90 91  1  0
 92 90  1  0
M  ISO  4  10 100  18 100  52 101  53 101
M  END
>  <TORSDO>  (64) 
F 21

>  <SCORE>  (64) 
-13.735

>  <name>  (64) 
63

>  <ligand_id>  (64) 
63

>  <original_smiles>  (64) 
[H]c1c([H])c(C(=O)OC([H])([H])C([H])([H])C(Oc2c([H])c([H])c3c(c2[H])C([H])([H])N(C(=O)C([H])(N([H])C(=O)C([H])(N([H])C([H])([H])[H])C([H])([H])[H])C(C([H])([H])[H])(C([H])([H])[H])C([H])([H])[H])C([H])(C(=O)N([H])C2([H])c4c([H])c([H])c([H])c([H])c4C([H])([H])C([H])([H])C2([H])[H])C3([H])[H])(C([H])([H])[H])C([H])([H])[H])c([H])c(N([H])C(=O)N2C([H])([H])C([H])([H])C([H])([H])C([H])(n3nc(-c4c([H])c([H])c(Oc5c([H])c([H])c(F)c([H])c5F)c([H])c4[H])c(C(=O)N([H])[H])c3N([H])[H])C2([H])[H])c1[H]

>  <smiles>  (64) 
[H]c1c([H])c(C(=O)OC([H])([H])C([H])([H])C(Oc2c([H])c([H])c3c(c2[H])C([H])([H])N(C(=O)C([H])(N([H])C(=O)C([H])(N([H])C([H])([H])[H])C([H])([H])[H])C(C([H])([H])[H])(C([H])([H])[H])C([H])([H])[H])C([H])(C(=O)N([H])C2([H])c4c([H])c([H])c([H])c([H])c4C([H])([H])C([H])([H])C2([H])[H])C3([H])[H])(C([H])([H])[H])C([H])([H])[H])c([H])c(N([H])C(=O)N2C([H])([H])C([H])([H])C([H])([H])C([H])(n3nc(-c4c([H])c([H])c(Oc5c([H])c([H])c(F)c([H])c5F)c([H])c4[H])c(C(=O)N([H])[H])c3N([H])[H])C2([H])[H])c1[H]

$$$$
64:0:0
     RDKit          3D

 95104  0  0  1  0  0  0  0  0999 V2000
  -30.4910  -23.9600   21.2180 C   0  0  0  0  0  2  0  0  0  0  0  0
  -29.2100  -22.1290   20.0480 C   0  0  0  0  0  2  0  0  0  0  0  0
  -31.7910  -23.1080   21.1600 C   0  0  0  0  0  2  0  0  0  0  0  0
  -30.2900  -21.1500   20.7570 C   0  0  0  0  0  3  0  0  0  0  0  0
  -29.5330  -23.7370   20.0350 C   0  0  2  0  0  0  0  0  0  0  0  0
  -30.2430  -24.0970   18.7090 C   0  0  0  0  0  1  0  0  0  0  0  0
  -32.7840  -20.8670   20.9840 C   0  0  0  0  0  1  0  0  0  0  0  0
  -31.6510  -21.7340   20.5780 N   0  0  2  0  0  4  0  0  0  0  0  0
  -31.7540  -21.8400   19.5810 H   0  0  0  0  0  0  0  0  0  0  0  0
  -30.1540  -18.4320   19.8130 C   0  0  0  0  0  3  0  0  0  0  0  0
  -30.2490  -19.5230   20.7960 C   0  0  0  0  0  0  0  0  0  0  0  0
  -30.4450  -18.8010   21.9580 C   0  0  0  0  0  0  0  0  0  0  0  0
  -30.3890  -17.1980   20.4390 C   0  0  0  0  0  0  0  0  0  0  0  0
  -30.6170  -19.2140   23.3850 C   0  0  0  0  0  1  0  0  0  0  0  0
  -30.5230  -17.4440   21.7620 O   0  0  0  0  0  0  0  0  0  0  0  0
  -30.9780  -14.7410   19.9700 C   0  0  0  0  0  0  0  0  0  0  0  0
  -30.6640  -12.4700   18.9580 C   0  0  0  0  0  2  0  0  0  0  0  0
  -29.6710  -12.5660   17.7780 C   0  0  0  0  0  2  0  0  0  0  0  0
  -28.2110  -12.4660   18.2700 C   0  0  0  0  0  2  0  0  0  0  0  0
  -27.9290  -13.3760   19.4940 C   0  0  0  0  0  3  0  0  0  0  0  0
  -29.0280  -13.2360   20.5690 C   0  0  0  0  0  2  0  0  0  0  0  0
  -30.3100  -13.5380   19.9170 N   0  0  0  0  0  0  0  0  0  0  0  0
  -32.1780  -14.7980   19.6800 O   0  0  0  0  0  0  0  0  0  0  0  0
  -30.1840  -15.8810   20.0040 N   0  0  0  0  0  0  0  0  0  0  0  0
  -29.2100  -15.6230   20.0080 H   0  0  0  0  0  0  0  0  0  0  0  0
  -25.6190  -14.0970   20.3480 C   0  0  0  0  0  0  0  0  0  0  0  0
  -24.5220  -13.3820   20.7440 C   0  0  0  0  0  0  0  0  0  0  0  0
  -24.8960  -12.0050   20.6570 C   0  0  0  0  0  0  0  0  0  0  0  0
  -26.5920  -13.1610   20.0400 N   0  0  0  0  0  0  0  0  0  0  0  0
  -26.1680  -11.8960   20.2910 N   0  0  0  0  0  0  0  0  0  0  0  0
  -24.1010  -10.7860   20.8440 C   0  0  0  0  0  0  0  0  0  0  0  0
  -24.4900   -9.7830   21.7570 C   0  0  0  0  0  3  0  0  0  0  0  0
  -23.6970   -8.6270   21.9330 C   0  0  0  0  0  3  0  0  0  0  0  0
  -22.5010   -8.4700   21.1960 C   0  0  0  0  0  0  0  0  0  0  0  0
  -22.1290   -9.4610   20.2700 C   0  0  0  0  0  3  0  0  0  0  0  0
  -22.9220  -10.6070   20.0920 C   0  0  0  0  0  3  0  0  0  0  0  0
  -21.6810   -7.3700   21.2820 O   0  0  0  0  0  0  0  0  0  0  0  0
  -21.5810   -6.6370   22.4370 C   0  0  0  0  0  0  0  0  0  0  0  0
  -21.1800   -7.2200   23.6580 C   0  0  0  0  0  3  0  0  0  0  0  0
  -21.0220   -6.4160   24.8060 C   0  0  0  0  0  3  0  0  0  0  0  0
  -21.2570   -5.0310   24.7320 C   0  0  0  0  0  0  0  0  0  0  0  0
  -21.6530   -4.4470   23.5150 C   0  0  0  0  0  3  0  0  0  0  0  0
  -21.8120   -5.2480   22.3700 C   0  0  0  0  0  0  0  0  0  0  0  0
  -22.1720   -4.6770   21.1960 F   0  0  0  0  0  0  0  0  0  0  0  0
  -21.0990   -4.2560   25.8300 F   0  0  0  0  0  0  0  0  0  0  0  0
  -23.1700  -13.9370   21.0830 C   0  0  0  0  0  0  0  0  0  0  0  0
  -22.4450  -13.2790   21.9820 N   0  0  0  0  0  0  0  0  0  0  0  0
  -22.7660  -14.9880   20.5860 O   0  0  0  0  0  0  0  0  0  0  0  0
  -22.7850  -12.4290   22.4060 H   0  0  0  0  0  0  0  0  0  0  0  0
  -21.5380  -13.6330   22.2520 H   0  0  0  0  0  0  0  0  0  0  0  0
  -25.8590  -15.4610   20.1970 N   0  0  0  0  0  0  0  0  0  0  0  0
  -25.1360  -16.1510   20.3680 H   0  0  0  0  0  0  0  0  0  0  0  0
  -26.6960  -15.8610   19.7950 H   0  0  0  0  0  0  0  0  0  0  0  0
  -28.2910  -24.7830   20.1360 C   0  0  0  0  0  2  0  0  0  0  0  0
  -28.4750  -26.2840   20.1790 O   0  0  0  0  0  0  0  0  0  0  0  0
  -24.4870  -31.6510   23.0670 C   0  0  0  0  0  0  0  0  0  0  0  0
  -27.3330  -27.1250   20.1130 C   0  0  0  0  0  0  0  0  0  0  0  0
  -23.3710  -30.1810   21.4320 C   0  0  0  0  0  3  0  0  0  0  0  0
  -24.9060  -28.6770   20.0480 C   0  0  0  0  0  0  0  0  0  0  0  0
  -25.9010  -30.5960   21.2820 C   0  0  0  0  0  2  0  0  0  0  0  0
  -26.0500  -29.2110   20.6510 C   0  0  0  0  0  0  0  0  0  0  0  0
  -27.2680  -28.4510   20.6690 C   0  0  0  0  0  3  0  0  0  0  0  0
  -26.1540  -26.6630   19.4800 C   0  0  0  0  0  3  0  0  0  0  0  0
  -24.9640  -27.4110   19.4500 C   0  0  0  0  0  3  0  0  0  0  0  0
  -23.6340  -29.5010   20.0650 C   0  0  0  0  0  2  0  0  0  0  0  0
  -24.6040  -30.8290   21.9830 N   0  0  0  0  0  0  0  0  0  0  0  0
  -23.3850  -31.8890   23.5840 O   0  0  0  0  0  0  0  0  0  0  0  0
  -22.7360  -29.1500   22.3960 C   0  0  0  0  0  0  0  0  0  0  0  0
  -21.4180  -28.9240   22.2620 N   0  0  0  0  0  0  0  0  0  0  0  0
  -23.4280  -28.5570   23.2280 O   0  0  0  0  0  0  0  0  0  0  0  0
  -20.9160  -29.4520   21.5610 H   0  0  0  0  0  0  0  0  0  0  0  0
  -18.0830  -27.6070   22.7470 C   0  0  0  0  0  0  0  0  0  0  0  0
  -20.6270  -27.9660   23.0370 C   0  0  0  0  0  3  0  0  0  0  0  0
  -20.7900  -26.5330   22.4820 C   0  0  0  0  0  2  0  0  0  0  0  0
  -19.7110  -26.1590   21.4610 C   0  0  0  0  0  2  0  0  0  0  0  0
  -18.3170  -26.2560   22.0900 C   0  0  0  0  0  2  0  0  0  0  0  0
  -19.1680  -28.4150   23.1790 C   0  0  0  0  0  0  0  0  0  0  0  0
  -18.8950  -29.6750   23.7540 C   0  0  0  0  0  3  0  0  0  0  0  0
  -17.5700  -30.1270   23.9040 C   0  0  0  0  0  3  0  0  0  0  0  0
  -16.5000  -29.3160   23.4900 C   0  0  0  0  0  3  0  0  0  0  0  0
  -16.7570  -28.0570   22.9170 C   0  0  0  0  0  3  0  0  0  0  0  0
  -25.7310  -32.3480   23.7000 C   0  0  0  0  0  3  0  0  0  0  0  0
  -25.3470  -33.7290   24.0260 N   0  0  0  0  0  0  0  0  0  0  0  0
  -25.6850  -34.8040   23.3010 C   0  0  0  0  0  0  0  0  0  0  0  0
  -26.4180  -34.7390   22.3100 O   0  0  0  0  0  0  0  0  0  0  0  0
  -24.6950  -33.8490   24.7860 H   0  0  0  0  0  0  0  0  0  0  0  0
  -23.9190  -36.5410   22.8590 C   0  0  0  0  0  1  0  0  0  0  0  0
  -25.1180  -36.1660   23.7450 C   0  0  0  0  0  3  0  0  0  0  0  0
  -27.1610  -37.1070   24.7270 C   0  0  0  0  0  1  0  0  0  0  0  0
  -26.1170  -37.2580   23.7180 N   0  0  0  0  0  0  0  0  0  0  0  0
  -25.6690  -38.1590   23.8590 H   0  0  0  0  0  0  0  0  0  0  0  0
  -26.2690  -31.6070   24.9850 C   0  0  1  0  0  0  0  0  0  0  0  0
  -25.1740  -31.3120   26.0370 C   0  0  0  0  0  1  0  0  0  0  0  0
  -26.9330  -30.2620   24.6050 C   0  0  0  0  0  1  0  0  0  0  0  0
  -27.3610  -32.4650   25.6650 C   0  0  0  0  0  1  0  0  0  0  0  0
  2  4  1  0
  3  1  1  0
  4 11  1  0
  5  6  1  6
  5  2  1  0
  5 54  1  0
  5  1  1  0
  8  4  1  0
  8  7  1  0
  8  3  1  0
  8  9  1  6
 10 13  2  0
 10 11  1  0
 11 12  2  0
 12 14  1  0
 13 15  1  0
 15 12  1  0
 16 24  1  0
 17 22  1  0
 18 19  1  0
 18 17  1  0
 20 19  1  0
 20 29  1  0
 20 21  1  0
 22 16  1  0
 22 21  1  0
 23 16  2  0
 24 25  1  0
 24 13  1  0
 26 27  2  0
 27 46  1  0
 28 27  1  0
 28 31  1  0
 29 30  1  0
 29 26  1  0
 30 28  2  0
 31 32  1  0
 32 33  2  0
 34 37  1  0
 34 33  1  0
 35 34  2  0
 36 35  1  0
 36 31  2  0
 37 38  1  0
 38 39  1  0
 39 40  2  0
 41 40  1  0
 41 45  1  0
 42 41  2  0
 43 38  2  0
 43 42  1  0
 44 43  1  0
 46 47  1  0
 47 50  1  0
 47 49  1  0
 48 46  2  0
 51 26  1  0
 51 52  1  0
 53 51  1  0
 54 55  1  0
 56 67  2  0
 57 55  1  0
 57 62  1  0
 58 66  1  0
 58 68  1  0
 59 65  1  0
 59 61  1  0
 60 66  1  0
 61 62  2  0
 61 60  1  0
 63 57  2  0
 64 63  1  0
 64 59  2  0
 65 58  1  0
 66 56  1  0
 68 70  2  0
 69 68  1  0
 71 69  1  0
 72 81  2  0
 72 77  1  0
 73 69  1  0
 73 77  1  0
 74 73  1  0
 75 76  1  0
 75 74  1  0
 76 72  1  0
 77 78  2  0
 78 79  1  0
 80 79  2  0
 81 80  1  0
 82 56  1  0
 82 83  1  0
 82 92  1  0
 83 86  1  0
 84 88  1  0
 84 83  1  0
 85 84  2  0
 88 87  1  0
 90 88  1  0
 90 91  1  0
 90 89  1  0
 92 95  1  1
 92 93  1  0
 94 92  1  0
M  ISO  4  16 100  24 100  54 101  55 101
M  END
>  <TORSDO>  (65) 
F 18

>  <SCORE>  (65) 
-13.334

>  <name>  (65) 
64

>  <ligand_id>  (65) 
64

>  <original_smiles>  (65) 
[H]c1c([H])c([H])c2c(c1[H])C([H])([H])C([H])([H])C([H])([H])C2([H])N([H])C(=O)C1([H])N(C(=O)C([H])(N([H])C(=O)C([H])(N([H])C([H])([H])[H])C([H])([H])[H])C(C([H])([H])[H])(C([H])([H])[H])C([H])([H])[H])C([H])([H])c2c([H])c(OC([H])([H])C3(C([H])([H])[H])C([H])([H])C([H])([H])[N+]([H])(C([H])([H])[H])C([H])(c4c(C([H])([H])[H])oc(N([H])C(=O)N5C([H])([H])C([H])([H])C([H])([H])C([H])(n6nc(-c7c([H])c([H])c(Oc8c([H])c([H])c(F)c([H])c8F)c([H])c7[H])c(C(=O)N([H])[H])c6N([H])[H])C5([H])[H])c4[H])C3([H])[H])c([H])c([H])c2C1([H])[H]

>  <smiles>  (65) 
[H]c1c([H])c([H])c2c(c1[H])C([H])([H])C([H])([H])C([H])([H])C2([H])N([H])C(=O)C1([H])N(C(=O)C([H])(N([H])C(=O)C([H])(N([H])C([H])([H])[H])C([H])([H])[H])C(C([H])([H])[H])(C([H])([H])[H])C([H])([H])[H])C([H])([H])c2c([H])c(OC([H])([H])C3(C([H])([H])[H])C([H])([H])C([H])([H])[N+]([H])(C([H])([H])[H])C([H])(c4c(C([H])([H])[H])oc(N([H])C(=O)N5C([H])([H])C([H])([H])C([H])([H])C([H])(n6nc(-c7c([H])c([H])c(Oc8c([H])c([H])c(F)c([H])c8F)c([H])c7[H])c(C(=O)N([H])[H])c6N([H])[H])C5([H])[H])c4[H])C3([H])[H])c([H])c([H])c2C1([H])[H]

$$$$
65:0:0
     RDKit          3D

 93102  0  0  1  0  0  0  0  0999 V2000
  -28.7960  -23.8920   20.2630 C   0  0  0  0  0  0  0  0  0  0  0  0
  -28.5520  -25.1400   19.6700 C   0  0  0  0  0  3  0  0  0  0  0  0
  -28.9030  -23.5070   21.7330 C   0  0  0  0  0  3  0  0  0  0  0  0
  -29.0580  -22.5350   19.5310 C   0  0  0  0  0  3  0  0  0  0  0  0
  -29.1950  -21.9550   21.8360 C   0  0  0  0  0  3  0  0  0  0  0  0
  -28.5680  -25.2620   18.1540 C   0  0  0  0  0  1  0  0  0  0  0  0
  -29.2970  -21.3970   20.4860 N   0  0  0  0  0  0  0  0  0  0  0  0
  -30.3510  -18.6080   18.2100 C   0  0  0  0  0  3  0  0  0  0  0  0
  -30.0310  -19.8570   18.7550 C   0  0  0  0  0  3  0  0  0  0  0  0
  -29.6900  -18.7770   20.8980 C   0  0  0  0  0  3  0  0  0  0  0  0
  -30.3230  -17.4210   18.9670 C   0  0  0  0  0  0  0  0  0  0  0  0
  -29.6610  -20.0210   20.1050 C   0  0  0  0  0  0  0  0  0  0  0  0
  -30.0370  -17.4420   20.3650 C   0  0  0  0  0  0  0  0  0  0  0  0
  -30.5030  -16.1390   18.1760 C   0  0  0  0  0  1  0  0  0  0  0  0
  -30.7590  -14.9740   21.0670 C   0  0  0  0  0  0  0  0  0  0  0  0
  -30.7290  -12.6080   20.2340 C   0  0  0  0  0  2  0  0  0  0  0  0
  -29.9510  -12.5240   18.9000 C   0  0  0  0  0  2  0  0  0  0  0  0
  -28.4340  -12.3980   19.1440 C   0  0  0  0  0  2  0  0  0  0  0  0
  -27.9050  -13.3510   20.2500 C   0  0  0  0  0  3  0  0  0  0  0  0
  -28.8190  -13.3680   21.4940 C   0  0  0  0  0  2  0  0  0  0  0  0
  -30.1660  -13.7250   21.0360 N   0  0  0  0  0  0  0  0  0  0  0  0
  -31.9800  -15.0530   20.8990 O   0  0  0  0  0  0  0  0  0  0  0  0
  -29.9580  -16.1270   21.1100 N   0  0  0  0  0  0  0  0  0  0  0  0
  -29.0590  -15.9600   21.5360 H   0  0  0  0  0  0  0  0  0  0  0  0
  -25.4450  -13.9340   20.6840 C   0  0  0  0  0  0  0  0  0  0  0  0
  -24.3500  -13.1600   20.9530 C   0  0  0  0  0  0  0  0  0  0  0  0
  -24.8250  -11.8130   21.0220 C   0  0  0  0  0  0  0  0  0  0  0  0
  -26.5160  -13.0600   20.5960 N   0  0  0  0  0  0  0  0  0  0  0  0
  -26.1430  -11.7820   20.8670 N   0  0  0  0  0  0  0  0  0  0  0  0
  -24.0900  -10.5480   21.1660 C   0  0  0  0  0  0  0  0  0  0  0  0
  -24.4460   -9.5940   22.1460 C   0  0  0  0  0  3  0  0  0  0  0  0
  -23.7110   -8.3960   22.2770 C   0  0  0  0  0  3  0  0  0  0  0  0
  -22.6070   -8.1420   21.4300 C   0  0  0  0  0  0  0  0  0  0  0  0
  -22.2720   -9.0850   20.4400 C   0  0  0  0  0  3  0  0  0  0  0  0
  -23.0070  -10.2750   20.3070 C   0  0  0  0  0  3  0  0  0  0  0  0
  -21.8510   -6.9950   21.4690 O   0  0  0  0  0  0  0  0  0  0  0  0
  -21.7310   -6.2520   22.6150 C   0  0  0  0  0  0  0  0  0  0  0  0
  -21.2010   -6.7980   23.8050 C   0  0  0  0  0  3  0  0  0  0  0  0
  -21.0300   -5.9790   24.9400 C   0  0  0  0  0  3  0  0  0  0  0  0
  -21.3770   -4.6160   24.8850 C   0  0  0  0  0  0  0  0  0  0  0  0
  -21.9000   -4.0700   23.6990 C   0  0  0  0  0  3  0  0  0  0  0  0
  -22.0730   -4.8850   22.5660 C   0  0  0  0  0  0  0  0  0  0  0  0
  -22.5560   -4.3490   21.4200 F   0  0  0  0  0  0  0  0  0  0  0  0
  -21.2060   -3.8290   25.9720 F   0  0  0  0  0  0  0  0  0  0  0  0
  -22.9270  -13.6290   21.0450 C   0  0  0  0  0  0  0  0  0  0  0  0
  -22.1110  -12.9560   21.8480 N   0  0  0  0  0  0  0  0  0  0  0  0
  -22.5430  -14.6270   20.4370 O   0  0  0  0  0  0  0  0  0  0  0  0
  -22.4320  -12.1490   22.3630 H   0  0  0  0  0  0  0  0  0  0  0  0
  -21.1510  -13.2510   21.9510 H   0  0  0  0  0  0  0  0  0  0  0  0
  -25.6190  -15.3000   20.4800 N   0  0  0  0  0  0  0  0  0  0  0  0
  -24.8410  -15.9510   20.4850 H   0  0  0  0  0  0  0  0  0  0  0  0
  -26.4920  -15.7330   20.2080 H   0  0  0  0  0  0  0  0  0  0  0  0
  -28.4290  -26.4330   20.2850 O   0  0  0  0  0  0  0  0  0  0  0  0
  -24.5080  -31.8800   23.0840 C   0  0  0  0  0  0  0  0  0  0  0  0
  -27.3130  -27.3060   20.1370 C   0  0  0  0  0  0  0  0  0  0  0  0
  -23.3800  -30.4200   21.4450 C   0  0  0  0  0  3  0  0  0  0  0  0
  -24.9040  -28.8930   20.0600 C   0  0  0  0  0  0  0  0  0  0  0  0
  -25.9160  -30.8000   21.3050 C   0  0  0  0  0  2  0  0  0  0  0  0
  -26.0500  -29.4120   20.6730 C   0  0  0  0  0  0  0  0  0  0  0  0
  -27.2540  -28.6300   20.7010 C   0  0  0  0  0  3  0  0  0  0  0  0
  -26.1330  -26.8540   19.5040 C   0  0  0  0  0  3  0  0  0  0  0  0
  -24.9530  -27.6230   19.4630 C   0  0  0  0  0  3  0  0  0  0  0  0
  -23.6400  -29.7330   20.0780 C   0  0  0  0  0  2  0  0  0  0  0  0
  -24.6190  -31.0540   22.0010 N   0  0  0  0  0  0  0  0  0  0  0  0
  -23.4050  -32.1310   23.5960 O   0  0  0  0  0  0  0  0  0  0  0  0
  -22.7290  -29.4000   22.4100 C   0  0  0  0  0  0  0  0  0  0  0  0
  -21.4040  -29.2120   22.2940 N   0  0  0  0  0  0  0  0  0  0  0  0
  -23.4180  -28.7800   23.2250 O   0  0  0  0  0  0  0  0  0  0  0  0
  -20.9050  -29.7630   21.6090 H   0  0  0  0  0  0  0  0  0  0  0  0
  -18.0370  -27.9980   22.8390 C   0  0  0  0  0  0  0  0  0  0  0  0
  -20.5990  -28.2650   23.0690 C   0  0  0  0  0  3  0  0  0  0  0  0
  -20.6960  -26.8380   22.4800 C   0  0  0  0  0  2  0  0  0  0  0  0
  -19.5790  -26.5220   21.4810 C   0  0  0  0  0  2  0  0  0  0  0  0
  -18.2070  -26.6550   22.1470 C   0  0  0  0  0  2  0  0  0  0  0  0
  -19.1600  -28.7600   23.2580 C   0  0  0  0  0  0  0  0  0  0  0  0
  -18.9460  -30.0160   23.8660 C   0  0  0  0  0  3  0  0  0  0  0  0
  -17.6430  -30.5100   24.0580 C   0  0  0  0  0  3  0  0  0  0  0  0
  -16.5340  -29.7460   23.6550 C   0  0  0  0  0  3  0  0  0  0  0  0
  -16.7320  -28.4900   23.0510 C   0  0  0  0  0  3  0  0  0  0  0  0
  -25.7560  -32.5640   23.7220 C   0  0  0  0  0  3  0  0  0  0  0  0
  -25.3720  -33.9340   24.0920 N   0  0  0  0  0  0  0  0  0  0  0  0
  -25.7270  -35.0360   23.4160 C   0  0  0  0  0  0  0  0  0  0  0  0
  -26.4800  -35.0060   22.4390 O   0  0  0  0  0  0  0  0  0  0  0  0
  -24.7090  -34.0300   24.8470 H   0  0  0  0  0  0  0  0  0  0  0  0
  -24.0090  -36.8220   22.9830 C   0  0  0  0  0  1  0  0  0  0  0  0
  -25.1600  -36.3850   23.9020 C   0  0  0  0  0  3  0  0  0  0  0  0
  -27.1710  -37.2450   25.0190 C   0  0  0  0  0  1  0  0  0  0  0  0
  -26.1750  -37.4590   23.9740 N   0  0  0  0  0  0  0  0  0  0  0  0
  -25.7330  -38.3600   24.1360 H   0  0  0  0  0  0  0  0  0  0  0  0
  -26.3170  -31.7890   24.9770 C   0  0  1  0  0  0  0  0  0  0  0  0
  -25.2430  -31.4740   26.0440 C   0  0  0  0  0  1  0  0  0  0  0  0
  -26.9620  -30.4490   24.5520 C   0  0  0  0  0  1  0  0  0  0  0  0
  -27.4330  -32.6210   25.6520 C   0  0  0  0  0  1  0  0  0  0  0  0
  1  3  1  0
  2  6  1  0
  2  1  1  0
  2 53  1  0
  3  5  2  0
  4  1  2  0
  4  7  1  0
  7  5  1  0
  8  9  2  0
  8 11  1  0
  9 12  1  0
 11 13  2  0
 12  7  1  0
 12 10  2  0
 13 10  1  0
 13 23  1  0
 14 11  1  0
 15 23  1  0
 16 21  1  0
 17 18  1  0
 17 16  1  0
 19 18  1  0
 19 28  1  0
 19 20  1  0
 21 15  1  0
 21 20  1  0
 22 15  2  0
 23 24  1  0
 25 26  2  0
 26 27  1  0
 26 45  1  0
 27 30  1  0
 28 25  1  0
 28 29  1  0
 29 27  2  0
 30 31  1  0
 31 32  2  0
 33 36  1  0
 33 32  1  0
 34 33  2  0
 35 34  1  0
 35 30  2  0
 36 37  1  0
 37 38  1  0
 38 39  2  0
 40 39  1  0
 40 44  1  0
 41 40  2  0
 42 37  2  0
 42 41  1  0
 43 42  1  0
 45 46  1  0
 46 49  1  0
 46 48  1  0
 47 45  2  0
 50 51  1  0
 50 25  1  0
 52 50  1  0
 54 65  2  0
 55 53  1  0
 55 60  1  0
 56 64  1  0
 56 66  1  0
 57 63  1  0
 57 59  1  0
 58 64  1  0
 59 60  2  0
 59 58  1  0
 61 55  2  0
 62 61  1  0
 62 57  2  0
 63 56  1  0
 64 54  1  0
 66 68  2  0
 67 66  1  0
 69 67  1  0
 70 79  2  0
 70 75  1  0
 71 67  1  0
 71 75  1  0
 72 71  1  0
 73 74  1  0
 73 72  1  0
 74 70  1  0
 75 76  2  0
 76 77  1  0
 78 77  2  0
 79 78  1  0
 80 54  1  0
 80 81  1  0
 80 90  1  0
 81 84  1  0
 82 86  1  0
 82 81  1  0
 83 82  2  0
 86 85  1  0
 86 88  1  0
 88 89  1  0
 88 87  1  0
 90 93  1  1
 90 91  1  0
 92 90  1  0
M  ISO  4   2 101  15 100  23 100  53 101
M  END
>  <TORSDO>  (66) 
F 17

>  <SCORE>  (66) 
-14.525

>  <name>  (66) 
65

>  <ligand_id>  (66) 
65

>  <original_smiles>  (66) 
[H]c1c([H])c([H])c2c(c1[H])C([H])([H])C([H])([H])C([H])([H])C2([H])N([H])C(=O)C1([H])N(C(=O)C([H])(N([H])C(=O)C([H])(N([H])C([H])([H])[H])C([H])([H])[H])C(C([H])([H])[H])(C([H])([H])[H])C([H])([H])[H])C([H])([H])c2c([H])c(OC(=C3C([H])([H])N(c4c([H])c([H])c(C([H])([H])[H])c(N([H])C(=O)N5C([H])([H])C([H])([H])C([H])([H])C([H])(n6nc(-c7c([H])c([H])c(Oc8c([H])c([H])c(F)c([H])c8F)c([H])c7[H])c(C(=O)N([H])[H])c6N([H])[H])C5([H])[H])c4[H])C([H])([H])C3([H])[H])C([H])([H])[H])c([H])c([H])c2C1([H])[H]

>  <smiles>  (66) 
[H]c1c([H])c([H])c2c(c1[H])C([H])([H])C([H])([H])C([H])([H])C2([H])N([H])C(=O)C1([H])N(C(=O)C([H])(N([H])C(=O)C([H])(N([H])C([H])([H])[H])C([H])([H])[H])C(C([H])([H])[H])(C([H])([H])[H])C([H])([H])[H])C([H])([H])c2c([H])c(OC(=C3C([H])([H])N(c4c([H])c([H])c(C([H])([H])[H])c(N([H])C(=O)N5C([H])([H])C([H])([H])C([H])([H])C([H])(n6nc(-c7c([H])c([H])c(Oc8c([H])c([H])c(F)c([H])c8F)c([H])c7[H])c(C(=O)N([H])[H])c6N([H])[H])C5([H])[H])c4[H])C([H])([H])C3([H])[H])C([H])([H])[H])c([H])c([H])c2C1([H])[H]

$$$$
66:0:0
     RDKit          3D

 97106  0  0  1  0  0  0  0  0999 V2000
  -29.0950  -23.8910   20.1910 C   0  0  0  0  0  0  0  0  0  0  0  0
  -28.8420  -22.6780   20.7750 C   0  0  0  0  0  0  0  0  0  0  0  0
  -30.9960  -22.4550   19.8780 C   0  0  0  0  0  2  0  0  0  0  0  0
  -30.4960  -23.9070   19.6300 C   0  0  0  0  0  3  0  0  0  0  0  0
  -30.0920  -21.7310   20.9400 C   0  0  2  0  0  0  0  0  0  0  0  0
  -27.4720  -22.2340   21.2700 C   0  0  0  0  0  1  0  0  0  0  0  0
  -31.4110  -25.0070   20.1960 C   0  0  0  0  0  1  0  0  0  0  0  0
  -28.8290  -19.3700   20.6770 C   0  0  0  0  0  3  0  0  0  0  0  0
  -31.2030  -19.3950   20.4030 C   0  0  0  0  0  3  0  0  0  0  0  0
  -28.8490  -17.9470   20.6220 C   0  0  0  0  0  3  0  0  0  0  0  0
  -31.2290  -17.9640   20.3370 C   0  0  0  0  0  3  0  0  0  0  0  0
  -30.0110  -20.1600   20.6080 C   0  0  0  0  0  0  0  0  0  0  0  0
  -30.0440  -17.1960   20.4750 C   0  0  0  0  0  0  0  0  0  0  0  0
  -30.7510  -14.6980   20.1310 C   0  0  0  0  0  0  0  0  0  0  0  0
  -30.4910  -12.4660   19.0580 C   0  0  0  0  0  2  0  0  0  0  0  0
  -29.4990  -12.6060   17.8820 C   0  0  0  0  0  2  0  0  0  0  0  0
  -28.0410  -12.4600   18.3640 C   0  0  0  0  0  2  0  0  0  0  0  0
  -27.7390  -13.3200   19.6200 C   0  0  0  0  0  3  0  0  0  0  0  0
  -28.8380  -13.1400   20.6930 C   0  0  0  0  0  2  0  0  0  0  0  0
  -30.1290  -13.4770   20.0700 N   0  0  0  0  0  0  0  0  0  0  0  0
  -31.8970  -14.8580   19.6980 O   0  0  0  0  0  0  0  0  0  0  0  0
  -29.9490  -15.7350   20.5280 N   0  0  0  0  0  0  0  0  0  0  0  0
  -29.0490  -15.3990   20.8320 H   0  0  0  0  0  0  0  0  0  0  0  0
  -25.3850  -13.9520   20.4390 C   0  0  0  0  0  0  0  0  0  0  0  0
  -24.3200  -13.1920   20.8390 C   0  0  0  0  0  0  0  0  0  0  0  0
  -24.7560  -11.8330   20.7670 C   0  0  0  0  0  0  0  0  0  0  0  0
  -26.4040  -13.0570   20.1510 N   0  0  0  0  0  0  0  0  0  0  0  0
  -26.0320  -11.7760   20.4080 N   0  0  0  0  0  0  0  0  0  0  0  0
  -24.0130  -10.5810   20.9640 C   0  0  0  0  0  0  0  0  0  0  0  0
  -24.4420   -9.6080   21.8930 C   0  0  0  0  0  3  0  0  0  0  0  0
  -23.7010   -8.4200   22.0780 C   0  0  0  0  0  3  0  0  0  0  0  0
  -22.5180   -8.1980   21.3330 C   0  0  0  0  0  0  0  0  0  0  0  0
  -22.1090   -9.1610   20.3930 C   0  0  0  0  0  3  0  0  0  0  0  0
  -22.8490  -10.3390   20.2080 C   0  0  0  0  0  3  0  0  0  0  0  0
  -21.7490   -7.0630   21.4270 O   0  0  0  0  0  0  0  0  0  0  0  0
  -21.6670   -6.3450   22.5920 C   0  0  0  0  0  0  0  0  0  0  0  0
  -21.2070   -6.9250   23.7950 C   0  0  0  0  0  3  0  0  0  0  0  0
  -21.0730   -6.1320   24.9520 C   0  0  0  0  0  3  0  0  0  0  0  0
  -21.3870   -4.7600   24.9080 C   0  0  0  0  0  0  0  0  0  0  0  0
  -21.8400   -4.1800   23.7100 C   0  0  0  0  0  3  0  0  0  0  0  0
  -21.9760   -4.9700   22.5550 C   0  0  0  0  0  0  0  0  0  0  0  0
  -22.3930   -4.4010   21.3980 F   0  0  0  0  0  0  0  0  0  0  0  0
  -21.2510   -3.9970   26.0170 F   0  0  0  0  0  0  0  0  0  0  0  0
  -22.9420  -13.6900   21.1720 C   0  0  0  0  0  0  0  0  0  0  0  0
  -22.2370  -12.9940   22.0570 N   0  0  0  0  0  0  0  0  0  0  0  0
  -22.5020  -14.7290   20.6840 O   0  0  0  0  0  0  0  0  0  0  0  0
  -22.6060  -12.1510   22.4720 H   0  0  0  0  0  0  0  0  0  0  0  0
  -21.3150  -13.3070   22.3230 H   0  0  0  0  0  0  0  0  0  0  0  0
  -25.5650  -15.3230   20.2720 N   0  0  0  0  0  0  0  0  0  0  0  0
  -24.8030  -15.9780   20.4000 H   0  0  0  0  0  0  0  0  0  0  0  0
  -26.3810  -15.7420   19.8460 H   0  0  0  0  0  0  0  0  0  0  0  0
  -30.1690  -20.7280   23.3900 C   0  0  0  0  0  1  0  0  0  0  0  0
  -30.1840  -23.1640   23.2010 C   0  0  0  0  0  1  0  0  0  0  0  0
  -32.1860  -21.8520   22.5340 C   0  0  0  0  0  1  0  0  0  0  0  0
  -30.6410  -21.8770   22.4590 C   0  0  2  0  0  0  0  0  0  0  0  0
  -28.0840  -25.0450   19.8440 C   0  0  0  0  0  2  0  0  0  0  0  0
  -28.3290  -26.4580   20.2330 O   0  0  0  0  0  0  0  0  0  0  0  0
  -24.6240  -31.8780   23.2660 C   0  0  0  0  0  0  0  0  0  0  0  0
  -27.2280  -27.3380   20.1640 C   0  0  0  0  0  0  0  0  0  0  0  0
  -23.4200  -30.5030   21.6090 C   0  0  0  0  0  3  0  0  0  0  0  0
  -24.8710  -28.9700   20.1670 C   0  0  0  0  0  0  0  0  0  0  0  0
  -25.9630  -30.8090   21.4410 C   0  0  0  0  0  2  0  0  0  0  0  0
  -26.0400  -29.4390   20.7780 C   0  0  0  0  0  0  0  0  0  0  0  0
  -27.2210  -28.6330   20.7740 C   0  0  0  0  0  3  0  0  0  0  0  0
  -26.0360  -26.9450   19.5040 C   0  0  0  0  0  3  0  0  0  0  0  0
  -24.8710  -27.7290   19.5210 C   0  0  0  0  0  3  0  0  0  0  0  0
  -23.6370  -29.8470   20.2210 C   0  0  0  0  0  2  0  0  0  0  0  0
  -24.6880  -31.0800   22.1620 N   0  0  0  0  0  0  0  0  0  0  0  0
  -23.5390  -32.1550   23.7990 O   0  0  0  0  0  0  0  0  0  0  0  0
  -22.7520  -29.4750   22.5540 C   0  0  0  0  0  0  0  0  0  0  0  0
  -21.4340  -29.2700   22.3910 N   0  0  0  0  0  0  0  0  0  0  0  0
  -23.4190  -28.8650   23.3940 O   0  0  0  0  0  0  0  0  0  0  0  0
  -20.9560  -29.8150   21.6880 H   0  0  0  0  0  0  0  0  0  0  0  0
  -18.0760  -27.9750   22.7650 C   0  0  0  0  0  0  0  0  0  0  0  0
  -20.6100  -28.3240   23.1450 C   0  0  0  0  0  3  0  0  0  0  0  0
  -20.7840  -26.8840   22.6080 C   0  0  0  0  0  2  0  0  0  0  0  0
  -19.7410  -26.5040   21.5520 C   0  0  0  0  0  2  0  0  0  0  0  0
  -18.3260  -26.6180   22.1300 C   0  0  0  0  0  2  0  0  0  0  0  0
  -19.1500  -28.7820   23.2270 C   0  0  0  0  0  0  0  0  0  0  0  0
  -18.8640  -30.0500   23.7790 C   0  0  0  0  0  3  0  0  0  0  0  0
  -17.5380  -30.5120   23.8750 C   0  0  0  0  0  3  0  0  0  0  0  0
  -16.4780  -29.7030   23.4300 C   0  0  0  0  0  3  0  0  0  0  0  0
  -16.7480  -28.4370   22.8800 C   0  0  0  0  0  3  0  0  0  0  0  0
  -25.9070  -32.5000   23.8970 C   0  0  0  0  0  3  0  0  0  0  0  0
  -26.4080  -31.7220   25.1750 C   0  0  1  0  0  0  0  0  0  0  0  0
  -25.3050  -31.4870   26.2330 C   0  0  0  0  0  1  0  0  0  0  0  0
  -26.9880  -30.3430   24.7840 C   0  0  0  0  0  1  0  0  0  0  0  0
  -27.5560  -32.5090   25.8490 C   0  0  0  0  0  1  0  0  0  0  0  0
  -25.6040  -33.8990   24.2300 N   0  0  0  0  0  0  0  0  0  0  0  0
  -25.9210  -34.9500   23.4620 C   0  0  0  0  0  0  0  0  0  0  0  0
  -26.5710  -34.8440   22.4180 O   0  0  0  0  0  0  0  0  0  0  0  0
  -25.0260  -34.0550   25.0430 H   0  0  0  0  0  0  0  0  0  0  0  0
  -24.1750  -36.7330   23.1520 C   0  0  0  0  0  1  0  0  0  0  0  0
  -25.4430  -36.3400   23.9260 C   0  0  0  0  0  3  0  0  0  0  0  0
  -27.5980  -37.2420   24.6850 C   0  0  0  0  0  1  0  0  0  0  0  0
  -26.4670  -37.3960   23.7720 N   0  0  0  0  0  0  0  0  0  0  0  0
  -26.0620  -38.3160   23.9230 H   0  0  0  0  0  0  0  0  0  0  0  0
  1  2  2  0
  2  5  1  0
  2  6  1  0
  3  5  1  0
  4  3  1  0
  4  1  1  0
  4  7  1  0
  5 55  1  0
  9 12  1  0
 10  8  1  0
 11  9  2  0
 11 13  1  0
 12  8  2  0
  5 12  1  6
 13 22  1  0
 13 10  2  0
 14 22  1  0
 15 20  1  0
 16 17  1  0
 16 15  1  0
 18 17  1  0
 18 27  1  0
 18 19  1  0
 20 14  1  0
 20 19  1  0
 21 14  2  0
 22 23  1  0
 24 25  2  0
 25 44  1  0
 26 25  1  0
 26 29  1  0
 27 28  1  0
 27 24  1  0
 28 26  2  0
 29 30  1  0
 30 31  2  0
 32 35  1  0
 32 31  1  0
 33 32  2  0
 34 33  1  0
 34 29  2  0
 35 36  1  0
 36 37  1  0
 37 38  2  0
 39 38  1  0
 39 43  1  0
 40 39  2  0
 41 36  2  0
 41 40  1  0
 42 41  1  0
 44 45  1  0
 45 48  1  0
 45 47  1  0
 46 44  2  0
 49 50  1  0
 49 24  1  0
 51 49  1  0
 55 54  1  6
 55 53  1  0
 55 52  1  0
 56  1  1  0
 56 57  1  0
 58 69  2  0
 59 57  1  0
 59 64  1  0
 60 68  1  0
 60 70  1  0
 61 67  1  0
 61 63  1  0
 62 68  1  0
 63 62  1  0
 64 63  2  0
 65 66  1  0
 65 59  2  0
 66 61  2  0
 67 60  1  0
 68 58  1  0
 70 72  2  0
 71 70  1  0
 73 71  1  0
 74 83  2  0
 74 79  1  0
 75 71  1  0
 75 79  1  0
 76 75  1  0
 77 78  1  0
 77 76  1  0
 78 74  1  0
 79 80  2  0
 80 81  1  0
 82 81  2  0
 83 82  1  0
 84 58  1  0
 84 89  1  0
 84 85  1  0
 85 88  1  1
 85 86  1  0
 87 85  1  0
 89 92  1  0
 90 94  1  0
 90 89  1  0
 91 90  2  0
 94 93  1  0
 96 97  1  0
 96 94  1  0
 96 95  1  0
M  ISO  4  14 100  22 100  56 101  57 101
M  END
>  <TORSDO>  (67) 
F 19

>  <SCORE>  (67) 
-13.840

>  <name>  (67) 
66

>  <ligand_id>  (67) 
66

>  <original_smiles>  (67) 
[H]c1c([H])c([H])c2c(c1[H])C([H])([H])C([H])([H])C([H])([H])C2([H])N([H])C(=O)C1([H])N(C(=O)C([H])(N([H])C(=O)C([H])(N([H])C([H])([H])[H])C([H])([H])[H])C(C([H])([H])[H])(C([H])([H])[H])C([H])([H])[H])C([H])([H])c2c([H])c(OC([H])([H])C3=C(C([H])([H])[H])C(c4c([H])c([H])c(N([H])C(=O)N5C([H])([H])C([H])([H])C([H])([H])C([H])(n6nc(-c7c([H])c([H])c(Oc8c([H])c([H])c(F)c([H])c8F)c([H])c7[H])c(C(=O)N([H])[H])c6N([H])[H])C5([H])[H])c([H])c4[H])(C(C([H])([H])[H])(C([H])([H])[H])C([H])([H])[H])C([H])([H])C3([H])C([H])([H])[H])c([H])c([H])c2C1([H])[H]

>  <smiles>  (67) 
[H]c1c([H])c([H])c2c(c1[H])C([H])([H])C([H])([H])C([H])([H])C2([H])N([H])C(=O)C1([H])N(C(=O)C([H])(N([H])C(=O)C([H])(N([H])C([H])([H])[H])C([H])([H])[H])C(C([H])([H])[H])(C([H])([H])[H])C([H])([H])[H])C([H])([H])c2c([H])c(OC([H])([H])C3=C(C([H])([H])[H])C(c4c([H])c([H])c(N([H])C(=O)N5C([H])([H])C([H])([H])C([H])([H])C([H])(n6nc(-c7c([H])c([H])c(Oc8c([H])c([H])c(F)c([H])c8F)c([H])c7[H])c(C(=O)N([H])[H])c6N([H])[H])C5([H])[H])c([H])c4[H])(C(C([H])([H])[H])(C([H])([H])[H])C([H])([H])[H])C([H])([H])C3([H])C([H])([H])[H])c([H])c([H])c2C1([H])[H]

$$$$
67:0:0
     RDKit          3D

 93102  0  0  1  0  0  0  0  0999 V2000
  -28.7090  -21.7140   20.3390 N   0  0  0  0  0  0  0  0  0  0  0  0
  -27.8430  -21.6240   19.8180 H   0  0  0  0  0  0  0  0  0  0  0  0
  -30.7300  -14.6430   20.1220 C   0  0  0  0  0  0  0  0  0  0  0  0
  -30.3540  -12.4620   18.9960 C   0  0  0  0  0  2  0  0  0  0  0  0
  -29.3600  -12.6300   17.8280 C   0  0  0  0  0  2  0  0  0  0  0  0
  -27.9150  -12.4650   18.3320 C   0  0  0  0  0  2  0  0  0  0  0  0
  -27.6240  -13.3130   19.5980 C   0  0  0  0  0  3  0  0  0  0  0  0
  -28.7360  -13.1580   20.6600 C   0  0  0  0  0  2  0  0  0  0  0  0
  -30.0210  -13.4740   20.0200 N   0  0  0  0  0  0  0  0  0  0  0  0
  -31.8440  -14.7480   19.5990 O   0  0  0  0  0  0  0  0  0  0  0  0
  -31.1520  -19.2280   21.8470 C   0  0  0  0  0  3  0  0  0  0  0  0
  -30.5380  -20.4600   21.4970 C   0  0  0  0  0  3  0  0  0  0  0  0
  -28.8530  -19.2530   20.2070 C   0  0  0  0  0  3  0  0  0  0  0  0
  -30.6030  -18.0220   21.3650 C   0  0  0  0  0  0  0  0  0  0  0  0
  -29.4880  -18.0280   20.5570 C   0  0  0  0  0  0  0  0  0  0  0  0
  -29.3760  -20.5010   20.6780 C   0  0  0  0  0  0  0  0  0  0  0  0
  -31.0680  -16.5990   21.6030 C   0  0  0  0  0  3  0  0  0  0  0  0
  -29.1450  -16.5870   20.1840 C   0  0  0  0  0  3  0  0  0  0  0  0
  -30.1860  -15.7040   20.7990 N   0  0  0  0  0  0  0  0  0  0  0  0
  -25.2750  -13.8970   20.4580 C   0  0  0  0  0  0  0  0  0  0  0  0
  -24.2270  -13.1170   20.8650 C   0  0  0  0  0  0  0  0  0  0  0  0
  -24.6830  -11.7660   20.7750 C   0  0  0  0  0  0  0  0  0  0  0  0
  -26.3030  -13.0210   20.1470 N   0  0  0  0  0  0  0  0  0  0  0  0
  -25.9550  -11.7330   20.3980 N   0  0  0  0  0  0  0  0  0  0  0  0
  -23.9630  -10.5010   20.9700 C   0  0  0  0  0  0  0  0  0  0  0  0
  -24.4040   -9.5350   21.8990 C   0  0  0  0  0  3  0  0  0  0  0  0
  -23.6840   -8.3360   22.0830 C   0  0  0  0  0  3  0  0  0  0  0  0
  -22.5070   -8.0930   21.3360 C   0  0  0  0  0  0  0  0  0  0  0  0
  -22.0840   -9.0480   20.3940 C   0  0  0  0  0  3  0  0  0  0  0  0
  -22.8050  -10.2390   20.2080 C   0  0  0  0  0  3  0  0  0  0  0  0
  -21.7570   -6.9450   21.4280 O   0  0  0  0  0  0  0  0  0  0  0  0
  -21.6790   -6.2290   22.5950 C   0  0  0  0  0  0  0  0  0  0  0  0
  -21.1710   -6.7960   23.7840 C   0  0  0  0  0  3  0  0  0  0  0  0
  -21.0410   -6.0050   24.9430 C   0  0  0  0  0  3  0  0  0  0  0  0
  -21.4110   -4.6460   24.9130 C   0  0  0  0  0  0  0  0  0  0  0  0
  -21.9110   -4.0780   23.7280 C   0  0  0  0  0  3  0  0  0  0  0  0
  -22.0420   -4.8670   22.5720 C   0  0  0  0  0  0  0  0  0  0  0  0
  -22.5050   -4.3100   21.4270 F   0  0  0  0  0  0  0  0  0  0  0  0
  -21.2800   -3.8830   26.0230 F   0  0  0  0  0  0  0  0  0  0  0  0
  -22.8490  -13.5910   21.2230 C   0  0  0  0  0  0  0  0  0  0  0  0
  -22.1610  -12.8680   22.1000 N   0  0  0  0  0  0  0  0  0  0  0  0
  -22.3900  -14.6350   20.7600 O   0  0  0  0  0  0  0  0  0  0  0  0
  -22.5470  -12.0230   22.4950 H   0  0  0  0  0  0  0  0  0  0  0  0
  -21.2380  -13.1660   22.3850 H   0  0  0  0  0  0  0  0  0  0  0  0
  -25.4310  -15.2710   20.3030 N   0  0  0  0  0  0  0  0  0  0  0  0
  -24.6670  -15.9190   20.4640 H   0  0  0  0  0  0  0  0  0  0  0  0
  -26.2490  -15.7150   19.9100 H   0  0  0  0  0  0  0  0  0  0  0  0
  -29.2060  -23.1150   20.4790 C   0  0  0  0  0  2  0  0  0  0  0  0
  -26.7920  -23.9500   20.4050 C   0  0  0  0  0  1  0  0  0  0  0  0
  -27.9940  -23.7490   22.5710 C   0  0  0  0  0  1  0  0  0  0  0  0
  -28.1590  -24.1390   21.0860 C   0  0  1  0  0  0  0  0  0  0  0  0
  -28.5920  -25.6840   21.0820 C   0  0  0  0  0  2  0  0  0  0  0  0
  -28.3610  -26.5760   19.9490 O   0  0  0  0  0  0  0  0  0  0  0  0
  -24.6230  -31.8460   23.1580 C   0  0  0  0  0  0  0  0  0  0  0  0
  -27.2430  -27.4030   20.0020 C   0  0  0  0  0  0  0  0  0  0  0  0
  -23.4150  -30.4710   21.4990 C   0  0  0  0  0  3  0  0  0  0  0  0
  -24.8680  -28.9640   20.0350 C   0  0  0  0  0  0  0  0  0  0  0  0
  -25.9470  -30.8200   21.3050 C   0  0  0  0  0  2  0  0  0  0  0  0
  -26.0320  -29.4550   20.6430 C   0  0  0  0  0  0  0  0  0  0  0  0
  -27.2250  -28.6790   20.6320 C   0  0  0  0  0  3  0  0  0  0  0  0
  -26.0730  -26.9700   19.3500 C   0  0  0  0  0  3  0  0  0  0  0  0
  -24.8850  -27.7210   19.3850 C   0  0  0  0  0  3  0  0  0  0  0  0
  -23.6240  -29.8250   20.1050 C   0  0  0  0  0  2  0  0  0  0  0  0
  -24.6800  -31.0620   22.0440 N   0  0  0  0  0  0  0  0  0  0  0  0
  -23.5430  -32.1060   23.7050 O   0  0  0  0  0  0  0  0  0  0  0  0
  -22.7690  -29.4300   22.4420 C   0  0  0  0  0  0  0  0  0  0  0  0
  -21.4410  -29.2620   22.3330 N   0  0  0  0  0  0  0  0  0  0  0  0
  -23.4590  -28.7770   23.2290 O   0  0  0  0  0  0  0  0  0  0  0  0
  -20.9430  -29.8410   21.6700 H   0  0  0  0  0  0  0  0  0  0  0  0
  -18.0640  -28.0900   22.8800 C   0  0  0  0  0  0  0  0  0  0  0  0
  -20.6300  -28.3100   23.0920 C   0  0  0  0  0  3  0  0  0  0  0  0
  -20.7020  -26.8970   22.4660 C   0  0  0  0  0  2  0  0  0  0  0  0
  -19.5670  -26.6170   21.4750 C   0  0  0  0  0  2  0  0  0  0  0  0
  -18.2060  -26.7600   22.1610 C   0  0  0  0  0  2  0  0  0  0  0  0
  -19.2020  -28.8250   23.3040 C   0  0  0  0  0  0  0  0  0  0  0  0
  -19.0160  -30.0710   23.9400 C   0  0  0  0  0  3  0  0  0  0  0  0
  -17.7230  -30.5850   24.1560 C   0  0  0  0  0  3  0  0  0  0  0  0
  -16.5990  -29.8470   23.7470 C   0  0  0  0  0  3  0  0  0  0  0  0
  -16.7700  -28.6010   23.1160 C   0  0  0  0  0  3  0  0  0  0  0  0
  -25.9080  -32.4720   23.7830 C   0  0  0  0  0  3  0  0  0  0  0  0
  -26.4420  -31.6730   25.0350 C   0  0  1  0  0  0  0  0  0  0  0  0
  -25.3610  -31.4020   26.1070 C   0  0  0  0  0  1  0  0  0  0  0  0
  -27.0320  -30.3100   24.6050 C   0  0  0  0  0  1  0  0  0  0  0  0
  -27.5930  -32.4600   25.7060 C   0  0  0  0  0  1  0  0  0  0  0  0
  -25.5920  -33.8590   24.1470 N   0  0  0  0  0  0  0  0  0  0  0  0
  -25.8990  -34.9300   23.4030 C   0  0  0  0  0  0  0  0  0  0  0  0
  -26.5480  -34.8540   22.3570 O   0  0  0  0  0  0  0  0  0  0  0  0
  -25.0120  -33.9920   24.9640 H   0  0  0  0  0  0  0  0  0  0  0  0
  -24.1490  -36.7130   23.1180 C   0  0  0  0  0  1  0  0  0  0  0  0
  -25.4060  -36.3030   23.9000 C   0  0  0  0  0  3  0  0  0  0  0  0
  -27.5420  -37.1940   24.7200 C   0  0  0  0  0  1  0  0  0  0  0  0
  -26.4290  -37.3680   23.7920 N   0  0  0  0  0  0  0  0  0  0  0  0
  -26.0160  -38.2820   23.9600 H   0  0  0  0  0  0  0  0  0  0  0  0
  1 48  1  0
  1 16  1  0
  2  1  1  0
  3 19  1  0
  4  9  1  0
  5  6  1  0
  5  4  1  0
  7  6  1  0
  7 23  1  0
  7  8  1  0
  9  3  1  0
  9  8  1  0
 10  3  2  0
 12 11  2  0
 13 15  1  0
 13 16  2  0
 14 17  2  0
 14 11  1  0
 15 14  1  0
 16 12  1  0
 18 15  2  0
 18 19  1  0
 19 17  1  0
 20 21  2  0
 21 40  1  0
 22 21  1  0
 22 25  1  0
 23 24  1  0
 23 20  1  0
 24 22  2  0
 25 26  1  0
 26 27  2  0
 28 31  1  0
 28 27  1  0
 29 28  2  0
 30 29  1  0
 30 25  2  0
 31 32  1  0
 32 33  1  0
 33 34  2  0
 35 34  1  0
 35 39  1  0
 36 35  2  0
 37 32  2  0
 37 36  1  0
 38 37  1  0
 40 41  1  0
 41 44  1  0
 41 43  1  0
 42 40  2  0
 45 20  1  0
 45 46  1  0
 47 45  1  0
 48 51  1  0
 51 49  1  6
 51 50  1  0
 52 51  1  0
 53 55  1  0
 53 52  1  0
 54 65  2  0
 55 60  1  0
 56 64  1  0
 56 66  1  0
 57 63  1  0
 57 59  1  0
 58 64  1  0
 59 58  1  0
 60 59  2  0
 61 62  1  0
 61 55  2  0
 62 57  2  0
 63 56  1  0
 64 54  1  0
 66 68  2  0
 67 66  1  0
 69 67  1  0
 70 79  2  0
 70 75  1  0
 71 67  1  0
 71 75  1  0
 72 71  1  0
 73 74  1  0
 73 72  1  0
 74 70  1  0
 75 76  2  0
 76 77  1  0
 78 77  2  0
 79 78  1  0
 80 54  1  0
 80 85  1  0
 80 81  1  0
 81 84  1  1
 81 82  1  0
 83 81  1  0
 85 88  1  0
 86 90  1  0
 86 85  1  0
 87 86  2  0
 90 89  1  0
 92 90  1  0
 92 93  1  0
 92 91  1  0
M  ISO  4   3 100  19 100  52 101  53 101
M  END
>  <TORSDO>  (68) 
F 19

>  <SCORE>  (68) 
-14.257

>  <name>  (68) 
67

>  <ligand_id>  (68) 
67

>  <original_smiles>  (68) 
[H]c1c([H])c([H])c2c(c1[H])C([H])([H])C([H])([H])C([H])([H])C2([H])N([H])C(=O)C1([H])N(C(=O)C([H])(N([H])C(=O)C([H])(N([H])C([H])([H])[H])C([H])([H])[H])C(C([H])([H])[H])(C([H])([H])[H])C([H])([H])[H])C([H])([H])c2c([H])c(OC([H])([H])C(C([H])([H])[H])(C([H])([H])[H])C([H])([H])N([H])c3c([H])c([H])c4c(c3[H])C([H])([H])N(C(=O)N3C([H])([H])C([H])([H])C([H])([H])C([H])(n5nc(-c6c([H])c([H])c(Oc7c([H])c([H])c(F)c([H])c7F)c([H])c6[H])c(C(=O)N([H])[H])c5N([H])[H])C3([H])[H])C4([H])[H])c([H])c([H])c2C1([H])[H]

>  <smiles>  (68) 
[H]c1c([H])c([H])c2c(c1[H])C([H])([H])C([H])([H])C([H])([H])C2([H])N([H])C(=O)C1([H])N(C(=O)C([H])(N([H])C(=O)C([H])(N([H])C([H])([H])[H])C([H])([H])[H])C(C([H])([H])[H])(C([H])([H])[H])C([H])([H])[H])C([H])([H])c2c([H])c(OC([H])([H])C(C([H])([H])[H])(C([H])([H])[H])C([H])([H])N([H])c3c([H])c([H])c4c(c3[H])C([H])([H])N(C(=O)N3C([H])([H])C([H])([H])C([H])([H])C([H])(n5nc(-c6c([H])c([H])c(Oc7c([H])c([H])c(F)c([H])c7F)c([H])c6[H])c(C(=O)N([H])[H])c5N([H])[H])C3([H])[H])C4([H])[H])c([H])c([H])c2C1([H])[H]

$$$$
68:0:0
     RDKit          3D

 90 99  0  0  1  0  0  0  0  0999 V2000
  -28.9110  -21.7330   21.5820 C   0  0  0  0  0  2  0  0  0  0  0  0
  -28.7010  -23.2860   21.5330 C   0  0  0  0  0  2  0  0  0  0  0  0
  -28.4680  -22.3690   19.3330 C   0  0  0  0  0  2  0  0  0  0  0  0
  -28.4240  -21.0790   20.2740 C   0  0  0  0  0  3  0  0  0  0  0  0
  -28.0830  -23.6720   20.1750 C   0  0  0  0  0  3  0  0  0  0  0  0
  -28.8610  -18.3450   20.4140 C   0  0  0  0  0  3  0  0  0  0  0  0
  -30.3020  -19.6280   19.1630 C   0  0  0  0  0  3  0  0  0  0  0  0
  -29.1750  -19.7100   19.9410 C   0  0  0  0  0  0  0  0  0  0  0  0
  -29.7400  -17.2870   20.0800 C   0  0  0  0  0  0  0  0  0  0  0  0
  -30.9780  -17.9990   19.0620 S   0  0  0  0  0  0  0  0  0  0  0  0
  -30.5340  -14.8320   20.2570 C   0  0  0  0  0  0  0  0  0  0  0  0
  -30.4290  -12.5140   19.3420 C   0  0  0  0  0  2  0  0  0  0  0  0
  -29.4910  -12.5530   18.1160 C   0  0  0  0  0  2  0  0  0  0  0  0
  -28.0210  -12.3630   18.5460 C   0  0  0  0  0  2  0  0  0  0  0  0
  -27.6290  -13.2730   19.7420 C   0  0  0  0  0  3  0  0  0  0  0  0
  -28.6850  -13.2090   20.8640 C   0  0  0  0  0  2  0  0  0  0  0  0
  -29.9750  -13.5750   20.2670 N   0  0  0  0  0  0  0  0  0  0  0  0
  -31.7270  -14.9570   19.9630 O   0  0  0  0  0  0  0  0  0  0  0  0
  -29.6650  -15.9160   20.4080 N   0  0  0  0  0  0  0  0  0  0  0  0
  -28.7530  -15.6270   20.7260 H   0  0  0  0  0  0  0  0  0  0  0  0
  -25.2480  -13.8670   20.4870 C   0  0  0  0  0  0  0  0  0  0  0  0
  -24.1840  -13.0910   20.8590 C   0  0  0  0  0  0  0  0  0  0  0  0
  -24.6510  -11.7410   20.8320 C   0  0  0  0  0  0  0  0  0  0  0  0
  -26.2880  -12.9860   20.2430 N   0  0  0  0  0  0  0  0  0  0  0  0
  -25.9400  -11.7040   20.5200 N   0  0  0  0  0  0  0  0  0  0  0  0
  -23.9310  -10.4770   21.0290 C   0  0  0  0  0  0  0  0  0  0  0  0
  -24.3740   -9.5110   21.9590 C   0  0  0  0  0  3  0  0  0  0  0  0
  -23.6510   -8.3110   22.1420 C   0  0  0  0  0  3  0  0  0  0  0  0
  -22.4740   -8.0710   21.3970 C   0  0  0  0  0  0  0  0  0  0  0  0
  -22.0520   -9.0240   20.4540 C   0  0  0  0  0  3  0  0  0  0  0  0
  -22.7750  -10.2150   20.2690 C   0  0  0  0  0  3  0  0  0  0  0  0
  -21.7240   -6.9230   21.4890 O   0  0  0  0  0  0  0  0  0  0  0  0
  -21.6910   -6.1780   22.6390 C   0  0  0  0  0  0  0  0  0  0  0  0
  -21.2810   -6.7290   23.8740 C   0  0  0  0  0  3  0  0  0  0  0  0
  -21.1940   -5.9080   25.0170 C   0  0  0  0  0  3  0  0  0  0  0  0
  -21.5030   -4.5380   24.9270 C   0  0  0  0  0  0  0  0  0  0  0  0
  -21.9070   -3.9880   23.6970 C   0  0  0  0  0  3  0  0  0  0  0  0
  -21.9950   -4.8040   22.5570 C   0  0  0  0  0  0  0  0  0  0  0  0
  -22.3620   -4.2620   21.3700 F   0  0  0  0  0  0  0  0  0  0  0  0
  -21.4120   -3.7490   26.0230 F   0  0  0  0  0  0  0  0  0  0  0  0
  -22.7860  -13.5640   21.1310 C   0  0  0  0  0  0  0  0  0  0  0  0
  -22.0640  -12.8630   22.0010 N   0  0  0  0  0  0  0  0  0  0  0  0
  -22.3440  -14.5860   20.6090 O   0  0  0  0  0  0  0  0  0  0  0  0
  -22.4400  -12.0380   22.4470 H   0  0  0  0  0  0  0  0  0  0  0  0
  -21.1270  -13.1630   22.2300 H   0  0  0  0  0  0  0  0  0  0  0  0
  -25.4130  -15.2390   20.3150 N   0  0  0  0  0  0  0  0  0  0  0  0
  -24.6590  -15.9000   20.4660 H   0  0  0  0  0  0  0  0  0  0  0  0
  -26.2700  -15.6800   20.0070 H   0  0  0  0  0  0  0  0  0  0  0  0
  -28.4400  -25.1300   19.5550 C   0  0  0  0  0  2  0  0  0  0  0  0
  -28.3330  -26.4510   20.2530 O   0  0  0  0  0  0  0  0  0  0  0  0
  -24.6070  -31.8930   23.2360 C   0  0  0  0  0  0  0  0  0  0  0  0
  -27.2120  -27.3030   20.1830 C   0  0  0  0  0  0  0  0  0  0  0  0
  -23.4060  -30.4960   21.5950 C   0  0  0  0  0  3  0  0  0  0  0  0
  -24.8570  -28.9430   20.1590 C   0  0  0  0  0  0  0  0  0  0  0  0
  -25.9470  -30.8020   21.4210 C   0  0  0  0  0  2  0  0  0  0  0  0
  -26.0200  -29.4210   20.7720 C   0  0  0  0  0  0  0  0  0  0  0  0
  -27.1960  -28.6080   20.7810 C   0  0  0  0  0  3  0  0  0  0  0  0
  -26.0230  -26.8830   19.5540 C   0  0  0  0  0  3  0  0  0  0  0  0
  -24.8610  -27.6810   19.5430 C   0  0  0  0  0  3  0  0  0  0  0  0
  -23.6250  -29.8260   20.2090 C   0  0  0  0  0  2  0  0  0  0  0  0
  -24.6720  -31.0850   22.1390 N   0  0  0  0  0  0  0  0  0  0  0  0
  -23.5230  -32.1720   23.7700 O   0  0  0  0  0  0  0  0  0  0  0  0
  -22.7440  -29.4770   22.5550 C   0  0  0  0  0  0  0  0  0  0  0  0
  -21.4180  -29.2980   22.4310 N   0  0  0  0  0  0  0  0  0  0  0  0
  -23.4240  -28.8550   23.3750 O   0  0  0  0  0  0  0  0  0  0  0  0
  -20.9310  -29.8500   21.7370 H   0  0  0  0  0  0  0  0  0  0  0  0
  -18.0470  -28.0930   22.9340 C   0  0  0  0  0  0  0  0  0  0  0  0
  -20.6030  -28.3660   23.2120 C   0  0  0  0  0  3  0  0  0  0  0  0
  -20.7140  -26.9270   22.6580 C   0  0  0  0  0  2  0  0  0  0  0  0
  -19.6230  -26.5910   21.6360 C   0  0  0  0  0  2  0  0  0  0  0  0
  -18.2310  -26.7420   22.2620 C   0  0  0  0  0  2  0  0  0  0  0  0
  -19.1590  -28.8610   23.3700 C   0  0  0  0  0  0  0  0  0  0  0  0
  -18.9310  -30.1250   23.9580 C   0  0  0  0  0  3  0  0  0  0  0  0
  -17.6240  -30.6180   24.1190 C   0  0  0  0  0  3  0  0  0  0  0  0
  -16.5260  -29.8450   23.7070 C   0  0  0  0  0  3  0  0  0  0  0  0
  -16.7380  -28.5850   23.1180 C   0  0  0  0  0  3  0  0  0  0  0  0
  -25.8900  -32.5290   23.8590 C   0  0  0  0  0  3  0  0  0  0  0  0
  -25.5780  -33.9260   24.1930 N   0  0  0  0  0  0  0  0  0  0  0  0
  -25.9070  -34.9810   23.4360 C   0  0  0  0  0  0  0  0  0  0  0  0
  -26.5710  -34.8800   22.4000 O   0  0  0  0  0  0  0  0  0  0  0  0
  -24.9870  -34.0790   24.9970 H   0  0  0  0  0  0  0  0  0  0  0  0
  -24.1760  -36.7730   23.0870 C   0  0  0  0  0  1  0  0  0  0  0  0
  -25.4200  -36.3710   23.8950 C   0  0  0  0  0  3  0  0  0  0  0  0
  -27.5550  -37.2550   24.7140 C   0  0  0  0  0  1  0  0  0  0  0  0
  -26.4500  -37.4240   23.7780 N   0  0  0  0  0  0  0  0  0  0  0  0
  -26.0430  -38.3440   23.9210 H   0  0  0  0  0  0  0  0  0  0  0  0
  -26.4100  -31.7560   25.1350 C   0  0  1  0  0  0  0  0  0  0  0  0
  -25.3250  -31.5130   26.2090 C   0  0  0  0  0  1  0  0  0  0  0  0
  -26.9960  -30.3810   24.7430 C   0  0  0  0  0  1  0  0  0  0  0  0
  -27.5630  -32.5510   25.7890 C   0  0  0  0  0  1  0  0  0  0  0  0
  2  1  1  0
  3  5  1  0
  3  4  1  0
  4  8  1  0
  4  1  1  0
  5 49  1  0
  5  2  1  0
  7  8  2  0
  8  6  1  0
  9 19  1  0
  9  6  2  0
 10  7  1  0
 10  9  1  0
 11 17  1  0
 11 19  1  0
 12 17  1  0
 13 14  1  0
 13 12  1  0
 15 14  1  0
 15 24  1  0
 15 16  1  0
 17 16  1  0
 18 11  2  0
 19 20  1  0
 21 22  2  0
 22 41  1  0
 23 22  1  0
 23 26  1  0
 24 21  1  0
 24 25  1  0
 25 23  2  0
 26 27  1  0
 27 28  2  0
 29 32  1  0
 29 28  1  0
 30 29  2  0
 31 30  1  0
 31 26  2  0
 32 33  1  0
 33 34  1  0
 34 35  2  0
 36 35  1  0
 36 40  1  0
 37 36  2  0
 38 33  2  0
 38 37  1  0
 39 38  1  0
 41 42  1  0
 42 45  1  0
 42 44  1  0
 43 41  2  0
 46 47  1  0
 46 21  1  0
 48 46  1  0
 49 50  1  0
 51 62  2  0
 52 50  1  0
 52 57  1  0
 53 61  1  0
 53 63  1  0
 54 60  1  0
 54 56  1  0
 55 61  1  0
 56 57  2  0
 56 55  1  0
 58 52  2  0
 59 58  1  0
 59 54  2  0
 60 53  1  0
 61 51  1  0
 63 65  2  0
 64 63  1  0
 66 64  1  0
 67 76  2  0
 67 72  1  0
 68 64  1  0
 68 72  1  0
 69 68  1  0
 70 71  1  0
 70 69  1  0
 71 67  1  0
 72 73  2  0
 73 74  1  0
 75 74  2  0
 76 75  1  0
 77 51  1  0
 77 78  1  0
 77 87  1  0
 78 81  1  0
 79 83  1  0
 79 78  1  0
 80 79  2  0
 83 82  1  0
 85 83  1  0
 85 86  1  0
 85 84  1  0
 87 90  1  1
 87 88  1  0
 89 87  1  0
M  ISO  4  11 100  19 100  49 101  50 101
M  END
>  <TORSDO>  (69) 
F 18

>  <SCORE>  (69) 
-14.846

>  <name>  (69) 
68

>  <ligand_id>  (69) 
68

>  <original_smiles>  (69) 
[H]c1sc(N([H])C(=O)N2C([H])([H])C([H])([H])C([H])([H])C([H])(n3nc(-c4c([H])c([H])c(Oc5c([H])c([H])c(F)c([H])c5F)c([H])c4[H])c(C(=O)N([H])[H])c3N([H])[H])C2([H])[H])c([H])c1C1([H])C([H])([H])C([H])([H])C([H])(C([H])([H])Oc2c([H])c([H])c3c(c2[H])C([H])([H])N(C(=O)C([H])(N([H])C(=O)C([H])(N([H])C([H])([H])[H])C([H])([H])[H])C(C([H])([H])[H])(C([H])([H])[H])C([H])([H])[H])C([H])(C(=O)N([H])C2([H])c4c([H])c([H])c([H])c([H])c4C([H])([H])C([H])([H])C2([H])[H])C3([H])[H])C1([H])[H]

>  <smiles>  (69) 
[H]c1sc(N([H])C(=O)N2C([H])([H])C([H])([H])C([H])([H])C([H])(n3nc(-c4c([H])c([H])c(Oc5c([H])c([H])c(F)c([H])c5F)c([H])c4[H])c(C(=O)N([H])[H])c3N([H])[H])C2([H])[H])c([H])c1C1([H])C([H])([H])C([H])([H])C([H])(C([H])([H])Oc2c([H])c([H])c3c(c2[H])C([H])([H])N(C(=O)C([H])(N([H])C(=O)C([H])(N([H])C([H])([H])[H])C([H])([H])[H])C(C([H])([H])[H])(C([H])([H])[H])C([H])([H])[H])C([H])(C(=O)N([H])C2([H])c4c([H])c([H])c([H])c([H])c4C([H])([H])C([H])([H])C2([H])[H])C3([H])[H])C1([H])[H]

$$$$
69:0:0
     RDKit          3D

 92101  0  0  1  0  0  0  0  0999 V2000
  -28.3040  -19.6390   20.4380 C   0  0  0  0  0  3  0  0  0  0  0  0
  -30.7940  -18.4350   20.5970 C   0  0  0  0  0  3  0  0  0  0  0  0
  -29.3570  -20.5670   20.6500 C   0  0  0  0  0  0  0  0  0  0  0  0
  -28.4630  -18.2180   20.3360 C   0  0  0  0  0  0  0  0  0  0  0  0
  -30.6300  -19.8840   20.7070 C   0  0  0  0  0  0  0  0  0  0  0  0
  -29.7060  -17.5140   20.4400 C   0  0  0  0  0  0  0  0  0  0  0  0
  -27.2070  -17.4340   20.1230 C   0  0  0  0  0  1  0  0  0  0  0  0
  -30.5160  -14.8890   20.1850 C   0  0  0  0  0  0  0  0  0  0  0  0
  -30.3320  -12.6030   19.1250 C   0  0  0  0  0  2  0  0  0  0  0  0
  -29.3620  -12.6600   17.9200 C   0  0  0  0  0  2  0  0  0  0  0  0
  -27.9030  -12.4660   18.3740 C   0  0  0  0  0  2  0  0  0  0  0  0
  -27.5430  -13.3380   19.6050 C   0  0  0  0  0  3  0  0  0  0  0  0
  -28.6270  -13.2450   20.7030 C   0  0  0  0  0  2  0  0  0  0  0  0
  -29.9090  -13.6430   20.0970 N   0  0  0  0  0  0  0  0  0  0  0  0
  -31.7040  -14.9980   19.8630 O   0  0  0  0  0  0  0  0  0  0  0  0
  -29.6850  -15.9920   20.4470 N   0  0  0  0  0  0  0  0  0  0  0  0
  -28.7570  -15.6420   20.6280 H   0  0  0  0  0  0  0  0  0  0  0  0
  -25.1490  -13.9050   20.3490 C   0  0  0  0  0  0  0  0  0  0  0  0
  -24.0960  -13.1410   20.7480 C   0  0  0  0  0  0  0  0  0  0  0  0
  -24.5640  -11.7950   20.7050 C   0  0  0  0  0  0  0  0  0  0  0  0
  -26.2040  -13.0410   20.1100 N   0  0  0  0  0  0  0  0  0  0  0  0
  -25.8530  -11.7570   20.3830 N   0  0  0  0  0  0  0  0  0  0  0  0
  -23.8300  -10.5400   20.8840 C   0  0  0  0  0  0  0  0  0  0  0  0
  -24.2430   -9.5750   21.8260 C   0  0  0  0  0  3  0  0  0  0  0  0
  -23.5050   -8.3860   21.9970 C   0  0  0  0  0  3  0  0  0  0  0  0
  -22.3420   -8.1560   21.2230 C   0  0  0  0  0  0  0  0  0  0  0  0
  -21.9480   -9.1110   20.2690 C   0  0  0  0  0  3  0  0  0  0  0  0
  -22.6880  -10.2920   20.0970 C   0  0  0  0  0  3  0  0  0  0  0  0
  -21.5790   -7.0160   21.3040 O   0  0  0  0  0  0  0  0  0  0  0  0
  -21.4890   -6.2940   22.4660 C   0  0  0  0  0  0  0  0  0  0  0  0
  -20.9980   -6.8630   23.6610 C   0  0  0  0  0  3  0  0  0  0  0  0
  -20.8570   -6.0650   24.8150 C   0  0  0  0  0  3  0  0  0  0  0  0
  -21.1980   -4.6990   24.7730 C   0  0  0  0  0  0  0  0  0  0  0  0
  -21.6850   -4.1310   23.5820 C   0  0  0  0  0  3  0  0  0  0  0  0
  -21.8270   -4.9260   22.4310 C   0  0  0  0  0  0  0  0  0  0  0  0
  -22.2750   -4.3690   21.2790 F   0  0  0  0  0  0  0  0  0  0  0  0
  -21.0570   -3.9310   25.8770 F   0  0  0  0  0  0  0  0  0  0  0  0
  -22.7070  -13.6320   21.0370 C   0  0  0  0  0  0  0  0  0  0  0  0
  -21.9830  -12.9380   21.9050 N   0  0  0  0  0  0  0  0  0  0  0  0
  -22.2770  -14.6690   20.5320 O   0  0  0  0  0  0  0  0  0  0  0  0
  -22.3490  -12.1030   22.3400 H   0  0  0  0  0  0  0  0  0  0  0  0
  -21.0500  -13.2470   22.1430 H   0  0  0  0  0  0  0  0  0  0  0  0
  -25.2520  -15.2610   20.1280 N   0  0  0  0  0  0  0  0  0  0  0  0
  -24.4170  -15.8360   20.1580 H   0  0  0  0  0  0  0  0  0  0  0  0
  -25.9890  -15.6630   19.5650 H   0  0  0  0  0  0  0  0  0  0  0  0
  -27.6090  -22.5460   20.7640 C   0  0  0  0  0  2  0  0  0  0  0  0
  -29.0320  -22.1180   21.0380 C   0  0  0  0  0  3  0  0  0  0  0  0
  -28.6380  -23.5500   20.3120 C   0  0  0  0  0  3  0  0  0  0  0  0
  -28.3460  -25.0260   20.9520 C   0  0  0  0  0  2  0  0  0  0  0  0
  -28.4390  -26.3870   20.2950 O   0  0  0  0  0  0  0  0  0  0  0  0
  -24.6410  -31.8960   23.2230 C   0  0  0  0  0  0  0  0  0  0  0  0
  -27.3160  -27.2550   20.2910 C   0  0  0  0  0  0  0  0  0  0  0  0
  -23.4510  -30.4320   21.6290 C   0  0  0  0  0  3  0  0  0  0  0  0
  -24.9240  -28.8580   20.2370 C   0  0  0  0  0  0  0  0  0  0  0  0
  -25.9840  -30.7810   21.4160 C   0  0  0  0  0  2  0  0  0  0  0  0
  -26.0900  -29.3780   20.8130 C   0  0  0  0  0  0  0  0  0  0  0  0
  -27.2910  -28.5920   20.8220 C   0  0  0  0  0  3  0  0  0  0  0  0
  -26.1250  -26.7980   19.6900 C   0  0  0  0  0  3  0  0  0  0  0  0
  -24.9460  -27.5740   19.6600 C   0  0  0  0  0  3  0  0  0  0  0  0
  -23.6740  -29.7220   20.2660 C   0  0  0  0  0  2  0  0  0  0  0  0
  -24.7110  -31.0570   22.1450 N   0  0  0  0  0  0  0  0  0  0  0  0
  -23.5570  -32.1670   23.7620 O   0  0  0  0  0  0  0  0  0  0  0  0
  -22.8080  -29.4350   22.6240 C   0  0  0  0  0  0  0  0  0  0  0  0
  -21.4830  -29.2390   22.5180 N   0  0  0  0  0  0  0  0  0  0  0  0
  -23.5030  -28.8360   23.4500 O   0  0  0  0  0  0  0  0  0  0  0  0
  -20.9790  -29.7830   21.8300 H   0  0  0  0  0  0  0  0  0  0  0  0
  -18.1230  -28.0240   23.1060 C   0  0  0  0  0  0  0  0  0  0  0  0
  -20.6830  -28.3060   23.3160 C   0  0  0  0  0  3  0  0  0  0  0  0
  -20.7850  -26.8670   22.7610 C   0  0  0  0  0  2  0  0  0  0  0  0
  -19.6650  -26.5210   21.7740 C   0  0  0  0  0  2  0  0  0  0  0  0
  -18.2950  -26.6650   22.4440 C   0  0  0  0  0  2  0  0  0  0  0  0
  -19.2450  -28.8010   23.5000 C   0  0  0  0  0  0  0  0  0  0  0  0
  -19.0310  -30.0690   24.0810 C   0  0  0  0  0  3  0  0  0  0  0  0
  -17.7280  -30.5640   24.2700 C   0  0  0  0  0  3  0  0  0  0  0  0
  -16.6190  -29.7860   23.8920 C   0  0  0  0  0  3  0  0  0  0  0  0
  -16.8170  -28.5180   23.3160 C   0  0  0  0  0  3  0  0  0  0  0  0
  -25.9180  -32.5680   23.8180 C   0  0  0  0  0  3  0  0  0  0  0  0
  -26.4640  -31.8320   25.1040 C   0  0  1  0  0  0  0  0  0  0  0  0
  -25.3830  -31.5800   26.1820 C   0  0  0  0  0  1  0  0  0  0  0  0
  -27.0860  -30.4660   24.7300 C   0  0  0  0  0  1  0  0  0  0  0  0
  -27.5920  -32.6710   25.7500 C   0  0  0  0  0  1  0  0  0  0  0  0
  -25.5820  -33.9650   24.1290 N   0  0  0  0  0  0  0  0  0  0  0  0
  -25.8730  -35.0130   23.3460 C   0  0  0  0  0  0  0  0  0  0  0  0
  -26.5240  -34.9080   22.3030 O   0  0  0  0  0  0  0  0  0  0  0  0
  -25.0010  -34.1160   24.9410 H   0  0  0  0  0  0  0  0  0  0  0  0
  -24.0980  -36.7660   23.0020 C   0  0  0  0  0  1  0  0  0  0  0  0
  -25.3650  -36.3980   23.7920 C   0  0  0  0  0  3  0  0  0  0  0  0
  -27.4930  -37.3520   24.5630 C   0  0  0  0  0  1  0  0  0  0  0  0
  -26.3700  -37.4730   23.6380 N   0  0  0  0  0  0  0  0  0  0  0  0
  -25.9430  -38.3850   23.7780 H   0  0  0  0  0  0  0  0  0  0  0  0
  -32.2670  -20.6600   22.4590 C   0  0  0  0  0  1  0  0  0  0  0  0
  -31.8800  -20.7000   20.9760 C   0  0  0  0  0  2  0  0  0  0  0  0
  1  3  1  0
  2  5  1  0
  3  5  2  0
  4  1  2  0
  4  6  1  0
  5 92  1  0
  6 16  1  0
  6  2  2  0
  7  4  1  0
  8 16  1  0
  9 14  1  0
 10 11  1  0
 10  9  1  0
 12 11  1  0
 12 21  1  0
 12 13  1  0
 14  8  1  0
 14 13  1  0
 15  8  2  0
 16 17  1  0
 18 19  2  0
 19 38  1  0
 20 19  1  0
 20 23  1  0
 21 18  1  0
 21 22  1  0
 22 20  2  0
 23 24  1  0
 24 25  2  0
 26 29  1  0
 26 25  1  0
 27 26  2  0
 28 27  1  0
 28 23  2  0
 29 30  1  0
 30 31  1  0
 31 32  2  0
 33 32  1  0
 33 37  1  0
 34 33  2  0
 35 30  2  0
 35 34  1  0
 36 35  1  0
 38 39  1  0
 39 42  1  0
 39 41  1  0
 40 38  2  0
 43 44  1  0
 43 18  1  0
 45 43  1  0
 46 47  1  0
 47  3  1  0
 48 46  1  0
 48 49  1  0
 48 47  1  0
 50 49  1  0
 51 62  2  0
 52 50  1  0
 52 57  1  0
 53 61  1  0
 53 63  1  0
 54 60  1  0
 54 56  1  0
 55 61  1  0
 56 57  2  0
 56 55  1  0
 58 52  2  0
 59 58  1  0
 59 54  2  0
 60 53  1  0
 61 51  1  0
 63 65  2  0
 64 63  1  0
 66 64  1  0
 67 76  2  0
 67 72  1  0
 68 64  1  0
 68 72  1  0
 69 68  1  0
 70 71  1  0
 70 69  1  0
 71 67  1  0
 72 73  2  0
 73 74  1  0
 75 74  2  0
 76 75  1  0
 77 51  1  0
 77 82  1  0
 77 78  1  0
 78 81  1  1
 78 79  1  0
 80 78  1  0
 82 85  1  0
 83 87  1  0
 83 82  1  0
 84 83  2  0
 87 86  1  0
 89 90  1  0
 89 87  1  0
 89 88  1  0
 92 91  1  0
M  ISO  4   8 100  16 100  49 101  50 101
M  END
>  <TORSDO>  (70) 
F 19

>  <SCORE>  (70) 
-14.413

>  <name>  (70) 
69

>  <ligand_id>  (70) 
69

>  <original_smiles>  (70) 
[H]c1c([H])c([H])c2c(c1[H])C([H])([H])C([H])([H])C([H])([H])C2([H])N([H])C(=O)C1([H])N(C(=O)C([H])(N([H])C(=O)C([H])(N([H])C([H])([H])[H])C([H])([H])[H])C(C([H])([H])[H])(C([H])([H])[H])C([H])([H])[H])C([H])([H])c2c([H])c(OC([H])([H])C3([H])C([H])([H])C3([H])c3c([H])c(C([H])([H])[H])c(N([H])C(=O)N4C([H])([H])C([H])([H])C([H])([H])C([H])(n5nc(-c6c([H])c([H])c(Oc7c([H])c([H])c(F)c([H])c7F)c([H])c6[H])c(C(=O)N([H])[H])c5N([H])[H])C4([H])[H])c([H])c3C([H])([H])C([H])([H])[H])c([H])c([H])c2C1([H])[H]

>  <smiles>  (70) 
[H]c1c([H])c([H])c2c(c1[H])C([H])([H])C([H])([H])C([H])([H])C2([H])N([H])C(=O)C1([H])N(C(=O)C([H])(N([H])C(=O)C([H])(N([H])C([H])([H])[H])C([H])([H])[H])C(C([H])([H])[H])(C([H])([H])[H])C([H])([H])[H])C([H])([H])c2c([H])c(OC([H])([H])C3([H])C([H])([H])C3([H])c3c([H])c(C([H])([H])[H])c(N([H])C(=O)N4C([H])([H])C([H])([H])C([H])([H])C([H])(n5nc(-c6c([H])c([H])c(Oc7c([H])c([H])c(F)c([H])c7F)c([H])c6[H])c(C(=O)N([H])[H])c5N([H])[H])C4([H])[H])c([H])c3C([H])([H])C([H])([H])[H])c([H])c([H])c2C1([H])[H]

$$$$
70:0:0
     RDKit          3D

 92101  0  0  1  0  0  0  0  0999 V2000
  -29.3440  -22.0390   18.3140 C   0  0  0  0  0  2  0  0  0  0  0  0
  -29.0760  -23.5620   18.4870 C   0  0  0  0  0  2  0  0  0  0  0  0
  -29.6120  -22.5710   20.6240 C   0  0  0  0  0  2  0  0  0  0  0  0
  -30.1320  -21.5650   19.5460 C   0  0  0  0  0  3  0  0  0  0  0  0
  -29.5320  -23.9700   19.9040 C   0  0  0  0  0  3  0  0  0  0  0  0
  -30.9840  -19.1870   18.9690 C   0  0  0  0  0  3  0  0  0  0  0  0
  -31.0420  -17.7710   19.1090 C   0  0  0  0  0  3  0  0  0  0  0  0
  -29.3670  -19.3250   20.7390 C   0  0  0  0  0  3  0  0  0  0  0  0
  -30.1440  -20.0070   19.7710 C   0  0  0  0  0  0  0  0  0  0  0  0
  -29.4160  -17.9020   20.8860 C   0  0  0  0  0  0  0  0  0  0  0  0
  -30.2520  -17.0830   20.0660 C   0  0  0  0  0  0  0  0  0  0  0  0
  -28.5430  -17.2560   21.9480 C   0  0  0  0  0  1  0  0  0  0  0  0
  -30.8820  -14.6040   19.6020 C   0  0  0  0  0  0  0  0  0  0  0  0
  -30.4940  -12.4290   18.4650 C   0  0  0  0  0  2  0  0  0  0  0  0
  -29.4120  -12.6410   17.3830 C   0  0  0  0  0  2  0  0  0  0  0  0
  -28.0000  -12.4760   17.9810 C   0  0  0  0  0  2  0  0  0  0  0  0
  -27.8130  -13.2760   19.2980 C   0  0  0  0  0  3  0  0  0  0  0  0
  -28.9960  -13.0460   20.2670 C   0  0  0  0  0  2  0  0  0  0  0  0
  -30.2370  -13.3950   19.5530 N   0  0  0  0  0  0  0  0  0  0  0  0
  -31.9680  -14.7730   19.0400 O   0  0  0  0  0  0  0  0  0  0  0  0
  -30.1970  -15.6260   20.2040 N   0  0  0  0  0  0  0  0  0  0  0  0
  -29.4160  -15.2930   20.7460 H   0  0  0  0  0  0  0  0  0  0  0  0
  -25.5390  -13.8660   20.3390 C   0  0  0  0  0  0  0  0  0  0  0  0
  -24.5090  -13.0880   20.7960 C   0  0  0  0  0  0  0  0  0  0  0  0
  -24.9330  -11.7340   20.6280 C   0  0  0  0  0  0  0  0  0  0  0  0
  -26.5270  -12.9860   19.9270 N   0  0  0  0  0  0  0  0  0  0  0  0
  -26.1740  -11.6950   20.1590 N   0  0  0  0  0  0  0  0  0  0  0  0
  -24.2070  -10.4750   20.8360 C   0  0  0  0  0  0  0  0  0  0  0  0
  -24.6730   -9.4930   21.7390 C   0  0  0  0  0  3  0  0  0  0  0  0
  -23.9470   -8.2980   21.9350 C   0  0  0  0  0  3  0  0  0  0  0  0
  -22.7420   -8.0750   21.2270 C   0  0  0  0  0  0  0  0  0  0  0  0
  -22.2950   -9.0450   20.3110 C   0  0  0  0  0  3  0  0  0  0  0  0
  -23.0210  -10.2310   20.1140 C   0  0  0  0  0  3  0  0  0  0  0  0
  -21.9850   -6.9340   21.3330 O   0  0  0  0  0  0  0  0  0  0  0  0
  -21.8960   -6.2350   22.5100 C   0  0  0  0  0  0  0  0  0  0  0  0
  -21.4140   -6.8330   23.6950 C   0  0  0  0  0  3  0  0  0  0  0  0
  -21.2740   -6.0600   24.8650 C   0  0  0  0  0  3  0  0  0  0  0  0
  -21.6050   -4.6910   24.8510 C   0  0  0  0  0  0  0  0  0  0  0  0
  -22.0790   -4.0940   23.6700 C   0  0  0  0  0  3  0  0  0  0  0  0
  -22.2200   -4.8640   22.5020 C   0  0  0  0  0  0  0  0  0  0  0  0
  -22.6580   -4.2780   21.3620 F   0  0  0  0  0  0  0  0  0  0  0  0
  -21.4630   -3.9480   25.9730 F   0  0  0  0  0  0  0  0  0  0  0  0
  -23.1680  -13.5700   21.2680 C   0  0  0  0  0  0  0  0  0  0  0  0
  -22.5500  -12.8490   22.1980 N   0  0  0  0  0  0  0  0  0  0  0  0
  -22.6790  -14.6170   20.8460 O   0  0  0  0  0  0  0  0  0  0  0  0
  -22.9590  -11.9980   22.5560 H   0  0  0  0  0  0  0  0  0  0  0  0
  -21.6560  -13.1520   22.5570 H   0  0  0  0  0  0  0  0  0  0  0  0
  -25.7110  -15.2410   20.2210 N   0  0  0  0  0  0  0  0  0  0  0  0
  -24.9740  -15.8980   20.4560 H   0  0  0  0  0  0  0  0  0  0  0  0
  -26.5130  -15.6830   19.7900 H   0  0  0  0  0  0  0  0  0  0  0  0
  -28.6740  -25.1180   20.5900 C   0  0  0  0  0  2  0  0  0  0  0  0
  -28.8670  -26.5180   20.1650 O   0  0  0  0  0  0  0  0  0  0  0  0
  -24.9590  -31.7400   23.2450 C   0  0  0  0  0  0  0  0  0  0  0  0
  -27.7320  -27.3350   20.1420 C   0  0  0  0  0  0  0  0  0  0  0  0
  -23.8270  -30.3800   21.5220 C   0  0  0  0  0  3  0  0  0  0  0  0
  -25.3440  -28.8950   20.0980 C   0  0  0  0  0  0  0  0  0  0  0  0
  -26.3620  -30.7440   21.4280 C   0  0  0  0  0  2  0  0  0  0  0  0
  -26.4840  -29.3880   20.7470 C   0  0  0  0  0  0  0  0  0  0  0  0
  -27.6830  -28.6200   20.7590 C   0  0  0  0  0  3  0  0  0  0  0  0
  -26.5750  -26.8910   19.4670 C   0  0  0  0  0  3  0  0  0  0  0  0
  -25.3900  -27.6500   19.4490 C   0  0  0  0  0  3  0  0  0  0  0  0
  -24.0940  -29.7490   20.1300 C   0  0  0  0  0  2  0  0  0  0  0  0
  -25.0670  -30.9690   22.1240 N   0  0  0  0  0  0  0  0  0  0  0  0
  -23.8560  -31.9870   23.7530 O   0  0  0  0  0  0  0  0  0  0  0  0
  -23.1480  -29.3250   22.4280 C   0  0  0  0  0  0  0  0  0  0  0  0
  -21.8250  -29.1530   22.2670 N   0  0  0  0  0  0  0  0  0  0  0  0
  -23.8100  -28.6670   23.2340 O   0  0  0  0  0  0  0  0  0  0  0  0
  -21.3510  -29.7380   21.5930 H   0  0  0  0  0  0  0  0  0  0  0  0
  -18.4330  -27.9660   22.6670 C   0  0  0  0  0  0  0  0  0  0  0  0
  -20.9890  -28.1880   22.9820 C   0  0  0  0  0  3  0  0  0  0  0  0
  -21.0880  -26.7860   22.3410 C   0  0  0  0  0  2  0  0  0  0  0  0
  -19.9970  -26.5200   21.3000 C   0  0  0  0  0  2  0  0  0  0  0  0
  -18.6070  -26.6480   21.9300 C   0  0  0  0  0  2  0  0  0  0  0  0
  -19.5520  -28.6970   23.1470 C   0  0  0  0  0  0  0  0  0  0  0  0
  -19.3340  -29.9340   23.7910 C   0  0  0  0  0  3  0  0  0  0  0  0
  -18.0320  -30.4390   23.9630 C   0  0  0  0  0  3  0  0  0  0  0  0
  -16.9270  -29.7030   23.5010 C   0  0  0  0  0  3  0  0  0  0  0  0
  -17.1280  -28.4680   22.8590 C   0  0  0  0  0  3  0  0  0  0  0  0
  -26.2140  -32.3670   23.9290 C   0  0  0  0  0  3  0  0  0  0  0  0
  -25.8580  -33.7300   24.3460 N   0  0  0  0  0  0  0  0  0  0  0  0
  -26.1600  -34.8400   23.6600 C   0  0  0  0  0  0  0  0  0  0  0  0
  -26.8380  -34.8250   22.6280 O   0  0  0  0  0  0  0  0  0  0  0  0
  -25.2590  -33.8120   25.1540 H   0  0  0  0  0  0  0  0  0  0  0  0
  -24.3750  -36.5910   23.4080 C   0  0  0  0  0  1  0  0  0  0  0  0
  -25.6240  -36.1780   24.2030 C   0  0  0  0  0  3  0  0  0  0  0  0
  -27.7210  -37.0760   25.1100 C   0  0  0  0  0  1  0  0  0  0  0  0
  -26.6210  -37.2710   24.1680 N   0  0  0  0  0  0  0  0  0  0  0  0
  -26.1820  -38.1640   24.3750 H   0  0  0  0  0  0  0  0  0  0  0  0
  -26.7340  -31.5300   25.1600 C   0  0  1  0  0  0  0  0  0  0  0  0
  -25.6310  -31.1880   26.1890 C   0  0  0  0  0  1  0  0  0  0  0  0
  -27.3670  -30.2020   24.6860 C   0  0  0  0  0  1  0  0  0  0  0  0
  -27.8470  -32.3120   25.8960 C   0  0  0  0  0  1  0  0  0  0  0  0
  1  2  1  0
  1  4  1  0
  2  5  1  0
  4  9  1  0
  4  3  1  0
  5 51  1  0
  5  3  1  0
  6  7  2  0
  6  9  1  0
  7 11  1  0
  8 10  1  0
  9  8  2  0
 10 12  1  0
 11 21  1  0
 11 10  2  0
 13 21  1  0
 14 19  1  0
 15 16  1  0
 15 14  1  0
 17 16  1  0
 17 26  1  0
 17 18  1  0
 19 13  1  0
 19 18  1  0
 20 13  2  0
 21 22  1  0
 23 24  2  0
 24 43  1  0
 25 24  1  0
 25 28  1  0
 26 27  1  0
 26 23  1  0
 27 25  2  0
 28 29  1  0
 29 30  2  0
 31 34  1  0
 31 30  1  0
 32 31  2  0
 33 32  1  0
 33 28  2  0
 34 35  1  0
 35 36  1  0
 36 37  2  0
 38 37  1  0
 38 42  1  0
 39 38  2  0
 40 35  2  0
 40 39  1  0
 41 40  1  0
 43 44  1  0
 44 46  1  0
 44 47  1  0
 45 43  2  0
 48 23  1  0
 48 49  1  0
 50 48  1  0
 52 51  1  0
 53 64  2  0
 54 52  1  0
 54 59  1  0
 55 63  1  0
 55 65  1  0
 56 62  1  0
 56 58  1  0
 57 63  1  0
 58 59  2  0
 58 57  1  0
 60 54  2  0
 61 60  1  0
 61 56  2  0
 62 55  1  0
 63 53  1  0
 65 67  2  0
 66 65  1  0
 68 66  1  0
 69 78  2  0
 69 74  1  0
 70 66  1  0
 70 74  1  0
 71 70  1  0
 72 73  1  0
 72 71  1  0
 73 69  1  0
 74 75  2  0
 75 76  1  0
 77 76  2  0
 78 77  1  0
 79 53  1  0
 79 80  1  0
 79 89  1  0
 80 83  1  0
 81 85  1  0
 81 80  1  0
 82 81  2  0
 85 84  1  0
 87 85  1  0
 87 88  1  0
 87 86  1  0
 89 92  1  1
 89 90  1  0
 91 89  1  0
M  ISO  4  13 100  21 100  51 101  52 101
M  END
>  <TORSDO>  (71) 
F 18

>  <SCORE>  (71) 
-10.848

>  <name>  (71) 
70

>  <ligand_id>  (71) 
70

>  <original_smiles>  (71) 
[H]c1c([H])c([H])c2c(c1[H])C([H])([H])C([H])([H])C([H])([H])C2([H])N([H])C(=O)C1([H])N(C(=O)C([H])(N([H])C(=O)C([H])(N([H])C([H])([H])[H])C([H])([H])[H])C(C([H])([H])[H])(C([H])([H])[H])C([H])([H])[H])C([H])([H])c2c([H])c(OC([H])([H])C3([H])C([H])([H])C([H])([H])C([H])(c4c([H])c([H])c(N([H])C(=O)N5C([H])([H])C([H])([H])C([H])([H])C([H])(n6nc(-c7c([H])c([H])c(Oc8c([H])c([H])c(F)c([H])c8F)c([H])c7[H])c(C(=O)N([H])[H])c6N([H])[H])C5([H])[H])c(C([H])([H])[H])c4[H])C3([H])[H])c([H])c([H])c2C1([H])[H]

>  <smiles>  (71) 
[H]c1c([H])c([H])c2c(c1[H])C([H])([H])C([H])([H])C([H])([H])C2([H])N([H])C(=O)C1([H])N(C(=O)C([H])(N([H])C(=O)C([H])(N([H])C([H])([H])[H])C([H])([H])[H])C(C([H])([H])[H])(C([H])([H])[H])C([H])([H])[H])C([H])([H])c2c([H])c(OC([H])([H])C3([H])C([H])([H])C([H])([H])C([H])(c4c([H])c([H])c(N([H])C(=O)N5C([H])([H])C([H])([H])C([H])([H])C([H])(n6nc(-c7c([H])c([H])c(Oc8c([H])c([H])c(F)c([H])c8F)c([H])c7[H])c(C(=O)N([H])[H])c6N([H])[H])C5([H])[H])c(C([H])([H])[H])c4[H])C3([H])[H])c([H])c([H])c2C1([H])[H]

$$$$
71:0:0
     RDKit          3D

 92101  0  0  1  0  0  0  0  0999 V2000
  -27.5520  -21.5530   20.7240 C   0  0  0  0  0  2  0  0  0  0  0  0
  -27.2320  -23.0290   20.4340 C   0  0  0  0  0  2  0  0  0  0  0  0
  -28.8660  -21.2950   19.9830 C   0  0  0  0  0  3  0  0  0  0  0  0
  -28.5820  -23.7560   20.4770 C   0  0  0  0  0  3  0  0  0  0  0  0
  -29.4850  -22.6410   20.0710 O   0  0  0  0  0  0  0  0  0  0  0  0
  -29.3390  -18.6090   20.2720 C   0  0  0  0  0  3  0  0  0  0  0  0
  -30.9600  -20.2590   21.0330 C   0  0  0  0  0  3  0  0  0  0  0  0
  -31.4300  -17.8540   21.2500 C   0  0  0  0  0  3  0  0  0  0  0  0
  -29.7090  -20.0150   20.4400 C   0  0  0  0  0  0  0  0  0  0  0  0
  -30.2010  -17.4890   20.6510 C   0  0  0  0  0  0  0  0  0  0  0  0
  -31.8020  -19.2030   21.4330 C   0  0  0  0  0  0  0  0  0  0  0  0
  -32.9950  -19.4930   22.0050 F   0  0  0  0  0  0  0  0  0  0  0  0
  -30.6630  -14.8960   20.3860 C   0  0  0  0  0  0  0  0  0  0  0  0
  -30.4930  -12.6240   19.3550 C   0  0  0  0  0  2  0  0  0  0  0  0
  -29.5450  -12.6690   18.1390 C   0  0  0  0  0  2  0  0  0  0  0  0
  -28.0770  -12.4830   18.5760 C   0  0  0  0  0  2  0  0  0  0  0  0
  -27.6970  -13.3580   19.8000 C   0  0  0  0  0  3  0  0  0  0  0  0
  -28.7640  -13.2870   20.9130 C   0  0  0  0  0  2  0  0  0  0  0  0
  -30.0450  -13.6670   20.3060 N   0  0  0  0  0  0  0  0  0  0  0  0
  -31.8630  -14.9810   20.1120 O   0  0  0  0  0  0  0  0  0  0  0  0
  -29.8620  -16.0350   20.5070 N   0  0  0  0  0  0  0  0  0  0  0  0
  -28.8770  -15.8300   20.4700 H   0  0  0  0  0  0  0  0  0  0  0  0
  -25.3130  -13.9270   20.5560 C   0  0  0  0  0  0  0  0  0  0  0  0
  -24.2510  -13.1450   20.9200 C   0  0  0  0  0  0  0  0  0  0  0  0
  -24.7200  -11.7980   20.8700 C   0  0  0  0  0  0  0  0  0  0  0  0
  -26.3590  -13.0550   20.2990 N   0  0  0  0  0  0  0  0  0  0  0  0
  -26.0100  -11.7680   20.5530 N   0  0  0  0  0  0  0  0  0  0  0  0
  -24.0000  -10.5290   21.0500 C   0  0  0  0  0  0  0  0  0  0  0  0
  -24.4270   -9.5640   21.9880 C   0  0  0  0  0  3  0  0  0  0  0  0
  -23.7070   -8.3620   22.1560 C   0  0  0  0  0  3  0  0  0  0  0  0
  -22.5440   -8.1160   21.3860 C   0  0  0  0  0  0  0  0  0  0  0  0
  -22.1370   -9.0700   20.4370 C   0  0  0  0  0  3  0  0  0  0  0  0
  -22.8580  -10.2640   20.2680 C   0  0  0  0  0  3  0  0  0  0  0  0
  -21.7980   -6.9660   21.4630 O   0  0  0  0  0  0  0  0  0  0  0  0
  -21.7170   -6.2350   22.6220 C   0  0  0  0  0  0  0  0  0  0  0  0
  -21.2080   -6.7880   23.8170 C   0  0  0  0  0  3  0  0  0  0  0  0
  -21.0790   -5.9820   24.9650 C   0  0  0  0  0  3  0  0  0  0  0  0
  -21.4460   -4.6240   24.9180 C   0  0  0  0  0  0  0  0  0  0  0  0
  -21.9460   -4.0700   23.7260 C   0  0  0  0  0  3  0  0  0  0  0  0
  -22.0770   -4.8730   22.5800 C   0  0  0  0  0  0  0  0  0  0  0  0
  -22.5400   -4.3300   21.4290 F   0  0  0  0  0  0  0  0  0  0  0  0
  -21.3130   -3.8470   26.0180 F   0  0  0  0  0  0  0  0  0  0  0  0
  -22.8540  -13.6140   21.1990 C   0  0  0  0  0  0  0  0  0  0  0  0
  -22.1280  -12.9020   22.0520 N   0  0  0  0  0  0  0  0  0  0  0  0
  -22.4160  -14.6470   20.6970 O   0  0  0  0  0  0  0  0  0  0  0  0
  -22.4980  -12.0700   22.4880 H   0  0  0  0  0  0  0  0  0  0  0  0
  -21.1850  -13.1940   22.2740 H   0  0  0  0  0  0  0  0  0  0  0  0
  -25.4620  -15.3010   20.3980 N   0  0  0  0  0  0  0  0  0  0  0  0
  -24.6860  -15.9370   20.5540 H   0  0  0  0  0  0  0  0  0  0  0  0
  -26.2930  -15.7680   20.0650 H   0  0  0  0  0  0  0  0  0  0  0  0
  -28.6280  -25.1800   19.6870 C   0  0  0  0  0  2  0  0  0  0  0  0
  -28.4650  -26.5330   20.3220 O   0  0  0  0  0  0  0  0  0  0  0  0
  -24.6130  -31.9260   23.2340 C   0  0  0  0  0  0  0  0  0  0  0  0
  -27.3180  -27.3550   20.2260 C   0  0  0  0  0  0  0  0  0  0  0  0
  -23.4400  -30.5040   21.5880 C   0  0  0  0  0  3  0  0  0  0  0  0
  -24.9260  -28.9570   20.1800 C   0  0  0  0  0  0  0  0  0  0  0  0
  -25.9780  -30.8460   21.4280 C   0  0  0  0  0  2  0  0  0  0  0  0
  -26.0800  -29.4620   20.7910 C   0  0  0  0  0  0  0  0  0  0  0  0
  -27.2700  -28.6680   20.8060 C   0  0  0  0  0  3  0  0  0  0  0  0
  -26.1340  -26.9090   19.5960 C   0  0  0  0  0  3  0  0  0  0  0  0
  -24.9560  -27.6890   19.5770 C   0  0  0  0  0  3  0  0  0  0  0  0
  -23.6760  -29.8200   20.2150 C   0  0  0  0  0  2  0  0  0  0  0  0
  -24.6950  -31.1130   22.1390 N   0  0  0  0  0  0  0  0  0  0  0  0
  -23.5220  -32.1890   23.7630 O   0  0  0  0  0  0  0  0  0  0  0  0
  -22.7810  -29.4880   22.5520 C   0  0  0  0  0  0  0  0  0  0  0  0
  -21.4550  -29.3030   22.4280 N   0  0  0  0  0  0  0  0  0  0  0  0
  -23.4620  -28.8660   23.3710 O   0  0  0  0  0  0  0  0  0  0  0  0
  -20.9580  -29.8530   21.7400 H   0  0  0  0  0  0  0  0  0  0  0  0
  -18.0820  -28.1190   22.9670 C   0  0  0  0  0  0  0  0  0  0  0  0
  -20.6460  -28.3600   23.2020 C   0  0  0  0  0  3  0  0  0  0  0  0
  -20.7320  -26.9340   22.6090 C   0  0  0  0  0  2  0  0  0  0  0  0
  -19.6130  -26.6310   21.6080 C   0  0  0  0  0  2  0  0  0  0  0  0
  -18.2410  -26.7770   22.2740 C   0  0  0  0  0  2  0  0  0  0  0  0
  -19.2110  -28.8690   23.3920 C   0  0  0  0  0  0  0  0  0  0  0  0
  -19.0080  -30.1250   24.0020 C   0  0  0  0  0  3  0  0  0  0  0  0
  -17.7090  -30.6300   24.1950 C   0  0  0  0  0  3  0  0  0  0  0  0
  -16.5940  -29.8770   23.7890 C   0  0  0  0  0  3  0  0  0  0  0  0
  -16.7820  -28.6250   23.1780 C   0  0  0  0  0  3  0  0  0  0  0  0
  -25.8850  -32.5780   23.8620 C   0  0  0  0  0  3  0  0  0  0  0  0
  -25.5570  -33.9770   24.1750 N   0  0  0  0  0  0  0  0  0  0  0  0
  -25.8900  -35.0280   23.4150 C   0  0  0  0  0  0  0  0  0  0  0  0
  -26.5740  -34.9230   22.3920 O   0  0  0  0  0  0  0  0  0  0  0  0
  -24.9450  -34.1320   24.9630 H   0  0  0  0  0  0  0  0  0  0  0  0
  -24.1700  -36.8200   23.0090 C   0  0  0  0  0  1  0  0  0  0  0  0
  -25.3840  -36.4150   23.8570 C   0  0  0  0  0  3  0  0  0  0  0  0
  -27.4840  -37.3140   24.7610 C   0  0  0  0  0  1  0  0  0  0  0  0
  -26.4160  -37.4710   23.7780 N   0  0  0  0  0  0  0  0  0  0  0  0
  -26.0000  -38.3890   23.9080 H   0  0  0  0  0  0  0  0  0  0  0  0
  -26.3950  -31.8270   25.1510 C   0  0  1  0  0  0  0  0  0  0  0  0
  -25.2920  -31.5780   26.2070 C   0  0  0  0  0  1  0  0  0  0  0  0
  -27.0050  -30.4540   24.7840 C   0  0  0  0  0  1  0  0  0  0  0  0
  -27.5260  -32.6420   25.8220 C   0  0  0  0  0  1  0  0  0  0  0  0
  2  4  1  0
  2  1  1  0
  3  5  1  0
  3  9  1  0
  3  1  1  0
  4 51  1  0
  5  4  1  0
  6  9  2  0
  6 10  1  0
  7 11  2  0
  8 11  1  0
  9  7  1  0
 10  8  2  0
 11 12  1  0
 13 21  1  0
 14 19  1  0
 15 16  1  0
 15 14  1  0
 17 16  1  0
 17 26  1  0
 17 18  1  0
 19 13  1  0
 19 18  1  0
 20 13  2  0
 21 10  1  0
 22 21  1  0
 23 24  2  0
 24 43  1  0
 25 24  1  0
 25 28  1  0
 26 27  1  0
 26 23  1  0
 27 25  2  0
 28 29  1  0
 29 30  2  0
 31 34  1  0
 31 30  1  0
 32 31  2  0
 33 32  1  0
 33 28  2  0
 34 35  1  0
 35 36  1  0
 36 37  2  0
 38 37  1  0
 38 42  1  0
 39 38  2  0
 40 35  2  0
 40 39  1  0
 41 40  1  0
 43 44  1  0
 44 47  1  0
 44 46  1  0
 45 43  2  0
 48 49  1  0
 48 23  1  0
 50 48  1  0
 51 52  1  0
 53 64  2  0
 54 52  1  0
 54 59  1  0
 55 63  1  0
 55 65  1  0
 56 62  1  0
 56 58  1  0
 57 63  1  0
 58 59  2  0
 58 57  1  0
 60 54  2  0
 61 60  1  0
 61 56  2  0
 62 55  1  0
 63 53  1  0
 65 67  2  0
 66 65  1  0
 68 66  1  0
 69 78  2  0
 69 74  1  0
 70 66  1  0
 70 74  1  0
 71 70  1  0
 72 73  1  0
 72 71  1  0
 73 69  1  0
 74 75  2  0
 75 76  1  0
 77 76  2  0
 78 77  1  0
 79 53  1  0
 79 80  1  0
 79 89  1  0
 80 83  1  0
 81 85  1  0
 81 80  1  0
 82 81  2  0
 85 84  1  0
 87 85  1  0
 87 88  1  0
 87 86  1  0
 89 92  1  1
 89 90  1  0
 91 89  1  0
M  ISO  4  13 100  21 100  51 101  52 101
M  END
>  <TORSDO>  (72) 
F 18

>  <SCORE>  (72) 
-14.853

>  <name>  (72) 
71

>  <ligand_id>  (72) 
71

>  <original_smiles>  (72) 
[H]c1c([H])c([H])c2c(c1[H])C([H])([H])C([H])([H])C([H])([H])C2([H])N([H])C(=O)C1([H])N(C(=O)C([H])(N([H])C(=O)C([H])(N([H])C([H])([H])[H])C([H])([H])[H])C(C([H])([H])[H])(C([H])([H])[H])C([H])([H])[H])C([H])([H])c2c([H])c(OC([H])([H])C3([H])OC([H])(c4c([H])c(F)c([H])c(N([H])C(=O)N5C([H])([H])C([H])([H])C([H])([H])C([H])(n6nc(-c7c([H])c([H])c(Oc8c([H])c([H])c(F)c([H])c8F)c([H])c7[H])c(C(=O)N([H])[H])c6N([H])[H])C5([H])[H])c4[H])C([H])([H])C3([H])[H])c([H])c([H])c2C1([H])[H]

>  <smiles>  (72) 
[H]c1c([H])c([H])c2c(c1[H])C([H])([H])C([H])([H])C([H])([H])C2([H])N([H])C(=O)C1([H])N(C(=O)C([H])(N([H])C(=O)C([H])(N([H])C([H])([H])[H])C([H])([H])[H])C(C([H])([H])[H])(C([H])([H])[H])C([H])([H])[H])C([H])([H])c2c([H])c(OC([H])([H])C3([H])OC([H])(c4c([H])c(F)c([H])c(N([H])C(=O)N5C([H])([H])C([H])([H])C([H])([H])C([H])(n6nc(-c7c([H])c([H])c(Oc8c([H])c([H])c(F)c([H])c8F)c([H])c7[H])c(C(=O)N([H])[H])c6N([H])[H])C5([H])[H])c4[H])C([H])([H])C3([H])[H])c([H])c([H])c2C1([H])[H]

$$$$
72:0:0
     RDKit          3D

 96104  0  0  1  0  0  0  0  0999 V2000
  -27.6720  -21.4440   20.4240 C   0  0  0  0  0  2  0  0  0  0  0  0
  -26.0000  -23.2870   20.0200 C   0  0  0  0  0  1  0  0  0  0  0  0
  -27.3530  -23.2920   22.1290 C   0  0  0  0  0  1  0  0  0  0  0  0
  -27.3940  -22.9700   20.6140 C   0  0  1  0  0  0  0  0  0  0  0  0
  -28.4290  -23.8230   19.8290 C   0  0  0  0  0  0  0  0  0  0  0  0
  -28.5240  -23.7090   18.6030 O   0  0  0  0  0  0  0  0  0  0  0  0
  -29.3510  -24.8090   20.5630 C   0  0  0  0  0  2  0  0  0  0  0  0
  -28.6670  -26.1160   21.0180 C   0  0  0  0  0  2  0  0  0  0  0  0
  -28.4960  -27.0290   19.9370 O   0  0  0  0  0  0  0  0  0  0  0  0
  -24.6190  -31.9610   23.3110 C   0  0  0  0  0  0  0  0  0  0  0  0
  -27.3250  -27.7360   20.0100 C   0  0  0  0  0  0  0  0  0  0  0  0
  -23.4180  -30.5760   21.6480 C   0  0  0  0  0  3  0  0  0  0  0  0
  -24.8860  -29.1350   20.1380 C   0  0  0  0  0  0  0  0  0  0  0  0
  -25.9220  -31.0270   21.4070 C   0  0  0  0  0  2  0  0  0  0  0  0
  -26.0370  -29.6830   20.7190 C   0  0  0  0  0  0  0  0  0  0  0  0
  -27.2630  -28.9860   20.6600 C   0  0  0  0  0  3  0  0  0  0  0  0
  -26.1640  -27.1930   19.4270 C   0  0  0  0  0  3  0  0  0  0  0  0
  -24.9390  -27.8870   19.4940 C   0  0  0  0  0  3  0  0  0  0  0  0
  -23.6180  -29.9490   20.2410 C   0  0  0  0  0  2  0  0  0  0  0  0
  -24.6720  -31.1990   22.1820 N   0  0  0  0  0  0  0  0  0  0  0  0
  -23.5440  -32.1800   23.8850 O   0  0  0  0  0  0  0  0  0  0  0  0
  -22.8240  -29.5010   22.5860 C   0  0  0  0  0  0  0  0  0  0  0  0
  -21.5230  -29.2150   22.4160 N   0  0  0  0  0  0  0  0  0  0  0  0
  -23.5300  -28.9290   23.4230 O   0  0  0  0  0  0  0  0  0  0  0  0
  -21.0100  -29.7400   21.7200 H   0  0  0  0  0  0  0  0  0  0  0  0
  -18.2650  -27.6880   22.7260 C   0  0  0  0  0  0  0  0  0  0  0  0
  -20.7590  -28.2120   23.1560 C   0  0  0  0  0  3  0  0  0  0  0  0
  -21.0440  -26.7890   22.6230 C   0  0  0  0  0  2  0  0  0  0  0  0
  -20.0480  -26.3310   21.5520 C   0  0  0  0  0  2  0  0  0  0  0  0
  -18.6200  -26.3480   22.1030 C   0  0  0  0  0  2  0  0  0  0  0  0
  -19.2700  -28.5690   23.2070 C   0  0  0  0  0  0  0  0  0  0  0  0
  -18.8860  -29.8150   23.7500 C   0  0  0  0  0  3  0  0  0  0  0  0
  -17.5270  -30.1820   23.8170 C   0  0  0  0  0  3  0  0  0  0  0  0
  -16.5370  -29.3000   23.3520 C   0  0  0  0  0  3  0  0  0  0  0  0
  -16.9060  -28.0560   22.8130 C   0  0  0  0  0  3  0  0  0  0  0  0
  -25.9040  -32.6080   23.9200 C   0  0  0  0  0  3  0  0  0  0  0  0
  -25.5920  -34.0090   24.2260 N   0  0  0  0  0  0  0  0  0  0  0  0
  -25.9350  -35.0490   23.4550 C   0  0  0  0  0  0  0  0  0  0  0  0
  -26.6200  -34.9300   22.4340 O   0  0  0  0  0  0  0  0  0  0  0  0
  -24.9910  -34.1750   25.0190 H   0  0  0  0  0  0  0  0  0  0  0  0
  -24.2170  -36.8330   23.0330 C   0  0  0  0  0  1  0  0  0  0  0  0
  -25.4370  -36.4420   23.8810 C   0  0  0  0  0  3  0  0  0  0  0  0
  -27.5490  -37.3350   24.7580 C   0  0  0  0  0  1  0  0  0  0  0  0
  -26.4720  -37.4940   23.7830 N   0  0  0  0  0  0  0  0  0  0  0  0
  -26.0630  -38.4140   23.9140 H   0  0  0  0  0  0  0  0  0  0  0  0
  -26.4250  -31.8600   25.2080 C   0  0  1  0  0  0  0  0  0  0  0  0
  -25.3220  -31.5940   26.2590 C   0  0  0  0  0  1  0  0  0  0  0  0
  -27.0530  -30.4990   24.8290 C   0  0  0  0  0  1  0  0  0  0  0  0
  -27.5390  -32.6910   25.8860 C   0  0  0  0  0  1  0  0  0  0  0  0
  -29.0380  -20.9060   20.9380 C   0  0  0  0  0  2  0  0  0  0  0  0
  -29.6090  -19.5820   18.8530 C   0  0  0  0  0  3  0  0  0  0  0  0
  -30.5580  -17.3420   18.9600 C   0  0  0  0  0  3  0  0  0  0  0  0
  -29.9340  -18.4920   21.0130 C   0  0  0  0  0  3  0  0  0  0  0  0
  -30.1170  -18.4430   18.2030 C   0  0  0  0  0  0  0  0  0  0  0  0
  -29.5190  -19.6210   20.2580 C   0  0  0  0  0  0  0  0  0  0  0  0
  -30.4720  -17.3440   20.3730 C   0  0  0  0  0  0  0  0  0  0  0  0
  -31.5760  -15.1580   20.6610 C   0  0  0  0  0  0  0  0  0  0  0  0
  -31.2210  -13.0590   19.4130 C   0  0  0  0  0  2  0  0  0  0  0  0
  -30.3510  -13.3180   18.1660 C   0  0  0  0  0  2  0  0  0  0  0  0
  -28.8500  -13.2750   18.5190 C   0  0  0  0  0  2  0  0  0  0  0  0
  -28.4880  -14.0820   19.7970 C   0  0  0  0  0  3  0  0  0  0  0  0
  -29.4780  -13.7870   20.9430 C   0  0  0  0  0  2  0  0  0  0  0  0
  -30.8350  -14.0400   20.4360 N   0  0  0  0  0  0  0  0  0  0  0  0
  -32.7530  -15.2630   20.3030 O   0  0  0  0  0  0  0  0  0  0  0  0
  -30.9230  -16.2300   21.1550 N   0  0  0  0  0  0  0  0  0  0  0  0
  -31.2710  -16.4970   22.0650 H   0  0  0  0  0  0  0  0  0  0  0  0
  -26.0840  -14.7860   20.3730 C   0  0  0  0  0  0  0  0  0  0  0  0
  -24.9650  -14.0560   20.6750 C   0  0  0  0  0  0  0  0  0  0  0  0
  -25.3750  -12.6870   20.6670 C   0  0  0  0  0  0  0  0  0  0  0  0
  -27.1030  -13.8610   20.2010 N   0  0  0  0  0  0  0  0  0  0  0  0
  -26.6770  -12.5950   20.4350 N   0  0  0  0  0  0  0  0  0  0  0  0
  -24.5910  -11.4540   20.8100 C   0  0  0  0  0  0  0  0  0  0  0  0
  -24.9490  -10.4560   21.7420 C   0  0  0  0  0  3  0  0  0  0  0  0
  -24.1710   -9.2850   21.8700 C   0  0  0  0  0  3  0  0  0  0  0  0
  -23.0170   -9.1090   21.0700 C   0  0  0  0  0  0  0  0  0  0  0  0
  -22.6780  -10.0970   20.1290 C   0  0  0  0  0  3  0  0  0  0  0  0
  -23.4590  -11.2570   19.9970 C   0  0  0  0  0  3  0  0  0  0  0  0
  -22.2140   -7.9950   21.1130 O   0  0  0  0  0  0  0  0  0  0  0  0
  -22.0610   -7.2610   22.2600 C   0  0  0  0  0  0  0  0  0  0  0  0
  -21.6010   -7.8410   23.4630 C   0  0  0  0  0  3  0  0  0  0  0  0
  -21.3890   -7.0330   24.5990 C   0  0  0  0  0  3  0  0  0  0  0  0
  -21.6310   -5.6470   24.5310 C   0  0  0  0  0  0  0  0  0  0  0  0
  -22.0850   -5.0680   23.3330 C   0  0  0  0  0  3  0  0  0  0  0  0
  -22.2950   -5.8720   22.2000 C   0  0  0  0  0  0  0  0  0  0  0  0
  -22.7100   -5.3070   21.0420 F   0  0  0  0  0  0  0  0  0  0  0  0
  -21.4240   -4.8670   25.6180 F   0  0  0  0  0  0  0  0  0  0  0  0
  -23.5740  -14.5860   20.8670 C   0  0  0  0  0  0  0  0  0  0  0  0
  -22.7760  -13.9310   21.7040 N   0  0  0  0  0  0  0  0  0  0  0  0
  -23.2040  -15.6180   20.3100 O   0  0  0  0  0  0  0  0  0  0  0  0
  -23.0800  -13.0930   22.1780 H   0  0  0  0  0  0  0  0  0  0  0  0
  -21.8370  -14.2680   21.8690 H   0  0  0  0  0  0  0  0  0  0  0  0
  -26.3160  -16.1500   20.2130 N   0  0  0  0  0  0  0  0  0  0  0  0
  -25.5790  -16.8380   20.3130 H   0  0  0  0  0  0  0  0  0  0  0  0
  -27.2140  -16.5600   19.9800 H   0  0  0  0  0  0  0  0  0  0  0  0
  -28.8490  -18.0700   16.0490 C   0  0  0  0  0  1  0  0  0  0  0  0
  -30.2010  -18.4040   16.6890 C   0  0  0  0  0  2  0  0  0  0  0  0
  1  4  1  0
  1 50  1  0
  4  2  1  6
  4  3  1  0
  5  7  1  0
  5  4  1  0
  6  5  2  0
  7  8  1  0
  9 11  1  0
  9  8  1  0
 10 21  2  0
 11 16  1  0
 12 20  1  0
 12 22  1  0
 13 19  1  0
 13 15  1  0
 14 20  1  0
 15 14  1  0
 16 15  2  0
 17 18  1  0
 17 11  2  0
 18 13  2  0
 19 12  1  0
 20 10  1  0
 22 24  2  0
 23 22  1  0
 25 23  1  0
 26 35  2  0
 26 31  1  0
 27 23  1  0
 27 31  1  0
 28 27  1  0
 29 30  1  0
 29 28  1  0
 30 26  1  0
 31 32  2  0
 32 33  1  0
 34 33  2  0
 35 34  1  0
 36 10  1  0
 36 37  1  0
 36 46  1  0
 37 40  1  0
 38 42  1  0
 38 37  1  0
 39 38  2  0
 42 41  1  0
 44 42  1  0
 44 45  1  0
 44 43  1  0
 46 49  1  1
 46 47  1  0
 48 46  1  0
 51 55  1  0
 52 56  2  0
 54 51  2  0
 54 52  1  0
 55 50  1  0
 55 53  2  0
 56 53  1  0
 56 65  1  0
 57 65  1  0
 58 63  1  0
 59 60  1  0
 59 58  1  0
 61 60  1  0
 61 70  1  0
 61 62  1  0
 63 57  1  0
 63 62  1  0
 64 57  2  0
 65 66  1  0
 67 68  2  0
 68 87  1  0
 69 68  1  0
 69 72  1  0
 70 67  1  0
 70 71  1  0
 71 69  2  0
 72 73  1  0
 73 74  2  0
 75 78  1  0
 75 74  1  0
 76 75  2  0
 77 76  1  0
 77 72  2  0
 78 79  1  0
 79 80  1  0
 80 81  2  0
 82 81  1  0
 82 86  1  0
 83 82  2  0
 84 79  2  0
 84 83  1  0
 85 84  1  0
 87 88  1  0
 88 91  1  0
 88 90  1  0
 89 87  2  0
 92 93  1  0
 92 67  1  0
 94 92  1  0
 95 96  1  0
 96 54  1  0
M  ISO  4   8 101   9 101  57 100  65 100
M  END
>  <TORSDO>  (73) 
F 23

>  <SCORE>  (73) 
-10.516

>  <name>  (73) 
72

>  <ligand_id>  (73) 
72

>  <original_smiles>  (73) 
[H]c1c([H])c([H])c2c(c1[H])C([H])([H])C([H])([H])C([H])([H])C2([H])N([H])C(=O)C1([H])N(C(=O)C([H])(N([H])C(=O)C([H])(N([H])C([H])([H])[H])C([H])([H])[H])C(C([H])([H])[H])(C([H])([H])[H])C([H])([H])[H])C([H])([H])c2c([H])c(OC([H])([H])C([H])([H])C(=O)C(C([H])([H])[H])(C([H])([H])[H])C([H])([H])C([H])([H])c3c([H])c(N([H])C(=O)N4C([H])([H])C([H])([H])C([H])([H])C([H])(n5nc(-c6c([H])c([H])c(Oc7c([H])c([H])c(F)c([H])c7F)c([H])c6[H])c(C(=O)N([H])[H])c5N([H])[H])C4([H])[H])c([H])c(C([H])([H])C([H])([H])[H])c3[H])c([H])c([H])c2C1([H])[H]

>  <smiles>  (73) 
[H]c1c([H])c([H])c2c(c1[H])C([H])([H])C([H])([H])C([H])([H])C2([H])N([H])C(=O)C1([H])N(C(=O)C([H])(N([H])C(=O)C([H])(N([H])C([H])([H])[H])C([H])([H])[H])C(C([H])([H])[H])(C([H])([H])[H])C([H])([H])[H])C([H])([H])c2c([H])c(OC([H])([H])C([H])([H])C(=O)C(C([H])([H])[H])(C([H])([H])[H])C([H])([H])C([H])([H])c3c([H])c(N([H])C(=O)N4C([H])([H])C([H])([H])C([H])([H])C([H])(n5nc(-c6c([H])c([H])c(Oc7c([H])c([H])c(F)c([H])c7F)c([H])c6[H])c(C(=O)N([H])[H])c5N([H])[H])C4([H])[H])c([H])c(C([H])([H])C([H])([H])[H])c3[H])c([H])c([H])c2C1([H])[H]

$$$$
73:0:0
     RDKit          3D

 95104  0  0  1  0  0  0  0  0999 V2000
  -28.7100  -20.6560   20.5670 C   0  0  0  0  0  0  0  0  0  0  0  0
  -27.8130  -20.5110   21.4490 N   0  0  0  0  0  0  0  0  0  0  0  0
  -27.9070  -19.6360   21.9520 H   0  0  0  0  0  0  0  0  0  0  0  0
  -29.5210  -18.1980   20.5470 C   0  0  0  0  0  3  0  0  0  0  0  0
  -31.0400  -19.9980   19.9220 C   0  0  0  0  0  3  0  0  0  0  0  0
  -31.8290  -17.6960   19.9780 C   0  0  0  0  0  3  0  0  0  0  0  0
  -29.7510  -19.5950   20.3290 C   0  0  0  0  0  0  0  0  0  0  0  0
  -30.5470  -17.2200   20.3500 C   0  0  0  0  0  0  0  0  0  0  0  0
  -32.0690  -19.0610   19.7540 C   0  0  0  0  0  0  0  0  0  0  0  0
  -33.3010  -19.4730   19.3760 F   0  0  0  0  0  0  0  0  0  0  0  0
  -30.9520  -14.7230   20.0600 C   0  0  0  0  0  0  0  0  0  0  0  0
  -30.5930  -12.5490   18.9540 C   0  0  0  0  0  2  0  0  0  0  0  0
  -29.6040  -12.7510   17.7890 C   0  0  0  0  0  2  0  0  0  0  0  0
  -28.1500  -12.6210   18.2820 C   0  0  0  0  0  2  0  0  0  0  0  0
  -27.8730  -13.4620   19.5570 C   0  0  0  0  0  3  0  0  0  0  0  0
  -28.9740  -13.2530   20.6190 C   0  0  0  0  0  2  0  0  0  0  0  0
  -30.2670  -13.5470   19.9880 N   0  0  0  0  0  0  0  0  0  0  0  0
  -32.0860  -14.8180   19.5850 O   0  0  0  0  0  0  0  0  0  0  0  0
  -30.2610  -15.8040   20.5220 N   0  0  0  0  0  0  0  0  0  0  0  0
  -29.3470  -15.5820   20.8890 H   0  0  0  0  0  0  0  0  0  0  0  0
  -25.5310  -14.0830   20.4120 C   0  0  0  0  0  0  0  0  0  0  0  0
  -24.4720  -13.3170   20.8170 C   0  0  0  0  0  0  0  0  0  0  0  0
  -24.9090  -11.9580   20.7260 C   0  0  0  0  0  0  0  0  0  0  0  0
  -26.5450  -13.1930   20.1010 N   0  0  0  0  0  0  0  0  0  0  0  0
  -26.1780  -11.9090   20.3470 N   0  0  0  0  0  0  0  0  0  0  0  0
  -24.1730  -10.7030   20.9190 C   0  0  0  0  0  0  0  0  0  0  0  0
  -24.5850   -9.7460   21.8720 C   0  0  0  0  0  3  0  0  0  0  0  0
  -23.8520   -8.5540   22.0530 C   0  0  0  0  0  3  0  0  0  0  0  0
  -22.6910   -8.3100   21.2800 C   0  0  0  0  0  0  0  0  0  0  0  0
  -22.2990   -9.2560   20.3160 C   0  0  0  0  0  3  0  0  0  0  0  0
  -23.0330  -10.4400   20.1340 C   0  0  0  0  0  3  0  0  0  0  0  0
  -21.9310   -7.1700   21.3680 O   0  0  0  0  0  0  0  0  0  0  0  0
  -21.7970   -6.4840   22.5490 C   0  0  0  0  0  0  0  0  0  0  0  0
  -21.2140   -7.0740   23.6920 C   0  0  0  0  0  3  0  0  0  0  0  0
  -21.0330   -6.3120   24.8620 C   0  0  0  0  0  3  0  0  0  0  0  0
  -21.4240   -4.9600   24.8910 C   0  0  0  0  0  0  0  0  0  0  0  0
  -21.9990   -4.3690   23.7530 C   0  0  0  0  0  3  0  0  0  0  0  0
  -22.1820   -5.1280   22.5840 C   0  0  0  0  0  0  0  0  0  0  0  0
  -22.7180   -4.5480   21.4830 F   0  0  0  0  0  0  0  0  0  0  0  0
  -21.2420   -4.2240   26.0140 F   0  0  0  0  0  0  0  0  0  0  0  0
  -23.0990  -13.8070   21.1780 C   0  0  0  0  0  0  0  0  0  0  0  0
  -22.4080  -13.0970   22.0620 N   0  0  0  0  0  0  0  0  0  0  0  0
  -22.6510  -14.8540   20.7090 O   0  0  0  0  0  0  0  0  0  0  0  0
  -22.7840  -12.2500   22.4610 H   0  0  0  0  0  0  0  0  0  0  0  0
  -21.4890  -13.4050   22.3450 H   0  0  0  0  0  0  0  0  0  0  0  0
  -25.7110  -15.4560   20.2630 N   0  0  0  0  0  0  0  0  0  0  0  0
  -24.9580  -16.1180   20.4230 H   0  0  0  0  0  0  0  0  0  0  0  0
  -26.5410  -15.8860   19.8770 H   0  0  0  0  0  0  0  0  0  0  0  0
  -27.4160  -22.1880   18.9150 C   0  0  0  0  0  2  0  0  0  0  0  0
  -27.5410  -23.6420   18.4600 C   0  0  0  0  0  2  0  0  0  0  0  0
  -28.9420  -23.3070   20.4260 C   0  0  0  0  0  2  0  0  0  0  0  0
  -28.7160  -21.9460   19.6940 C   0  0  0  0  0  3  0  0  0  0  0  0
  -28.1180  -24.4010   19.6690 C   0  0  0  0  0  3  0  0  0  0  0  0
  -28.8700  -25.7080   19.2340 C   0  0  0  0  0  2  0  0  0  0  0  0
  -28.6850  -26.8900   20.0440 O   0  0  0  0  0  0  0  0  0  0  0  0
  -24.6580  -31.8490   23.2080 C   0  0  0  0  0  0  0  0  0  0  0  0
  -27.4930  -27.5980   19.9970 C   0  0  0  0  0  0  0  0  0  0  0  0
  -23.5280  -30.4840   21.4830 C   0  0  0  0  0  3  0  0  0  0  0  0
  -25.0560  -29.0560   20.0200 C   0  0  0  0  0  0  0  0  0  0  0  0
  -26.0480  -30.9160   21.3610 C   0  0  0  0  0  2  0  0  0  0  0  0
  -26.1870  -29.5770   20.6600 C   0  0  0  0  0  0  0  0  0  0  0  0
  -27.4050  -28.8520   20.6510 C   0  0  0  0  0  3  0  0  0  0  0  0
  -26.3380  -27.1050   19.3430 C   0  0  0  0  0  3  0  0  0  0  0  0
  -25.1280  -27.8200   19.3580 C   0  0  0  0  0  3  0  0  0  0  0  0
  -23.7860  -29.8730   20.0790 C   0  0  0  0  0  2  0  0  0  0  0  0
  -24.7610  -31.0970   22.0760 N   0  0  0  0  0  0  0  0  0  0  0  0
  -23.5580  -32.0640   23.7360 O   0  0  0  0  0  0  0  0  0  0  0  0
  -22.8910  -29.4000   22.3840 C   0  0  0  0  0  0  0  0  0  0  0  0
  -21.5700  -29.2050   22.2410 N   0  0  0  0  0  0  0  0  0  0  0  0
  -23.5820  -28.7410   23.1640 O   0  0  0  0  0  0  0  0  0  0  0  0
  -21.0740  -29.7940   21.5870 H   0  0  0  0  0  0  0  0  0  0  0  0
  -18.2010  -27.9920   22.7200 C   0  0  0  0  0  0  0  0  0  0  0  0
  -20.7640  -28.2140   22.9550 C   0  0  0  0  0  3  0  0  0  0  0  0
  -20.8430  -26.8310   22.2680 C   0  0  0  0  0  2  0  0  0  0  0  0
  -19.7180  -26.5920   21.2560 C   0  0  0  0  0  2  0  0  0  0  0  0
  -18.3520  -26.6970   21.9400 C   0  0  0  0  0  2  0  0  0  0  0  0
  -19.3330  -28.7130   23.1820 C   0  0  0  0  0  0  0  0  0  0  0  0
  -19.1360  -29.9300   23.8690 C   0  0  0  0  0  3  0  0  0  0  0  0
  -17.8400  -30.4280   24.1010 C   0  0  0  0  0  3  0  0  0  0  0  0
  -16.7220  -29.7000   23.6600 C   0  0  0  0  0  3  0  0  0  0  0  0
  -16.9020  -28.4840   22.9740 C   0  0  0  0  0  3  0  0  0  0  0  0
  -25.9110  -32.4910   23.8800 C   0  0  0  0  0  3  0  0  0  0  0  0
  -26.3840  -31.7280   25.1780 C   0  0  1  0  0  0  0  0  0  0  0  0
  -25.2510  -31.4680   26.1990 C   0  0  0  0  0  1  0  0  0  0  0  0
  -27.0110  -30.3620   24.8120 C   0  0  0  0  0  1  0  0  0  0  0  0
  -27.4920  -32.5420   25.8920 C   0  0  0  0  0  1  0  0  0  0  0  0
  -25.5760  -33.8860   24.1950 N   0  0  0  0  0  0  0  0  0  0  0  0
  -25.9150  -34.9380   23.4390 C   0  0  0  0  0  0  0  0  0  0  0  0
  -26.6170  -34.8400   22.4290 O   0  0  0  0  0  0  0  0  0  0  0  0
  -24.9650  -34.0360   24.9840 H   0  0  0  0  0  0  0  0  0  0  0  0
  -24.1800  -36.7080   23.0240 C   0  0  0  0  0  1  0  0  0  0  0  0
  -25.3980  -36.3210   23.8760 C   0  0  0  0  0  3  0  0  0  0  0  0
  -27.4850  -37.2410   24.7880 C   0  0  0  0  0  1  0  0  0  0  0  0
  -26.4220  -37.3850   23.7950 N   0  0  0  0  0  0  0  0  0  0  0  0
  -25.9980  -38.3000   23.9220 H   0  0  0  0  0  0  0  0  0  0  0  0
  1  2  2  0
  2  3  1  0
  5  7  1  0
  6  8  2  0
  7  4  2  0
  7  1  1  0
  8 19  1  0
  8  4  1  0
  9  5  2  0
  9  6  1  0
 10  9  1  0
 11 19  1  0
 12 17  1  0
 13 14  1  0
 13 12  1  0
 15 14  1  0
 15 24  1  0
 15 16  1  0
 17 11  1  0
 17 16  1  0
 18 11  2  0
 19 20  1  0
 21 22  2  0
 22 41  1  0
 23 22  1  0
 23 26  1  0
 24 25  1  0
 24 21  1  0
 25 23  2  0
 26 27  1  0
 27 28  2  0
 29 32  1  0
 29 28  1  0
 30 29  2  0
 31 30  1  0
 31 26  2  0
 32 33  1  0
 33 38  2  0
 33 34  1  0
 34 35  2  0
 35 36  1  0
 36 40  1  0
 37 36  2  0
 38 37  1  0
 39 38  1  0
 41 42  1  0
 42 45  1  0
 42 44  1  0
 43 41  2  0
 46 21  1  0
 46 47  1  0
 48 46  1  0
 49 52  1  0
 50 49  1  0
 50 53  1  0
 52 51  1  0
 52  1  1  0
 53 54  1  0
 53 51  1  0
 54 55  1  0
 56 67  2  0
 57 55  1  0
 57 62  1  0
 58 66  1  0
 58 68  1  0
 59 65  1  0
 59 61  1  0
 60 66  1  0
 61 60  1  0
 62 61  2  0
 63 64  1  0
 63 57  2  0
 64 59  2  0
 65 58  1  0
 66 56  1  0
 68 70  2  0
 69 68  1  0
 71 69  1  0
 72 81  2  0
 72 77  1  0
 73 69  1  0
 73 77  1  0
 74 73  1  0
 75 76  1  0
 75 74  1  0
 76 72  1  0
 77 78  2  0
 78 79  1  0
 80 79  2  0
 81 80  1  0
 82 56  1  0
 82 87  1  0
 82 83  1  0
 83 86  1  1
 83 84  1  0
 85 83  1  0
 87 90  1  0
 88 92  1  0
 88 87  1  0
 89 88  2  0
 92 91  1  0
 94 92  1  0
 94 95  1  0
 94 93  1  0
M  ISO  4  11 100  19 100  54 101  55 101
M  END
>  <TORSDO>  (74) 
F 19

>  <SCORE>  (74) 
-13.857

>  <name>  (74) 
73

>  <ligand_id>  (74) 
73

>  <original_smiles>  (74) 
[H]N=C(c1c([H])c(F)c([H])c(N([H])C(=O)N2C([H])([H])C([H])([H])C([H])([H])C([H])(n3nc(-c4c([H])c([H])c(Oc5c([H])c([H])c(F)c([H])c5F)c([H])c4[H])c(C(=O)N([H])[H])c3N([H])[H])C2([H])[H])c1[H])C1([H])C([H])([H])C([H])([H])C([H])(C([H])([H])Oc2c([H])c([H])c3c(c2[H])C([H])([H])N(C(=O)C([H])(N([H])C(=O)C([H])(N([H])C([H])([H])[H])C([H])([H])[H])C(C([H])([H])[H])(C([H])([H])[H])C([H])([H])[H])C([H])(C(=O)N([H])C2([H])c4c([H])c([H])c([H])c([H])c4C([H])([H])C([H])([H])C2([H])[H])C3([H])[H])C1([H])[H]

>  <smiles>  (74) 
[H]N=C(c1c([H])c(F)c([H])c(N([H])C(=O)N2C([H])([H])C([H])([H])C([H])([H])C([H])(n3nc(-c4c([H])c([H])c(Oc5c([H])c([H])c(F)c([H])c5F)c([H])c4[H])c(C(=O)N([H])[H])c3N([H])[H])C2([H])[H])c1[H])C1([H])C([H])([H])C([H])([H])C([H])(C([H])([H])Oc2c([H])c([H])c3c(c2[H])C([H])([H])N(C(=O)C([H])(N([H])C(=O)C([H])(N([H])C([H])([H])[H])C([H])([H])[H])C(C([H])([H])[H])(C([H])([H])[H])C([H])([H])[H])C([H])(C(=O)N([H])C2([H])c4c([H])c([H])c([H])c([H])c4C([H])([H])C([H])([H])C2([H])[H])C3([H])[H])C1([H])[H]

$$$$
74:0:0
     RDKit          3D

 97106  0  0  1  0  0  0  0  0999 V2000
  -28.3670  -20.6960   19.1860 C   0  0  0  0  0  3  0  0  0  0  0  0
  -30.1110  -18.1870   22.7790 C   0  0  0  0  0  2  0  0  0  0  0  0
  -31.6350  -16.9010   21.3550 C   0  0  0  0  0  3  0  0  0  0  0  0
  -29.5560  -18.6230   21.5790 C   0  0  0  0  0  3  0  0  0  0  0  0
  -30.0570  -18.3960   20.2360 C   0  0  0  0  0  3  0  0  0  0  0  0
  -30.8530  -17.1370   20.1810 C   0  0  0  0  0  3  0  0  0  0  0  0
  -31.2740  -17.4090   22.6330 C   0  0  0  0  0  0  0  0  0  0  0  0
  -28.1830  -19.0050   21.1600 C   0  0  0  0  0  2  0  0  0  0  0  0
  -28.7330  -19.1190   19.6650 C   0  0  0  0  0  3  0  0  0  0  0  0
  -31.9420  -17.0000   23.7360 F   0  0  0  0  0  0  0  0  0  0  0  0
  -31.4170  -14.6990   19.3560 C   0  0  0  0  0  0  0  0  0  0  0  0
  -31.0800  -12.3250   18.5880 C   0  0  0  0  0  2  0  0  0  0  0  0
  -29.9930  -12.2340   17.4940 C   0  0  0  0  0  2  0  0  0  0  0  0
  -28.5870  -12.1580   18.1200 C   0  0  0  0  0  2  0  0  0  0  0  0
  -28.3750  -13.1960   19.2550 C   0  0  0  0  0  3  0  0  0  0  0  0
  -29.5640  -13.2220   20.2340 C   0  0  0  0  0  2  0  0  0  0  0  0
  -30.7580  -13.4930   19.4360 N   0  0  0  0  0  0  0  0  0  0  0  0
  -32.5980  -14.7080   18.9990 O   0  0  0  0  0  0  0  0  0  0  0  0
  -30.6680  -15.8890   19.3880 N   0  0  0  0  0  0  0  0  0  0  0  0
  -29.6990  -15.7270   19.1580 H   0  0  0  0  0  0  0  0  0  0  0  0
  -26.2600  -13.9800   20.4630 C   0  0  0  0  0  0  0  0  0  0  0  0
  -25.1510  -13.3070   20.9030 C   0  0  0  0  0  0  0  0  0  0  0  0
  -25.3900  -11.9270   20.6230 C   0  0  0  0  0  0  0  0  0  0  0  0
  -27.1010  -13.0160   19.9390 N   0  0  0  0  0  0  0  0  0  0  0  0
  -26.5980  -11.7650   20.0970 N   0  0  0  0  0  0  0  0  0  0  0  0
  -24.5100  -10.7580   20.7650 C   0  0  0  0  0  0  0  0  0  0  0  0
  -24.8580   -9.6680   21.5920 C   0  0  0  0  0  3  0  0  0  0  0  0
  -23.9860   -8.5660   21.7300 C   0  0  0  0  0  3  0  0  0  0  0  0
  -22.7510   -8.5480   21.0390 C   0  0  0  0  0  0  0  0  0  0  0  0
  -22.4170   -9.6300   20.2050 C   0  0  0  0  0  3  0  0  0  0  0  0
  -23.2880  -10.7220   20.0660 C   0  0  0  0  0  3  0  0  0  0  0  0
  -21.8530   -7.5060   21.0910 O   0  0  0  0  0  0  0  0  0  0  0  0
  -21.6400   -6.7970   22.2460 C   0  0  0  0  0  0  0  0  0  0  0  0
  -21.1830   -7.4170   23.4300 C   0  0  0  0  0  3  0  0  0  0  0  0
  -20.9130   -6.6390   24.5720 C   0  0  0  0  0  3  0  0  0  0  0  0
  -21.0930   -5.2450   24.5310 C   0  0  0  0  0  0  0  0  0  0  0  0
  -21.5410   -4.6250   23.3510 C   0  0  0  0  0  3  0  0  0  0  0  0
  -21.8130   -5.3990   22.2110 C   0  0  0  0  0  0  0  0  0  0  0  0
  -22.2260   -4.7940   21.0710 F   0  0  0  0  0  0  0  0  0  0  0  0
  -20.8220   -4.4960   25.6260 F   0  0  0  0  0  0  0  0  0  0  0  0
  -23.9000  -13.9290   21.4510 C   0  0  0  0  0  0  0  0  0  0  0  0
  -23.2590  -13.2850   22.4190 N   0  0  0  0  0  0  0  0  0  0  0  0
  -23.5060  -15.0230   21.0520 O   0  0  0  0  0  0  0  0  0  0  0  0
  -23.5820  -12.3980   22.7710 H   0  0  0  0  0  0  0  0  0  0  0  0
  -22.4260  -13.6960   22.8130 H   0  0  0  0  0  0  0  0  0  0  0  0
  -26.6050  -15.3260   20.4310 N   0  0  0  0  0  0  0  0  0  0  0  0
  -25.9700  -16.0420   20.7680 H   0  0  0  0  0  0  0  0  0  0  0  0
  -27.4480  -15.7040   20.0280 H   0  0  0  0  0  0  0  0  0  0  0  0
  -28.5620  -20.8360   16.6340 C   0  0  0  0  0  1  0  0  0  0  0  0
  -26.5300  -21.8390   17.6830 C   0  0  0  0  0  1  0  0  0  0  0  0
  -26.7260  -19.4010   17.6490 C   0  0  0  0  0  1  0  0  0  0  0  0
  -27.5770  -20.6990   17.8090 C   0  0  2  0  0  0  0  0  0  0  0  0
  -29.2180  -22.0430   19.5610 C   0  0  0  0  0  2  0  0  0  0  0  0
  -28.9440  -23.5660   19.0460 C   0  0  0  0  0  0  0  0  0  0  0  0
  -29.5830  -23.9310   18.0520 O   0  0  0  0  0  0  0  0  0  0  0  0
  -28.0010  -24.6680   19.7520 C   0  0  0  0  0  2  0  0  0  0  0  0
  -28.3030  -26.1490   19.5270 O   0  0  0  0  0  0  0  0  0  0  0  0
  -24.6480  -31.3970   23.0340 C   0  0  0  0  0  0  0  0  0  0  0  0
  -27.2310  -27.0760   19.5730 C   0  0  0  0  0  0  0  0  0  0  0  0
  -23.4510  -30.1690   21.2620 C   0  0  0  0  0  3  0  0  0  0  0  0
  -24.8980  -28.7440   19.6990 C   0  0  0  0  0  0  0  0  0  0  0  0
  -25.9970  -30.4740   21.1200 C   0  0  0  0  0  2  0  0  0  0  0  0
  -26.0730  -29.1530   20.3470 C   0  0  0  0  0  0  0  0  0  0  0  0
  -27.2490  -28.3370   20.2690 C   0  0  0  0  0  3  0  0  0  0  0  0
  -26.0440  -26.7490   18.8880 C   0  0  0  0  0  3  0  0  0  0  0  0
  -24.8910  -27.5560   18.9560 C   0  0  0  0  0  3  0  0  0  0  0  0
  -23.6670  -29.6190   19.8280 C   0  0  0  0  0  2  0  0  0  0  0  0
  -24.7190  -30.6950   21.8620 N   0  0  0  0  0  0  0  0  0  0  0  0
  -23.5610  -31.6270   23.5870 O   0  0  0  0  0  0  0  0  0  0  0  0
  -22.7740  -29.0780   22.1250 C   0  0  0  0  0  0  0  0  0  0  0  0
  -21.4370  -28.9700   22.0270 N   0  0  0  0  0  0  0  0  0  0  0  0
  -23.4540  -28.3320   22.8330 O   0  0  0  0  0  0  0  0  0  0  0  0
  -20.9520  -29.6040   21.4110 H   0  0  0  0  0  0  0  0  0  0  0  0
  -18.0350  -27.8540   22.5670 C   0  0  0  0  0  0  0  0  0  0  0  0
  -20.6140  -27.9710   22.7150 C   0  0  0  0  0  3  0  0  0  0  0  0
  -20.6210  -26.6230   21.9560 C   0  0  0  0  0  2  0  0  0  0  0  0
  -19.4550  -26.4860   20.9730 C   0  0  0  0  0  2  0  0  0  0  0  0
  -18.1200  -26.6030   21.7150 C   0  0  0  0  0  2  0  0  0  0  0  0
  -19.2110  -28.5050   23.0250 C   0  0  0  0  0  0  0  0  0  0  0  0
  -19.0850  -29.6870   23.7870 C   0  0  0  0  0  3  0  0  0  0  0  0
  -17.8120  -30.2070   24.0940 C   0  0  0  0  0  3  0  0  0  0  0  0
  -16.6550  -29.5470   23.6490 C   0  0  0  0  0  3  0  0  0  0  0  0
  -16.7650  -28.3680   22.8950 C   0  0  0  0  0  3  0  0  0  0  0  0
  -25.9260  -31.9670   23.7230 C   0  0  0  0  0  3  0  0  0  0  0  0
  -25.6500  -33.3640   24.0820 N   0  0  0  0  0  0  0  0  0  0  0  0
  -26.1020  -34.4290   23.4070 C   0  0  0  0  0  0  0  0  0  0  0  0
  -26.8580  -34.3370   22.4360 O   0  0  0  0  0  0  0  0  0  0  0  0
  -24.9940  -33.5130   24.8340 H   0  0  0  0  0  0  0  0  0  0  0  0
  -24.5220  -36.3410   22.9660 C   0  0  0  0  0  1  0  0  0  0  0  0
  -25.6420  -35.8220   23.8810 C   0  0  0  0  0  3  0  0  0  0  0  0
  -27.7100  -36.5480   24.9960 C   0  0  0  0  0  1  0  0  0  0  0  0
  -26.7400  -36.8150   23.9380 N   0  0  0  0  0  0  0  0  0  0  0  0
  -26.3710  -37.7510   24.0790 H   0  0  0  0  0  0  0  0  0  0  0  0
  -26.3700  -31.1390   24.9900 C   0  0  1  0  0  0  0  0  0  0  0  0
  -25.2400  -30.9170   26.0240 C   0  0  0  0  0  1  0  0  0  0  0  0
  -26.8990  -29.7450   24.5790 C   0  0  0  0  0  1  0  0  0  0  0  0
  -27.5340  -31.8660   25.7050 C   0  0  0  0  0  1  0  0  0  0  0  0
  1 53  1  0
  1  9  1  0
  3  7  2  0
  4  8  1  0
  4  2  1  0
  5  4  1  0
  6  5  1  0
  6  3  1  0
  7  2  1  0
  7 10  1  0
  9  5  1  0
  9  8  1  0
 11 19  1  0
 11 17  1  0
 12 17  1  0
 13 14  1  0
 13 12  1  0
 14 15  1  0
 15 24  1  0
 15 16  1  0
 17 16  1  0
 18 11  2  0
 19  6  1  0
 20 19  1  0
 21 22  2  0
 22 41  1  0
 23 26  1  0
 23 22  1  0
 24 25  1  0
 24 21  1  0
 25 23  2  0
 26 27  1  0
 27 28  2  0
 29 32  1  0
 29 28  1  0
 30 29  2  0
 31 30  1  0
 31 26  2  0
 32 33  1  0
 33 34  1  0
 34 35  2  0
 36 35  1  0
 36 40  1  0
 37 36  2  0
 38 33  2  0
 38 37  1  0
 39 38  1  0
 41 42  1  0
 42 44  1  0
 42 45  1  0
 43 41  2  0
 46 21  1  0
 46 47  1  0
 48 46  1  0
 52 49  1  6
 50 52  1  0
 51 52  1  0
 52  1  1  0
 54 53  1  0
 54 56  1  0
 55 54  2  0
 57 59  1  0
 57 56  1  0
 58 69  2  0
 58 84  1  0
 59 64  1  0
 60 68  1  0
 60 70  1  0
 61 67  1  0
 61 63  1  0
 62 68  1  0
 63 62  1  0
 64 63  2  0
 65 66  1  0
 65 59  2  0
 66 61  2  0
 67 60  1  0
 68 58  1  0
 70 72  2  0
 71 70  1  0
 71 75  1  0
 73 71  1  0
 74 83  2  0
 74 79  1  0
 75 79  1  0
 76 75  1  0
 77 78  1  0
 77 76  1  0
 78 74  1  0
 79 80  2  0
 80 81  1  0
 82 81  2  0
 83 82  1  0
 84 85  1  0
 84 94  1  0
 85 88  1  0
 86 90  1  0
 86 85  1  0
 87 86  2  0
 89 90  1  0
 90 92  1  0
 92 93  1  0
 92 91  1  0
 94 97  1  1
 94 95  1  0
 96 94  1  0
M  ISO  4  11 100  19 100  56 101  57 101
M  END
>  <TORSDO>  (75) 
F 21

>  <SCORE>  (75) 
-7.385

>  <name>  (75) 
74

>  <ligand_id>  (75) 
74

>  <original_smiles>  (75) 
[H]c1c([H])c([H])c2c(c1[H])C([H])([H])C([H])([H])C([H])([H])C2([H])N([H])C(=O)C1([H])N(C(=O)C([H])(N([H])C(=O)C([H])(N([H])C([H])([H])[H])C([H])([H])[H])C(C([H])([H])[H])(C([H])([H])[H])C([H])([H])[H])C([H])([H])c2c([H])c(OC([H])([H])C(=O)C([H])([H])C([H])(C3([H])c4c(N([H])C(=O)N5C([H])([H])C([H])([H])C([H])([H])C([H])(n6nc(-c7c([H])c([H])c(Oc8c([H])c([H])c(F)c([H])c8F)c([H])c7[H])c(C(=O)N([H])[H])c6N([H])[H])C5([H])[H])c([H])c(F)c([H])c4C3([H])[H])C(C([H])([H])[H])(C([H])([H])[H])C([H])([H])[H])c([H])c([H])c2C1([H])[H]

>  <smiles>  (75) 
[H]c1c([H])c([H])c2c(c1[H])C([H])([H])C([H])([H])C([H])([H])C2([H])N([H])C(=O)C1([H])N(C(=O)C([H])(N([H])C(=O)C([H])(N([H])C([H])([H])[H])C([H])([H])[H])C(C([H])([H])[H])(C([H])([H])[H])C([H])([H])[H])C([H])([H])c2c([H])c(OC([H])([H])C(=O)C([H])([H])C([H])(C3([H])c4c(N([H])C(=O)N5C([H])([H])C([H])([H])C([H])([H])C([H])(n6nc(-c7c([H])c([H])c(Oc8c([H])c([H])c(F)c([H])c8F)c([H])c7[H])c(C(=O)N([H])[H])c6N([H])[H])C5([H])[H])c([H])c(F)c([H])c4C3([H])[H])C(C([H])([H])[H])(C([H])([H])[H])C([H])([H])[H])c([H])c([H])c2C1([H])[H]

$$$$
75:0:0
     RDKit          3D

 92101  0  0  1  0  0  0  0  0999 V2000
  -31.6320  -14.5920   19.7400 C   0  0  0  0  0  0  0  0  0  0  0  0
  -31.2860  -12.1980   19.1650 C   0  0  0  0  0  2  0  0  0  0  0  0
  -30.3370  -12.0620   17.9520 C   0  0  0  0  0  2  0  0  0  0  0  0
  -28.8620  -12.0650   18.3850 C   0  0  0  0  0  2  0  0  0  0  0  0
  -28.5470  -13.2000   19.3960 C   0  0  0  0  0  3  0  0  0  0  0  0
  -29.6030  -13.1680   20.5270 C   0  0  0  0  0  2  0  0  0  0  0  0
  -30.9210  -13.4240   19.9130 N   0  0  0  0  0  0  0  0  0  0  0  0
  -32.7220  -14.5510   19.1580 O   0  0  0  0  0  0  0  0  0  0  0  0
  -29.7040  -19.9030   20.8570 C   0  0  0  0  0  3  0  0  0  0  0  0
  -29.9410  -20.9700   19.9730 C   0  0  0  0  0  3  0  0  0  0  0  0
  -31.2440  -19.4860   18.5710 C   0  0  0  0  0  2  0  0  0  0  0  0
  -30.2420  -18.6280   20.6080 C   0  0  0  0  0  0  0  0  0  0  0  0
  -31.0080  -18.3890   19.4580 C   0  0  0  0  0  0  0  0  0  0  0  0
  -30.7260  -20.7920   18.8080 C   0  0  0  0  0  0  0  0  0  0  0  0
  -29.9880  -17.5580   21.6340 C   0  0  0  0  0  3  0  0  0  0  0  0
  -31.6080  -16.9940   19.2150 C   0  0  0  0  0  3  0  0  0  0  0  0
  -30.2850  -16.1090   21.2170 C   0  0  0  0  0  3  0  0  0  0  0  0
  -31.0730  -15.8270   19.9900 N   0  0  0  0  0  0  0  0  0  0  0  0
  -26.2550  -14.1100   20.1660 C   0  0  0  0  0  0  0  0  0  0  0  0
  -25.1130  -13.4770   20.5660 C   0  0  0  0  0  0  0  0  0  0  0  0
  -25.3990  -12.0750   20.5240 C   0  0  0  0  0  0  0  0  0  0  0  0
  -27.1800  -13.1040   19.9120 N   0  0  0  0  0  0  0  0  0  0  0  0
  -26.6630  -11.8750   20.1760 N   0  0  0  0  0  0  0  0  0  0  0  0
  -24.5240  -10.9140   20.7430 C   0  0  0  0  0  0  0  0  0  0  0  0
  -24.8980   -9.8610   21.6060 C   0  0  0  0  0  3  0  0  0  0  0  0
  -24.0360   -8.7650   21.8140 C   0  0  0  0  0  3  0  0  0  0  0  0
  -22.7830   -8.7160   21.1580 C   0  0  0  0  0  0  0  0  0  0  0  0
  -22.4250   -9.7560   20.2810 C   0  0  0  0  0  3  0  0  0  0  0  0
  -23.2860  -10.8430   20.0720 C   0  0  0  0  0  3  0  0  0  0  0  0
  -21.8930   -7.6760   21.2750 O   0  0  0  0  0  0  0  0  0  0  0  0
  -21.9090   -6.8340   22.3580 C   0  0  0  0  0  0  0  0  0  0  0  0
  -21.7220   -7.3090   23.6740 C   0  0  0  0  0  3  0  0  0  0  0  0
  -21.6760   -6.4020   24.7510 C   0  0  0  0  0  3  0  0  0  0  0  0
  -21.8050   -5.0210   24.5150 C   0  0  0  0  0  0  0  0  0  0  0  0
  -21.9900   -4.5460   23.2060 C   0  0  0  0  0  3  0  0  0  0  0  0
  -22.0390   -5.4490   22.1290 C   0  0  0  0  0  0  0  0  0  0  0  0
  -22.1920   -4.9820   20.8650 F   0  0  0  0  0  0  0  0  0  0  0  0
  -21.7550   -4.1490   25.5480 F   0  0  0  0  0  0  0  0  0  0  0  0
  -23.7940  -14.1240   20.8820 C   0  0  0  0  0  0  0  0  0  0  0  0
  -23.0200  -13.5340   21.7830 N   0  0  0  0  0  0  0  0  0  0  0  0
  -23.4600  -15.1890   20.3620 O   0  0  0  0  0  0  0  0  0  0  0  0
  -23.3000  -12.6690   22.2250 H   0  0  0  0  0  0  0  0  0  0  0  0
  -22.1330  -13.9520   22.0360 H   0  0  0  0  0  0  0  0  0  0  0  0
  -26.5830  -15.4520   19.9790 N   0  0  0  0  0  0  0  0  0  0  0  0
  -25.9150  -16.2020   20.1120 H   0  0  0  0  0  0  0  0  0  0  0  0
  -27.4810  -15.7760   19.6450 H   0  0  0  0  0  0  0  0  0  0  0  0
  -31.0030  -21.8220   17.9080 O   0  0  0  0  0  0  0  0  0  0  0  0
  -30.5320  -23.1430   18.2390 C   0  0  0  0  0  2  0  0  0  0  0  0
  -30.1140  -23.9590   17.0000 C   0  0  0  0  0  0  0  0  0  0  0  0
  -30.8310  -24.0420   15.9980 O   0  0  0  0  0  0  0  0  0  0  0  0
  -28.7320  -24.6260   17.0710 C   0  0  0  0  0  2  0  0  0  0  0  0
  -28.7650  -26.0630   16.9730 O   0  0  0  0  0  0  0  0  0  0  0  0
  -25.2370  -29.3500   22.2330 C   0  0  0  0  0  0  0  0  0  0  0  0
  -27.5860  -26.6750   17.3720 C   0  0  0  0  0  0  0  0  0  0  0  0
  -23.8710  -28.5900   20.3150 C   0  0  0  0  0  3  0  0  0  0  0  0
  -25.1700  -27.8600   18.2510 C   0  0  0  0  0  0  0  0  0  0  0  0
  -26.3340  -29.2130   19.9990 C   0  0  0  0  0  2  0  0  0  0  0  0
  -26.3790  -28.2100   18.8630 C   0  0  0  0  0  0  0  0  0  0  0  0
  -27.5910  -27.6300   18.4170 C   0  0  0  0  0  3  0  0  0  0  0  0
  -26.3480  -26.3550   16.7610 C   0  0  0  0  0  3  0  0  0  0  0  0
  -25.1460  -26.9340   17.2000 C   0  0  0  0  0  3  0  0  0  0  0  0
  -23.9150  -28.5220   18.7670 C   0  0  0  0  0  2  0  0  0  0  0  0
  -25.1730  -29.0440   20.9060 N   0  0  0  0  0  0  0  0  0  0  0  0
  -24.2260  -29.3020   22.9500 O   0  0  0  0  0  0  0  0  0  0  0  0
  -23.3930  -27.2240   20.8630 C   0  0  0  0  0  0  0  0  0  0  0  0
  -22.0800  -26.9610   20.7520 N   0  0  0  0  0  0  0  0  0  0  0  0
  -24.1960  -26.4200   21.3430 O   0  0  0  0  0  0  0  0  0  0  0  0
  -21.4880  -27.6730   20.3450 H   0  0  0  0  0  0  0  0  0  0  0  0
  -18.8830  -25.2800   20.8700 C   0  0  0  0  0  0  0  0  0  0  0  0
  -21.4120  -25.7240   21.1590 C   0  0  0  0  0  3  0  0  0  0  0  0
  -21.6250  -24.6060   20.1130 C   0  0  0  0  0  2  0  0  0  0  0  0
  -20.5010  -24.5280   19.0750 C   0  0  0  0  0  2  0  0  0  0  0  0
  -19.1530  -24.2780   19.7610 C   0  0  0  0  0  2  0  0  0  0  0  0
  -19.9420  -25.9720   21.5160 C   0  0  0  0  0  0  0  0  0  0  0  0
  -19.6330  -26.9180   22.5170 C   0  0  0  0  0  3  0  0  0  0  0  0
  -18.2970  -27.1750   22.8770 C   0  0  0  0  0  3  0  0  0  0  0  0
  -17.2540  -26.4760   22.2470 C   0  0  0  0  0  3  0  0  0  0  0  0
  -17.5470  -25.5280   21.2490 C   0  0  0  0  0  3  0  0  0  0  0  0
  -26.5710  -29.8000   22.9070 C   0  0  0  0  0  3  0  0  0  0  0  0
  -27.2720  -28.6500   23.7310 C   0  0  1  0  0  0  0  0  0  0  0  0
  -26.3380  -27.9640   24.7540 C   0  0  0  0  0  1  0  0  0  0  0  0
  -27.8220  -27.5560   22.7850 C   0  0  0  0  0  1  0  0  0  0  0  0
  -28.4870  -29.2230   24.4990 C   0  0  0  0  0  1  0  0  0  0  0  0
  -26.2650  -30.9500   23.7680 N   0  0  0  0  0  0  0  0  0  0  0  0
  -26.5450  -32.2240   23.4620 C   0  0  0  0  0  0  0  0  0  0  0  0
  -27.1590  -32.5480   22.4410 O   0  0  0  0  0  0  0  0  0  0  0  0
  -25.7140  -30.7640   24.5930 H   0  0  0  0  0  0  0  0  0  0  0  0
  -24.8140  -33.9970   23.8810 C   0  0  0  0  0  1  0  0  0  0  0  0
  -26.0670  -33.3090   24.4440 C   0  0  0  0  0  3  0  0  0  0  0  0
  -28.2160  -33.7970   25.5260 C   0  0  0  0  0  1  0  0  0  0  0  0
  -27.0980  -34.3230   24.7490 N   0  0  0  0  0  0  0  0  0  0  0  0
  -26.6940  -35.1020   25.2610 H   0  0  0  0  0  0  0  0  0  0  0  0
  1  7  1  0
  1 18  1  0
  2  7  1  0
  3  4  1  0
  3  2  1  0
  5  4  1  0
  5 22  1  0
  5  6  1  0
  7  6  1  0
  8  1  2  0
 10  9  1  0
 11 14  1  0
 11 13  1  0
 12  9  2  0
 12 15  1  0
 13 12  1  0
 14 10  2  0
 16 13  2  0
 16 18  1  0
 17 15  2  0
 18 17  1  0
 19 20  2  0
 20 39  1  0
 21 20  1  0
 21 24  1  0
 22 19  1  0
 22 23  1  0
 23 21  2  0
 24 25  1  0
 25 26  2  0
 27 30  1  0
 27 26  1  0
 28 27  2  0
 29 28  1  0
 29 24  2  0
 30 31  1  0
 31 32  1  0
 32 33  2  0
 34 33  1  0
 34 38  1  0
 35 34  2  0
 36 31  2  0
 36 35  1  0
 37 36  1  0
 39 40  1  0
 40 43  1  0
 40 42  1  0
 41 39  2  0
 44 45  1  0
 44 19  1  0
 46 44  1  0
 47 48  1  0
 47 14  1  0
 49 51  1  0
 49 48  1  0
 50 49  2  0
 52 51  1  0
 52 54  1  0
 53 64  2  0
 54 59  1  0
 55 65  1  0
 55 63  1  0
 56 62  1  0
 56 58  1  0
 57 63  1  0
 58 57  1  0
 59 58  2  0
 60 61  1  0
 60 54  2  0
 61 56  2  0
 62 55  1  0
 63 53  1  0
 65 67  2  0
 66 65  1  0
 68 66  1  0
 69 78  2  0
 69 74  1  0
 70 66  1  0
 70 74  1  0
 71 70  1  0
 72 73  1  0
 72 71  1  0
 73 69  1  0
 74 75  2  0
 75 76  1  0
 77 76  2  0
 78 77  1  0
 79 53  1  0
 79 80  1  0
 79 84  1  0
 80 83  1  1
 80 81  1  0
 82 80  1  0
 84 87  1  0
 85 84  1  0
 85 89  1  0
 86 85  2  0
 89 88  1  0
 89 91  1  0
 91 92  1  0
 91 90  1  0
M  ISO  4   1 100  18 100  51 101  52 101
M  END
>  <TORSDO>  (76) 
F 19

>  <SCORE>  (76) 
-9.713

>  <name>  (76) 
75

>  <ligand_id>  (76) 
75

>  <original_smiles>  (76) 
[H]c1c([H])c([H])c2c(c1[H])C([H])([H])C([H])([H])C([H])([H])C2([H])N([H])C(=O)C1([H])N(C(=O)C([H])(N([H])C(=O)C([H])(N([H])C([H])([H])[H])C([H])([H])[H])C(C([H])([H])[H])(C([H])([H])[H])C([H])([H])[H])C([H])([H])c2c([H])c(OC([H])([H])C(=O)C([H])([H])Oc3c([H])c([H])c4c(c3[H])C([H])([H])N(C(=O)N3C([H])([H])C([H])([H])C([H])([H])C([H])(n5nc(-c6c([H])c([H])c(Oc7c([H])c([H])c(F)c([H])c7F)c([H])c6[H])c(C(=O)N([H])[H])c5N([H])[H])C3([H])[H])C([H])([H])C4([H])[H])c([H])c([H])c2C1([H])[H]

>  <smiles>  (76) 
[H]c1c([H])c([H])c2c(c1[H])C([H])([H])C([H])([H])C([H])([H])C2([H])N([H])C(=O)C1([H])N(C(=O)C([H])(N([H])C(=O)C([H])(N([H])C([H])([H])[H])C([H])([H])[H])C(C([H])([H])[H])(C([H])([H])[H])C([H])([H])[H])C([H])([H])c2c([H])c(OC([H])([H])C(=O)C([H])([H])Oc3c([H])c([H])c4c(c3[H])C([H])([H])N(C(=O)N3C([H])([H])C([H])([H])C([H])([H])C([H])(n5nc(-c6c([H])c([H])c(Oc7c([H])c([H])c(F)c([H])c7F)c([H])c6[H])c(C(=O)N([H])[H])c5N([H])[H])C3([H])[H])C([H])([H])C4([H])[H])c([H])c([H])c2C1([H])[H]

$$$$
76:0:0
     RDKit          3D

 94103  0  0  1  0  0  0  0  0999 V2000
  -27.2810  -22.9010   20.3870 C   0  0  0  0  0  2  0  0  0  0  0  0
  -27.6890  -21.3790   20.3780 C   0  0  0  0  0  2  0  0  0  0  0  0
  -29.6250  -22.7250   20.2400 C   0  0  0  0  0  2  0  0  0  0  0  0
  -28.5180  -23.6610   20.8850 C   0  0  0  0  0  3  0  0  0  0  0  0
  -29.1530  -21.2880   20.3300 N   0  0  0  0  0  0  0  0  0  0  0  0
  -31.7130  -18.9480   21.9290 C   0  0  0  0  0  3  0  0  0  0  0  0
  -31.3680  -17.6700   21.4550 C   0  0  0  0  0  3  0  0  0  0  0  0
  -29.4990  -18.6960   20.2900 C   0  0  0  0  0  3  0  0  0  0  0  0
  -30.9710  -20.1090   21.6160 C   0  0  0  0  0  0  0  0  0  0  0  0
  -29.8600  -20.0570   20.7190 C   0  0  0  0  0  0  0  0  0  0  0  0
  -30.2330  -17.4730   20.6440 C   0  0  0  0  0  0  0  0  0  0  0  0
  -31.4000  -21.3670   22.3590 C   0  0  0  0  0  1  0  0  0  0  0  0
  -30.6280  -14.8980   20.1640 C   0  0  0  0  0  0  0  0  0  0  0  0
  -30.4200  -12.6120   19.1460 C   0  0  0  0  0  2  0  0  0  0  0  0
  -29.4460  -12.6390   17.9470 C   0  0  0  0  0  2  0  0  0  0  0  0
  -27.9920  -12.4460   18.4220 C   0  0  0  0  0  2  0  0  0  0  0  0
  -27.6360  -13.3450   19.6350 C   0  0  0  0  0  3  0  0  0  0  0  0
  -28.7260  -13.3000   20.7260 C   0  0  0  0  0  2  0  0  0  0  0  0
  -29.9930  -13.6750   20.0860 N   0  0  0  0  0  0  0  0  0  0  0  0
  -31.8200  -14.9720   19.8510 O   0  0  0  0  0  0  0  0  0  0  0  0
  -29.8570  -16.0560   20.3210 N   0  0  0  0  0  0  0  0  0  0  0  0
  -28.8640  -15.8850   20.2800 H   0  0  0  0  0  0  0  0  0  0  0  0
  -25.2730  -13.9210   20.4450 C   0  0  0  0  0  0  0  0  0  0  0  0
  -24.2210  -13.1410   20.8400 C   0  0  0  0  0  0  0  0  0  0  0  0
  -24.6860  -11.7910   20.7840 C   0  0  0  0  0  0  0  0  0  0  0  0
  -26.3100  -13.0470   20.1670 N   0  0  0  0  0  0  0  0  0  0  0  0
  -25.9680  -11.7600   20.4360 N   0  0  0  0  0  0  0  0  0  0  0  0
  -23.9680  -10.5250   20.9820 C   0  0  0  0  0  0  0  0  0  0  0  0
  -24.4150   -9.5600   21.9100 C   0  0  0  0  0  3  0  0  0  0  0  0
  -23.6950   -8.3590   22.0970 C   0  0  0  0  0  3  0  0  0  0  0  0
  -22.5150   -8.1170   21.3550 C   0  0  0  0  0  0  0  0  0  0  0  0
  -22.0880   -9.0710   20.4150 C   0  0  0  0  0  3  0  0  0  0  0  0
  -22.8080  -10.2630   20.2260 C   0  0  0  0  0  3  0  0  0  0  0  0
  -21.7650   -6.9700   21.4520 O   0  0  0  0  0  0  0  0  0  0  0  0
  -21.7140   -6.2390   22.6120 C   0  0  0  0  0  0  0  0  0  0  0  0
  -21.2660   -6.8010   23.8270 C   0  0  0  0  0  3  0  0  0  0  0  0
  -21.1640   -5.9960   24.9800 C   0  0  0  0  0  3  0  0  0  0  0  0
  -21.4980   -4.6290   24.9170 C   0  0  0  0  0  0  0  0  0  0  0  0
  -21.9400   -4.0680   23.7070 C   0  0  0  0  0  3  0  0  0  0  0  0
  -22.0440   -4.8690   22.5560 C   0  0  0  0  0  0  0  0  0  0  0  0
  -22.4490   -4.3170   21.3870 F   0  0  0  0  0  0  0  0  0  0  0  0
  -21.3930   -3.8540   26.0210 F   0  0  0  0  0  0  0  0  0  0  0  0
  -22.8310  -13.6120   21.1550 C   0  0  0  0  0  0  0  0  0  0  0  0
  -22.1270  -12.9040   22.0310 N   0  0  0  0  0  0  0  0  0  0  0  0
  -22.3780  -14.6430   20.6580 O   0  0  0  0  0  0  0  0  0  0  0  0
  -22.5050  -12.0700   22.4530 H   0  0  0  0  0  0  0  0  0  0  0  0
  -21.1950  -13.2020   22.2820 H   0  0  0  0  0  0  0  0  0  0  0  0
  -25.4260  -15.2940   20.2720 N   0  0  0  0  0  0  0  0  0  0  0  0
  -24.6550  -15.9410   20.3980 H   0  0  0  0  0  0  0  0  0  0  0  0
  -26.2500  -15.7360   19.8870 H   0  0  0  0  0  0  0  0  0  0  0  0
  -27.6780  -25.6120   22.3610 C   0  0  0  0  0  1  0  0  0  0  0  0
  -30.0160  -25.6090   21.5060 C   0  0  0  0  0  1  0  0  0  0  0  0
  -28.5570  -25.3110   21.1180 C   0  0  1  0  0  0  0  0  0  0  0  0
  -28.3300  -26.4270   20.1230 O   0  0  0  0  0  0  0  0  0  0  0  0
  -24.6130  -31.9150   23.2330 C   0  0  0  0  0  0  0  0  0  0  0  0
  -27.2330  -27.3260   20.1740 C   0  0  0  0  0  0  0  0  0  0  0  0
  -23.4130  -30.5130   21.5940 C   0  0  0  0  0  3  0  0  0  0  0  0
  -24.8700  -28.9640   20.1610 C   0  0  0  0  0  0  0  0  0  0  0  0
  -25.9520  -30.8350   21.4040 C   0  0  0  0  0  2  0  0  0  0  0  0
  -26.0410  -29.4490   20.7600 C   0  0  0  0  0  0  0  0  0  0  0  0
  -27.2290  -28.6440   20.7520 C   0  0  0  0  0  3  0  0  0  0  0  0
  -26.0420  -26.9090   19.5480 C   0  0  0  0  0  3  0  0  0  0  0  0
  -24.8770  -27.7030   19.5420 C   0  0  0  0  0  3  0  0  0  0  0  0
  -23.6290  -29.8380   20.2130 C   0  0  0  0  0  2  0  0  0  0  0  0
  -24.6790  -31.1070   22.1340 N   0  0  0  0  0  0  0  0  0  0  0  0
  -23.5280  -32.1850   23.7730 O   0  0  0  0  0  0  0  0  0  0  0  0
  -22.7550  -29.4940   22.5570 C   0  0  0  0  0  0  0  0  0  0  0  0
  -21.4280  -29.3140   22.4360 N   0  0  0  0  0  0  0  0  0  0  0  0
  -23.4370  -28.8680   23.3710 O   0  0  0  0  0  0  0  0  0  0  0  0
  -20.9340  -29.8740   21.7560 H   0  0  0  0  0  0  0  0  0  0  0  0
  -18.0580  -28.0920   22.9410 C   0  0  0  0  0  0  0  0  0  0  0  0
  -20.6160  -28.3690   23.2050 C   0  0  0  0  0  3  0  0  0  0  0  0
  -20.7270  -26.9400   22.6240 C   0  0  0  0  0  2  0  0  0  0  0  0
  -19.6240  -26.6120   21.6130 C   0  0  0  0  0  2  0  0  0  0  0  0
  -18.2420  -26.7460   22.2590 C   0  0  0  0  0  2  0  0  0  0  0  0
  -19.1730  -28.8600   23.3690 C   0  0  0  0  0  0  0  0  0  0  0  0
  -18.9470  -30.1200   23.9660 C   0  0  0  0  0  3  0  0  0  0  0  0
  -17.6400  -30.6120   24.1370 C   0  0  0  0  0  3  0  0  0  0  0  0
  -16.5390  -29.8410   23.7250 C   0  0  0  0  0  3  0  0  0  0  0  0
  -16.7500  -28.5820   23.1320 C   0  0  0  0  0  3  0  0  0  0  0  0
  -25.8920  -32.5550   23.8550 C   0  0  0  0  0  3  0  0  0  0  0  0
  -25.5770  -33.9530   24.1850 N   0  0  0  0  0  0  0  0  0  0  0  0
  -25.9030  -35.0080   23.4250 C   0  0  0  0  0  0  0  0  0  0  0  0
  -26.5710  -34.9060   22.3930 O   0  0  0  0  0  0  0  0  0  0  0  0
  -24.9840  -34.1030   24.9880 H   0  0  0  0  0  0  0  0  0  0  0  0
  -24.1700  -36.7990   23.0760 C   0  0  0  0  0  1  0  0  0  0  0  0
  -25.4130  -36.3950   23.8850 C   0  0  0  0  0  3  0  0  0  0  0  0
  -27.5460  -37.2860   24.7160 C   0  0  0  0  0  1  0  0  0  0  0  0
  -26.4440  -37.4510   23.7720 N   0  0  0  0  0  0  0  0  0  0  0  0
  -26.0350  -38.3700   23.9200 H   0  0  0  0  0  0  0  0  0  0  0  0
  -26.4100  -31.7890   25.1340 C   0  0  1  0  0  0  0  0  0  0  0  0
  -25.3160  -31.5500   26.2020 C   0  0  0  0  0  1  0  0  0  0  0  0
  -26.9990  -30.4130   24.7450 C   0  0  0  0  0  1  0  0  0  0  0  0
  -27.5570  -32.5890   25.7950 C   0  0  0  0  0  1  0  0  0  0  0  0
  1  4  1  0
  2  1  1  0
  3  5  1  0
  3  4  1  0
  4 53  1  0
  5  2  1  0
  5 10  1  0
  7  6  2  0
  8 11  2  0
  8 10  1  0
  9  6  1  0
  9 12  1  0
 10  9  2  0
 11  7  1  0
 13 21  1  0
 14 19  1  0
 15 16  1  0
 15 14  1  0
 17 16  1  0
 17 26  1  0
 17 18  1  0
 19 13  1  0
 19 18  1  0
 20 13  2  0
 21 11  1  0
 22 21  1  0
 23 24  2  0
 24 43  1  0
 25 24  1  0
 25 28  1  0
 26 27  1  0
 26 23  1  0
 27 25  2  0
 28 29  1  0
 29 30  2  0
 31 34  1  0
 31 30  1  0
 32 31  2  0
 33 32  1  0
 33 28  2  0
 34 35  1  0
 35 36  1  0
 36 37  2  0
 38 37  1  0
 38 42  1  0
 39 38  2  0
 40 35  2  0
 40 39  1  0
 41 40  1  0
 43 44  1  0
 44 47  1  0
 44 46  1  0
 45 43  2  0
 48 49  1  0
 48 23  1  0
 50 48  1  0
 53 52  1  1
 53 51  1  0
 54 56  1  0
 54 53  1  0
 55 66  2  0
 56 61  1  0
 57 65  1  0
 57 67  1  0
 58 64  1  0
 58 60  1  0
 59 65  1  0
 60 59  1  0
 61 60  2  0
 62 56  2  0
 63 62  1  0
 63 58  2  0
 64 57  1  0
 65 55  1  0
 67 69  2  0
 68 67  1  0
 70 68  1  0
 71 80  2  0
 71 76  1  0
 72 68  1  0
 72 76  1  0
 73 72  1  0
 74 75  1  0
 74 73  1  0
 75 71  1  0
 76 77  2  0
 77 78  1  0
 79 78  2  0
 80 79  1  0
 81 55  1  0
 81 82  1  0
 81 91  1  0
 82 85  1  0
 83 87  1  0
 83 82  1  0
 84 83  2  0
 87 86  1  0
 89 87  1  0
 89 90  1  0
 89 88  1  0
 91 94  1  1
 91 92  1  0
 93 91  1  0
M  ISO  4  13 100  21 100  53 101  54 101
M  END
>  <TORSDO>  (77) 
F 18

>  <SCORE>  (77) 
-15.121

>  <name>  (77) 
76

>  <ligand_id>  (77) 
76

>  <original_smiles>  (77) 
[H]c1c([H])c([H])c2c(c1[H])C([H])([H])C([H])([H])C([H])([H])C2([H])N([H])C(=O)C1([H])N(C(=O)C([H])(N([H])C(=O)C([H])(N([H])C([H])([H])[H])C([H])([H])[H])C(C([H])([H])[H])(C([H])([H])[H])C([H])([H])[H])C([H])([H])c2c([H])c(OC(C([H])([H])[H])(C([H])([H])[H])C3([H])C([H])([H])N(c4c([H])c(N([H])C(=O)N5C([H])([H])C([H])([H])C([H])([H])C([H])(n6nc(-c7c([H])c([H])c(Oc8c([H])c([H])c(F)c([H])c8F)c([H])c7[H])c(C(=O)N([H])[H])c6N([H])[H])C5([H])[H])c([H])c([H])c4C([H])([H])[H])C([H])([H])C3([H])[H])c([H])c([H])c2C1([H])[H]

>  <smiles>  (77) 
[H]c1c([H])c([H])c2c(c1[H])C([H])([H])C([H])([H])C([H])([H])C2([H])N([H])C(=O)C1([H])N(C(=O)C([H])(N([H])C(=O)C([H])(N([H])C([H])([H])[H])C([H])([H])[H])C(C([H])([H])[H])(C([H])([H])[H])C([H])([H])[H])C([H])([H])c2c([H])c(OC(C([H])([H])[H])(C([H])([H])[H])C3([H])C([H])([H])N(c4c([H])c(N([H])C(=O)N5C([H])([H])C([H])([H])C([H])([H])C([H])(n6nc(-c7c([H])c([H])c(Oc8c([H])c([H])c(F)c([H])c8F)c([H])c7[H])c(C(=O)N([H])[H])c6N([H])[H])C5([H])[H])c([H])c([H])c4C([H])([H])[H])C([H])([H])C3([H])[H])c([H])c([H])c2C1([H])[H]

$$$$
77:0:0
     RDKit          3D

 93102  0  0  1  0  0  0  0  0999 V2000
  -29.5790  -18.1330   21.3130 C   0  0  0  0  0  3  0  0  0  0  0  0
  -30.5860  -17.9580   19.0630 C   0  0  0  0  0  3  0  0  0  0  0  0
  -29.6120  -19.5270   21.0930 C   0  0  0  0  0  0  0  0  0  0  0  0
  -30.5850  -19.3910   18.8680 C   0  0  0  0  0  0  0  0  0  0  0  0
  -30.1000  -20.1800   19.9320 C   0  0  0  0  0  0  0  0  0  0  0  0
  -30.1080  -17.3090   20.2640 C   0  0  0  0  0  0  0  0  0  0  0  0
  -29.3290  -20.8770   21.6650 C   0  0  0  0  0  2  0  0  0  0  0  0
  -31.1030  -20.0240   17.5950 C   0  0  0  0  0  1  0  0  0  0  0  0
  -29.9120  -21.5200   20.4190 N   0  0  0  0  0  0  0  0  0  0  0  0
  -30.8170  -14.8190   19.9950 C   0  0  0  0  0  0  0  0  0  0  0  0
  -30.5720  -12.5750   18.9560 C   0  0  0  0  0  2  0  0  0  0  0  0
  -29.5890  -12.7120   17.7730 C   0  0  0  0  0  2  0  0  0  0  0  0
  -28.1280  -12.5770   18.2470 C   0  0  0  0  0  2  0  0  0  0  0  0
  -27.8220  -13.4440   19.4990 C   0  0  0  0  0  3  0  0  0  0  0  0
  -28.9110  -13.2580   20.5780 C   0  0  0  0  0  2  0  0  0  0  0  0
  -30.2060  -13.5910   19.9630 N   0  0  0  0  0  0  0  0  0  0  0  0
  -31.9530  -14.9830   19.5440 O   0  0  0  0  0  0  0  0  0  0  0  0
  -30.0360  -15.8570   20.4350 N   0  0  0  0  0  0  0  0  0  0  0  0
  -29.2080  -15.5350   20.9130 H   0  0  0  0  0  0  0  0  0  0  0  0
  -25.4540  -14.0810   20.2790 C   0  0  0  0  0  0  0  0  0  0  0  0
  -24.3880  -13.3240   20.6800 C   0  0  0  0  0  0  0  0  0  0  0  0
  -24.8320  -11.9660   20.6430 C   0  0  0  0  0  0  0  0  0  0  0  0
  -26.4820  -13.1850   20.0190 N   0  0  0  0  0  0  0  0  0  0  0  0
  -26.1120  -11.9080   20.2990 N   0  0  0  0  0  0  0  0  0  0  0  0
  -24.0930  -10.7140   20.8600 C   0  0  0  0  0  0  0  0  0  0  0  0
  -24.5220   -9.7610   21.8100 C   0  0  0  0  0  3  0  0  0  0  0  0
  -23.7880   -8.5730   22.0140 C   0  0  0  0  0  3  0  0  0  0  0  0
  -22.6090   -8.3310   21.2690 C   0  0  0  0  0  0  0  0  0  0  0  0
  -22.1990   -9.2710   20.3080 C   0  0  0  0  0  3  0  0  0  0  0  0
  -22.9350  -10.4510   20.1020 C   0  0  0  0  0  3  0  0  0  0  0  0
  -21.8430   -7.1950   21.3820 O   0  0  0  0  0  0  0  0  0  0  0  0
  -21.7780   -6.4860   22.5540 C   0  0  0  0  0  0  0  0  0  0  0  0
  -21.2960   -7.0650   23.7490 C   0  0  0  0  0  3  0  0  0  0  0  0
  -21.1770   -6.2800   24.9130 C   0  0  0  0  0  3  0  0  0  0  0  0
  -21.5310   -4.9180   24.8850 C   0  0  0  0  0  0  0  0  0  0  0  0
  -22.0070   -4.3390   23.6970 C   0  0  0  0  0  3  0  0  0  0  0  0
  -22.1280   -5.1210   22.5330 C   0  0  0  0  0  0  0  0  0  0  0  0
  -22.5650   -4.5520   21.3840 F   0  0  0  0  0  0  0  0  0  0  0  0
  -21.4120   -4.1620   26.0010 F   0  0  0  0  0  0  0  0  0  0  0  0
  -23.0040  -13.8200   20.9900 C   0  0  0  0  0  0  0  0  0  0  0  0
  -22.3000  -13.1480   21.8950 N   0  0  0  0  0  0  0  0  0  0  0  0
  -22.5570  -14.8400   20.4680 O   0  0  0  0  0  0  0  0  0  0  0  0
  -22.6680  -12.3220   22.3450 H   0  0  0  0  0  0  0  0  0  0  0  0
  -21.3750  -13.4690   22.1450 H   0  0  0  0  0  0  0  0  0  0  0  0
  -25.6340  -15.4490   20.0960 N   0  0  0  0  0  0  0  0  0  0  0  0
  -24.8900  -16.1190   20.2530 H   0  0  0  0  0  0  0  0  0  0  0  0
  -26.4820  -15.8780   19.7500 H   0  0  0  0  0  0  0  0  0  0  0  0
  -29.2410  -22.6410   19.6770 C   0  0  0  0  0  2  0  0  0  0  0  0
  -29.0040  -24.1790   21.7390 C   0  0  0  0  0  1  0  0  0  0  0  0
  -30.8950  -24.5420   20.1160 C   0  0  0  0  0  1  0  0  0  0  0  0
  -29.4160  -24.1390   20.2530 C   0  0  1  0  0  0  0  0  0  0  0  0
  -28.5200  -25.2330   19.5080 C   0  0  0  0  0  2  0  0  0  0  0  0
  -28.5730  -26.6560   19.9390 O   0  0  0  0  0  0  0  0  0  0  0  0
  -24.6390  -31.8180   23.0970 C   0  0  0  0  0  0  0  0  0  0  0  0
  -27.4210  -27.4630   19.8890 C   0  0  0  0  0  0  0  0  0  0  0  0
  -23.4930  -30.4520   21.3890 C   0  0  0  0  0  3  0  0  0  0  0  0
  -25.0050  -29.0010   19.9230 C   0  0  0  0  0  0  0  0  0  0  0  0
  -26.0250  -30.8460   21.2530 C   0  0  0  0  0  2  0  0  0  0  0  0
  -26.1500  -29.4960   20.5570 C   0  0  0  0  0  0  0  0  0  0  0  0
  -27.3590  -28.7370   20.5340 C   0  0  0  0  0  3  0  0  0  0  0  0
  -26.2530  -27.0350   19.2130 C   0  0  0  0  0  3  0  0  0  0  0  0
  -25.0570  -27.7770   19.2430 C   0  0  0  0  0  3  0  0  0  0  0  0
  -23.7430  -29.8350   19.9880 C   0  0  0  0  0  2  0  0  0  0  0  0
  -24.7360  -31.0560   21.9700 N   0  0  0  0  0  0  0  0  0  0  0  0
  -23.5430  -32.0450   23.6290 O   0  0  0  0  0  0  0  0  0  0  0  0
  -22.8500  -29.3820   22.3000 C   0  0  0  0  0  0  0  0  0  0  0  0
  -21.5210  -29.2140   22.1890 N   0  0  0  0  0  0  0  0  0  0  0  0
  -23.5440  -28.7070   23.0650 O   0  0  0  0  0  0  0  0  0  0  0  0
  -21.0230  -29.8090   21.5420 H   0  0  0  0  0  0  0  0  0  0  0  0
  -18.1430  -28.0480   22.7520 C   0  0  0  0  0  0  0  0  0  0  0  0
  -20.7170  -28.2350   22.9210 C   0  0  0  0  0  3  0  0  0  0  0  0
  -20.7600  -26.8520   22.2310 C   0  0  0  0  0  2  0  0  0  0  0  0
  -19.6060  -26.6340   21.2470 C   0  0  0  0  0  2  0  0  0  0  0  0
  -18.2580  -26.7550   21.9630 C   0  0  0  0  0  2  0  0  0  0  0  0
  -19.2980  -28.7500   23.1890 C   0  0  0  0  0  0  0  0  0  0  0  0
  -19.1370  -29.9660   23.8890 C   0  0  0  0  0  3  0  0  0  0  0  0
  -17.8520  -30.4750   24.1580 C   0  0  0  0  0  3  0  0  0  0  0  0
  -16.7120  -29.7700   23.7330 C   0  0  0  0  0  3  0  0  0  0  0  0
  -16.8590  -28.5580   23.0340 C   0  0  0  0  0  3  0  0  0  0  0  0
  -25.8960  -32.4600   23.7610 C   0  0  0  0  0  3  0  0  0  0  0  0
  -26.3870  -31.6830   25.0440 C   0  0  1  0  0  0  0  0  0  0  0  0
  -25.2680  -31.4220   26.0810 C   0  0  0  0  0  1  0  0  0  0  0  0
  -26.9960  -30.3150   24.6590 C   0  0  0  0  0  1  0  0  0  0  0  0
  -27.5090  -32.4850   25.7480 C   0  0  0  0  0  1  0  0  0  0  0  0
  -25.5580  -33.8500   24.0970 N   0  0  0  0  0  0  0  0  0  0  0  0
  -25.8870  -34.9170   23.3550 C   0  0  0  0  0  0  0  0  0  0  0  0
  -26.5800  -34.8350   22.3380 O   0  0  0  0  0  0  0  0  0  0  0  0
  -24.9420  -33.9850   24.8850 H   0  0  0  0  0  0  0  0  0  0  0  0
  -24.1440  -36.6920   22.9780 C   0  0  0  0  0  1  0  0  0  0  0  0
  -25.3680  -36.2920   23.8170 C   0  0  0  0  0  3  0  0  0  0  0  0
  -27.4570  -37.2070   24.7270 C   0  0  0  0  0  1  0  0  0  0  0  0
  -26.3880  -37.3630   23.7440 N   0  0  0  0  0  0  0  0  0  0  0  0
  -25.9640  -38.2760   23.8800 H   0  0  0  0  0  0  0  0  0  0  0  0
  2  6  1  0
  3  1  1  0
  3  7  1  0
  4  2  2  0
  4  5  1  0
  5  9  1  0
  5  3  2  0
  6 18  1  0
  6  1  2  0
  8  4  1  0
  9  7  1  0
 10 18  1  0
 11 16  1  0
 12 13  1  0
 12 11  1  0
 14 13  1  0
 14 23  1  0
 14 15  1  0
 16 10  1  0
 16 15  1  0
 17 10  2  0
 18 19  1  0
 20 21  2  0
 21 40  1  0
 22 21  1  0
 22 25  1  0
 23 20  1  0
 23 24  1  0
 24 22  2  0
 25 26  1  0
 26 27  2  0
 28 31  1  0
 28 27  1  0
 29 28  2  0
 30 29  1  0
 30 25  2  0
 31 32  1  0
 32 33  1  0
 33 34  2  0
 35 34  1  0
 35 39  1  0
 36 35  2  0
 37 32  2  0
 37 36  1  0
 38 37  1  0
 40 41  1  0
 41 44  1  0
 41 43  1  0
 42 40  2  0
 45 46  1  0
 45 20  1  0
 47 45  1  0
 48 51  1  0
 48  9  1  0
 51 50  1  1
 51 49  1  0
 52 53  1  0
 52 51  1  0
 54 65  2  0
 55 53  1  0
 55 60  1  0
 56 64  1  0
 56 66  1  0
 57 63  1  0
 57 59  1  0
 58 64  1  0
 59 58  1  0
 60 59  2  0
 61 62  1  0
 61 55  2  0
 62 57  2  0
 63 56  1  0
 64 54  1  0
 66 68  2  0
 67 66  1  0
 69 67  1  0
 70 79  2  0
 70 75  1  0
 71 67  1  0
 71 75  1  0
 72 71  1  0
 73 74  1  0
 73 72  1  0
 74 70  1  0
 75 76  2  0
 76 77  1  0
 78 77  2  0
 79 78  1  0
 80 54  1  0
 80 85  1  0
 80 81  1  0
 81 84  1  1
 81 82  1  0
 83 81  1  0
 85 88  1  0
 86 90  1  0
 86 85  1  0
 87 86  2  0
 90 89  1  0
 92 90  1  0
 92 93  1  0
 92 91  1  0
M  ISO  4  10 100  18 100  52 101  53 101
M  END
>  <TORSDO>  (78) 
F 19

>  <SCORE>  (78) 
-13.638

>  <name>  (78) 
77

>  <ligand_id>  (78) 
77

>  <original_smiles>  (78) 
[H]c1c([H])c([H])c2c(c1[H])C([H])([H])C([H])([H])C([H])([H])C2([H])N([H])C(=O)C1([H])N(C(=O)C([H])(N([H])C(=O)C([H])(N([H])C([H])([H])[H])C([H])([H])[H])C(C([H])([H])[H])(C([H])([H])[H])C([H])([H])[H])C([H])([H])c2c([H])c(OC([H])([H])C(C([H])([H])[H])(C([H])([H])[H])C([H])([H])N3c4c(C([H])([H])[H])c([H])c(N([H])C(=O)N5C([H])([H])C([H])([H])C([H])([H])C([H])(n6nc(-c7c([H])c([H])c(Oc8c([H])c([H])c(F)c([H])c8F)c([H])c7[H])c(C(=O)N([H])[H])c6N([H])[H])C5([H])[H])c([H])c4C3([H])[H])c([H])c([H])c2C1([H])[H]

>  <smiles>  (78) 
[H]c1c([H])c([H])c2c(c1[H])C([H])([H])C([H])([H])C([H])([H])C2([H])N([H])C(=O)C1([H])N(C(=O)C([H])(N([H])C(=O)C([H])(N([H])C([H])([H])[H])C([H])([H])[H])C(C([H])([H])[H])(C([H])([H])[H])C([H])([H])[H])C([H])([H])c2c([H])c(OC([H])([H])C(C([H])([H])[H])(C([H])([H])[H])C([H])([H])N3c4c(C([H])([H])[H])c([H])c(N([H])C(=O)N5C([H])([H])C([H])([H])C([H])([H])C([H])(n6nc(-c7c([H])c([H])c(Oc8c([H])c([H])c(F)c([H])c8F)c([H])c7[H])c(C(=O)N([H])[H])c6N([H])[H])C5([H])[H])c([H])c4C3([H])[H])c([H])c([H])c2C1([H])[H]

$$$$
78:0:0
     RDKit          3D

 92101  0  0  1  0  0  0  0  0999 V2000
  -30.7450  -22.2810   19.5870 C   0  0  0  0  0  2  0  0  0  0  0  0
  -30.2940  -23.7540   19.4890 C   0  0  0  0  0  2  0  0  0  0  0  0
  -28.4650  -22.4170   20.3630 C   0  0  0  0  0  2  0  0  0  0  0  0
  -29.4490  -21.4600   19.6010 C   0  0  0  0  0  3  0  0  0  0  0  0
  -29.0480  -23.8990   20.3860 C   0  0  1  0  0  0  0  0  0  0  0  0
  -29.4570  -24.2470   21.8290 C   0  0  0  0  0  1  0  0  0  0  0  0
  -28.6580  -19.2180   20.7530 C   0  0  0  0  0  3  0  0  0  0  0  0
  -30.6950  -19.1780   19.4780 C   0  0  0  0  0  3  0  0  0  0  0  0
  -28.7860  -17.8160   20.9760 C   0  0  0  0  0  3  0  0  0  0  0  0
  -30.8250  -17.7760   19.6990 C   0  0  0  0  0  3  0  0  0  0  0  0
  -29.6090  -19.9410   19.9870 C   0  0  0  0  0  0  0  0  0  0  0  0
  -29.8590  -17.0510   20.4430 C   0  0  0  0  0  0  0  0  0  0  0  0
  -30.6140  -14.5940   20.1160 C   0  0  0  0  0  0  0  0  0  0  0  0
  -30.3240  -12.3960   18.9910 C   0  0  0  0  0  2  0  0  0  0  0  0
  -29.3270  -12.5950   17.8280 C   0  0  0  0  0  2  0  0  0  0  0  0
  -27.8720  -12.4480   18.3200 C   0  0  0  0  0  2  0  0  0  0  0  0
  -27.5900  -13.2660   19.6100 C   0  0  0  0  0  3  0  0  0  0  0  0
  -28.6970  -13.0380   20.6640 C   0  0  0  0  0  2  0  0  0  0  0  0
  -29.9870  -13.3780   20.0410 N   0  0  0  0  0  0  0  0  0  0  0  0
  -31.7350  -14.7710   19.6310 O   0  0  0  0  0  0  0  0  0  0  0  0
  -29.8670  -15.6060   20.6530 N   0  0  0  0  0  0  0  0  0  0  0  0
  -29.0520  -15.2560   21.1350 H   0  0  0  0  0  0  0  0  0  0  0  0
  -25.2400  -13.8760   20.4570 C   0  0  0  0  0  0  0  0  0  0  0  0
  -24.1840  -13.1060   20.8610 C   0  0  0  0  0  0  0  0  0  0  0  0
  -24.6280  -11.7510   20.7740 C   0  0  0  0  0  0  0  0  0  0  0  0
  -26.2620  -12.9900   20.1490 N   0  0  0  0  0  0  0  0  0  0  0  0
  -25.9000  -11.7050   20.4000 N   0  0  0  0  0  0  0  0  0  0  0  0
  -23.8970  -10.4910   20.9720 C   0  0  0  0  0  0  0  0  0  0  0  0
  -24.3350   -9.5200   21.8990 C   0  0  0  0  0  3  0  0  0  0  0  0
  -23.6040   -8.3260   22.0840 C   0  0  0  0  0  3  0  0  0  0  0  0
  -22.4220   -8.0960   21.3400 C   0  0  0  0  0  0  0  0  0  0  0  0
  -22.0030   -9.0560   20.4020 C   0  0  0  0  0  3  0  0  0  0  0  0
  -22.7340  -10.2410   20.2150 C   0  0  0  0  0  3  0  0  0  0  0  0
  -21.6650   -6.9520   21.4310 O   0  0  0  0  0  0  0  0  0  0  0  0
  -21.5870   -6.2320   22.5960 C   0  0  0  0  0  0  0  0  0  0  0  0
  -21.1130   -6.8060   23.7960 C   0  0  0  0  0  3  0  0  0  0  0  0
  -20.9830   -6.0120   24.9530 C   0  0  0  0  0  3  0  0  0  0  0  0
  -21.3170   -4.6450   24.9120 C   0  0  0  0  0  0  0  0  0  0  0  0
  -21.7860   -4.0700   23.7170 C   0  0  0  0  0  3  0  0  0  0  0  0
  -21.9180   -4.8610   22.5610 C   0  0  0  0  0  0  0  0  0  0  0  0
  -22.3480   -4.2980   21.4060 F   0  0  0  0  0  0  0  0  0  0  0  0
  -21.1850   -3.8820   26.0200 F   0  0  0  0  0  0  0  0  0  0  0  0
  -22.8080  -13.5910   21.2150 C   0  0  0  0  0  0  0  0  0  0  0  0
  -22.1120  -12.8830   22.0960 N   0  0  0  0  0  0  0  0  0  0  0  0
  -22.3580  -14.6350   20.7450 O   0  0  0  0  0  0  0  0  0  0  0  0
  -22.4860  -12.0360   22.5000 H   0  0  0  0  0  0  0  0  0  0  0  0
  -21.1930  -13.1930   22.3750 H   0  0  0  0  0  0  0  0  0  0  0  0
  -25.4120  -15.2500   20.3050 N   0  0  0  0  0  0  0  0  0  0  0  0
  -24.6550  -15.9080   20.4540 H   0  0  0  0  0  0  0  0  0  0  0  0
  -26.2430  -15.6850   19.9220 H   0  0  0  0  0  0  0  0  0  0  0  0
  -28.0470  -25.0250   19.8820 C   0  0  0  0  0  2  0  0  0  0  0  0
  -28.3190  -26.4630   20.1080 O   0  0  0  0  0  0  0  0  0  0  0  0
  -24.6130  -31.8430   23.1820 C   0  0  0  0  0  0  0  0  0  0  0  0
  -27.2100  -27.3240   20.0640 C   0  0  0  0  0  0  0  0  0  0  0  0
  -23.4050  -30.4600   21.5350 C   0  0  0  0  0  3  0  0  0  0  0  0
  -24.8470  -28.9340   20.0870 C   0  0  0  0  0  0  0  0  0  0  0  0
  -25.9430  -30.7800   21.3500 C   0  0  0  0  0  2  0  0  0  0  0  0
  -26.0200  -29.4120   20.6870 C   0  0  0  0  0  0  0  0  0  0  0  0
  -27.2040  -28.6160   20.6730 C   0  0  0  0  0  3  0  0  0  0  0  0
  -26.0140  -26.9090   19.4300 C   0  0  0  0  0  3  0  0  0  0  0  0
  -24.8450  -27.6870   19.4510 C   0  0  0  0  0  3  0  0  0  0  0  0
  -23.6120  -29.8070   20.1460 C   0  0  0  0  0  2  0  0  0  0  0  0
  -24.6730  -31.0440   22.0790 N   0  0  0  0  0  0  0  0  0  0  0  0
  -23.5320  -32.1160   23.7230 O   0  0  0  0  0  0  0  0  0  0  0  0
  -22.7470  -29.4300   22.4840 C   0  0  0  0  0  0  0  0  0  0  0  0
  -21.4200  -29.2620   22.3680 N   0  0  0  0  0  0  0  0  0  0  0  0
  -23.4310  -28.7860   23.2850 O   0  0  0  0  0  0  0  0  0  0  0  0
  -20.9270  -29.8320   21.6950 H   0  0  0  0  0  0  0  0  0  0  0  0
  -18.0370  -28.1030   22.9050 C   0  0  0  0  0  0  0  0  0  0  0  0
  -20.6020  -28.3210   23.1370 C   0  0  0  0  0  3  0  0  0  0  0  0
  -20.6750  -26.8990   22.5330 C   0  0  0  0  0  2  0  0  0  0  0  0
  -19.5520  -26.6100   21.5330 C   0  0  0  0  0  2  0  0  0  0  0  0
  -18.1830  -26.7640   22.2030 C   0  0  0  0  0  2  0  0  0  0  0  0
  -19.1740  -28.8420   23.3300 C   0  0  0  0  0  0  0  0  0  0  0  0
  -18.9820  -30.0970   23.9460 C   0  0  0  0  0  3  0  0  0  0  0  0
  -17.6870  -30.6120   24.1450 C   0  0  0  0  0  3  0  0  0  0  0  0
  -16.5660  -29.8700   23.7350 C   0  0  0  0  0  3  0  0  0  0  0  0
  -16.7410  -28.6170   23.1220 C   0  0  0  0  0  3  0  0  0  0  0  0
  -25.8990  -32.4710   23.8020 C   0  0  0  0  0  3  0  0  0  0  0  0
  -25.5880  -33.8630   24.1510 N   0  0  0  0  0  0  0  0  0  0  0  0
  -25.9050  -34.9260   23.4000 C   0  0  0  0  0  0  0  0  0  0  0  0
  -26.5600  -34.8380   22.3600 O   0  0  0  0  0  0  0  0  0  0  0  0
  -25.0020  -34.0060   24.9630 H   0  0  0  0  0  0  0  0  0  0  0  0
  -24.1650  -36.7170   23.0850 C   0  0  0  0  0  1  0  0  0  0  0  0
  -25.4150  -36.3070   23.8790 C   0  0  0  0  0  3  0  0  0  0  0  0
  -27.5540  -37.1940   24.7000 C   0  0  0  0  0  1  0  0  0  0  0  0
  -26.4420  -37.3660   23.7680 N   0  0  0  0  0  0  0  0  0  0  0  0
  -26.0330  -38.2810   23.9290 H   0  0  0  0  0  0  0  0  0  0  0  0
  -26.4240  -31.6840   25.0660 C   0  0  1  0  0  0  0  0  0  0  0  0
  -25.3380  -31.4330   26.1370 C   0  0  0  0  0  1  0  0  0  0  0  0
  -27.0060  -30.3100   24.6550 C   0  0  0  0  0  1  0  0  0  0  0  0
  -27.5750  -32.4730   25.7320 C   0  0  0  0  0  1  0  0  0  0  0  0
  1  4  1  0
  2  1  1  0
  2  5  1  0
  3  5  1  0
  4 11  1  0
  4  3  1  0
  5  6  1  1
  7  9  1  0
  8 10  2  0
  8 11  1  0
 10 12  1  0
 11  7  2  0
 12 21  1  0
 12  9  2  0
 13 21  1  0
 14 19  1  0
 15 16  1  0
 15 14  1  0
 17 16  1  0
 17 26  1  0
 17 18  1  0
 19 13  1  0
 19 18  1  0
 20 13  2  0
 21 22  1  0
 23 24  2  0
 24 43  1  0
 25 24  1  0
 25 28  1  0
 26 27  1  0
 26 23  1  0
 27 25  2  0
 28 29  1  0
 29 30  2  0
 31 34  1  0
 31 30  1  0
 32 31  2  0
 33 32  1  0
 33 28  2  0
 34 35  1  0
 35 36  1  0
 36 37  2  0
 38 37  1  0
 38 42  1  0
 39 38  2  0
 40 35  2  0
 40 39  1  0
 41 40  1  0
 43 44  1  0
 44 47  1  0
 44 46  1  0
 45 43  2  0
 48 49  1  0
 48 23  1  0
 50 48  1  0
 51 52  1  0
 51  5  1  0
 53 64  2  0
 54 52  1  0
 54 59  1  0
 55 63  1  0
 55 65  1  0
 56 62  1  0
 56 58  1  0
 57 63  1  0
 58 57  1  0
 59 58  2  0
 60 61  1  0
 60 54  2  0
 61 56  2  0
 62 55  1  0
 63 53  1  0
 65 67  2  0
 66 65  1  0
 68 66  1  0
 69 78  2  0
 69 74  1  0
 70 66  1  0
 70 74  1  0
 71 70  1  0
 72 73  1  0
 72 71  1  0
 73 69  1  0
 74 75  2  0
 75 76  1  0
 77 76  2  0
 78 77  1  0
 79 53  1  0
 79 80  1  0
 79 89  1  0
 80 83  1  0
 81 85  1  0
 81 80  1  0
 82 81  2  0
 85 84  1  0
 87 85  1  0
 87 88  1  0
 87 86  1  0
 89 92  1  1
 89 90  1  0
 91 89  1  0
M  ISO  4  13 100  21 100  51 101  52 101
M  END
>  <TORSDO>  (79) 
F 18

>  <SCORE>  (79) 
-14.345

>  <name>  (79) 
78

>  <ligand_id>  (79) 
78

>  <original_smiles>  (79) 
[H]c1c([H])c([H])c2c(c1[H])C([H])([H])C([H])([H])C([H])([H])C2([H])N([H])C(=O)C1([H])N(C(=O)C([H])(N([H])C(=O)C([H])(N([H])C([H])([H])[H])C([H])([H])[H])C(C([H])([H])[H])(C([H])([H])[H])C([H])([H])[H])C([H])([H])c2c([H])c(OC([H])([H])C3(C([H])([H])[H])C([H])([H])C([H])([H])C([H])(c4c([H])c([H])c(N([H])C(=O)N5C([H])([H])C([H])([H])C([H])([H])C([H])(n6nc(-c7c([H])c([H])c(Oc8c([H])c([H])c(F)c([H])c8F)c([H])c7[H])c(C(=O)N([H])[H])c6N([H])[H])C5([H])[H])c([H])c4[H])C3([H])[H])c([H])c([H])c2C1([H])[H]

>  <smiles>  (79) 
[H]c1c([H])c([H])c2c(c1[H])C([H])([H])C([H])([H])C([H])([H])C2([H])N([H])C(=O)C1([H])N(C(=O)C([H])(N([H])C(=O)C([H])(N([H])C([H])([H])[H])C([H])([H])[H])C(C([H])([H])[H])(C([H])([H])[H])C([H])([H])[H])C([H])([H])c2c([H])c(OC([H])([H])C3(C([H])([H])[H])C([H])([H])C([H])([H])C([H])(c4c([H])c([H])c(N([H])C(=O)N5C([H])([H])C([H])([H])C([H])([H])C([H])(n6nc(-c7c([H])c([H])c(Oc8c([H])c([H])c(F)c([H])c8F)c([H])c7[H])c(C(=O)N([H])[H])c6N([H])[H])C5([H])[H])c([H])c4[H])C3([H])[H])c([H])c([H])c2C1([H])[H]

$$$$
79:0:0
     RDKit          3D

 91 99  0  0  1  0  0  0  0  0999 V2000
  -29.5670  -21.0390   20.3020 C   0  0  0  0  0  3  0  0  0  0  0  0
  -29.0010  -19.4910   18.3300 C   0  0  0  0  0  1  0  0  0  0  0  0
  -27.6170  -19.3960   20.3810 C   0  0  0  0  0  1  0  0  0  0  0  0
  -29.0640  -19.5500   19.8770 C   0  0  2  0  0  0  0  0  0  0  0  0
  -30.7470  -14.6690   19.8370 C   0  0  0  0  0  0  0  0  0  0  0  0
  -30.3450  -12.4680   18.7590 C   0  0  0  0  0  2  0  0  0  0  0  0
  -29.3010  -12.6300   17.6400 C   0  0  0  0  0  2  0  0  0  0  0  0
  -27.8740  -12.4630   18.1950 C   0  0  0  0  0  2  0  0  0  0  0  0
  -27.6300  -13.3260   19.4560 C   0  0  0  0  0  3  0  0  0  0  0  0
  -28.7810  -13.1570   20.4750 C   0  0  0  0  0  2  0  0  0  0  0  0
  -30.0460  -13.4840   19.7950 N   0  0  0  0  0  0  0  0  0  0  0  0
  -31.8130  -14.7830   19.2280 O   0  0  0  0  0  0  0  0  0  0  0  0
  -30.4350  -18.3540   21.7740 C   0  0  0  0  0  3  0  0  0  0  0  0
  -30.8320  -17.2640   22.4510 C   0  0  0  0  0  3  0  0  0  0  0  0
  -29.8390  -16.9990   19.8810 C   0  0  0  0  0  2  0  0  0  0  0  0
  -29.8340  -18.2670   20.4530 C   0  0  0  0  0  0  0  0  0  0  0  0
  -30.7290  -15.8500   21.9110 C   0  0  0  0  0  3  0  0  0  0  0  0
  -30.2390  -15.7580   20.5230 N   0  0  0  0  0  0  0  0  0  0  0  0
  -25.3160  -13.9430   20.3920 C   0  0  0  0  0  0  0  0  0  0  0  0
  -24.2700  -13.1800   20.8300 C   0  0  0  0  0  0  0  0  0  0  0  0
  -24.6990  -11.8210   20.7230 C   0  0  0  0  0  0  0  0  0  0  0  0
  -26.3200  -13.0520   20.0450 N   0  0  0  0  0  0  0  0  0  0  0  0
  -25.9590  -11.7690   20.3060 N   0  0  0  0  0  0  0  0  0  0  0  0
  -23.9610  -10.5670   20.9320 C   0  0  0  0  0  0  0  0  0  0  0  0
  -24.4230   -9.5770   21.8280 C   0  0  0  0  0  3  0  0  0  0  0  0
  -23.6860   -8.3900   22.0280 C   0  0  0  0  0  3  0  0  0  0  0  0
  -22.4710   -8.1850   21.3330 C   0  0  0  0  0  0  0  0  0  0  0  0
  -22.0280   -9.1600   20.4220 C   0  0  0  0  0  3  0  0  0  0  0  0
  -22.7660  -10.3390   20.2210 C   0  0  0  0  0  3  0  0  0  0  0  0
  -21.7020   -7.0530   21.4440 O   0  0  0  0  0  0  0  0  0  0  0  0
  -21.6610   -6.3240   22.6060 C   0  0  0  0  0  0  0  0  0  0  0  0
  -21.2750   -6.9010   23.8350 C   0  0  0  0  0  3  0  0  0  0  0  0
  -21.1790   -6.1000   24.9900 C   0  0  0  0  0  3  0  0  0  0  0  0
  -21.4560   -4.7200   24.9160 C   0  0  0  0  0  0  0  0  0  0  0  0
  -21.8330   -4.1440   23.6900 C   0  0  0  0  0  3  0  0  0  0  0  0
  -21.9320   -4.9430   22.5380 C   0  0  0  0  0  0  0  0  0  0  0  0
  -22.2780   -4.3780   21.3560 F   0  0  0  0  0  0  0  0  0  0  0  0
  -21.3560   -3.9470   26.0200 F   0  0  0  0  0  0  0  0  0  0  0  0
  -22.9090  -13.6760   21.2370 C   0  0  0  0  0  0  0  0  0  0  0  0
  -22.2470  -12.9830   22.1540 N   0  0  0  0  0  0  0  0  0  0  0  0
  -22.4470  -14.7190   20.7720 O   0  0  0  0  0  0  0  0  0  0  0  0
  -22.6320  -12.1420   22.5590 H   0  0  0  0  0  0  0  0  0  0  0  0
  -21.3410  -13.3050   22.4620 H   0  0  0  0  0  0  0  0  0  0  0  0
  -25.4870  -15.3170   20.2330 N   0  0  0  0  0  0  0  0  0  0  0  0
  -24.7380  -15.9750   20.4280 H   0  0  0  0  0  0  0  0  0  0  0  0
  -26.2990  -15.7610   19.8230 H   0  0  0  0  0  0  0  0  0  0  0  0
  -28.5960  -22.3100   20.0510 C   0  0  0  0  0  3  0  0  0  0  0  0
  -29.0310  -23.8160   20.3480 C   0  0  0  0  0  0  0  0  0  0  0  0
  -30.0470  -24.0570   21.0070 O   0  0  0  0  0  0  0  0  0  0  0  0
  -28.1150  -24.9930   19.7930 C   0  0  0  0  0  2  0  0  0  0  0  0
  -28.3130  -26.4050   20.2620 O   0  0  0  0  0  0  0  0  0  0  0  0
  -24.5730  -31.8780   23.2410 C   0  0  0  0  0  0  0  0  0  0  0  0
  -27.2030  -27.2830   20.2000 C   0  0  0  0  0  0  0  0  0  0  0  0
  -23.3740  -30.4640   21.6170 C   0  0  0  0  0  3  0  0  0  0  0  0
  -24.8310  -28.9110   20.2000 C   0  0  0  0  0  0  0  0  0  0  0  0
  -25.9160  -30.7840   21.4270 C   0  0  0  0  0  2  0  0  0  0  0  0
  -26.0040  -29.4000   20.7880 C   0  0  0  0  0  0  0  0  0  0  0  0
  -27.1880  -28.5950   20.7860 C   0  0  0  0  0  3  0  0  0  0  0  0
  -26.0000  -26.8670   19.5770 C   0  0  0  0  0  3  0  0  0  0  0  0
  -24.8320  -27.6470   19.5950 C   0  0  0  0  0  3  0  0  0  0  0  0
  -23.5890  -29.7790   20.2440 C   0  0  0  0  0  2  0  0  0  0  0  0
  -24.6420  -31.0580   22.1520 N   0  0  0  0  0  0  0  0  0  0  0  0
  -23.4880  -32.1560   23.7710 O   0  0  0  0  0  0  0  0  0  0  0  0
  -22.7180  -29.4490   22.5830 C   0  0  0  0  0  0  0  0  0  0  0  0
  -21.3920  -29.2650   22.4550 N   0  0  0  0  0  0  0  0  0  0  0  0
  -23.4010  -28.8330   23.4070 O   0  0  0  0  0  0  0  0  0  0  0  0
  -20.9010  -29.8010   21.7530 H   0  0  0  0  0  0  0  0  0  0  0  0
  -18.0180  -28.0690   22.9700 C   0  0  0  0  0  0  0  0  0  0  0  0
  -20.5760  -28.3320   23.2330 C   0  0  0  0  0  3  0  0  0  0  0  0
  -20.6800  -26.9000   22.6590 C   0  0  0  0  0  2  0  0  0  0  0  0
  -19.5730  -26.5750   21.6480 C   0  0  0  0  0  2  0  0  0  0  0  0
  -18.1920  -26.7200   22.2940 C   0  0  0  0  0  2  0  0  0  0  0  0
  -19.1370  -28.8350   23.3940 C   0  0  0  0  0  0  0  0  0  0  0  0
  -18.9160  -30.1010   23.9820 C   0  0  0  0  0  3  0  0  0  0  0  0
  -17.6110  -30.6010   24.1480 C   0  0  0  0  0  3  0  0  0  0  0  0
  -16.5060  -29.8320   23.7410 C   0  0  0  0  0  3  0  0  0  0  0  0
  -16.7110  -28.5670   23.1600 C   0  0  0  0  0  3  0  0  0  0  0  0
  -25.8520  -32.5190   23.8590 C   0  0  0  0  0  3  0  0  0  0  0  0
  -26.3610  -31.7660   25.1480 C   0  0  1  0  0  0  0  0  0  0  0  0
  -25.2600  -31.5400   26.2110 C   0  0  0  0  0  1  0  0  0  0  0  0
  -26.9410  -30.3800   24.7780 C   0  0  0  0  0  1  0  0  0  0  0  0
  -27.5130  -32.5650   25.8020 C   0  0  0  0  0  1  0  0  0  0  0  0
  -25.5420  -33.9220   24.1700 N   0  0  0  0  0  0  0  0  0  0  0  0
  -25.8730  -34.9650   23.3950 C   0  0  0  0  0  0  0  0  0  0  0  0
  -26.5360  -34.8450   22.3610 O   0  0  0  0  0  0  0  0  0  0  0  0
  -24.9530  -34.0880   24.9710 H   0  0  0  0  0  0  0  0  0  0  0  0
  -24.1300  -36.7390   23.0280 C   0  0  0  0  0  1  0  0  0  0  0  0
  -25.3830  -36.3580   23.8340 C   0  0  0  0  0  3  0  0  0  0  0  0
  -27.5230  -37.2630   24.6250 C   0  0  0  0  0  1  0  0  0  0  0  0
  -26.4080  -37.4160   23.6920 N   0  0  0  0  0  0  0  0  0  0  0  0
  -26.0000  -38.3350   23.8320 H   0  0  0  0  0  0  0  0  0  0  0  0
  4  2  1  6
  4  1  1  0
  4  3  1  0
  4 16  1  0
  5 18  1  0
  6 11  1  0
  7  8  1  0
  7  6  1  0
  9  8  1  0
  9 22  1  0
  9 10  1  0
 11  5  1  0
 11 10  1  0
 12  5  2  0
 13 14  1  0
 15 16  1  0
 15 18  1  0
 16 13  2  0
 17 14  2  0
 18 17  1  0
 19 20  2  0
 20 39  1  0
 21 20  1  0
 21 24  1  0
 22 23  1  0
 22 19  1  0
 23 21  2  0
 24 25  1  0
 25 26  2  0
 27 30  1  0
 27 26  1  0
 28 27  2  0
 29 28  1  0
 29 24  2  0
 30 31  1  0
 31 32  1  0
 32 33  2  0
 34 33  1  0
 34 38  1  0
 35 34  2  0
 36 31  2  0
 36 35  1  0
 37 36  1  0
 39 40  1  0
 40 43  1  0
 40 42  1  0
 41 39  2  0
 44 19  1  0
 44 45  1  0
 46 44  1  0
 47  1  2  0
 47 48  1  0
 48 49  2  0
 50 51  1  0
 50 48  1  0
 52 63  2  0
 53 51  1  0
 53 58  1  0
 54 62  1  0
 54 64  1  0
 55 61  1  0
 55 57  1  0
 56 62  1  0
 57 56  1  0
 58 57  2  0
 59 60  1  0
 59 53  2  0
 60 55  2  0
 61 54  1  0
 62 52  1  0
 64 66  2  0
 65 64  1  0
 67 65  1  0
 68 77  2  0
 68 73  1  0
 69 65  1  0
 69 73  1  0
 70 69  1  0
 71 72  1  0
 71 70  1  0
 72 68  1  0
 73 74  2  0
 74 75  1  0
 76 75  2  0
 77 76  1  0
 78 52  1  0
 78 83  1  0
 78 79  1  0
 79 82  1  1
 79 80  1  0
 81 79  1  0
 83 86  1  0
 84 88  1  0
 84 83  1  0
 85 84  2  0
 88 87  1  0
 90 91  1  0
 90 88  1  0
 90 89  1  0
M  ISO  4   5 100  18 100  50 101  51 101
M  END
>  <TORSDO>  (80) 
F 20

>  <SCORE>  (80) 
-13.354

>  <name>  (80) 
79

>  <ligand_id>  (80) 
79

>  <original_smiles>  (80) 
[H]C1=C([H])C([H])([H])N(C(=O)N2C([H])([H])C([H])([H])C([H])([H])C([H])(n3nc(-c4c([H])c([H])c(Oc5c([H])c([H])c(F)c([H])c5F)c([H])c4[H])c(C(=O)N([H])[H])c3N([H])[H])C2([H])[H])C([H])=C1C(C([H])([H])[H])(C([H])([H])[H])C([H])([H])C([H])([H])C(=O)C([H])([H])Oc1c([H])c([H])c2c(c1[H])C([H])([H])N(C(=O)C([H])(N([H])C(=O)C([H])(N([H])C([H])([H])[H])C([H])([H])[H])C(C([H])([H])[H])(C([H])([H])[H])C([H])([H])[H])C([H])(C(=O)N([H])C1([H])c3c([H])c([H])c([H])c([H])c3C([H])([H])C([H])([H])C1([H])[H])C2([H])[H]

>  <smiles>  (80) 
[H]C1=C([H])C([H])([H])N(C(=O)N2C([H])([H])C([H])([H])C([H])([H])C([H])(n3nc(-c4c([H])c([H])c(Oc5c([H])c([H])c(F)c([H])c5F)c([H])c4[H])c(C(=O)N([H])[H])c3N([H])[H])C2([H])[H])C([H])=C1C(C([H])([H])[H])(C([H])([H])[H])C([H])([H])C([H])([H])C(=O)C([H])([H])Oc1c([H])c([H])c2c(c1[H])C([H])([H])N(C(=O)C([H])(N([H])C(=O)C([H])(N([H])C([H])([H])[H])C([H])([H])[H])C(C([H])([H])[H])(C([H])([H])[H])C([H])([H])[H])C([H])(C(=O)N([H])C1([H])c3c([H])c([H])c([H])c([H])c3C([H])([H])C([H])([H])C1([H])[H])C2([H])[H]

$$$$
80:0:0
     RDKit          3D

 98107  0  0  1  0  0  0  0  0999 V2000
  -31.2550  -21.0870   21.4680 C   0  0  0  0  0  3  0  0  0  0  0  0
  -29.9370  -24.5710   21.4570 C   0  0  0  0  0  2  0  0  0  0  0  0
  -30.9450  -23.5210   21.9270 C   0  0  0  0  0  2  0  0  0  0  0  0
  -29.6530  -22.6080   20.1130 C   0  0  0  0  0  2  0  0  0  0  0  0
  -29.6700  -24.1730   20.0110 C   0  0  0  0  0  3  0  0  0  0  0  0
  -30.6450  -22.2780   21.1720 N   0  0  0  0  0  0  0  0  0  0  0  0
  -32.2200  -21.1180   22.3880 N   0  0  0  0  0  0  0  0  0  0  0  0
  -32.6580  -20.2480   22.6530 H   0  0  0  0  0  0  0  0  0  0  0  0
  -32.5200  -21.9650   22.8380 H   0  0  0  0  0  0  0  0  0  0  0  0
  -32.0370  -18.7770   20.9180 C   0  0  0  0  0  3  0  0  0  0  0  0
  -31.7750  -17.3980   20.7530 C   0  0  0  0  0  3  0  0  0  0  0  0
  -29.6800  -19.2590   20.7050 C   0  0  0  0  0  3  0  0  0  0  0  0
  -30.9930  -19.7270   20.9310 C   0  0  0  0  0  0  0  0  0  0  0  0
  -29.3860  -17.8640   20.5620 C   0  0  0  0  0  0  0  0  0  0  0  0
  -30.4510  -16.8970   20.6230 C   0  0  0  0  0  0  0  0  0  0  0  0
  -30.8420  -14.4270   19.9990 C   0  0  0  0  0  0  0  0  0  0  0  0
  -30.4210  -12.2760   18.8500 C   0  0  0  0  0  2  0  0  0  0  0  0
  -29.4310  -12.5260   17.6910 C   0  0  0  0  0  2  0  0  0  0  0  0
  -27.9730  -12.4430   18.1870 C   0  0  0  0  0  2  0  0  0  0  0  0
  -27.7290  -13.2730   19.4760 C   0  0  0  0  0  3  0  0  0  0  0  0
  -28.8270  -12.9920   20.5280 C   0  0  0  0  0  2  0  0  0  0  0  0
  -30.1320  -13.2660   19.9020 N   0  0  0  0  0  0  0  0  0  0  0  0
  -31.9650  -14.5430   19.5000 O   0  0  0  0  0  0  0  0  0  0  0  0
  -30.1730  -15.4710   20.5500 N   0  0  0  0  0  0  0  0  0  0  0  0
  -29.2970  -15.2050   20.9800 H   0  0  0  0  0  0  0  0  0  0  0  0
  -25.3940  -13.9720   20.3010 C   0  0  0  0  0  0  0  0  0  0  0  0
  -24.3090  -13.2410   20.7040 C   0  0  0  0  0  0  0  0  0  0  0  0
  -24.7080  -11.8710   20.6340 C   0  0  0  0  0  0  0  0  0  0  0  0
  -26.3890  -13.0500   20.0130 N   0  0  0  0  0  0  0  0  0  0  0  0
  -25.9810  -11.7800   20.2700 N   0  0  0  0  0  0  0  0  0  0  0  0
  -23.9350  -10.6400   20.8380 C   0  0  0  0  0  0  0  0  0  0  0  0
  -24.3330   -9.6670   21.7820 C   0  0  0  0  0  3  0  0  0  0  0  0
  -23.5620   -8.4990   21.9740 C   0  0  0  0  0  3  0  0  0  0  0  0
  -22.3800   -8.2980   21.2220 C   0  0  0  0  0  0  0  0  0  0  0  0
  -22.0020   -9.2590   20.2680 C   0  0  0  0  0  3  0  0  0  0  0  0
  -22.7720  -10.4170   20.0730 C   0  0  0  0  0  3  0  0  0  0  0  0
  -21.5840   -7.1830   21.3230 O   0  0  0  0  0  0  0  0  0  0  0  0
  -21.4450   -6.5010   22.5050 C   0  0  0  0  0  0  0  0  0  0  0  0
  -20.9970   -7.1360   23.6840 C   0  0  0  0  0  3  0  0  0  0  0  0
  -20.8020   -6.3820   24.8580 C   0  0  0  0  0  3  0  0  0  0  0  0
  -21.0470   -4.9970   24.8550 C   0  0  0  0  0  0  0  0  0  0  0  0
  -21.4900   -4.3620   23.6810 C   0  0  0  0  0  3  0  0  0  0  0  0
  -21.6850   -5.1130   22.5090 C   0  0  0  0  0  0  0  0  0  0  0  0
  -22.0910   -4.4930   21.3750 F   0  0  0  0  0  0  0  0  0  0  0  0
  -20.8530   -4.2710   25.9810 F   0  0  0  0  0  0  0  0  0  0  0  0
  -22.9490  -13.7760   21.0470 C   0  0  0  0  0  0  0  0  0  0  0  0
  -22.2400  -13.1120   21.9550 N   0  0  0  0  0  0  0  0  0  0  0  0
  -22.5250  -14.8160   20.5450 O   0  0  0  0  0  0  0  0  0  0  0  0
  -22.5950  -12.2700   22.3830 H   0  0  0  0  0  0  0  0  0  0  0  0
  -21.3290  -13.4520   22.2270 H   0  0  0  0  0  0  0  0  0  0  0  0
  -25.6100  -15.3360   20.1390 N   0  0  0  0  0  0  0  0  0  0  0  0
  -24.8950  -16.0240   20.3460 H   0  0  0  0  0  0  0  0  0  0  0  0
  -26.5000  -15.7480   19.8950 H   0  0  0  0  0  0  0  0  0  0  0  0
  -27.9440  -17.4480   20.4130 C   0  0  0  0  0  0  0  0  0  0  0  0
  -26.9180  -18.5050   20.0140 C   0  0  0  0  0  1  0  0  0  0  0  0
  -27.5350  -16.2960   20.5870 O   0  0  0  0  0  0  0  0  0  0  0  0
  -28.4300  -24.8830   19.3820 C   0  0  0  0  0  2  0  0  0  0  0  0
  -28.5240  -26.3340   19.3390 O   0  0  0  0  0  0  0  0  0  0  0  0
  -24.6340  -31.2710   22.7580 C   0  0  0  0  0  0  0  0  0  0  0  0
  -27.3320  -27.0520   19.3810 C   0  0  0  0  0  0  0  0  0  0  0  0
  -23.4220  -29.8920   21.1010 C   0  0  0  0  0  3  0  0  0  0  0  0
  -24.8810  -28.4850   19.5490 C   0  0  0  0  0  0  0  0  0  0  0  0
  -25.9260  -30.3610   20.8220 C   0  0  0  0  0  2  0  0  0  0  0  0
  -26.0430  -29.0250   20.1120 C   0  0  0  0  0  0  0  0  0  0  0  0
  -27.2720  -28.3190   20.0180 C   0  0  0  0  0  3  0  0  0  0  0  0
  -26.1450  -26.5420   18.8060 C   0  0  0  0  0  3  0  0  0  0  0  0
  -24.9290  -27.2470   18.8880 C   0  0  0  0  0  3  0  0  0  0  0  0
  -23.6040  -29.2870   19.6850 C   0  0  0  0  0  2  0  0  0  0  0  0
  -24.6810  -30.5220   21.6180 N   0  0  0  0  0  0  0  0  0  0  0  0
  -23.5650  -31.4690   23.3510 O   0  0  0  0  0  0  0  0  0  0  0  0
  -22.8560  -28.8000   22.0390 C   0  0  0  0  0  0  0  0  0  0  0  0
  -21.5350  -28.5650   21.9580 N   0  0  0  0  0  0  0  0  0  0  0  0
  -23.5990  -28.1710   22.7950 O   0  0  0  0  0  0  0  0  0  0  0  0
  -20.9920  -29.1310   21.3210 H   0  0  0  0  0  0  0  0  0  0  0  0
  -18.2490  -27.1540   22.4860 C   0  0  0  0  0  0  0  0  0  0  0  0
  -20.7920  -27.5560   22.7140 C   0  0  0  0  0  3  0  0  0  0  0  0
  -20.9660  -26.1510   22.0910 C   0  0  0  0  0  2  0  0  0  0  0  0
  -19.8620  -25.7940   21.0900 C   0  0  0  0  0  2  0  0  0  0  0  0
  -18.4880  -25.8380   21.7660 C   0  0  0  0  0  2  0  0  0  0  0  0
  -19.3300  -27.9680   22.9170 C   0  0  0  0  0  0  0  0  0  0  0  0
  -19.0500  -29.1990   23.5500 C   0  0  0  0  0  3  0  0  0  0  0  0
  -17.7220  -29.6180   23.7560 C   0  0  0  0  0  3  0  0  0  0  0  0
  -16.6550  -28.7990   23.3420 C   0  0  0  0  0  3  0  0  0  0  0  0
  -16.9200  -27.5700   22.7120 C   0  0  0  0  0  3  0  0  0  0  0  0
  -25.9150  -31.9310   23.3550 C   0  0  0  0  0  3  0  0  0  0  0  0
  -26.5780  -31.0740   24.5020 C   0  0  1  0  0  0  0  0  0  0  0  0
  -25.5930  -30.6560   25.6170 C   0  0  0  0  0  1  0  0  0  0  0  0
  -27.2110  -29.7880   23.9220 C   0  0  0  0  0  1  0  0  0  0  0  0
  -27.7290  -31.8750   25.1570 C   0  0  0  0  0  1  0  0  0  0  0  0
  -25.5360  -33.2600   23.8550 N   0  0  0  0  0  0  0  0  0  0  0  0
  -25.8210  -34.4140   23.2370 C   0  0  0  0  0  0  0  0  0  0  0  0
  -26.5000  -34.4730   22.2080 O   0  0  0  0  0  0  0  0  0  0  0  0
  -24.9340  -33.2850   24.6650 H   0  0  0  0  0  0  0  0  0  0  0  0
  -24.0060  -36.1480   23.0920 C   0  0  0  0  0  1  0  0  0  0  0  0
  -25.2630  -35.7090   23.8590 C   0  0  0  0  0  3  0  0  0  0  0  0
  -27.3500  -36.5880   24.8110 C   0  0  0  0  0  1  0  0  0  0  0  0
  -26.2430  -36.8160   23.8850 N   0  0  0  0  0  0  0  0  0  0  0  0
  -25.7910  -37.6900   24.1410 H   0  0  0  0  0  0  0  0  0  0  0  0
  1  7  1  0
  2  3  1  0
  4  6  1  0
  5 57  1  0
  5  4  1  0
  5  2  1  0
  6  1  1  0
  6  3  1  0
  7  8  1  0
  7  9  1  0
 10 13  1  0
 11 10  2  0
 12 13  2  0
 13  1  1  0
 14 15  2  0
 14 12  1  0
 15 11  1  0
 16 24  1  0
 17 22  1  0
 18 19  1  0
 18 17  1  0
 20 19  1  0
 20 29  1  0
 20 21  1  0
 22 16  1  0
 22 21  1  0
 23 16  2  0
 24 15  1  0
 24 25  1  0
 26 27  2  0
 27 46  1  0
 28 27  1  0
 28 31  1  0
 29 30  1  0
 29 26  1  0
 30 28  2  0
 31 32  1  0
 32 33  2  0
 34 37  1  0
 34 33  1  0
 35 34  2  0
 36 35  1  0
 36 31  2  0
 37 38  1  0
 38 43  2  0
 38 39  1  0
 39 40  2  0
 41 40  1  0
 41 45  1  0
 42 41  2  0
 43 42  1  0
 44 43  1  0
 46 47  1  0
 47 50  1  0
 47 49  1  0
 48 46  2  0
 51 26  1  0
 51 52  1  0
 53 51  1  0
 54 14  1  0
 54 56  2  0
 55 54  1  0
 58 60  1  0
 58 57  1  0
 59 70  2  0
 60 65  1  0
 61 69  1  0
 61 71  1  0
 62 68  1  0
 62 64  1  0
 63 69  1  0
 64 63  1  0
 65 64  2  0
 66 67  1  0
 66 60  2  0
 67 62  2  0
 68 61  1  0
 69 59  1  0
 71 73  2  0
 72 71  1  0
 74 72  1  0
 75 84  2  0
 75 80  1  0
 76 72  1  0
 76 80  1  0
 77 76  1  0
 78 79  1  0
 78 77  1  0
 79 75  1  0
 80 81  2  0
 81 82  1  0
 83 82  2  0
 84 83  1  0
 85 59  1  0
 85 90  1  0
 85 86  1  0
 86 89  1  1
 86 87  1  0
 88 86  1  0
 90 93  1  0
 91 90  1  0
 91 95  1  0
 92 91  2  0
 95 94  1  0
 95 97  1  0
 97 98  1  0
 97 96  1  0
M  ISO  4  16 100  24 100  57 101  58 101
M  END
>  <TORSDO>  (81) 
F 19

>  <SCORE>  (81) 
-12.605

>  <name>  (81) 
80

>  <ligand_id>  (81) 
80

>  <original_smiles>  (81) 
[H]c1c([H])c([H])c2c(c1[H])C([H])([H])C([H])([H])C([H])([H])C2([H])N([H])C(=O)C1([H])N(C(=O)C([H])(N([H])C(=O)C([H])(N([H])C([H])([H])[H])C([H])([H])[H])C(C([H])([H])[H])(C([H])([H])[H])C([H])([H])[H])C([H])([H])c2c([H])c(OC([H])([H])C3([H])C([H])([H])N(C(c4c([H])c([H])c(N([H])C(=O)N5C([H])([H])C([H])([H])C([H])([H])C([H])(n6nc(-c7c([H])c([H])c(Oc8c([H])c([H])c(F)c([H])c8F)c([H])c7[H])c(C(=O)N([H])[H])c6N([H])[H])C5([H])[H])c(C(=O)C([H])([H])[H])c4[H])=[N+]([H])[H])C([H])([H])C3([H])[H])c([H])c([H])c2C1([H])[H]

>  <smiles>  (81) 
[H]c1c([H])c([H])c2c(c1[H])C([H])([H])C([H])([H])C([H])([H])C2([H])N([H])C(=O)C1([H])N(C(=O)C([H])(N([H])C(=O)C([H])(N([H])C([H])([H])[H])C([H])([H])[H])C(C([H])([H])[H])(C([H])([H])[H])C([H])([H])[H])C([H])([H])c2c([H])c(OC([H])([H])C3([H])C([H])([H])N(C(c4c([H])c([H])c(N([H])C(=O)N5C([H])([H])C([H])([H])C([H])([H])C([H])(n6nc(-c7c([H])c([H])c(Oc8c([H])c([H])c(F)c([H])c8F)c([H])c7[H])c(C(=O)N([H])[H])c6N([H])[H])C5([H])[H])c(C(=O)C([H])([H])[H])c4[H])=[N+]([H])[H])C([H])([H])C3([H])[H])c([H])c([H])c2C1([H])[H]

$$$$
81:0:0
     RDKit          3D

 96104  0  0  1  0  0  0  0  0999 V2000
  -27.0250  -21.3670   20.6500 C   0  0  0  0  0  1  0  0  0  0  0  0
  -29.2580  -21.6390   21.6710 C   0  0  0  0  0  1  0  0  0  0  0  0
  -28.5050  -21.6970   20.3300 C   0  0  1  0  0  0  0  0  0  0  0  0
  -29.0370  -20.5760   19.3480 C   0  0  0  0  0  2  0  0  0  0  0  0
  -32.5610  -19.1740   20.0650 C   0  0  0  0  0  3  0  0  0  0  0  0
  -32.2760  -17.9330   20.6650 C   0  0  0  0  0  3  0  0  0  0  0  0
  -31.5130  -20.0190   19.6420 C   0  0  0  0  0  3  0  0  0  0  0  0
  -29.8880  -18.3950   20.4440 C   0  0  0  0  0  3  0  0  0  0  0  0
  -30.9380  -17.5460   20.8740 C   0  0  0  0  0  0  0  0  0  0  0  0
  -30.1650  -19.6420   19.8280 C   0  0  0  0  0  0  0  0  0  0  0  0
  -30.8480  -14.5240   20.1190 C   0  0  0  0  0  0  0  0  0  0  0  0
  -30.5430  -12.3770   18.9010 C   0  0  0  0  0  2  0  0  0  0  0  0
  -29.5020  -12.4930   17.7650 C   0  0  0  0  0  2  0  0  0  0  0  0
  -28.0680  -12.3140   18.3020 C   0  0  0  0  0  2  0  0  0  0  0  0
  -27.7980  -13.2000   19.5440 C   0  0  0  0  0  3  0  0  0  0  0  0
  -28.9080  -12.9850   20.5880 C   0  0  0  0  0  2  0  0  0  0  0  0
  -30.2030  -13.3340   19.9630 N   0  0  0  0  0  0  0  0  0  0  0  0
  -31.7510  -14.9120   19.3690 O   0  0  0  0  0  0  0  0  0  0  0  0
  -30.6300  -16.3630   21.7470 C   0  0  0  0  0  0  0  0  0  0  0  0
  -30.4550  -15.1340   21.2500 N   0  0  0  0  0  0  0  0  0  0  0  0
  -30.4190  -16.5670   22.9450 O   0  0  0  0  0  0  0  0  0  0  0  0
  -29.9230  -14.5340   21.8570 H   0  0  0  0  0  0  0  0  0  0  0  0
  -25.4860  -13.8400   20.4800 C   0  0  0  0  0  0  0  0  0  0  0  0
  -24.4330  -13.0770   20.8990 C   0  0  0  0  0  0  0  0  0  0  0  0
  -24.8530  -11.7160   20.7670 C   0  0  0  0  0  0  0  0  0  0  0  0
  -26.4810  -12.9440   20.1150 N   0  0  0  0  0  0  0  0  0  0  0  0
  -26.1070  -11.6600   20.3430 N   0  0  0  0  0  0  0  0  0  0  0  0
  -24.1170  -10.4620   20.9580 C   0  0  0  0  0  0  0  0  0  0  0  0
  -24.5280   -9.5050   21.9110 C   0  0  0  0  0  3  0  0  0  0  0  0
  -23.7950   -8.3110   22.0850 C   0  0  0  0  0  3  0  0  0  0  0  0
  -22.6390   -8.0680   21.3030 C   0  0  0  0  0  0  0  0  0  0  0  0
  -22.2510   -9.0160   20.3400 C   0  0  0  0  0  3  0  0  0  0  0  0
  -22.9840  -10.2000   20.1640 C   0  0  0  0  0  3  0  0  0  0  0  0
  -21.8790   -6.9270   21.3850 O   0  0  0  0  0  0  0  0  0  0  0  0
  -21.7040   -6.2620   22.5730 C   0  0  0  0  0  0  0  0  0  0  0  0
  -21.1400   -6.8940   23.7020 C   0  0  0  0  0  3  0  0  0  0  0  0
  -20.9140   -6.1560   24.8810 C   0  0  0  0  0  3  0  0  0  0  0  0
  -21.2420   -4.7880   24.9300 C   0  0  0  0  0  0  0  0  0  0  0  0
  -21.7990   -4.1560   23.8040 C   0  0  0  0  0  3  0  0  0  0  0  0
  -22.0270   -4.8920   22.6270 C   0  0  0  0  0  0  0  0  0  0  0  0
  -22.5450   -4.2740   21.5380 F   0  0  0  0  0  0  0  0  0  0  0  0
  -21.0180   -4.0760   26.0600 F   0  0  0  0  0  0  0  0  0  0  0  0
  -23.0760  -13.5690   21.3140 C   0  0  0  0  0  0  0  0  0  0  0  0
  -22.4260  -12.8660   22.2310 N   0  0  0  0  0  0  0  0  0  0  0  0
  -22.6090  -14.6130   20.8570 O   0  0  0  0  0  0  0  0  0  0  0  0
  -22.8250  -12.0230   22.6150 H   0  0  0  0  0  0  0  0  0  0  0  0
  -21.5210  -13.1750   22.5540 H   0  0  0  0  0  0  0  0  0  0  0  0
  -25.6770  -15.2130   20.3600 N   0  0  0  0  0  0  0  0  0  0  0  0
  -24.9560  -15.8890   20.5880 H   0  0  0  0  0  0  0  0  0  0  0  0
  -26.5150  -15.6350   19.9820 H   0  0  0  0  0  0  0  0  0  0  0  0
  -28.6220  -23.1050   19.6070 C   0  0  0  0  0  2  0  0  0  0  0  0
  -29.7920  -24.7600   21.1880 C   0  0  0  0  0  1  0  0  0  0  0  0
  -27.2620  -24.6290   21.2040 C   0  0  0  0  0  1  0  0  0  0  0  0
  -28.5270  -24.5050   20.3360 C   0  0  2  0  0  0  0  0  0  0  0  0
  -28.4920  -25.6430   19.2510 C   0  0  0  0  0  2  0  0  0  0  0  0
  -28.3540  -26.9870   19.7670 O   0  0  0  0  0  0  0  0  0  0  0  0
  -24.5630  -31.9400   23.1930 C   0  0  0  0  0  0  0  0  0  0  0  0
  -27.1430  -27.6600   19.8090 C   0  0  0  0  0  0  0  0  0  0  0  0
  -23.3080  -30.6070   21.5270 C   0  0  0  0  0  3  0  0  0  0  0  0
  -24.7270  -29.1400   19.9830 C   0  0  0  0  0  0  0  0  0  0  0  0
  -25.8250  -30.9920   21.2620 C   0  0  0  0  0  2  0  0  0  0  0  0
  -25.8990  -29.6500   20.5530 C   0  0  0  0  0  0  0  0  0  0  0  0
  -27.1060  -28.9160   20.4600 C   0  0  0  0  0  3  0  0  0  0  0  0
  -25.9420  -27.1590   19.2530 C   0  0  0  0  0  3  0  0  0  0  0  0
  -24.7420  -27.8920   19.3360 C   0  0  0  0  0  3  0  0  0  0  0  0
  -23.4760  -29.9840   20.1120 C   0  0  0  0  0  2  0  0  0  0  0  0
  -24.5860  -31.1870   22.0540 N   0  0  0  0  0  0  0  0  0  0  0  0
  -23.4990  -32.1850   23.7790 O   0  0  0  0  0  0  0  0  0  0  0  0
  -22.6870  -29.5500   22.4650 C   0  0  0  0  0  0  0  0  0  0  0  0
  -21.3690  -29.3330   22.3330 N   0  0  0  0  0  0  0  0  0  0  0  0
  -23.3900  -28.9270   23.2640 O   0  0  0  0  0  0  0  0  0  0  0  0
  -20.8640  -29.8860   21.6530 H   0  0  0  0  0  0  0  0  0  0  0  0
  -18.0410  -27.9870   22.7420 C   0  0  0  0  0  0  0  0  0  0  0  0
  -20.5770  -28.3520   23.0760 C   0  0  0  0  0  3  0  0  0  0  0  0
  -20.7590  -26.9360   22.4840 C   0  0  0  0  0  2  0  0  0  0  0  0
  -19.6940  -26.5740   21.4440 C   0  0  0  0  0  2  0  0  0  0  0  0
  -18.2930  -26.6540   22.0580 C   0  0  0  0  0  2  0  0  0  0  0  0
  -19.1150  -28.7920   23.2040 C   0  0  0  0  0  0  0  0  0  0  0  0
  -18.8300  -30.0380   23.8030 C   0  0  0  0  0  3  0  0  0  0  0  0
  -17.5000  -30.4790   23.9480 C   0  0  0  0  0  3  0  0  0  0  0  0
  -16.4390  -29.6670   23.5080 C   0  0  0  0  0  3  0  0  0  0  0  0
  -16.7100  -28.4260   22.9060 C   0  0  0  0  0  3  0  0  0  0  0  0
  -25.8670  -32.5460   23.8000 C   0  0  0  0  0  3  0  0  0  0  0  0
  -25.5830  -33.9390   24.1640 N   0  0  0  0  0  0  0  0  0  0  0  0
  -25.9170  -35.0030   23.4220 C   0  0  0  0  0  0  0  0  0  0  0  0
  -26.5730  -34.9150   22.3800 O   0  0  0  0  0  0  0  0  0  0  0  0
  -25.0110  -34.0830   24.9830 H   0  0  0  0  0  0  0  0  0  0  0  0
  -24.2180  -36.8300   23.1250 C   0  0  0  0  0  1  0  0  0  0  0  0
  -25.4520  -36.3830   23.9200 C   0  0  0  0  0  3  0  0  0  0  0  0
  -27.5960  -37.2150   24.7760 C   0  0  0  0  0  1  0  0  0  0  0  0
  -26.4980  -37.4240   23.8350 N   0  0  0  0  0  0  0  0  0  0  0  0
  -26.1030  -38.3450   24.0120 H   0  0  0  0  0  0  0  0  0  0  0  0
  -26.4060  -31.7400   25.0450 C   0  0  1  0  0  0  0  0  0  0  0  0
  -25.3350  -31.4790   26.1290 C   0  0  0  0  0  1  0  0  0  0  0  0
  -26.9680  -30.3690   24.6010 C   0  0  0  0  0  1  0  0  0  0  0  0
  -27.5750  -32.5120   25.6990 C   0  0  0  0  0  1  0  0  0  0  0  0
  3  1  1  1
  3  2  1  0
  4 10  1  0
  4  3  1  0
  5  6  1  0
  6  9  2  0
  7 10  1  0
  7  5  2  0
  8  9  1  0
  9 19  1  0
 10  8  2  0
 11 20  1  0
 12 17  1  0
 13 14  1  0
 13 12  1  0
 15 14  1  0
 15 26  1  0
 15 16  1  0
 17 11  1  0
 17 16  1  0
 18 11  2  0
 19 21  2  0
 20 19  1  0
 20 22  1  0
 23 24  2  0
 24 43  1  0
 25 24  1  0
 25 28  1  0
 26 27  1  0
 26 23  1  0
 27 25  2  0
 28 29  1  0
 29 30  2  0
 31 34  1  0
 31 30  1  0
 32 31  2  0
 33 32  1  0
 33 28  2  0
 34 35  1  0
 35 40  2  0
 35 36  1  0
 36 37  2  0
 37 38  1  0
 38 42  1  0
 39 38  2  0
 40 39  1  0
 41 40  1  0
 43 44  1  0
 44 47  1  0
 44 46  1  0
 45 43  2  0
 48 23  1  0
 48 49  1  0
 50 48  1  0
 51  3  1  0
 51 54  1  0
 54 52  1  1
 54 53  1  0
 55 56  1  0
 55 54  1  0
 56 58  1  0
 57 68  2  0
 58 63  1  0
 59 67  1  0
 59 69  1  0
 60 66  1  0
 60 62  1  0
 61 67  1  0
 62 61  1  0
 63 62  2  0
 64 65  1  0
 64 58  2  0
 65 60  2  0
 66 59  1  0
 67 57  1  0
 69 71  2  0
 70 69  1  0
 72 70  1  0
 73 82  2  0
 73 78  1  0
 74 70  1  0
 74 78  1  0
 75 74  1  0
 76 77  1  0
 76 75  1  0
 77 73  1  0
 78 79  2  0
 79 80  1  0
 81 80  2  0
 82 81  1  0
 83 57  1  0
 83 84  1  0
 83 93  1  0
 84 87  1  0
 85 89  1  0
 85 84  1  0
 86 85  2  0
 89 88  1  0
 91 89  1  0
 91 92  1  0
 91 90  1  0
 93 96  1  1
 93 94  1  0
 95 93  1  0
M  ISO  4  11 100  20 100  55 101  56 101
M  END
>  <TORSDO>  (82) 
F 21

>  <SCORE>  (82) 
-12.999

>  <name>  (82) 
81

>  <ligand_id>  (82) 
81

>  <original_smiles>  (82) 
[H]c1c([H])c([H])c2c(c1[H])C([H])([H])C([H])([H])C([H])([H])C2([H])N([H])C(=O)C1([H])N(C(=O)C([H])(N([H])C(=O)C([H])(N([H])C([H])([H])[H])C([H])([H])[H])C(C([H])([H])[H])(C([H])([H])[H])C([H])([H])[H])C([H])([H])c2c([H])c(OC([H])([H])C(C([H])([H])[H])(C([H])([H])[H])C([H])([H])C(C([H])([H])[H])(C([H])([H])[H])C([H])([H])c3c([H])c([H])c([H])c(C(=O)N([H])C(=O)N4C([H])([H])C([H])([H])C([H])([H])C([H])(n5nc(-c6c([H])c([H])c(Oc7c([H])c([H])c(F)c([H])c7F)c([H])c6[H])c(C(=O)N([H])[H])c5N([H])[H])C4([H])[H])c3[H])c([H])c([H])c2C1([H])[H]

>  <smiles>  (82) 
[H]c1c([H])c([H])c2c(c1[H])C([H])([H])C([H])([H])C([H])([H])C2([H])N([H])C(=O)C1([H])N(C(=O)C([H])(N([H])C(=O)C([H])(N([H])C([H])([H])[H])C([H])([H])[H])C(C([H])([H])[H])(C([H])([H])[H])C([H])([H])[H])C([H])([H])c2c([H])c(OC([H])([H])C(C([H])([H])[H])(C([H])([H])[H])C([H])([H])C(C([H])([H])[H])(C([H])([H])[H])C([H])([H])c3c([H])c([H])c([H])c(C(=O)N([H])C(=O)N4C([H])([H])C([H])([H])C([H])([H])C([H])(n5nc(-c6c([H])c([H])c(Oc7c([H])c([H])c(F)c([H])c7F)c([H])c6[H])c(C(=O)N([H])[H])c5N([H])[H])C4([H])[H])c3[H])c([H])c([H])c2C1([H])[H]

$$$$
82:0:0
     RDKit          3D

 93102  0  0  1  0  0  0  0  0999 V2000
  -29.2630  -22.6770   21.9710 C   0  0  0  0  0  1  0  0  0  0  0  0
  -31.0290  -22.6690   20.2020 C   0  0  0  0  0  1  0  0  0  0  0  0
  -29.5070  -22.7310   20.4460 C   0  0  2  0  0  0  0  0  0  0  0  0
  -28.9930  -24.1290   19.8550 C   0  0  0  0  0  0  0  0  0  0  0  0
  -28.8950  -24.2590   18.6310 O   0  0  0  0  0  0  0  0  0  0  0  0
  -28.6280  -25.3620   20.7800 C   0  0  0  0  0  2  0  0  0  0  0  0
  -28.6950  -26.7000   20.1650 O   0  0  0  0  0  0  0  0  0  0  0  0
  -24.7180  -31.8950   23.2280 C   0  0  0  0  0  0  0  0  0  0  0  0
  -27.5340  -27.4730   20.1820 C   0  0  0  0  0  0  0  0  0  0  0  0
  -23.5860  -30.4640   21.5630 C   0  0  0  0  0  3  0  0  0  0  0  0
  -25.1070  -28.9670   20.1550 C   0  0  0  0  0  0  0  0  0  0  0  0
  -26.1100  -30.8810   21.4110 C   0  0  0  0  0  2  0  0  0  0  0  0
  -26.2490  -29.5090   20.7640 C   0  0  0  0  0  0  0  0  0  0  0  0
  -27.4680  -28.7730   20.7630 C   0  0  0  0  0  3  0  0  0  0  0  0
  -26.3720  -26.9660   19.5670 C   0  0  0  0  0  3  0  0  0  0  0  0
  -25.1680  -27.7000   19.5510 C   0  0  0  0  0  3  0  0  0  0  0  0
  -23.8410  -29.7990   20.1850 C   0  0  0  0  0  2  0  0  0  0  0  0
  -24.8230  -31.0980   22.1250 N   0  0  0  0  0  0  0  0  0  0  0  0
  -23.6200  -32.1310   23.7500 O   0  0  0  0  0  0  0  0  0  0  0  0
  -22.9470  -29.4210   22.5100 C   0  0  0  0  0  0  0  0  0  0  0  0
  -21.6240  -29.2200   22.3820 N   0  0  0  0  0  0  0  0  0  0  0  0
  -23.6390  -28.7960   23.3180 O   0  0  0  0  0  0  0  0  0  0  0  0
  -21.1240  -29.7770   21.7030 H   0  0  0  0  0  0  0  0  0  0  0  0
  -18.2670  -27.9740   22.8890 C   0  0  0  0  0  0  0  0  0  0  0  0
  -20.8250  -28.2550   23.1390 C   0  0  0  0  0  3  0  0  0  0  0  0
  -20.9360  -26.8390   22.5280 C   0  0  0  0  0  2  0  0  0  0  0  0
  -19.8270  -26.5280   21.5180 C   0  0  0  0  0  2  0  0  0  0  0  0
  -18.4510  -26.6440   22.1800 C   0  0  0  0  0  2  0  0  0  0  0  0
  -19.3830  -28.7380   23.3250 C   0  0  0  0  0  0  0  0  0  0  0  0
  -19.1560  -29.9840   23.9490 C   0  0  0  0  0  3  0  0  0  0  0  0
  -17.8480  -30.4670   24.1420 C   0  0  0  0  0  3  0  0  0  0  0  0
  -16.7480  -29.7000   23.7220 C   0  0  0  0  0  3  0  0  0  0  0  0
  -16.9580  -28.4550   23.1010 C   0  0  0  0  0  3  0  0  0  0  0  0
  -25.9710  -32.5670   23.8710 C   0  0  0  0  0  3  0  0  0  0  0  0
  -26.4870  -31.8160   25.1610 C   0  0  1  0  0  0  0  0  0  0  0  0
  -25.3790  -31.5420   26.2060 C   0  0  0  0  0  1  0  0  0  0  0  0
  -27.1250  -30.4580   24.7840 C   0  0  0  0  0  1  0  0  0  0  0  0
  -27.5940  -32.6500   25.8460 C   0  0  0  0  0  1  0  0  0  0  0  0
  -25.6160  -33.9570   24.1900 N   0  0  0  0  0  0  0  0  0  0  0  0
  -25.9390  -35.0180   23.4380 C   0  0  0  0  0  0  0  0  0  0  0  0
  -26.6380  -34.9300   22.4250 O   0  0  0  0  0  0  0  0  0  0  0  0
  -24.9960  -34.0960   24.9750 H   0  0  0  0  0  0  0  0  0  0  0  0
  -24.1840  -36.7710   23.0250 C   0  0  0  0  0  1  0  0  0  0  0  0
  -25.4040  -36.3930   23.8800 C   0  0  0  0  0  3  0  0  0  0  0  0
  -27.4860  -37.3250   24.7910 C   0  0  0  0  0  1  0  0  0  0  0  0
  -26.4160  -37.4700   23.8070 N   0  0  0  0  0  0  0  0  0  0  0  0
  -25.9840  -38.3800   23.9400 H   0  0  0  0  0  0  0  0  0  0  0  0
  -28.8360  -21.4440   19.7640 C   0  0  0  0  0  2  0  0  0  0  0  0
  -30.9940  -14.7800   19.6610 C   0  0  0  0  0  0  0  0  0  0  0  0
  -30.5530  -12.6100   18.5120 C   0  0  0  0  0  2  0  0  0  0  0  0
  -29.4620  -12.7890   17.4350 C   0  0  0  0  0  2  0  0  0  0  0  0
  -28.0590  -12.6220   18.0470 C   0  0  0  0  0  2  0  0  0  0  0  0
  -27.8760  -13.4480   19.3470 C   0  0  0  0  0  3  0  0  0  0  0  0
  -29.0650  -13.2490   20.3080 C   0  0  0  0  0  2  0  0  0  0  0  0
  -30.2990  -13.5960   19.5850 N   0  0  0  0  0  0  0  0  0  0  0  0
  -32.0290  -14.9470   19.0080 O   0  0  0  0  0  0  0  0  0  0  0  0
  -29.5870  -19.1520   18.7260 C   0  0  0  0  0  3  0  0  0  0  0  0
  -29.9400  -17.7650   18.8030 C   0  0  0  0  0  3  0  0  0  0  0  0
  -29.6860  -19.3530   21.1330 C   0  0  0  0  0  3  0  0  0  0  0  0
  -30.0600  -17.9810   21.1920 C   0  0  0  0  0  0  0  0  0  0  0  0
  -29.4350  -19.9830   19.8810 C   0  0  0  0  0  0  0  0  0  0  0  0
  -30.1710  -17.1640   20.0650 C   0  0  0  0  0  0  0  0  0  0  0  0
  -30.3570  -17.1860   22.4330 C   0  0  0  0  0  3  0  0  0  0  0  0
  -30.7710  -15.7930   21.8900 C   0  0  0  0  0  3  0  0  0  0  0  0
  -30.4890  -15.7950   20.4420 N   0  0  0  0  0  0  0  0  0  0  0  0
  -25.6310  -14.0470   20.4440 C   0  0  0  0  0  0  0  0  0  0  0  0
  -24.6000  -13.2720   20.9030 C   0  0  0  0  0  0  0  0  0  0  0  0
  -25.0070  -11.9160   20.7070 C   0  0  0  0  0  0  0  0  0  0  0  0
  -26.6010  -13.1630   19.9970 N   0  0  0  0  0  0  0  0  0  0  0  0
  -26.2380  -11.8720   20.2140 N   0  0  0  0  0  0  0  0  0  0  0  0
  -24.2720  -10.6610   20.9070 C   0  0  0  0  0  0  0  0  0  0  0  0
  -24.7360   -9.6630   21.7900 C   0  0  0  0  0  3  0  0  0  0  0  0
  -24.0000   -8.4740   21.9790 C   0  0  0  0  0  3  0  0  0  0  0  0
  -22.7860   -8.2730   21.2820 C   0  0  0  0  0  0  0  0  0  0  0  0
  -22.3380   -9.2610   20.3870 C   0  0  0  0  0  3  0  0  0  0  0  0
  -23.0750  -10.4420   20.1960 C   0  0  0  0  0  3  0  0  0  0  0  0
  -22.0170   -7.1380   21.3820 O   0  0  0  0  0  0  0  0  0  0  0  0
  -21.9370   -6.4250   22.5510 C   0  0  0  0  0  0  0  0  0  0  0  0
  -21.5010   -7.0170   23.7560 C   0  0  0  0  0  3  0  0  0  0  0  0
  -21.3640   -6.2310   24.9180 C   0  0  0  0  0  3  0  0  0  0  0  0
  -21.6530   -4.8530   24.8750 C   0  0  0  0  0  0  0  0  0  0  0  0
  -22.0820   -4.2610   23.6730 C   0  0  0  0  0  3  0  0  0  0  0  0
  -22.2190   -5.0440   22.5150 C   0  0  0  0  0  0  0  0  0  0  0  0
  -22.6130   -4.4630   21.3550 F   0  0  0  0  0  0  0  0  0  0  0  0
  -21.5150   -4.0970   25.9890 F   0  0  0  0  0  0  0  0  0  0  0  0
  -23.2730  -13.7610   21.4070 C   0  0  0  0  0  0  0  0  0  0  0  0
  -22.6640  -13.0340   22.3380 N   0  0  0  0  0  0  0  0  0  0  0  0
  -22.7910  -14.8220   21.0130 O   0  0  0  0  0  0  0  0  0  0  0  0
  -23.0720  -12.1760   22.6770 H   0  0  0  0  0  0  0  0  0  0  0  0
  -21.7820  -13.3430   22.7190 H   0  0  0  0  0  0  0  0  0  0  0  0
  -25.8200  -15.4220   20.3520 N   0  0  0  0  0  0  0  0  0  0  0  0
  -25.1040  -16.0870   20.6270 H   0  0  0  0  0  0  0  0  0  0  0  0
  -26.6480  -15.8650   19.9760 H   0  0  0  0  0  0  0  0  0  0  0  0
  3  2  1  1
  3  1  1  0
  4  3  1  0
  4  6  1  0
  5  4  2  0
  7  9  1  0
  7  6  1  0
  8 19  2  0
  9 14  1  0
 10 18  1  0
 10 20  1  0
 11 17  1  0
 11 13  1  0
 12 18  1  0
 13 12  1  0
 14 13  2  0
 15  9  2  0
 16 15  1  0
 16 11  2  0
 17 10  1  0
 18  8  1  0
 20 22  2  0
 21 20  1  0
 23 21  1  0
 24 33  2  0
 24 29  1  0
 25 21  1  0
 25 29  1  0
 26 25  1  0
 27 28  1  0
 27 26  1  0
 28 24  1  0
 29 30  2  0
 30 31  1  0
 32 31  2  0
 33 32  1  0
 34  8  1  0
 34 39  1  0
 34 35  1  0
 35 38  1  1
 35 36  1  0
 37 35  1  0
 39 42  1  0
 40 44  1  0
 40 39  1  0
 41 40  2  0
 44 43  1  0
 46 44  1  0
 46 47  1  0
 46 45  1  0
 48 61  1  0
 48  3  1  0
 49 65  1  0
 50 55  1  0
 51 52  1  0
 51 50  1  0
 53 52  1  0
 53 69  1  0
 53 54  1  0
 55 49  1  0
 55 54  1  0
 56 49  2  0
 57 58  2  0
 57 61  1  0
 58 62  1  0
 59 60  1  0
 60 63  1  0
 61 59  2  0
 62 65  1  0
 62 60  2  0
 64 63  2  0
 65 64  1  0
 66 67  2  0
 67 86  1  0
 68 67  1  0
 68 71  1  0
 69 70  1  0
 69 66  1  0
 70 68  2  0
 71 72  1  0
 72 73  2  0
 74 77  1  0
 74 73  1  0
 75 74  2  0
 76 75  1  0
 76 71  2  0
 77 78  1  0
 78 79  1  0
 79 80  2  0
 81 80  1  0
 81 85  1  0
 82 81  2  0
 83 78  2  0
 83 82  1  0
 84 83  1  0
 86 87  1  0
 87 89  1  0
 87 90  1  0
 88 86  2  0
 91 66  1  0
 91 92  1  0
 93 91  1  0
M  ISO  4   6 101   7 101  49 100  65 100
M  END
>  <TORSDO>  (83) 
F 19

>  <SCORE>  (83) 
-13.135

>  <name>  (83) 
82

>  <ligand_id>  (83) 
82

>  <original_smiles>  (83) 
[H]c1c([H])c([H])c2c(c1[H])C([H])([H])C([H])([H])C([H])([H])C2([H])N([H])C(=O)C1([H])N(C(=O)C([H])(N([H])C(=O)C([H])(N([H])C([H])([H])[H])C([H])([H])[H])C(C([H])([H])[H])(C([H])([H])[H])C([H])([H])[H])C([H])([H])c2c([H])c(OC([H])([H])C(=O)C(C([H])([H])[H])(C([H])([H])[H])C([H])([H])c3c([H])c([H])c4c(c3[H])C([H])([H])C([H])([H])N4C(=O)N3C([H])([H])C([H])([H])C([H])([H])C([H])(n4nc(-c5c([H])c([H])c(Oc6c([H])c([H])c(F)c([H])c6F)c([H])c5[H])c(C(=O)N([H])[H])c4N([H])[H])C3([H])[H])c([H])c([H])c2C1([H])[H]

>  <smiles>  (83) 
[H]c1c([H])c([H])c2c(c1[H])C([H])([H])C([H])([H])C([H])([H])C2([H])N([H])C(=O)C1([H])N(C(=O)C([H])(N([H])C(=O)C([H])(N([H])C([H])([H])[H])C([H])([H])[H])C(C([H])([H])[H])(C([H])([H])[H])C([H])([H])[H])C([H])([H])c2c([H])c(OC([H])([H])C(=O)C(C([H])([H])[H])(C([H])([H])[H])C([H])([H])c3c([H])c([H])c4c(c3[H])C([H])([H])C([H])([H])N4C(=O)N3C([H])([H])C([H])([H])C([H])([H])C([H])(n4nc(-c5c([H])c([H])c(Oc6c([H])c([H])c(F)c([H])c6F)c([H])c5[H])c(C(=O)N([H])[H])c4N([H])[H])C3([H])[H])c([H])c([H])c2C1([H])[H]

$$$$
83:0:0
     RDKit          3D

 98107  0  0  1  0  0  0  0  0999 V2000
  -29.3240  -21.9680   20.6120 C   0  0  0  0  0  2  0  0  0  0  0  0
  -27.2820  -22.7710   21.8240 C   0  0  0  0  0  1  0  0  0  0  0  0
  -29.4490  -22.5810   23.0270 C   0  0  0  0  0  1  0  0  0  0  0  0
  -28.8070  -23.0020   21.6770 C   0  0  1  0  0  0  0  0  0  0  0  0
  -30.5700  -24.7060   20.7890 C   0  0  0  0  0  1  0  0  0  0  0  0
  -29.0410  -25.4190   22.6200 C   0  0  0  0  0  1  0  0  0  0  0  0
  -29.1330  -24.5530   21.3360 C   0  0  2  0  0  0  0  0  0  0  0  0
  -28.1660  -25.2310   20.2940 C   0  0  0  0  0  2  0  0  0  0  0  0
  -28.3800  -26.6640   20.0960 O   0  0  0  0  0  0  0  0  0  0  0  0
  -24.5790  -31.8580   23.1700 C   0  0  0  0  0  0  0  0  0  0  0  0
  -27.2440  -27.4590   20.0280 C   0  0  0  0  0  0  0  0  0  0  0  0
  -23.3900  -30.4930   21.4880 C   0  0  0  0  0  3  0  0  0  0  0  0
  -24.8580  -28.9980   20.0310 C   0  0  0  0  0  0  0  0  0  0  0  0
  -25.9190  -30.8580   21.3170 C   0  0  0  0  0  2  0  0  0  0  0  0
  -26.0140  -29.5020   20.6410 C   0  0  0  0  0  0  0  0  0  0  0  0
  -27.2120  -28.7430   20.6300 C   0  0  0  0  0  3  0  0  0  0  0  0
  -26.0760  -26.9930   19.3850 C   0  0  0  0  0  3  0  0  0  0  0  0
  -24.8880  -27.7470   19.3920 C   0  0  0  0  0  3  0  0  0  0  0  0
  -23.6090  -29.8510   20.0920 C   0  0  0  0  0  2  0  0  0  0  0  0
  -24.6480  -31.0830   22.0510 N   0  0  0  0  0  0  0  0  0  0  0  0
  -23.4930  -32.1120   23.7110 O   0  0  0  0  0  0  0  0  0  0  0  0
  -22.7360  -29.4460   22.4200 C   0  0  0  0  0  0  0  0  0  0  0  0
  -21.4080  -29.2810   22.3020 N   0  0  0  0  0  0  0  0  0  0  0  0
  -23.4210  -28.7860   23.2060 O   0  0  0  0  0  0  0  0  0  0  0  0
  -20.9160  -29.8670   21.6410 H   0  0  0  0  0  0  0  0  0  0  0  0
  -18.0230  -28.1240   22.8170 C   0  0  0  0  0  0  0  0  0  0  0  0
  -20.5890  -28.3260   23.0490 C   0  0  0  0  0  3  0  0  0  0  0  0
  -20.6550  -26.9190   22.4120 C   0  0  0  0  0  2  0  0  0  0  0  0
  -19.5290  -26.6580   21.4060 C   0  0  0  0  0  2  0  0  0  0  0  0
  -18.1620  -26.8000   22.0830 C   0  0  0  0  0  2  0  0  0  0  0  0
  -19.1630  -28.8480   23.2570 C   0  0  0  0  0  0  0  0  0  0  0  0
  -18.9780  -30.0880   23.9040 C   0  0  0  0  0  3  0  0  0  0  0  0
  -17.6860  -30.6050   24.1130 C   0  0  0  0  0  3  0  0  0  0  0  0
  -16.5600  -29.8770   23.6900 C   0  0  0  0  0  3  0  0  0  0  0  0
  -16.7300  -28.6370   23.0480 C   0  0  0  0  0  3  0  0  0  0  0  0
  -25.8580  -32.4810   23.8130 C   0  0  0  0  0  3  0  0  0  0  0  0
  -25.5450  -33.8730   24.1600 N   0  0  0  0  0  0  0  0  0  0  0  0
  -25.8860  -34.9370   23.4180 C   0  0  0  0  0  0  0  0  0  0  0  0
  -26.5660  -34.8480   22.3930 O   0  0  0  0  0  0  0  0  0  0  0  0
  -24.9430  -34.0170   24.9570 H   0  0  0  0  0  0  0  0  0  0  0  0
  -24.1610  -36.7330   23.0660 C   0  0  0  0  0  1  0  0  0  0  0  0
  -25.3920  -36.3180   23.8880 C   0  0  0  0  0  3  0  0  0  0  0  0
  -27.5140  -37.1940   24.7600 C   0  0  0  0  0  1  0  0  0  0  0  0
  -26.4250  -37.3730   23.8030 N   0  0  0  0  0  0  0  0  0  0  0  0
  -26.0160  -38.2910   23.9560 H   0  0  0  0  0  0  0  0  0  0  0  0
  -26.3640  -31.6910   25.0830 C   0  0  1  0  0  0  0  0  0  0  0  0
  -25.2630  -31.4430   26.1410 C   0  0  0  0  0  1  0  0  0  0  0  0
  -26.9450  -30.3160   24.6760 C   0  0  0  0  0  1  0  0  0  0  0  0
  -27.5140  -32.4720   25.7630 C   0  0  0  0  0  1  0  0  0  0  0  0
  -29.1970  -20.5800   21.0160 O   0  0  0  0  0  0  0  0  0  0  0  0
  -30.7440  -18.3910   18.3790 C   0  0  0  0  0  3  0  0  0  0  0  0
  -29.8010  -18.2470   20.9790 C   0  0  0  0  0  3  0  0  0  0  0  0
  -30.2990  -19.5820   18.9820 C   0  0  0  0  0  0  0  0  0  0  0  0
  -30.7180  -17.1450   19.0260 C   0  0  0  0  0  0  0  0  0  0  0  0
  -30.2870  -17.0440   20.3760 C   0  0  0  0  0  0  0  0  0  0  0  0
  -29.7830  -19.5190   20.3150 C   0  0  0  0  0  0  0  0  0  0  0  0
  -31.0510  -15.9470   18.1620 C   0  0  0  0  0  1  0  0  0  0  0  0
  -30.9880  -14.6720   20.9580 C   0  0  0  0  0  0  0  0  0  0  0  0
  -30.8270  -12.3920   20.0150 C   0  0  0  0  0  2  0  0  0  0  0  0
  -30.0000  -12.4320   18.7120 C   0  0  0  0  0  2  0  0  0  0  0  0
  -28.4820  -12.4010   18.9940 C   0  0  0  0  0  2  0  0  0  0  0  0
  -28.0370  -13.3350   20.1530 C   0  0  0  0  0  3  0  0  0  0  0  0
  -28.9800  -13.2000   21.3690 C   0  0  0  0  0  2  0  0  0  0  0  0
  -30.3480  -13.4680   20.9020 N   0  0  0  0  0  0  0  0  0  0  0  0
  -32.1970  -14.7800   20.7320 O   0  0  0  0  0  0  0  0  0  0  0  0
  -30.1840  -15.7680   21.0650 N   0  0  0  0  0  0  0  0  0  0  0  0
  -29.2770  -15.5760   21.4640 H   0  0  0  0  0  0  0  0  0  0  0  0
  -25.6070  -14.0160   20.6530 C   0  0  0  0  0  0  0  0  0  0  0  0
  -24.4880  -13.2780   20.9350 C   0  0  0  0  0  0  0  0  0  0  0  0
  -24.9130  -11.9140   20.9630 C   0  0  0  0  0  0  0  0  0  0  0  0
  -26.6420  -13.1040   20.5230 N   0  0  0  0  0  0  0  0  0  0  0  0
  -26.2230  -11.8370   20.7730 N   0  0  0  0  0  0  0  0  0  0  0  0
  -24.1380  -10.6740   21.1010 C   0  0  0  0  0  0  0  0  0  0  0  0
  -24.4880   -9.6860   22.0480 C   0  0  0  0  0  3  0  0  0  0  0  0
  -23.7180   -8.5110   22.1750 C   0  0  0  0  0  3  0  0  0  0  0  0
  -22.5820   -8.3140   21.3530 C   0  0  0  0  0  0  0  0  0  0  0  0
  -22.2520   -9.2890   20.3960 C   0  0  0  0  0  3  0  0  0  0  0  0
  -23.0230  -10.4560   20.2670 C   0  0  0  0  0  3  0  0  0  0  0  0
  -21.7910   -7.1920   21.3880 O   0  0  0  0  0  0  0  0  0  0  0  0
  -21.6670   -6.4340   22.5250 C   0  0  0  0  0  0  0  0  0  0  0  0
  -21.1940   -6.9800   23.7380 C   0  0  0  0  0  3  0  0  0  0  0  0
  -21.0170   -6.1500   24.8620 C   0  0  0  0  0  3  0  0  0  0  0  0
  -21.3010   -4.7750   24.7750 C   0  0  0  0  0  0  0  0  0  0  0  0
  -21.7670   -4.2270   23.5660 C   0  0  0  0  0  3  0  0  0  0  0  0
  -21.9460   -5.0540   22.4440 C   0  0  0  0  0  0  0  0  0  0  0  0
  -22.3760   -4.5180   21.2750 F   0  0  0  0  0  0  0  0  0  0  0  0
  -21.1240   -3.9750   25.8520 F   0  0  0  0  0  0  0  0  0  0  0  0
  -23.0860  -13.7960   21.0720 C   0  0  0  0  0  0  0  0  0  0  0  0
  -22.2680  -13.1440   21.8920 N   0  0  0  0  0  0  0  0  0  0  0  0
  -22.7200  -14.8140   20.4860 O   0  0  0  0  0  0  0  0  0  0  0  0
  -22.5760  -12.3220   22.3900 H   0  0  0  0  0  0  0  0  0  0  0  0
  -21.3240  -13.4760   22.0250 H   0  0  0  0  0  0  0  0  0  0  0  0
  -25.8240  -15.3780   20.4740 N   0  0  0  0  0  0  0  0  0  0  0  0
  -25.0670  -16.0520   20.5060 H   0  0  0  0  0  0  0  0  0  0  0  0
  -26.7050  -15.7910   20.1950 H   0  0  0  0  0  0  0  0  0  0  0  0
  -31.3210  -20.9700   16.9530 C   0  0  0  0  0  2  0  0  0  0  0  0
  -31.4220  -21.8430   18.1730 C   0  0  0  0  0  2  0  0  0  0  0  0
  -30.3230  -20.8040   18.0900 C   0  0  0  0  0  3  0  0  0  0  0  0
  1 50  1  0
  1  4  1  0
  4  2  1  1
  4  3  1  0
  7  5  1  6
  7  4  1  0
  7  6  1  0
  8  7  1  0
  9  8  1  0
 10 21  2  0
 11  9  1  0
 11 16  1  0
 12 20  1  0
 12 22  1  0
 13 19  1  0
 13 15  1  0
 14 20  1  0
 15 14  1  0
 16 15  2  0
 17 18  1  0
 17 11  2  0
 18 13  2  0
 19 12  1  0
 20 10  1  0
 22 24  2  0
 23 22  1  0
 25 23  1  0
 26 35  2  0
 26 31  1  0
 27 23  1  0
 27 31  1  0
 28 27  1  0
 29 30  1  0
 29 28  1  0
 30 26  1  0
 31 32  2  0
 32 33  1  0
 34 33  2  0
 35 34  1  0
 36 10  1  0
 36 37  1  0
 36 46  1  0
 37 40  1  0
 38 42  1  0
 38 37  1  0
 39 38  2  0
 42 41  1  0
 44 42  1  0
 44 45  1  0
 44 43  1  0
 46 49  1  1
 46 47  1  0
 48 46  1  0
 51 53  2  0
 51 54  1  0
 53 56  1  0
 54 55  2  0
 55 52  1  0
 55 66  1  0
 56 52  2  0
 56 50  1  0
 57 54  1  0
 58 66  1  0
 59 64  1  0
 60 61  1  0
 60 59  1  0
 62 61  1  0
 62 71  1  0
 62 63  1  0
 64 58  1  0
 64 63  1  0
 65 58  2  0
 66 67  1  0
 68 69  2  0
 69 70  1  0
 69 88  1  0
 70 73  1  0
 71 68  1  0
 71 72  1  0
 72 70  2  0
 73 74  1  0
 74 75  2  0
 76 79  1  0
 76 75  1  0
 77 76  2  0
 78 77  1  0
 78 73  2  0
 79 80  1  0
 80 81  1  0
 81 82  2  0
 83 82  1  0
 83 87  1  0
 84 83  2  0
 85 80  2  0
 85 84  1  0
 86 85  1  0
 88 89  1  0
 89 92  1  0
 89 91  1  0
 90 88  2  0
 93 94  1  0
 93 68  1  0
 95 93  1  0
 96 98  1  0
 96 97  1  0
 98 97  1  0
 98 53  1  0
M  ISO  4   8 101   9 101  58 100  66 100
M  END
>  <TORSDO>  (84) 
F 22

>  <SCORE>  (84) 
-13.012

>  <name>  (84) 
83

>  <ligand_id>  (84) 
83

>  <original_smiles>  (84) 
[H]c1c([H])c([H])c2c(c1[H])C([H])([H])C([H])([H])C([H])([H])C2([H])N([H])C(=O)C1([H])N(C(=O)C([H])(N([H])C(=O)C([H])(N([H])C([H])([H])[H])C([H])([H])[H])C(C([H])([H])[H])(C([H])([H])[H])C([H])([H])[H])C([H])([H])c2c([H])c(OC([H])([H])C(C([H])([H])[H])(C([H])([H])[H])C(C([H])([H])[H])(C([H])([H])[H])C([H])([H])Oc3c([H])c(N([H])C(=O)N4C([H])([H])C([H])([H])C([H])([H])C([H])(n5nc(-c6c([H])c([H])c(Oc7c([H])c([H])c(F)c([H])c7F)c([H])c6[H])c(C(=O)N([H])[H])c5N([H])[H])C4([H])[H])c(C([H])([H])[H])c([H])c3C3([H])C([H])([H])C3([H])[H])c([H])c([H])c2C1([H])[H]

>  <smiles>  (84) 
[H]c1c([H])c([H])c2c(c1[H])C([H])([H])C([H])([H])C([H])([H])C2([H])N([H])C(=O)C1([H])N(C(=O)C([H])(N([H])C(=O)C([H])(N([H])C([H])([H])[H])C([H])([H])[H])C(C([H])([H])[H])(C([H])([H])[H])C([H])([H])[H])C([H])([H])c2c([H])c(OC([H])([H])C(C([H])([H])[H])(C([H])([H])[H])C(C([H])([H])[H])(C([H])([H])[H])C([H])([H])Oc3c([H])c(N([H])C(=O)N4C([H])([H])C([H])([H])C([H])([H])C([H])(n5nc(-c6c([H])c([H])c(Oc7c([H])c([H])c(F)c([H])c7F)c([H])c6[H])c(C(=O)N([H])[H])c5N([H])[H])C4([H])[H])c(C([H])([H])[H])c([H])c3C3([H])C([H])([H])C3([H])[H])c([H])c([H])c2C1([H])[H]

$$$$
84:0:0
     RDKit          3D

 93102  0  0  1  0  0  0  0  0999 V2000
  -27.1890  -22.8260   21.0600 C   0  0  0  0  0  2  0  0  0  0  0  0
  -27.4670  -21.3380   20.7700 C   0  0  0  0  0  2  0  0  0  0  0  0
  -28.1700  -23.6840   20.2130 C   0  0  1  0  0  0  0  0  0  0  0  0
  -29.4220  -22.6360   20.2580 C   0  0  2  0  0  0  0  0  0  0  0  0
  -27.5740  -23.7730   18.7870 C   0  0  0  0  0  1  0  0  0  0  0  0
  -30.2700  -22.8650   21.5290 C   0  0  0  0  0  1  0  0  0  0  0  0
  -30.3470  -22.8050   19.0290 C   0  0  0  0  0  1  0  0  0  0  0  0
  -28.8440  -21.2390   20.3040 N   0  0  0  0  0  0  0  0  0  0  0  0
  -30.8110  -19.5610   20.0370 C   0  0  0  0  0  3  0  0  0  0  0  0
  -31.0820  -18.1320   20.0460 C   0  0  0  0  0  3  0  0  0  0  0  0
  -29.4980  -19.9340   20.2540 C   0  0  0  0  0  0  0  0  0  0  0  0
  -29.9960  -17.3080   20.2850 C   0  0  0  0  0  0  0  0  0  0  0  0
  -28.5980  -18.4030   20.4830 S   0  0  0  0  0  0  0  0  0  0  0  0
  -30.7050  -14.8560   20.0430 C   0  0  0  0  0  0  0  0  0  0  0  0
  -30.4730  -12.6180   18.9610 C   0  0  0  0  0  2  0  0  0  0  0  0
  -29.4600  -12.7420   17.8020 C   0  0  0  0  0  2  0  0  0  0  0  0
  -28.0180  -12.5550   18.3120 C   0  0  0  0  0  2  0  0  0  0  0  0
  -27.7190  -13.3970   19.5810 C   0  0  0  0  0  3  0  0  0  0  0  0
  -28.8410  -13.2460   20.6310 C   0  0  0  0  0  2  0  0  0  0  0  0
  -30.1060  -13.6200   19.9830 N   0  0  0  0  0  0  0  0  0  0  0  0
  -31.8620  -15.0120   19.6390 O   0  0  0  0  0  0  0  0  0  0  0  0
  -29.8810  -15.9140   20.3810 N   0  0  0  0  0  0  0  0  0  0  0  0
  -28.9660  -15.5960   20.6700 H   0  0  0  0  0  0  0  0  0  0  0  0
  -25.3790  -13.9730   20.4650 C   0  0  0  0  0  0  0  0  0  0  0  0
  -24.3350  -13.1910   20.8740 C   0  0  0  0  0  0  0  0  0  0  0  0
  -24.7900  -11.8390   20.7760 C   0  0  0  0  0  0  0  0  0  0  0  0
  -26.4030  -13.0990   20.1390 N   0  0  0  0  0  0  0  0  0  0  0  0
  -26.0600  -11.8090   20.3900 N   0  0  0  0  0  0  0  0  0  0  0  0
  -24.0730  -10.5710   20.9710 C   0  0  0  0  0  0  0  0  0  0  0  0
  -24.5240   -9.6020   21.8960 C   0  0  0  0  0  3  0  0  0  0  0  0
  -23.8060   -8.4010   22.0760 C   0  0  0  0  0  3  0  0  0  0  0  0
  -22.6270   -8.1570   21.3340 C   0  0  0  0  0  0  0  0  0  0  0  0
  -22.1940   -9.1150   20.4010 C   0  0  0  0  0  3  0  0  0  0  0  0
  -22.9120  -10.3090   20.2150 C   0  0  0  0  0  3  0  0  0  0  0  0
  -21.8810   -7.0070   21.4280 O   0  0  0  0  0  0  0  0  0  0  0  0
  -21.8060   -6.2890   22.5950 C   0  0  0  0  0  0  0  0  0  0  0  0
  -21.3050   -6.8580   23.7860 C   0  0  0  0  0  3  0  0  0  0  0  0
  -21.1730   -6.0660   24.9450 C   0  0  0  0  0  3  0  0  0  0  0  0
  -21.5410   -4.7070   24.9140 C   0  0  0  0  0  0  0  0  0  0  0  0
  -22.0410   -4.1380   23.7290 C   0  0  0  0  0  3  0  0  0  0  0  0
  -22.1690   -4.9270   22.5720 C   0  0  0  0  0  0  0  0  0  0  0  0
  -22.6290   -4.3680   21.4260 F   0  0  0  0  0  0  0  0  0  0  0  0
  -21.4100   -3.9460   26.0240 F   0  0  0  0  0  0  0  0  0  0  0  0
  -22.9580  -13.6600   21.2410 C   0  0  0  0  0  0  0  0  0  0  0  0
  -22.2760  -12.9400   22.1250 N   0  0  0  0  0  0  0  0  0  0  0  0
  -22.4960  -14.7020   20.7780 O   0  0  0  0  0  0  0  0  0  0  0  0
  -22.6640  -12.0990   22.5240 H   0  0  0  0  0  0  0  0  0  0  0  0
  -21.3540  -13.2390   22.4080 H   0  0  0  0  0  0  0  0  0  0  0  0
  -25.5380  -15.3490   20.3200 N   0  0  0  0  0  0  0  0  0  0  0  0
  -24.7830  -16.0010   20.5010 H   0  0  0  0  0  0  0  0  0  0  0  0
  -26.3470  -15.7910   19.9010 H   0  0  0  0  0  0  0  0  0  0  0  0
  -28.2070  -25.1880   20.8840 C   0  0  0  0  0  2  0  0  0  0  0  0
  -28.4140  -26.5170   20.2190 O   0  0  0  0  0  0  0  0  0  0  0  0
  -24.6420  -31.9440   23.2550 C   0  0  0  0  0  0  0  0  0  0  0  0
  -27.3220  -27.4090   20.2020 C   0  0  0  0  0  0  0  0  0  0  0  0
  -23.4710  -30.5380   21.6020 C   0  0  0  0  0  3  0  0  0  0  0  0
  -24.9500  -29.0130   20.1800 C   0  0  0  0  0  0  0  0  0  0  0  0
  -26.0110  -30.8830   21.4410 C   0  0  0  0  0  2  0  0  0  0  0  0
  -26.1130  -29.5070   20.7850 C   0  0  0  0  0  0  0  0  0  0  0  0
  -27.3070  -28.7190   20.7850 C   0  0  0  0  0  3  0  0  0  0  0  0
  -26.1400  -26.9790   19.5730 C   0  0  0  0  0  3  0  0  0  0  0  0
  -24.9660  -27.7510   19.5650 C   0  0  0  0  0  3  0  0  0  0  0  0
  -23.7050  -29.8770   20.2200 C   0  0  0  0  0  2  0  0  0  0  0  0
  -24.7270  -31.1390   22.1560 N   0  0  0  0  0  0  0  0  0  0  0  0
  -23.5500  -32.2060   23.7820 O   0  0  0  0  0  0  0  0  0  0  0  0
  -22.8140  -29.5070   22.5500 C   0  0  0  0  0  0  0  0  0  0  0  0
  -21.4900  -29.3170   22.4180 N   0  0  0  0  0  0  0  0  0  0  0  0
  -23.4940  -28.8820   23.3690 O   0  0  0  0  0  0  0  0  0  0  0  0
  -21.0000  -29.8710   21.7310 H   0  0  0  0  0  0  0  0  0  0  0  0
  -18.1190  -28.1060   22.9240 C   0  0  0  0  0  0  0  0  0  0  0  0
  -20.6780  -28.3680   23.1820 C   0  0  0  0  0  3  0  0  0  0  0  0
  -20.7780  -26.9440   22.5880 C   0  0  0  0  0  2  0  0  0  0  0  0
  -19.6720  -26.6330   21.5760 C   0  0  0  0  0  2  0  0  0  0  0  0
  -18.2930  -26.7680   22.2270 C   0  0  0  0  0  2  0  0  0  0  0  0
  -19.2380  -28.8660   23.3580 C   0  0  0  0  0  0  0  0  0  0  0  0
  -19.0200  -30.1190   23.9700 C   0  0  0  0  0  3  0  0  0  0  0  0
  -17.7140  -30.6150   24.1500 C   0  0  0  0  0  3  0  0  0  0  0  0
  -16.6090  -29.8530   23.7310 C   0  0  0  0  0  3  0  0  0  0  0  0
  -16.8120  -28.6000   23.1260 C   0  0  0  0  0  3  0  0  0  0  0  0
  -25.9110  -32.5920   23.8890 C   0  0  0  0  0  3  0  0  0  0  0  0
  -25.5870  -33.9890   24.2060 N   0  0  0  0  0  0  0  0  0  0  0  0
  -25.9170  -35.0410   23.4430 C   0  0  0  0  0  0  0  0  0  0  0  0
  -26.5980  -34.9360   22.4210 O   0  0  0  0  0  0  0  0  0  0  0  0
  -24.9780  -34.1430   24.9970 H   0  0  0  0  0  0  0  0  0  0  0  0
  -24.1800  -36.8170   23.0520 C   0  0  0  0  0  1  0  0  0  0  0  0
  -25.4120  -36.4280   23.8840 C   0  0  0  0  0  3  0  0  0  0  0  0
  -27.5270  -37.3320   24.7430 C   0  0  0  0  0  1  0  0  0  0  0  0
  -26.4370  -37.4900   23.7820 N   0  0  0  0  0  0  0  0  0  0  0  0
  -26.0210  -38.4050   23.9250 H   0  0  0  0  0  0  0  0  0  0  0  0
  -26.4130  -31.8340   25.1770 C   0  0  1  0  0  0  0  0  0  0  0  0
  -25.3070  -31.5950   26.2300 C   0  0  0  0  0  1  0  0  0  0  0  0
  -27.0150  -30.4600   24.8050 C   0  0  0  0  0  1  0  0  0  0  0  0
  -27.5510  -32.6410   25.8470 C   0  0  0  0  0  1  0  0  0  0  0  0
  2  1  1  0
  3  5  1  6
  3  4  1  0
  3 52  1  0
  3  1  1  0
  4  8  1  0
  4  6  1  1
  7  4  1  0
  8  2  1  0
  9 10  1  0
  9 11  2  0
 10 12  2  0
 11  8  1  0
 11 13  1  0
 12 22  1  0
 12 13  1  0
 14 22  1  0
 15 20  1  0
 16 17  1  0
 16 15  1  0
 18 17  1  0
 18 27  1  0
 18 19  1  0
 20 14  1  0
 20 19  1  0
 21 14  2  0
 22 23  1  0
 24 25  2  0
 25 44  1  0
 26 25  1  0
 26 29  1  0
 27 28  1  0
 27 24  1  0
 28 26  2  0
 29 30  1  0
 30 31  2  0
 32 35  1  0
 32 31  1  0
 33 32  2  0
 34 33  1  0
 34 29  2  0
 35 36  1  0
 36 37  1  0
 37 38  2  0
 39 38  1  0
 39 43  1  0
 40 39  2  0
 41 36  2  0
 41 40  1  0
 42 41  1  0
 44 45  1  0
 45 48  1  0
 45 47  1  0
 46 44  2  0
 49 24  1  0
 49 50  1  0
 51 49  1  0
 53 52  1  0
 54 65  2  0
 55 53  1  0
 55 60  1  0
 56 64  1  0
 56 66  1  0
 57 63  1  0
 57 59  1  0
 58 64  1  0
 59 58  1  0
 60 59  2  0
 61 55  2  0
 62 61  1  0
 62 57  2  0
 63 56  1  0
 64 54  1  0
 66 68  2  0
 67 66  1  0
 69 67  1  0
 70 79  2  0
 70 75  1  0
 71 67  1  0
 71 75  1  0
 72 71  1  0
 73 74  1  0
 73 72  1  0
 74 70  1  0
 75 76  2  0
 76 77  1  0
 78 77  2  0
 79 78  1  0
 80 54  1  0
 80 81  1  0
 80 90  1  0
 81 84  1  0
 82 86  1  0
 82 81  1  0
 83 82  2  0
 86 85  1  0
 88 86  1  0
 88 89  1  0
 88 87  1  0
 90 93  1  1
 90 91  1  0
 92 90  1  0
M  ISO  4  14 100  22 100  52 101  53 101
M  END
>  <TORSDO>  (85) 
F 18

>  <SCORE>  (85) 
-14.432

>  <name>  (85) 
84

>  <ligand_id>  (85) 
84

>  <original_smiles>  (85) 
[H]c1c(N([H])C(=O)N2C([H])([H])C([H])([H])C([H])([H])C([H])(n3nc(-c4c([H])c([H])c(Oc5c([H])c([H])c(F)c([H])c5F)c([H])c4[H])c(C(=O)N([H])[H])c3N([H])[H])C2([H])[H])sc(N2C([H])([H])C([H])([H])C(C([H])([H])[H])(C([H])([H])Oc3c([H])c([H])c4c(c3[H])C([H])([H])N(C(=O)C([H])(N([H])C(=O)C([H])(N([H])C([H])([H])[H])C([H])([H])[H])C(C([H])([H])[H])(C([H])([H])[H])C([H])([H])[H])C([H])(C(=O)N([H])C3([H])c5c([H])c([H])c([H])c([H])c5C([H])([H])C([H])([H])C3([H])[H])C4([H])[H])C2(C([H])([H])[H])C([H])([H])[H])c1[H]

>  <smiles>  (85) 
[H]c1c(N([H])C(=O)N2C([H])([H])C([H])([H])C([H])([H])C([H])(n3nc(-c4c([H])c([H])c(Oc5c([H])c([H])c(F)c([H])c5F)c([H])c4[H])c(C(=O)N([H])[H])c3N([H])[H])C2([H])[H])sc(N2C([H])([H])C([H])([H])C(C([H])([H])[H])(C([H])([H])Oc3c([H])c([H])c4c(c3[H])C([H])([H])N(C(=O)C([H])(N([H])C(=O)C([H])(N([H])C([H])([H])[H])C([H])([H])[H])C(C([H])([H])[H])(C([H])([H])[H])C([H])([H])[H])C([H])(C(=O)N([H])C3([H])c5c([H])c([H])c([H])c([H])c5C([H])([H])C([H])([H])C3([H])[H])C4([H])[H])C2(C([H])([H])[H])C([H])([H])[H])c1[H]

$$$$
85:0:0
     RDKit          3D

 95103  0  0  1  0  0  0  0  0999 V2000
  -30.4310  -21.8630   20.2040 C   0  0  0  0  0  3  0  0  0  0  0  0
  -30.8020  -20.5460   20.0580 C   0  0  0  0  0  0  0  0  0  0  0  0
  -32.2340  -20.3110   19.5800 C   0  0  0  0  0  1  0  0  0  0  0  0
  -30.0760  -19.2240   20.1770 C   0  0  0  0  0  0  0  0  0  0  0  0
  -30.5030  -18.0650   20.9420 C   0  0  0  0  0  0  0  0  0  0  0  0
  -29.0240  -18.8120   19.4010 C   0  0  0  0  0  0  0  0  0  0  0  0
  -29.7730  -17.0060   20.4310 C   0  0  0  0  0  0  0  0  0  0  0  0
  -28.1580  -19.4830   18.3900 C   0  0  0  0  0  1  0  0  0  0  0  0
  -28.8220  -17.4620   19.5610 O   0  0  0  0  0  0  0  0  0  0  0  0
  -30.5830  -14.6630   20.3990 C   0  0  0  0  0  0  0  0  0  0  0  0
  -30.3960  -12.4280   19.3340 C   0  0  0  0  0  2  0  0  0  0  0  0
  -29.4660  -12.5620   18.1080 C   0  0  0  0  0  2  0  0  0  0  0  0
  -27.9850  -12.4130   18.5180 C   0  0  0  0  0  2  0  0  0  0  0  0
  -27.6130  -13.2770   19.7540 C   0  0  0  0  0  3  0  0  0  0  0  0
  -28.6550  -13.1000   20.8830 C   0  0  0  0  0  2  0  0  0  0  0  0
  -29.9760  -13.4380   20.3240 N   0  0  0  0  0  0  0  0  0  0  0  0
  -31.7350  -14.8390   19.9890 O   0  0  0  0  0  0  0  0  0  0  0  0
  -29.7870  -15.6850   20.8270 N   0  0  0  0  0  0  0  0  0  0  0  0
  -28.8880  -15.3430   21.1240 H   0  0  0  0  0  0  0  0  0  0  0  0
  -25.2100  -13.8940   20.4280 C   0  0  0  0  0  0  0  0  0  0  0  0
  -24.1360  -13.1270   20.7950 C   0  0  0  0  0  0  0  0  0  0  0  0
  -24.5960  -11.7740   20.7890 C   0  0  0  0  0  0  0  0  0  0  0  0
  -26.2550  -13.0060   20.2200 N   0  0  0  0  0  0  0  0  0  0  0  0
  -25.8910  -11.7280   20.4960 N   0  0  0  0  0  0  0  0  0  0  0  0
  -23.8650  -10.5160   20.9880 C   0  0  0  0  0  0  0  0  0  0  0  0
  -24.2820   -9.5630   21.9440 C   0  0  0  0  0  3  0  0  0  0  0  0
  -23.5520   -8.3690   22.1290 C   0  0  0  0  0  3  0  0  0  0  0  0
  -22.3910   -8.1200   21.3610 C   0  0  0  0  0  0  0  0  0  0  0  0
  -21.9930   -9.0620   20.3960 C   0  0  0  0  0  3  0  0  0  0  0  0
  -22.7230  -10.2470   20.2080 C   0  0  0  0  0  3  0  0  0  0  0  0
  -21.6350   -6.9760   21.4540 O   0  0  0  0  0  0  0  0  0  0  0  0
  -21.5760   -6.2450   22.6130 C   0  0  0  0  0  0  0  0  0  0  0  0
  -21.1420   -6.8130   23.8310 C   0  0  0  0  0  3  0  0  0  0  0  0
  -21.0300   -6.0090   24.9830 C   0  0  0  0  0  3  0  0  0  0  0  0
  -21.3420   -4.6370   24.9170 C   0  0  0  0  0  0  0  0  0  0  0  0
  -21.7670   -4.0690   23.7040 C   0  0  0  0  0  3  0  0  0  0  0  0
  -21.8810   -4.8710   22.5540 C   0  0  0  0  0  0  0  0  0  0  0  0
  -22.2720   -4.3130   21.3830 F   0  0  0  0  0  0  0  0  0  0  0  0
  -21.2260   -3.8630   26.0210 F   0  0  0  0  0  0  0  0  0  0  0  0
  -22.7370  -13.6110   21.0430 C   0  0  0  0  0  0  0  0  0  0  0  0
  -21.9940  -12.9280   21.9090 N   0  0  0  0  0  0  0  0  0  0  0  0
  -22.3080  -14.6290   20.5030 O   0  0  0  0  0  0  0  0  0  0  0  0
  -22.3530  -12.1060   22.3710 H   0  0  0  0  0  0  0  0  0  0  0  0
  -21.0540  -13.2360   22.1130 H   0  0  0  0  0  0  0  0  0  0  0  0
  -25.3760  -15.2620   20.2340 N   0  0  0  0  0  0  0  0  0  0  0  0
  -24.6010  -15.9100   20.3240 H   0  0  0  0  0  0  0  0  0  0  0  0
  -26.2220  -15.7010   19.8940 H   0  0  0  0  0  0  0  0  0  0  0  0
  -30.9580  -17.5000   23.3750 C   0  0  0  0  0  1  0  0  0  0  0  0
  -31.5360  -18.0060   22.0470 C   0  0  0  0  0  2  0  0  0  0  0  0
  -29.1550  -22.6760   20.5710 C   0  0  0  0  0  2  0  0  0  0  0  0
  -30.2470  -24.6700   19.2750 C   0  0  0  0  0  1  0  0  0  0  0  0
  -28.0350  -23.7850   18.5670 C   0  0  0  0  0  1  0  0  0  0  0  0
  -28.9200  -24.0710   19.7900 C   0  0  1  0  0  0  0  0  0  0  0  0
  -28.2100  -25.2000   20.6610 C   0  0  0  0  0  2  0  0  0  0  0  0
  -28.3060  -26.5920   20.1870 O   0  0  0  0  0  0  0  0  0  0  0  0
  -24.5370  -31.9080   23.2360 C   0  0  0  0  0  0  0  0  0  0  0  0
  -27.1580  -27.3840   20.1920 C   0  0  0  0  0  0  0  0  0  0  0  0
  -23.3260  -30.5000   21.6030 C   0  0  0  0  0  3  0  0  0  0  0  0
  -24.7770  -28.9480   20.1800 C   0  0  0  0  0  0  0  0  0  0  0  0
  -25.8570  -30.8420   21.3980 C   0  0  0  0  0  2  0  0  0  0  0  0
  -25.9420  -29.4600   20.7660 C   0  0  0  0  0  0  0  0  0  0  0  0
  -27.1370  -28.6890   20.7620 C   0  0  0  0  0  3  0  0  0  0  0  0
  -25.9760  -26.9100   19.5870 C   0  0  0  0  0  3  0  0  0  0  0  0
  -24.7930  -27.6770   19.5800 C   0  0  0  0  0  3  0  0  0  0  0  0
  -23.5350  -29.8150   20.2250 C   0  0  0  0  0  2  0  0  0  0  0  0
  -24.5920  -31.1000   22.1380 N   0  0  0  0  0  0  0  0  0  0  0  0
  -23.4560  -32.1820   23.7790 O   0  0  0  0  0  0  0  0  0  0  0  0
  -22.6770  -29.4840   22.5720 C   0  0  0  0  0  0  0  0  0  0  0  0
  -21.3500  -29.3000   22.4510 N   0  0  0  0  0  0  0  0  0  0  0  0
  -23.3620  -28.8640   23.3890 O   0  0  0  0  0  0  0  0  0  0  0  0
  -20.8560  -29.8540   21.7660 H   0  0  0  0  0  0  0  0  0  0  0  0
  -17.9810  -28.0960   22.9650 C   0  0  0  0  0  0  0  0  0  0  0  0
  -20.5390  -28.3620   23.2280 C   0  0  0  0  0  3  0  0  0  0  0  0
  -20.6440  -26.9290   22.6580 C   0  0  0  0  0  2  0  0  0  0  0  0
  -19.5410  -26.5990   21.6480 C   0  0  0  0  0  2  0  0  0  0  0  0
  -18.1590  -26.7440   22.2940 C   0  0  0  0  0  2  0  0  0  0  0  0
  -19.0980  -28.8620   23.3880 C   0  0  0  0  0  0  0  0  0  0  0  0
  -18.8780  -30.1270   23.9740 C   0  0  0  0  0  3  0  0  0  0  0  0
  -17.5720  -30.6260   24.1420 C   0  0  0  0  0  3  0  0  0  0  0  0
  -16.4690  -29.8570   23.7340 C   0  0  0  0  0  3  0  0  0  0  0  0
  -16.6740  -28.5940   23.1510 C   0  0  0  0  0  3  0  0  0  0  0  0
  -25.8240  -32.5440   23.8490 C   0  0  0  0  0  3  0  0  0  0  0  0
  -25.5190  -33.9470   24.1580 N   0  0  0  0  0  0  0  0  0  0  0  0
  -25.8580  -34.9900   23.3880 C   0  0  0  0  0  0  0  0  0  0  0  0
  -26.5320  -34.8720   22.3620 O   0  0  0  0  0  0  0  0  0  0  0  0
  -24.9250  -34.1150   24.9570 H   0  0  0  0  0  0  0  0  0  0  0  0
  -24.1430  -36.7890   23.0000 C   0  0  0  0  0  1  0  0  0  0  0  0
  -25.3740  -36.3850   23.8280 C   0  0  0  0  0  3  0  0  0  0  0  0
  -27.5040  -37.2680   24.6710 C   0  0  0  0  0  1  0  0  0  0  0  0
  -26.4120  -37.4320   23.7150 N   0  0  0  0  0  0  0  0  0  0  0  0
  -26.0100  -38.3550   23.8500 H   0  0  0  0  0  0  0  0  0  0  0  0
  -26.3400  -31.7890   25.1340 C   0  0  1  0  0  0  0  0  0  0  0  0
  -25.2470  -31.5710   26.2060 C   0  0  0  0  0  1  0  0  0  0  0  0
  -26.9180  -30.4050   24.7600 C   0  0  0  0  0  1  0  0  0  0  0  0
  -27.4920  -32.5880   25.7880 C   0  0  0  0  0  1  0  0  0  0  0  0
  1 50  1  0
  2  4  1  0
  2  1  2  0
  3  2  1  0
  4  5  1  0
  5 49  1  0
  6  9  1  0
  6  4  2  0
  7 18  1  0
  7  5  2  0
  8  6  1  0
  9  7  1  0
 10 18  1  0
 11 16  1  0
 12 13  1  0
 12 11  1  0
 14 13  1  0
 14 23  1  0
 14 15  1  0
 16 10  1  0
 16 15  1  0
 17 10  2  0
 18 19  1  0
 20 21  2  0
 21 40  1  0
 22 21  1  0
 22 25  1  0
 23 20  1  0
 23 24  1  0
 24 22  2  0
 25 26  1  0
 26 27  2  0
 28 31  1  0
 28 27  1  0
 29 28  2  0
 30 29  1  0
 30 25  2  0
 31 32  1  0
 32 33  1  0
 33 34  2  0
 35 34  1  0
 35 39  1  0
 36 35  2  0
 37 32  2  0
 37 36  1  0
 38 37  1  0
 40 41  1  0
 41 44  1  0
 41 43  1  0
 42 40  2  0
 45 46  1  0
 45 20  1  0
 47 45  1  0
 49 48  1  0
 53 51  1  6
 52 53  1  0
 53 50  1  0
 53 54  1  0
 55 57  1  0
 55 54  1  0
 56 67  2  0
 57 62  1  0
 58 66  1  0
 58 68  1  0
 59 65  1  0
 59 61  1  0
 60 66  1  0
 61 60  1  0
 62 61  2  0
 63 57  2  0
 64 63  1  0
 64 59  2  0
 65 58  1  0
 66 56  1  0
 68 70  2  0
 69 68  1  0
 71 69  1  0
 72 81  2  0
 72 77  1  0
 73 69  1  0
 73 77  1  0
 74 73  1  0
 75 76  1  0
 75 74  1  0
 76 72  1  0
 77 78  2  0
 78 79  1  0
 80 79  2  0
 81 80  1  0
 82 56  1  0
 82 83  1  0
 82 92  1  0
 83 86  1  0
 84 88  1  0
 84 83  1  0
 85 84  2  0
 88 87  1  0
 90 88  1  0
 90 91  1  0
 90 89  1  0
 92 95  1  1
 92 93  1  0
 94 92  1  0
M  ISO  4  10 100  18 100  54 101  55 101
M  END
>  <TORSDO>  (86) 
F 21

>  <SCORE>  (86) 
-13.147

>  <name>  (86) 
85

>  <ligand_id>  (86) 
85

>  <original_smiles>  (86) 
[H]C(=C(c1c(C([H])([H])[H])oc(N([H])C(=O)N2C([H])([H])C([H])([H])C([H])([H])C([H])(n3nc(-c4c([H])c([H])c(Oc5c([H])c([H])c(F)c([H])c5F)c([H])c4[H])c(C(=O)N([H])[H])c3N([H])[H])C2([H])[H])c1C([H])([H])C([H])([H])[H])C([H])([H])[H])C([H])([H])C(C([H])([H])[H])(C([H])([H])[H])C([H])([H])Oc1c([H])c([H])c2c(c1[H])C([H])([H])N(C(=O)C([H])(N([H])C(=O)C([H])(N([H])C([H])([H])[H])C([H])([H])[H])C(C([H])([H])[H])(C([H])([H])[H])C([H])([H])[H])C([H])(C(=O)N([H])C1([H])c3c([H])c([H])c([H])c([H])c3C([H])([H])C([H])([H])C1([H])[H])C2([H])[H]

>  <smiles>  (86) 
[H]C(=C(c1c(C([H])([H])[H])oc(N([H])C(=O)N2C([H])([H])C([H])([H])C([H])([H])C([H])(n3nc(-c4c([H])c([H])c(Oc5c([H])c([H])c(F)c([H])c5F)c([H])c4[H])c(C(=O)N([H])[H])c3N([H])[H])C2([H])[H])c1C([H])([H])C([H])([H])[H])C([H])([H])[H])C([H])([H])C(C([H])([H])[H])(C([H])([H])[H])C([H])([H])Oc1c([H])c([H])c2c(c1[H])C([H])([H])N(C(=O)C([H])(N([H])C(=O)C([H])(N([H])C([H])([H])[H])C([H])([H])[H])C(C([H])([H])[H])(C([H])([H])[H])C([H])([H])[H])C([H])(C(=O)N([H])C1([H])c3c([H])c([H])c([H])c([H])c3C([H])([H])C([H])([H])C1([H])[H])C2([H])[H]

$$$$
86:0:0
     RDKit          3D

 99107  0  0  1  0  0  0  0  0999 V2000
  -28.2200  -18.5160   18.2140 C   0  0  0  0  0  3  0  0  0  0  0  0
  -29.2800  -19.4680   20.5930 C   0  0  0  0  0  3  0  0  0  0  0  0
  -29.0500  -17.6710   18.9740 C   0  0  0  0  0  0  0  0  0  0  0  0
  -27.9640  -19.8640   18.5570 C   0  0  0  0  0  0  0  0  0  0  0  0
  -29.5150  -18.1040   20.2440 C   0  0  0  0  0  0  0  0  0  0  0  0
  -28.5840  -20.3720   19.7410 C   0  0  0  0  0  0  0  0  0  0  0  0
  -29.4440  -16.3480   18.3300 C   0  0  0  0  0  1  0  0  0  0  0  0
  -25.5790  -20.1030   17.7610 C   0  0  0  0  0  1  0  0  0  0  0  0
  -27.4590  -20.5150   16.1360 C   0  0  0  0  0  1  0  0  0  0  0  0
  -26.9490  -22.1830   17.8490 C   0  0  0  0  0  1  0  0  0  0  0  0
  -27.0160  -20.6590   17.6090 C   0  0  2  0  0  0  0  0  0  0  0  0
  -30.3200  -17.1960   21.2060 C   0  0  0  0  0  2  0  0  0  0  0  0
  -30.8450  -14.7190   20.8660 C   0  0  0  0  0  0  0  0  0  0  0  0
  -30.6990  -12.4790   19.8350 C   0  0  0  0  0  2  0  0  0  0  0  0
  -29.8370  -12.5650   18.5610 C   0  0  0  0  0  2  0  0  0  0  0  0
  -28.3490  -12.3850   18.9220 C   0  0  0  0  0  2  0  0  0  0  0  0
  -27.8910  -13.3180   20.0740 C   0  0  0  0  0  3  0  0  0  0  0  0
  -28.8690  -13.2200   21.2670 C   0  0  0  0  0  2  0  0  0  0  0  0
  -30.2220  -13.5150   20.7670 N   0  0  0  0  0  0  0  0  0  0  0  0
  -32.0140  -14.8980   20.5160 O   0  0  0  0  0  0  0  0  0  0  0  0
  -30.0260  -15.7470   21.1880 N   0  0  0  0  0  0  0  0  0  0  0  0
  -29.0840  -15.4900   21.4290 H   0  0  0  0  0  0  0  0  0  0  0  0
  -25.4600  -13.9320   20.6660 C   0  0  0  0  0  0  0  0  0  0  0  0
  -24.3740  -13.1560   20.9760 C   0  0  0  0  0  0  0  0  0  0  0  0
  -24.8430  -11.8070   20.9730 C   0  0  0  0  0  0  0  0  0  0  0  0
  -26.5150  -13.0480   20.4800 N   0  0  0  0  0  0  0  0  0  0  0  0
  -26.1460  -11.7680   20.7350 N   0  0  0  0  0  0  0  0  0  0  0  0
  -24.1130  -10.5420   21.1190 C   0  0  0  0  0  0  0  0  0  0  0  0
  -24.5100   -9.5680   22.0600 C   0  0  0  0  0  3  0  0  0  0  0  0
  -23.7790   -8.3660   22.1950 C   0  0  0  0  0  3  0  0  0  0  0  0
  -22.6390   -8.1350   21.3900 C   0  0  0  0  0  0  0  0  0  0  0  0
  -22.2650   -9.0970   20.4360 C   0  0  0  0  0  3  0  0  0  0  0  0
  -22.9970  -10.2890   20.2970 C   0  0  0  0  0  3  0  0  0  0  0  0
  -21.8800   -6.9910   21.4360 O   0  0  0  0  0  0  0  0  0  0  0  0
  -21.7900   -6.2350   22.5760 C   0  0  0  0  0  0  0  0  0  0  0  0
  -21.3260   -6.7740   23.7960 C   0  0  0  0  0  3  0  0  0  0  0  0
  -21.1900   -5.9470   24.9280 C   0  0  0  0  0  3  0  0  0  0  0  0
  -21.5040   -4.5750   24.8400 C   0  0  0  0  0  0  0  0  0  0  0  0
  -21.9590   -4.0350   23.6260 C   0  0  0  0  0  3  0  0  0  0  0  0
  -22.1010   -4.8620   22.4980 C   0  0  0  0  0  0  0  0  0  0  0  0
  -22.5220   -4.3300   21.3250 F   0  0  0  0  0  0  0  0  0  0  0  0
  -21.3650   -3.7770   25.9250 F   0  0  0  0  0  0  0  0  0  0  0  0
  -22.9630  -13.6310   21.1650 C   0  0  0  0  0  0  0  0  0  0  0  0
  -22.1920  -12.9370   21.9980 N   0  0  0  0  0  0  0  0  0  0  0  0
  -22.5490  -14.6510   20.6160 O   0  0  0  0  0  0  0  0  0  0  0  0
  -22.5460  -12.1210   22.4720 H   0  0  0  0  0  0  0  0  0  0  0  0
  -21.2390  -13.2280   22.1650 H   0  0  0  0  0  0  0  0  0  0  0  0
  -25.6140  -15.3040   20.5070 N   0  0  0  0  0  0  0  0  0  0  0  0
  -24.8290  -15.9300   20.6500 H   0  0  0  0  0  0  0  0  0  0  0  0
  -26.4610  -15.7790   20.2150 H   0  0  0  0  0  0  0  0  0  0  0  0
  -28.6530  -21.7380   19.9710 O   0  0  0  0  0  0  0  0  0  0  0  0
  -28.1710  -22.2980   21.1960 C   0  0  0  0  0  2  0  0  0  0  0  0
  -30.2630  -22.9990   22.3950 C   0  0  0  0  0  1  0  0  0  0  0  0
  -28.1560  -24.2640   22.7680 C   0  0  0  0  0  1  0  0  0  0  0  0
  -28.9930  -23.5330   21.6880 C   0  0  2  0  0  0  0  0  0  0  0  0
  -29.3780  -24.5650   20.5660 C   0  0  0  0  0  0  0  0  0  0  0  0
  -30.5630  -24.7860   20.2950 O   0  0  0  0  0  0  0  0  0  0  0  0
  -28.2760  -25.3170   19.7800 C   0  0  0  0  0  2  0  0  0  0  0  0
  -28.4760  -26.7670   19.7470 O   0  0  0  0  0  0  0  0  0  0  0  0
  -24.5450  -31.7520   23.0230 C   0  0  0  0  0  0  0  0  0  0  0  0
  -27.3160  -27.5300   19.7210 C   0  0  0  0  0  0  0  0  0  0  0  0
  -23.3790  -30.3650   21.3450 C   0  0  0  0  0  3  0  0  0  0  0  0
  -24.8740  -28.9740   19.8230 C   0  0  0  0  0  0  0  0  0  0  0  0
  -25.8880  -30.8510   21.1200 C   0  0  0  0  0  2  0  0  0  0  0  0
  -26.0260  -29.5140   20.4100 C   0  0  0  0  0  0  0  0  0  0  0  0
  -27.2540  -28.8020   20.3500 C   0  0  0  0  0  3  0  0  0  0  0  0
  -26.1450  -27.0310   19.1090 C   0  0  0  0  0  3  0  0  0  0  0  0
  -24.9300  -27.7360   19.1690 C   0  0  0  0  0  3  0  0  0  0  0  0
  -23.5930  -29.7690   19.9320 C   0  0  0  0  0  2  0  0  0  0  0  0
  -24.6230  -31.0040   21.8870 N   0  0  0  0  0  0  0  0  0  0  0  0
  -23.4610  -31.9420   23.5940 O   0  0  0  0  0  0  0  0  0  0  0  0
  -22.7990  -29.2680   22.2650 C   0  0  0  0  0  0  0  0  0  0  0  0
  -21.4770  -29.0510   22.1760 N   0  0  0  0  0  0  0  0  0  0  0  0
  -23.5330  -28.6210   23.0150 O   0  0  0  0  0  0  0  0  0  0  0  0
  -20.9380  -29.6500   21.5700 H   0  0  0  0  0  0  0  0  0  0  0  0
  -18.1780  -27.6660   22.6820 C   0  0  0  0  0  0  0  0  0  0  0  0
  -20.7290  -28.0260   22.9000 C   0  0  0  0  0  3  0  0  0  0  0  0
  -20.8830  -26.6450   22.2210 C   0  0  0  0  0  2  0  0  0  0  0  0
  -19.7610  -26.3340   21.2260 C   0  0  0  0  0  2  0  0  0  0  0  0
  -18.3960  -26.3710   21.9170 C   0  0  0  0  0  2  0  0  0  0  0  0
  -19.2740  -28.4540   23.1240 C   0  0  0  0  0  0  0  0  0  0  0  0
  -19.0150  -29.6800   23.7770 C   0  0  0  0  0  3  0  0  0  0  0  0
  -17.6960  -30.1110   24.0050 C   0  0  0  0  0  3  0  0  0  0  0  0
  -16.6150  -29.3140   23.5860 C   0  0  0  0  0  3  0  0  0  0  0  0
  -16.8560  -28.0970   22.9250 C   0  0  0  0  0  3  0  0  0  0  0  0
  -25.8040  -32.4260   23.6460 C   0  0  0  0  0  3  0  0  0  0  0  0
  -25.4260  -33.7870   24.0540 N   0  0  0  0  0  0  0  0  0  0  0  0
  -25.6930  -34.8940   23.3470 C   0  0  0  0  0  0  0  0  0  0  0  0
  -26.3560  -34.8800   22.3050 O   0  0  0  0  0  0  0  0  0  0  0  0
  -24.8240  -33.8660   24.8610 H   0  0  0  0  0  0  0  0  0  0  0  0
  -23.8720  -36.6120   23.1010 C   0  0  0  0  0  1  0  0  0  0  0  0
  -25.1410  -36.2290   23.8800 C   0  0  0  0  0  3  0  0  0  0  0  0
  -27.2350  -37.1850   24.7370 C   0  0  0  0  0  1  0  0  0  0  0  0
  -26.1140  -37.3390   23.8140 N   0  0  0  0  0  0  0  0  0  0  0  0
  -25.6610  -38.2260   24.0200 H   0  0  0  0  0  0  0  0  0  0  0  0
  -26.3990  -31.6160   24.8630 C   0  0  1  0  0  0  0  0  0  0  0  0
  -25.3580  -31.2690   25.9530 C   0  0  0  0  0  1  0  0  0  0  0  0
  -27.0280  -30.2890   24.3760 C   0  0  0  0  0  1  0  0  0  0  0  0
  -27.5340  -32.4280   25.5280 C   0  0  0  0  0  1  0  0  0  0  0  0
  1  4  2  0
  1  3  1  0
  3  5  2  0
  4  6  1  0
  5  2  1  0
  5 12  1  0
  6 51  1  0
  6  2  2  0
  7  3  1  0
 11  9  1  6
 11  8  1  0
 11 10  1  0
 11  4  1  0
 13 21  1  0
 14 19  1  0
 15 16  1  0
 15 14  1  0
 17 16  1  0
 17 26  1  0
 17 18  1  0
 19 13  1  0
 19 18  1  0
 20 13  2  0
 21 12  1  0
 21 22  1  0
 23 24  2  0
 24 43  1  0
 25 24  1  0
 25 28  1  0
 26 23  1  0
 26 27  1  0
 27 25  2  0
 28 29  1  0
 29 30  2  0
 31 34  1  0
 31 30  1  0
 32 31  2  0
 33 32  1  0
 33 28  2  0
 34 35  1  0
 35 36  1  0
 36 37  2  0
 38 37  1  0
 38 42  1  0
 39 38  2  0
 40 35  2  0
 40 39  1  0
 41 40  1  0
 43 44  1  0
 44 47  1  0
 44 46  1  0
 45 43  2  0
 48 49  1  0
 48 23  1  0
 50 48  1  0
 51 52  1  0
 52 55  1  0
 55 53  1  1
 55 54  1  0
 56 55  1  0
 57 56  2  0
 58 56  1  0
 59 58  1  0
 60 71  2  0
 61 59  1  0
 61 66  1  0
 62 70  1  0
 62 72  1  0
 63 69  1  0
 63 65  1  0
 64 70  1  0
 65 64  1  0
 66 65  2  0
 67 68  1  0
 67 61  2  0
 68 63  2  0
 69 62  1  0
 70 60  1  0
 72 74  2  0
 73 72  1  0
 75 73  1  0
 76 85  2  0
 76 81  1  0
 77 73  1  0
 77 81  1  0
 78 77  1  0
 79 80  1  0
 79 78  1  0
 80 76  1  0
 81 82  2  0
 82 83  1  0
 84 83  2  0
 85 84  1  0
 86 60  1  0
 86 87  1  0
 86 96  1  0
 87 90  1  0
 88 92  1  0
 88 87  1  0
 89 88  2  0
 92 91  1  0
 94 92  1  0
 94 95  1  0
 94 93  1  0
 96 99  1  1
 96 97  1  0
 98 96  1  0
M  ISO  4  13 100  21 100  58 101  59 101
M  END
>  <TORSDO>  (87) 
F 23

>  <SCORE>  (87) 
-11.021

>  <name>  (87) 
86

>  <ligand_id>  (87) 
86

>  <original_smiles>  (87) 
[H]c1c([H])c([H])c2c(c1[H])C([H])([H])C([H])([H])C([H])([H])C2([H])N([H])C(=O)C1([H])N(C(=O)C([H])(N([H])C(=O)C([H])(N([H])C([H])([H])[H])C([H])([H])[H])C(C([H])([H])[H])(C([H])([H])[H])C([H])([H])[H])C([H])([H])c2c([H])c(OC([H])([H])C(=O)C(C([H])([H])[H])(C([H])([H])[H])C([H])([H])Oc3c([H])c(C([H])([H])N([H])C(=O)N4C([H])([H])C([H])([H])C([H])([H])C([H])(n5nc(-c6c([H])c([H])c(Oc7c([H])c([H])c(F)c([H])c7F)c([H])c6[H])c(C(=O)N([H])[H])c5N([H])[H])C4([H])[H])c(C([H])([H])[H])c([H])c3C(C([H])([H])[H])(C([H])([H])[H])C([H])([H])[H])c([H])c([H])c2C1([H])[H]

>  <smiles>  (87) 
[H]c1c([H])c([H])c2c(c1[H])C([H])([H])C([H])([H])C([H])([H])C2([H])N([H])C(=O)C1([H])N(C(=O)C([H])(N([H])C(=O)C([H])(N([H])C([H])([H])[H])C([H])([H])[H])C(C([H])([H])[H])(C([H])([H])[H])C([H])([H])[H])C([H])([H])c2c([H])c(OC([H])([H])C(=O)C(C([H])([H])[H])(C([H])([H])[H])C([H])([H])Oc3c([H])c(C([H])([H])N([H])C(=O)N4C([H])([H])C([H])([H])C([H])([H])C([H])(n5nc(-c6c([H])c([H])c(Oc7c([H])c([H])c(F)c([H])c7F)c([H])c6[H])c(C(=O)N([H])[H])c5N([H])[H])C4([H])[H])c(C([H])([H])[H])c([H])c3C(C([H])([H])[H])(C([H])([H])[H])C([H])([H])[H])c([H])c([H])c2C1([H])[H]

$$$$
87:0:0
     RDKit          3D

 92100  0  0  1  0  0  0  0  0999 V2000
  -30.8000  -22.0910   21.7790 C   0  0  0  0  0  1  0  0  0  0  0  0
  -29.5740  -22.3970   20.8700 C   0  0  0  0  0  3  0  0  0  0  0  0
  -30.2690  -23.9410   18.9130 C   0  0  0  0  0  1  0  0  0  0  0  0
  -29.6130  -23.9810   20.3070 C   0  0  2  0  0  0  0  0  0  0  0  0
  -29.9520  -25.3070   22.5660 C   0  0  0  0  0  1  0  0  0  0  0  0
  -30.5350  -24.8840   21.1980 C   0  0  0  0  0  2  0  0  0  0  0  0
  -28.2690  -24.8950   20.1620 C   0  0  0  0  0  2  0  0  0  0  0  0
  -28.4150  -26.3970   20.0350 O   0  0  0  0  0  0  0  0  0  0  0  0
  -24.5870  -31.7680   23.0940 C   0  0  0  0  0  0  0  0  0  0  0  0
  -27.2850  -27.2450   20.0100 C   0  0  0  0  0  0  0  0  0  0  0  0
  -23.4200  -30.3790   21.4200 C   0  0  0  0  0  3  0  0  0  0  0  0
  -24.9050  -28.8600   19.9900 C   0  0  0  0  0  0  0  0  0  0  0  0
  -25.9600  -30.7220   21.2710 C   0  0  0  0  0  2  0  0  0  0  0  0
  -26.0650  -29.3480   20.6050 C   0  0  0  0  0  0  0  0  0  0  0  0
  -27.2580  -28.5570   20.5980 C   0  0  0  0  0  3  0  0  0  0  0  0
  -26.0980  -26.8190   19.3750 C   0  0  0  0  0  3  0  0  0  0  0  0
  -24.9280  -27.6040   19.3640 C   0  0  0  0  0  3  0  0  0  0  0  0
  -23.6590  -29.7230   20.0340 C   0  0  0  0  0  2  0  0  0  0  0  0
  -24.6740  -30.9740   21.9850 N   0  0  0  0  0  0  0  0  0  0  0  0
  -23.4940  -32.0260   23.6190 O   0  0  0  0  0  0  0  0  0  0  0  0
  -22.7550  -29.3440   22.3600 C   0  0  0  0  0  0  0  0  0  0  0  0
  -21.4290  -29.1680   22.2290 N   0  0  0  0  0  0  0  0  0  0  0  0
  -23.4330  -28.7020   23.1660 O   0  0  0  0  0  0  0  0  0  0  0  0
  -20.9410  -29.7370   21.5510 H   0  0  0  0  0  0  0  0  0  0  0  0
  -18.0500  -27.9680   22.7190 C   0  0  0  0  0  0  0  0  0  0  0  0
  -20.6110  -28.2130   22.9790 C   0  0  0  0  0  3  0  0  0  0  0  0
  -20.7050  -26.7970   22.3640 C   0  0  0  0  0  2  0  0  0  0  0  0
  -19.5960  -26.5060   21.3480 C   0  0  0  0  0  2  0  0  0  0  0  0
  -18.2190  -26.6380   22.0050 C   0  0  0  0  0  2  0  0  0  0  0  0
  -19.1740  -28.7150   23.1620 C   0  0  0  0  0  0  0  0  0  0  0  0
  -18.9630  -29.9610   23.7920 C   0  0  0  0  0  3  0  0  0  0  0  0
  -17.6610  -30.4610   23.9800 C   0  0  0  0  0  3  0  0  0  0  0  0
  -16.5510  -29.7110   23.5530 C   0  0  0  0  0  3  0  0  0  0  0  0
  -16.7480  -28.4670   22.9290 C   0  0  0  0  0  3  0  0  0  0  0  0
  -25.8530  -32.4090   23.7400 C   0  0  0  0  0  3  0  0  0  0  0  0
  -25.5190  -33.7960   24.0950 N   0  0  0  0  0  0  0  0  0  0  0  0
  -25.8480  -34.8710   23.3660 C   0  0  0  0  0  0  0  0  0  0  0  0
  -26.5330  -34.7990   22.3420 O   0  0  0  0  0  0  0  0  0  0  0  0
  -24.9110  -33.9240   24.8910 H   0  0  0  0  0  0  0  0  0  0  0  0
  -24.1070  -36.6550   23.0220 C   0  0  0  0  0  1  0  0  0  0  0  0
  -25.3370  -36.2430   23.8470 C   0  0  0  0  0  3  0  0  0  0  0  0
  -27.4440  -37.1290   24.7420 C   0  0  0  0  0  1  0  0  0  0  0  0
  -26.3600  -37.3090   23.7810 N   0  0  0  0  0  0  0  0  0  0  0  0
  -25.9410  -38.2210   23.9420 H   0  0  0  0  0  0  0  0  0  0  0  0
  -26.3680  -31.6220   25.0080 C   0  0  1  0  0  0  0  0  0  0  0  0
  -25.2670  -31.3490   26.0600 C   0  0  0  0  0  1  0  0  0  0  0  0
  -26.9750  -30.2600   24.5990 C   0  0  0  0  0  1  0  0  0  0  0  0
  -27.5010  -32.4200   25.6970 C   0  0  0  0  0  1  0  0  0  0  0  0
  -29.4660  -21.0880   19.8860 C   0  0  0  0  0  2  0  0  0  0  0  0
  -29.9190  -18.3270   19.5990 C   0  0  0  0  0  3  0  0  0  0  0  0
  -29.7850  -19.0720   21.6530 C   0  0  0  0  0  3  0  0  0  0  0  0
  -29.7400  -19.5680   20.3680 C   0  0  0  0  0  0  0  0  0  0  0  0
  -30.0930  -17.2320   20.4530 C   0  0  0  0  0  0  0  0  0  0  0  0
  -29.9810  -17.7080   21.7220 O   0  0  0  0  0  0  0  0  0  0  0  0
  -30.7920  -14.7840   20.0090 C   0  0  0  0  0  0  0  0  0  0  0  0
  -30.5840  -12.5080   18.9800 C   0  0  0  0  0  2  0  0  0  0  0  0
  -29.5880  -12.5850   17.8000 C   0  0  0  0  0  2  0  0  0  0  0  0
  -28.1360  -12.4130   18.2910 C   0  0  0  0  0  2  0  0  0  0  0  0
  -27.8160  -13.2960   19.5250 C   0  0  0  0  0  3  0  0  0  0  0  0
  -28.9200  -13.1800   20.6000 C   0  0  0  0  0  2  0  0  0  0  0  0
  -30.1930  -13.5440   19.9600 N   0  0  0  0  0  0  0  0  0  0  0  0
  -31.9680  -14.9200   19.6530 O   0  0  0  0  0  0  0  0  0  0  0  0
  -29.9380  -15.8600   20.2050 N   0  0  0  0  0  0  0  0  0  0  0  0
  -29.0050  -15.5350   20.4020 H   0  0  0  0  0  0  0  0  0  0  0  0
  -25.4680  -13.9140   20.3590 C   0  0  0  0  0  0  0  0  0  0  0  0
  -24.4090  -13.1500   20.7660 C   0  0  0  0  0  0  0  0  0  0  0  0
  -24.8520  -11.7930   20.6990 C   0  0  0  0  0  0  0  0  0  0  0  0
  -26.4900  -13.0230   20.0680 N   0  0  0  0  0  0  0  0  0  0  0  0
  -26.1280  -11.7420   20.3360 N   0  0  0  0  0  0  0  0  0  0  0  0
  -24.1180  -10.5380   20.9040 C   0  0  0  0  0  0  0  0  0  0  0  0
  -24.5440   -9.5790   21.8500 C   0  0  0  0  0  3  0  0  0  0  0  0
  -23.8100   -8.3890   22.0420 C   0  0  0  0  0  3  0  0  0  0  0  0
  -22.6370   -8.1490   21.2880 C   0  0  0  0  0  0  0  0  0  0  0  0
  -22.2300   -9.0970   20.3310 C   0  0  0  0  0  3  0  0  0  0  0  0
  -22.9650  -10.2780   20.1380 C   0  0  0  0  0  3  0  0  0  0  0  0
  -21.8760   -7.0100   21.3880 O   0  0  0  0  0  0  0  0  0  0  0  0
  -21.7720   -6.3140   22.5670 C   0  0  0  0  0  0  0  0  0  0  0  0
  -21.2920   -6.9200   23.7480 C   0  0  0  0  0  3  0  0  0  0  0  0
  -21.1360   -6.1510   24.9200 C   0  0  0  0  0  3  0  0  0  0  0  0
  -21.4510   -4.7780   24.9090 C   0  0  0  0  0  0  0  0  0  0  0  0
  -21.9230   -4.1730   23.7310 C   0  0  0  0  0  3  0  0  0  0  0  0
  -22.0800   -4.9390   22.5620 C   0  0  0  0  0  0  0  0  0  0  0  0
  -22.5160   -4.3470   21.4250 F   0  0  0  0  0  0  0  0  0  0  0  0
  -21.2930   -4.0380   26.0310 F   0  0  0  0  0  0  0  0  0  0  0  0
  -23.0300  -13.6420   21.0990 C   0  0  0  0  0  0  0  0  0  0  0  0
  -22.3300  -12.9480   21.9900 N   0  0  0  0  0  0  0  0  0  0  0  0
  -22.5840  -14.6770   20.6050 O   0  0  0  0  0  0  0  0  0  0  0  0
  -22.7040  -12.1100   22.4100 H   0  0  0  0  0  0  0  0  0  0  0  0
  -21.4060  -13.2600   22.2550 H   0  0  0  0  0  0  0  0  0  0  0  0
  -25.6410  -15.2850   20.1890 N   0  0  0  0  0  0  0  0  0  0  0  0
  -24.8790  -15.9400   20.3360 H   0  0  0  0  0  0  0  0  0  0  0  0
  -26.4590  -15.7210   19.7840 H   0  0  0  0  0  0  0  0  0  0  0  0
  2  1  1  0
  4  3  1  6
  4  2  1  0
  4  6  1  0
  6  5  1  0
  7  4  1  0
  8  7  1  0
  9 20  2  0
 10  8  1  0
 10 15  1  0
 11 19  1  0
 11 21  1  0
 12 18  1  0
 12 14  1  0
 13 19  1  0
 14 13  1  0
 15 14  2  0
 16 10  2  0
 17 16  1  0
 17 12  2  0
 18 11  1  0
 19  9  1  0
 21 23  2  0
 22 21  1  0
 24 22  1  0
 25 34  2  0
 25 30  1  0
 26 22  1  0
 26 30  1  0
 27 26  1  0
 28 29  1  0
 28 27  1  0
 29 25  1  0
 30 31  2  0
 31 32  1  0
 33 32  2  0
 34 33  1  0
 35  9  1  0
 35 36  1  0
 35 45  1  0
 36 39  1  0
 37 41  1  0
 37 36  1  0
 38 37  2  0
 41 40  1  0
 43 41  1  0
 43 44  1  0
 43 42  1  0
 45 48  1  1
 45 46  1  0
 47 45  1  0
 49 52  1  0
 49  2  1  0
 50 52  1  0
 50 53  2  0
 51 54  1  0
 52 51  2  0
 53 54  1  0
 55 63  1  0
 56 61  1  0
 57 58  1  0
 57 56  1  0
 59 58  1  0
 59 68  1  0
 59 60  1  0
 61 55  1  0
 61 60  1  0
 62 55  2  0
 63 64  1  0
 63 53  1  0
 65 66  2  0
 66 85  1  0
 67 66  1  0
 67 70  1  0
 68 69  1  0
 68 65  1  0
 69 67  2  0
 70 71  1  0
 71 72  2  0
 73 76  1  0
 73 72  1  0
 74 73  2  0
 75 74  1  0
 75 70  2  0
 76 77  1  0
 77 78  1  0
 78 79  2  0
 80 79  1  0
 80 84  1  0
 81 80  2  0
 82 77  2  0
 82 81  1  0
 83 82  1  0
 85 86  1  0
 86 89  1  0
 86 88  1  0
 87 85  2  0
 90 91  1  0
 90 65  1  0
 92 90  1  0
M  ISO  4   7 101   8 101  55 100  63 100
M  END
>  <TORSDO>  (88) 
F 21

>  <SCORE>  (88) 
-12.911

>  <name>  (88) 
87

>  <ligand_id>  (88) 
87

>  <original_smiles>  (88) 
[H]c1oc(N([H])C(=O)N2C([H])([H])C([H])([H])C([H])([H])C([H])(n3nc(-c4c([H])c([H])c(Oc5c([H])c([H])c(F)c([H])c5F)c([H])c4[H])c(C(=O)N([H])[H])c3N([H])[H])C2([H])[H])c([H])c1C([H])([H])C([H])(C([H])([H])[H])C(C([H])([H])[H])(C([H])([H])Oc1c([H])c([H])c2c(c1[H])C([H])([H])N(C(=O)C([H])(N([H])C(=O)C([H])(N([H])C([H])([H])[H])C([H])([H])[H])C(C([H])([H])[H])(C([H])([H])[H])C([H])([H])[H])C([H])(C(=O)N([H])C1([H])c3c([H])c([H])c([H])c([H])c3C([H])([H])C([H])([H])C1([H])[H])C2([H])[H])C([H])([H])C([H])([H])[H]

>  <smiles>  (88) 
[H]c1oc(N([H])C(=O)N2C([H])([H])C([H])([H])C([H])([H])C([H])(n3nc(-c4c([H])c([H])c(Oc5c([H])c([H])c(F)c([H])c5F)c([H])c4[H])c(C(=O)N([H])[H])c3N([H])[H])C2([H])[H])c([H])c1C([H])([H])C([H])(C([H])([H])[H])C(C([H])([H])[H])(C([H])([H])Oc1c([H])c([H])c2c(c1[H])C([H])([H])N(C(=O)C([H])(N([H])C(=O)C([H])(N([H])C([H])([H])[H])C([H])([H])[H])C(C([H])([H])[H])(C([H])([H])[H])C([H])([H])[H])C([H])(C(=O)N([H])C1([H])c3c([H])c([H])c([H])c([H])c3C([H])([H])C([H])([H])C1([H])[H])C2([H])[H])C([H])([H])C([H])([H])[H]

$$$$
88:0:0
     RDKit          3D

100110  0  0  1  0  0  0  0  0999 V2000
  -27.2610  -19.8400   20.7490 C   0  0  0  0  0  2  0  0  0  0  0  0
  -27.3330  -20.7300   18.2980 C   0  0  0  0  0  2  0  0  0  0  0  0
  -27.5220  -18.4660   20.1470 C   0  0  0  0  0  2  0  0  0  0  0  0
  -27.9450  -19.3660   17.9050 C   0  0  0  0  0  2  0  0  0  0  0  0
  -26.6990  -20.8490   19.7180 C   0  0  0  0  0  3  0  0  0  0  0  0
  -28.4660  -18.6360   19.0520 N   0  0  0  0  0  0  0  0  0  0  0  0
  -32.1800  -19.1860   19.5900 C   0  0  0  0  0  3  0  0  0  0  0  0
  -32.5030  -17.9710   20.2120 C   0  0  0  0  0  3  0  0  0  0  0  0
  -30.1830  -17.2700   19.9920 C   0  0  0  0  0  3  0  0  0  0  0  0
  -30.8640  -19.4550   19.1540 C   0  0  0  0  0  0  0  0  0  0  0  0
  -29.8360  -18.4860   19.3660 C   0  0  0  0  0  0  0  0  0  0  0  0
  -31.5020  -16.9960   20.3890 C   0  0  0  0  0  0  0  0  0  0  0  0
  -30.6300  -20.8150   18.5270 C   0  0  0  0  0  1  0  0  0  0  0  0
  -32.2230  -14.7240   20.1670 C   0  0  0  0  0  0  0  0  0  0  0  0
  -31.6210  -12.5940   19.1040 C   0  0  0  0  0  2  0  0  0  0  0  0
  -30.7070  -12.8710   17.8940 C   0  0  0  0  0  2  0  0  0  0  0  0
  -29.2300  -12.9510   18.3280 C   0  0  0  0  0  2  0  0  0  0  0  0
  -29.0130  -13.8960   19.5370 C   0  0  0  0  0  3  0  0  0  0  0  0
  -30.0300  -13.5810   20.6580 C   0  0  0  0  0  2  0  0  0  0  0  0
  -31.3940  -13.6530   20.0950 N   0  0  0  0  0  0  0  0  0  0  0  0
  -33.2980  -14.8050   19.5630 O   0  0  0  0  0  0  0  0  0  0  0  0
  -31.7700  -15.7200   20.9310 N   0  0  0  0  0  0  0  0  0  0  0  0
  -31.0560  -15.3970   21.5640 H   0  0  0  0  0  0  0  0  0  0  0  0
  -26.7590  -14.8530   20.3490 C   0  0  0  0  0  0  0  0  0  0  0  0
  -25.5760  -14.2530   20.6830 C   0  0  0  0  0  0  0  0  0  0  0  0
  -25.7920  -12.8480   20.5260 C   0  0  0  0  0  0  0  0  0  0  0  0
  -27.6350  -13.8290   20.0230 N   0  0  0  0  0  0  0  0  0  0  0  0
  -27.0520  -12.6130   20.1800 N   0  0  0  0  0  0  0  0  0  0  0  0
  -24.8580  -11.7220   20.6290 C   0  0  0  0  0  0  0  0  0  0  0  0
  -25.2060  -10.5350   21.3100 C   0  0  0  0  0  3  0  0  0  0  0  0
  -24.2850   -9.4700   21.4120 C   0  0  0  0  0  3  0  0  0  0  0  0
  -22.9980   -9.5880   20.8330 C   0  0  0  0  0  0  0  0  0  0  0  0
  -22.6650  -10.7630   20.1350 C   0  0  0  0  0  3  0  0  0  0  0  0
  -23.5850  -11.8190   20.0310 C   0  0  0  0  0  3  0  0  0  0  0  0
  -22.0470   -8.5970   20.8600 O   0  0  0  0  0  0  0  0  0  0  0  0
  -21.9600   -7.7110   21.9050 C   0  0  0  0  0  0  0  0  0  0  0  0
  -21.8250   -8.1460   23.2410 C   0  0  0  0  0  3  0  0  0  0  0  0
  -21.6690   -7.2010   24.2750 C   0  0  0  0  0  3  0  0  0  0  0  0
  -21.6390   -5.8250   23.9750 C   0  0  0  0  0  0  0  0  0  0  0  0
  -21.7680   -5.3930   22.6440 C   0  0  0  0  0  3  0  0  0  0  0  0
  -21.9260   -6.3330   21.6110 C   0  0  0  0  0  0  0  0  0  0  0  0
  -22.0290   -5.9110   20.3280 F   0  0  0  0  0  0  0  0  0  0  0  0
  -21.4810   -4.9190   24.9670 F   0  0  0  0  0  0  0  0  0  0  0  0
  -24.2890  -14.9390   21.0370 C   0  0  0  0  0  0  0  0  0  0  0  0
  -23.4510  -14.2930   21.8410 N   0  0  0  0  0  0  0  0  0  0  0  0
  -24.0400  -16.0760   20.6400 O   0  0  0  0  0  0  0  0  0  0  0  0
  -23.6630  -13.3680   22.1840 H   0  0  0  0  0  0  0  0  0  0  0  0
  -22.5840  -14.7320   22.1180 H   0  0  0  0  0  0  0  0  0  0  0  0
  -27.1550  -16.1850   20.2800 N   0  0  0  0  0  0  0  0  0  0  0  0
  -26.5310  -16.9470   20.5110 H   0  0  0  0  0  0  0  0  0  0  0  0
  -28.0800  -16.5120   20.0300 H   0  0  0  0  0  0  0  0  0  0  0  0
  -27.8880  -22.8460   20.9350 C   0  0  0  0  0  3  0  0  0  0  0  0
  -26.5350  -24.4030   20.0990 C   0  0  0  0  0  3  0  0  0  0  0  0
  -27.7170  -24.2420   20.7660 C   0  0  0  0  0  0  0  0  0  0  0  0
  -26.8950  -22.2530   20.2060 C   0  0  0  0  0  0  0  0  0  0  0  0
  -26.0310  -23.1930   19.7280 O   0  0  0  0  0  0  0  0  0  0  0  0
  -28.5870  -25.3570   21.1570 C   0  0  0  0  0  0  0  0  0  0  0  0
  -28.7150  -25.7230   22.3290 O   0  0  0  0  0  0  0  0  0  0  0  0
  -29.3740  -26.0020   20.0040 C   0  0  0  0  0  2  0  0  0  0  0  0
  -29.2670  -27.4230   20.0380 O   0  0  0  0  0  0  0  0  0  0  0  0
  -24.4630  -31.4730   23.2640 C   0  0  0  0  0  0  0  0  0  0  0  0
  -27.9960  -27.9370   19.9580 C   0  0  0  0  0  0  0  0  0  0  0  0
  -23.6230  -30.1630   21.3400 C   0  0  0  0  0  3  0  0  0  0  0  0
  -25.4070  -29.0470   19.9020 C   0  0  0  0  0  0  0  0  0  0  0  0
  -26.0710  -30.8920   21.4570 C   0  0  0  0  0  2  0  0  0  0  0  0
  -26.4140  -29.6500   20.6680 C   0  0  0  0  0  0  0  0  0  0  0  0
  -27.7090  -29.1010   20.6960 C   0  0  0  0  0  3  0  0  0  0  0  0
  -26.9770  -27.3380   19.1820 C   0  0  0  0  0  3  0  0  0  0  0  0
  -25.6830  -27.8870   19.1550 C   0  0  0  0  0  3  0  0  0  0  0  0
  -24.0470  -29.7070   19.9180 C   0  0  0  0  0  2  0  0  0  0  0  0
  -24.7290  -30.8500   22.0820 N   0  0  0  0  0  0  0  0  0  0  0  0
  -23.3120  -31.5200   23.7180 O   0  0  0  0  0  0  0  0  0  0  0  0
  -23.0500  -28.9410   22.0950 C   0  0  0  0  0  0  0  0  0  0  0  0
  -21.7750  -28.6170   21.8260 N   0  0  0  0  0  0  0  0  0  0  0  0
  -23.7510  -28.2920   22.8760 O   0  0  0  0  0  0  0  0  0  0  0  0
  -21.2630  -29.2040   21.1830 H   0  0  0  0  0  0  0  0  0  0  0  0
  -18.5740  -26.9510   21.8120 C   0  0  0  0  0  0  0  0  0  0  0  0
  -21.0370  -27.4840   22.3790 C   0  0  0  0  0  3  0  0  0  0  0  0
  -21.3910  -26.1750   21.6330 C   0  0  0  0  0  2  0  0  0  0  0  0
  -20.4310  -25.8540   20.4830 C   0  0  0  0  0  2  0  0  0  0  0  0
  -18.9910  -25.7420   20.9900 C   0  0  0  0  0  2  0  0  0  0  0  0
  -19.5350  -27.7770   22.4520 C   0  0  0  0  0  0  0  0  0  0  0  0
  -19.0970  -28.9110   23.1690 C   0  0  0  0  0  3  0  0  0  0  0  0
  -17.7260  -29.2190   23.2600 C   0  0  0  0  0  3  0  0  0  0  0  0
  -16.7770  -28.3870   22.6430 C   0  0  0  0  0  3  0  0  0  0  0  0
  -17.2020  -27.2580   21.9200 C   0  0  0  0  0  3  0  0  0  0  0  0
  -25.5850  -32.1770   24.0910 C   0  0  0  0  0  3  0  0  0  0  0  0
  -25.8260  -31.5130   25.5020 C   0  0  1  0  0  0  0  0  0  0  0  0
  -24.5280  -31.2750   26.3080 C   0  0  0  0  0  1  0  0  0  0  0  0
  -26.5460  -30.1530   25.3500 C   0  0  0  0  0  1  0  0  0  0  0  0
  -26.7560  -32.4130   26.3500 C   0  0  0  0  0  1  0  0  0  0  0  0
  -25.2030  -33.5880   24.2360 N   0  0  0  0  0  0  0  0  0  0  0  0
  -25.6720  -34.5840   23.4700 C   0  0  0  0  0  0  0  0  0  0  0  0
  -26.5340  -34.4150   22.6050 O   0  0  0  0  0  0  0  0  0  0  0  0
  -24.4600  -33.7890   24.8890 H   0  0  0  0  0  0  0  0  0  0  0  0
  -24.0070  -36.2810   22.6480 C   0  0  0  0  0  1  0  0  0  0  0  0
  -25.0900  -35.9930   23.7020 C   0  0  0  0  0  3  0  0  0  0  0  0
  -27.0430  -36.9990   24.7980 C   0  0  0  0  0  1  0  0  0  0  0  0
  -26.1110  -37.0630   23.6750 N   0  0  0  0  0  0  0  0  0  0  0  0
  -25.6730  -37.9810   23.6790 H   0  0  0  0  0  0  0  0  0  0  0  0
  2  5  1  0
  3  1  1  0
  4  2  1  0
  4  6  1  0
  5 55  1  0
  5  1  1  0
  6 11  1  0
  6  3  1  0
  7  8  1  0
  8 12  2  0
  9 12  1  0
 10 11  1  0
 10  7  2  0
 11  9  2  0
 12 22  1  0
 13 10  1  0
 14 22  1  0
 15 20  1  0
 16 17  1  0
 16 15  1  0
 18 17  1  0
 18 27  1  0
 18 19  1  0
 20 14  1  0
 20 19  1  0
 21 14  2  0
 22 23  1  0
 24 25  2  0
 25 44  1  0
 26 29  1  0
 26 25  1  0
 27 28  1  0
 27 24  1  0
 28 26  2  0
 29 30  1  0
 30 31  2  0
 32 35  1  0
 32 31  1  0
 33 32  2  0
 34 33  1  0
 34 29  2  0
 35 36  1  0
 36 37  1  0
 37 38  2  0
 39 38  1  0
 39 43  1  0
 40 39  2  0
 41 36  2  0
 41 40  1  0
 42 41  1  0
 44 45  1  0
 45 48  1  0
 45 47  1  0
 46 44  2  0
 49 24  1  0
 49 50  1  0
 51 49  1  0
 53 54  2  0
 54 52  1  0
 54 57  1  0
 55 52  2  0
 56 53  1  0
 56 55  1  0
 57 58  2  0
 59 60  1  0
 59 57  1  0
 61 72  2  0
 62 60  1  0
 62 67  1  0
 63 71  1  0
 63 73  1  0
 64 70  1  0
 64 66  1  0
 65 71  1  0
 66 67  2  0
 66 65  1  0
 68 62  2  0
 69 68  1  0
 69 64  2  0
 70 63  1  0
 71 61  1  0
 73 75  2  0
 74 73  1  0
 76 74  1  0
 77 86  2  0
 77 82  1  0
 78 74  1  0
 78 82  1  0
 79 78  1  0
 80 81  1  0
 80 79  1  0
 81 77  1  0
 82 83  2  0
 83 84  1  0
 85 84  2  0
 86 85  1  0
 87 61  1  0
 87 92  1  0
 87 88  1  0
 88 89  1  1
 88 91  1  0
 90 88  1  0
 92 95  1  0
 93 97  1  0
 93 92  1  0
 94 93  2  0
 97 96  1  0
 99100  1  0
 99 97  1  0
 99 98  1  0
M  ISO  4  14 100  22 100  59 101  60 101
M  END
>  <TORSDO>  (89) 
F 20

>  <SCORE>  (89) 
-9.013

>  <name>  (89) 
88

>  <ligand_id>  (89) 
88

>  <original_smiles>  (89) 
[H]c1oc(C2([H])C([H])([H])C([H])([H])N(c3c([H])c(N([H])C(=O)N4C([H])([H])C([H])([H])C([H])([H])C([H])(n5nc(-c6c([H])c([H])c(Oc7c([H])c([H])c(F)c([H])c7F)c([H])c6[H])c(C(=O)N([H])[H])c5N([H])[H])C4([H])[H])c([H])c([H])c3C([H])([H])[H])C([H])([H])C2([H])[H])c([H])c1C(=O)C([H])([H])Oc1c([H])c([H])c2c(c1[H])C([H])([H])N(C(=O)C([H])(N([H])C(=O)C([H])(N([H])C([H])([H])[H])C([H])([H])[H])C(C([H])([H])[H])(C([H])([H])[H])C([H])([H])[H])C([H])(C(=O)N([H])C1([H])c3c([H])c([H])c([H])c([H])c3C([H])([H])C([H])([H])C1([H])[H])C2([H])[H]

>  <smiles>  (89) 
[H]c1oc(C2([H])C([H])([H])C([H])([H])N(c3c([H])c(N([H])C(=O)N4C([H])([H])C([H])([H])C([H])([H])C([H])(n5nc(-c6c([H])c([H])c(Oc7c([H])c([H])c(F)c([H])c7F)c([H])c6[H])c(C(=O)N([H])[H])c5N([H])[H])C4([H])[H])c([H])c([H])c3C([H])([H])[H])C([H])([H])C2([H])[H])c([H])c1C(=O)C([H])([H])Oc1c([H])c([H])c2c(c1[H])C([H])([H])N(C(=O)C([H])(N([H])C(=O)C([H])(N([H])C([H])([H])[H])C([H])([H])[H])C(C([H])([H])[H])(C([H])([H])[H])C([H])([H])[H])C([H])(C(=O)N([H])C1([H])c3c([H])c([H])c([H])c([H])c3C([H])([H])C([H])([H])C1([H])[H])C2([H])[H]

$$$$
89:0:0
     RDKit          3D

 95103  0  0  1  0  0  0  0  0999 V2000
  -32.2420  -23.0850   20.5600 C   0  0  0  0  0  1  0  0  0  0  0  0
  -31.0570  -21.4510   19.0750 C   0  0  0  0  0  1  0  0  0  0  0  0
  -31.0010  -22.1650   20.4440 C   0  0  2  0  0  0  0  0  0  0  0  0
  -29.6930  -23.0200   20.4760 C   0  0  0  0  0  0  0  0  0  0  0  0
  -28.6180  -22.4980   20.7870 O   0  0  0  0  0  0  0  0  0  0  0  0
  -29.7450  -24.5130   20.0690 C   0  0  0  0  0  2  0  0  0  0  0  0
  -28.3670  -25.1730   19.8190 C   0  0  0  0  0  2  0  0  0  0  0  0
  -28.4640  -26.6070   19.7620 O   0  0  0  0  0  0  0  0  0  0  0  0
  -24.6150  -31.6370   23.0190 C   0  0  0  0  0  0  0  0  0  0  0  0
  -27.2760  -27.3140   19.7810 C   0  0  0  0  0  0  0  0  0  0  0  0
  -23.4080  -30.2800   21.3410 C   0  0  0  0  0  3  0  0  0  0  0  0
  -24.8630  -28.8010   19.8570 C   0  0  0  0  0  0  0  0  0  0  0  0
  -25.9290  -30.6660   21.1350 C   0  0  0  0  0  2  0  0  0  0  0  0
  -26.0220  -29.3160   20.4500 C   0  0  0  0  0  0  0  0  0  0  0  0
  -27.2290  -28.5830   20.4040 C   0  0  0  0  0  3  0  0  0  0  0  0
  -26.0930  -26.8130   19.1860 C   0  0  0  0  0  3  0  0  0  0  0  0
  -24.8940  -27.5490   19.2230 C   0  0  0  0  0  3  0  0  0  0  0  0
  -23.6130  -29.6470   19.9390 C   0  0  0  0  0  2  0  0  0  0  0  0
  -24.6690  -30.8740   21.8900 N   0  0  0  0  0  0  0  0  0  0  0  0
  -23.5350  -31.8810   23.5760 O   0  0  0  0  0  0  0  0  0  0  0  0
  -22.7720  -29.2220   22.2720 C   0  0  0  0  0  0  0  0  0  0  0  0
  -21.4450  -29.0480   22.1640 N   0  0  0  0  0  0  0  0  0  0  0  0
  -23.4680  -28.5620   23.0480 O   0  0  0  0  0  0  0  0  0  0  0  0
  -20.9440  -29.6350   21.5130 H   0  0  0  0  0  0  0  0  0  0  0  0
  -18.0730  -27.8580   22.6880 C   0  0  0  0  0  0  0  0  0  0  0  0
  -20.6380  -28.0830   22.9120 C   0  0  0  0  0  3  0  0  0  0  0  0
  -20.7150  -26.6790   22.2680 C   0  0  0  0  0  2  0  0  0  0  0  0
  -19.5870  -26.4110   21.2680 C   0  0  0  0  0  2  0  0  0  0  0  0
  -18.2210  -26.5370   21.9510 C   0  0  0  0  0  2  0  0  0  0  0  0
  -19.2080  -28.5900   23.1250 C   0  0  0  0  0  0  0  0  0  0  0  0
  -19.0150  -29.8280   23.7780 C   0  0  0  0  0  3  0  0  0  0  0  0
  -17.7200  -30.3330   23.9960 C   0  0  0  0  0  3  0  0  0  0  0  0
  -16.6000  -29.5950   23.5750 C   0  0  0  0  0  3  0  0  0  0  0  0
  -16.7770  -28.3600   22.9280 C   0  0  0  0  0  3  0  0  0  0  0  0
  -25.9010  -32.2580   23.6490 C   0  0  0  0  0  3  0  0  0  0  0  0
  -25.5790  -33.6370   24.0410 N   0  0  0  0  0  0  0  0  0  0  0  0
  -25.8960  -34.7240   23.3250 C   0  0  0  0  0  0  0  0  0  0  0  0
  -26.5620  -34.6700   22.2870 O   0  0  0  0  0  0  0  0  0  0  0  0
  -24.9870  -33.7500   24.8510 H   0  0  0  0  0  0  0  0  0  0  0  0
  -24.1500  -36.5120   23.0500 C   0  0  0  0  0  1  0  0  0  0  0  0
  -25.3960  -36.0860   23.8430 C   0  0  0  0  0  3  0  0  0  0  0  0
  -27.5210  -36.9540   24.7120 C   0  0  0  0  0  1  0  0  0  0  0  0
  -26.4180  -37.1520   23.7760 N   0  0  0  0  0  0  0  0  0  0  0  0
  -26.0040  -38.0620   23.9620 H   0  0  0  0  0  0  0  0  0  0  0  0
  -26.4450  -31.4390   24.8850 C   0  0  1  0  0  0  0  0  0  0  0  0
  -25.3710  -31.1460   25.9580 C   0  0  0  0  0  1  0  0  0  0  0  0
  -27.0340  -30.0870   24.4220 C   0  0  0  0  0  1  0  0  0  0  0  0
  -27.5960  -32.2180   25.5620 C   0  0  0  0  0  1  0  0  0  0  0  0
  -31.0480  -21.1470   21.6500 C   0  0  0  0  0  2  0  0  0  0  0  0
  -31.8980  -18.7170   21.5730 C   0  0  0  0  0  3  0  0  0  0  0  0
  -31.6650  -17.3330   21.4080 C   0  0  0  0  0  3  0  0  0  0  0  0
  -29.6030  -19.1720   20.9590 C   0  0  0  0  0  3  0  0  0  0  0  0
  -30.8610  -19.6500   21.3610 C   0  0  0  0  0  0  0  0  0  0  0  0
  -29.3590  -17.7900   20.7640 C   0  0  0  0  0  0  0  0  0  0  0  0
  -30.3950  -16.8420   21.0050 C   0  0  0  0  0  0  0  0  0  0  0  0
  -30.7160  -14.4720   20.1670 C   0  0  0  0  0  0  0  0  0  0  0  0
  -30.3150  -12.3590   18.9420 C   0  0  0  0  0  2  0  0  0  0  0  0
  -29.3100  -12.6020   17.7980 C   0  0  0  0  0  2  0  0  0  0  0  0
  -27.8620  -12.4580   18.3040 C   0  0  0  0  0  2  0  0  0  0  0  0
  -27.6000  -13.2600   19.6070 C   0  0  0  0  0  3  0  0  0  0  0  0
  -28.7120  -13.0000   20.6490 C   0  0  0  0  0  2  0  0  0  0  0  0
  -30.0110  -13.3130   20.0240 N   0  0  0  0  0  0  0  0  0  0  0  0
  -31.7920  -14.6580   19.5930 O   0  0  0  0  0  0  0  0  0  0  0  0
  -30.1060  -15.4350   20.8930 N   0  0  0  0  0  0  0  0  0  0  0  0
  -29.2210  -15.1450   21.2760 H   0  0  0  0  0  0  0  0  0  0  0  0
  -25.2380  -13.8580   20.4430 C   0  0  0  0  0  0  0  0  0  0  0  0
  -24.1900  -13.0860   20.8610 C   0  0  0  0  0  0  0  0  0  0  0  0
  -24.6430  -11.7350   20.7780 C   0  0  0  0  0  0  0  0  0  0  0  0
  -26.2710  -12.9810   20.1480 N   0  0  0  0  0  0  0  0  0  0  0  0
  -25.9150  -11.6950   20.4040 N   0  0  0  0  0  0  0  0  0  0  0  0
  -23.9170  -10.4750   20.9790 C   0  0  0  0  0  0  0  0  0  0  0  0
  -24.3690   -9.5020   21.8970 C   0  0  0  0  0  3  0  0  0  0  0  0
  -23.6440   -8.3060   22.0840 C   0  0  0  0  0  3  0  0  0  0  0  0
  -22.4540   -8.0750   21.3540 C   0  0  0  0  0  0  0  0  0  0  0  0
  -22.0210   -9.0370   20.4250 C   0  0  0  0  0  3  0  0  0  0  0  0
  -22.7470  -10.2250   20.2340 C   0  0  0  0  0  3  0  0  0  0  0  0
  -21.6990   -6.9310   21.4530 O   0  0  0  0  0  0  0  0  0  0  0  0
  -21.6450   -6.2040   22.6150 C   0  0  0  0  0  0  0  0  0  0  0  0
  -21.2240   -6.7780   23.8340 C   0  0  0  0  0  3  0  0  0  0  0  0
  -21.1160   -5.9770   24.9890 C   0  0  0  0  0  3  0  0  0  0  0  0
  -21.4190   -4.6040   24.9250 C   0  0  0  0  0  0  0  0  0  0  0  0
  -21.8320   -4.0300   23.7100 C   0  0  0  0  0  3  0  0  0  0  0  0
  -21.9420   -4.8270   22.5570 C   0  0  0  0  0  0  0  0  0  0  0  0
  -22.3210   -4.2650   21.3840 F   0  0  0  0  0  0  0  0  0  0  0  0
  -21.3080   -3.8320   26.0310 F   0  0  0  0  0  0  0  0  0  0  0  0
  -22.8130  -13.5690   21.2160 C   0  0  0  0  0  0  0  0  0  0  0  0
  -22.1320  -12.8690   22.1170 N   0  0  0  0  0  0  0  0  0  0  0  0
  -22.3520  -14.6010   20.7310 O   0  0  0  0  0  0  0  0  0  0  0  0
  -22.5200  -12.0340   22.5300 H   0  0  0  0  0  0  0  0  0  0  0  0
  -21.2090  -13.1720   22.3950 H   0  0  0  0  0  0  0  0  0  0  0  0
  -25.3850  -15.2260   20.2620 N   0  0  0  0  0  0  0  0  0  0  0  0
  -24.6070  -15.8620   20.3970 H   0  0  0  0  0  0  0  0  0  0  0  0
  -26.1790  -15.6590   19.8110 H   0  0  0  0  0  0  0  0  0  0  0  0
  -27.3110  -18.2600   19.2610 C   0  0  0  0  0  1  0  0  0  0  0  0
  -27.9680  -17.3500   20.3160 C   0  0  0  0  0  2  0  0  0  0  0  0
  3  2  1  6
  3  4  1  0
  3  1  1  0
  3 49  1  0
  4  5  2  0
  6  4  1  0
  7  6  1  0
  8 10  1  0
  8  7  1  0
  9 20  2  0
 10 15  1  0
 11 19  1  0
 11 21  1  0
 12 18  1  0
 12 14  1  0
 13 19  1  0
 14 13  1  0
 15 14  2  0
 16 17  1  0
 16 10  2  0
 17 12  2  0
 18 11  1  0
 19  9  1  0
 21 23  2  0
 22 21  1  0
 24 22  1  0
 25 34  2  0
 25 30  1  0
 26 22  1  0
 26 30  1  0
 27 26  1  0
 28 29  1  0
 28 27  1  0
 29 25  1  0
 30 31  2  0
 31 32  1  0
 33 32  2  0
 34 33  1  0
 35  9  1  0
 35 36  1  0
 35 45  1  0
 36 39  1  0
 37 41  1  0
 37 36  1  0
 38 37  2  0
 41 40  1  0
 43 41  1  0
 43 44  1  0
 43 42  1  0
 45 48  1  1
 45 46  1  0
 47 45  1  0
 51 50  1  0
 52 53  1  0
 53 50  2  0
 53 49  1  0
 54 52  2  0
 54 55  1  0
 55 51  2  0
 56 64  1  0
 57 62  1  0
 58 59  1  0
 58 57  1  0
 60 59  1  0
 60 69  1  0
 60 61  1  0
 62 56  1  0
 62 61  1  0
 63 56  2  0
 64 55  1  0
 64 65  1  0
 66 67  2  0
 67 86  1  0
 68 67  1  0
 68 71  1  0
 69 70  1  0
 69 66  1  0
 70 68  2  0
 71 72  1  0
 72 73  2  0
 74 77  1  0
 74 73  1  0
 75 74  2  0
 76 75  1  0
 76 71  2  0
 77 78  1  0
 78 79  1  0
 79 80  2  0
 81 80  1  0
 81 85  1  0
 82 81  2  0
 83 78  2  0
 83 82  1  0
 84 83  1  0
 86 87  1  0
 87 90  1  0
 87 89  1  0
 88 86  2  0
 91 92  1  0
 91 66  1  0
 93 91  1  0
 94 95  1  0
 95 54  1  0
M  ISO  4   7 101   8 101  56 100  64 100
M  END
>  <TORSDO>  (90) 
F 22

>  <SCORE>  (90) 
-12.851

>  <name>  (90) 
89

>  <ligand_id>  (90) 
89

>  <original_smiles>  (90) 
[H]c1c([H])c([H])c2c(c1[H])C([H])([H])C([H])([H])C([H])([H])C2([H])N([H])C(=O)C1([H])N(C(=O)C([H])(N([H])C(=O)C([H])(N([H])C([H])([H])[H])C([H])([H])[H])C(C([H])([H])[H])(C([H])([H])[H])C([H])([H])[H])C([H])([H])c2c([H])c(OC([H])([H])C([H])([H])C(=O)C(C([H])([H])[H])(C([H])([H])[H])C([H])([H])c3c([H])c([H])c(N([H])C(=O)N4C([H])([H])C([H])([H])C([H])([H])C([H])(n5nc(-c6c([H])c([H])c(Oc7c([H])c([H])c(F)c([H])c7F)c([H])c6[H])c(C(=O)N([H])[H])c5N([H])[H])C4([H])[H])c(C([H])([H])C([H])([H])[H])c3[H])c([H])c([H])c2C1([H])[H]

>  <smiles>  (90) 
[H]c1c([H])c([H])c2c(c1[H])C([H])([H])C([H])([H])C([H])([H])C2([H])N([H])C(=O)C1([H])N(C(=O)C([H])(N([H])C(=O)C([H])(N([H])C([H])([H])[H])C([H])([H])[H])C(C([H])([H])[H])(C([H])([H])[H])C([H])([H])[H])C([H])([H])c2c([H])c(OC([H])([H])C([H])([H])C(=O)C(C([H])([H])[H])(C([H])([H])[H])C([H])([H])c3c([H])c([H])c(N([H])C(=O)N4C([H])([H])C([H])([H])C([H])([H])C([H])(n5nc(-c6c([H])c([H])c(Oc7c([H])c([H])c(F)c([H])c7F)c([H])c6[H])c(C(=O)N([H])[H])c5N([H])[H])C4([H])[H])c(C([H])([H])C([H])([H])[H])c3[H])c([H])c([H])c2C1([H])[H]

$$$$
90:0:0
     RDKit          3D

 92100  0  0  1  0  0  0  0  0999 V2000
  -30.3760  -20.3540   18.8210 C   0  0  0  0  0  3  0  0  0  0  0  0
  -30.3170  -19.4780   20.9760 C   0  0  0  0  0  0  0  0  0  0  0  0
  -30.0280  -20.6150   20.1210 C   0  0  0  0  0  0  0  0  0  0  0  0
  -30.9090  -18.4010   20.3190 C   0  0  0  0  0  0  0  0  0  0  0  0
  -31.0610  -18.7600   18.6180 S   0  0  0  0  0  0  0  0  0  0  0  0
  -31.1830  -20.0750   23.2680 C   0  0  0  0  0  1  0  0  0  0  0  0
  -30.0260  -19.4890   22.4490 C   0  0  0  0  0  2  0  0  0  0  0  0
  -31.5510  -17.1250   20.8820 C   0  0  0  0  0  2  0  0  0  0  0  0
  -31.6730  -14.6850   20.1390 C   0  0  0  0  0  0  0  0  0  0  0  0
  -31.3190  -12.4220   19.1870 C   0  0  0  0  0  2  0  0  0  0  0  0
  -30.3820  -12.5200   17.9660 C   0  0  0  0  0  2  0  0  0  0  0  0
  -28.9050  -12.4670   18.4040 C   0  0  0  0  0  2  0  0  0  0  0  0
  -28.5930  -13.4340   19.5780 C   0  0  0  0  0  3  0  0  0  0  0  0
  -29.6400  -13.2970   20.7040 C   0  0  0  0  0  2  0  0  0  0  0  0
  -30.9640  -13.5200   20.1050 N   0  0  0  0  0  0  0  0  0  0  0  0
  -32.8360  -14.7550   19.7310 O   0  0  0  0  0  0  0  0  0  0  0  0
  -30.9900  -15.7950   20.5230 N   0  0  0  0  0  0  0  0  0  0  0  0
  -30.0220  -15.6460   20.7620 H   0  0  0  0  0  0  0  0  0  0  0  0
  -26.2730  -14.2140   20.3610 C   0  0  0  0  0  0  0  0  0  0  0  0
  -25.1470  -13.5230   20.7210 C   0  0  0  0  0  0  0  0  0  0  0  0
  -25.4880  -12.1390   20.6300 C   0  0  0  0  0  0  0  0  0  0  0  0
  -27.2320  -13.2550   20.0760 N   0  0  0  0  0  0  0  0  0  0  0  0
  -26.7660  -12.0000   20.2970 N   0  0  0  0  0  0  0  0  0  0  0  0
  -24.6580  -10.9390   20.7850 C   0  0  0  0  0  0  0  0  0  0  0  0
  -24.9910   -9.9230   21.7090 C   0  0  0  0  0  3  0  0  0  0  0  0
  -24.1680   -8.7870   21.8520 C   0  0  0  0  0  3  0  0  0  0  0  0
  -22.9940   -8.6570   21.0710 C   0  0  0  0  0  0  0  0  0  0  0  0
  -22.6780   -9.6600   20.1380 C   0  0  0  0  0  3  0  0  0  0  0  0
  -23.5020  -10.7880   19.9920 C   0  0  0  0  0  3  0  0  0  0  0  0
  -22.1470   -7.5770   21.1250 O   0  0  0  0  0  0  0  0  0  0  0  0
  -21.9550   -6.8690   22.2840 C   0  0  0  0  0  0  0  0  0  0  0  0
  -21.4670   -7.4820   23.4590 C   0  0  0  0  0  3  0  0  0  0  0  0
  -21.2190   -6.7040   24.6070 C   0  0  0  0  0  3  0  0  0  0  0  0
  -21.4480   -5.3160   24.5820 C   0  0  0  0  0  0  0  0  0  0  0  0
  -21.9290   -4.7040   23.4110 C   0  0  0  0  0  3  0  0  0  0  0  0
  -22.1790   -5.4780   22.2650 C   0  0  0  0  0  0  0  0  0  0  0  0
  -22.6220   -4.8790   21.1330 F   0  0  0  0  0  0  0  0  0  0  0  0
  -21.2020   -4.5670   25.6820 F   0  0  0  0  0  0  0  0  0  0  0  0
  -23.8010  -14.1090   21.0370 C   0  0  0  0  0  0  0  0  0  0  0  0
  -23.0340  -13.4540   21.9010 N   0  0  0  0  0  0  0  0  0  0  0  0
  -23.4420  -15.1810   20.5520 O   0  0  0  0  0  0  0  0  0  0  0  0
  -23.3380  -12.5840   22.3140 H   0  0  0  0  0  0  0  0  0  0  0  0
  -22.1320  -13.8280   22.1550 H   0  0  0  0  0  0  0  0  0  0  0  0
  -26.5540  -15.5710   20.2320 N   0  0  0  0  0  0  0  0  0  0  0  0
  -25.8470  -16.2840   20.3740 H   0  0  0  0  0  0  0  0  0  0  0  0
  -27.4280  -15.9470   19.8860 H   0  0  0  0  0  0  0  0  0  0  0  0
  -29.4090  -21.7820   20.4930 O   0  0  0  0  0  0  0  0  0  0  0  0
  -30.2180  -22.9800   20.6290 C   0  0  0  0  0  2  0  0  0  0  0  0
  -29.5040  -24.2730   20.1080 C   0  0  0  0  0  0  0  0  0  0  0  0
  -28.9690  -24.2890   18.9940 O   0  0  0  0  0  0  0  0  0  0  0  0
  -29.4820  -25.5400   21.0230 C   0  0  0  0  0  2  0  0  0  0  0  0
  -29.4330  -26.8200   20.3210 O   0  0  0  0  0  0  0  0  0  0  0  0
  -24.9000  -31.5480   23.2680 C   0  0  0  0  0  0  0  0  0  0  0  0
  -28.2050  -27.4650   20.2890 C   0  0  0  0  0  0  0  0  0  0  0  0
  -23.9640  -30.0680   21.5230 C   0  0  0  0  0  3  0  0  0  0  0  0
  -25.6670  -28.7330   20.1650 C   0  0  0  0  0  0  0  0  0  0  0  0
  -26.4470  -30.6990   21.4980 C   0  0  0  0  0  2  0  0  0  0  0  0
  -26.7250  -29.3600   20.8370 C   0  0  0  0  0  0  0  0  0  0  0  0
  -28.0010  -28.7360   20.8880 C   0  0  0  0  0  3  0  0  0  0  0  0
  -27.1270  -26.8620   19.6110 C   0  0  0  0  0  3  0  0  0  0  0  0
  -25.8660  -27.4860   19.5470 C   0  0  0  0  0  3  0  0  0  0  0  0
  -24.3360  -29.4530   20.1470 C   0  0  0  0  0  2  0  0  0  0  0  0
  -25.1160  -30.7880   22.1570 N   0  0  0  0  0  0  0  0  0  0  0  0
  -23.7630  -31.6840   23.7420 O   0  0  0  0  0  0  0  0  0  0  0  0
  -23.3700  -28.9560   22.4200 C   0  0  0  0  0  0  0  0  0  0  0  0
  -22.0920  -28.6130   22.1840 N   0  0  0  0  0  0  0  0  0  0  0  0
  -24.0590  -28.4050   23.2820 O   0  0  0  0  0  0  0  0  0  0  0  0
  -21.5920  -29.1170   21.4650 H   0  0  0  0  0  0  0  0  0  0  0  0
  -18.8800  -26.9670   22.3680 C   0  0  0  0  0  0  0  0  0  0  0  0
  -21.3420  -27.5640   22.8770 C   0  0  0  0  0  3  0  0  0  0  0  0
  -21.6910  -26.1670   22.3130 C   0  0  0  0  0  2  0  0  0  0  0  0
  -20.7420  -25.7110   21.2010 C   0  0  0  0  0  2  0  0  0  0  0  0
  -19.2990  -25.6610   21.7130 C   0  0  0  0  0  2  0  0  0  0  0  0
  -19.8400  -27.8670   22.8990 C   0  0  0  0  0  0  0  0  0  0  0  0
  -19.3990  -29.0830   23.4650 C   0  0  0  0  0  3  0  0  0  0  0  0
  -18.0280  -29.4030   23.5080 C   0  0  0  0  0  3  0  0  0  0  0  0
  -17.0810  -28.5000   22.9950 C   0  0  0  0  0  3  0  0  0  0  0  0
  -17.5070  -27.2850   22.4300 C   0  0  0  0  0  3  0  0  0  0  0  0
  -26.0640  -32.3010   23.9840 C   0  0  0  0  0  3  0  0  0  0  0  0
  -25.6050  -33.6700   24.2550 N   0  0  0  0  0  0  0  0  0  0  0  0
  -25.8910  -34.7340   23.4930 C   0  0  0  0  0  0  0  0  0  0  0  0
  -26.6370  -34.6720   22.5110 O   0  0  0  0  0  0  0  0  0  0  0  0
  -24.9470  -33.7850   25.0110 H   0  0  0  0  0  0  0  0  0  0  0  0
  -24.0230  -36.3400   22.9900 C   0  0  0  0  0  1  0  0  0  0  0  0
  -25.2480  -36.0790   23.8800 C   0  0  0  0  0  3  0  0  0  0  0  0
  -27.2340  -37.1910   24.8010 C   0  0  0  0  0  1  0  0  0  0  0  0
  -26.1800  -37.2240   23.7910 N   0  0  0  0  0  0  0  0  0  0  0  0
  -25.6780  -38.1030   23.8840 H   0  0  0  0  0  0  0  0  0  0  0  0
  -26.5350  -31.5970   25.3160 C   0  0  1  0  0  0  0  0  0  0  0  0
  -25.3800  -31.2800   26.2930 C   0  0  0  0  0  1  0  0  0  0  0  0
  -27.2660  -30.2700   25.0010 C   0  0  0  0  0  1  0  0  0  0  0  0
  -27.5520  -32.4980   26.0550 C   0  0  0  0  0  1  0  0  0  0  0  0
  1  3  2  0
  2  7  1  0
  3 47  1  0
  3  2  1  0
  4  8  1  0
  4  2  2  0
  5  1  1  0
  5  4  1  0
  7  6  1  0
  9 17  1  0
 10 15  1  0
 11 12  1  0
 11 10  1  0
 13 12  1  0
 13 22  1  0
 13 14  1  0
 15  9  1  0
 15 14  1  0
 16  9  2  0
 17 18  1  0
 17  8  1  0
 19 20  2  0
 20 39  1  0
 21 20  1  0
 21 24  1  0
 22 23  1  0
 22 19  1  0
 23 21  2  0
 24 25  1  0
 25 26  2  0
 27 30  1  0
 27 26  1  0
 28 27  2  0
 29 28  1  0
 29 24  2  0
 30 31  1  0
 31 32  1  0
 32 33  2  0
 34 33  1  0
 34 38  1  0
 35 34  2  0
 36 31  2  0
 36 35  1  0
 37 36  1  0
 39 40  1  0
 40 43  1  0
 40 42  1  0
 41 39  2  0
 44 19  1  0
 44 45  1  0
 46 44  1  0
 47 48  1  0
 49 48  1  0
 49 51  1  0
 50 49  2  0
 52 51  1  0
 53 64  2  0
 54 52  1  0
 54 59  1  0
 55 63  1  0
 55 65  1  0
 56 58  1  0
 57 63  1  0
 58 59  2  0
 58 57  1  0
 60 54  2  0
 61 60  1  0
 61 56  2  0
 62 56  1  0
 62 55  1  0
 63 53  1  0
 65 67  2  0
 66 65  1  0
 68 66  1  0
 69 78  2  0
 69 74  1  0
 70 66  1  0
 70 74  1  0
 71 70  1  0
 72 73  1  0
 72 71  1  0
 73 69  1  0
 74 75  2  0
 75 76  1  0
 77 76  2  0
 78 77  1  0
 79 53  1  0
 79 80  1  0
 79 89  1  0
 80 83  1  0
 81 85  1  0
 81 80  1  0
 82 81  2  0
 85 84  1  0
 87 85  1  0
 87 88  1  0
 87 86  1  0
 89 92  1  1
 89 90  1  0
 91 89  1  0
M  ISO  4   9 100  17 100  51 101  52 101
M  END
>  <TORSDO>  (91) 
F 22

>  <SCORE>  (91) 
-10.573

>  <name>  (91) 
90

>  <ligand_id>  (91) 
90

>  <original_smiles>  (91) 
[H]c1sc(C([H])([H])N([H])C(=O)N2C([H])([H])C([H])([H])C([H])([H])C([H])(n3nc(-c4c([H])c([H])c(Oc5c([H])c([H])c(F)c([H])c5F)c([H])c4[H])c(C(=O)N([H])[H])c3N([H])[H])C2([H])[H])c(C([H])([H])C([H])([H])[H])c1OC([H])([H])C(=O)C([H])([H])Oc1c([H])c([H])c2c(c1[H])C([H])([H])N(C(=O)C([H])(N([H])C(=O)C([H])(N([H])C([H])([H])[H])C([H])([H])[H])C(C([H])([H])[H])(C([H])([H])[H])C([H])([H])[H])C([H])(C(=O)N([H])C1([H])c3c([H])c([H])c([H])c([H])c3C([H])([H])C([H])([H])C1([H])[H])C2([H])[H]

>  <smiles>  (91) 
[H]c1sc(C([H])([H])N([H])C(=O)N2C([H])([H])C([H])([H])C([H])([H])C([H])(n3nc(-c4c([H])c([H])c(Oc5c([H])c([H])c(F)c([H])c5F)c([H])c4[H])c(C(=O)N([H])[H])c3N([H])[H])C2([H])[H])c(C([H])([H])C([H])([H])[H])c1OC([H])([H])C(=O)C([H])([H])Oc1c([H])c([H])c2c(c1[H])C([H])([H])N(C(=O)C([H])(N([H])C(=O)C([H])(N([H])C([H])([H])[H])C([H])([H])[H])C(C([H])([H])[H])(C([H])([H])[H])C([H])([H])[H])C([H])(C(=O)N([H])C1([H])c3c([H])c([H])c([H])c([H])c3C([H])([H])C([H])([H])C1([H])[H])C2([H])[H]

$$$$
91:0:0
     RDKit          3D

 96106  0  0  1  0  0  0  0  0999 V2000
  -27.3090  -19.9500   19.3260 C   0  0  0  0  0  2  0  0  0  0  0  0
  -27.8030  -18.5070   19.5420 C   0  0  0  0  0  2  0  0  0  0  0  0
  -29.6680  -19.9210   19.2850 C   0  0  0  0  0  2  0  0  0  0  0  0
  -28.5030  -20.8490   19.6690 C   0  0  0  0  0  3  0  0  0  0  0  0
  -29.2580  -18.5580   19.6620 N   0  0  0  0  0  0  0  0  0  0  0  0
  -30.1520  -18.6580   21.9710 C   0  0  0  0  0  3  0  0  0  0  0  0
  -29.8470  -17.9150   20.7850 C   0  0  0  0  0  0  0  0  0  0  0  0
  -30.7050  -17.9010   22.9690 C   0  0  0  0  0  0  0  0  0  0  0  0
  -30.1650  -16.5730   20.8990 C   0  0  0  0  0  0  0  0  0  0  0  0
  -31.1100  -18.3380   24.3380 C   0  0  0  0  0  1  0  0  0  0  0  0
  -30.8940  -16.2470   22.4610 S   0  0  0  0  0  0  0  0  0  0  0  0
  -30.6730  -14.4990   19.7740 C   0  0  0  0  0  0  0  0  0  0  0  0
  -30.3070  -12.3300   18.6550 C   0  0  0  0  0  2  0  0  0  0  0  0
  -29.2600  -12.5120   17.5360 C   0  0  0  0  0  2  0  0  0  0  0  0
  -27.8280  -12.3720   18.0940 C   0  0  0  0  0  2  0  0  0  0  0  0
  -27.5920  -13.2380   19.3580 C   0  0  0  0  0  3  0  0  0  0  0  0
  -28.7300  -13.0340   20.3800 C   0  0  0  0  0  2  0  0  0  0  0  0
  -29.9980  -13.3230   19.6900 N   0  0  0  0  0  0  0  0  0  0  0  0
  -31.8250  -14.6520   19.3620 O   0  0  0  0  0  0  0  0  0  0  0  0
  -29.8900  -15.5610   20.0370 N   0  0  0  0  0  0  0  0  0  0  0  0
  -28.9060  -15.4050   19.8890 H   0  0  0  0  0  0  0  0  0  0  0  0
  -25.2940  -13.8830   20.3130 C   0  0  0  0  0  0  0  0  0  0  0  0
  -24.2370  -13.1230   20.7440 C   0  0  0  0  0  0  0  0  0  0  0  0
  -24.6540  -11.7620   20.6210 C   0  0  0  0  0  0  0  0  0  0  0  0
  -26.2840  -12.9820   19.9520 N   0  0  0  0  0  0  0  0  0  0  0  0
  -25.9090  -11.7010   20.1960 N   0  0  0  0  0  0  0  0  0  0  0  0
  -23.9130  -10.5120   20.8200 C   0  0  0  0  0  0  0  0  0  0  0  0
  -24.3480   -9.5290   21.7360 C   0  0  0  0  0  3  0  0  0  0  0  0
  -23.6030   -8.3450   21.9220 C   0  0  0  0  0  3  0  0  0  0  0  0
  -22.4100   -8.1350   21.1910 C   0  0  0  0  0  0  0  0  0  0  0  0
  -21.9950   -9.1060   20.2610 C   0  0  0  0  0  3  0  0  0  0  0  0
  -22.7410  -10.2800   20.0730 C   0  0  0  0  0  3  0  0  0  0  0  0
  -21.6380   -7.0020   21.2880 O   0  0  0  0  0  0  0  0  0  0  0  0
  -21.5320   -6.3010   22.4620 C   0  0  0  0  0  0  0  0  0  0  0  0
  -21.0390   -6.8970   23.6420 C   0  0  0  0  0  3  0  0  0  0  0  0
  -20.8840   -6.1250   24.8110 C   0  0  0  0  0  3  0  0  0  0  0  0
  -21.2100   -4.7550   24.7970 C   0  0  0  0  0  0  0  0  0  0  0  0
  -21.6940   -4.1560   23.6210 C   0  0  0  0  0  3  0  0  0  0  0  0
  -21.8500   -4.9270   22.4540 C   0  0  0  0  0  0  0  0  0  0  0  0
  -22.2980   -4.3430   21.3170 F   0  0  0  0  0  0  0  0  0  0  0  0
  -21.0550   -4.0090   25.9160 F   0  0  0  0  0  0  0  0  0  0  0  0
  -22.8820  -13.6240   21.1580 C   0  0  0  0  0  0  0  0  0  0  0  0
  -22.2210  -12.9190   22.0720 N   0  0  0  0  0  0  0  0  0  0  0  0
  -22.4240  -14.6730   20.7080 O   0  0  0  0  0  0  0  0  0  0  0  0
  -22.6010  -12.0630   22.4480 H   0  0  0  0  0  0  0  0  0  0  0  0
  -21.3180  -13.2370   22.3990 H   0  0  0  0  0  0  0  0  0  0  0  0
  -25.4900  -15.2540   20.1750 N   0  0  0  0  0  0  0  0  0  0  0  0
  -24.7640  -15.9300   20.3810 H   0  0  0  0  0  0  0  0  0  0  0  0
  -26.3210  -15.6750   19.7830 H   0  0  0  0  0  0  0  0  0  0  0  0
  -28.5880  -23.5210   19.5370 C   0  0  0  0  0  3  0  0  0  0  0  0
  -28.3130  -23.6060   17.3520 C   0  0  0  0  0  3  0  0  0  0  0  0
  -28.4680  -24.4300   18.4350 C   0  0  0  0  0  0  0  0  0  0  0  0
  -28.4850  -22.2360   19.0500 C   0  0  0  0  0  0  0  0  0  0  0  0
  -28.3370  -22.2890   17.6980 O   0  0  0  0  0  0  0  0  0  0  0  0
  -28.5560  -25.9590   18.3660 C   0  0  0  0  0  2  0  0  0  0  0  0
  -28.2730  -26.6970   19.5680 O   0  0  0  0  0  0  0  0  0  0  0  0
  -24.5600  -31.7440   22.9870 C   0  0  0  0  0  0  0  0  0  0  0  0
  -27.0930  -27.4170   19.6320 C   0  0  0  0  0  0  0  0  0  0  0  0
  -23.2860  -30.3850   21.3600 C   0  0  0  0  0  3  0  0  0  0  0  0
  -24.6850  -28.9020   19.8200 C   0  0  0  0  0  0  0  0  0  0  0  0
  -25.8010  -30.7610   21.0620 C   0  0  0  0  0  2  0  0  0  0  0  0
  -25.8640  -29.4120   20.3730 C   0  0  0  0  0  0  0  0  0  0  0  0
  -27.0640  -28.6680   20.2920 C   0  0  0  0  0  3  0  0  0  0  0  0
  -25.8910  -26.9150   19.0850 C   0  0  0  0  0  3  0  0  0  0  0  0
  -24.6930  -27.6460   19.1870 C   0  0  0  0  0  3  0  0  0  0  0  0
  -23.4330  -29.7450   19.9530 C   0  0  0  0  0  2  0  0  0  0  0  0
  -24.5690  -30.9790   21.8590 N   0  0  0  0  0  0  0  0  0  0  0  0
  -23.5040  -31.9870   23.5890 O   0  0  0  0  0  0  0  0  0  0  0  0
  -22.6920  -29.3280   22.3170 C   0  0  0  0  0  0  0  0  0  0  0  0
  -21.3670  -29.1270   22.2360 N   0  0  0  0  0  0  0  0  0  0  0  0
  -23.4190  -28.6900   23.0860 O   0  0  0  0  0  0  0  0  0  0  0  0
  -20.8400  -29.6950   21.5860 H   0  0  0  0  0  0  0  0  0  0  0  0
  -18.0370  -27.8580   22.8220 C   0  0  0  0  0  0  0  0  0  0  0  0
  -20.5970  -28.1500   23.0080 C   0  0  0  0  0  3  0  0  0  0  0  0
  -20.7010  -26.7380   22.3860 C   0  0  0  0  0  2  0  0  0  0  0  0
  -19.5720  -26.4300   21.3990 C   0  0  0  0  0  2  0  0  0  0  0  0
  -18.2130  -26.5310   22.0990 C   0  0  0  0  0  2  0  0  0  0  0  0
  -19.1600  -28.6260   23.2330 C   0  0  0  0  0  0  0  0  0  0  0  0
  -18.9470  -29.8690   23.8650 C   0  0  0  0  0  3  0  0  0  0  0  0
  -17.6430  -30.3460   24.0920 C   0  0  0  0  0  3  0  0  0  0  0  0
  -16.5350  -29.5720   23.7050 C   0  0  0  0  0  3  0  0  0  0  0  0
  -16.7340  -28.3310   23.0760 C   0  0  0  0  0  3  0  0  0  0  0  0
  -25.8690  -32.3680   23.5640 C   0  0  0  0  0  3  0  0  0  0  0  0
  -26.4720  -31.5460   24.7680 C   0  0  1  0  0  0  0  0  0  0  0  0
  -25.4470  -31.2330   25.8820 C   0  0  0  0  0  1  0  0  0  0  0  0
  -27.0530  -30.2030   24.2730 C   0  0  0  0  0  1  0  0  0  0  0  0
  -27.6430  -32.3310   25.4040 C   0  0  0  0  0  1  0  0  0  0  0  0
  -25.5550  -33.7410   23.9790 N   0  0  0  0  0  0  0  0  0  0  0  0
  -25.8400  -34.8360   23.2640 C   0  0  0  0  0  0  0  0  0  0  0  0
  -26.4640  -34.7990   22.1990 O   0  0  0  0  0  0  0  0  0  0  0  0
  -24.9940  -33.8440   24.8110 H   0  0  0  0  0  0  0  0  0  0  0  0
  -24.0870  -36.6280   23.0660 C   0  0  0  0  0  1  0  0  0  0  0  0
  -25.3540  -36.1900   23.8170 C   0  0  0  0  0  3  0  0  0  0  0  0
  -27.4950  -37.0510   24.6530 C   0  0  0  0  0  1  0  0  0  0  0  0
  -26.3740  -37.2590   23.7400 N   0  0  0  0  0  0  0  0  0  0  0  0
  -25.9610  -38.1650   23.9440 H   0  0  0  0  0  0  0  0  0  0  0  0
  1  2  1  0
  1  4  1  0
  2  5  1  0
  3  5  1  0
  3  4  1  0
  4 53  1  0
  5  7  1  0
  6  8  2  0
  7  9  2  0
  7  6  1  0
  8 10  1  0
  9 11  1  0
 11  8  1  0
 12 20  1  0
 13 18  1  0
 14 15  1  0
 14 13  1  0
 16 15  1  0
 16 25  1  0
 16 17  1  0
 18 12  1  0
 18 17  1  0
 19 12  2  0
 20  9  1  0
 21 20  1  0
 22 23  2  0
 23 42  1  0
 24 23  1  0
 24 27  1  0
 25 26  1  0
 25 22  1  0
 26 24  2  0
 27 28  1  0
 28 29  2  0
 30 33  1  0
 30 29  1  0
 31 30  2  0
 32 31  1  0
 32 27  2  0
 33 34  1  0
 34 35  1  0
 35 36  2  0
 37 36  1  0
 37 41  1  0
 38 37  2  0
 39 34  2  0
 39 38  1  0
 40 39  1  0
 42 43  1  0
 43 46  1  0
 43 45  1  0
 44 42  2  0
 47 22  1  0
 47 48  1  0
 49 47  1  0
 51 54  1  0
 51 52  2  0
 52 50  1  0
 53 50  2  0
 54 53  1  0
 55 52  1  0
 55 56  1  0
 56 58  1  0
 57 68  2  0
 58 63  1  0
 59 67  1  0
 59 69  1  0
 60 66  1  0
 60 62  1  0
 61 67  1  0
 62 61  1  0
 63 62  2  0
 64 65  1  0
 64 58  2  0
 65 60  2  0
 66 59  1  0
 67 57  1  0
 69 71  2  0
 70 69  1  0
 72 70  1  0
 73 82  2  0
 73 78  1  0
 74 70  1  0
 74 78  1  0
 75 74  1  0
 76 77  1  0
 76 75  1  0
 77 73  1  0
 78 79  2  0
 79 80  1  0
 81 80  2  0
 82 81  1  0
 83 57  1  0
 83 88  1  0
 83 84  1  0
 84 87  1  1
 84 85  1  0
 86 84  1  0
 88 91  1  0
 89 93  1  0
 89 88  1  0
 90 89  2  0
 93 92  1  0
 95 93  1  0
 95 96  1  0
 95 94  1  0
M  ISO  4  12 100  20 100  55 101  56 101
M  END
>  <TORSDO>  (92) 
F 19

>  <SCORE>  (92) 
-11.455

>  <name>  (92) 
91

>  <ligand_id>  (92) 
91

>  <original_smiles>  (92) 
[H]c1oc(C2([H])C([H])([H])N(c3c(N([H])C(=O)N4C([H])([H])C([H])([H])C([H])([H])C([H])(n5nc(-c6c([H])c([H])c(Oc7c([H])c([H])c(F)c([H])c7F)c([H])c6[H])c(C(=O)N([H])[H])c5N([H])[H])C4([H])[H])sc(C([H])([H])[H])c3[H])C([H])([H])C2([H])[H])c([H])c1C([H])([H])Oc1c([H])c([H])c2c(c1[H])C([H])([H])N(C(=O)C([H])(N([H])C(=O)C([H])(N([H])C([H])([H])[H])C([H])([H])[H])C(C([H])([H])[H])(C([H])([H])[H])C([H])([H])[H])C([H])(C(=O)N([H])C1([H])c3c([H])c([H])c([H])c([H])c3C([H])([H])C([H])([H])C1([H])[H])C2([H])[H]

>  <smiles>  (92) 
[H]c1oc(C2([H])C([H])([H])N(c3c(N([H])C(=O)N4C([H])([H])C([H])([H])C([H])([H])C([H])(n5nc(-c6c([H])c([H])c(Oc7c([H])c([H])c(F)c([H])c7F)c([H])c6[H])c(C(=O)N([H])[H])c5N([H])[H])C4([H])[H])sc(C([H])([H])[H])c3[H])C([H])([H])C2([H])[H])c([H])c1C([H])([H])Oc1c([H])c([H])c2c(c1[H])C([H])([H])N(C(=O)C([H])(N([H])C(=O)C([H])(N([H])C([H])([H])[H])C([H])([H])[H])C(C([H])([H])[H])(C([H])([H])[H])C([H])([H])[H])C([H])(C(=O)N([H])C1([H])c3c([H])c([H])c([H])c([H])c3C([H])([H])C([H])([H])C1([H])[H])C2([H])[H]

$$$$
92:0:0
     RDKit          3D

 97106  0  0  1  0  0  0  0  0999 V2000
  -28.9950  -24.3680   19.2280 C   0  0  0  0  0  0  0  0  0  0  0  0
  -28.5600  -25.6370   19.0040 C   0  0  0  0  0  3  0  0  0  0  0  0
  -29.9910  -21.3390   21.1650 C   0  0  0  0  0  3  0  0  0  0  0  0
  -29.0320  -23.3060   18.1500 C   0  0  0  0  0  2  0  0  0  0  0  0
  -29.4550  -23.7420   20.5350 C   0  0  0  0  0  2  0  0  0  0  0  0
  -29.2280  -21.9610   18.8650 C   0  0  0  0  0  2  0  0  0  0  0  0
  -29.6180  -22.2810   20.2510 N   0  0  0  0  0  0  0  0  0  0  0  0
  -30.2370  -21.7520   22.4060 N   0  0  0  0  0  0  0  0  0  0  0  0
  -30.5180  -21.0720   23.0950 H   0  0  0  0  0  0  0  0  0  0  0  0
  -30.1750  -22.7170   22.6790 H   0  0  0  0  0  0  0  0  0  0  0  0
  -29.0890  -19.0560   21.4670 C   0  0  0  0  0  3  0  0  0  0  0  0
  -29.1530  -17.6460   21.4110 C   0  0  0  0  0  3  0  0  0  0  0  0
  -31.2670  -17.7880   20.2470 C   0  0  0  0  0  3  0  0  0  0  0  0
  -30.1100  -19.8700   20.9230 C   0  0  0  0  0  0  0  0  0  0  0  0
  -31.2200  -19.2130   20.3050 C   0  0  0  0  0  0  0  0  0  0  0  0
  -30.2440  -16.9820   20.8120 C   0  0  0  0  0  0  0  0  0  0  0  0
  -30.9050  -14.6070   20.1350 C   0  0  0  0  0  0  0  0  0  0  0  0
  -30.6000  -12.4560   18.9480 C   0  0  0  0  0  2  0  0  0  0  0  0
  -29.5870  -12.6700   17.8000 C   0  0  0  0  0  2  0  0  0  0  0  0
  -28.1360  -12.5150   18.3010 C   0  0  0  0  0  2  0  0  0  0  0  0
  -27.8630  -13.3180   19.5990 C   0  0  0  0  0  3  0  0  0  0  0  0
  -28.9750  -13.0570   20.6420 C   0  0  0  0  0  2  0  0  0  0  0  0
  -30.2690  -13.4050   20.0230 N   0  0  0  0  0  0  0  0  0  0  0  0
  -31.9890  -14.8360   19.5890 O   0  0  0  0  0  0  0  0  0  0  0  0
  -30.2070  -15.5420   20.8190 N   0  0  0  0  0  0  0  0  0  0  0  0
  -29.4180  -15.1480   21.3050 H   0  0  0  0  0  0  0  0  0  0  0  0
  -25.5090  -13.9150   20.4540 C   0  0  0  0  0  0  0  0  0  0  0  0
  -24.4570  -13.1360   20.8550 C   0  0  0  0  0  0  0  0  0  0  0  0
  -24.9060  -11.7840   20.7530 C   0  0  0  0  0  0  0  0  0  0  0  0
  -26.5350  -13.0360   20.1380 N   0  0  0  0  0  0  0  0  0  0  0  0
  -26.1770  -11.7480   20.3730 N   0  0  0  0  0  0  0  0  0  0  0  0
  -24.1820  -10.5200   20.9390 C   0  0  0  0  0  0  0  0  0  0  0  0
  -24.6010   -9.5620   21.8880 C   0  0  0  0  0  3  0  0  0  0  0  0
  -23.8790   -8.3620   22.0620 C   0  0  0  0  0  3  0  0  0  0  0  0
  -22.7230   -8.1110   21.2840 C   0  0  0  0  0  0  0  0  0  0  0  0
  -22.3240   -9.0580   20.3240 C   0  0  0  0  0  3  0  0  0  0  0  0
  -23.0470  -10.2500   20.1490 C   0  0  0  0  0  3  0  0  0  0  0  0
  -21.9710   -6.9640   21.3650 O   0  0  0  0  0  0  0  0  0  0  0  0
  -21.8150   -6.2890   22.5500 C   0  0  0  0  0  0  0  0  0  0  0  0
  -21.2430   -6.9010   23.6870 C   0  0  0  0  0  3  0  0  0  0  0  0
  -21.0360   -6.1510   24.8610 C   0  0  0  0  0  3  0  0  0  0  0  0
  -21.3930   -4.7900   24.9000 C   0  0  0  0  0  0  0  0  0  0  0  0
  -21.9570   -4.1770   23.7680 C   0  0  0  0  0  3  0  0  0  0  0  0
  -22.1650   -4.9240   22.5950 C   0  0  0  0  0  0  0  0  0  0  0  0
  -22.6910   -4.3240   21.5000 F   0  0  0  0  0  0  0  0  0  0  0  0
  -21.1870   -4.0670   26.0260 F   0  0  0  0  0  0  0  0  0  0  0  0
  -23.0790  -13.6110   21.2170 C   0  0  0  0  0  0  0  0  0  0  0  0
  -22.3980  -12.8960   22.1070 N   0  0  0  0  0  0  0  0  0  0  0  0
  -22.6160  -14.6500   20.7480 O   0  0  0  0  0  0  0  0  0  0  0  0
  -22.7860  -12.0550   22.5070 H   0  0  0  0  0  0  0  0  0  0  0  0
  -21.4770  -13.1940   22.3930 H   0  0  0  0  0  0  0  0  0  0  0  0
  -25.6750  -15.2900   20.3140 N   0  0  0  0  0  0  0  0  0  0  0  0
  -24.9200  -15.9460   20.4850 H   0  0  0  0  0  0  0  0  0  0  0  0
  -26.5050  -15.7330   19.9410 H   0  0  0  0  0  0  0  0  0  0  0  0
  -33.6790  -19.7860   20.6070 C   0  0  0  0  0  1  0  0  0  0  0  0
  -32.4200  -19.9770   19.7520 C   0  0  0  0  0  2  0  0  0  0  0  0
  -28.4370  -26.6540   19.9340 O   0  0  0  0  0  0  0  0  0  0  0  0
  -24.5980  -31.7340   23.2170 C   0  0  0  0  0  0  0  0  0  0  0  0
  -27.2700  -27.4120   19.9430 C   0  0  0  0  0  0  0  0  0  0  0  0
  -23.3950  -30.3710   21.5430 C   0  0  0  0  0  3  0  0  0  0  0  0
  -24.8530  -28.9050   20.0470 C   0  0  0  0  0  0  0  0  0  0  0  0
  -25.9160  -30.7660   21.3300 C   0  0  0  0  0  2  0  0  0  0  0  0
  -26.0150  -29.4180   20.6370 C   0  0  0  0  0  0  0  0  0  0  0  0
  -27.2250  -28.6790   20.5830 C   0  0  0  0  0  3  0  0  0  0  0  0
  -26.0750  -26.9170   19.3670 C   0  0  0  0  0  3  0  0  0  0  0  0
  -24.8790  -27.6550   19.4110 C   0  0  0  0  0  3  0  0  0  0  0  0
  -23.5980  -29.7450   20.1380 C   0  0  0  0  0  2  0  0  0  0  0  0
  -24.6550  -30.9700   22.0870 N   0  0  0  0  0  0  0  0  0  0  0  0
  -23.5190  -31.9700   23.7780 O   0  0  0  0  0  0  0  0  0  0  0  0
  -22.7670  -29.3080   22.4750 C   0  0  0  0  0  0  0  0  0  0  0  0
  -21.4590  -29.0570   22.3070 N   0  0  0  0  0  0  0  0  0  0  0  0
  -23.4580  -28.7120   23.3050 O   0  0  0  0  0  0  0  0  0  0  0  0
  -20.9580  -29.5950   21.6120 H   0  0  0  0  0  0  0  0  0  0  0  0
  -18.1540  -27.6330   22.6510 C   0  0  0  0  0  0  0  0  0  0  0  0
  -20.6710  -28.0710   23.0470 C   0  0  0  0  0  3  0  0  0  0  0  0
  -20.9010  -26.6460   22.4930 C   0  0  0  0  0  2  0  0  0  0  0  0
  -19.8780  -26.2400   21.4290 C   0  0  0  0  0  2  0  0  0  0  0  0
  -18.4580  -26.2940   21.9990 C   0  0  0  0  0  2  0  0  0  0  0  0
  -19.1950  -28.4730   23.1300 C   0  0  0  0  0  0  0  0  0  0  0  0
  -18.8600  -29.7220   23.6950 C   0  0  0  0  0  3  0  0  0  0  0  0
  -17.5170  -30.1340   23.7890 C   0  0  0  0  0  3  0  0  0  0  0  0
  -16.4910  -29.2910   23.3280 C   0  0  0  0  0  3  0  0  0  0  0  0
  -16.8100  -28.0430   22.7660 C   0  0  0  0  0  3  0  0  0  0  0  0
  -25.8810  -32.3650   23.8420 C   0  0  0  0  0  3  0  0  0  0  0  0
  -25.5720  -33.7630   24.1680 N   0  0  0  0  0  0  0  0  0  0  0  0
  -25.8850  -34.8120   23.3950 C   0  0  0  0  0  0  0  0  0  0  0  0
  -26.5370  -34.7040   22.3520 O   0  0  0  0  0  0  0  0  0  0  0  0
  -24.9920  -33.9210   24.9780 H   0  0  0  0  0  0  0  0  0  0  0  0
  -24.1300  -36.5840   23.0730 C   0  0  0  0  0  1  0  0  0  0  0  0
  -25.3980  -36.2000   23.8510 C   0  0  0  0  0  3  0  0  0  0  0  0
  -27.5450  -37.1150   24.6140 C   0  0  0  0  0  1  0  0  0  0  0  0
  -26.4160  -37.2630   23.6990 N   0  0  0  0  0  0  0  0  0  0  0  0
  -26.0050  -38.1800   23.8520 H   0  0  0  0  0  0  0  0  0  0  0  0
  -26.3930  -31.5940   25.1210 C   0  0  1  0  0  0  0  0  0  0  0  0
  -25.2950  -31.3570   26.1840 C   0  0  0  0  0  1  0  0  0  0  0  0
  -26.9780  -30.2180   24.7310 C   0  0  0  0  0  1  0  0  0  0  0  0
  -27.5400  -32.3890   25.7870 C   0  0  0  0  0  1  0  0  0  0  0  0
  1  5  1  0
  2  1  2  0
  2 57  1  0
  3  8  1  0
  4  6  1  0
  4  1  1  0
  6  7  1  0
  7  5  1  0
  7  3  1  0
  8 10  1  0
  8  9  1  0
 12 11  1  0
 13 15  2  0
 13 16  1  0
 14  3  1  0
 14 11  2  0
 15 14  1  0
 16 25  1  0
 16 12  2  0
 17 25  1  0
 18 23  1  0
 19 20  1  0
 19 18  1  0
 21 20  1  0
 21 30  1  0
 21 22  1  0
 23 17  1  0
 23 22  1  0
 24 17  2  0
 25 26  1  0
 27 28  2  0
 28 47  1  0
 29 28  1  0
 29 32  1  0
 30 31  1  0
 30 27  1  0
 31 29  2  0
 32 33  1  0
 33 34  2  0
 35 38  1  0
 35 34  1  0
 36 35  2  0
 37 36  1  0
 37 32  2  0
 38 39  1  0
 39 44  2  0
 39 40  1  0
 40 41  2  0
 41 42  1  0
 42 46  1  0
 43 42  2  0
 44 43  1  0
 45 44  1  0
 47 48  1  0
 48 51  1  0
 48 50  1  0
 49 47  2  0
 52 27  1  0
 52 53  1  0
 54 52  1  0
 56 15  1  0
 56 55  1  0
 57 59  1  0
 58 69  2  0
 59 64  1  0
 60 68  1  0
 60 70  1  0
 61 67  1  0
 61 63  1  0
 62 68  1  0
 63 62  1  0
 64 63  2  0
 65 66  1  0
 65 59  2  0
 66 61  2  0
 67 60  1  0
 68 58  1  0
 70 72  2  0
 71 70  1  0
 73 71  1  0
 74 83  2  0
 74 79  1  0
 75 71  1  0
 75 79  1  0
 76 75  1  0
 77 78  1  0
 77 76  1  0
 78 74  1  0
 79 80  2  0
 80 81  1  0
 82 81  2  0
 83 82  1  0
 84 58  1  0
 84 85  1  0
 84 94  1  0
 85 88  1  0
 86 90  1  0
 86 85  1  0
 87 86  2  0
 90 89  1  0
 92 90  1  0
 92 93  1  0
 92 91  1  0
 94 97  1  1
 94 95  1  0
 96 94  1  0
M  ISO  4   2 101  17 100  25 100  57 101
M  END
>  <TORSDO>  (93) 
F 18

>  <SCORE>  (93) 
-13.366

>  <name>  (93) 
92

>  <ligand_id>  (93) 
92

>  <original_smiles>  (93) 
[H]C(Oc1c([H])c([H])c2c(c1[H])C([H])([H])N(C(=O)C([H])(N([H])C(=O)C([H])(N([H])C([H])([H])[H])C([H])([H])[H])C(C([H])([H])[H])(C([H])([H])[H])C([H])([H])[H])C([H])(C(=O)N([H])C1([H])c3c([H])c([H])c([H])c([H])c3C([H])([H])C([H])([H])C1([H])[H])C2([H])[H])=C1C([H])([H])N(C(c2c([H])c([H])c(N([H])C(=O)N3C([H])([H])C([H])([H])C([H])([H])C([H])(n4nc(-c5c([H])c([H])c(Oc6c([H])c([H])c(F)c([H])c6F)c([H])c5[H])c(C(=O)N([H])[H])c4N([H])[H])C3([H])[H])c([H])c2C([H])([H])C([H])([H])[H])=[N+]([H])[H])C([H])([H])C1([H])[H]

>  <smiles>  (93) 
[H]C(Oc1c([H])c([H])c2c(c1[H])C([H])([H])N(C(=O)C([H])(N([H])C(=O)C([H])(N([H])C([H])([H])[H])C([H])([H])[H])C(C([H])([H])[H])(C([H])([H])[H])C([H])([H])[H])C([H])(C(=O)N([H])C1([H])c3c([H])c([H])c([H])c([H])c3C([H])([H])C([H])([H])C1([H])[H])C2([H])[H])=C1C([H])([H])N(C(c2c([H])c([H])c(N([H])C(=O)N3C([H])([H])C([H])([H])C([H])([H])C([H])(n4nc(-c5c([H])c([H])c(Oc6c([H])c([H])c(F)c([H])c6F)c([H])c5[H])c(C(=O)N([H])[H])c4N([H])[H])C3([H])[H])c([H])c2C([H])([H])C([H])([H])[H])=[N+]([H])[H])C([H])([H])C1([H])[H]

$$$$
93:0:0
     RDKit          3D

 97105  0  0  1  0  0  0  0  0999 V2000
  -28.0150  -21.1040   21.8390 C   0  0  0  0  0  1  0  0  0  0  0  0
  -29.0970  -21.1310   20.7340 C   0  0  0  0  0  3  0  0  0  0  0  0
  -27.5690  -19.4630   19.5670 C   0  0  0  0  0  1  0  0  0  0  0  0
  -29.4760  -20.3620   18.2730 C   0  0  0  0  0  1  0  0  0  0  0  0
  -29.0340  -19.9460   19.6980 C   0  0  1  0  0  0  0  0  0  0  0  0
  -31.2920  -19.1750   20.6290 C   0  0  0  0  0  3  0  0  0  0  0  0
  -31.8410  -16.8390   21.0350 C   0  0  0  0  0  3  0  0  0  0  0  0
  -29.6630  -17.4560   20.1020 C   0  0  0  0  0  3  0  0  0  0  0  0
  -32.1990  -18.1990   21.0800 C   0  0  0  0  0  0  0  0  0  0  0  0
  -30.0010  -18.8290   20.1560 C   0  0  0  0  0  0  0  0  0  0  0  0
  -30.5830  -16.4690   20.5230 C   0  0  0  0  0  0  0  0  0  0  0  0
  -33.5550  -18.6150   21.6120 C   0  0  0  0  0  1  0  0  0  0  0  0
  -30.4650  -14.3090   19.4130 C   0  0  0  0  0  0  0  0  0  0  0  0
  -30.1140  -12.0640   18.4630 C   0  0  0  0  0  2  0  0  0  0  0  0
  -29.0040  -12.0640   17.3990 C   0  0  0  0  0  2  0  0  0  0  0  0
  -27.6210  -11.8700   18.0460 C   0  0  0  0  0  2  0  0  0  0  0  0
  -27.3840  -12.8400   19.2290 C   0  0  0  0  0  3  0  0  0  0  0  0
  -28.5820  -12.8340   20.2050 C   0  0  0  0  0  2  0  0  0  0  0  0
  -29.8200  -13.1150   19.4480 N   0  0  0  0  0  0  0  0  0  0  0  0
  -31.2960  -14.6070   18.5470 O   0  0  0  0  0  0  0  0  0  0  0  0
  -30.2310  -15.1060   20.4630 N   0  0  0  0  0  0  0  0  0  0  0  0
  -29.6730  -14.7300   21.2160 H   0  0  0  0  0  0  0  0  0  0  0  0
  -25.1340  -13.4040   20.3530 C   0  0  0  0  0  0  0  0  0  0  0  0
  -24.1440  -12.6120   20.8650 C   0  0  0  0  0  0  0  0  0  0  0  0
  -24.5920  -11.2640   20.7030 C   0  0  0  0  0  0  0  0  0  0  0  0
  -26.1270  -12.5420   19.9150 N   0  0  0  0  0  0  0  0  0  0  0  0
  -25.8110  -11.2470   20.1780 N   0  0  0  0  0  0  0  0  0  0  0  0
  -23.9100   -9.9900   20.9630 C   0  0  0  0  0  0  0  0  0  0  0  0
  -24.3880   -9.0820   21.9330 C   0  0  0  0  0  3  0  0  0  0  0  0
  -23.7070   -7.8710   22.1790 C   0  0  0  0  0  3  0  0  0  0  0  0
  -22.5320   -7.5590   21.4540 C   0  0  0  0  0  0  0  0  0  0  0  0
  -22.0730   -8.4560   20.4730 C   0  0  0  0  0  3  0  0  0  0  0  0
  -22.7560   -9.6580   20.2260 C   0  0  0  0  0  3  0  0  0  0  0  0
  -21.8190   -6.3940   21.6050 O   0  0  0  0  0  0  0  0  0  0  0  0
  -21.6760   -5.7920   22.8290 C   0  0  0  0  0  0  0  0  0  0  0  0
  -21.0790   -6.4570   23.9220 C   0  0  0  0  0  3  0  0  0  0  0  0
  -20.8900   -5.7770   25.1420 C   0  0  0  0  0  3  0  0  0  0  0  0
  -21.2870   -4.4320   25.2690 C   0  0  0  0  0  0  0  0  0  0  0  0
  -21.8750   -3.7660   24.1790 C   0  0  0  0  0  3  0  0  0  0  0  0
  -22.0670   -4.4440   22.9630 C   0  0  0  0  0  0  0  0  0  0  0  0
  -22.6160   -3.7910   21.9100 F   0  0  0  0  0  0  0  0  0  0  0  0
  -21.0970   -3.7760   26.4380 F   0  0  0  0  0  0  0  0  0  0  0  0
  -22.8130  -13.0670   21.3930 C   0  0  0  0  0  0  0  0  0  0  0  0
  -22.2610  -12.3530   22.3670 N   0  0  0  0  0  0  0  0  0  0  0  0
  -22.2750  -14.0910   20.9730 O   0  0  0  0  0  0  0  0  0  0  0  0
  -22.7090  -11.5230   22.7260 H   0  0  0  0  0  0  0  0  0  0  0  0
  -21.3760  -12.6410   22.7610 H   0  0  0  0  0  0  0  0  0  0  0  0
  -25.2700  -14.7830   20.2050 N   0  0  0  0  0  0  0  0  0  0  0  0
  -24.5470  -15.4390   20.4810 H   0  0  0  0  0  0  0  0  0  0  0  0
  -26.0720  -15.2320   19.7830 H   0  0  0  0  0  0  0  0  0  0  0  0
  -29.3110  -22.5600   20.1800 C   0  0  0  0  0  2  0  0  0  0  0  0
  -28.1760  -23.2180   19.3660 C   0  0  0  0  0  2  0  0  0  0  0  0
  -29.4300  -25.4290   19.7110 C   0  0  0  0  0  1  0  0  0  0  0  0
  -27.2530  -24.9890   20.9270 C   0  0  0  0  0  1  0  0  0  0  0  0
  -28.0440  -24.7440   19.6200 C   0  0  2  0  0  0  0  0  0  0  0  0
  -27.2800  -25.3630   18.4320 C   0  0  0  0  0  2  0  0  0  0  0  0
  -27.3330  -26.7850   18.5330 O   0  0  0  0  0  0  0  0  0  0  0  0
  -24.8250  -31.4760   23.2420 C   0  0  0  0  0  0  0  0  0  0  0  0
  -26.2430  -27.5110   18.9490 C   0  0  0  0  0  0  0  0  0  0  0  0
  -23.1680  -30.5710   21.6470 C   0  0  0  0  0  3  0  0  0  0  0  0
  -24.1190  -29.1960   19.7280 C   0  0  0  0  0  0  0  0  0  0  0  0
  -25.6480  -30.6810   21.0340 C   0  0  0  0  0  2  0  0  0  0  0  0
  -25.4220  -29.4650   20.1660 C   0  0  0  0  0  0  0  0  0  0  0  0
  -26.4820  -28.6190   19.7870 C   0  0  0  0  0  3  0  0  0  0  0  0
  -24.9190  -27.2440   18.5290 C   0  0  0  0  0  3  0  0  0  0  0  0
  -23.8600  -28.0770   18.9230 C   0  0  0  0  0  3  0  0  0  0  0  0
  -23.0390  -30.1630   20.1570 C   0  0  0  0  0  2  0  0  0  0  0  0
  -24.5760  -30.9120   22.0280 N   0  0  0  0  0  0  0  0  0  0  0  0
  -23.9020  -31.7540   24.0190 O   0  0  0  0  0  0  0  0  0  0  0  0
  -22.5530  -29.4500   22.5160 C   0  0  0  0  0  0  0  0  0  0  0  0
  -21.2240  -29.2840   22.4190 N   0  0  0  0  0  0  0  0  0  0  0  0
  -23.2630  -28.7380   23.2300 O   0  0  0  0  0  0  0  0  0  0  0  0
  -20.7080  -29.9090   21.8150 H   0  0  0  0  0  0  0  0  0  0  0  0
  -17.9150  -27.8710   22.6910 C   0  0  0  0  0  0  0  0  0  0  0  0
  -20.4330  -28.2720   23.1150 C   0  0  0  0  0  3  0  0  0  0  0  0
  -20.6570  -26.8710   22.5010 C   0  0  0  0  0  2  0  0  0  0  0  0
  -19.6320  -26.5180   21.4170 C   0  0  0  0  0  2  0  0  0  0  0  0
  -18.2110  -26.5570   21.9870 C   0  0  0  0  0  2  0  0  0  0  0  0
  -18.9590  -28.6850   23.2050 C   0  0  0  0  0  0  0  0  0  0  0  0
  -18.6300  -29.9160   23.8130 C   0  0  0  0  0  3  0  0  0  0  0  0
  -17.2900  -30.3330   23.9170 C   0  0  0  0  0  3  0  0  0  0  0  0
  -16.2600  -29.5160   23.4200 C   0  0  0  0  0  3  0  0  0  0  0  0
  -16.5740  -28.2870   22.8130 C   0  0  0  0  0  3  0  0  0  0  0  0
  -26.2770  -31.8210   23.7000 C   0  0  0  0  0  3  0  0  0  0  0  0
  -26.2400  -33.1610   24.2960 N   0  0  0  0  0  0  0  0  0  0  0  0
  -26.6400  -34.2800   23.6790 C   0  0  0  0  0  0  0  0  0  0  0  0
  -27.1570  -34.2790   22.5580 O   0  0  0  0  0  0  0  0  0  0  0  0
  -25.7790  -33.2440   25.1900 H   0  0  0  0  0  0  0  0  0  0  0  0
  -25.1880  -36.3250   23.8720 C   0  0  0  0  0  1  0  0  0  0  0  0
  -26.4330  -35.6120   24.4240 C   0  0  0  0  0  3  0  0  0  0  0  0
  -28.7620  -36.0250   25.0870 C   0  0  0  0  0  1  0  0  0  0  0  0
  -27.6010  -36.5170   24.3490 N   0  0  0  0  0  0  0  0  0  0  0  0
  -27.3640  -37.4380   24.7080 H   0  0  0  0  0  0  0  0  0  0  0  0
  -26.8760  -30.7710   24.7150 C   0  0  1  0  0  0  0  0  0  0  0  0
  -25.9450  -30.4640   25.9100 C   0  0  0  0  0  1  0  0  0  0  0  0
  -27.1860  -29.4330   24.0030 C   0  0  0  0  0  1  0  0  0  0  0  0
  -28.2180  -31.2930   25.2810 C   0  0  0  0  0  1  0  0  0  0  0  0
  2  1  1  0
  5  3  1  6
  4  5  1  0
  5 10  1  0
  5  2  1  0
  6  9  1  0
  7  9  2  0
  8 10  1  0
  8 11  2  0
  9 12  1  0
 10  6  2  0
 11  7  1  0
 13 19  1  0
 13 21  1  0
 14 19  1  0
 15 16  1  0
 15 14  1  0
 17 16  1  0
 17 26  1  0
 17 18  1  0
 19 18  1  0
 20 13  2  0
 21 11  1  0
 21 22  1  0
 23 24  2  0
 24 43  1  0
 25 24  1  0
 25 28  1  0
 26 27  1  0
 26 23  1  0
 27 25  2  0
 28 29  1  0
 29 30  2  0
 31 34  1  0
 31 30  1  0
 32 31  2  0
 33 32  1  0
 33 28  2  0
 34 35  1  0
 35 40  2  0
 35 36  1  0
 36 37  2  0
 37 38  1  0
 38 42  1  0
 39 38  2  0
 40 39  1  0
 41 40  1  0
 43 44  1  0
 44 46  1  0
 44 47  1  0
 45 43  2  0
 48 23  1  0
 48 49  1  0
 50 48  1  0
 51  2  1  0
 52 55  1  0
 52 51  1  0
 55 53  1  1
 55 54  1  0
 56 57  1  0
 56 55  1  0
 57 59  1  0
 58 69  2  0
 59 64  1  0
 60 68  1  0
 60 70  1  0
 61 67  1  0
 61 63  1  0
 62 68  1  0
 63 62  1  0
 64 63  2  0
 65 66  1  0
 65 59  2  0
 66 61  2  0
 67 60  1  0
 68 58  1  0
 70 72  2  0
 71 70  1  0
 73 71  1  0
 74 83  2  0
 74 79  1  0
 75 71  1  0
 75 79  1  0
 76 75  1  0
 77 78  1  0
 77 76  1  0
 78 74  1  0
 79 80  2  0
 80 81  1  0
 82 81  2  0
 83 82  1  0
 84 58  1  0
 84 85  1  0
 84 94  1  0
 85 88  1  0
 86 85  1  0
 86 90  1  0
 87 86  2  0
 90 89  1  0
 92 90  1  0
 92 93  1  0
 92 91  1  0
 94 97  1  1
 94 95  1  0
 96 94  1  0
M  ISO  4  13 100  21 100  56 101  57 101
M  END
>  <TORSDO>  (94) 
F 22

>  <SCORE>  (94) 
-9.228

>  <name>  (94) 
93

>  <ligand_id>  (94) 
93

>  <original_smiles>  (94) 
[H]c1c([H])c([H])c2c(c1[H])C([H])([H])C([H])([H])C([H])([H])C2([H])N([H])C(=O)C1([H])N(C(=O)C([H])(N([H])C(=O)C([H])(N([H])C([H])([H])[H])C([H])([H])[H])C(C([H])([H])[H])(C([H])([H])[H])C([H])([H])[H])C([H])([H])c2c([H])c(OC([H])([H])C(C([H])([H])[H])(C([H])([H])[H])C([H])([H])C([H])([H])C([H])(C([H])([H])[H])C(c3c([H])c(N([H])C(=O)N4C([H])([H])C([H])([H])C([H])([H])C([H])(n5nc(-c6c([H])c([H])c(Oc7c([H])c([H])c(F)c([H])c7F)c([H])c6[H])c(C(=O)N([H])[H])c5N([H])[H])C4([H])[H])c([H])c(C([H])([H])[H])c3[H])(C([H])([H])[H])C([H])([H])[H])c([H])c([H])c2C1([H])[H]

>  <smiles>  (94) 
[H]c1c([H])c([H])c2c(c1[H])C([H])([H])C([H])([H])C([H])([H])C2([H])N([H])C(=O)C1([H])N(C(=O)C([H])(N([H])C(=O)C([H])(N([H])C([H])([H])[H])C([H])([H])[H])C(C([H])([H])[H])(C([H])([H])[H])C([H])([H])[H])C([H])([H])c2c([H])c(OC([H])([H])C(C([H])([H])[H])(C([H])([H])[H])C([H])([H])C([H])([H])C([H])(C([H])([H])[H])C(c3c([H])c(N([H])C(=O)N4C([H])([H])C([H])([H])C([H])([H])C([H])(n5nc(-c6c([H])c([H])c(Oc7c([H])c([H])c(F)c([H])c7F)c([H])c6[H])c(C(=O)N([H])[H])c5N([H])[H])C4([H])[H])c([H])c(C([H])([H])[H])c3[H])(C([H])([H])[H])C([H])([H])[H])c([H])c([H])c2C1([H])[H]

$$$$
94:0:0
     RDKit          3D

 96105  0  0  1  0  0  0  0  0999 V2000
  -28.8180  -24.4830   21.5730 C   0  0  0  0  0  0  0  0  0  0  0  0
  -28.4950  -25.7870   21.2550 C   0  0  0  0  0  3  0  0  0  0  0  0
  -30.1720  -20.8630   21.8620 C   0  0  0  0  0  3  0  0  0  0  0  0
  -28.9250  -24.1700   23.0370 C   0  0  0  0  0  2  0  0  0  0  0  0
  -29.1500  -23.1490   20.8080 C   0  0  0  0  0  2  0  0  0  0  0  0
  -29.7810  -22.9270   23.1460 C   0  0  0  0  0  2  0  0  0  0  0  0
  -29.7130  -22.1890   21.8570 N   0  0  0  0  0  0  0  0  0  0  0  0
  -30.7830  -20.4760   22.9860 N   0  0  0  0  0  0  0  0  0  0  0  0
  -31.2280  -19.5720   23.0000 H   0  0  0  0  0  0  0  0  0  0  0  0
  -30.9290  -21.0910   23.7680 H   0  0  0  0  0  0  0  0  0  0  0  0
  -30.4100  -19.9920   19.4760 C   0  0  0  0  0  3  0  0  0  0  0  0
  -30.5830  -18.9070   18.5850 C   0  0  0  0  0  3  0  0  0  0  0  0
  -30.0820  -18.3650   21.2610 C   0  0  0  0  0  3  0  0  0  0  0  0
  -30.1680  -19.7500   20.8410 C   0  0  0  0  0  0  0  0  0  0  0  0
  -30.3110  -17.2510   20.3850 C   0  0  0  0  0  0  0  0  0  0  0  0
  -30.5450  -17.5620   19.0240 C   0  0  0  0  0  0  0  0  0  0  0  0
  -30.6930  -16.5710   18.1110 F   0  0  0  0  0  0  0  0  0  0  0  0
  -30.9610  -14.7760   20.4440 C   0  0  0  0  0  0  0  0  0  0  0  0
  -30.7540  -12.5270   19.4170 C   0  0  0  0  0  2  0  0  0  0  0  0
  -29.8510  -12.6530   18.1700 C   0  0  0  0  0  2  0  0  0  0  0  0
  -28.3650  -12.5130   18.5520 C   0  0  0  0  0  2  0  0  0  0  0  0
  -27.9770  -13.3940   19.7690 C   0  0  0  0  0  3  0  0  0  0  0  0
  -28.9980  -13.2450   20.9220 C   0  0  0  0  0  2  0  0  0  0  0  0
  -30.3300  -13.5600   20.3850 N   0  0  0  0  0  0  0  0  0  0  0  0
  -32.1270  -14.9080   20.0590 O   0  0  0  0  0  0  0  0  0  0  0  0
  -30.2150  -15.8580   20.8360 N   0  0  0  0  0  0  0  0  0  0  0  0
  -29.3690  -15.6270   21.3330 H   0  0  0  0  0  0  0  0  0  0  0  0
  -25.5650  -14.0210   20.3960 C   0  0  0  0  0  0  0  0  0  0  0  0
  -24.4820  -13.2620   20.7480 C   0  0  0  0  0  0  0  0  0  0  0  0
  -24.9360  -11.9080   20.7620 C   0  0  0  0  0  0  0  0  0  0  0  0
  -26.6110  -13.1300   20.2150 N   0  0  0  0  0  0  0  0  0  0  0  0
  -26.2350  -11.8550   20.4950 N   0  0  0  0  0  0  0  0  0  0  0  0
  -24.1960  -10.6550   20.9570 C   0  0  0  0  0  0  0  0  0  0  0  0
  -24.5890   -9.7080   21.9290 C   0  0  0  0  0  3  0  0  0  0  0  0
  -23.8490   -8.5200   22.1110 C   0  0  0  0  0  3  0  0  0  0  0  0
  -22.7030   -8.2680   21.3200 C   0  0  0  0  0  0  0  0  0  0  0  0
  -22.3310   -9.2010   20.3380 C   0  0  0  0  0  3  0  0  0  0  0  0
  -23.0710  -10.3820   20.1550 C   0  0  0  0  0  3  0  0  0  0  0  0
  -21.9400   -7.1280   21.4090 O   0  0  0  0  0  0  0  0  0  0  0  0
  -21.8330   -6.4240   22.5810 C   0  0  0  0  0  0  0  0  0  0  0  0
  -21.3510   -7.0200   23.7670 C   0  0  0  0  0  3  0  0  0  0  0  0
  -21.1880   -6.2410   24.9310 C   0  0  0  0  0  3  0  0  0  0  0  0
  -21.4980   -4.8670   24.9090 C   0  0  0  0  0  0  0  0  0  0  0  0
  -21.9730   -4.2710   23.7270 C   0  0  0  0  0  3  0  0  0  0  0  0
  -22.1370   -5.0480   22.5670 C   0  0  0  0  0  0  0  0  0  0  0  0
  -22.5740   -4.4640   21.4240 F   0  0  0  0  0  0  0  0  0  0  0  0
  -21.3350   -4.1170   26.0230 F   0  0  0  0  0  0  0  0  0  0  0  0
  -23.0800  -13.7530   20.9640 C   0  0  0  0  0  0  0  0  0  0  0  0
  -22.3220  -13.0880   21.8280 N   0  0  0  0  0  0  0  0  0  0  0  0
  -22.6640  -14.7650   20.4000 O   0  0  0  0  0  0  0  0  0  0  0  0
  -22.6690  -12.2710   22.3090 H   0  0  0  0  0  0  0  0  0  0  0  0
  -21.3800  -13.4020   22.0130 H   0  0  0  0  0  0  0  0  0  0  0  0
  -25.7460  -15.3860   20.1960 N   0  0  0  0  0  0  0  0  0  0  0  0
  -24.9840  -16.0490   20.2810 H   0  0  0  0  0  0  0  0  0  0  0  0
  -26.6050  -15.8120   19.8750 H   0  0  0  0  0  0  0  0  0  0  0  0
  -28.3100  -26.4920   20.0700 O   0  0  0  0  0  0  0  0  0  0  0  0
  -24.6250  -31.8590   23.2160 C   0  0  0  0  0  0  0  0  0  0  0  0
  -27.2310  -27.3780   20.0680 C   0  0  0  0  0  0  0  0  0  0  0  0
  -23.4080  -30.4690   21.5770 C   0  0  0  0  0  3  0  0  0  0  0  0
  -24.8530  -28.9460   20.1130 C   0  0  0  0  0  0  0  0  0  0  0  0
  -25.9380  -30.8160   21.3590 C   0  0  0  0  0  2  0  0  0  0  0  0
  -26.0230  -29.4450   20.7020 C   0  0  0  0  0  0  0  0  0  0  0  0
  -27.2180  -28.6680   20.6790 C   0  0  0  0  0  3  0  0  0  0  0  0
  -26.0460  -26.9250   19.4590 C   0  0  0  0  0  3  0  0  0  0  0  0
  -24.8630  -27.6890   19.4850 C   0  0  0  0  0  3  0  0  0  0  0  0
  -23.6080  -29.8070   20.1880 C   0  0  0  0  0  2  0  0  0  0  0  0
  -24.6760  -31.0640   22.1080 N   0  0  0  0  0  0  0  0  0  0  0  0
  -23.5470  -32.1240   23.7700 O   0  0  0  0  0  0  0  0  0  0  0  0
  -22.7670  -29.4390   22.5370 C   0  0  0  0  0  0  0  0  0  0  0  0
  -21.4430  -29.2410   22.4140 N   0  0  0  0  0  0  0  0  0  0  0  0
  -23.4590  -28.8200   23.3500 O   0  0  0  0  0  0  0  0  0  0  0  0
  -20.9430  -29.7930   21.7320 H   0  0  0  0  0  0  0  0  0  0  0  0
  -18.0940  -27.9630   22.8980 C   0  0  0  0  0  0  0  0  0  0  0  0
  -20.6420  -28.2890   23.1870 C   0  0  0  0  0  3  0  0  0  0  0  0
  -20.7850  -26.8560   22.6220 C   0  0  0  0  0  2  0  0  0  0  0  0
  -19.7000  -26.4990   21.6010 C   0  0  0  0  0  2  0  0  0  0  0  0
  -18.3100  -26.6150   22.2330 C   0  0  0  0  0  2  0  0  0  0  0  0
  -19.1890  -28.7560   23.3320 C   0  0  0  0  0  0  0  0  0  0  0  0
  -18.9350  -30.0170   23.9140 C   0  0  0  0  0  3  0  0  0  0  0  0
  -17.6160  -30.4870   24.0660 C   0  0  0  0  0  3  0  0  0  0  0  0
  -16.5350  -29.6910   23.6480 C   0  0  0  0  0  3  0  0  0  0  0  0
  -16.7740  -28.4320   23.0710 C   0  0  0  0  0  3  0  0  0  0  0  0
  -25.9130  -32.4940   23.8270 C   0  0  0  0  0  3  0  0  0  0  0  0
  -25.6020  -33.8900   24.1720 N   0  0  0  0  0  0  0  0  0  0  0  0
  -25.9230  -34.9500   23.4180 C   0  0  0  0  0  0  0  0  0  0  0  0
  -26.5830  -34.8570   22.3800 O   0  0  0  0  0  0  0  0  0  0  0  0
  -25.0170  -34.0340   24.9820 H   0  0  0  0  0  0  0  0  0  0  0  0
  -24.1900  -36.7430   23.0920 C   0  0  0  0  0  1  0  0  0  0  0  0
  -25.4370  -36.3320   23.8920 C   0  0  0  0  0  3  0  0  0  0  0  0
  -27.5760  -37.2120   24.7170 C   0  0  0  0  0  1  0  0  0  0  0  0
  -26.4660  -37.3890   23.7840 N   0  0  0  0  0  0  0  0  0  0  0  0
  -26.0600  -38.3060   23.9470 H   0  0  0  0  0  0  0  0  0  0  0  0
  -26.4500  -31.7160   25.0900 C   0  0  1  0  0  0  0  0  0  0  0  0
  -25.3730  -31.4670   26.1730 C   0  0  0  0  0  1  0  0  0  0  0  0
  -27.0330  -30.3430   24.6800 C   0  0  0  0  0  1  0  0  0  0  0  0
  -27.6080  -32.5090   25.7400 C   0  0  0  0  0  1  0  0  0  0  0  0
  1  4  1  0
  2  1  2  0
  3  8  1  0
  4  6  1  0
  5  1  1  0
  5  7  1  0
  7  3  1  0
  7  6  1  0
  8  9  1  0
  8 10  1  0
 11 14  1  0
 12 16  1  0
 12 11  2  0
 14 13  2  0
 14  3  1  0
 15 26  1  0
 15 13  1  0
 16 15  2  0
 17 16  1  0
 18 26  1  0
 19 24  1  0
 20 21  1  0
 20 19  1  0
 22 21  1  0
 22 31  1  0
 22 23  1  0
 24 18  1  0
 24 23  1  0
 25 18  2  0
 26 27  1  0
 28 29  2  0
 29 30  1  0
 29 48  1  0
 30 33  1  0
 31 28  1  0
 31 32  1  0
 32 30  2  0
 33 34  1  0
 34 35  2  0
 36 39  1  0
 36 35  1  0
 37 36  2  0
 38 37  1  0
 38 33  2  0
 39 40  1  0
 40 41  1  0
 41 42  2  0
 43 42  1  0
 43 47  1  0
 44 43  2  0
 45 40  2  0
 45 44  1  0
 46 45  1  0
 48 49  1  0
 49 52  1  0
 49 51  1  0
 50 48  2  0
 53 54  1  0
 53 28  1  0
 55 53  1  0
 56  2  1  0
 57 68  2  0
 58 56  1  0
 58 63  1  0
 59 67  1  0
 59 69  1  0
 60 66  1  0
 60 62  1  0
 61 67  1  0
 62 61  1  0
 63 62  2  0
 64 65  1  0
 64 58  2  0
 65 60  2  0
 66 59  1  0
 67 57  1  0
 69 71  2  0
 70 69  1  0
 72 70  1  0
 73 82  2  0
 73 78  1  0
 74 70  1  0
 74 78  1  0
 75 74  1  0
 76 77  1  0
 76 75  1  0
 77 73  1  0
 78 79  2  0
 79 80  1  0
 81 80  2  0
 82 81  1  0
 83 57  1  0
 83 84  1  0
 83 93  1  0
 84 87  1  0
 85 89  1  0
 85 84  1  0
 86 85  2  0
 89 88  1  0
 91 89  1  0
 91 92  1  0
 91 90  1  0
 93 96  1  1
 93 94  1  0
 95 93  1  0
M  ISO  4   2 101  18 100  26 100  56 101
M  END
>  <TORSDO>  (95) 
F 17

>  <SCORE>  (95) 
-14.993

>  <name>  (95) 
94

>  <ligand_id>  (95) 
94

>  <original_smiles>  (95) 
[H]C(Oc1c([H])c([H])c2c(c1[H])C([H])([H])N(C(=O)C([H])(N([H])C(=O)C([H])(N([H])C([H])([H])[H])C([H])([H])[H])C(C([H])([H])[H])(C([H])([H])[H])C([H])([H])[H])C([H])(C(=O)N([H])C1([H])c3c([H])c([H])c([H])c([H])c3C([H])([H])C([H])([H])C1([H])[H])C2([H])[H])=C1C([H])([H])N(C(c2c([H])c([H])c(F)c(N([H])C(=O)N3C([H])([H])C([H])([H])C([H])([H])C([H])(n4nc(-c5c([H])c([H])c(Oc6c([H])c([H])c(F)c([H])c6F)c([H])c5[H])c(C(=O)N([H])[H])c4N([H])[H])C3([H])[H])c2[H])=[N+]([H])[H])C([H])([H])C1([H])[H]

>  <smiles>  (95) 
[H]C(Oc1c([H])c([H])c2c(c1[H])C([H])([H])N(C(=O)C([H])(N([H])C(=O)C([H])(N([H])C([H])([H])[H])C([H])([H])[H])C(C([H])([H])[H])(C([H])([H])[H])C([H])([H])[H])C([H])(C(=O)N([H])C1([H])c3c([H])c([H])c([H])c([H])c3C([H])([H])C([H])([H])C1([H])[H])C2([H])[H])=C1C([H])([H])N(C(c2c([H])c([H])c(F)c(N([H])C(=O)N3C([H])([H])C([H])([H])C([H])([H])C([H])(n4nc(-c5c([H])c([H])c(Oc6c([H])c([H])c(F)c([H])c6F)c([H])c5[H])c(C(=O)N([H])[H])c4N([H])[H])C3([H])[H])c2[H])=[N+]([H])[H])C([H])([H])C1([H])[H]

$$$$
95:0:0
     RDKit          3D

 93102  0  0  1  0  0  0  0  0999 V2000
  -27.4170  -21.5120   20.2590 C   0  0  0  0  0  2  0  0  0  0  0  0
  -27.0250  -23.0080   19.9870 C   0  0  0  0  0  2  0  0  0  0  0  0
  -29.4240  -22.7020   19.6640 C   0  0  0  0  0  2  0  0  0  0  0  0
  -28.8230  -21.2220   19.6720 C   0  0  0  0  0  3  0  0  0  0  0  0
  -28.2250  -23.6750   19.2900 C   0  0  0  0  0  3  0  0  0  0  0  0
  -29.5700  -18.6130   19.7860 C   0  0  0  0  0  3  0  0  0  0  0  0
  -30.3130  -20.1530   21.5110 C   0  0  0  0  0  3  0  0  0  0  0  0
  -31.0490  -17.8050   21.5350 C   0  0  0  0  0  3  0  0  0  0  0  0
  -29.5960  -19.9740   20.3080 C   0  0  0  0  0  0  0  0  0  0  0  0
  -30.2990  -17.4990   20.3790 C   0  0  0  0  0  0  0  0  0  0  0  0
  -31.0280  -19.0910   22.1210 C   0  0  0  0  0  0  0  0  0  0  0  0
  -30.9770  -14.9580   20.0870 C   0  0  0  0  0  0  0  0  0  0  0  0
  -30.7900  -12.6050   19.2290 C   0  0  0  0  0  2  0  0  0  0  0  0
  -29.8640  -12.6040   17.9940 C   0  0  0  0  0  2  0  0  0  0  0  0
  -28.3850  -12.4600   18.4200 C   0  0  0  0  0  2  0  0  0  0  0  0
  -28.0010  -13.4310   19.5720 C   0  0  0  0  0  3  0  0  0  0  0  0
  -29.0550  -13.4380   20.7030 C   0  0  0  0  0  2  0  0  0  0  0  0
  -30.3520  -13.7300   20.0840 N   0  0  0  0  0  0  0  0  0  0  0  0
  -32.1890  -15.0390   19.8640 O   0  0  0  0  0  0  0  0  0  0  0  0
  -30.1510  -16.0740   19.9840 N   0  0  0  0  0  0  0  0  0  0  0  0
  -29.2070  -15.8380   19.7300 H   0  0  0  0  0  0  0  0  0  0  0  0
  -25.6500  -14.0920   20.3520 C   0  0  0  0  0  0  0  0  0  0  0  0
  -24.5680  -13.3490   20.7380 C   0  0  0  0  0  0  0  0  0  0  0  0
  -24.9890  -11.9840   20.7000 C   0  0  0  0  0  0  0  0  0  0  0  0
  -26.6590  -13.1820   20.0910 N   0  0  0  0  0  0  0  0  0  0  0  0
  -26.2690  -11.9080   20.3610 N   0  0  0  0  0  0  0  0  0  0  0  0
  -24.2280  -10.7460   20.8960 C   0  0  0  0  0  0  0  0  0  0  0  0
  -24.6240   -9.7710   21.8400 C   0  0  0  0  0  3  0  0  0  0  0  0
  -23.8590   -8.6000   22.0230 C   0  0  0  0  0  3  0  0  0  0  0  0
  -22.6850   -8.3920   21.2620 C   0  0  0  0  0  0  0  0  0  0  0  0
  -22.3090   -9.3510   20.3060 C   0  0  0  0  0  3  0  0  0  0  0  0
  -23.0750  -10.5140   20.1200 C   0  0  0  0  0  3  0  0  0  0  0  0
  -21.8940   -7.2730   21.3550 O   0  0  0  0  0  0  0  0  0  0  0  0
  -21.7910   -6.5580   22.5220 C   0  0  0  0  0  0  0  0  0  0  0  0
  -21.3420   -7.1540   23.7200 C   0  0  0  0  0  3  0  0  0  0  0  0
  -21.1840   -6.3700   24.8800 C   0  0  0  0  0  3  0  0  0  0  0  0
  -21.4610   -4.9910   24.8400 C   0  0  0  0  0  0  0  0  0  0  0  0
  -21.8980   -4.3930   23.6450 C   0  0  0  0  0  3  0  0  0  0  0  0
  -22.0590   -5.1750   22.4890 C   0  0  0  0  0  0  0  0  0  0  0  0
  -22.4630   -4.5910   21.3340 F   0  0  0  0  0  0  0  0  0  0  0  0
  -21.3030   -4.2330   25.9520 F   0  0  0  0  0  0  0  0  0  0  0  0
  -23.1900  -13.8650   21.0390 C   0  0  0  0  0  0  0  0  0  0  0  0
  -22.4660  -13.1920   21.9240 N   0  0  0  0  0  0  0  0  0  0  0  0
  -22.7700  -14.9030   20.5250 O   0  0  0  0  0  0  0  0  0  0  0  0
  -22.8200  -12.3440   22.3420 H   0  0  0  0  0  0  0  0  0  0  0  0
  -21.5470  -13.5210   22.1880 H   0  0  0  0  0  0  0  0  0  0  0  0
  -25.8530  -15.4610   20.1730 N   0  0  0  0  0  0  0  0  0  0  0  0
  -25.0910  -16.1290   20.2330 H   0  0  0  0  0  0  0  0  0  0  0  0
  -26.6950  -15.8660   19.7780 H   0  0  0  0  0  0  0  0  0  0  0  0
  -31.0020  -19.8980   24.3540 C   0  0  0  0  0  1  0  0  0  0  0  0
  -31.7190  -19.2570   23.2950 O   0  0  0  0  0  0  0  0  0  0  0  0
  -28.3030  -25.2910   19.0130 C   0  0  0  0  0  2  0  0  0  0  0  0
  -28.1060  -26.4780   19.8970 O   0  0  0  0  0  0  0  0  0  0  0  0
  -24.5570  -31.9030   23.1080 C   0  0  0  0  0  0  0  0  0  0  0  0
  -26.9970  -27.3520   19.8440 C   0  0  0  0  0  0  0  0  0  0  0  0
  -23.2730  -30.5410   21.4990 C   0  0  0  0  0  3  0  0  0  0  0  0
  -24.6440  -29.0000   19.9680 C   0  0  0  0  0  0  0  0  0  0  0  0
  -25.8010  -30.8340   21.2040 C   0  0  0  0  0  2  0  0  0  0  0  0
  -25.8380  -29.4580   20.5410 C   0  0  0  0  0  0  0  0  0  0  0  0
  -27.0080  -28.6400   20.4780 C   0  0  0  0  0  3  0  0  0  0  0  0
  -25.7860  -26.9610   19.2370 C   0  0  0  0  0  3  0  0  0  0  0  0
  -24.6240  -27.7600   19.3040 C   0  0  0  0  0  3  0  0  0  0  0  0
  -23.4160  -29.8820   20.0970 C   0  0  0  0  0  2  0  0  0  0  0  0
  -24.5670  -31.1130   21.9940 N   0  0  0  0  0  0  0  0  0  0  0  0
  -23.4980  -32.1790   23.6950 O   0  0  0  0  0  0  0  0  0  0  0  0
  -22.6430  -29.5200   22.4730 C   0  0  0  0  0  0  0  0  0  0  0  0
  -21.3160  -29.3390   22.3860 N   0  0  0  0  0  0  0  0  0  0  0  0
  -23.3480  -28.8900   23.2640 O   0  0  0  0  0  0  0  0  0  0  0  0
  -20.8040  -29.8930   21.7170 H   0  0  0  0  0  0  0  0  0  0  0  0
  -17.9650  -28.0860   22.9430 C   0  0  0  0  0  0  0  0  0  0  0  0
  -20.5230  -28.3940   23.1770 C   0  0  0  0  0  3  0  0  0  0  0  0
  -20.6400  -26.9600   22.6110 C   0  0  0  0  0  2  0  0  0  0  0  0
  -19.5340  -26.6170   21.6090 C   0  0  0  0  0  2  0  0  0  0  0  0
  -18.1600  -26.7360   22.2750 C   0  0  0  0  0  2  0  0  0  0  0  0
  -19.0740  -28.8700   23.3550 C   0  0  0  0  0  0  0  0  0  0  0  0
  -18.8440  -30.1240   23.9540 C   0  0  0  0  0  3  0  0  0  0  0  0
  -17.5310  -30.6020   24.1370 C   0  0  0  0  0  3  0  0  0  0  0  0
  -16.4340  -29.8180   23.7370 C   0  0  0  0  0  3  0  0  0  0  0  0
  -16.6520  -28.5600   23.1450 C   0  0  0  0  0  3  0  0  0  0  0  0
  -25.8690  -32.5170   23.6870 C   0  0  0  0  0  3  0  0  0  0  0  0
  -26.4430  -31.7070   24.9160 C   0  0  1  0  0  0  0  0  0  0  0  0
  -25.4030  -31.4500   26.0310 C   0  0  0  0  0  1  0  0  0  0  0  0
  -26.9950  -30.3390   24.4560 C   0  0  0  0  0  1  0  0  0  0  0  0
  -27.6260  -32.4780   25.5470 C   0  0  0  0  0  1  0  0  0  0  0  0
  -25.5780  -33.9060   24.0760 N   0  0  0  0  0  0  0  0  0  0  0  0
  -25.8960  -34.9860   23.3490 C   0  0  0  0  0  0  0  0  0  0  0  0
  -26.5350  -34.9170   22.2950 O   0  0  0  0  0  0  0  0  0  0  0  0
  -24.9990  -34.0350   24.8930 H   0  0  0  0  0  0  0  0  0  0  0  0
  -24.1810  -36.8160   23.1140 C   0  0  0  0  0  1  0  0  0  0  0  0
  -25.4370  -36.3620   23.8740 C   0  0  0  0  0  3  0  0  0  0  0  0
  -27.6040  -37.1940   24.6810 C   0  0  0  0  0  1  0  0  0  0  0  0
  -26.4780  -37.4080   23.7730 N   0  0  0  0  0  0  0  0  0  0  0  0
  -26.0850  -38.3270   23.9620 H   0  0  0  0  0  0  0  0  0  0  0  0
  2  1  1  0
  3  4  1  0
  4  1  1  0
  4  9  1  0
  5 52  1  0
  5  3  1  0
  5  2  1  0
  6  9  2  0
  6 10  1  0
  7 11  2  0
  8 11  1  0
  9  7  1  0
 10  8  2  0
 11 51  1  0
 13 18  1  0
 14 15  1  0
 14 13  1  0
 16 15  1  0
 16 25  1  0
 16 17  1  0
 18 12  1  0
 18 17  1  0
 19 12  2  0
 20 12  1  0
 20 10  1  0
 21 20  1  0
 22 23  2  0
 23 42  1  0
 24 23  1  0
 24 27  1  0
 25 22  1  0
 25 26  1  0
 26 24  2  0
 27 28  1  0
 28 29  2  0
 30 33  1  0
 30 29  1  0
 31 30  2  0
 32 31  1  0
 32 27  2  0
 33 34  1  0
 34 35  1  0
 35 36  2  0
 37 36  1  0
 37 41  1  0
 38 37  2  0
 39 34  2  0
 39 38  1  0
 40 39  1  0
 42 43  1  0
 43 46  1  0
 43 45  1  0
 44 42  2  0
 47 48  1  0
 47 22  1  0
 49 47  1  0
 51 50  1  0
 52 53  1  0
 54 65  2  0
 55 53  1  0
 55 60  1  0
 56 64  1  0
 56 66  1  0
 57 63  1  0
 57 59  1  0
 58 64  1  0
 59 58  1  0
 60 59  2  0
 61 62  1  0
 61 55  2  0
 62 57  2  0
 63 56  1  0
 64 54  1  0
 66 68  2  0
 67 66  1  0
 69 67  1  0
 70 79  2  0
 70 75  1  0
 71 67  1  0
 71 75  1  0
 72 71  1  0
 73 74  1  0
 73 72  1  0
 74 70  1  0
 75 76  2  0
 76 77  1  0
 78 77  2  0
 79 78  1  0
 80 54  1  0
 80 85  1  0
 80 81  1  0
 81 84  1  1
 81 82  1  0
 83 81  1  0
 85 88  1  0
 86 90  1  0
 86 85  1  0
 87 86  2  0
 90 89  1  0
 92 90  1  0
 92 93  1  0
 92 91  1  0
M  ISO  4  12 100  20 100  52 101  53 101
M  END
>  <TORSDO>  (96) 
F 19

>  <SCORE>  (96) 
-13.671

>  <name>  (96) 
95

>  <ligand_id>  (96) 
95

>  <original_smiles>  (96) 
[H]c1c([H])c([H])c2c(c1[H])C([H])([H])C([H])([H])C([H])([H])C2([H])N([H])C(=O)C1([H])N(C(=O)C([H])(N([H])C(=O)C([H])(N([H])C([H])([H])[H])C([H])([H])[H])C(C([H])([H])[H])(C([H])([H])[H])C([H])([H])[H])C([H])([H])c2c([H])c(OC([H])([H])C3([H])C([H])([H])C([H])([H])C([H])(c4c([H])c(OC([H])([H])[H])c([H])c(N([H])C(=O)N5C([H])([H])C([H])([H])C([H])([H])C([H])(n6nc(-c7c([H])c([H])c(Oc8c([H])c([H])c(F)c([H])c8F)c([H])c7[H])c(C(=O)N([H])[H])c6N([H])[H])C5([H])[H])c4[H])C3([H])[H])c([H])c([H])c2C1([H])[H]

>  <smiles>  (96) 
[H]c1c([H])c([H])c2c(c1[H])C([H])([H])C([H])([H])C([H])([H])C2([H])N([H])C(=O)C1([H])N(C(=O)C([H])(N([H])C(=O)C([H])(N([H])C([H])([H])[H])C([H])([H])[H])C(C([H])([H])[H])(C([H])([H])[H])C([H])([H])[H])C([H])([H])c2c([H])c(OC([H])([H])C3([H])C([H])([H])C([H])([H])C([H])(c4c([H])c(OC([H])([H])[H])c([H])c(N([H])C(=O)N5C([H])([H])C([H])([H])C([H])([H])C([H])(n6nc(-c7c([H])c([H])c(Oc8c([H])c([H])c(F)c([H])c8F)c([H])c7[H])c(C(=O)N([H])[H])c6N([H])[H])C5([H])[H])c4[H])C3([H])[H])c([H])c([H])c2C1([H])[H]

$$$$
96:0:0
     RDKit          3D

 92100  0  0  1  0  0  0  0  0999 V2000
  -29.5010  -21.7730   20.4070 C   0  0  0  0  0  3  0  0  0  0  0  0
  -29.9670  -20.7090   19.8730 N   0  0  0  0  0  0  0  0  0  0  0  0
  -31.0780  -18.3490   22.6020 C   0  0  0  0  0  3  0  0  0  0  0  0
  -30.9000  -17.1140   21.9460 C   0  0  0  0  0  3  0  0  0  0  0  0
  -30.7820  -19.5640   21.9490 C   0  0  0  0  0  3  0  0  0  0  0  0
  -30.1700  -18.3160   19.9650 C   0  0  0  0  0  3  0  0  0  0  0  0
  -30.4410  -17.0780   20.6100 C   0  0  0  0  0  0  0  0  0  0  0  0
  -30.3080  -19.5600   20.6150 C   0  0  0  0  0  0  0  0  0  0  0  0
  -30.1440  -15.8060   19.8830 C   0  0  0  0  0  0  0  0  0  0  0  0
  -29.3560  -15.8400   18.8880 N   0  0  0  0  0  0  0  0  0  0  0  0
  -28.9680  -16.7660   18.7630 H   0  0  0  0  0  0  0  0  0  0  0  0
  -30.9310  -14.5350   20.2490 C   0  0  0  0  0  0  0  0  0  0  0  0
  -30.5770  -12.3420   19.2130 C   0  0  0  0  0  2  0  0  0  0  0  0
  -29.6340  -12.5320   18.0050 C   0  0  0  0  0  2  0  0  0  0  0  0
  -28.1600  -12.4070   18.4430 C   0  0  0  0  0  2  0  0  0  0  0  0
  -27.8210  -13.2630   19.6930 C   0  0  0  0  0  3  0  0  0  0  0  0
  -28.8980  -13.1270   20.7940 C   0  0  0  0  0  2  0  0  0  0  0  0
  -30.2220  -13.3700   20.1990 N   0  0  0  0  0  0  0  0  0  0  0  0
  -32.1520  -14.5920   20.0900 O   0  0  0  0  0  0  0  0  0  0  0  0
  -25.4480  -13.9150   20.4210 C   0  0  0  0  0  0  0  0  0  0  0  0
  -24.3700  -13.1590   20.7930 C   0  0  0  0  0  0  0  0  0  0  0  0
  -24.8170  -11.8020   20.7700 C   0  0  0  0  0  0  0  0  0  0  0  0
  -26.4780  -13.0130   20.1930 N   0  0  0  0  0  0  0  0  0  0  0  0
  -26.1060  -11.7420   20.4680 N   0  0  0  0  0  0  0  0  0  0  0  0
  -24.0820  -10.5500   20.9590 C   0  0  0  0  0  0  0  0  0  0  0  0
  -24.4810   -9.6000   21.9250 C   0  0  0  0  0  3  0  0  0  0  0  0
  -23.7470   -8.4080   22.0990 C   0  0  0  0  0  3  0  0  0  0  0  0
  -22.6010   -8.1580   21.3080 C   0  0  0  0  0  0  0  0  0  0  0  0
  -22.2230   -9.0970   20.3300 C   0  0  0  0  0  3  0  0  0  0  0  0
  -22.9590  -10.2800   20.1530 C   0  0  0  0  0  3  0  0  0  0  0  0
  -21.8400   -7.0180   21.3910 O   0  0  0  0  0  0  0  0  0  0  0  0
  -21.7120   -6.3250   22.5690 C   0  0  0  0  0  0  0  0  0  0  0  0
  -21.1770   -6.9220   23.7310 C   0  0  0  0  0  3  0  0  0  0  0  0
  -21.0000   -6.1540   24.8990 C   0  0  0  0  0  3  0  0  0  0  0  0
  -21.3470   -4.7900   24.9040 C   0  0  0  0  0  0  0  0  0  0  0  0
  -21.8750   -4.1920   23.7470 C   0  0  0  0  0  3  0  0  0  0  0  0
  -22.0540   -4.9580   22.5820 C   0  0  0  0  0  0  0  0  0  0  0  0
  -22.5450   -4.3720   21.4610 F   0  0  0  0  0  0  0  0  0  0  0  0
  -21.1680   -4.0500   26.0230 F   0  0  0  0  0  0  0  0  0  0  0  0
  -22.9770  -13.6530   21.0570 C   0  0  0  0  0  0  0  0  0  0  0  0
  -22.2380  -12.9670   21.9230 N   0  0  0  0  0  0  0  0  0  0  0  0
  -22.5510  -14.6790   20.5290 O   0  0  0  0  0  0  0  0  0  0  0  0
  -22.5950  -12.1360   22.3720 H   0  0  0  0  0  0  0  0  0  0  0  0
  -21.3040  -13.2780   22.1430 H   0  0  0  0  0  0  0  0  0  0  0  0
  -25.6320  -15.2830   20.2340 N   0  0  0  0  0  0  0  0  0  0  0  0
  -24.8770  -15.9530   20.3290 H   0  0  0  0  0  0  0  0  0  0  0  0
  -26.4900  -15.6980   19.8900 H   0  0  0  0  0  0  0  0  0  0  0  0
  -29.0850  -22.9850   19.5750 C   0  0  0  0  0  2  0  0  0  0  0  0
  -27.1630  -23.8510   21.0320 C   0  0  0  0  0  1  0  0  0  0  0  0
  -28.5160  -24.1900   20.3750 C   0  0  0  0  0  3  0  0  0  0  0  0
  -28.4090  -25.4510   19.4720 C   0  0  0  0  0  2  0  0  0  0  0  0
  -28.2430  -26.6700   20.2130 O   0  0  0  0  0  0  0  0  0  0  0  0
  -24.5370  -31.9290   23.2410 C   0  0  0  0  0  0  0  0  0  0  0  0
  -27.0530  -27.3740   20.1960 C   0  0  0  0  0  0  0  0  0  0  0  0
  -23.2820  -30.5230   21.6400 C   0  0  0  0  0  3  0  0  0  0  0  0
  -24.6820  -28.9290   20.2280 C   0  0  0  0  0  0  0  0  0  0  0  0
  -25.8120  -30.8210   21.4070 C   0  0  0  0  0  2  0  0  0  0  0  0
  -25.8580  -29.4370   20.7910 C   0  0  0  0  0  0  0  0  0  0  0  0
  -27.0410  -28.6640   20.7770 C   0  0  0  0  0  3  0  0  0  0  0  0
  -25.8500  -26.8760   19.6400 C   0  0  0  0  0  3  0  0  0  0  0  0
  -24.6720  -27.6460   19.6550 C   0  0  0  0  0  3  0  0  0  0  0  0
  -23.4590  -29.8140   20.2720 C   0  0  0  0  0  2  0  0  0  0  0  0
  -24.5630  -31.1080   22.1530 N   0  0  0  0  0  0  0  0  0  0  0  0
  -23.4690  -32.2330   23.7900 O   0  0  0  0  0  0  0  0  0  0  0  0
  -22.6230  -29.5320   22.6270 C   0  0  0  0  0  0  0  0  0  0  0  0
  -21.2990  -29.3470   22.4940 N   0  0  0  0  0  0  0  0  0  0  0  0
  -23.3000  -28.9310   23.4650 O   0  0  0  0  0  0  0  0  0  0  0  0
  -20.8170  -29.8810   21.7830 H   0  0  0  0  0  0  0  0  0  0  0  0
  -17.9270  -28.1440   22.9680 C   0  0  0  0  0  0  0  0  0  0  0  0
  -20.4760  -28.4360   23.2850 C   0  0  0  0  0  3  0  0  0  0  0  0
  -20.6030  -26.9830   22.7720 C   0  0  0  0  0  2  0  0  0  0  0  0
  -19.5260  -26.6080   21.7480 C   0  0  0  0  0  2  0  0  0  0  0  0
  -18.1300  -26.7690   22.3550 C   0  0  0  0  0  2  0  0  0  0  0  0
  -19.0290  -28.9340   23.3910 C   0  0  0  0  0  0  0  0  0  0  0  0
  -18.7880  -30.2200   23.9210 C   0  0  0  0  0  3  0  0  0  0  0  0
  -17.4760  -30.7170   24.0340 C   0  0  0  0  0  3  0  0  0  0  0  0
  -16.3870  -29.9250   23.6310 C   0  0  0  0  0  3  0  0  0  0  0  0
  -16.6140  -28.6410   23.1020 C   0  0  0  0  0  3  0  0  0  0  0  0
  -25.8430  -32.5440   23.8320 C   0  0  0  0  0  3  0  0  0  0  0  0
  -25.5600  -33.9440   24.1680 N   0  0  0  0  0  0  0  0  0  0  0  0
  -25.8900  -34.9920   23.4010 C   0  0  0  0  0  0  0  0  0  0  0  0
  -26.5370  -34.8790   22.3560 O   0  0  0  0  0  0  0  0  0  0  0  0
  -24.9810  -34.1060   24.9780 H   0  0  0  0  0  0  0  0  0  0  0  0
  -24.1820  -36.8060   23.0730 C   0  0  0  0  0  1  0  0  0  0  0  0
  -25.4310  -36.3860   23.8660 C   0  0  0  0  0  3  0  0  0  0  0  0
  -27.5870  -37.2450   24.6660 C   0  0  0  0  0  1  0  0  0  0  0  0
  -26.4760  -37.4240   23.7350 N   0  0  0  0  0  0  0  0  0  0  0  0
  -26.0850  -38.3510   23.8820 H   0  0  0  0  0  0  0  0  0  0  0  0
  -26.3790  -31.7640   25.0950 C   0  0  1  0  0  0  0  0  0  0  0  0
  -25.3060  -31.5300   26.1830 C   0  0  0  0  0  1  0  0  0  0  0  0
  -26.9440  -30.3840   24.6860 C   0  0  0  0  0  1  0  0  0  0  0  0
  -27.5500  -32.5460   25.7360 C   0  0  0  0  0  1  0  0  0  0  0  0
  2  1  2  0
  2  8  1  0
  4  3  2  0
  5  3  1  0
  6  7  2  0
  6  8  1  0
  7  4  1  0
  8  5  2  0
  9 12  1  0
  9  7  1  0
 10  9  2  0
 11 10  1  0
 13 18  1  0
 14 15  1  0
 14 13  1  0
 16 15  1  0
 16 23  1  0
 16 17  1  0
 18 12  1  0
 18 17  1  0
 19 12  2  0
 20 21  2  0
 21 40  1  0
 22 21  1  0
 22 25  1  0
 23 20  1  0
 23 24  1  0
 24 22  2  0
 25 26  1  0
 26 27  2  0
 28 31  1  0
 28 27  1  0
 29 28  2  0
 30 29  1  0
 30 25  2  0
 31 32  1  0
 32 37  2  0
 32 33  1  0
 33 34  2  0
 34 35  1  0
 35 39  1  0
 36 35  2  0
 37 36  1  0
 38 37  1  0
 40 41  1  0
 41 44  1  0
 41 43  1  0
 42 40  2  0
 45 46  1  0
 45 20  1  0
 47 45  1  0
 48 50  1  0
 48  1  1  0
 50 49  1  0
 51 52  1  0
 51 50  1  0
 53 64  2  0
 54 52  1  0
 54 59  1  0
 55 63  1  0
 55 65  1  0
 56 62  1  0
 56 58  1  0
 57 63  1  0
 58 57  1  0
 59 58  2  0
 60 61  1  0
 60 54  2  0
 61 56  2  0
 62 55  1  0
 63 53  1  0
 65 67  2  0
 66 65  1  0
 68 66  1  0
 69 78  2  0
 69 74  1  0
 70 66  1  0
 70 74  1  0
 71 70  1  0
 72 73  1  0
 72 71  1  0
 73 69  1  0
 74 75  2  0
 75 76  1  0
 77 76  2  0
 78 77  1  0
 79 53  1  0
 79 80  1  0
 79 89  1  0
 80 83  1  0
 81 85  1  0
 81 80  1  0
 82 81  2  0
 85 84  1  0
 87 85  1  0
 87 88  1  0
 87 86  1  0
 89 92  1  1
 89 90  1  0
 91 89  1  0
M  ISO  4   9 100  12 100  51 101  52 101
M  END
>  <TORSDO>  (97) 
F 21

>  <SCORE>  (97) 
-13.530

>  <name>  (97) 
96

>  <ligand_id>  (97) 
96

>  <original_smiles>  (97) 
[H]N=C(C(=O)N1C([H])([H])C([H])([H])C([H])([H])C([H])(n2nc(-c3c([H])c([H])c(Oc4c([H])c([H])c(F)c([H])c4F)c([H])c3[H])c(C(=O)N([H])[H])c2N([H])[H])C1([H])[H])c1c([H])c([H])c([H])c(N=C([H])C([H])([H])C([H])(C([H])([H])[H])C([H])([H])Oc2c([H])c([H])c3c(c2[H])C([H])([H])N(C(=O)C([H])(N([H])C(=O)C([H])(N([H])C([H])([H])[H])C([H])([H])[H])C(C([H])([H])[H])(C([H])([H])[H])C([H])([H])[H])C([H])(C(=O)N([H])C2([H])c4c([H])c([H])c([H])c([H])c4C([H])([H])C([H])([H])C2([H])[H])C3([H])[H])c1[H]

>  <smiles>  (97) 
[H]N=C(C(=O)N1C([H])([H])C([H])([H])C([H])([H])C([H])(n2nc(-c3c([H])c([H])c(Oc4c([H])c([H])c(F)c([H])c4F)c([H])c3[H])c(C(=O)N([H])[H])c2N([H])[H])C1([H])[H])c1c([H])c([H])c([H])c(N=C([H])C([H])([H])C([H])(C([H])([H])[H])C([H])([H])Oc2c([H])c([H])c3c(c2[H])C([H])([H])N(C(=O)C([H])(N([H])C(=O)C([H])(N([H])C([H])([H])[H])C([H])([H])[H])C(C([H])([H])[H])(C([H])([H])[H])C([H])([H])[H])C([H])(C(=O)N([H])C2([H])c4c([H])c([H])c([H])c([H])c4C([H])([H])C([H])([H])C2([H])[H])C3([H])[H])c1[H]

$$$$
97:0:0
     RDKit          3D

 92101  0  0  1  0  0  0  0  0999 V2000
  -29.1410  -22.6080   19.7420 C   0  0  0  0  0  2  0  0  0  0  0  0
  -30.9810  -19.4790   19.7710 C   0  0  0  0  0  3  0  0  0  0  0  0
  -31.0180  -18.0330   19.8370 C   0  0  0  0  0  3  0  0  0  0  0  0
  -28.7750  -17.8920   20.8540 C   0  0  0  0  0  3  0  0  0  0  0  0
  -28.7720  -19.3010   20.7700 C   0  0  0  0  0  0  0  0  0  0  0  0
  -29.8270  -20.1120   20.2770 C   0  0  0  0  0  0  0  0  0  0  0  0
  -29.9510  -17.2200   20.3800 C   0  0  0  0  0  0  0  0  0  0  0  0
  -28.0130  -20.5550   21.0670 C   0  0  0  0  0  2  0  0  0  0  0  0
  -29.2030  -21.3710   20.5950 N   0  0  0  0  0  0  0  0  0  0  0  0
  -30.7690  -14.7490   20.0140 C   0  0  0  0  0  0  0  0  0  0  0  0
  -30.5320  -12.5270   18.9140 C   0  0  0  0  0  2  0  0  0  0  0  0
  -29.5120  -12.6790   17.7630 C   0  0  0  0  0  2  0  0  0  0  0  0
  -28.0660  -12.5030   18.2730 C   0  0  0  0  0  2  0  0  0  0  0  0
  -27.7840  -13.3280   19.5560 C   0  0  0  0  0  3  0  0  0  0  0  0
  -28.9090  -13.1370   20.5990 C   0  0  0  0  0  2  0  0  0  0  0  0
  -30.1800  -13.5120   19.9570 N   0  0  0  0  0  0  0  0  0  0  0  0
  -31.8950  -14.9450   19.5460 O   0  0  0  0  0  0  0  0  0  0  0  0
  -29.9610  -15.7560   20.4850 N   0  0  0  0  0  0  0  0  0  0  0  0
  -29.1210  -15.3780   20.8930 H   0  0  0  0  0  0  0  0  0  0  0  0
  -25.4430  -13.9100   20.4440 C   0  0  0  0  0  0  0  0  0  0  0  0
  -24.3990  -13.1280   20.8560 C   0  0  0  0  0  0  0  0  0  0  0  0
  -24.8520  -11.7760   20.7470 C   0  0  0  0  0  0  0  0  0  0  0  0
  -26.4660  -13.0360   20.1130 N   0  0  0  0  0  0  0  0  0  0  0  0
  -26.1180  -11.7460   20.3530 N   0  0  0  0  0  0  0  0  0  0  0  0
  -24.1320  -10.5100   20.9380 C   0  0  0  0  0  0  0  0  0  0  0  0
  -24.5550   -9.5570   21.8890 C   0  0  0  0  0  3  0  0  0  0  0  0
  -23.8360   -8.3550   22.0660 C   0  0  0  0  0  3  0  0  0  0  0  0
  -22.6800   -8.0990   21.2920 C   0  0  0  0  0  0  0  0  0  0  0  0
  -22.2760   -9.0410   20.3290 C   0  0  0  0  0  3  0  0  0  0  0  0
  -22.9960  -10.2350   20.1510 C   0  0  0  0  0  3  0  0  0  0  0  0
  -21.9340   -6.9490   21.3770 O   0  0  0  0  0  0  0  0  0  0  0  0
  -21.7840   -6.2750   22.5630 C   0  0  0  0  0  0  0  0  0  0  0  0
  -21.2070   -6.8860   23.6980 C   0  0  0  0  0  3  0  0  0  0  0  0
  -21.0060   -6.1360   24.8740 C   0  0  0  0  0  3  0  0  0  0  0  0
  -21.3710   -4.7770   24.9160 C   0  0  0  0  0  0  0  0  0  0  0  0
  -21.9410   -4.1670   23.7850 C   0  0  0  0  0  3  0  0  0  0  0  0
  -22.1430   -4.9130   22.6110 C   0  0  0  0  0  0  0  0  0  0  0  0
  -22.6720   -4.3130   21.5170 F   0  0  0  0  0  0  0  0  0  0  0  0
  -21.1720   -4.0560   26.0440 F   0  0  0  0  0  0  0  0  0  0  0  0
  -23.0240  -13.5980   21.2330 C   0  0  0  0  0  0  0  0  0  0  0  0
  -22.3480  -12.8740   22.1200 N   0  0  0  0  0  0  0  0  0  0  0  0
  -22.5590  -14.6440   20.7800 O   0  0  0  0  0  0  0  0  0  0  0  0
  -22.7390  -12.0270   22.5080 H   0  0  0  0  0  0  0  0  0  0  0  0
  -21.4300  -13.1710   22.4170 H   0  0  0  0  0  0  0  0  0  0  0  0
  -25.6000  -15.2860   20.2990 N   0  0  0  0  0  0  0  0  0  0  0  0
  -24.8320  -15.9300   20.4520 H   0  0  0  0  0  0  0  0  0  0  0  0
  -26.4050  -15.7280   19.8710 H   0  0  0  0  0  0  0  0  0  0  0  0
  -27.1230  -23.7870   20.8350 C   0  0  0  0  0  1  0  0  0  0  0  0
  -29.4410  -24.2630   21.6750 C   0  0  0  0  0  1  0  0  0  0  0  0
  -28.5960  -23.9700   20.4210 C   0  0  1  0  0  0  0  0  0  0  0  0
  -28.6630  -25.2640   19.4780 C   0  0  0  0  0  2  0  0  0  0  0  0
  -28.5210  -26.6230   20.0550 O   0  0  0  0  0  0  0  0  0  0  0  0
  -24.6950  -31.8810   23.1440 C   0  0  0  0  0  0  0  0  0  0  0  0
  -27.3480  -27.3930   20.0150 C   0  0  0  0  0  0  0  0  0  0  0  0
  -23.4930  -30.4830   21.4980 C   0  0  0  0  0  3  0  0  0  0  0  0
  -24.9510  -28.9580   20.0490 C   0  0  0  0  0  0  0  0  0  0  0  0
  -26.0230  -30.8360   21.2960 C   0  0  0  0  0  2  0  0  0  0  0  0
  -26.1140  -29.4640   20.6380 C   0  0  0  0  0  0  0  0  0  0  0  0
  -27.3110  -28.6920   20.6130 C   0  0  0  0  0  3  0  0  0  0  0  0
  -26.1560  -26.9280   19.4170 C   0  0  0  0  0  3  0  0  0  0  0  0
  -24.9720  -27.6950   19.4340 C   0  0  0  0  0  3  0  0  0  0  0  0
  -23.7020  -29.8140   20.1120 C   0  0  0  0  0  2  0  0  0  0  0  0
  -24.7560  -31.0850   22.0360 N   0  0  0  0  0  0  0  0  0  0  0  0
  -23.6130  -32.1410   23.6890 O   0  0  0  0  0  0  0  0  0  0  0  0
  -22.8490  -29.4540   22.4560 C   0  0  0  0  0  0  0  0  0  0  0  0
  -21.5210  -29.2760   22.3470 N   0  0  0  0  0  0  0  0  0  0  0  0
  -23.5410  -28.8170   23.2540 O   0  0  0  0  0  0  0  0  0  0  0  0
  -21.0220  -29.8380   21.6720 H   0  0  0  0  0  0  0  0  0  0  0  0
  -18.1520  -28.0820   22.8990 C   0  0  0  0  0  0  0  0  0  0  0  0
  -20.7170  -28.3250   23.1150 C   0  0  0  0  0  3  0  0  0  0  0  0
  -20.7990  -26.9060   22.5080 C   0  0  0  0  0  2  0  0  0  0  0  0
  -19.6740  -26.6100   21.5120 C   0  0  0  0  0  2  0  0  0  0  0  0
  -18.3070  -26.7470   22.1890 C   0  0  0  0  0  2  0  0  0  0  0  0
  -19.2840  -28.8310   23.3190 C   0  0  0  0  0  0  0  0  0  0  0  0
  -19.0850  -30.0830   23.9420 C   0  0  0  0  0  3  0  0  0  0  0  0
  -17.7870  -30.5870   24.1460 C   0  0  0  0  0  3  0  0  0  0  0  0
  -16.6700  -29.8360   23.7420 C   0  0  0  0  0  3  0  0  0  0  0  0
  -16.8540  -28.5840   23.1260 C   0  0  0  0  0  3  0  0  0  0  0  0
  -25.9760  -32.5220   23.7640 C   0  0  0  0  0  3  0  0  0  0  0  0
  -26.5240  -31.7280   25.0140 C   0  0  1  0  0  0  0  0  0  0  0  0
  -25.4510  -31.4410   26.0890 C   0  0  0  0  0  1  0  0  0  0  0  0
  -27.1300  -30.3740   24.5780 C   0  0  0  0  0  1  0  0  0  0  0  0
  -27.6680  -32.5280   25.6840 C   0  0  0  0  0  1  0  0  0  0  0  0
  -25.6480  -33.9050   24.1360 N   0  0  0  0  0  0  0  0  0  0  0  0
  -25.9460  -34.9840   23.3990 C   0  0  0  0  0  0  0  0  0  0  0  0
  -26.5980  -34.9190   22.3530 O   0  0  0  0  0  0  0  0  0  0  0  0
  -25.0730  -34.0290   24.9570 H   0  0  0  0  0  0  0  0  0  0  0  0
  -24.1850  -36.7550   23.1110 C   0  0  0  0  0  1  0  0  0  0  0  0
  -25.4410  -36.3510   23.9010 C   0  0  0  0  0  3  0  0  0  0  0  0
  -27.5640  -37.2500   24.7430 C   0  0  0  0  0  1  0  0  0  0  0  0
  -26.4550  -37.4230   23.8070 N   0  0  0  0  0  0  0  0  0  0  0  0
  -26.0350  -38.3330   23.9780 H   0  0  0  0  0  0  0  0  0  0  0  0
  1 50  1  0
  1  9  1  0
  2  3  2  0
  2  6  1  0
  3  7  1  0
  5  4  1  0
  5  8  1  0
  6  9  1  0
  6  5  2  0
  7 18  1  0
  7  4  2  0
  9  8  1  0
 10 18  1  0
 11 16  1  0
 12 13  1  0
 12 11  1  0
 14 13  1  0
 14 23  1  0
 14 15  1  0
 16 10  1  0
 16 15  1  0
 17 10  2  0
 18 19  1  0
 20 21  2  0
 21 40  1  0
 22 21  1  0
 22 25  1  0
 23 24  1  0
 23 20  1  0
 24 22  2  0
 25 26  1  0
 26 27  2  0
 28 31  1  0
 28 27  1  0
 29 28  2  0
 30 29  1  0
 30 25  2  0
 31 32  1  0
 32 37  2  0
 32 33  1  0
 33 34  2  0
 34 35  1  0
 35 39  1  0
 36 35  2  0
 37 36  1  0
 38 37  1  0
 40 41  1  0
 41 44  1  0
 41 43  1  0
 42 40  2  0
 45 20  1  0
 45 46  1  0
 47 45  1  0
 50 48  1  1
 50 49  1  0
 51 52  1  0
 51 50  1  0
 53 64  2  0
 54 52  1  0
 54 59  1  0
 55 63  1  0
 55 65  1  0
 56 62  1  0
 56 58  1  0
 57 63  1  0
 58 57  1  0
 59 58  2  0
 60 61  1  0
 60 54  2  0
 61 56  2  0
 62 55  1  0
 63 53  1  0
 65 67  2  0
 66 65  1  0
 68 66  1  0
 69 78  2  0
 69 74  1  0
 70 66  1  0
 70 74  1  0
 71 70  1  0
 72 73  1  0
 72 71  1  0
 73 69  1  0
 74 75  2  0
 75 76  1  0
 77 76  2  0
 78 77  1  0
 79 53  1  0
 79 84  1  0
 79 80  1  0
 80 83  1  1
 80 81  1  0
 82 80  1  0
 84 87  1  0
 85 89  1  0
 85 84  1  0
 86 85  2  0
 89 88  1  0
 91 89  1  0
 91 92  1  0
 91 90  1  0
M  ISO  4  10 100  18 100  51 101  52 101
M  END
>  <TORSDO>  (98) 
F 19

>  <SCORE>  (98) 
-13.465

>  <name>  (98) 
97

>  <ligand_id>  (98) 
97

>  <original_smiles>  (98) 
[H]c1c([H])c([H])c2c(c1[H])C([H])([H])C([H])([H])C([H])([H])C2([H])N([H])C(=O)C1([H])N(C(=O)C([H])(N([H])C(=O)C([H])(N([H])C([H])([H])[H])C([H])([H])[H])C(C([H])([H])[H])(C([H])([H])[H])C([H])([H])[H])C([H])([H])c2c([H])c(OC([H])([H])C(C([H])([H])[H])(C([H])([H])[H])C([H])([H])N3c4c([H])c([H])c(N([H])C(=O)N5C([H])([H])C([H])([H])C([H])([H])C([H])(n6nc(-c7c([H])c([H])c(Oc8c([H])c([H])c(F)c([H])c8F)c([H])c7[H])c(C(=O)N([H])[H])c6N([H])[H])C5([H])[H])c([H])c4C3([H])[H])c([H])c([H])c2C1([H])[H]

>  <smiles>  (98) 
[H]c1c([H])c([H])c2c(c1[H])C([H])([H])C([H])([H])C([H])([H])C2([H])N([H])C(=O)C1([H])N(C(=O)C([H])(N([H])C(=O)C([H])(N([H])C([H])([H])[H])C([H])([H])[H])C(C([H])([H])[H])(C([H])([H])[H])C([H])([H])[H])C([H])([H])c2c([H])c(OC([H])([H])C(C([H])([H])[H])(C([H])([H])[H])C([H])([H])N3c4c([H])c([H])c(N([H])C(=O)N5C([H])([H])C([H])([H])C([H])([H])C([H])(n6nc(-c7c([H])c([H])c(Oc8c([H])c([H])c(F)c([H])c8F)c([H])c7[H])c(C(=O)N([H])[H])c6N([H])[H])C5([H])[H])c([H])c4C3([H])[H])c([H])c([H])c2C1([H])[H]

$$$$
