0:0:0
     RDKit          3D

 92101  0  0  1  0  0  0  0  0999 V2000
  -28.7070  -23.7600   20.0490 C   0  0  0  0  0  0  0  0  0  0  0  0
  -29.1030  -22.6310   20.7640 N   0  0  0  0  0  0  0  0  0  0  0  0
  -28.3920  -23.6860   18.8590 O   0  0  0  0  0  0  0  0  0  0  0  0
  -29.2790  -22.8760   21.7280 H   0  0  0  0  0  0  0  0  0  0  0  0
  -30.8060  -14.9100   19.5760 C   0  0  0  0  0  0  0  0  0  0  0  0
  -30.4730  -12.6590   18.5080 C   0  0  0  0  0  2  0  0  0  0  0  0
  -29.3820  -12.7410   17.4140 C   0  0  0  0  0  2  0  0  0  0  0  0
  -27.9850  -12.5310   18.0260 C   0  0  0  0  0  2  0  0  0  0  0  0
  -27.7630  -13.3830   19.3030 C   0  0  0  0  0  3  0  0  0  0  0  0
  -28.9570  -13.2770   20.2750 C   0  0  0  0  0  2  0  0  0  0  0  0
  -30.1580  -13.6860   19.5370 N   0  0  0  0  0  0  0  0  0  0  0  0
  -31.8970  -15.0050   19.0000 O   0  0  0  0  0  0  0  0  0  0  0  0
  -29.1210  -20.2510   21.4900 C   0  0  0  0  0  3  0  0  0  0  0  0
  -29.3690  -18.8680   21.0890 C   0  0  0  0  0  0  0  0  0  0  0  0
  -29.7660  -18.7330   19.7970 C   0  0  0  0  0  0  0  0  0  0  0  0
  -29.2500  -21.2440   20.5220 C   0  0  0  0  0  3  0  0  0  0  0  0
  -29.2230  -17.6090   21.9070 C   0  0  0  0  0  3  0  0  0  0  0  0
  -30.1580  -17.3610   19.1460 C   0  0  0  0  0  3  0  0  0  0  0  0
  -30.1210  -16.4050   21.4430 C   0  0  0  0  0  3  0  0  0  0  0  0
  -30.1370  -16.0790   19.9900 N   0  0  0  0  0  0  0  0  0  0  0  0
  -29.7390  -20.3680   19.0390 S   0  0  0  0  0  0  0  0  0  0  0  0
  -25.5210  -13.9360   20.4150 C   0  0  0  0  0  0  0  0  0  0  0  0
  -24.5030  -13.1460   20.8760 C   0  0  0  0  0  0  0  0  0  0  0  0
  -24.9280  -11.7980   20.6750 C   0  0  0  0  0  0  0  0  0  0  0  0
  -26.4980  -13.0670   19.9610 N   0  0  0  0  0  0  0  0  0  0  0  0
  -26.1590  -11.7700   20.1780 N   0  0  0  0  0  0  0  0  0  0  0  0
  -24.2110  -10.5310   20.8790 C   0  0  0  0  0  0  0  0  0  0  0  0
  -24.6890   -9.5450   21.7680 C   0  0  0  0  0  3  0  0  0  0  0  0
  -23.9720   -8.3440   21.9570 C   0  0  0  0  0  3  0  0  0  0  0  0
  -22.7620   -8.1200   21.2560 C   0  0  0  0  0  0  0  0  0  0  0  0
  -22.3040   -9.0960   20.3540 C   0  0  0  0  0  3  0  0  0  0  0  0
  -23.0220  -10.2880   20.1630 C   0  0  0  0  0  3  0  0  0  0  0  0
  -22.0130   -6.9730   21.3570 O   0  0  0  0  0  0  0  0  0  0  0  0
  -21.9210   -6.2710   22.5320 C   0  0  0  0  0  0  0  0  0  0  0  0
  -21.4520   -6.8710   23.7210 C   0  0  0  0  0  3  0  0  0  0  0  0
  -21.3080   -6.0960   24.8890 C   0  0  0  0  0  3  0  0  0  0  0  0
  -21.6270   -4.7250   24.8690 C   0  0  0  0  0  0  0  0  0  0  0  0
  -22.0910   -4.1260   23.6850 C   0  0  0  0  0  3  0  0  0  0  0  0
  -22.2360   -4.8980   22.5180 C   0  0  0  0  0  0  0  0  0  0  0  0
  -22.6620   -4.3120   21.3740 F   0  0  0  0  0  0  0  0  0  0  0  0
  -21.4820   -3.9780   25.9900 F   0  0  0  0  0  0  0  0  0  0  0  0
  -23.1720  -13.6170   21.3840 C   0  0  0  0  0  0  0  0  0  0  0  0
  -22.5750  -12.8800   22.3140 N   0  0  0  0  0  0  0  0  0  0  0  0
  -22.6770  -14.6740   20.9940 O   0  0  0  0  0  0  0  0  0  0  0  0
  -22.9900  -12.0260   22.6540 H   0  0  0  0  0  0  0  0  0  0  0  0
  -21.6900  -13.1800   22.6960 H   0  0  0  0  0  0  0  0  0  0  0  0
  -25.6910  -15.3130   20.3220 N   0  0  0  0  0  0  0  0  0  0  0  0
  -24.9740  -15.9710   20.6020 H   0  0  0  0  0  0  0  0  0  0  0  0
  -26.4990  -15.7640   19.9100 H   0  0  0  0  0  0  0  0  0  0  0  0
  -27.6990  -25.2090   22.0080 C   0  0  0  0  0  1  0  0  0  0  0  0
  -28.6610  -25.2010   20.7980 C   0  0  0  0  0  3  0  0  0  0  0  0
  -28.6040  -26.4860   19.9930 O   0  0  0  0  0  0  0  0  0  0  0  0
  -24.5980  -31.7410   23.0510 C   0  0  0  0  0  0  0  0  0  0  0  0
  -27.4620  -27.3220   19.9860 C   0  0  0  0  0  0  0  0  0  0  0  0
  -23.4910  -30.3310   21.3520 C   0  0  0  0  0  3  0  0  0  0  0  0
  -25.0420  -28.8670   19.9230 C   0  0  0  0  0  0  0  0  0  0  0  0
  -26.0200  -30.7470   21.2390 C   0  0  0  0  0  2  0  0  0  0  0  0
  -26.1740  -29.3830   20.5690 C   0  0  0  0  0  0  0  0  0  0  0  0
  -27.3880  -28.6230   20.5890 C   0  0  0  0  0  3  0  0  0  0  0  0
  -26.3130  -26.8720   19.3040 C   0  0  0  0  0  3  0  0  0  0  0  0
  -25.1180  -27.6210   19.2770 C   0  0  0  0  0  3  0  0  0  0  0  0
  -23.7660  -29.6900   19.9630 C   0  0  0  0  0  2  0  0  0  0  0  0
  -24.7190  -30.9590   21.9370 N   0  0  0  0  0  0  0  0  0  0  0  0
  -23.4930  -31.9640   23.5670 O   0  0  0  0  0  0  0  0  0  0  0  0
  -22.8510  -29.2690   22.2770 C   0  0  0  0  0  0  0  0  0  0  0  0
  -21.5300  -29.0590   22.1380 N   0  0  0  0  0  0  0  0  0  0  0  0
  -23.5420  -28.6350   23.0790 O   0  0  0  0  0  0  0  0  0  0  0  0
  -21.0310  -29.6250   21.4670 H   0  0  0  0  0  0  0  0  0  0  0  0
  -18.1840  -27.7640   22.5960 C   0  0  0  0  0  0  0  0  0  0  0  0
  -20.7350  -28.0740   22.8750 C   0  0  0  0  0  3  0  0  0  0  0  0
  -20.8710  -26.6680   22.2470 C   0  0  0  0  0  2  0  0  0  0  0  0
  -19.7790  -26.3600   21.2200 C   0  0  0  0  0  2  0  0  0  0  0  0
  -18.3930  -26.4470   21.8660 C   0  0  0  0  0  2  0  0  0  0  0  0
  -19.2850  -28.5350   23.0570 C   0  0  0  0  0  0  0  0  0  0  0  0
  -19.0360  -29.7670   23.7010 C   0  0  0  0  0  3  0  0  0  0  0  0
  -17.7190  -30.2290   23.8920 C   0  0  0  0  0  3  0  0  0  0  0  0
  -16.6340  -29.4550   23.4470 C   0  0  0  0  0  3  0  0  0  0  0  0
  -16.8670  -28.2250   22.8040 C   0  0  0  0  0  3  0  0  0  0  0  0
  -25.8400  -32.4110   23.7160 C   0  0  0  0  0  3  0  0  0  0  0  0
  -25.4540  -33.7760   24.1020 N   0  0  0  0  0  0  0  0  0  0  0  0
  -25.7340  -34.8790   23.3940 C   0  0  0  0  0  0  0  0  0  0  0  0
  -26.4160  -34.8570   22.3650 O   0  0  0  0  0  0  0  0  0  0  0  0
  -24.8500  -33.8640   24.9060 H   0  0  0  0  0  0  0  0  0  0  0  0
  -23.9270  -36.6030   23.0920 C   0  0  0  0  0  1  0  0  0  0  0  0
  -25.1720  -36.2180   23.9060 C   0  0  0  0  0  3  0  0  0  0  0  0
  -27.2440  -37.1670   24.8230 C   0  0  0  0  0  1  0  0  0  0  0  0
  -26.1550  -37.3230   23.8630 N   0  0  0  0  0  0  0  0  0  0  0  0
  -25.7020  -38.2150   24.0410 H   0  0  0  0  0  0  0  0  0  0  0  0
  -26.3810  -31.6160   24.9660 C   0  0  1  0  0  0  0  0  0  0  0  0
  -25.2870  -31.2760   26.0040 C   0  0  0  0  0  1  0  0  0  0  0  0
  -27.0460  -30.2890   24.5280 C   0  0  0  0  0  1  0  0  0  0  0  0
  -27.4780  -32.4420   25.6770 C   0  0  0  0  0  1  0  0  0  0  0  0
  1  2  1  0
  1 51  1  0
  2  4  1  0
  3  1  2  0
  5 20  1  0
  6 11  1  0
  7  8  1  0
  7  6  1  0
  9  8  1  0
  9 25  1  0
  9 10  1  0
 11  5  1  0
 11 10  1  0
 12  5  2  0
 14 13  2  0
 14 17  1  0
 15 14  1  0
 16  2  1  0
 16 13  1  0
 18 15  2  0
 18 20  1  0
 19 17  2  0
 20 19  1  0
 21 15  1  0
 21 16  1  0
 22 23  2  0
 23 42  1  0
 24 23  1  0
 24 27  1  0
 25 26  1  0
 25 22  1  0
 26 24  2  0
 27 28  1  0
 28 29  2  0
 30 33  1  0
 30 29  1  0
 31 30  2  0
 32 31  1  0
 32 27  2  0
 33 34  1  0
 34 35  1  0
 35 36  2  0
 37 36  1  0
 37 41  1  0
 38 37  2  0
 39 34  2  0
 39 38  1  0
 40 39  1  0
 42 43  1  0
 43 45  1  0
 43 46  1  0
 44 42  2  0
 47 22  1  0
 47 48  1  0
 49 47  1  0
 51 50  1  0
 52 51  1  0
 53 64  2  0
 54 52  1  0
 54 59  1  0
 55 63  1  0
 55 65  1  0
 56 62  1  0
 56 58  1  0
 57 63  1  0
 58 59  2  0
 58 57  1  0
 60 54  2  0
 61 60  1  0
 61 56  2  0
 62 55  1  0
 63 53  1  0
 65 67  2  0
 66 65  1  0
 68 66  1  0
 69 78  2  0
 69 74  1  0
 70 66  1  0
 70 74  1  0
 71 70  1  0
 72 73  1  0
 72 71  1  0
 73 69  1  0
 74 75  2  0
 75 76  1  0
 77 76  2  0
 78 77  1  0
 79 53  1  0
 79 80  1  0
 79 89  1  0
 80 83  1  0
 81 85  1  0
 81 80  1  0
 82 81  2  0
 85 84  1  0
 87 85  1  0
 87 88  1  0
 87 86  1  0
 89 92  1  1
 89 90  1  0
 91 89  1  0
M  ISO  4   5 100  20 100  51 101  52 101
M  END
>  <TORSDO>  (1) 
F 17

>  <SCORE>  (1) 
-12.422

>  <name>  (1) 
0

>  <ligand_id>  (1) 
0

>  <original_smiles>  (1) 
[H]c1c([H])c([H])c2c(c1[H])C([H])([H])C([H])([H])C([H])([H])C2([H])N([H])C(=O)C1([H])N(C(=O)C([H])(N([H])C(=O)C([H])(N([H])C([H])([H])[H])C([H])([H])[H])C(C([H])([H])[H])(C([H])([H])[H])C([H])([H])[H])C([H])([H])c2c([H])c(OC([H])(C(=O)N([H])c3sc4c(c3[H])C([H])([H])C([H])([H])N(C(=O)N3C([H])([H])C([H])([H])C([H])([H])C([H])(n5nc(-c6c([H])c([H])c(Oc7c([H])c([H])c(F)c([H])c7F)c([H])c6[H])c(C(=O)N([H])[H])c5N([H])[H])C3([H])[H])C4([H])[H])C([H])([H])[H])c([H])c([H])c2C1([H])[H]

>  <smiles>  (1) 
[H]c1c([H])c([H])c2c(c1[H])C([H])([H])C([H])([H])C([H])([H])C2([H])N([H])C(=O)C1([H])N(C(=O)C([H])(N([H])C(=O)C([H])(N([H])C([H])([H])[H])C([H])([H])[H])C(C([H])([H])[H])(C([H])([H])[H])C([H])([H])[H])C([H])([H])c2c([H])c(OC([H])(C(=O)N([H])c3sc4c(c3[H])C([H])([H])C([H])([H])N(C(=O)N3C([H])([H])C([H])([H])C([H])([H])C([H])(n5nc(-c6c([H])c([H])c(Oc7c([H])c([H])c(F)c([H])c7F)c([H])c6[H])c(C(=O)N([H])[H])c5N([H])[H])C3([H])[H])C4([H])[H])C([H])([H])[H])c([H])c([H])c2C1([H])[H]

$$$$
1:0:0
     RDKit          3D

 92101  0  0  1  0  0  0  0  0999 V2000
  -29.3230  -22.5960   20.4460 C   0  0  0  0  0  2  0  0  0  0  0  0
  -27.5600  -22.8380   18.8650 C   0  0  0  0  0  2  0  0  0  0  0  0
  -28.6110  -21.1840   20.2830 C   0  0  0  0  0  3  0  0  0  0  0  0
  -28.2290  -23.6750   20.0020 C   0  0  0  0  0  3  0  0  0  0  0  0
  -27.8250  -21.3780   19.0600 N   0  0  0  0  0  4  0  0  0  0  0  0
  -28.3750  -21.0300   18.2900 H   0  0  0  0  0  0  0  0  0  0  0  0
  -26.9710  -20.8460   19.1000 H   0  0  0  0  0  0  0  0  0  0  0  0
  -30.5010  -17.9530   19.2430 C   0  0  0  0  0  3  0  0  0  0  0  0
  -29.8940  -17.1950   20.2330 C   0  0  0  0  0  0  0  0  0  0  0  0
  -29.3050  -19.7620   20.1550 C   0  0  0  0  0  0  0  0  0  0  0  0
  -30.1410  -19.3390   19.1860 N   0  0  0  0  0  0  0  0  0  0  0  0
  -28.9200  -18.3420   21.2000 S   0  0  0  0  0  0  0  0  0  0  0  0
  -30.6570  -14.7620   19.9900 C   0  0  0  0  0  0  0  0  0  0  0  0
  -30.4250  -12.5140   18.9260 C   0  0  0  0  0  2  0  0  0  0  0  0
  -29.4080  -12.6400   17.7680 C   0  0  0  0  0  2  0  0  0  0  0  0
  -27.9650  -12.4570   18.2810 C   0  0  0  0  0  2  0  0  0  0  0  0
  -27.6770  -13.2960   19.5550 C   0  0  0  0  0  3  0  0  0  0  0  0
  -28.8020  -13.1380   20.6030 C   0  0  0  0  0  2  0  0  0  0  0  0
  -30.0660  -13.5190   19.9540 N   0  0  0  0  0  0  0  0  0  0  0  0
  -31.7780  -14.9360   19.5010 O   0  0  0  0  0  0  0  0  0  0  0  0
  -29.8980  -15.8110   20.4790 N   0  0  0  0  0  0  0  0  0  0  0  0
  -29.1080  -15.4890   21.0180 H   0  0  0  0  0  0  0  0  0  0  0  0
  -25.3370  -13.8720   20.4420 C   0  0  0  0  0  0  0  0  0  0  0  0
  -24.2940  -13.0890   20.8550 C   0  0  0  0  0  0  0  0  0  0  0  0
  -24.7490  -11.7390   20.7550 C   0  0  0  0  0  0  0  0  0  0  0  0
  -26.3610  -12.9980   20.1160 N   0  0  0  0  0  0  0  0  0  0  0  0
  -26.0170  -11.7080   20.3640 N   0  0  0  0  0  0  0  0  0  0  0  0
  -24.0320  -10.4730   20.9550 C   0  0  0  0  0  0  0  0  0  0  0  0
  -24.4850   -9.5050   21.8790 C   0  0  0  0  0  3  0  0  0  0  0  0
  -23.7680   -8.3040   22.0660 C   0  0  0  0  0  3  0  0  0  0  0  0
  -22.5830   -8.0640   21.3310 C   0  0  0  0  0  0  0  0  0  0  0  0
  -22.1490   -9.0200   20.3950 C   0  0  0  0  0  3  0  0  0  0  0  0
  -22.8670  -10.2130   20.2060 C   0  0  0  0  0  3  0  0  0  0  0  0
  -21.8340   -6.9150   21.4280 O   0  0  0  0  0  0  0  0  0  0  0  0
  -21.7630   -6.1990   22.5960 C   0  0  0  0  0  0  0  0  0  0  0  0
  -21.2870   -6.7750   23.7950 C   0  0  0  0  0  3  0  0  0  0  0  0
  -21.1650   -5.9860   24.9560 C   0  0  0  0  0  3  0  0  0  0  0  0
  -21.5090   -4.6200   24.9180 C   0  0  0  0  0  0  0  0  0  0  0  0
  -21.9770   -4.0440   23.7240 C   0  0  0  0  0  3  0  0  0  0  0  0
  -22.1000   -4.8320   22.5660 C   0  0  0  0  0  0  0  0  0  0  0  0
  -22.5330   -4.2660   21.4130 F   0  0  0  0  0  0  0  0  0  0  0  0
  -21.3830   -3.8590   26.0300 F   0  0  0  0  0  0  0  0  0  0  0  0
  -22.9180  -13.5610   21.2290 C   0  0  0  0  0  0  0  0  0  0  0  0
  -22.2440  -12.8400   22.1160 N   0  0  0  0  0  0  0  0  0  0  0  0
  -22.4540  -14.6040   20.7690 O   0  0  0  0  0  0  0  0  0  0  0  0
  -22.6330  -11.9950   22.5070 H   0  0  0  0  0  0  0  0  0  0  0  0
  -21.3220  -13.1360   22.4080 H   0  0  0  0  0  0  0  0  0  0  0  0
  -25.4950  -15.2480   20.2940 N   0  0  0  0  0  0  0  0  0  0  0  0
  -24.7360  -15.8980   20.4690 H   0  0  0  0  0  0  0  0  0  0  0  0
  -26.3170  -15.6950   19.9110 H   0  0  0  0  0  0  0  0  0  0  0  0
  -28.5850  -25.1890   19.5150 C   0  0  0  0  0  2  0  0  0  0  0  0
  -28.3850  -26.4580   20.2850 O   0  0  0  0  0  0  0  0  0  0  0  0
  -24.6070  -31.8820   23.2230 C   0  0  0  0  0  0  0  0  0  0  0  0
  -27.2520  -27.2950   20.1880 C   0  0  0  0  0  0  0  0  0  0  0  0
  -23.4140  -30.4710   21.5860 C   0  0  0  0  0  3  0  0  0  0  0  0
  -24.8750  -28.9130   20.1670 C   0  0  0  0  0  0  0  0  0  0  0  0
  -25.9540  -30.7910   21.4100 C   0  0  0  0  0  2  0  0  0  0  0  0
  -26.0400  -29.4060   20.7670 C   0  0  0  0  0  0  0  0  0  0  0  0
  -27.2250  -28.6070   20.7710 C   0  0  0  0  0  3  0  0  0  0  0  0
  -26.0610  -26.8570   19.5680 C   0  0  0  0  0  3  0  0  0  0  0  0
  -24.8900  -27.6460   19.5600 C   0  0  0  0  0  3  0  0  0  0  0  0
  -23.6350  -29.7860   20.2100 C   0  0  0  0  0  2  0  0  0  0  0  0
  -24.6780  -31.0670   22.1290 N   0  0  0  0  0  0  0  0  0  0  0  0
  -23.5220  -32.1590   23.7530 O   0  0  0  0  0  0  0  0  0  0  0  0
  -22.7520  -29.4590   22.5510 C   0  0  0  0  0  0  0  0  0  0  0  0
  -21.4250  -29.2810   22.4280 N   0  0  0  0  0  0  0  0  0  0  0  0
  -23.4320  -28.8350   23.3720 O   0  0  0  0  0  0  0  0  0  0  0  0
  -20.9360  -29.8350   21.7390 H   0  0  0  0  0  0  0  0  0  0  0  0
  -18.0470  -28.0950   22.9490 C   0  0  0  0  0  0  0  0  0  0  0  0
  -20.6090  -28.3450   23.2030 C   0  0  0  0  0  3  0  0  0  0  0  0
  -20.7020  -26.9150   22.6240 C   0  0  0  0  0  2  0  0  0  0  0  0
  -19.5920  -26.5970   21.6160 C   0  0  0  0  0  2  0  0  0  0  0  0
  -18.2140  -26.7460   22.2690 C   0  0  0  0  0  2  0  0  0  0  0  0
  -19.1720  -28.8520   23.3740 C   0  0  0  0  0  0  0  0  0  0  0  0
  -18.9620  -30.1140   23.9710 C   0  0  0  0  0  3  0  0  0  0  0  0
  -17.6600  -30.6180   24.1470 C   0  0  0  0  0  3  0  0  0  0  0  0
  -16.5500  -29.8590   23.7390 C   0  0  0  0  0  3  0  0  0  0  0  0
  -16.7440  -28.5980   23.1460 C   0  0  0  0  0  3  0  0  0  0  0  0
  -25.8850  -32.5260   23.8460 C   0  0  0  0  0  3  0  0  0  0  0  0
  -25.5660  -33.9220   24.1760 N   0  0  0  0  0  0  0  0  0  0  0  0
  -25.8950  -34.9790   23.4210 C   0  0  0  0  0  0  0  0  0  0  0  0
  -26.5680  -34.8810   22.3920 O   0  0  0  0  0  0  0  0  0  0  0  0
  -24.9680  -34.0720   24.9760 H   0  0  0  0  0  0  0  0  0  0  0  0
  -24.1630  -36.7690   23.0620 C   0  0  0  0  0  1  0  0  0  0  0  0
  -25.3990  -36.3640   23.8810 C   0  0  0  0  0  3  0  0  0  0  0  0
  -27.5220  -37.2550   24.7360 C   0  0  0  0  0  1  0  0  0  0  0  0
  -26.4290  -37.4210   23.7810 N   0  0  0  0  0  0  0  0  0  0  0  0
  -26.0190  -38.3390   23.9240 H   0  0  0  0  0  0  0  0  0  0  0  0
  -26.4060  -31.7590   25.1240 C   0  0  1  0  0  0  0  0  0  0  0  0
  -25.3120  -31.5140   26.1910 C   0  0  0  0  0  1  0  0  0  0  0  0
  -27.0000  -30.3850   24.7360 C   0  0  0  0  0  1  0  0  0  0  0  0
  -27.5490  -32.5630   25.7880 C   0  0  0  0  0  1  0  0  0  0  0  0
  2  5  1  0
  2  4  1  0
  3 10  1  0
  3  1  1  0
  4 51  1  0
  4  1  1  0
  5  7  1  0
  5  3  1  0
  6  5  1  0
  8  9  2  0
  9 21  1  0
  9 12  1  0
 10 12  1  0
 11  8  1  0
 11 10  2  0
 13 21  1  0
 14 19  1  0
 15 16  1  0
 15 14  1  0
 17 16  1  0
 17 26  1  0
 17 18  1  0
 19 13  1  0
 19 18  1  0
 20 13  2  0
 21 22  1  0
 23 24  2  0
 24 43  1  0
 25 24  1  0
 25 28  1  0
 26 27  1  0
 26 23  1  0
 27 25  2  0
 28 29  1  0
 29 30  2  0
 31 34  1  0
 31 30  1  0
 32 31  2  0
 33 32  1  0
 33 28  2  0
 34 35  1  0
 35 36  1  0
 36 37  2  0
 38 37  1  0
 38 42  1  0
 39 38  2  0
 40 35  2  0
 40 39  1  0
 41 40  1  0
 43 44  1  0
 44 47  1  0
 44 46  1  0
 45 43  2  0
 48 23  1  0
 48 49  1  0
 50 48  1  0
 51 52  1  0
 53 64  2  0
 54 52  1  0
 54 59  1  0
 55 63  1  0
 55 65  1  0
 56 62  1  0
 56 58  1  0
 57 63  1  0
 58 59  2  0
 58 57  1  0
 60 54  2  0
 61 60  1  0
 61 56  2  0
 62 55  1  0
 63 53  1  0
 65 67  2  0
 66 65  1  0
 68 66  1  0
 69 78  2  0
 69 74  1  0
 70 66  1  0
 70 74  1  0
 71 70  1  0
 72 73  1  0
 72 71  1  0
 73 69  1  0
 74 75  2  0
 75 76  1  0
 77 76  2  0
 78 77  1  0
 79 53  1  0
 79 80  1  0
 79 89  1  0
 80 83  1  0
 81 85  1  0
 81 80  1  0
 82 81  2  0
 85 84  1  0
 87 85  1  0
 87 88  1  0
 87 86  1  0
 89 92  1  1
 89 90  1  0
 91 89  1  0
M  ISO  4  13 100  21 100  51 101  52 101
M  END
>  <TORSDO>  (2) 
F 18

>  <SCORE>  (2) 
-13.924

>  <name>  (2) 
1

>  <ligand_id>  (2) 
1

>  <original_smiles>  (2) 
[H]c1nc(C2([H])C([H])([H])C([H])(C([H])([H])Oc3c([H])c([H])c4c(c3[H])C([H])([H])N(C(=O)C([H])(N([H])C(=O)C([H])(N([H])C([H])([H])[H])C([H])([H])[H])C(C([H])([H])[H])(C([H])([H])[H])C([H])([H])[H])C([H])(C(=O)N([H])C3([H])c5c([H])c([H])c([H])c([H])c5C([H])([H])C([H])([H])C3([H])[H])C4([H])[H])C([H])([H])[N+]2([H])[H])sc1N([H])C(=O)N1C([H])([H])C([H])([H])C([H])([H])C([H])(n2nc(-c3c([H])c([H])c(Oc4c([H])c([H])c(F)c([H])c4F)c([H])c3[H])c(C(=O)N([H])[H])c2N([H])[H])C1([H])[H]

>  <smiles>  (2) 
[H]c1nc(C2([H])C([H])([H])C([H])(C([H])([H])Oc3c([H])c([H])c4c(c3[H])C([H])([H])N(C(=O)C([H])(N([H])C(=O)C([H])(N([H])C([H])([H])[H])C([H])([H])[H])C(C([H])([H])[H])(C([H])([H])[H])C([H])([H])[H])C([H])(C(=O)N([H])C3([H])c5c([H])c([H])c([H])c([H])c5C([H])([H])C([H])([H])C3([H])[H])C4([H])[H])C([H])([H])[N+]2([H])[H])sc1N([H])C(=O)N1C([H])([H])C([H])([H])C([H])([H])C([H])(n2nc(-c3c([H])c([H])c(Oc4c([H])c([H])c(F)c([H])c4F)c([H])c3[H])c(C(=O)N([H])[H])c2N([H])[H])C1([H])[H]

$$$$
2:0:0
     RDKit          3D

 95104  0  0  1  0  0  0  0  0999 V2000
  -28.4640  -21.2190   19.3950 C   0  0  0  0  0  2  0  0  0  0  0  0
  -28.2020  -22.7360   19.0270 C   0  0  0  0  0  2  0  0  0  0  0  0
  -29.7640  -23.4910   20.9060 C   0  0  0  0  0  2  0  0  0  0  0  0
  -29.3540  -20.9860   20.6500 C   0  0  0  0  0  3  0  0  0  0  0  0
  -28.4430  -23.8420   20.1270 C   0  0  2  0  0  0  0  0  0  0  0  0
  -27.2590  -23.8500   21.1140 C   0  0  0  0  0  1  0  0  0  0  0  0
  -30.3300  -22.1170   20.6900 N   0  0  0  0  0  4  0  0  0  0  0  0
  -31.0000  -21.9690   21.4270 H   0  0  0  0  0  0  0  0  0  0  0  0
  -30.8330  -22.1280   19.8180 H   0  0  0  0  0  0  0  0  0  0  0  0
  -29.6790  -18.2920   20.3020 C   0  0  0  0  0  3  0  0  0  0  0  0
  -30.8720  -19.4580   22.0370 C   0  0  0  0  0  3  0  0  0  0  0  0
  -31.1210  -17.1550   21.8860 C   0  0  0  0  0  3  0  0  0  0  0  0
  -29.9880  -19.5520   20.9360 C   0  0  0  0  0  0  0  0  0  0  0  0
  -30.2410  -17.0560   20.7930 C   0  0  0  0  0  0  0  0  0  0  0  0
  -31.4310  -18.3170   22.4900 N   0  0  0  0  0  0  0  0  0  0  0  0
  -30.6260  -14.6310   20.0560 C   0  0  0  0  0  0  0  0  0  0  0  0
  -30.3260  -12.4210   18.9360 C   0  0  0  0  0  2  0  0  0  0  0  0
  -29.3070  -12.5470   17.7850 C   0  0  0  0  0  2  0  0  0  0  0  0
  -27.8560  -12.4180   18.3030 C   0  0  0  0  0  2  0  0  0  0  0  0
  -27.5810  -13.2800   19.5660 C   0  0  0  0  0  3  0  0  0  0  0  0
  -28.7030  -13.0930   20.6070 C   0  0  0  0  0  2  0  0  0  0  0  0
  -29.9750  -13.4300   19.9550 N   0  0  0  0  0  0  0  0  0  0  0  0
  -31.7850  -14.7760   19.6640 O   0  0  0  0  0  0  0  0  0  0  0  0
  -29.8420  -15.7220   20.3580 N   0  0  0  0  0  0  0  0  0  0  0  0
  -28.8570  -15.5180   20.4380 H   0  0  0  0  0  0  0  0  0  0  0  0
  -25.2370  -13.8880   20.4490 C   0  0  0  0  0  0  0  0  0  0  0  0
  -24.1870  -13.1220   20.8680 C   0  0  0  0  0  0  0  0  0  0  0  0
  -24.6300  -11.7660   20.7830 C   0  0  0  0  0  0  0  0  0  0  0  0
  -26.2600  -13.0070   20.1350 N   0  0  0  0  0  0  0  0  0  0  0  0
  -25.9000  -11.7230   20.3980 N   0  0  0  0  0  0  0  0  0  0  0  0
  -23.8990  -10.5070   20.9880 C   0  0  0  0  0  0  0  0  0  0  0  0
  -24.3640   -9.5250   21.8900 C   0  0  0  0  0  3  0  0  0  0  0  0
  -23.6310   -8.3350   22.0910 C   0  0  0  0  0  3  0  0  0  0  0  0
  -22.4220   -8.1170   21.3870 C   0  0  0  0  0  0  0  0  0  0  0  0
  -21.9830   -9.0860   20.4690 C   0  0  0  0  0  3  0  0  0  0  0  0
  -22.7160  -10.2680   20.2660 C   0  0  0  0  0  3  0  0  0  0  0  0
  -21.6610   -6.9780   21.4920 O   0  0  0  0  0  0  0  0  0  0  0  0
  -21.6420   -6.2310   22.6450 C   0  0  0  0  0  0  0  0  0  0  0  0
  -21.2360   -6.7790   23.8800 C   0  0  0  0  0  3  0  0  0  0  0  0
  -21.1630   -5.9600   25.0240 C   0  0  0  0  0  3  0  0  0  0  0  0
  -21.4860   -4.5920   24.9340 C   0  0  0  0  0  0  0  0  0  0  0  0
  -21.8850   -4.0440   23.6990 C   0  0  0  0  0  3  0  0  0  0  0  0
  -21.9610   -4.8610   22.5590 C   0  0  0  0  0  0  0  0  0  0  0  0
  -22.3260   -4.3230   21.3700 F   0  0  0  0  0  0  0  0  0  0  0  0
  -21.4100   -3.8020   26.0280 F   0  0  0  0  0  0  0  0  0  0  0  0
  -22.8150  -13.6080   21.2370 C   0  0  0  0  0  0  0  0  0  0  0  0
  -22.1230  -12.9080   22.1250 N   0  0  0  0  0  0  0  0  0  0  0  0
  -22.3670  -14.6500   20.7580 O   0  0  0  0  0  0  0  0  0  0  0  0
  -22.4980  -12.0700   22.5380 H   0  0  0  0  0  0  0  0  0  0  0  0
  -21.2030  -13.2240   22.3980 H   0  0  0  0  0  0  0  0  0  0  0  0
  -25.3920  -15.2620   20.2880 N   0  0  0  0  0  0  0  0  0  0  0  0
  -24.6190  -15.8930   20.4750 H   0  0  0  0  0  0  0  0  0  0  0  0
  -26.1980  -15.7320   19.9010 H   0  0  0  0  0  0  0  0  0  0  0  0
  -28.4980  -25.2910   19.4330 C   0  0  0  0  0  2  0  0  0  0  0  0
  -28.3630  -26.5480   20.2030 O   0  0  0  0  0  0  0  0  0  0  0  0
  -24.5760  -31.8790   23.2370 C   0  0  0  0  0  0  0  0  0  0  0  0
  -27.2070  -27.3440   20.1640 C   0  0  0  0  0  0  0  0  0  0  0  0
  -23.3750  -30.4780   21.6010 C   0  0  0  0  0  3  0  0  0  0  0  0
  -24.8250  -28.9290   20.1770 C   0  0  0  0  0  0  0  0  0  0  0  0
  -25.9130  -30.8090   21.4110 C   0  0  0  0  0  2  0  0  0  0  0  0
  -25.9930  -29.4320   20.7610 C   0  0  0  0  0  0  0  0  0  0  0  0
  -27.1880  -28.6550   20.7380 C   0  0  0  0  0  3  0  0  0  0  0  0
  -26.0010  -26.8790   19.5900 C   0  0  0  0  0  3  0  0  0  0  0  0
  -24.8290  -27.6550   19.5880 C   0  0  0  0  0  3  0  0  0  0  0  0
  -23.5870  -29.8020   20.2200 C   0  0  0  0  0  2  0  0  0  0  0  0
  -24.6410  -31.0670   22.1400 N   0  0  0  0  0  0  0  0  0  0  0  0
  -23.4930  -32.1560   23.7720 O   0  0  0  0  0  0  0  0  0  0  0  0
  -22.7120  -29.4630   22.5610 C   0  0  0  0  0  0  0  0  0  0  0  0
  -21.3870  -29.2820   22.4250 N   0  0  0  0  0  0  0  0  0  0  0  0
  -23.3870  -28.8430   23.3850 O   0  0  0  0  0  0  0  0  0  0  0  0
  -20.8980  -29.8240   21.7270 H   0  0  0  0  0  0  0  0  0  0  0  0
  -18.0110  -28.1020   22.9290 C   0  0  0  0  0  0  0  0  0  0  0  0
  -20.5700  -28.3450   23.1950 C   0  0  0  0  0  3  0  0  0  0  0  0
  -20.6660  -26.9170   22.6100 C   0  0  0  0  0  2  0  0  0  0  0  0
  -19.5600  -26.6070   21.5960 C   0  0  0  0  0  2  0  0  0  0  0  0
  -18.1810  -26.7540   22.2460 C   0  0  0  0  0  2  0  0  0  0  0  0
  -19.1340  -28.8540   23.3620 C   0  0  0  0  0  0  0  0  0  0  0  0
  -18.9270  -30.1160   23.9600 C   0  0  0  0  0  3  0  0  0  0  0  0
  -17.6280  -30.6230   24.1360 C   0  0  0  0  0  3  0  0  0  0  0  0
  -16.5170  -29.8660   23.7240 C   0  0  0  0  0  3  0  0  0  0  0  0
  -16.7090  -28.6090   23.1230 C   0  0  0  0  0  3  0  0  0  0  0  0
  -25.8600  -32.5120   23.8580 C   0  0  0  0  0  3  0  0  0  0  0  0
  -25.5440  -33.9120   24.1890 N   0  0  0  0  0  0  0  0  0  0  0  0
  -25.8660  -34.9640   23.4280 C   0  0  0  0  0  0  0  0  0  0  0  0
  -26.5320  -34.8650   22.3930 O   0  0  0  0  0  0  0  0  0  0  0  0
  -24.9510  -34.0620   24.9910 H   0  0  0  0  0  0  0  0  0  0  0  0
  -24.1300  -36.7510   23.0810 C   0  0  0  0  0  1  0  0  0  0  0  0
  -25.3760  -36.3510   23.8870 C   0  0  0  0  0  3  0  0  0  0  0  0
  -27.5060  -37.2490   24.7160 C   0  0  0  0  0  1  0  0  0  0  0  0
  -26.4020  -37.4100   23.7720 N   0  0  0  0  0  0  0  0  0  0  0  0
  -25.9890  -38.3290   23.9100 H   0  0  0  0  0  0  0  0  0  0  0  0
  -26.3750  -31.7420   25.1370 C   0  0  1  0  0  0  0  0  0  0  0  0
  -25.2790  -31.5060   26.1990 C   0  0  0  0  0  1  0  0  0  0  0  0
  -26.9600  -30.3610   24.7550 C   0  0  0  0  0  1  0  0  0  0  0  0
  -27.5230  -32.5370   25.8050 C   0  0  0  0  0  1  0  0  0  0  0  0
  1  4  1  0
  2  1  1  0
  2  5  1  0
  4  7  1  0
  4 13  1  0
  5  3  1  0
  5  6  1  1
  7  3  1  0
  7  8  1  0
  9  7  1  0
 10 14  2  0
 10 13  1  0
 11 15  1  0
 12 15  2  0
 13 11  2  0
 14 12  1  0
 16 24  1  0
 17 22  1  0
 18 19  1  0
 18 17  1  0
 20 19  1  0
 20 29  1  0
 20 21  1  0
 22 16  1  0
 22 21  1  0
 23 16  2  0
 24 25  1  0
 24 14  1  0
 26 27  2  0
 27 46  1  0
 28 27  1  0
 28 31  1  0
 29 30  1  0
 29 26  1  0
 30 28  2  0
 31 32  1  0
 32 33  2  0
 34 37  1  0
 34 33  1  0
 35 34  2  0
 36 35  1  0
 36 31  2  0
 37 38  1  0
 38 39  1  0
 39 40  2  0
 41 40  1  0
 41 45  1  0
 42 41  2  0
 43 38  2  0
 43 42  1  0
 44 43  1  0
 46 47  1  0
 47 50  1  0
 47 49  1  0
 48 46  2  0
 51 26  1  0
 51 52  1  0
 53 51  1  0
 54  5  1  0
 54 55  1  0
 56 67  2  0
 57 55  1  0
 57 62  1  0
 58 66  1  0
 58 68  1  0
 59 65  1  0
 59 61  1  0
 60 66  1  0
 61 60  1  0
 62 61  2  0
 63 57  2  0
 64 63  1  0
 64 59  2  0
 65 58  1  0
 66 56  1  0
 68 70  2  0
 69 68  1  0
 71 69  1  0
 72 81  2  0
 72 77  1  0
 73 69  1  0
 73 77  1  0
 74 73  1  0
 75 76  1  0
 75 74  1  0
 76 72  1  0
 77 78  2  0
 78 79  1  0
 80 79  2  0
 81 80  1  0
 82 56  1  0
 82 83  1  0
 82 92  1  0
 83 86  1  0
 84 88  1  0
 84 83  1  0
 85 84  2  0
 88 87  1  0
 90 88  1  0
 90 91  1  0
 90 89  1  0
 92 95  1  1
 92 93  1  0
 94 92  1  0
M  ISO  4  16 100  24 100  54 101  55 101
M  END
>  <TORSDO>  (3) 
F 18

>  <SCORE>  (3) 
-14.600

>  <name>  (3) 
2

>  <ligand_id>  (3) 
2

>  <original_smiles>  (3) 
[H]c1nc([H])c(C2([H])C([H])([H])C([H])([H])C(C([H])([H])[H])(C([H])([H])Oc3c([H])c([H])c4c(c3[H])C([H])([H])N(C(=O)C([H])(N([H])C(=O)C([H])(N([H])C([H])([H])[H])C([H])([H])[H])C(C([H])([H])[H])(C([H])([H])[H])C([H])([H])[H])C([H])(C(=O)N([H])C3([H])c5c([H])c([H])c([H])c([H])c5C([H])([H])C([H])([H])C3([H])[H])C4([H])[H])C([H])([H])[N+]2([H])[H])c([H])c1N([H])C(=O)N1C([H])([H])C([H])([H])C([H])([H])C([H])(n2nc(-c3c([H])c([H])c(Oc4c([H])c([H])c(F)c([H])c4F)c([H])c3[H])c(C(=O)N([H])[H])c2N([H])[H])C1([H])[H]

>  <smiles>  (3) 
[H]c1nc([H])c(C2([H])C([H])([H])C([H])([H])C(C([H])([H])[H])(C([H])([H])Oc3c([H])c([H])c4c(c3[H])C([H])([H])N(C(=O)C([H])(N([H])C(=O)C([H])(N([H])C([H])([H])[H])C([H])([H])[H])C(C([H])([H])[H])(C([H])([H])[H])C([H])([H])[H])C([H])(C(=O)N([H])C3([H])c5c([H])c([H])c([H])c([H])c5C([H])([H])C([H])([H])C3([H])[H])C4([H])[H])C([H])([H])[N+]2([H])[H])c([H])c1N([H])C(=O)N1C([H])([H])C([H])([H])C([H])([H])C([H])(n2nc(-c3c([H])c([H])c(Oc4c([H])c([H])c(F)c([H])c4F)c([H])c3[H])c(C(=O)N([H])[H])c2N([H])[H])C1([H])[H]

$$$$
3:0:0
     RDKit          3D

 96106  0  0  1  0  0  0  0  0999 V2000
  -31.0580  -20.1510   18.1610 C   0  0  0  0  0  2  0  0  0  0  0  0
  -29.1860  -18.6170   17.7890 C   0  0  0  0  0  0  0  0  0  0  0  0
  -28.4160  -17.7930   16.7870 C   0  0  0  0  0  3  0  0  0  0  0  0
  -29.2510  -17.8550   15.5140 C   0  0  0  0  0  3  0  0  0  0  0  0
  -30.5380  -18.6460   15.8260 C   0  0  0  0  0  3  0  0  0  0  0  0
  -30.3080  -19.1490   17.2790 N   0  0  0  0  0  0  0  0  0  0  0  0
  -28.7700  -18.7720   18.9410 O   0  0  0  0  0  0  0  0  0  0  0  0
  -31.8390  -17.7850   15.3120 C   0  0  0  0  0  2  0  0  0  0  0  0
  -32.9060  -18.1590   14.2890 O   0  0  0  0  0  0  0  0  0  0  0  0
  -39.4590  -17.2850   11.1290 C   0  0  0  0  0  0  0  0  0  0  0  0
  -34.2890  -17.8460   14.3500 C   0  0  0  0  0  0  0  0  0  0  0  0
  -39.2220  -16.5230   13.4620 C   0  0  0  0  0  3  0  0  0  0  0  0
  -37.0970  -17.2740   14.6780 C   0  0  0  0  0  0  0  0  0  0  0  0
  -37.7600  -18.4400   12.5770 C   0  0  0  0  0  2  0  0  0  0  0  0
  -36.6720  -18.0180   13.5710 C   0  0  0  0  0  0  0  0  0  0  0  0
  -35.2790  -18.3320   13.4220 C   0  0  0  0  0  3  0  0  0  0  0  0
  -34.7820  -17.1140   15.4480 C   0  0  0  0  0  3  0  0  0  0  0  0
  -36.1550  -16.8360   15.6220 C   0  0  0  0  0  3  0  0  0  0  0  0
  -38.5780  -16.9650   14.8030 C   0  0  0  0  0  2  0  0  0  0  0  0
  -38.8150  -17.4120   12.3270 N   0  0  0  0  0  0  0  0  0  0  0  0
  -40.3840  -16.4720   10.9750 O   0  0  0  0  0  0  0  0  0  0  0  0
  -38.8990  -15.0290   13.2170 C   0  0  0  0  0  0  0  0  0  0  0  0
  -39.6500  -14.1270   13.8750 N   0  0  0  0  0  0  0  0  0  0  0  0
  -37.9750  -14.7030   12.4680 O   0  0  0  0  0  0  0  0  0  0  0  0
  -40.3980  -14.4710   14.4600 H   0  0  0  0  0  0  0  0  0  0  0  0
  -41.2780  -10.9750   14.5910 C   0  0  0  0  0  0  0  0  0  0  0  0
  -39.4840  -12.6730   13.8240 C   0  0  0  0  0  3  0  0  0  0  0  0
  -38.6430  -12.1660   15.0180 C   0  0  0  0  0  2  0  0  0  0  0  0
  -39.4940  -11.7360   16.2170 C   0  0  0  0  0  2  0  0  0  0  0  0
  -40.4570  -10.6150   15.8180 C   0  0  0  0  0  2  0  0  0  0  0  0
  -40.8290  -11.9540   13.6640 C   0  0  0  0  0  0  0  0  0  0  0  0
  -41.6470  -12.2740   12.5590 C   0  0  0  0  0  3  0  0  0  0  0  0
  -42.8880  -11.6370   12.3720 C   0  0  0  0  0  3  0  0  0  0  0  0
  -43.3220  -10.6610   13.2850 C   0  0  0  0  0  3  0  0  0  0  0  0
  -42.5150  -10.3290   14.3890 C   0  0  0  0  0  3  0  0  0  0  0  0
  -39.0810  -18.1690    9.9010 C   0  0  0  0  0  3  0  0  0  0  0  0
  -39.4310  -17.4940    8.5180 C   0  0  1  0  0  0  0  0  0  0  0  0
  -40.8700  -16.9300    8.4470 C   0  0  0  0  0  1  0  0  0  0  0  0
  -38.4560  -16.3330    8.2110 C   0  0  0  0  0  1  0  0  0  0  0  0
  -39.2610  -18.5230    7.3750 C   0  0  0  0  0  1  0  0  0  0  0  0
  -39.7870  -19.4530   10.0400 N   0  0  0  0  0  0  0  0  0  0  0  0
  -39.2460  -20.5690   10.5470 C   0  0  0  0  0  0  0  0  0  0  0  0
  -38.0630  -20.6430   10.8880 O   0  0  0  0  0  0  0  0  0  0  0  0
  -40.7750  -19.4480    9.8310 H   0  0  0  0  0  0  0  0  0  0  0  0
  -40.6060  -21.9370   12.1630 C   0  0  0  0  0  1  0  0  0  0  0  0
  -40.1630  -21.7990   10.6990 C   0  0  0  0  0  3  0  0  0  0  0  0
  -39.4240  -23.1640    8.7950 C   0  0  0  0  0  1  0  0  0  0  0  0
  -39.5360  -23.0600   10.2480 N   0  0  0  0  0  0  0  0  0  0  0  0
  -40.0620  -23.8620   10.5820 H   0  0  0  0  0  0  0  0  0  0  0  0
  -29.6660  -22.1910   17.5650 C   0  0  0  0  0  3  0  0  0  0  0  0
  -30.2680  -24.5490   17.8270 C   0  0  0  0  0  3  0  0  0  0  0  0
  -31.6930  -22.8070   18.7640 C   0  0  0  0  0  3  0  0  0  0  0  0
  -29.3930  -23.5570   17.3440 C   0  0  0  0  0  0  0  0  0  0  0  0
  -30.8150  -21.7460   18.2530 C   0  0  0  0  0  0  0  0  0  0  0  0
  -31.4350  -24.2380   18.5540 C   0  0  0  0  0  0  0  0  0  0  0  0
  -32.9770  -25.6060   20.2560 C   0  0  0  0  0  0  0  0  0  0  0  0
  -34.2380  -27.6790   20.9120 C   0  0  0  0  0  2  0  0  0  0  0  0
  -33.5730  -28.9160   20.2680 C   0  0  0  0  0  2  0  0  0  0  0  0
  -34.0940  -29.1420   18.8330 C   0  0  0  0  0  2  0  0  0  0  0  0
  -34.1030  -27.8400   17.9890 C   0  0  0  0  0  3  0  0  0  0  0  0
  -34.7290  -26.6660   18.7700 C   0  0  0  0  0  2  0  0  0  0  0  0
  -33.9690  -26.5310   20.0190 N   0  0  0  0  0  0  0  0  0  0  0  0
  -32.6890  -25.2960   21.4160 O   0  0  0  0  0  0  0  0  0  0  0  0
  -32.0610  -25.4150   19.2200 N   0  0  0  0  0  0  0  0  0  0  0  0
  -32.2480  -26.1340   18.5390 H   0  0  0  0  0  0  0  0  0  0  0  0
  -34.1230  -28.3060   15.4660 C   0  0  0  0  0  0  0  0  0  0  0  0
  -35.1450  -28.4850   14.5750 C   0  0  0  0  0  0  0  0  0  0  0  0
  -36.3520  -28.3020   15.3170 C   0  0  0  0  0  0  0  0  0  0  0  0
  -34.7260  -28.0310   16.6840 N   0  0  0  0  0  0  0  0  0  0  0  0
  -36.0770  -27.9670   16.5720 N   0  0  0  0  0  0  0  0  0  0  0  0
  -37.7540  -28.4830   14.9190 C   0  0  0  0  0  0  0  0  0  0  0  0
  -38.2220  -28.0740   13.6510 C   0  0  0  0  0  3  0  0  0  0  0  0
  -39.5690  -28.2770   13.2840 C   0  0  0  0  0  3  0  0  0  0  0  0
  -40.4640  -28.9000   14.1860 C   0  0  0  0  0  0  0  0  0  0  0  0
  -39.9990  -29.2850   15.4560 C   0  0  0  0  0  3  0  0  0  0  0  0
  -38.6590  -29.0770   15.8220 C   0  0  0  0  0  3  0  0  0  0  0  0
  -41.7960  -29.1150   13.9260 O   0  0  0  0  0  0  0  0  0  0  0  0
  -42.3110  -30.3810   13.8090 C   0  0  0  0  0  0  0  0  0  0  0  0
  -42.6010  -31.1750   14.9390 C   0  0  0  0  0  3  0  0  0  0  0  0
  -43.1940  -32.4430   14.7750 C   0  0  0  0  0  3  0  0  0  0  0  0
  -43.5050  -32.9140   13.4860 C   0  0  0  0  0  0  0  0  0  0  0  0
  -43.2220  -32.1220   12.3600 C   0  0  0  0  0  3  0  0  0  0  0  0
  -42.6290  -30.8570   12.5210 C   0  0  0  0  0  0  0  0  0  0  0  0
  -42.3770  -30.0890   11.4340 F   0  0  0  0  0  0  0  0  0  0  0  0
  -44.0830  -34.1280   13.3280 F   0  0  0  0  0  0  0  0  0  0  0  0
  -35.0130  -28.9040   13.1410 C   0  0  0  0  0  0  0  0  0  0  0  0
  -35.9320  -28.4660   12.2880 N   0  0  0  0  0  0  0  0  0  0  0  0
  -34.0630  -29.5850   12.7580 O   0  0  0  0  0  0  0  0  0  0  0  0
  -36.7010  -27.8910   12.5980 H   0  0  0  0  0  0  0  0  0  0  0  0
  -35.8650  -28.7070   11.3090 H   0  0  0  0  0  0  0  0  0  0  0  0
  -32.7380  -28.3770   15.3500 N   0  0  0  0  0  0  0  0  0  0  0  0
  -32.2890  -28.6280   14.4770 H   0  0  0  0  0  0  0  0  0  0  0  0
  -32.0800  -28.2520   16.1070 H   0  0  0  0  0  0  0  0  0  0  0  0
  -27.3870  -25.1930   16.9800 C   0  0  0  0  0  2  0  0  0  0  0  0
  -26.7820  -23.8210   17.1600 C   0  0  0  0  0  2  0  0  0  0  0  0
  -28.1710  -23.9650   16.5800 C   0  0  0  0  0  3  0  0  0  0  0  0
  1 54  1  0
  2  7  2  0
  3  2  1  0
  4  5  1  0
  4  3  2  0
  5  8  1  0
  5  6  1  0
  6  2  1  0
  6  1  1  0
  9 11  1  0
  9  8  1  0
 10 20  1  0
 11 17  1  0
 12 22  1  0
 12 19  1  0
 13 19  1  0
 13 18  1  0
 14 15  1  0
 15 13  2  0
 16 15  1  0
 16 11  2  0
 17 18  2  0
 20 14  1  0
 20 12  1  0
 21 10  2  0
 22 23  1  0
 23 25  1  0
 24 22  2  0
 26 30  1  0
 27 23  1  0
 27 28  1  0
 28 29  1  0
 30 29  1  0
 31 27  1  0
 31 26  2  0
 32 31  1  0
 33 32  2  0
 33 34  1  0
 34 35  2  0
 35 26  1  0
 36 41  1  0
 36 10  1  0
 37 36  1  0
 37 38  1  1
 39 37  1  0
 40 37  1  0
 41 42  1  0
 42 46  1  0
 42 43  2  0
 44 41  1  0
 46 45  1  0
 47 48  1  0
 48 49  1  0
 48 46  1  0
 50 54  1  0
 51 55  2  0
 53 50  2  0
 53 51  1  0
 54 52  2  0
 55 52  1  0
 55 64  1  0
 56 63  2  0
 58 57  1  0
 59 58  1  0
 60 69  1  0
 60 61  1  0
 60 59  1  0
 61 62  1  0
 62 56  1  0
 62 57  1  0
 64 56  1  0
 65 64  1  0
 66 69  1  0
 67 68  1  0
 67 66  2  0
 68 70  2  0
 70 69  1  0
 71 68  1  0
 71 76  1  0
 72 71  2  0
 73 72  1  0
 73 74  2  0
 74 75  1  0
 75 76  2  0
 77 74  1  0
 78 77  1  0
 78 79  1  0
 80 79  2  0
 81 80  1  0
 82 83  1  0
 82 81  2  0
 83 78  2  0
 84 83  1  0
 85 81  1  0
 86 67  1  0
 87 89  1  0
 87 86  1  0
 88 86  2  0
 90 87  1  0
 91 66  1  0
 91 93  1  0
 92 91  1  0
 94 95  1  0
 96 94  1  0
 96 95  1  0
 96 53  1  0
M  ISO  4   8 101   9 101  56 100  64 100
M  END
>  <TORSDO>  (4) 
F 20

>  <SCORE>  (4) 
1.633

>  <name>  (4) 
3

>  <ligand_id>  (4) 
3

>  <original_smiles>  (4) 
[H]c1c([H])c([H])c2c(c1[H])C([H])([H])C([H])([H])C([H])([H])C2([H])N([H])C(=O)C1([H])N(C(=O)C([H])(N([H])C(=O)C([H])(N([H])C([H])([H])[H])C([H])([H])[H])C(C([H])([H])[H])(C([H])([H])[H])C([H])([H])[H])C([H])([H])c2c([H])c(OC([H])([H])C3([H])N(C([H])([H])c4c([H])c(N([H])C(=O)N5C([H])([H])C([H])([H])C([H])([H])C([H])(n6nc(-c7c([H])c([H])c(Oc8c([H])c([H])c(F)c([H])c8F)c([H])c7[H])c(C(=O)N([H])[H])c6N([H])[H])C5([H])[H])c([H])c(C5([H])C([H])([H])C5([H])[H])c4[H])C(=O)C([H])([H])C3([H])[H])c([H])c([H])c2C1([H])[H]

>  <smiles>  (4) 
[H]c1c([H])c([H])c2c(c1[H])C([H])([H])C([H])([H])C([H])([H])C2([H])N([H])C(=O)C1([H])N(C(=O)C([H])(N([H])C(=O)C([H])(N([H])C([H])([H])[H])C([H])([H])[H])C(C([H])([H])[H])(C([H])([H])[H])C([H])([H])[H])C([H])([H])c2c([H])c(OC([H])([H])C3([H])N(C([H])([H])c4c([H])c(N([H])C(=O)N5C([H])([H])C([H])([H])C([H])([H])C([H])(n6nc(-c7c([H])c([H])c(Oc8c([H])c([H])c(F)c([H])c8F)c([H])c7[H])c(C(=O)N([H])[H])c6N([H])[H])C5([H])[H])c([H])c(C5([H])C([H])([H])C5([H])[H])c4[H])C(=O)C([H])([H])C3([H])[H])c([H])c([H])c2C1([H])[H]

$$$$
4:0:0
     RDKit          3D

 91 99  0  0  1  0  0  0  0  0999 V2000
  -29.9190  -21.7380   19.7680 N   0  0  0  0  0  0  0  0  0  0  0  0
  -29.9040  -22.0070   18.7880 H   0  0  0  0  0  0  0  0  0  0  0  0
  -30.2000  -19.5600   20.9870 C   0  0  0  0  0  3  0  0  0  0  0  0
  -29.5670  -18.2690   19.2980 C   0  0  0  0  0  3  0  0  0  0  0  0
  -30.0760  -18.1830   20.5710 C   0  0  0  0  0  0  0  0  0  0  0  0
  -29.8080  -20.3410   19.9300 C   0  0  0  0  0  0  0  0  0  0  0  0
  -29.4250  -19.5700   18.8830 O   0  0  0  0  0  0  0  0  0  0  0  0
  -30.4900  -16.9310   21.3680 C   0  0  0  0  0  2  0  0  0  0  0  0
  -30.6600  -14.5510   20.4860 C   0  0  0  0  0  0  0  0  0  0  0  0
  -30.3810  -12.3630   19.3570 C   0  0  0  0  0  2  0  0  0  0  0  0
  -29.4370  -12.5150   18.1450 C   0  0  0  0  0  2  0  0  0  0  0  0
  -27.9660  -12.3680   18.5770 C   0  0  0  0  0  2  0  0  0  0  0  0
  -27.6150  -13.2300   19.8180 C   0  0  0  0  0  3  0  0  0  0  0  0
  -28.6690  -13.0570   20.9340 C   0  0  0  0  0  2  0  0  0  0  0  0
  -29.9860  -13.3700   20.3570 N   0  0  0  0  0  0  0  0  0  0  0  0
  -31.8140  -14.6950   20.0750 O   0  0  0  0  0  0  0  0  0  0  0  0
  -29.9550  -15.6030   20.9660 N   0  0  0  0  0  0  0  0  0  0  0  0
  -28.9950  -15.4160   21.2120 H   0  0  0  0  0  0  0  0  0  0  0  0
  -25.2160  -13.8360   20.5180 C   0  0  0  0  0  0  0  0  0  0  0  0
  -24.1460  -13.0650   20.8860 C   0  0  0  0  0  0  0  0  0  0  0  0
  -24.6100  -11.7140   20.8690 C   0  0  0  0  0  0  0  0  0  0  0  0
  -26.2620  -12.9560   20.2970 N   0  0  0  0  0  0  0  0  0  0  0  0
  -25.9020  -11.6750   20.5690 N   0  0  0  0  0  0  0  0  0  0  0  0
  -23.8840  -10.4530   21.0610 C   0  0  0  0  0  0  0  0  0  0  0  0
  -24.3240   -9.4840   21.9900 C   0  0  0  0  0  3  0  0  0  0  0  0
  -23.5990   -8.2860   22.1710 C   0  0  0  0  0  3  0  0  0  0  0  0
  -22.4210   -8.0480   21.4240 C   0  0  0  0  0  0  0  0  0  0  0  0
  -22.0020   -9.0060   20.4840 C   0  0  0  0  0  3  0  0  0  0  0  0
  -22.7250  -10.1950   20.3010 C   0  0  0  0  0  3  0  0  0  0  0  0
  -21.6690   -6.9030   21.5150 O   0  0  0  0  0  0  0  0  0  0  0  0
  -21.6400   -6.1490   22.6610 C   0  0  0  0  0  0  0  0  0  0  0  0
  -21.2440   -6.6930   23.9020 C   0  0  0  0  0  3  0  0  0  0  0  0
  -21.1630   -5.8670   25.0390 C   0  0  0  0  0  3  0  0  0  0  0  0
  -21.4650   -4.4970   24.9380 C   0  0  0  0  0  0  0  0  0  0  0  0
  -21.8550   -3.9510   23.7020 C   0  0  0  0  0  3  0  0  0  0  0  0
  -21.9380   -4.7750   22.5660 C   0  0  0  0  0  0  0  0  0  0  0  0
  -22.2920   -4.2390   21.3730 F   0  0  0  0  0  0  0  0  0  0  0  0
  -21.3800   -3.7000   26.0290 F   0  0  0  0  0  0  0  0  0  0  0  0
  -22.7470  -13.5420   21.1460 C   0  0  0  0  0  0  0  0  0  0  0  0
  -22.0140  -12.8490   22.0100 N   0  0  0  0  0  0  0  0  0  0  0  0
  -22.3110  -14.5640   20.6170 O   0  0  0  0  0  0  0  0  0  0  0  0
  -22.3810  -12.0220   22.4590 H   0  0  0  0  0  0  0  0  0  0  0  0
  -21.0750  -13.1490   22.2280 H   0  0  0  0  0  0  0  0  0  0  0  0
  -25.3800  -15.2060   20.3310 N   0  0  0  0  0  0  0  0  0  0  0  0
  -24.6130  -15.8610   20.4290 H   0  0  0  0  0  0  0  0  0  0  0  0
  -26.2280  -15.6410   19.9910 H   0  0  0  0  0  0  0  0  0  0  0  0
  -29.1280  -22.6870   20.5820 C   0  0  0  0  0  2  0  0  0  0  0  0
  -29.3360  -24.2020   20.2400 C   0  0  0  0  0  0  0  0  0  0  0  0
  -30.4640  -24.6410   19.9970 O   0  0  0  0  0  0  0  0  0  0  0  0
  -28.0820  -25.1200   20.1700 C   0  0  0  0  0  2  0  0  0  0  0  0
  -28.3400  -26.5620   20.1660 O   0  0  0  0  0  0  0  0  0  0  0  0
  -24.6030  -31.8750   23.2290 C   0  0  0  0  0  0  0  0  0  0  0  0
  -27.2020  -27.3690   20.1410 C   0  0  0  0  0  0  0  0  0  0  0  0
  -23.3870  -30.4820   21.5920 C   0  0  0  0  0  3  0  0  0  0  0  0
  -24.8260  -28.9410   20.1590 C   0  0  0  0  0  0  0  0  0  0  0  0
  -25.9210  -30.8130   21.3900 C   0  0  0  0  0  2  0  0  0  0  0  0
  -25.9980  -29.4400   20.7440 C   0  0  0  0  0  0  0  0  0  0  0  0
  -27.1890  -28.6650   20.7250 C   0  0  0  0  0  3  0  0  0  0  0  0
  -26.0010  -26.9080   19.5430 C   0  0  0  0  0  3  0  0  0  0  0  0
  -24.8270  -27.6780   19.5540 C   0  0  0  0  0  3  0  0  0  0  0  0
  -23.5890  -29.8100   20.2110 C   0  0  0  0  0  2  0  0  0  0  0  0
  -24.6560  -31.0730   22.1270 N   0  0  0  0  0  0  0  0  0  0  0  0
  -23.5230  -32.1500   23.7730 O   0  0  0  0  0  0  0  0  0  0  0  0
  -22.7320  -29.4610   22.5520 C   0  0  0  0  0  0  0  0  0  0  0  0
  -21.4050  -29.2810   22.4270 N   0  0  0  0  0  0  0  0  0  0  0  0
  -23.4130  -28.8330   23.3670 O   0  0  0  0  0  0  0  0  0  0  0  0
  -20.9160  -29.8390   21.7420 H   0  0  0  0  0  0  0  0  0  0  0  0
  -18.0290  -28.0880   22.9290 C   0  0  0  0  0  0  0  0  0  0  0  0
  -20.5880  -28.3460   23.2010 C   0  0  0  0  0  3  0  0  0  0  0  0
  -20.6910  -26.9130   22.6290 C   0  0  0  0  0  2  0  0  0  0  0  0
  -19.5900  -26.5880   21.6150 C   0  0  0  0  0  2  0  0  0  0  0  0
  -18.2070  -26.7360   22.2570 C   0  0  0  0  0  2  0  0  0  0  0  0
  -19.1480  -28.8500   23.3580 C   0  0  0  0  0  0  0  0  0  0  0  0
  -18.9290  -30.1150   23.9430 C   0  0  0  0  0  3  0  0  0  0  0  0
  -17.6240  -30.6170   24.1070 C   0  0  0  0  0  3  0  0  0  0  0  0
  -16.5210  -29.8510   23.6950 C   0  0  0  0  0  3  0  0  0  0  0  0
  -16.7240  -28.5880   23.1110 C   0  0  0  0  0  3  0  0  0  0  0  0
  -25.8910  -32.5040   23.8440 C   0  0  0  0  0  3  0  0  0  0  0  0
  -25.5850  -33.9000   24.1810 N   0  0  0  0  0  0  0  0  0  0  0  0
  -25.9150  -34.9540   23.4230 C   0  0  0  0  0  0  0  0  0  0  0  0
  -26.5790  -34.8540   22.3870 O   0  0  0  0  0  0  0  0  0  0  0  0
  -25.0000  -34.0530   24.9880 H   0  0  0  0  0  0  0  0  0  0  0  0
  -24.1870  -36.7490   23.0820 C   0  0  0  0  0  1  0  0  0  0  0  0
  -25.4310  -36.3410   23.8880 C   0  0  0  0  0  3  0  0  0  0  0  0
  -27.5710  -37.2190   24.7110 C   0  0  0  0  0  1  0  0  0  0  0  0
  -26.4640  -37.3930   23.7740 N   0  0  0  0  0  0  0  0  0  0  0  0
  -26.0600  -38.3140   23.9310 H   0  0  0  0  0  0  0  0  0  0  0  0
  -26.4140  -31.7270   25.1140 C   0  0  1  0  0  0  0  0  0  0  0  0
  -25.3290  -31.4880   26.1890 C   0  0  0  0  0  1  0  0  0  0  0  0
  -26.9910  -30.3500   24.7120 C   0  0  0  0  0  1  0  0  0  0  0  0
  -27.5710  -32.5160   25.7710 C   0  0  0  0  0  1  0  0  0  0  0  0
  1  6  1  0
  1 47  1  0
  2  1  1  0
  4  5  2  0
  5  3  1  0
  5  8  1  0
  6  3  2  0
  7  4  1  0
  7  6  1  0
  9 17  1  0
 10 15  1  0
 11 12  1  0
 11 10  1  0
 13 12  1  0
 13 22  1  0
 13 14  1  0
 15  9  1  0
 15 14  1  0
 16  9  2  0
 17 18  1  0
 17  8  1  0
 19 20  2  0
 20 39  1  0
 21 20  1  0
 21 24  1  0
 22 19  1  0
 22 23  1  0
 23 21  2  0
 24 25  1  0
 25 26  2  0
 27 30  1  0
 27 26  1  0
 28 27  2  0
 29 28  1  0
 29 24  2  0
 30 31  1  0
 31 32  1  0
 32 33  2  0
 34 33  1  0
 34 38  1  0
 35 34  2  0
 36 31  2  0
 36 35  1  0
 37 36  1  0
 39 40  1  0
 40 43  1  0
 40 42  1  0
 41 39  2  0
 44 45  1  0
 44 19  1  0
 46 44  1  0
 48 47  1  0
 49 48  2  0
 50 48  1  0
 51 50  1  0
 52 63  2  0
 53 51  1  0
 53 58  1  0
 54 62  1  0
 54 64  1  0
 55 61  1  0
 55 57  1  0
 56 62  1  0
 57 56  1  0
 58 57  2  0
 59 60  1  0
 59 53  2  0
 60 55  2  0
 61 54  1  0
 62 52  1  0
 64 66  2  0
 65 64  1  0
 67 65  1  0
 68 77  2  0
 68 73  1  0
 69 65  1  0
 69 73  1  0
 70 69  1  0
 71 72  1  0
 71 70  1  0
 72 68  1  0
 73 74  2  0
 74 75  1  0
 76 75  2  0
 77 76  1  0
 78 52  1  0
 78 79  1  0
 78 88  1  0
 79 82  1  0
 80 84  1  0
 80 79  1  0
 81 80  2  0
 84 83  1  0
 86 84  1  0
 86 87  1  0
 86 85  1  0
 88 91  1  1
 88 89  1  0
 90 88  1  0
M  ISO  4   9 100  17 100  50 101  51 101
M  END
>  <TORSDO>  (5) 
F 21

>  <SCORE>  (5) 
-13.497

>  <name>  (5) 
4

>  <ligand_id>  (5) 
4

>  <original_smiles>  (5) 
[H]c1oc(N([H])C([H])([H])C(=O)C([H])([H])Oc2c([H])c([H])c3c(c2[H])C([H])([H])N(C(=O)C([H])(N([H])C(=O)C([H])(N([H])C([H])([H])[H])C([H])([H])[H])C(C([H])([H])[H])(C([H])([H])[H])C([H])([H])[H])C([H])(C(=O)N([H])C2([H])c4c([H])c([H])c([H])c([H])c4C([H])([H])C([H])([H])C2([H])[H])C3([H])[H])c([H])c1C([H])([H])N([H])C(=O)N1C([H])([H])C([H])([H])C([H])([H])C([H])(n2nc(-c3c([H])c([H])c(Oc4c([H])c([H])c(F)c([H])c4F)c([H])c3[H])c(C(=O)N([H])[H])c2N([H])[H])C1([H])[H]

>  <smiles>  (5) 
[H]c1oc(N([H])C([H])([H])C(=O)C([H])([H])Oc2c([H])c([H])c3c(c2[H])C([H])([H])N(C(=O)C([H])(N([H])C(=O)C([H])(N([H])C([H])([H])[H])C([H])([H])[H])C(C([H])([H])[H])(C([H])([H])[H])C([H])([H])[H])C([H])(C(=O)N([H])C2([H])c4c([H])c([H])c([H])c([H])c4C([H])([H])C([H])([H])C2([H])[H])C3([H])[H])c([H])c1C([H])([H])N([H])C(=O)N1C([H])([H])C([H])([H])C([H])([H])C([H])(n2nc(-c3c([H])c([H])c(Oc4c([H])c([H])c(F)c([H])c4F)c([H])c3[H])c(C(=O)N([H])[H])c2N([H])[H])C1([H])[H]

$$$$
5:0:0
     RDKit          3D

 97106  0  0  1  0  0  0  0  0999 V2000
  -29.9140  -21.1180   19.3340 C   0  0  0  0  0  3  0  0  0  0  0  0
  -28.8150  -23.3210   22.0800 C   0  0  0  0  0  2  0  0  0  0  0  0
  -29.4940  -22.0400   21.6030 C   0  0  0  0  0  2  0  0  0  0  0  0
  -29.1530  -23.5580   19.7440 C   0  0  0  0  0  3  0  0  0  0  0  0
  -29.2060  -24.3970   21.0530 C   0  0  2  0  0  0  0  0  0  0  0  0
  -29.9230  -24.2070   18.5700 C   0  0  0  0  0  1  0  0  0  0  0  0
  -30.6240  -24.9160   21.3850 C   0  0  0  0  0  1  0  0  0  0  0  0
  -29.5930  -22.1770   20.1350 N   0  0  0  0  0  0  0  0  0  0  0  0
  -30.1490  -21.3330   18.0440 N   0  0  0  0  0  0  0  0  0  0  0  0
  -30.3510  -20.5520   17.4410 H   0  0  0  0  0  0  0  0  0  0  0  0
  -30.2240  -22.2690   17.6820 H   0  0  0  0  0  0  0  0  0  0  0  0
  -28.8920  -19.0780   20.4010 C   0  0  0  0  0  3  0  0  0  0  0  0
  -31.1550  -18.9410   19.5390 C   0  0  0  0  0  3  0  0  0  0  0  0
  -28.9370  -17.7060   20.7390 C   0  0  0  0  0  3  0  0  0  0  0  0
  -31.1970  -17.5670   19.8710 C   0  0  0  0  0  3  0  0  0  0  0  0
  -29.9990  -19.7140   19.7970 C   0  0  0  0  0  0  0  0  0  0  0  0
  -30.0790  -16.9200   20.4620 C   0  0  0  0  0  0  0  0  0  0  0  0
  -30.7200  -14.4970   20.2510 C   0  0  0  0  0  0  0  0  0  0  0  0
  -30.3750  -12.3470   19.1080 C   0  0  0  0  0  2  0  0  0  0  0  0
  -29.3880  -12.5710   17.9410 C   0  0  0  0  0  2  0  0  0  0  0  0
  -27.9300  -12.4280   18.4240 C   0  0  0  0  0  2  0  0  0  0  0  0
  -27.6400  -13.2520   19.7070 C   0  0  0  0  0  3  0  0  0  0  0  0
  -28.7370  -13.0180   20.7720 C   0  0  0  0  0  2  0  0  0  0  0  0
  -30.0440  -13.3190   20.1610 N   0  0  0  0  0  0  0  0  0  0  0  0
  -31.8460  -14.6500   19.7760 O   0  0  0  0  0  0  0  0  0  0  0  0
  -30.0110  -15.5200   20.7700 N   0  0  0  0  0  0  0  0  0  0  0  0
  -29.1560  -15.2220   21.2110 H   0  0  0  0  0  0  0  0  0  0  0  0
  -25.2710  -13.8540   20.5180 C   0  0  0  0  0  0  0  0  0  0  0  0
  -24.2140  -13.0780   20.9120 C   0  0  0  0  0  0  0  0  0  0  0  0
  -24.6690  -11.7260   20.8370 C   0  0  0  0  0  0  0  0  0  0  0  0
  -26.3030  -12.9740   20.2320 N   0  0  0  0  0  0  0  0  0  0  0  0
  -25.9470  -11.6880   20.4810 N   0  0  0  0  0  0  0  0  0  0  0  0
  -23.9460  -10.4620   21.0250 C   0  0  0  0  0  0  0  0  0  0  0  0
  -24.3920   -9.4880   21.9460 C   0  0  0  0  0  3  0  0  0  0  0  0
  -23.6710   -8.2870   22.1230 C   0  0  0  0  0  3  0  0  0  0  0  0
  -22.4880   -8.0530   21.3820 C   0  0  0  0  0  0  0  0  0  0  0  0
  -22.0620   -9.0150   20.4490 C   0  0  0  0  0  3  0  0  0  0  0  0
  -22.7840  -10.2070   20.2700 C   0  0  0  0  0  3  0  0  0  0  0  0
  -21.7370   -6.9060   21.4710 O   0  0  0  0  0  0  0  0  0  0  0  0
  -21.6820   -6.1700   22.6270 C   0  0  0  0  0  0  0  0  0  0  0  0
  -21.2080   -6.7190   23.8380 C   0  0  0  0  0  3  0  0  0  0  0  0
  -21.1030   -5.9060   24.9860 C   0  0  0  0  0  3  0  0  0  0  0  0
  -21.4590   -4.5450   24.9210 C   0  0  0  0  0  0  0  0  0  0  0  0
  -21.9240   -3.9960   23.7130 C   0  0  0  0  0  3  0  0  0  0  0  0
  -22.0310   -4.8060   22.5690 C   0  0  0  0  0  0  0  0  0  0  0  0
  -22.4590   -4.2650   21.4020 F   0  0  0  0  0  0  0  0  0  0  0  0
  -21.3510   -3.7630   26.0210 F   0  0  0  0  0  0  0  0  0  0  0  0
  -22.8290  -13.5520   21.2450 C   0  0  0  0  0  0  0  0  0  0  0  0
  -22.1260  -12.8340   22.1150 N   0  0  0  0  0  0  0  0  0  0  0  0
  -22.3770  -14.5930   20.7690 O   0  0  0  0  0  0  0  0  0  0  0  0
  -22.5040  -11.9920   22.5220 H   0  0  0  0  0  0  0  0  0  0  0  0
  -21.1980  -13.1320   22.3780 H   0  0  0  0  0  0  0  0  0  0  0  0
  -25.4360  -15.2270   20.3610 N   0  0  0  0  0  0  0  0  0  0  0  0
  -24.6730  -15.8800   20.4990 H   0  0  0  0  0  0  0  0  0  0  0  0
  -26.2590  -15.6620   19.9630 H   0  0  0  0  0  0  0  0  0  0  0  0
  -28.1670  -25.5560   21.1130 C   0  0  0  0  0  2  0  0  0  0  0  0
  -28.3540  -26.6660   20.2160 O   0  0  0  0  0  0  0  0  0  0  0  0
  -24.5680  -31.8690   23.2340 C   0  0  0  0  0  0  0  0  0  0  0  0
  -27.2260  -27.4530   20.1510 C   0  0  0  0  0  0  0  0  0  0  0  0
  -23.3660  -30.4750   21.5820 C   0  0  0  0  0  3  0  0  0  0  0  0
  -24.8270  -28.9490   20.1470 C   0  0  0  0  0  0  0  0  0  0  0  0
  -25.8900  -30.8460   21.3840 C   0  0  0  0  0  2  0  0  0  0  0  0
  -25.9830  -29.4780   20.7400 C   0  0  0  0  0  0  0  0  0  0  0  0
  -27.1880  -28.7380   20.7380 C   0  0  0  0  0  3  0  0  0  0  0  0
  -26.0610  -26.9460   19.5360 C   0  0  0  0  0  3  0  0  0  0  0  0
  -24.8620  -27.6830   19.5390 C   0  0  0  0  0  3  0  0  0  0  0  0
  -23.5760  -29.8020   20.1990 C   0  0  0  0  0  2  0  0  0  0  0  0
  -24.6260  -31.0780   22.1260 N   0  0  0  0  0  0  0  0  0  0  0  0
  -23.4870  -32.1360   23.7760 O   0  0  0  0  0  0  0  0  0  0  0  0
  -22.7160  -29.4470   22.5370 C   0  0  0  0  0  0  0  0  0  0  0  0
  -21.3910  -29.2680   22.4110 N   0  0  0  0  0  0  0  0  0  0  0  0
  -23.4010  -28.8160   23.3440 O   0  0  0  0  0  0  0  0  0  0  0  0
  -20.8970  -29.8270   21.7300 H   0  0  0  0  0  0  0  0  0  0  0  0
  -18.0130  -28.0930   22.9240 C   0  0  0  0  0  0  0  0  0  0  0  0
  -20.5760  -28.3260   23.1790 C   0  0  0  0  0  3  0  0  0  0  0  0
  -20.6630  -26.9020   22.5850 C   0  0  0  0  0  2  0  0  0  0  0  0
  -19.5500  -26.6030   21.5760 C   0  0  0  0  0  2  0  0  0  0  0  0
  -18.1730  -26.7520   22.2300 C   0  0  0  0  0  2  0  0  0  0  0  0
  -19.1410  -28.8400   23.3550 C   0  0  0  0  0  0  0  0  0  0  0  0
  -18.9380  -30.1000   23.9580 C   0  0  0  0  0  3  0  0  0  0  0  0
  -17.6390  -30.6110   24.1410 C   0  0  0  0  0  3  0  0  0  0  0  0
  -16.5240  -29.8610   23.7250 C   0  0  0  0  0  3  0  0  0  0  0  0
  -16.7130  -28.6050   23.1210 C   0  0  0  0  0  3  0  0  0  0  0  0
  -25.8530  -32.4990   23.8560 C   0  0  0  0  0  3  0  0  0  0  0  0
  -25.5450  -33.8990   24.1800 N   0  0  0  0  0  0  0  0  0  0  0  0
  -25.8900  -34.9470   23.4230 C   0  0  0  0  0  0  0  0  0  0  0  0
  -26.5700  -34.8400   22.3990 O   0  0  0  0  0  0  0  0  0  0  0  0
  -24.9400  -34.0550   24.9740 H   0  0  0  0  0  0  0  0  0  0  0  0
  -24.1830  -36.7500   23.0300 C   0  0  0  0  0  1  0  0  0  0  0  0
  -25.4010  -36.3370   23.8710 C   0  0  0  0  0  3  0  0  0  0  0  0
  -27.5180  -37.2090   24.7580 C   0  0  0  0  0  1  0  0  0  0  0  0
  -26.4440  -37.3820   23.7840 N   0  0  0  0  0  0  0  0  0  0  0  0
  -26.0400  -38.3050   23.9180 H   0  0  0  0  0  0  0  0  0  0  0  0
  -26.3660  -31.7270   25.1330 C   0  0  1  0  0  0  0  0  0  0  0  0
  -25.2700  -31.4890   26.1950 C   0  0  0  0  0  1  0  0  0  0  0  0
  -26.9500  -30.3510   24.7390 C   0  0  0  0  0  1  0  0  0  0  0  0
  -27.5110  -32.5230   25.8010 C   0  0  0  0  0  1  0  0  0  0  0  0
  1  9  1  0
  1 16  1  0
  1  8  1  0
  3  2  1  0
  4  6  1  0
  4  8  1  0
  4  5  1  0
  5 56  1  0
  5  7  1  1
  5  2  1  0
  8  3  1  0
 10  9  1  0
 11  9  1  0
 12 14  1  0
 13 16  1  0
 13 15  2  0
 15 17  1  0
 16 12  2  0
 17 14  2  0
 17 26  1  0
 18 26  1  0
 19 24  1  0
 20 21  1  0
 20 19  1  0
 22 21  1  0
 22 31  1  0
 22 23  1  0
 24 18  1  0
 24 23  1  0
 25 18  2  0
 26 27  1  0
 28 29  2  0
 29 48  1  0
 30 29  1  0
 30 33  1  0
 31 32  1  0
 31 28  1  0
 32 30  2  0
 33 34  1  0
 34 35  2  0
 36 39  1  0
 36 35  1  0
 37 36  2  0
 38 37  1  0
 38 33  2  0
 39 40  1  0
 40 41  1  0
 41 42  2  0
 43 42  1  0
 43 47  1  0
 44 43  2  0
 45 40  2  0
 45 44  1  0
 46 45  1  0
 48 49  1  0
 49 52  1  0
 49 51  1  0
 50 48  2  0
 53 54  1  0
 53 28  1  0
 55 53  1  0
 57 56  1  0
 58 69  2  0
 59 57  1  0
 59 64  1  0
 60 68  1  0
 60 70  1  0
 61 67  1  0
 61 63  1  0
 62 68  1  0
 63 62  1  0
 64 63  2  0
 65 66  1  0
 65 59  2  0
 66 61  2  0
 67 60  1  0
 68 58  1  0
 70 72  2  0
 71 70  1  0
 73 71  1  0
 74 83  2  0
 74 79  1  0
 75 71  1  0
 75 79  1  0
 76 75  1  0
 77 78  1  0
 77 76  1  0
 78 74  1  0
 79 80  2  0
 80 81  1  0
 82 81  2  0
 83 82  1  0
 84 58  1  0
 84 85  1  0
 84 94  1  0
 85 88  1  0
 86 90  1  0
 86 85  1  0
 87 86  2  0
 90 89  1  0
 92 90  1  0
 92 93  1  0
 92 91  1  0
 94 97  1  1
 94 95  1  0
 96 94  1  0
M  ISO  4  18 100  26 100  56 101  57 101
M  END
>  <TORSDO>  (6) 
F 18

>  <SCORE>  (6) 
-14.982

>  <name>  (6) 
5

>  <ligand_id>  (6) 
5

>  <original_smiles>  (6) 
[H]c1c([H])c([H])c2c(c1[H])C([H])([H])C([H])([H])C([H])([H])C2([H])N([H])C(=O)C1([H])N(C(=O)C([H])(N([H])C(=O)C([H])(N([H])C([H])([H])[H])C([H])([H])[H])C(C([H])([H])[H])(C([H])([H])[H])C([H])([H])[H])C([H])([H])c2c([H])c(OC([H])([H])C3(C([H])([H])[H])C([H])([H])C([H])([H])N(C(c4c([H])c([H])c(N([H])C(=O)N5C([H])([H])C([H])([H])C([H])([H])C([H])(n6nc(-c7c([H])c([H])c(Oc8c([H])c([H])c(F)c([H])c8F)c([H])c7[H])c(C(=O)N([H])[H])c6N([H])[H])C5([H])[H])c([H])c4[H])=[N+]([H])[H])C3([H])C([H])([H])[H])c([H])c([H])c2C1([H])[H]

>  <smiles>  (6) 
[H]c1c([H])c([H])c2c(c1[H])C([H])([H])C([H])([H])C([H])([H])C2([H])N([H])C(=O)C1([H])N(C(=O)C([H])(N([H])C(=O)C([H])(N([H])C([H])([H])[H])C([H])([H])[H])C(C([H])([H])[H])(C([H])([H])[H])C([H])([H])[H])C([H])([H])c2c([H])c(OC([H])([H])C3(C([H])([H])[H])C([H])([H])C([H])([H])N(C(c4c([H])c([H])c(N([H])C(=O)N5C([H])([H])C([H])([H])C([H])([H])C([H])(n6nc(-c7c([H])c([H])c(Oc8c([H])c([H])c(F)c([H])c8F)c([H])c7[H])c(C(=O)N([H])[H])c6N([H])[H])C5([H])[H])c([H])c4[H])=[N+]([H])[H])C3([H])C([H])([H])[H])c([H])c([H])c2C1([H])[H]

$$$$
6:0:0
     RDKit          3D

 98107  0  0  1  0  0  0  0  0999 V2000
  -29.1330  -23.0750   19.1280 C   0  0  0  0  0  0  0  0  0  0  0  0
  -29.7310  -20.6330   19.4000 C   0  0  0  0  0  3  0  0  0  0  0  0
  -29.5780  -23.8770   21.3260 C   0  0  0  0  0  2  0  0  0  0  0  0
  -30.0960  -22.4290   21.1790 C   0  0  0  0  0  2  0  0  0  0  0  0
  -29.3240  -24.4030   19.9010 C   0  0  1  0  0  0  0  0  0  0  0  0
  -30.5580  -25.1300   19.3260 C   0  0  0  0  0  1  0  0  0  0  0  0
  -29.6450  -21.9320   19.8610 N   0  0  0  0  0  0  0  0  0  0  0  0
  -29.2100  -20.3160   18.2120 N   0  0  0  0  0  0  0  0  0  0  0  0
  -28.6370  -23.0000   17.9970 O   0  0  0  0  0  0  0  0  0  0  0  0
  -29.3300  -19.3940   17.8240 H   0  0  0  0  0  0  0  0  0  0  0  0
  -28.7810  -21.0490   17.6600 H   0  0  0  0  0  0  0  0  0  0  0  0
  -29.8530  -18.1920   20.1200 C   0  0  0  0  0  3  0  0  0  0  0  0
  -31.7220  -19.6860   20.5990 C   0  0  0  0  0  3  0  0  0  0  0  0
  -31.8790  -17.3140   21.1530 C   0  0  0  0  0  3  0  0  0  0  0  0
  -30.4160  -19.5070   20.0930 C   0  0  0  0  0  0  0  0  0  0  0  0
  -30.5970  -17.0770   20.6070 C   0  0  0  0  0  0  0  0  0  0  0  0
  -32.4360  -18.6060   21.1460 C   0  0  0  0  0  0  0  0  0  0  0  0
  -33.6830  -18.8070   21.6360 F   0  0  0  0  0  0  0  0  0  0  0  0
  -30.7510  -14.6580   20.0550 C   0  0  0  0  0  0  0  0  0  0  0  0
  -30.3800  -12.4950   18.9290 C   0  0  0  0  0  2  0  0  0  0  0  0
  -29.3700  -12.6920   17.7770 C   0  0  0  0  0  2  0  0  0  0  0  0
  -27.9260  -12.5390   18.2930 C   0  0  0  0  0  2  0  0  0  0  0  0
  -27.6530  -13.3700   19.5760 C   0  0  0  0  0  3  0  0  0  0  0  0
  -28.7770  -13.1820   20.6210 C   0  0  0  0  0  2  0  0  0  0  0  0
  -30.0580  -13.4880   19.9670 N   0  0  0  0  0  0  0  0  0  0  0  0
  -31.8740  -14.7890   19.5630 O   0  0  0  0  0  0  0  0  0  0  0  0
  -30.0790  -15.7340   20.5340 N   0  0  0  0  0  0  0  0  0  0  0  0
  -29.1060  -15.5940   20.7550 H   0  0  0  0  0  0  0  0  0  0  0  0
  -25.3070  -13.9480   20.4580 C   0  0  0  0  0  0  0  0  0  0  0  0
  -24.2630  -13.1640   20.8660 C   0  0  0  0  0  0  0  0  0  0  0  0
  -24.7170  -11.8130   20.7610 C   0  0  0  0  0  0  0  0  0  0  0  0
  -26.3340  -13.0750   20.1330 N   0  0  0  0  0  0  0  0  0  0  0  0
  -25.9880  -11.7850   20.3740 N   0  0  0  0  0  0  0  0  0  0  0  0
  -24.0010  -10.5460   20.9530 C   0  0  0  0  0  0  0  0  0  0  0  0
  -24.4480   -9.5760   21.8770 C   0  0  0  0  0  3  0  0  0  0  0  0
  -23.7300   -8.3740   22.0580 C   0  0  0  0  0  3  0  0  0  0  0  0
  -22.5510   -8.1330   21.3140 C   0  0  0  0  0  0  0  0  0  0  0  0
  -22.1220   -9.0910   20.3790 C   0  0  0  0  0  3  0  0  0  0  0  0
  -22.8400  -10.2840   20.1960 C   0  0  0  0  0  3  0  0  0  0  0  0
  -21.8040   -6.9830   21.4030 O   0  0  0  0  0  0  0  0  0  0  0  0
  -21.7360   -6.2590   22.5660 C   0  0  0  0  0  0  0  0  0  0  0  0
  -21.2320   -6.8150   23.7630 C   0  0  0  0  0  3  0  0  0  0  0  0
  -21.1150   -6.0160   24.9160 C   0  0  0  0  0  3  0  0  0  0  0  0
  -21.4900   -4.6590   24.8750 C   0  0  0  0  0  0  0  0  0  0  0  0
  -21.9850   -4.1010   23.6830 C   0  0  0  0  0  3  0  0  0  0  0  0
  -22.1040   -4.8990   22.5330 C   0  0  0  0  0  0  0  0  0  0  0  0
  -22.5630   -4.3510   21.3800 F   0  0  0  0  0  0  0  0  0  0  0  0
  -21.3700   -3.8880   25.9810 F   0  0  0  0  0  0  0  0  0  0  0  0
  -22.8870  -13.6320   21.2420 C   0  0  0  0  0  0  0  0  0  0  0  0
  -22.2080  -12.9010   22.1190 N   0  0  0  0  0  0  0  0  0  0  0  0
  -22.4250  -14.6810   20.7940 O   0  0  0  0  0  0  0  0  0  0  0  0
  -22.5970  -12.0520   22.5030 H   0  0  0  0  0  0  0  0  0  0  0  0
  -21.2880  -13.1940   22.4140 H   0  0  0  0  0  0  0  0  0  0  0  0
  -25.4640  -15.3230   20.3150 N   0  0  0  0  0  0  0  0  0  0  0  0
  -24.7070  -15.9710   20.5000 H   0  0  0  0  0  0  0  0  0  0  0  0
  -26.2860  -15.7730   19.9340 H   0  0  0  0  0  0  0  0  0  0  0  0
  -28.0620  -25.3230   19.7710 C   0  0  0  0  0  2  0  0  0  0  0  0
  -28.2020  -26.7170   20.1550 O   0  0  0  0  0  0  0  0  0  0  0  0
  -24.4930  -31.9860   23.2720 C   0  0  0  0  0  0  0  0  0  0  0  0
  -27.0460  -27.4950   20.1410 C   0  0  0  0  0  0  0  0  0  0  0  0
  -23.2500  -30.5860   21.6610 C   0  0  0  0  0  3  0  0  0  0  0  0
  -24.6660  -29.0500   20.2010 C   0  0  0  0  0  0  0  0  0  0  0  0
  -25.7770  -30.9270   21.4100 C   0  0  0  0  0  2  0  0  0  0  0  0
  -25.8430  -29.5540   20.7660 C   0  0  0  0  0  0  0  0  0  0  0  0
  -27.0350  -28.7860   20.7320 C   0  0  0  0  0  3  0  0  0  0  0  0
  -25.8400  -27.0250   19.5630 C   0  0  0  0  0  3  0  0  0  0  0  0
  -24.6600  -27.7840   19.5970 C   0  0  0  0  0  3  0  0  0  0  0  0
  -23.4270  -29.9120   20.2760 C   0  0  0  0  0  2  0  0  0  0  0  0
  -24.5260  -31.1810   22.1720 N   0  0  0  0  0  0  0  0  0  0  0  0
  -23.4240  -32.2630   23.8330 O   0  0  0  0  0  0  0  0  0  0  0  0
  -22.6160  -29.5650   22.6340 C   0  0  0  0  0  0  0  0  0  0  0  0
  -21.2980  -29.3440   22.4990 N   0  0  0  0  0  0  0  0  0  0  0  0
  -23.3080  -28.9740   23.4670 O   0  0  0  0  0  0  0  0  0  0  0  0
  -20.7980  -29.8780   21.8010 H   0  0  0  0  0  0  0  0  0  0  0  0
  -17.9590  -28.0410   22.9660 C   0  0  0  0  0  0  0  0  0  0  0  0
  -20.4990  -28.4000   23.2790 C   0  0  0  0  0  3  0  0  0  0  0  0
  -20.6650  -26.9570   22.7470 C   0  0  0  0  0  2  0  0  0  0  0  0
  -19.5950  -26.5650   21.7220 C   0  0  0  0  0  2  0  0  0  0  0  0
  -18.1970  -26.6800   22.3340 C   0  0  0  0  0  2  0  0  0  0  0  0
  -19.0390  -28.8560   23.3950 C   0  0  0  0  0  0  0  0  0  0  0  0
  -18.7640  -30.1270   23.9430 C   0  0  0  0  0  3  0  0  0  0  0  0
  -17.4400  -30.5870   24.0650 C   0  0  0  0  0  3  0  0  0  0  0  0
  -16.3730  -29.7700   23.6530 C   0  0  0  0  0  3  0  0  0  0  0  0
  -16.6330  -28.4990   23.1110 C   0  0  0  0  0  3  0  0  0  0  0  0
  -25.7930  -32.6160   23.8630 C   0  0  0  0  0  3  0  0  0  0  0  0
  -25.4950  -34.0150   24.1980 N   0  0  0  0  0  0  0  0  0  0  0  0
  -25.8080  -35.0640   23.4270 C   0  0  0  0  0  0  0  0  0  0  0  0
  -26.4520  -34.9580   22.3790 O   0  0  0  0  0  0  0  0  0  0  0  0
  -24.9240  -34.1720   25.0150 H   0  0  0  0  0  0  0  0  0  0  0  0
  -24.0780  -36.8600   23.1030 C   0  0  0  0  0  1  0  0  0  0  0  0
  -25.3320  -36.4530   23.8940 C   0  0  0  0  0  3  0  0  0  0  0  0
  -27.4790  -37.3350   24.6930 C   0  0  0  0  0  1  0  0  0  0  0  0
  -26.3640  -37.5050   23.7640 N   0  0  0  0  0  0  0  0  0  0  0  0
  -25.9620  -38.4250   23.9190 H   0  0  0  0  0  0  0  0  0  0  0  0
  -26.3380  -31.8440   25.1260 C   0  0  1  0  0  0  0  0  0  0  0  0
  -25.2650  -31.5960   26.2120 C   0  0  0  0  0  1  0  0  0  0  0  0
  -26.9210  -30.4720   24.7160 C   0  0  0  0  0  1  0  0  0  0  0  0
  -27.4980  -32.6410   25.7690 C   0  0  0  0  0  1  0  0  0  0  0  0
  1  7  1  0
  1  5  1  0
  2  8  1  0
  2  7  1  0
  2 15  1  0
  4  3  1  0
  5  6  1  6
  5  3  1  0
  7  4  1  0
  9  1  2  0
 10  8  1  0
 11  8  1  0
 12 16  1  0
 13 17  2  0
 15 12  2  0
 15 13  1  0
 16 14  2  0
 17 14  1  0
 17 18  1  0
 19 27  1  0
 20 25  1  0
 21 22  1  0
 21 20  1  0
 23 22  1  0
 23 32  1  0
 23 24  1  0
 25 19  1  0
 25 24  1  0
 26 19  2  0
 27 16  1  0
 27 28  1  0
 29 30  2  0
 30 49  1  0
 31 30  1  0
 31 34  1  0
 32 33  1  0
 32 29  1  0
 33 31  2  0
 34 35  1  0
 35 36  2  0
 37 40  1  0
 37 36  1  0
 38 37  2  0
 39 38  1  0
 39 34  2  0
 40 41  1  0
 41 42  1  0
 42 43  2  0
 44 43  1  0
 44 48  1  0
 45 44  2  0
 46 41  2  0
 46 45  1  0
 47 46  1  0
 49 50  1  0
 50 53  1  0
 50 52  1  0
 51 49  2  0
 54 29  1  0
 54 55  1  0
 56 54  1  0
 57  5  1  0
 57 58  1  0
 59 70  2  0
 60 58  1  0
 60 65  1  0
 61 69  1  0
 61 71  1  0
 62 68  1  0
 62 64  1  0
 63 69  1  0
 64 63  1  0
 65 64  2  0
 66 67  1  0
 66 60  2  0
 67 62  2  0
 68 61  1  0
 69 59  1  0
 71 73  2  0
 72 71  1  0
 74 72  1  0
 75 84  2  0
 75 80  1  0
 76 72  1  0
 76 80  1  0
 77 76  1  0
 78 79  1  0
 78 77  1  0
 79 75  1  0
 80 81  2  0
 81 82  1  0
 83 82  2  0
 84 83  1  0
 85 59  1  0
 85 86  1  0
 85 95  1  0
 86 89  1  0
 87 91  1  0
 87 86  1  0
 88 87  2  0
 91 90  1  0
 93 91  1  0
 93 94  1  0
 93 92  1  0
 95 98  1  1
 95 96  1  0
 97 95  1  0
M  ISO  4  19 100  27 100  57 101  58 101
M  END
>  <TORSDO>  (7) 
F 18

>  <SCORE>  (7) 
-14.587

>  <name>  (7) 
6

>  <ligand_id>  (7) 
6

>  <original_smiles>  (7) 
[H]c1c([H])c([H])c2c(c1[H])C([H])([H])C([H])([H])C([H])([H])C2([H])N([H])C(=O)C1([H])N(C(=O)C([H])(N([H])C(=O)C([H])(N([H])C([H])([H])[H])C([H])([H])[H])C(C([H])([H])[H])(C([H])([H])[H])C([H])([H])[H])C([H])([H])c2c([H])c(OC([H])([H])C3(C([H])([H])[H])C(=O)N(C(c4c([H])c(F)c([H])c(N([H])C(=O)N5C([H])([H])C([H])([H])C([H])([H])C([H])(n6nc(-c7c([H])c([H])c(Oc8c([H])c([H])c(F)c([H])c8F)c([H])c7[H])c(C(=O)N([H])[H])c6N([H])[H])C5([H])[H])c4[H])=[N+]([H])[H])C([H])([H])C3([H])[H])c([H])c([H])c2C1([H])[H]

>  <smiles>  (7) 
[H]c1c([H])c([H])c2c(c1[H])C([H])([H])C([H])([H])C([H])([H])C2([H])N([H])C(=O)C1([H])N(C(=O)C([H])(N([H])C(=O)C([H])(N([H])C([H])([H])[H])C([H])([H])[H])C(C([H])([H])[H])(C([H])([H])[H])C([H])([H])[H])C([H])([H])c2c([H])c(OC([H])([H])C3(C([H])([H])[H])C(=O)N(C(c4c([H])c(F)c([H])c(N([H])C(=O)N5C([H])([H])C([H])([H])C([H])([H])C([H])(n6nc(-c7c([H])c([H])c(Oc8c([H])c([H])c(F)c([H])c8F)c([H])c7[H])c(C(=O)N([H])[H])c6N([H])[H])C5([H])[H])c4[H])=[N+]([H])[H])C([H])([H])C3([H])[H])c([H])c([H])c2C1([H])[H]

$$$$
7:0:0
     RDKit          3D

 94103  0  0  1  0  0  0  0  0999 V2000
  -29.3700  -23.1820   22.6190 C   0  0  0  0  0  1  0  0  0  0  0  0
  -31.6300  -23.5290   21.6110 C   0  0  0  0  0  1  0  0  0  0  0  0
  -30.2500  -22.8720   21.3830 C   0  0  1  0  0  0  0  0  0  0  0  0
  -31.3000  -19.3630   20.3930 C   0  0  0  0  0  3  0  0  0  0  0  0
  -31.3370  -20.7840   20.3490 C   0  0  0  0  0  3  0  0  0  0  0  0
  -30.3660  -18.8700   21.2660 C   0  0  0  0  0  0  0  0  0  0  0  0
  -30.4460  -21.3840   21.2050 C   0  0  0  0  0  0  0  0  0  0  0  0
  -29.5220  -20.1680   22.0690 S   0  0  0  0  0  0  0  0  0  0  0  0
  -30.6070  -14.3880   19.6190 C   0  0  0  0  0  0  0  0  0  0  0  0
  -30.1010  -12.3250   18.3620 C   0  0  0  0  0  2  0  0  0  0  0  0
  -28.9790  -12.5730   17.3350 C   0  0  0  0  0  2  0  0  0  0  0  0
  -27.5900  -12.4040   17.9820 C   0  0  0  0  0  2  0  0  0  0  0  0
  -27.4550  -13.1810   19.3180 C   0  0  0  0  0  3  0  0  0  0  0  0
  -28.6660  -12.9000   20.2370 C   0  0  0  0  0  2  0  0  0  0  0  0
  -29.8960  -13.2370   19.4960 N   0  0  0  0  0  0  0  0  0  0  0  0
  -31.5210  -14.7040   18.8460 O   0  0  0  0  0  0  0  0  0  0  0  0
  -31.1370  -16.6710   22.2850 C   0  0  0  0  0  2  0  0  0  0  0  0
  -30.8980  -15.2080   21.8960 C   0  0  0  0  0  2  0  0  0  0  0  0
  -29.8110  -16.5920   20.2820 C   0  0  0  0  0  2  0  0  0  0  0  0
  -30.0530  -17.4310   21.5390 C   0  0  0  0  0  3  0  0  0  0  0  0
  -30.2040  -15.2170   20.6040 N   0  0  0  0  0  0  0  0  0  0  0  0
  -25.1860  -13.7360   20.4050 C   0  0  0  0  0  0  0  0  0  0  0  0
  -24.1930  -12.9380   20.9050 C   0  0  0  0  0  0  0  0  0  0  0  0
  -24.6510  -11.5940   20.7490 C   0  0  0  0  0  0  0  0  0  0  0  0
  -26.1910  -12.8760   19.9840 N   0  0  0  0  0  0  0  0  0  0  0  0
  -25.8760  -11.5800   20.2420 N   0  0  0  0  0  0  0  0  0  0  0  0
  -23.9710  -10.3160   21.0010 C   0  0  0  0  0  0  0  0  0  0  0  0
  -24.4480   -9.4030   21.9670 C   0  0  0  0  0  3  0  0  0  0  0  0
  -23.7650   -8.1900   22.2030 C   0  0  0  0  0  3  0  0  0  0  0  0
  -22.5930   -7.8810   21.4730 C   0  0  0  0  0  0  0  0  0  0  0  0
  -22.1350   -8.7830   20.4970 C   0  0  0  0  0  3  0  0  0  0  0  0
  -22.8180   -9.9880   20.2580 C   0  0  0  0  0  3  0  0  0  0  0  0
  -21.8810   -6.7150   21.6170 O   0  0  0  0  0  0  0  0  0  0  0  0
  -21.7460   -6.1000   22.8360 C   0  0  0  0  0  0  0  0  0  0  0  0
  -21.1530   -6.7530   23.9390 C   0  0  0  0  0  3  0  0  0  0  0  0
  -20.9710   -6.0600   25.1520 C   0  0  0  0  0  3  0  0  0  0  0  0
  -21.3690   -4.7140   25.2630 C   0  0  0  0  0  0  0  0  0  0  0  0
  -21.9540   -4.0610   24.1630 C   0  0  0  0  0  3  0  0  0  0  0  0
  -22.1380   -4.7510   22.9530 C   0  0  0  0  0  0  0  0  0  0  0  0
  -22.6820   -4.1100   21.8900 F   0  0  0  0  0  0  0  0  0  0  0  0
  -21.1880   -4.0450   26.4260 F   0  0  0  0  0  0  0  0  0  0  0  0
  -22.8530  -13.3880   21.4120 C   0  0  0  0  0  0  0  0  0  0  0  0
  -22.3000  -12.6830   22.3930 N   0  0  0  0  0  0  0  0  0  0  0  0
  -22.3090  -14.4000   20.9710 O   0  0  0  0  0  0  0  0  0  0  0  0
  -22.7540  -11.8640   22.7680 H   0  0  0  0  0  0  0  0  0  0  0  0
  -21.4080  -12.9660   22.7740 H   0  0  0  0  0  0  0  0  0  0  0  0
  -25.3130  -15.1140   20.2590 N   0  0  0  0  0  0  0  0  0  0  0  0
  -24.5730  -15.7560   20.5210 H   0  0  0  0  0  0  0  0  0  0  0  0
  -26.1060  -15.5770   19.8340 H   0  0  0  0  0  0  0  0  0  0  0  0
  -29.5530  -23.4300   20.1110 C   0  0  0  0  0  2  0  0  0  0  0  0
  -30.5920  -25.5550   19.1270 C   0  0  0  0  0  1  0  0  0  0  0  0
  -29.4570  -24.9720   19.9940 C   0  0  0  0  0  3  0  0  0  0  0  0
  -28.0780  -25.4210   19.4860 C   0  0  0  0  0  2  0  0  0  0  0  0
  -28.0770  -26.8360   19.5630 O   0  0  0  0  0  0  0  0  0  0  0  0
  -24.4940  -31.7040   23.2230 C   0  0  0  0  0  0  0  0  0  0  0  0
  -26.8790  -27.4910   19.6900 C   0  0  0  0  0  0  0  0  0  0  0  0
  -23.1620  -30.4280   21.5720 C   0  0  0  0  0  3  0  0  0  0  0  0
  -24.4980  -28.9750   19.9610 C   0  0  0  0  0  0  0  0  0  0  0  0
  -25.6660  -30.7910   21.2250 C   0  0  0  0  0  2  0  0  0  0  0  0
  -25.6920  -29.4640   20.4990 C   0  0  0  0  0  0  0  0  0  0  0  0
  -26.8860  -28.7290   20.3610 C   0  0  0  0  0  3  0  0  0  0  0  0
  -25.6660  -26.9970   19.1560 C   0  0  0  0  0  3  0  0  0  0  0  0
  -24.4750  -27.7380   19.2900 C   0  0  0  0  0  3  0  0  0  0  0  0
  -23.2700  -29.8360   20.1400 C   0  0  0  0  0  2  0  0  0  0  0  0
  -24.4630  -30.9820   22.0650 N   0  0  0  0  0  0  0  0  0  0  0  0
  -23.4560  -31.9480   23.8510 O   0  0  0  0  0  0  0  0  0  0  0  0
  -22.5640  -29.3500   22.5050 C   0  0  0  0  0  0  0  0  0  0  0  0
  -21.2560  -29.0850   22.3480 N   0  0  0  0  0  0  0  0  0  0  0  0
  -23.2730  -28.7550   23.3190 O   0  0  0  0  0  0  0  0  0  0  0  0
  -20.7440  -29.6220   21.6630 H   0  0  0  0  0  0  0  0  0  0  0  0
  -17.9890  -27.5800   22.6580 C   0  0  0  0  0  0  0  0  0  0  0  0
  -20.4880  -28.0830   23.0860 C   0  0  0  0  0  3  0  0  0  0  0  0
  -20.7650  -26.6610   22.5460 C   0  0  0  0  0  2  0  0  0  0  0  0
  -19.7670  -26.2210   21.4710 C   0  0  0  0  0  2  0  0  0  0  0  0
  -18.3370  -26.2430   22.0220 C   0  0  0  0  0  2  0  0  0  0  0  0
  -19.0010  -28.4500   23.1410 C   0  0  0  0  0  0  0  0  0  0  0  0
  -18.6260  -29.6980   23.6860 C   0  0  0  0  0  3  0  0  0  0  0  0
  -17.2730  -30.0760   23.7560 C   0  0  0  0  0  3  0  0  0  0  0  0
  -16.2750  -29.2050   23.2890 C   0  0  0  0  0  3  0  0  0  0  0  0
  -16.6340  -27.9570   22.7460 C   0  0  0  0  0  3  0  0  0  0  0  0
  -25.8280  -32.2780   23.7950 C   0  0  0  0  0  3  0  0  0  0  0  0
  -26.3500  -31.4920   25.0590 C   0  0  1  0  0  0  0  0  0  0  0  0
  -25.2700  -31.2820   26.1440 C   0  0  0  0  0  1  0  0  0  0  0  0
  -26.8930  -30.1030   24.6500 C   0  0  0  0  0  1  0  0  0  0  0  0
  -27.5320  -32.2560   25.7000 C   0  0  0  0  0  1  0  0  0  0  0  0
  -25.5980  -33.6920   24.1190 N   0  0  0  0  0  0  0  0  0  0  0  0
  -25.9620  -34.7180   23.3390 C   0  0  0  0  0  0  0  0  0  0  0  0
  -26.5980  -34.5720   22.2920 O   0  0  0  0  0  0  0  0  0  0  0  0
  -25.0370  -33.8840   24.9360 H   0  0  0  0  0  0  0  0  0  0  0  0
  -24.3110  -36.5830   23.0050 C   0  0  0  0  0  1  0  0  0  0  0  0
  -25.5530  -36.1320   23.7920 C   0  0  0  0  0  3  0  0  0  0  0  0
  -27.7410  -36.9270   24.5680 C   0  0  0  0  0  1  0  0  0  0  0  0
  -26.6310  -37.1330   23.6420 N   0  0  0  0  0  0  0  0  0  0  0  0
  -26.2720  -38.0730   23.7830 H   0  0  0  0  0  0  0  0  0  0  0  0
  3  2  1  1
  3  1  1  0
  4  6  2  0
  5  4  1  0
  5  7  2  0
  6  8  1  0
  7  3  1  0
  7  8  1  0
  9 21  1  0
 10 15  1  0
 11 12  1  0
 11 10  1  0
 13 12  1  0
 13 25  1  0
 13 14  1  0
 15  9  1  0
 15 14  1  0
 16  9  2  0
 18 17  1  0
 19 21  1  0
 19 20  1  0
 20  6  1  0
 20 17  1  0
 21 18  1  0
 22 23  2  0
 23 42  1  0
 24 23  1  0
 24 27  1  0
 25 26  1  0
 25 22  1  0
 26 24  2  0
 27 28  1  0
 28 29  2  0
 30 33  1  0
 30 29  1  0
 31 30  2  0
 32 31  1  0
 32 27  2  0
 33 34  1  0
 34 39  2  0
 34 35  1  0
 35 36  2  0
 36 37  1  0
 37 41  1  0
 38 37  2  0
 39 38  1  0
 40 39  1  0
 42 43  1  0
 43 45  1  0
 43 46  1  0
 44 42  2  0
 47 22  1  0
 47 48  1  0
 49 47  1  0
 50  3  1  0
 52 51  1  0
 52 50  1  0
 53 54  1  0
 53 52  1  0
 54 56  1  0
 55 66  2  0
 56 61  1  0
 57 65  1  0
 57 67  1  0
 58 64  1  0
 58 60  1  0
 59 65  1  0
 60 59  1  0
 61 60  2  0
 62 63  1  0
 62 56  2  0
 63 58  2  0
 64 57  1  0
 65 55  1  0
 67 69  2  0
 68 67  1  0
 70 68  1  0
 71 80  2  0
 71 76  1  0
 72 68  1  0
 72 76  1  0
 73 72  1  0
 74 75  1  0
 74 73  1  0
 75 71  1  0
 76 77  2  0
 77 78  1  0
 79 78  2  0
 80 79  1  0
 81 55  1  0
 81 86  1  0
 81 82  1  0
 82 85  1  1
 82 83  1  0
 84 82  1  0
 86 89  1  0
 87 91  1  0
 87 86  1  0
 88 87  2  0
 91 90  1  0
 93 94  1  0
 93 91  1  0
 93 92  1  0
M  ISO  4   9 100  21 100  53 101  54 101
M  END
>  <TORSDO>  (8) 
F 20

>  <SCORE>  (8) 
-10.504

>  <name>  (8) 
7

>  <ligand_id>  (8) 
7

>  <original_smiles>  (8) 
[H]c1c(C2([H])C([H])([H])N(C(=O)N3C([H])([H])C([H])([H])C([H])([H])C([H])(n4nc(-c5c([H])c([H])c(Oc6c([H])c([H])c(F)c([H])c6F)c([H])c5[H])c(C(=O)N([H])[H])c4N([H])[H])C3([H])[H])C([H])([H])C2([H])[H])sc(C(C([H])([H])[H])(C([H])([H])[H])C([H])([H])C([H])(C([H])([H])[H])C([H])([H])Oc2c([H])c([H])c3c(c2[H])C([H])([H])N(C(=O)C([H])(N([H])C(=O)C([H])(N([H])C([H])([H])[H])C([H])([H])[H])C(C([H])([H])[H])(C([H])([H])[H])C([H])([H])[H])C([H])(C(=O)N([H])C2([H])c4c([H])c([H])c([H])c([H])c4C([H])([H])C([H])([H])C2([H])[H])C3([H])[H])c1[H]

>  <smiles>  (8) 
[H]c1c(C2([H])C([H])([H])N(C(=O)N3C([H])([H])C([H])([H])C([H])([H])C([H])(n4nc(-c5c([H])c([H])c(Oc6c([H])c([H])c(F)c([H])c6F)c([H])c5[H])c(C(=O)N([H])[H])c4N([H])[H])C3([H])[H])C([H])([H])C2([H])[H])sc(C(C([H])([H])[H])(C([H])([H])[H])C([H])([H])C([H])(C([H])([H])[H])C([H])([H])Oc2c([H])c([H])c3c(c2[H])C([H])([H])N(C(=O)C([H])(N([H])C(=O)C([H])(N([H])C([H])([H])[H])C([H])([H])[H])C(C([H])([H])[H])(C([H])([H])[H])C([H])([H])[H])C([H])(C(=O)N([H])C2([H])c4c([H])c([H])c([H])c([H])c4C([H])([H])C([H])([H])C2([H])[H])C3([H])[H])c1[H]

$$$$
8:0:0
     RDKit          3D

 93102  0  0  1  0  0  0  0  0999 V2000
  -28.9530  -22.7090   20.4480 C   0  0  0  0  0  0  0  0  0  0  0  0
  -29.1570  -21.6650   19.6000 N   0  0  0  0  0  0  0  0  0  0  0  0
  -28.8660  -22.5680   21.6690 O   0  0  0  0  0  0  0  0  0  0  0  0
  -29.1690  -21.9270   18.6230 H   0  0  0  0  0  0  0  0  0  0  0  0
  -30.6440  -14.5870   19.6630 C   0  0  0  0  0  0  0  0  0  0  0  0
  -30.2070  -12.4500   18.4970 C   0  0  0  0  0  2  0  0  0  0  0  0
  -29.1410  -12.6910   17.4080 C   0  0  0  0  0  2  0  0  0  0  0  0
  -27.7220  -12.5400   17.9930 C   0  0  0  0  0  2  0  0  0  0  0  0
  -27.5300  -13.3280   19.3160 C   0  0  0  0  0  3  0  0  0  0  0  0
  -28.7040  -13.0880   20.2900 C   0  0  0  0  0  2  0  0  0  0  0  0
  -29.9470  -13.4150   19.5800 N   0  0  0  0  0  0  0  0  0  0  0  0
  -31.7730  -14.6970   19.1710 O   0  0  0  0  0  0  0  0  0  0  0  0
  -29.2680  -19.3290   18.8660 C   0  0  0  0  0  3  0  0  0  0  0  0
  -29.5250  -18.0080   19.3640 C   0  0  0  0  0  0  0  0  0  0  0  0
  -29.8070  -17.9680   20.6670 C   0  0  0  0  0  0  0  0  0  0  0  0
  -29.3460  -20.3200   19.8370 C   0  0  0  0  0  0  0  0  0  0  0  0
  -29.5700  -16.6150   18.8180 C   0  0  0  0  0  2  0  0  0  0  0  0
  -30.0910  -16.5890   21.1810 C   0  0  1  0  0  0  0  0  0  0  0  0
  -31.5120  -16.5250   21.7810 C   0  0  0  0  0  1  0  0  0  0  0  0
  -29.0620  -16.1960   22.2560 C   0  0  0  0  0  1  0  0  0  0  0  0
  -29.9190  -15.7130   19.9620 N   0  0  0  0  0  0  0  0  0  0  0  0
  -29.7580  -19.5620   21.3940 S   0  0  0  0  0  0  0  0  0  0  0  0
  -25.2560  -13.9240   20.3530 C   0  0  0  0  0  0  0  0  0  0  0  0
  -24.2170  -13.1480   20.7870 C   0  0  0  0  0  0  0  0  0  0  0  0
  -24.6340  -11.7930   20.6070 C   0  0  0  0  0  0  0  0  0  0  0  0
  -26.2410  -13.0420   19.9360 N   0  0  0  0  0  0  0  0  0  0  0  0
  -25.8780  -11.7510   20.1470 N   0  0  0  0  0  0  0  0  0  0  0  0
  -23.9000  -10.5340   20.7910 C   0  0  0  0  0  0  0  0  0  0  0  0
  -24.4090   -9.4940   21.5990 C   0  0  0  0  0  3  0  0  0  0  0  0
  -23.6760   -8.3000   21.7750 C   0  0  0  0  0  3  0  0  0  0  0  0
  -22.4190   -8.1400   21.1440 C   0  0  0  0  0  0  0  0  0  0  0  0
  -21.9270   -9.1700   20.3230 C   0  0  0  0  0  3  0  0  0  0  0  0
  -22.6610  -10.3550   20.1440 C   0  0  0  0  0  3  0  0  0  0  0  0
  -21.6480   -7.0060   21.2380 O   0  0  0  0  0  0  0  0  0  0  0  0
  -21.7090   -6.1830   22.3340 C   0  0  0  0  0  0  0  0  0  0  0  0
  -21.4620   -6.6620   23.6390 C   0  0  0  0  0  3  0  0  0  0  0  0
  -21.4650   -5.7680   24.7280 C   0  0  0  0  0  3  0  0  0  0  0  0
  -21.7050   -4.3980   24.5160 C   0  0  0  0  0  0  0  0  0  0  0  0
  -21.9470   -3.9190   23.2160 C   0  0  0  0  0  3  0  0  0  0  0  0
  -21.9450   -4.8090   22.1280 C   0  0  0  0  0  0  0  0  0  0  0  0
  -22.1570   -4.3390   20.8750 F   0  0  0  0  0  0  0  0  0  0  0  0
  -21.7010   -3.5380   25.5610 F   0  0  0  0  0  0  0  0  0  0  0  0
  -22.8730  -13.6300   21.2540 C   0  0  0  0  0  0  0  0  0  0  0  0
  -22.2380  -12.8940   22.1610 N   0  0  0  0  0  0  0  0  0  0  0  0
  -22.4010  -14.6920   20.8520 O   0  0  0  0  0  0  0  0  0  0  0  0
  -22.6360  -12.0340   22.5060 H   0  0  0  0  0  0  0  0  0  0  0  0
  -21.3420  -13.1960   22.5140 H   0  0  0  0  0  0  0  0  0  0  0  0
  -25.4390  -15.3010   20.2580 N   0  0  0  0  0  0  0  0  0  0  0  0
  -24.7160  -15.9620   20.5160 H   0  0  0  0  0  0  0  0  0  0  0  0
  -26.2750  -15.7470   19.9050 H   0  0  0  0  0  0  0  0  0  0  0  0
  -28.8220  -24.1380   19.8250 C   0  0  0  0  0  3  0  0  0  0  0  0
  -28.3130  -25.2730   20.7830 C   0  0  0  0  0  3  0  0  0  0  0  0
  -28.4510  -26.6410   20.2950 O   0  0  0  0  0  0  0  0  0  0  0  0
  -24.5940  -31.9060   23.2590 C   0  0  0  0  0  0  0  0  0  0  0  0
  -27.2990  -27.4130   20.2710 C   0  0  0  0  0  0  0  0  0  0  0  0
  -23.4220  -30.4850   21.6100 C   0  0  0  0  0  3  0  0  0  0  0  0
  -24.9070  -28.9390   20.2190 C   0  0  0  0  0  0  0  0  0  0  0  0
  -25.9520  -30.8460   21.4510 C   0  0  0  0  0  2  0  0  0  0  0  0
  -26.0560  -29.4670   20.8210 C   0  0  0  0  0  0  0  0  0  0  0  0
  -27.2590  -28.7150   20.8350 C   0  0  0  0  0  3  0  0  0  0  0  0
  -26.1330  -26.9110   19.6580 C   0  0  0  0  0  3  0  0  0  0  0  0
  -24.9430  -27.6620   19.6300 C   0  0  0  0  0  3  0  0  0  0  0  0
  -23.6580  -29.7950   20.2390 C   0  0  0  0  0  2  0  0  0  0  0  0
  -24.6740  -31.0950   22.1650 N   0  0  0  0  0  0  0  0  0  0  0  0
  -23.5020  -32.1770   23.7790 O   0  0  0  0  0  0  0  0  0  0  0  0
  -22.7580  -29.4700   22.5690 C   0  0  0  0  0  0  0  0  0  0  0  0
  -21.4390  -29.2700   22.4120 N   0  0  0  0  0  0  0  0  0  0  0  0
  -23.4280  -28.8640   23.4090 O   0  0  0  0  0  0  0  0  0  0  0  0
  -20.9590  -29.8100   21.7060 H   0  0  0  0  0  0  0  0  0  0  0  0
  -18.0750  -28.0120   22.8200 C   0  0  0  0  0  0  0  0  0  0  0  0
  -20.6150  -28.3310   23.1750 C   0  0  0  0  0  3  0  0  0  0  0  0
  -20.7680  -26.8910   22.6340 C   0  0  0  0  0  2  0  0  0  0  0  0
  -19.7100  -26.5220   21.5900 C   0  0  0  0  0  2  0  0  0  0  0  0
  -18.3030  -26.6530   22.1810 C   0  0  0  0  0  2  0  0  0  0  0  0
  -19.1610  -28.8070   23.2710 C   0  0  0  0  0  0  0  0  0  0  0  0
  -18.8950  -30.0780   23.8250 C   0  0  0  0  0  3  0  0  0  0  0  0
  -17.5760  -30.5550   23.9350 C   0  0  0  0  0  3  0  0  0  0  0  0
  -16.5030  -29.7570   23.5000 C   0  0  0  0  0  3  0  0  0  0  0  0
  -16.7530  -28.4880   22.9480 C   0  0  0  0  0  3  0  0  0  0  0  0
  -25.8660  -32.5490   23.8950 C   0  0  0  0  0  3  0  0  0  0  0  0
  -25.5480  -33.9510   24.1990 N   0  0  0  0  0  0  0  0  0  0  0  0
  -25.8910  -34.9920   23.4300 C   0  0  0  0  0  0  0  0  0  0  0  0
  -26.5780  -34.8760   22.4120 O   0  0  0  0  0  0  0  0  0  0  0  0
  -24.9430  -34.1170   24.9900 H   0  0  0  0  0  0  0  0  0  0  0  0
  -24.1630  -36.7730   23.0210 C   0  0  0  0  0  1  0  0  0  0  0  0
  -25.3930  -36.3870   23.8590 C   0  0  0  0  0  3  0  0  0  0  0  0
  -27.5150  -37.2870   24.7020 C   0  0  0  0  0  1  0  0  0  0  0  0
  -26.4230  -37.4410   23.7440 N   0  0  0  0  0  0  0  0  0  0  0  0
  -26.0130  -38.3620   23.8750 H   0  0  0  0  0  0  0  0  0  0  0  0
  -26.3610  -31.7960   25.1900 C   0  0  1  0  0  0  0  0  0  0  0  0
  -25.2500  -31.5690   26.2410 C   0  0  0  0  0  1  0  0  0  0  0  0
  -26.9570  -30.4160   24.8250 C   0  0  0  0  0  1  0  0  0  0  0  0
  -27.4970  -32.6030   25.8630 C   0  0  0  0  0  1  0  0  0  0  0  0
  1  3  2  0
  2 16  1  0
  2  1  1  0
  4  2  1  0
  5 21  1  0
  6 11  1  0
  7  8  1  0
  7  6  1  0
  9  8  1  0
  9 26  1  0
  9 10  1  0
 11  5  1  0
 11 10  1  0
 12  5  2  0
 13 14  1  0
 13 16  2  0
 14 15  2  0
 15 18  1  0
 15 22  1  0
 16 22  1  0
 17 14  1  0
 17 21  1  0
 18 19  1  1
 18 20  1  0
 21 18  1  0
 23 24  2  0
 24 43  1  0
 25 24  1  0
 25 28  1  0
 26 27  1  0
 26 23  1  0
 27 25  2  0
 28 29  1  0
 29 30  2  0
 31 34  1  0
 31 30  1  0
 32 31  2  0
 33 32  1  0
 33 28  2  0
 34 35  1  0
 35 36  1  0
 36 37  2  0
 38 37  1  0
 38 42  1  0
 39 38  2  0
 40 35  2  0
 40 39  1  0
 41 40  1  0
 43 44  1  0
 44 46  1  0
 44 47  1  0
 45 43  2  0
 48 23  1  0
 48 49  1  0
 50 48  1  0
 51  1  1  0
 51 52  2  0
 53 52  1  0
 54 65  2  0
 55 53  1  0
 55 60  1  0
 56 64  1  0
 56 66  1  0
 57 63  1  0
 57 59  1  0
 58 64  1  0
 59 60  2  0
 59 58  1  0
 61 55  2  0
 62 61  1  0
 62 57  2  0
 63 56  1  0
 64 54  1  0
 66 68  2  0
 67 66  1  0
 69 67  1  0
 70 79  2  0
 70 75  1  0
 71 67  1  0
 71 75  1  0
 72 71  1  0
 73 74  1  0
 73 72  1  0
 74 70  1  0
 75 76  2  0
 76 77  1  0
 78 77  2  0
 79 78  1  0
 80 54  1  0
 80 81  1  0
 80 90  1  0
 81 84  1  0
 82 86  1  0
 82 81  1  0
 83 82  2  0
 86 85  1  0
 88 86  1  0
 88 89  1  0
 88 87  1  0
 90 93  1  1
 90 91  1  0
 92 90  1  0
M  ISO  4   5 100  21 100  52 101  53 101
M  END
>  <TORSDO>  (9) 
F 18

>  <SCORE>  (9) 
-11.516

>  <name>  (9) 
8

>  <ligand_id>  (9) 
8

>  <original_smiles>  (9) 
[H]c1c([H])c([H])c2c(c1[H])C([H])([H])C([H])([H])C([H])([H])C2([H])N([H])C(=O)C1([H])N(C(=O)C([H])(N([H])C(=O)C([H])(N([H])C([H])([H])[H])C([H])([H])[H])C(C([H])([H])[H])(C([H])([H])[H])C([H])([H])[H])C([H])([H])c2c([H])c(OC([H])([H])C([H])([H])C(=O)N([H])c3sc4c(c3[H])C([H])([H])N(C(=O)N3C([H])([H])C([H])([H])C([H])([H])C([H])(n5nc(-c6c([H])c([H])c(Oc7c([H])c([H])c(F)c([H])c7F)c([H])c6[H])c(C(=O)N([H])[H])c5N([H])[H])C3([H])[H])C4(C([H])([H])[H])C([H])([H])[H])c([H])c([H])c2C1([H])[H]

>  <smiles>  (9) 
[H]c1c([H])c([H])c2c(c1[H])C([H])([H])C([H])([H])C([H])([H])C2([H])N([H])C(=O)C1([H])N(C(=O)C([H])(N([H])C(=O)C([H])(N([H])C([H])([H])[H])C([H])([H])[H])C(C([H])([H])[H])(C([H])([H])[H])C([H])([H])[H])C([H])([H])c2c([H])c(OC([H])([H])C([H])([H])C(=O)N([H])c3sc4c(c3[H])C([H])([H])N(C(=O)N3C([H])([H])C([H])([H])C([H])([H])C([H])(n5nc(-c6c([H])c([H])c(Oc7c([H])c([H])c(F)c([H])c7F)c([H])c6[H])c(C(=O)N([H])[H])c5N([H])[H])C3([H])[H])C4(C([H])([H])[H])C([H])([H])[H])c([H])c([H])c2C1([H])[H]

$$$$
9:0:0
     RDKit          3D

 97106  0  0  1  0  0  0  0  0999 V2000
  -30.0280  -20.7280   20.5730 C   0  0  0  0  0  3  0  0  0  0  0  0
  -27.4540  -23.1310   19.3860 C   0  0  0  0  0  2  0  0  0  0  0  0
  -28.1490  -21.7510   19.2670 C   0  0  0  0  0  2  0  0  0  0  0  0
  -29.7240  -23.2720   20.1280 C   0  0  0  0  0  3  0  0  0  0  0  0
  -28.3960  -24.0820   20.1850 C   0  0  2  0  0  0  0  0  0  0  0  0
  -30.8520  -23.7210   21.0790 C   0  0  0  0  0  1  0  0  0  0  0  0
  -27.8680  -24.1750   21.6370 C   0  0  0  0  0  1  0  0  0  0  0  0
  -29.3450  -21.8300   20.1240 N   0  0  0  0  0  0  0  0  0  0  0  0
  -30.8730  -20.8520   21.5920 N   0  0  0  0  0  0  0  0  0  0  0  0
  -31.4410  -20.0650   21.8650 H   0  0  0  0  0  0  0  0  0  0  0  0
  -30.9600  -21.7150   22.0990 H   0  0  0  0  0  0  0  0  0  0  0  0
  -30.3340  -18.1290   17.8650 C   0  0  0  0  0  3  0  0  0  0  0  0
  -30.1800  -19.3580   18.5280 C   0  0  0  0  0  3  0  0  0  0  0  0
  -30.2590  -16.9200   18.5830 C   0  0  0  0  0  3  0  0  0  0  0  0
  -29.8480  -18.1710   20.6420 C   0  0  0  0  0  3  0  0  0  0  0  0
  -29.9570  -19.4000   19.9210 C   0  0  0  0  0  0  0  0  0  0  0  0
  -30.0160  -16.9170   19.9810 C   0  0  0  0  0  0  0  0  0  0  0  0
  -30.6540  -14.5600   20.4420 C   0  0  0  0  0  0  0  0  0  0  0  0
  -30.3900  -12.3620   19.3820 C   0  0  0  0  0  2  0  0  0  0  0  0
  -29.4660  -12.5390   18.1590 C   0  0  0  0  0  2  0  0  0  0  0  0
  -27.9830  -12.4170   18.5650 C   0  0  0  0  0  2  0  0  0  0  0  0
  -27.6220  -13.2750   19.8030 C   0  0  0  0  0  3  0  0  0  0  0  0
  -28.6620  -13.0880   20.9340 C   0  0  0  0  0  2  0  0  0  0  0  0
  -29.9930  -13.3720   20.3790 N   0  0  0  0  0  0  0  0  0  0  0  0
  -31.8350  -14.6800   20.1010 O   0  0  0  0  0  0  0  0  0  0  0  0
  -29.8960  -15.6590   20.6790 N   0  0  0  0  0  0  0  0  0  0  0  0
  -29.0030  -15.4850   21.1110 H   0  0  0  0  0  0  0  0  0  0  0  0
  -25.2140  -13.9000   20.4600 C   0  0  0  0  0  0  0  0  0  0  0  0
  -24.1330  -13.1390   20.8200 C   0  0  0  0  0  0  0  0  0  0  0  0
  -24.5880  -11.7840   20.8200 C   0  0  0  0  0  0  0  0  0  0  0  0
  -26.2560  -13.0130   20.2610 N   0  0  0  0  0  0  0  0  0  0  0  0
  -25.8840  -11.7350   20.5380 N   0  0  0  0  0  0  0  0  0  0  0  0
  -23.8520  -10.5250   21.0150 C   0  0  0  0  0  0  0  0  0  0  0  0
  -24.2680   -9.5650   21.9650 C   0  0  0  0  0  3  0  0  0  0  0  0
  -23.5370   -8.3710   22.1470 C   0  0  0  0  0  3  0  0  0  0  0  0
  -22.3740   -8.1270   21.3790 C   0  0  0  0  0  0  0  0  0  0  0  0
  -21.9740   -9.0780   20.4230 C   0  0  0  0  0  3  0  0  0  0  0  0
  -22.7050  -10.2620   20.2400 C   0  0  0  0  0  3  0  0  0  0  0  0
  -21.6150   -6.9860   21.4680 O   0  0  0  0  0  0  0  0  0  0  0  0
  -21.5610   -6.2470   22.6240 C   0  0  0  0  0  0  0  0  0  0  0  0
  -21.1420   -6.8120   23.8470 C   0  0  0  0  0  3  0  0  0  0  0  0
  -21.0340   -6.0020   24.9950 C   0  0  0  0  0  3  0  0  0  0  0  0
  -21.3340   -4.6290   24.9200 C   0  0  0  0  0  0  0  0  0  0  0  0
  -21.7460   -4.0640   23.7000 C   0  0  0  0  0  3  0  0  0  0  0  0
  -21.8580   -4.8720   22.5540 C   0  0  0  0  0  0  0  0  0  0  0  0
  -22.2370   -4.3200   21.3760 F   0  0  0  0  0  0  0  0  0  0  0  0
  -21.2210   -3.8500   26.0200 F   0  0  0  0  0  0  0  0  0  0  0  0
  -22.7300  -13.6260   21.0450 C   0  0  0  0  0  0  0  0  0  0  0  0
  -21.9710  -12.9560   21.9030 N   0  0  0  0  0  0  0  0  0  0  0  0
  -22.3120  -14.6430   20.4910 O   0  0  0  0  0  0  0  0  0  0  0  0
  -22.3150  -12.1400   22.3870 H   0  0  0  0  0  0  0  0  0  0  0  0
  -21.0270  -13.2710   22.0810 H   0  0  0  0  0  0  0  0  0  0  0  0
  -25.3940  -15.2650   20.2550 N   0  0  0  0  0  0  0  0  0  0  0  0
  -24.6220  -15.9230   20.3130 H   0  0  0  0  0  0  0  0  0  0  0  0
  -26.2360  -15.6770   19.8730 H   0  0  0  0  0  0  0  0  0  0  0  0
  -28.5560  -25.4930   19.4830 C   0  0  0  0  0  2  0  0  0  0  0  0
  -28.3820  -26.6980   20.2530 O   0  0  0  0  0  0  0  0  0  0  0  0
  -24.5830  -31.9000   23.2500 C   0  0  0  0  0  0  0  0  0  0  0  0
  -27.2020  -27.4240   20.1890 C   0  0  0  0  0  0  0  0  0  0  0  0
  -23.3690  -30.4970   21.6160 C   0  0  0  0  0  3  0  0  0  0  0  0
  -24.8120  -28.9610   20.1790 C   0  0  0  0  0  0  0  0  0  0  0  0
  -25.8930  -30.8530   21.4020 C   0  0  0  0  0  2  0  0  0  0  0  0
  -25.9710  -29.4760   20.7710 C   0  0  0  0  0  0  0  0  0  0  0  0
  -27.1620  -28.7140   20.7730 C   0  0  0  0  0  3  0  0  0  0  0  0
  -26.0200  -26.9250   19.5930 C   0  0  0  0  0  3  0  0  0  0  0  0
  -24.8340  -27.6880   19.5820 C   0  0  0  0  0  3  0  0  0  0  0  0
  -23.5670  -29.8190   20.2320 C   0  0  0  0  0  2  0  0  0  0  0  0
  -24.6330  -31.0990   22.1470 N   0  0  0  0  0  0  0  0  0  0  0  0
  -23.5040  -32.1740   23.7960 O   0  0  0  0  0  0  0  0  0  0  0  0
  -22.7230  -29.4750   22.5800 C   0  0  0  0  0  0  0  0  0  0  0  0
  -21.4010  -29.2900   22.4570 N   0  0  0  0  0  0  0  0  0  0  0  0
  -23.4110  -28.8550   23.3950 O   0  0  0  0  0  0  0  0  0  0  0  0
  -20.9070  -29.8370   21.7680 H   0  0  0  0  0  0  0  0  0  0  0  0
  -18.0300  -28.0850   22.9560 C   0  0  0  0  0  0  0  0  0  0  0  0
  -20.5860  -28.3520   23.2320 C   0  0  0  0  0  3  0  0  0  0  0  0
  -20.6940  -26.9200   22.6620 C   0  0  0  0  0  2  0  0  0  0  0  0
  -19.5940  -26.5900   21.6460 C   0  0  0  0  0  2  0  0  0  0  0  0
  -18.2100  -26.7320   22.2870 C   0  0  0  0  0  2  0  0  0  0  0  0
  -19.1450  -28.8510   23.3840 C   0  0  0  0  0  0  0  0  0  0  0  0
  -18.9220  -30.1160   23.9690 C   0  0  0  0  0  3  0  0  0  0  0  0
  -17.6150  -30.6130   24.1330 C   0  0  0  0  0  3  0  0  0  0  0  0
  -16.5140  -29.8410   23.7240 C   0  0  0  0  0  3  0  0  0  0  0  0
  -16.7220  -28.5810   23.1380 C   0  0  0  0  0  3  0  0  0  0  0  0
  -25.8700  -32.5310   23.8630 C   0  0  0  0  0  3  0  0  0  0  0  0
  -25.5650  -33.9300   24.1910 N   0  0  0  0  0  0  0  0  0  0  0  0
  -25.9000  -34.9800   23.4290 C   0  0  0  0  0  0  0  0  0  0  0  0
  -26.5730  -34.8710   22.4000 O   0  0  0  0  0  0  0  0  0  0  0  0
  -24.9710  -34.0850   24.9910 H   0  0  0  0  0  0  0  0  0  0  0  0
  -24.1810  -36.7750   23.0610 C   0  0  0  0  0  1  0  0  0  0  0  0
  -25.4150  -36.3720   23.8810 C   0  0  0  0  0  3  0  0  0  0  0  0
  -27.5490  -37.2480   24.7210 C   0  0  0  0  0  1  0  0  0  0  0  0
  -26.4510  -37.4230   23.7730 N   0  0  0  0  0  0  0  0  0  0  0  0
  -26.0480  -38.3450   23.9190 H   0  0  0  0  0  0  0  0  0  0  0  0
  -26.3920  -31.7630   25.1390 C   0  0  1  0  0  0  0  0  0  0  0  0
  -25.3050  -31.5300   26.2140 C   0  0  0  0  0  1  0  0  0  0  0  0
  -26.9710  -30.3840   24.7420 C   0  0  0  0  0  1  0  0  0  0  0  0
  -27.5530  -32.5550   25.7880 C   0  0  0  0  0  1  0  0  0  0  0  0
  1  9  1  0
  2  5  1  0
  3  2  1  0
  3  8  1  0
  4  5  1  0
  4  6  1  0
  5  7  1  1
  8  4  1  0
  8  1  1  0
  9 10  1  0
  9 11  1  0
 12 13  2  0
 12 14  1  0
 13 16  1  0
 14 17  2  0
 16  1  1  0
 16 15  2  0
 17 15  1  0
 17 26  1  0
 18 26  1  0
 19 24  1  0
 20 21  1  0
 20 19  1  0
 22 21  1  0
 22 31  1  0
 22 23  1  0
 24 18  1  0
 24 23  1  0
 25 18  2  0
 26 27  1  0
 28 29  2  0
 29 48  1  0
 30 29  1  0
 30 33  1  0
 31 28  1  0
 31 32  1  0
 32 30  2  0
 33 34  1  0
 34 35  2  0
 36 39  1  0
 36 35  1  0
 37 36  2  0
 38 37  1  0
 38 33  2  0
 39 40  1  0
 40 41  1  0
 41 42  2  0
 43 42  1  0
 43 47  1  0
 44 43  2  0
 45 40  2  0
 45 44  1  0
 46 45  1  0
 48 49  1  0
 49 52  1  0
 49 51  1  0
 50 48  2  0
 53 54  1  0
 53 28  1  0
 55 53  1  0
 56  5  1  0
 56 57  1  0
 58 69  2  0
 59 57  1  0
 59 64  1  0
 60 68  1  0
 60 70  1  0
 61 67  1  0
 61 63  1  0
 62 68  1  0
 63 64  2  0
 63 62  1  0
 65 59  2  0
 66 65  1  0
 66 61  2  0
 67 60  1  0
 68 58  1  0
 70 72  2  0
 71 70  1  0
 73 71  1  0
 74 83  2  0
 74 79  1  0
 75 71  1  0
 75 79  1  0
 76 75  1  0
 77 78  1  0
 77 76  1  0
 78 74  1  0
 79 80  2  0
 80 81  1  0
 82 81  2  0
 83 82  1  0
 84 58  1  0
 84 85  1  0
 84 94  1  0
 85 88  1  0
 86 90  1  0
 86 85  1  0
 87 86  2  0
 90 89  1  0
 92 90  1  0
 92 93  1  0
 92 91  1  0
 94 97  1  1
 94 95  1  0
 96 94  1  0
M  ISO  4  18 100  26 100  56 101  57 101
M  END
>  <TORSDO>  (10) 
F 18

>  <SCORE>  (10) 
-14.809

>  <name>  (10) 
9

>  <ligand_id>  (10) 
9

>  <original_smiles>  (10) 
[H]c1c([H])c(C(N2C([H])([H])C([H])([H])C(C([H])([H])[H])(C([H])([H])Oc3c([H])c([H])c4c(c3[H])C([H])([H])N(C(=O)C([H])(N([H])C(=O)C([H])(N([H])C([H])([H])[H])C([H])([H])[H])C(C([H])([H])[H])(C([H])([H])[H])C([H])([H])[H])C([H])(C(=O)N([H])C3([H])c5c([H])c([H])c([H])c([H])c5C([H])([H])C([H])([H])C3([H])[H])C4([H])[H])C2([H])C([H])([H])[H])=[N+]([H])[H])c([H])c(N([H])C(=O)N2C([H])([H])C([H])([H])C([H])([H])C([H])(n3nc(-c4c([H])c([H])c(Oc5c([H])c([H])c(F)c([H])c5F)c([H])c4[H])c(C(=O)N([H])[H])c3N([H])[H])C2([H])[H])c1[H]

>  <smiles>  (10) 
[H]c1c([H])c(C(N2C([H])([H])C([H])([H])C(C([H])([H])[H])(C([H])([H])Oc3c([H])c([H])c4c(c3[H])C([H])([H])N(C(=O)C([H])(N([H])C(=O)C([H])(N([H])C([H])([H])[H])C([H])([H])[H])C(C([H])([H])[H])(C([H])([H])[H])C([H])([H])[H])C([H])(C(=O)N([H])C3([H])c5c([H])c([H])c([H])c([H])c5C([H])([H])C([H])([H])C3([H])[H])C4([H])[H])C2([H])C([H])([H])[H])=[N+]([H])[H])c([H])c(N([H])C(=O)N2C([H])([H])C([H])([H])C([H])([H])C([H])(n3nc(-c4c([H])c([H])c(Oc5c([H])c([H])c(F)c([H])c5F)c([H])c4[H])c(C(=O)N([H])[H])c3N([H])[H])C2([H])[H])c1[H]

$$$$
10:0:0
     RDKit          3D

 93102  0  0  1  0  0  0  0  0999 V2000
  -29.4360  -22.0250   20.8090 C   0  0  0  0  0  0  0  0  0  0  0  0
  -29.4090  -20.8390   21.4560 N   0  0  0  0  0  0  0  0  0  0  0  0
  -29.7400  -22.1760   19.6210 O   0  0  0  0  0  0  0  0  0  0  0  0
  -29.1470  -20.9120   22.4310 H   0  0  0  0  0  0  0  0  0  0  0  0
  -30.7530  -14.4900   20.0270 C   0  0  0  0  0  0  0  0  0  0  0  0
  -30.3420  -12.4380   18.7100 C   0  0  0  0  0  2  0  0  0  0  0  0
  -29.2930  -12.7260   17.6150 C   0  0  0  0  0  2  0  0  0  0  0  0
  -27.8520  -12.5770   18.1570 C   0  0  0  0  0  2  0  0  0  0  0  0
  -27.6350  -13.3270   19.5010 C   0  0  0  0  0  3  0  0  0  0  0  0
  -28.7780  -12.9980   20.4880 C   0  0  0  0  0  2  0  0  0  0  0  0
  -30.0570  -13.3350   19.8400 N   0  0  0  0  0  0  0  0  0  0  0  0
  -31.8230  -14.7250   19.4600 O   0  0  0  0  0  0  0  0  0  0  0  0
  -29.7140  -18.5390   22.1000 C   0  0  0  0  0  3  0  0  0  0  0  0
  -29.8970  -19.1040   19.6700 C   0  0  0  0  0  3  0  0  0  0  0  0
  -29.9220  -17.2160   21.7040 C   0  0  0  0  0  0  0  0  0  0  0  0
  -30.0590  -17.7400   19.2790 C   0  0  0  0  0  0  0  0  0  0  0  0
  -30.0650  -16.8320   20.3380 C   0  0  0  0  0  0  0  0  0  0  0  0
  -29.6940  -19.5010   21.0440 C   0  0  0  0  0  0  0  0  0  0  0  0
  -29.9760  -15.7670   22.1490 C   0  0  0  0  0  2  0  0  0  0  0  0
  -30.1470  -17.2970   17.8330 C   0  0  0  0  0  1  0  0  0  0  0  0
  -30.0750  -15.4640   20.6720 N   0  0  0  0  0  0  0  0  0  0  0  0
  -25.3070  -13.9030   20.4530 C   0  0  0  0  0  0  0  0  0  0  0  0
  -24.2730  -13.1100   20.8840 C   0  0  0  0  0  0  0  0  0  0  0  0
  -24.7130  -11.7630   20.7160 C   0  0  0  0  0  0  0  0  0  0  0  0
  -26.3220  -13.0330   20.0810 N   0  0  0  0  0  0  0  0  0  0  0  0
  -25.9680  -11.7380   20.2850 N   0  0  0  0  0  0  0  0  0  0  0  0
  -23.9900  -10.4940   20.8830 C   0  0  0  0  0  0  0  0  0  0  0  0
  -24.4770   -9.4720   21.7260 C   0  0  0  0  0  3  0  0  0  0  0  0
  -23.7590   -8.2700   21.8860 C   0  0  0  0  0  3  0  0  0  0  0  0
  -22.5330   -8.0770   21.2060 C   0  0  0  0  0  0  0  0  0  0  0  0
  -22.0610   -9.0900   20.3530 C   0  0  0  0  0  3  0  0  0  0  0  0
  -22.7810  -10.2860   20.1890 C   0  0  0  0  0  3  0  0  0  0  0  0
  -21.7810   -6.9290   21.2750 O   0  0  0  0  0  0  0  0  0  0  0  0
  -21.7740   -6.1410   22.3970 C   0  0  0  0  0  0  0  0  0  0  0  0
  -21.4250   -6.6520   23.6670 C   0  0  0  0  0  3  0  0  0  0  0  0
  -21.3650   -5.7900   24.7810 C   0  0  0  0  0  3  0  0  0  0  0  0
  -21.6440   -4.4200   24.6260 C   0  0  0  0  0  0  0  0  0  0  0  0
  -21.9880   -3.9080   23.3630 C   0  0  0  0  0  3  0  0  0  0  0  0
  -22.0500   -4.7670   22.2510 C   0  0  0  0  0  0  0  0  0  0  0  0
  -22.3580   -4.2640   21.0320 F   0  0  0  0  0  0  0  0  0  0  0  0
  -21.5820   -3.5910   25.6960 F   0  0  0  0  0  0  0  0  0  0  0  0
  -22.9160  -13.5770   21.3240 C   0  0  0  0  0  0  0  0  0  0  0  0
  -22.2710  -12.8360   22.2210 N   0  0  0  0  0  0  0  0  0  0  0  0
  -22.4400  -14.6310   20.9100 O   0  0  0  0  0  0  0  0  0  0  0  0
  -22.6650  -11.9770   22.5710 H   0  0  0  0  0  0  0  0  0  0  0  0
  -21.3680  -13.1400   22.5580 H   0  0  0  0  0  0  0  0  0  0  0  0
  -25.4580  -15.2790   20.3160 N   0  0  0  0  0  0  0  0  0  0  0  0
  -24.6330  -15.8700   20.3460 H   0  0  0  0  0  0  0  0  0  0  0  0
  -26.1890  -15.6650   19.7270 H   0  0  0  0  0  0  0  0  0  0  0  0
  -29.1000  -23.2460   21.6880 C   0  0  0  0  0  2  0  0  0  0  0  0
  -29.3620  -24.6540   21.0810 C   0  0  0  0  0  2  0  0  0  0  0  0
  -28.2740  -25.2390   20.1580 C   0  0  0  0  0  2  0  0  0  0  0  0
  -28.4100  -26.6790   20.1560 O   0  0  0  0  0  0  0  0  0  0  0  0
  -24.5920  -31.8990   23.2150 C   0  0  0  0  0  0  0  0  0  0  0  0
  -27.2450  -27.4240   20.1490 C   0  0  0  0  0  0  0  0  0  0  0  0
  -23.3950  -30.4740   21.5950 C   0  0  0  0  0  3  0  0  0  0  0  0
  -24.8500  -28.9400   20.1730 C   0  0  0  0  0  0  0  0  0  0  0  0
  -25.9260  -30.8410   21.3890 C   0  0  0  0  0  2  0  0  0  0  0  0
  -26.0110  -29.4640   20.7540 C   0  0  0  0  0  0  0  0  0  0  0  0
  -27.2140  -28.7140   20.7350 C   0  0  0  0  0  3  0  0  0  0  0  0
  -26.0660  -26.9320   19.5440 C   0  0  0  0  0  3  0  0  0  0  0  0
  -24.8730  -27.6770   19.5600 C   0  0  0  0  0  3  0  0  0  0  0  0
  -23.6080  -29.8020   20.2140 C   0  0  0  0  0  2  0  0  0  0  0  0
  -24.6570  -31.0860   22.1240 N   0  0  0  0  0  0  0  0  0  0  0  0
  -23.5080  -32.1630   23.7560 O   0  0  0  0  0  0  0  0  0  0  0  0
  -22.7600  -29.4460   22.5620 C   0  0  0  0  0  0  0  0  0  0  0  0
  -21.4370  -29.2490   22.4460 N   0  0  0  0  0  0  0  0  0  0  0  0
  -23.4530  -28.8330   23.3790 O   0  0  0  0  0  0  0  0  0  0  0  0
  -20.9310  -29.8070   21.7750 H   0  0  0  0  0  0  0  0  0  0  0  0
  -18.0780  -28.0100   22.9620 C   0  0  0  0  0  0  0  0  0  0  0  0
  -20.6330  -28.3080   23.2300 C   0  0  0  0  0  3  0  0  0  0  0  0
  -20.7540  -26.8700   22.6750 C   0  0  0  0  0  2  0  0  0  0  0  0
  -19.6570  -26.5170   21.6640 C   0  0  0  0  0  2  0  0  0  0  0  0
  -18.2730  -26.6530   22.3060 C   0  0  0  0  0  2  0  0  0  0  0  0
  -19.1870  -28.7930   23.3820 C   0  0  0  0  0  0  0  0  0  0  0  0
  -18.9490  -30.0620   23.9540 C   0  0  0  0  0  3  0  0  0  0  0  0
  -17.6380  -30.5480   24.1110 C   0  0  0  0  0  3  0  0  0  0  0  0
  -16.5440  -29.7630   23.7030 C   0  0  0  0  0  3  0  0  0  0  0  0
  -16.7660  -28.4960   23.1370 C   0  0  0  0  0  3  0  0  0  0  0  0
  -25.8720  -32.5550   23.8220 C   0  0  0  0  0  3  0  0  0  0  0  0
  -26.4070  -31.7990   25.1000 C   0  0  1  0  0  0  0  0  0  0  0  0
  -25.3300  -31.5510   26.1810 C   0  0  0  0  0  1  0  0  0  0  0  0
  -27.0000  -30.4280   24.7070 C   0  0  0  0  0  1  0  0  0  0  0  0
  -27.5480  -32.6120   25.7520 C   0  0  0  0  0  1  0  0  0  0  0  0
  -25.5450  -33.9500   24.1450 N   0  0  0  0  0  0  0  0  0  0  0  0
  -25.8500  -35.0020   23.3750 C   0  0  0  0  0  0  0  0  0  0  0  0
  -26.5080  -34.9010   22.3350 O   0  0  0  0  0  0  0  0  0  0  0  0
  -24.9680  -34.1010   24.9580 H   0  0  0  0  0  0  0  0  0  0  0  0
  -24.0810  -36.7570   23.0260 C   0  0  0  0  0  1  0  0  0  0  0  0
  -25.3410  -36.3860   23.8240 C   0  0  0  0  0  3  0  0  0  0  0  0
  -27.4730  -37.3150   24.6110 C   0  0  0  0  0  1  0  0  0  0  0  0
  -26.3500  -37.4590   23.6880 N   0  0  0  0  0  0  0  0  0  0  0  0
  -25.9270  -38.3720   23.8410 H   0  0  0  0  0  0  0  0  0  0  0  0
  1  2  1  0
  1 50  1  0
  2  4  1  0
  3  1  2  0
  5 21  1  0
  6 11  1  0
  7  8  1  0
  7  6  1  0
  9  8  1  0
  9 25  1  0
  9 10  1  0
 11  5  1  0
 11 10  1  0
 12  5  2  0
 14 18  1  0
 15 13  1  0
 15 19  1  0
 16 14  2  0
 16 17  1  0
 17 21  1  0
 17 15  2  0
 18  2  1  0
 18 13  2  0
 20 16  1  0
 21 19  1  0
 22 23  2  0
 23 42  1  0
 24 27  1  0
 24 23  1  0
 25 26  1  0
 25 22  1  0
 26 24  2  0
 27 28  1  0
 28 29  2  0
 30 33  1  0
 30 29  1  0
 31 30  2  0
 32 31  1  0
 32 27  2  0
 33 34  1  0
 34 35  1  0
 35 36  2  0
 37 36  1  0
 37 41  1  0
 38 37  2  0
 39 34  2  0
 39 38  1  0
 40 39  1  0
 42 43  1  0
 43 46  1  0
 43 45  1  0
 44 42  2  0
 47 48  1  0
 47 22  1  0
 49 47  1  0
 51 50  1  0
 52 51  1  0
 53 52  1  0
 54 65  2  0
 55 53  1  0
 55 60  1  0
 56 64  1  0
 56 66  1  0
 57 63  1  0
 57 59  1  0
 58 64  1  0
 59 58  1  0
 60 59  2  0
 61 62  1  0
 61 55  2  0
 62 57  2  0
 63 56  1  0
 64 54  1  0
 66 68  2  0
 67 66  1  0
 69 67  1  0
 70 79  2  0
 70 75  1  0
 71 67  1  0
 71 75  1  0
 72 71  1  0
 73 74  1  0
 73 72  1  0
 74 70  1  0
 75 76  2  0
 76 77  1  0
 78 77  2  0
 79 78  1  0
 80 54  1  0
 80 85  1  0
 80 81  1  0
 81 84  1  1
 81 82  1  0
 83 81  1  0
 85 88  1  0
 86 90  1  0
 86 85  1  0
 87 86  2  0
 90 89  1  0
 92 90  1  0
 92 93  1  0
 92 91  1  0
M  ISO  4   5 100  21 100  52 101  53 101
M  END
>  <TORSDO>  (11) 
F 19

>  <SCORE>  (11) 
-12.185

>  <name>  (11) 
10

>  <ligand_id>  (11) 
10

>  <original_smiles>  (11) 
[H]c1c([H])c([H])c2c(c1[H])C([H])([H])C([H])([H])C([H])([H])C2([H])N([H])C(=O)C1([H])N(C(=O)C([H])(N([H])C(=O)C([H])(N([H])C([H])([H])[H])C([H])([H])[H])C(C([H])([H])[H])(C([H])([H])[H])C([H])([H])[H])C([H])([H])c2c([H])c(OC([H])([H])C([H])([H])C([H])([H])C(=O)N([H])c3c([H])c(C([H])([H])[H])c4c(c3[H])C([H])([H])N4C(=O)N3C([H])([H])C([H])([H])C([H])([H])C([H])(n4nc(-c5c([H])c([H])c(Oc6c([H])c([H])c(F)c([H])c6F)c([H])c5[H])c(C(=O)N([H])[H])c4N([H])[H])C3([H])[H])c([H])c([H])c2C1([H])[H]

>  <smiles>  (11) 
[H]c1c([H])c([H])c2c(c1[H])C([H])([H])C([H])([H])C([H])([H])C2([H])N([H])C(=O)C1([H])N(C(=O)C([H])(N([H])C(=O)C([H])(N([H])C([H])([H])[H])C([H])([H])[H])C(C([H])([H])[H])(C([H])([H])[H])C([H])([H])[H])C([H])([H])c2c([H])c(OC([H])([H])C([H])([H])C([H])([H])C(=O)N([H])c3c([H])c(C([H])([H])[H])c4c(c3[H])C([H])([H])N4C(=O)N3C([H])([H])C([H])([H])C([H])([H])C([H])(n4nc(-c5c([H])c([H])c(Oc6c([H])c([H])c(F)c([H])c6F)c([H])c5[H])c(C(=O)N([H])[H])c4N([H])[H])C3([H])[H])c([H])c([H])c2C1([H])[H]

$$$$
11:0:0
     RDKit          3D

 95103  0  0  1  0  0  0  0  0999 V2000
  -31.2870  -20.5650   22.1350 C   0  0  0  0  0  1  0  0  0  0  0  0
  -31.8670  -21.6480   19.9680 C   0  0  0  0  0  1  0  0  0  0  0  0
  -30.7050  -21.4160   20.9720 C   0  0  2  0  0  0  0  0  0  0  0  0
  -30.2730  -22.7980   21.5480 C   0  0  0  0  0  0  0  0  0  0  0  0
  -30.2370  -22.9850   22.7680 O   0  0  0  0  0  0  0  0  0  0  0  0
  -29.8520  -23.9420   20.6030 C   0  0  0  0  0  2  0  0  0  0  0  0
  -30.3930  -25.3360   21.0380 C   0  0  0  0  0  2  0  0  0  0  0  0
  -29.3290  -26.4410   21.2260 C   0  0  0  0  0  2  0  0  0  0  0  0
  -28.8360  -26.8970   19.9700 O   0  0  0  0  0  0  0  0  0  0  0  0
  -24.7280  -31.7670   23.2370 C   0  0  0  0  0  0  0  0  0  0  0  0
  -27.6640  -27.6120   20.0280 C   0  0  0  0  0  0  0  0  0  0  0  0
  -23.6360  -30.3970   21.4880 C   0  0  0  0  0  3  0  0  0  0  0  0
  -25.2010  -28.9960   20.0420 C   0  0  0  0  0  0  0  0  0  0  0  0
  -26.1460  -30.8770   21.3910 C   0  0  0  0  0  2  0  0  0  0  0  0
  -26.3150  -29.5430   20.6940 C   0  0  0  0  0  0  0  0  0  0  0  0
  -27.5500  -28.8550   20.6950 C   0  0  0  0  0  3  0  0  0  0  0  0
  -26.5410  -27.0830   19.3660 C   0  0  0  0  0  3  0  0  0  0  0  0
  -25.3070  -27.7620   19.3760 C   0  0  0  0  0  3  0  0  0  0  0  0
  -23.9180  -29.7940   20.0860 C   0  0  0  0  0  2  0  0  0  0  0  0
  -24.8530  -31.0260   22.0990 N   0  0  0  0  0  0  0  0  0  0  0  0
  -23.6210  -31.9640   23.7560 O   0  0  0  0  0  0  0  0  0  0  0  0
  -23.0020  -29.3030   22.3780 C   0  0  0  0  0  0  0  0  0  0  0  0
  -21.6850  -29.0940   22.2220 N   0  0  0  0  0  0  0  0  0  0  0  0
  -23.6930  -28.6480   23.1640 O   0  0  0  0  0  0  0  0  0  0  0  0
  -21.1870  -29.6820   21.5680 H   0  0  0  0  0  0  0  0  0  0  0  0
  -18.3350  -27.7950   22.6150 C   0  0  0  0  0  0  0  0  0  0  0  0
  -20.8850  -28.0900   22.9240 C   0  0  0  0  0  3  0  0  0  0  0  0
  -21.0220  -26.7020   22.2560 C   0  0  0  0  0  2  0  0  0  0  0  0
  -19.9350  -26.4220   21.2140 C   0  0  0  0  0  2  0  0  0  0  0  0
  -18.5460  -26.4960   21.8530 C   0  0  0  0  0  2  0  0  0  0  0  0
  -19.4330  -28.5510   23.1030 C   0  0  0  0  0  0  0  0  0  0  0  0
  -19.1830  -29.7680   23.7730 C   0  0  0  0  0  3  0  0  0  0  0  0
  -17.8670  -30.2320   23.9570 C   0  0  0  0  0  3  0  0  0  0  0  0
  -16.7820  -29.4710   23.4860 C   0  0  0  0  0  3  0  0  0  0  0  0
  -17.0170  -28.2540   22.8200 C   0  0  0  0  0  3  0  0  0  0  0  0
  -25.9670  -32.4200   23.9270 C   0  0  0  0  0  3  0  0  0  0  0  0
  -25.5940  -33.7910   24.2970 N   0  0  0  0  0  0  0  0  0  0  0  0
  -25.9140  -34.8840   23.5920 C   0  0  0  0  0  0  0  0  0  0  0  0
  -26.6260  -34.8460   22.5840 O   0  0  0  0  0  0  0  0  0  0  0  0
  -24.9630  -33.8920   25.0790 H   0  0  0  0  0  0  0  0  0  0  0  0
  -24.1280  -36.6180   23.2430 C   0  0  0  0  0  1  0  0  0  0  0  0
  -25.3570  -36.2340   24.0810 C   0  0  0  0  0  3  0  0  0  0  0  0
  -27.4290  -37.1680   25.0110 C   0  0  0  0  0  1  0  0  0  0  0  0
  -26.3500  -37.3300   24.0400 N   0  0  0  0  0  0  0  0  0  0  0  0
  -25.9030  -38.2280   24.2090 H   0  0  0  0  0  0  0  0  0  0  0  0
  -26.4710  -31.6170   25.1880 C   0  0  1  0  0  0  0  0  0  0  0  0
  -25.3550  -31.2960   26.2100 C   0  0  0  0  0  1  0  0  0  0  0  0
  -27.1160  -30.2790   24.7580 C   0  0  0  0  0  1  0  0  0  0  0  0
  -27.5720  -32.4240   25.9180 C   0  0  0  0  0  1  0  0  0  0  0  0
  -29.5230  -20.6480   20.2620 C   0  0  0  0  0  3  0  0  0  0  0  0
  -30.5180  -17.0950   18.8050 C   0  0  0  0  0  3  0  0  0  0  0  0
  -30.4240  -17.0130   20.1730 C   0  0  0  0  0  0  0  0  0  0  0  0
  -29.8750  -19.2180   19.8950 C   0  0  0  0  0  0  0  0  0  0  0  0
  -30.0580  -18.2210   20.7810 N   0  0  0  0  0  0  0  0  0  0  0  0
  -30.1210  -18.6910   18.2290 S   0  0  0  0  0  0  0  0  0  0  0  0
  -31.2840  -14.7370   20.4960 C   0  0  0  0  0  0  0  0  0  0  0  0
  -31.0100  -12.4800   19.5600 C   0  0  0  0  0  2  0  0  0  0  0  0
  -30.1550  -12.6180   18.2830 C   0  0  0  0  0  2  0  0  0  0  0  0
  -28.6500  -12.5720   18.6200 C   0  0  0  0  0  2  0  0  0  0  0  0
  -28.2610  -13.5100   19.7960 C   0  0  0  0  0  3  0  0  0  0  0  0
  -29.2410  -13.3420   20.9820 C   0  0  0  0  0  2  0  0  0  0  0  0
  -30.6100  -13.5550   20.4820 N   0  0  0  0  0  0  0  0  0  0  0  0
  -32.4300  -14.8640   20.0520 O   0  0  0  0  0  0  0  0  0  0  0  0
  -30.5720  -15.8030   20.9050 N   0  0  0  0  0  0  0  0  0  0  0  0
  -29.8210  -15.6030   21.5480 H   0  0  0  0  0  0  0  0  0  0  0  0
  -25.8650  -14.2470   20.3890 C   0  0  0  0  0  0  0  0  0  0  0  0
  -24.7420  -13.5340   20.7170 C   0  0  0  0  0  0  0  0  0  0  0  0
  -25.1320  -12.1610   20.7100 C   0  0  0  0  0  0  0  0  0  0  0  0
  -26.8720  -13.3110   20.2090 N   0  0  0  0  0  0  0  0  0  0  0  0
  -26.4290  -12.0510   20.4540 N   0  0  0  0  0  0  0  0  0  0  0  0
  -24.3300  -10.9400   20.8700 C   0  0  0  0  0  0  0  0  0  0  0  0
  -24.7010   -9.9330   21.7870 C   0  0  0  0  0  3  0  0  0  0  0  0
  -23.9070   -8.7740   21.9400 C   0  0  0  0  0  3  0  0  0  0  0  0
  -22.7280   -8.6170   21.1720 C   0  0  0  0  0  0  0  0  0  0  0  0
  -22.3770   -9.6110   20.2430 C   0  0  0  0  0  3  0  0  0  0  0  0
  -23.1710  -10.7610   20.0890 C   0  0  0  0  0  3  0  0  0  0  0  0
  -21.9080   -7.5180   21.2360 O   0  0  0  0  0  0  0  0  0  0  0  0
  -21.8340   -6.7360   22.3600 C   0  0  0  0  0  0  0  0  0  0  0  0
  -21.4870   -7.2710   23.6200 C   0  0  0  0  0  3  0  0  0  0  0  0
  -21.3610   -6.4210   24.7370 C   0  0  0  0  0  3  0  0  0  0  0  0
  -21.5630   -5.0350   24.5930 C   0  0  0  0  0  0  0  0  0  0  0  0
  -21.8990   -4.4980   23.3390 C   0  0  0  0  0  3  0  0  0  0  0  0
  -22.0320   -5.3460   22.2250 C   0  0  0  0  0  0  0  0  0  0  0  0
  -22.3350   -4.8200   21.0150 F   0  0  0  0  0  0  0  0  0  0  0  0
  -21.4310   -4.2170   25.6640 F   0  0  0  0  0  0  0  0  0  0  0  0
  -23.3640  -14.0840   20.9320 C   0  0  0  0  0  0  0  0  0  0  0  0
  -22.5690  -13.4420   21.7840 N   0  0  0  0  0  0  0  0  0  0  0  0
  -22.9950  -15.1190   20.3790 O   0  0  0  0  0  0  0  0  0  0  0  0
  -22.8690  -12.6040   22.2560 H   0  0  0  0  0  0  0  0  0  0  0  0
  -21.6380  -13.7920   21.9620 H   0  0  0  0  0  0  0  0  0  0  0  0
  -26.1090  -15.6060   20.2160 N   0  0  0  0  0  0  0  0  0  0  0  0
  -25.3740  -16.3010   20.2880 H   0  0  0  0  0  0  0  0  0  0  0  0
  -26.9960  -15.9980   19.9300 H   0  0  0  0  0  0  0  0  0  0  0  0
  -27.2770  -21.9430   20.7790 C   0  0  0  0  0  1  0  0  0  0  0  0
  -28.1240  -20.6700   20.9490 C   0  0  0  0  0  2  0  0  0  0  0  0
  3  2  1  6
  3  4  1  0
  3  1  1  0
  4  5  2  0
  6  7  1  0
  6  4  1  0
  7  8  1  0
  9 11  1  0
  9  8  1  0
 10 21  2  0
 11 16  1  0
 12 20  1  0
 12 22  1  0
 13 19  1  0
 13 15  1  0
 14 20  1  0
 15 16  2  0
 15 14  1  0
 17 18  1  0
 17 11  2  0
 18 13  2  0
 19 12  1  0
 20 10  1  0
 22 24  2  0
 23 22  1  0
 25 23  1  0
 26 35  2  0
 26 31  1  0
 27 23  1  0
 27 31  1  0
 28 27  1  0
 29 30  1  0
 29 28  1  0
 30 26  1  0
 31 32  2  0
 32 33  1  0
 34 33  2  0
 35 34  1  0
 36 10  1  0
 36 37  1  0
 36 46  1  0
 37 40  1  0
 38 42  1  0
 38 37  1  0
 39 38  2  0
 42 41  1  0
 44 42  1  0
 44 45  1  0
 44 43  1  0
 46 49  1  1
 46 47  1  0
 48 46  1  0
 50 95  1  0
 50  3  1  0
 51 52  2  0
 52 54  1  0
 52 64  1  0
 53 50  1  0
 53 54  2  0
 55 51  1  0
 55 53  1  0
 56 64  1  0
 57 62  1  0
 58 59  1  0
 58 57  1  0
 60 59  1  0
 60 69  1  0
 60 61  1  0
 62 56  1  0
 62 61  1  0
 63 56  2  0
 64 65  1  0
 66 67  2  0
 67 86  1  0
 68 67  1  0
 68 71  1  0
 69 66  1  0
 69 70  1  0
 70 68  2  0
 71 72  1  0
 72 73  2  0
 74 77  1  0
 74 73  1  0
 75 74  2  0
 76 75  1  0
 76 71  2  0
 77 78  1  0
 78 79  1  0
 79 80  2  0
 81 80  1  0
 81 85  1  0
 82 81  2  0
 83 78  2  0
 83 82  1  0
 84 83  1  0
 86 87  1  0
 87 90  1  0
 87 89  1  0
 88 86  2  0
 91 92  1  0
 91 66  1  0
 93 91  1  0
 94 95  1  0
M  ISO  4   8 101   9 101  56 100  64 100
M  END
>  <TORSDO>  (12) 
F 23

>  <SCORE>  (12) 
-12.108

>  <name>  (12) 
11

>  <ligand_id>  (12) 
11

>  <original_smiles>  (12) 
[H]c1sc(C([H])(C([H])([H])C([H])([H])[H])C(C(=O)C([H])([H])C([H])([H])C([H])([H])Oc2c([H])c([H])c3c(c2[H])C([H])([H])N(C(=O)C([H])(N([H])C(=O)C([H])(N([H])C([H])([H])[H])C([H])([H])[H])C(C([H])([H])[H])(C([H])([H])[H])C([H])([H])[H])C([H])(C(=O)N([H])C2([H])c4c([H])c([H])c([H])c([H])c4C([H])([H])C([H])([H])C2([H])[H])C3([H])[H])(C([H])([H])[H])C([H])([H])[H])nc1N([H])C(=O)N1C([H])([H])C([H])([H])C([H])([H])C([H])(n2nc(-c3c([H])c([H])c(Oc4c([H])c([H])c(F)c([H])c4F)c([H])c3[H])c(C(=O)N([H])[H])c2N([H])[H])C1([H])[H]

>  <smiles>  (12) 
[H]c1sc(C([H])(C([H])([H])C([H])([H])[H])C(C(=O)C([H])([H])C([H])([H])C([H])([H])Oc2c([H])c([H])c3c(c2[H])C([H])([H])N(C(=O)C([H])(N([H])C(=O)C([H])(N([H])C([H])([H])[H])C([H])([H])[H])C(C([H])([H])[H])(C([H])([H])[H])C([H])([H])[H])C([H])(C(=O)N([H])C2([H])c4c([H])c([H])c([H])c([H])c4C([H])([H])C([H])([H])C2([H])[H])C3([H])[H])(C([H])([H])[H])C([H])([H])[H])nc1N([H])C(=O)N1C([H])([H])C([H])([H])C([H])([H])C([H])(n2nc(-c3c([H])c([H])c(Oc4c([H])c([H])c(F)c([H])c4F)c([H])c3[H])c(C(=O)N([H])[H])c2N([H])[H])C1([H])[H]

$$$$
12:0:0
     RDKit          3D

 91100  0  0  1  0  0  0  0  0999 V2000
  -29.7530  -23.4300   21.0960 C   0  0  0  0  0  0  0  0  0  0  0  0
  -29.0850  -23.6510   19.9540 C   0  0  0  0  0  0  0  0  0  0  0  0
  -30.2290  -21.9760   21.2660 C   0  0  0  0  0  2  0  0  0  0  0  0
  -29.0230  -22.2830   19.1960 C   0  0  0  0  0  2  0  0  0  0  0  0
  -29.9710  -21.2160   19.9260 C   0  0  0  0  0  3  0  0  0  0  0  0
  -29.9920  -24.4210   22.2210 C   0  0  0  0  0  1  0  0  0  0  0  0
  -30.3550  -18.4290   20.0640 C   0  0  0  0  0  3  0  0  0  0  0  0
  -28.2290  -19.3470   20.2660 C   0  0  0  0  0  3  0  0  0  0  0  0
  -29.5450  -19.6850   20.0690 C   0  0  0  0  0  0  0  0  0  0  0  0
  -29.6610  -17.2100   20.2500 C   0  0  0  0  0  0  0  0  0  0  0  0
  -27.9690  -17.6280   20.4360 S   0  0  0  0  0  0  0  0  0  0  0  0
  -30.7460  -14.8350   19.8430 C   0  0  0  0  0  0  0  0  0  0  0  0
  -30.6130  -12.5060   18.9020 C   0  0  0  0  0  2  0  0  0  0  0  0
  -29.6000  -12.5250   17.7320 C   0  0  0  0  0  2  0  0  0  0  0  0
  -28.1580  -12.3370   18.2470 C   0  0  0  0  0  2  0  0  0  0  0  0
  -27.8380  -13.2550   19.4560 C   0  0  0  0  0  3  0  0  0  0  0  0
  -28.9540  -13.1720   20.5200 C   0  0  0  0  0  2  0  0  0  0  0  0
  -30.2160  -13.5580   19.8650 N   0  0  0  0  0  0  0  0  0  0  0  0
  -31.8580  -15.0440   19.3440 O   0  0  0  0  0  0  0  0  0  0  0  0
  -29.9010  -15.8210   20.3220 N   0  0  0  0  0  0  0  0  0  0  0  0
  -29.1340  -15.3550   20.7870 H   0  0  0  0  0  0  0  0  0  0  0  0
  -25.5130  -13.8660   20.3610 C   0  0  0  0  0  0  0  0  0  0  0  0
  -24.4590  -13.0990   20.7770 C   0  0  0  0  0  0  0  0  0  0  0  0
  -24.8920  -11.7410   20.6690 C   0  0  0  0  0  0  0  0  0  0  0  0
  -26.5210  -12.9760   20.0230 N   0  0  0  0  0  0  0  0  0  0  0  0
  -26.1570  -11.6910   20.2680 N   0  0  0  0  0  0  0  0  0  0  0  0
  -24.1590  -10.4870   20.8740 C   0  0  0  0  0  0  0  0  0  0  0  0
  -24.5700   -9.5370   21.8360 C   0  0  0  0  0  3  0  0  0  0  0  0
  -23.8370   -8.3450   22.0240 C   0  0  0  0  0  3  0  0  0  0  0  0
  -22.6800   -8.0940   21.2480 C   0  0  0  0  0  0  0  0  0  0  0  0
  -22.2880   -9.0330   20.2770 C   0  0  0  0  0  3  0  0  0  0  0  0
  -23.0210  -10.2160   20.0890 C   0  0  0  0  0  3  0  0  0  0  0  0
  -21.9210   -6.9530   21.3440 O   0  0  0  0  0  0  0  0  0  0  0  0
  -21.7480   -6.3000   22.5380 C   0  0  0  0  0  0  0  0  0  0  0  0
  -21.1850   -6.9430   23.6610 C   0  0  0  0  0  3  0  0  0  0  0  0
  -20.9580   -6.2170   24.8480 C   0  0  0  0  0  3  0  0  0  0  0  0
  -21.2900   -4.8500   24.9120 C   0  0  0  0  0  0  0  0  0  0  0  0
  -21.8490   -4.2080   23.7930 C   0  0  0  0  0  3  0  0  0  0  0  0
  -22.0760   -4.9310   22.6080 C   0  0  0  0  0  0  0  0  0  0  0  0
  -22.5950   -4.3000   21.5270 F   0  0  0  0  0  0  0  0  0  0  0  0
  -21.0640   -4.1510   26.0490 F   0  0  0  0  0  0  0  0  0  0  0  0
  -23.0950  -13.5920   21.1630 C   0  0  0  0  0  0  0  0  0  0  0  0
  -22.4240  -12.8900   22.0690 N   0  0  0  0  0  0  0  0  0  0  0  0
  -22.6380  -14.6350   20.6990 O   0  0  0  0  0  0  0  0  0  0  0  0
  -22.8090  -12.0450   22.4660 H   0  0  0  0  0  0  0  0  0  0  0  0
  -21.5160  -13.2080   22.3750 H   0  0  0  0  0  0  0  0  0  0  0  0
  -25.6910  -15.2390   20.2240 N   0  0  0  0  0  0  0  0  0  0  0  0
  -24.9580  -15.9040   20.4450 H   0  0  0  0  0  0  0  0  0  0  0  0
  -26.5190  -15.6820   19.8440 H   0  0  0  0  0  0  0  0  0  0  0  0
  -28.2980  -24.9530   19.4420 C   0  0  0  0  0  2  0  0  0  0  0  0
  -28.5390  -26.3840   19.8850 O   0  0  0  0  0  0  0  0  0  0  0  0
  -24.5910  -31.6100   23.0990 C   0  0  0  0  0  0  0  0  0  0  0  0
  -27.4370  -27.2880   19.8340 C   0  0  0  0  0  0  0  0  0  0  0  0
  -23.4840  -30.2740   21.3450 C   0  0  0  0  0  3  0  0  0  0  0  0
  -25.0270  -28.8760   19.8580 C   0  0  0  0  0  0  0  0  0  0  0  0
  -26.0210  -30.6810   21.2520 C   0  0  0  0  0  2  0  0  0  0  0  0
  -26.1690  -29.3450   20.5200 C   0  0  0  0  0  0  0  0  0  0  0  0
  -27.3760  -28.5660   20.4990 C   0  0  0  0  0  3  0  0  0  0  0  0
  -26.2660  -26.9130   19.1290 C   0  0  0  0  0  3  0  0  0  0  0  0
  -25.0820  -27.6700   19.1490 C   0  0  0  0  0  3  0  0  0  0  0  0
  -23.7620  -29.7070   19.9310 C   0  0  0  0  0  2  0  0  0  0  0  0
  -24.7160  -30.8720   21.9560 N   0  0  0  0  0  0  0  0  0  0  0  0
  -23.4850  -31.8110   23.6220 O   0  0  0  0  0  0  0  0  0  0  0  0
  -22.8360  -29.1750   22.2220 C   0  0  0  0  0  0  0  0  0  0  0  0
  -21.5130  -28.9820   22.0850 N   0  0  0  0  0  0  0  0  0  0  0  0
  -23.5260  -28.5020   22.9940 O   0  0  0  0  0  0  0  0  0  0  0  0
  -21.0100  -29.5780   21.4410 H   0  0  0  0  0  0  0  0  0  0  0  0
  -18.1470  -27.7410   22.5700 C   0  0  0  0  0  0  0  0  0  0  0  0
  -20.7150  -27.9720   22.7840 C   0  0  0  0  0  3  0  0  0  0  0  0
  -20.7930  -26.6040   22.0670 C   0  0  0  0  0  2  0  0  0  0  0  0
  -19.6590  -26.3860   21.0590 C   0  0  0  0  0  2  0  0  0  0  0  0
  -18.2980  -26.4660   21.7580 C   0  0  0  0  0  2  0  0  0  0  0  0
  -19.2810  -28.4550   23.0400 C   0  0  0  0  0  0  0  0  0  0  0  0
  -19.0830  -29.6500   23.7670 C   0  0  0  0  0  3  0  0  0  0  0  0
  -17.7860  -30.1310   24.0240 C   0  0  0  0  0  3  0  0  0  0  0  0
  -16.6670  -29.4130   23.5670 C   0  0  0  0  0  3  0  0  0  0  0  0
  -16.8490  -28.2180   22.8470 C   0  0  0  0  0  3  0  0  0  0  0  0
  -25.8310  -32.2550   23.7910 C   0  0  0  0  0  3  0  0  0  0  0  0
  -25.4830  -33.6450   24.1220 N   0  0  0  0  0  0  0  0  0  0  0  0
  -25.8200  -34.7110   23.3840 C   0  0  0  0  0  0  0  0  0  0  0  0
  -26.5220  -34.6290   22.3720 O   0  0  0  0  0  0  0  0  0  0  0  0
  -24.8580  -33.7790   24.9040 H   0  0  0  0  0  0  0  0  0  0  0  0
  -24.0620  -36.4740   23.0080 C   0  0  0  0  0  1  0  0  0  0  0  0
  -25.2950  -36.0860   23.8390 C   0  0  0  0  0  3  0  0  0  0  0  0
  -27.3920  -37.0180   24.7200 C   0  0  0  0  0  1  0  0  0  0  0  0
  -26.3070  -37.1620   23.7530 N   0  0  0  0  0  0  0  0  0  0  0  0
  -25.8760  -38.0710   23.8950 H   0  0  0  0  0  0  0  0  0  0  0  0
  -26.2940  -31.4740   25.0830 C   0  0  1  0  0  0  0  0  0  0  0  0
  -25.1520  -31.2130   26.0930 C   0  0  0  0  0  1  0  0  0  0  0  0
  -26.9100  -30.1070   24.7080 C   0  0  0  0  0  1  0  0  0  0  0  0
  -27.3990  -32.2760   25.8080 C   0  0  0  0  0  1  0  0  0  0  0  0
  1  3  1  0
  1  6  1  0
  2  1  2  0
  4  5  1  0
  4  2  1  0
  5  9  1  0
  5  3  1  0
  7  9  1  0
  7 10  2  0
  8 11  1  0
  9  8  2  0
 10 20  1  0
 10 11  1  0
 12 18  1  0
 12 20  1  0
 13 18  1  0
 14 15  1  0
 14 13  1  0
 16 15  1  0
 16 25  1  0
 16 17  1  0
 18 17  1  0
 19 12  2  0
 20 21  1  0
 22 23  2  0
 23 42  1  0
 24 23  1  0
 24 27  1  0
 25 26  1  0
 25 22  1  0
 26 24  2  0
 27 28  1  0
 28 29  2  0
 30 33  1  0
 30 29  1  0
 31 30  2  0
 32 31  1  0
 32 27  2  0
 33 34  1  0
 34 39  2  0
 34 35  1  0
 35 36  2  0
 36 37  1  0
 37 41  1  0
 38 37  2  0
 39 38  1  0
 40 39  1  0
 42 43  1  0
 43 46  1  0
 43 45  1  0
 44 42  2  0
 47 22  1  0
 47 48  1  0
 49 47  1  0
 50 51  1  0
 50  2  1  0
 52 63  2  0
 53 51  1  0
 53 58  1  0
 54 62  1  0
 54 64  1  0
 55 61  1  0
 55 57  1  0
 56 62  1  0
 57 56  1  0
 58 57  2  0
 59 60  1  0
 59 53  2  0
 60 55  2  0
 61 54  1  0
 62 52  1  0
 64 66  2  0
 65 64  1  0
 67 65  1  0
 68 77  2  0
 68 73  1  0
 69 65  1  0
 69 73  1  0
 70 69  1  0
 71 72  1  0
 71 70  1  0
 72 68  1  0
 73 74  2  0
 74 75  1  0
 76 75  2  0
 77 76  1  0
 78 52  1  0
 78 79  1  0
 78 88  1  0
 79 82  1  0
 80 84  1  0
 80 79  1  0
 81 80  2  0
 84 83  1  0
 86 84  1  0
 86 87  1  0
 86 85  1  0
 88 91  1  1
 88 89  1  0
 90 88  1  0
M  ISO  4  12 100  20 100  50 101  51 101
M  END
>  <TORSDO>  (13) 
F 18

>  <SCORE>  (13) 
-13.912

>  <name>  (13) 
12

>  <ligand_id>  (13) 
12

>  <original_smiles>  (13) 
[H]c1sc(N([H])C(=O)N2C([H])([H])C([H])([H])C([H])([H])C([H])(n3nc(-c4c([H])c([H])c(Oc5c([H])c([H])c(F)c([H])c5F)c([H])c4[H])c(C(=O)N([H])[H])c3N([H])[H])C2([H])[H])c([H])c1C1([H])C([H])([H])C(C([H])([H])[H])=C(C([H])([H])Oc2c([H])c([H])c3c(c2[H])C([H])([H])N(C(=O)C([H])(N([H])C(=O)C([H])(N([H])C([H])([H])[H])C([H])([H])[H])C(C([H])([H])[H])(C([H])([H])[H])C([H])([H])[H])C([H])(C(=O)N([H])C2([H])c4c([H])c([H])c([H])c([H])c4C([H])([H])C([H])([H])C2([H])[H])C3([H])[H])C1([H])[H]

>  <smiles>  (13) 
[H]c1sc(N([H])C(=O)N2C([H])([H])C([H])([H])C([H])([H])C([H])(n3nc(-c4c([H])c([H])c(Oc5c([H])c([H])c(F)c([H])c5F)c([H])c4[H])c(C(=O)N([H])[H])c3N([H])[H])C2([H])[H])c([H])c1C1([H])C([H])([H])C(C([H])([H])[H])=C(C([H])([H])Oc2c([H])c([H])c3c(c2[H])C([H])([H])N(C(=O)C([H])(N([H])C(=O)C([H])(N([H])C([H])([H])[H])C([H])([H])[H])C(C([H])([H])[H])(C([H])([H])[H])C([H])([H])[H])C([H])(C(=O)N([H])C2([H])c4c([H])c([H])c([H])c([H])c4C([H])([H])C([H])([H])C2([H])[H])C3([H])[H])C1([H])[H]

$$$$
13:0:0
     RDKit          3D

 94103  0  0  1  0  0  0  0  0999 V2000
  -31.9010  -19.0560   21.4830 C   0  0  0  0  0  3  0  0  0  0  0  0
  -31.4730  -17.7450   21.1970 C   0  0  0  0  0  3  0  0  0  0  0  0
  -29.3930  -18.6860   20.3980 C   0  0  0  0  0  3  0  0  0  0  0  0
  -31.1090  -20.2070   21.2480 C   0  0  0  0  0  0  0  0  0  0  0  0
  -29.8070  -20.0800   20.6630 C   0  0  0  0  0  0  0  0  0  0  0  0
  -30.2080  -17.4830   20.6430 C   0  0  0  0  0  0  0  0  0  0  0  0
  -30.5660  -14.8730   20.2460 C   0  0  0  0  0  0  0  0  0  0  0  0
  -30.3590  -12.5960   19.2010 C   0  0  0  0  0  2  0  0  0  0  0  0
  -29.4000  -12.6490   17.9910 C   0  0  0  0  0  2  0  0  0  0  0  0
  -27.9400  -12.4560   18.4450 C   0  0  0  0  0  2  0  0  0  0  0  0
  -27.5760  -13.3260   19.6780 C   0  0  0  0  0  3  0  0  0  0  0  0
  -28.6580  -13.2600   20.7790 C   0  0  0  0  0  2  0  0  0  0  0  0
  -29.9290  -13.6490   20.1550 N   0  0  0  0  0  0  0  0  0  0  0  0
  -31.7590  -14.9330   19.9300 O   0  0  0  0  0  0  0  0  0  0  0  0
  -29.8100  -16.0430   20.4360 N   0  0  0  0  0  0  0  0  0  0  0  0
  -28.8160  -15.8740   20.4460 H   0  0  0  0  0  0  0  0  0  0  0  0
  -25.1950  -13.8840   20.4370 C   0  0  0  0  0  0  0  0  0  0  0  0
  -24.1450  -13.0980   20.8280 C   0  0  0  0  0  0  0  0  0  0  0  0
  -24.6240  -11.7530   20.7970 C   0  0  0  0  0  0  0  0  0  0  0  0
  -26.2460  -13.0180   20.1910 N   0  0  0  0  0  0  0  0  0  0  0  0
  -25.9120  -11.7310   20.4730 N   0  0  0  0  0  0  0  0  0  0  0  0
  -23.9150  -10.4830   21.0030 C   0  0  0  0  0  0  0  0  0  0  0  0
  -24.3740   -9.5210   21.9310 C   0  0  0  0  0  3  0  0  0  0  0  0
  -23.6630   -8.3180   22.1250 C   0  0  0  0  0  3  0  0  0  0  0  0
  -22.4770   -8.0670   21.3920 C   0  0  0  0  0  0  0  0  0  0  0  0
  -22.0390   -9.0160   20.4530 C   0  0  0  0  0  3  0  0  0  0  0  0
  -22.7510  -10.2120   20.2570 C   0  0  0  0  0  3  0  0  0  0  0  0
  -21.7370   -6.9140   21.4970 O   0  0  0  0  0  0  0  0  0  0  0  0
  -21.7240   -6.1690   22.6480 C   0  0  0  0  0  0  0  0  0  0  0  0
  -21.3190   -6.7140   23.8860 C   0  0  0  0  0  3  0  0  0  0  0  0
  -21.2560   -5.8950   25.0300 C   0  0  0  0  0  3  0  0  0  0  0  0
  -21.5840   -4.5280   24.9370 C   0  0  0  0  0  0  0  0  0  0  0  0
  -21.9810   -3.9810   23.7040 C   0  0  0  0  0  3  0  0  0  0  0  0
  -22.0470   -4.7980   22.5620 C   0  0  0  0  0  0  0  0  0  0  0  0
  -22.4100   -4.2610   21.3730 F   0  0  0  0  0  0  0  0  0  0  0  0
  -21.5140   -3.7390   26.0340 F   0  0  0  0  0  0  0  0  0  0  0  0
  -22.7440  -13.5600   21.1120 C   0  0  0  0  0  0  0  0  0  0  0  0
  -22.0350  -12.8610   21.9910 N   0  0  0  0  0  0  0  0  0  0  0  0
  -22.2870  -14.5760   20.5890 O   0  0  0  0  0  0  0  0  0  0  0  0
  -22.4180  -12.0410   22.4390 H   0  0  0  0  0  0  0  0  0  0  0  0
  -21.0950  -13.1500   22.2220 H   0  0  0  0  0  0  0  0  0  0  0  0
  -25.3350  -15.2570   20.2480 N   0  0  0  0  0  0  0  0  0  0  0  0
  -24.5510  -15.8920   20.3500 H   0  0  0  0  0  0  0  0  0  0  0  0
  -26.1590  -15.7040   19.8680 H   0  0  0  0  0  0  0  0  0  0  0  0
  -28.1550  -23.6640   20.7780 C   0  0  0  0  0  0  0  0  0  0  0  0
  -27.8190  -25.0270   20.8380 C   0  0  0  0  0  3  0  0  0  0  0  0
  -27.3030  -22.6620   21.5480 C   0  0  0  0  0  2  0  0  0  0  0  0
  -29.2200  -22.7270   20.0930 C   0  0  0  0  0  2  0  0  0  0  0  0
  -27.6280  -21.2290   21.0570 C   0  0  0  0  0  2  0  0  0  0  0  0
  -28.9440  -21.2590   20.4380 N   0  0  0  0  0  0  0  0  0  0  0  0
  -28.2640  -26.2900   20.3140 O   0  0  0  0  0  0  0  0  0  0  0  0
  -24.6920  -31.9480   23.2620 C   0  0  0  0  0  0  0  0  0  0  0  0
  -27.2610  -27.2950   20.2310 C   0  0  0  0  0  0  0  0  0  0  0  0
  -23.4920  -30.5590   21.6130 C   0  0  0  0  0  3  0  0  0  0  0  0
  -24.9410  -28.9950   20.1890 C   0  0  0  0  0  0  0  0  0  0  0  0
  -26.0400  -30.8340   21.4570 C   0  0  0  0  0  2  0  0  0  0  0  0
  -26.1140  -29.4480   20.8070 C   0  0  0  0  0  0  0  0  0  0  0  0
  -27.2830  -28.6080   20.8240 C   0  0  0  0  0  3  0  0  0  0  0  0
  -26.0730  -26.9310   19.5650 C   0  0  0  0  0  3  0  0  0  0  0  0
  -24.9260  -27.7450   19.5540 C   0  0  0  0  0  3  0  0  0  0  0  0
  -23.7150  -29.8880   20.2320 C   0  0  0  0  0  2  0  0  0  0  0  0
  -24.7590  -31.1330   22.1670 N   0  0  0  0  0  0  0  0  0  0  0  0
  -23.6060  -32.2380   23.7840 O   0  0  0  0  0  0  0  0  0  0  0  0
  -22.8070  -29.5500   22.5690 C   0  0  0  0  0  0  0  0  0  0  0  0
  -21.4800  -29.3900   22.4370 N   0  0  0  0  0  0  0  0  0  0  0  0
  -23.4730  -28.9160   23.3900 O   0  0  0  0  0  0  0  0  0  0  0  0
  -21.0010  -29.9550   21.7490 H   0  0  0  0  0  0  0  0  0  0  0  0
  -18.0840  -28.2370   22.9390 C   0  0  0  0  0  0  0  0  0  0  0  0
  -20.6460  -28.4610   23.2020 C   0  0  0  0  0  3  0  0  0  0  0  0
  -20.7250  -27.0300   22.6220 C   0  0  0  0  0  2  0  0  0  0  0  0
  -19.6170  -26.7280   21.6070 C   0  0  0  0  0  2  0  0  0  0  0  0
  -18.2380  -26.8890   22.2540 C   0  0  0  0  0  2  0  0  0  0  0  0
  -19.2130  -28.9800   23.3710 C   0  0  0  0  0  0  0  0  0  0  0  0
  -19.0140  -30.2410   23.9720 C   0  0  0  0  0  3  0  0  0  0  0  0
  -17.7170  -30.7600   24.1440 C   0  0  0  0  0  3  0  0  0  0  0  0
  -16.6020  -30.0140   23.7280 C   0  0  0  0  0  3  0  0  0  0  0  0
  -16.7840  -28.7530   23.1330 C   0  0  0  0  0  3  0  0  0  0  0  0
  -25.9740  -32.5720   23.8910 C   0  0  0  0  0  3  0  0  0  0  0  0
  -25.6690  -33.9720   24.2280 N   0  0  0  0  0  0  0  0  0  0  0  0
  -25.9800  -35.0260   23.4640 C   0  0  0  0  0  0  0  0  0  0  0  0
  -26.6230  -34.9260   22.4140 O   0  0  0  0  0  0  0  0  0  0  0  0
  -25.0950  -34.1230   25.0460 H   0  0  0  0  0  0  0  0  0  0  0  0
  -24.2240  -36.8050   23.1740 C   0  0  0  0  0  1  0  0  0  0  0  0
  -25.5020  -36.4140   23.9330 C   0  0  0  0  0  3  0  0  0  0  0  0
  -27.6640  -37.3170   24.6690 C   0  0  0  0  0  1  0  0  0  0  0  0
  -26.5220  -37.4730   23.7720 N   0  0  0  0  0  0  0  0  0  0  0  0
  -26.1180  -38.3900   23.9370 H   0  0  0  0  0  0  0  0  0  0  0  0
  -26.4790  -31.7940   25.1680 C   0  0  1  0  0  0  0  0  0  0  0  0
  -25.3810  -31.5670   26.2330 C   0  0  0  0  0  1  0  0  0  0  0  0
  -27.0500  -30.4100   24.7800 C   0  0  0  0  0  1  0  0  0  0  0  0
  -27.6350  -32.5760   25.8380 C   0  0  0  0  0  1  0  0  0  0  0  0
  -31.6800  -21.4940   21.7280 C   0  0  0  0  0  3  0  0  0  0  0  0
  -32.9130  -21.7940   21.7530 N   0  0  0  0  0  0  0  0  0  0  0  0
  -33.4910  -21.0520   21.3720 H   0  0  0  0  0  0  0  0  0  0  0  0
  2  1  2  0
  3  6  2  0
  3  5  1  0
  4  1  1  0
  4 92  1  0
  5  4  2  0
  6  2  1  0
  7 15  1  0
  8 13  1  0
  9 10  1  0
  9  8  1  0
 11 10  1  0
 11 20  1  0
 11 12  1  0
 13  7  1  0
 13 12  1  0
 14  7  2  0
 15 16  1  0
 15  6  1  0
 17 18  2  0
 18 37  1  0
 19 18  1  0
 19 22  1  0
 20 17  1  0
 20 21  1  0
 21 19  2  0
 22 23  1  0
 23 24  2  0
 25 28  1  0
 25 24  1  0
 26 25  2  0
 27 26  1  0
 27 22  2  0
 28 29  1  0
 29 30  1  0
 30 31  2  0
 32 31  1  0
 32 36  1  0
 33 32  2  0
 34 29  2  0
 34 33  1  0
 35 34  1  0
 37 38  1  0
 38 41  1  0
 38 40  1  0
 39 37  2  0
 42 43  1  0
 42 17  1  0
 44 42  1  0
 45 46  2  0
 45 47  1  0
 48 50  1  0
 48 45  1  0
 49 47  1  0
 50  5  1  0
 50 49  1  0
 51 46  1  0
 52 63  2  0
 53 51  1  0
 53 58  1  0
 54 62  1  0
 54 64  1  0
 55 61  1  0
 55 57  1  0
 56 62  1  0
 57 58  2  0
 57 56  1  0
 59 53  2  0
 60 59  1  0
 60 55  2  0
 61 54  1  0
 62 52  1  0
 64 66  2  0
 65 64  1  0
 67 65  1  0
 68 77  2  0
 68 73  1  0
 69 65  1  0
 69 73  1  0
 70 69  1  0
 71 72  1  0
 71 70  1  0
 72 68  1  0
 73 74  2  0
 74 75  1  0
 76 75  2  0
 77 76  1  0
 78 52  1  0
 78 79  1  0
 78 88  1  0
 79 82  1  0
 80 84  1  0
 80 79  1  0
 81 80  2  0
 84 83  1  0
 86 84  1  0
 86 87  1  0
 86 85  1  0
 88 91  1  1
 88 89  1  0
 90 88  1  0
 92 93  2  0
 94 93  1  0
M  ISO  4   7 100  15 100  46 101  51 101
M  END
>  <TORSDO>  (14) 
F 18

>  <SCORE>  (14) 
-14.581

>  <name>  (14) 
13

>  <ligand_id>  (14) 
13

>  <original_smiles>  (14) 
[H]N=C([H])c1c([H])c([H])c(N([H])C(=O)N2C([H])([H])C([H])([H])C([H])([H])C([H])(n3nc(-c4c([H])c([H])c(Oc5c([H])c([H])c(F)c([H])c5F)c([H])c4[H])c(C(=O)N([H])[H])c3N([H])[H])C2([H])[H])c([H])c1N1C([H])([H])C(=C([H])Oc2c([H])c([H])c3c(c2[H])C([H])([H])N(C(=O)C([H])(N([H])C(=O)C([H])(N([H])C([H])([H])[H])C([H])([H])[H])C(C([H])([H])[H])(C([H])([H])[H])C([H])([H])[H])C([H])(C(=O)N([H])C2([H])c4c([H])c([H])c([H])c([H])c4C([H])([H])C([H])([H])C2([H])[H])C3([H])[H])C([H])([H])C1([H])[H]

>  <smiles>  (14) 
[H]N=C([H])c1c([H])c([H])c(N([H])C(=O)N2C([H])([H])C([H])([H])C([H])([H])C([H])(n3nc(-c4c([H])c([H])c(Oc5c([H])c([H])c(F)c([H])c5F)c([H])c4[H])c(C(=O)N([H])[H])c3N([H])[H])C2([H])[H])c([H])c1N1C([H])([H])C(=C([H])Oc2c([H])c([H])c3c(c2[H])C([H])([H])N(C(=O)C([H])(N([H])C(=O)C([H])(N([H])C([H])([H])[H])C([H])([H])[H])C(C([H])([H])[H])(C([H])([H])[H])C([H])([H])[H])C([H])(C(=O)N([H])C2([H])c4c([H])c([H])c([H])c([H])c4C([H])([H])C([H])([H])C2([H])[H])C3([H])[H])C([H])([H])C1([H])[H]

$$$$
14:0:0
     RDKit          3D

 94102  0  0  1  0  0  0  0  0999 V2000
  -29.1170  -22.6860   18.8150 C   0  0  0  0  0  0  0  0  0  0  0  0
  -28.5560  -22.3220   17.7760 O   0  0  0  0  0  0  0  0  0  0  0  0
  -29.1220  -24.1530   19.2840 C   0  0  0  0  0  2  0  0  0  0  0  0
  -28.0140  -25.2170   17.1940 C   0  0  0  0  0  1  0  0  0  0  0  0
  -30.4990  -25.2120   17.4200 C   0  0  0  0  0  1  0  0  0  0  0  0
  -29.1750  -25.2960   18.2130 C   0  0  2  0  0  0  0  0  0  0  0  0
  -29.1520  -26.6830   18.9330 C   0  0  0  0  0  2  0  0  0  0  0  0
  -28.3790  -26.7140   20.1310 O   0  0  0  0  0  0  0  0  0  0  0  0
  -24.5930  -31.8770   23.2270 C   0  0  0  0  0  0  0  0  0  0  0  0
  -27.2310  -27.4650   20.1120 C   0  0  0  0  0  0  0  0  0  0  0  0
  -23.3800  -30.4770   21.5880 C   0  0  0  0  0  3  0  0  0  0  0  0
  -24.8300  -28.9470   20.1540 C   0  0  0  0  0  0  0  0  0  0  0  0
  -25.9030  -30.8460   21.3750 C   0  0  0  0  0  2  0  0  0  0  0  0
  -25.9900  -29.4770   20.7340 C   0  0  0  0  0  0  0  0  0  0  0  0
  -27.1960  -28.7400   20.7170 C   0  0  0  0  0  3  0  0  0  0  0  0
  -26.0500  -26.9320   19.5610 C   0  0  0  0  0  3  0  0  0  0  0  0
  -24.8530  -27.6700   19.5680 C   0  0  0  0  0  3  0  0  0  0  0  0
  -23.5830  -29.8010   20.2060 C   0  0  0  0  0  2  0  0  0  0  0  0
  -24.6440  -31.0800   22.1230 N   0  0  0  0  0  0  0  0  0  0  0  0
  -23.5150  -32.1460   23.7740 O   0  0  0  0  0  0  0  0  0  0  0  0
  -22.7350  -29.4530   22.5500 C   0  0  0  0  0  0  0  0  0  0  0  0
  -21.4100  -29.2710   22.4290 N   0  0  0  0  0  0  0  0  0  0  0  0
  -23.4240  -28.8250   23.3590 O   0  0  0  0  0  0  0  0  0  0  0  0
  -20.9180  -29.8300   21.7480 H   0  0  0  0  0  0  0  0  0  0  0  0
  -18.0380  -28.0780   22.9360 C   0  0  0  0  0  0  0  0  0  0  0  0
  -20.5970  -28.3320   23.2010 C   0  0  0  0  0  3  0  0  0  0  0  0
  -20.6960  -26.9020   22.6240 C   0  0  0  0  0  2  0  0  0  0  0  0
  -19.5910  -26.5820   21.6120 C   0  0  0  0  0  2  0  0  0  0  0  0
  -18.2110  -26.7290   22.2620 C   0  0  0  0  0  2  0  0  0  0  0  0
  -19.1590  -28.8390   23.3650 C   0  0  0  0  0  0  0  0  0  0  0  0
  -18.9440  -30.1030   23.9540 C   0  0  0  0  0  3  0  0  0  0  0  0
  -17.6410  -30.6070   24.1240 C   0  0  0  0  0  3  0  0  0  0  0  0
  -16.5350  -29.8440   23.7130 C   0  0  0  0  0  3  0  0  0  0  0  0
  -16.7340  -28.5820   23.1250 C   0  0  0  0  0  3  0  0  0  0  0  0
  -25.8830  -32.5070   23.8410 C   0  0  0  0  0  3  0  0  0  0  0  0
  -25.5740  -33.9020   24.1790 N   0  0  0  0  0  0  0  0  0  0  0  0
  -25.9030  -34.9580   23.4230 C   0  0  0  0  0  0  0  0  0  0  0  0
  -26.5690  -34.8600   22.3890 O   0  0  0  0  0  0  0  0  0  0  0  0
  -24.9830  -34.0520   24.9840 H   0  0  0  0  0  0  0  0  0  0  0  0
  -24.1720  -36.7500   23.0760 C   0  0  0  0  0  1  0  0  0  0  0  0
  -25.4140  -36.3440   23.8860 C   0  0  0  0  0  3  0  0  0  0  0  0
  -27.5500  -37.2240   24.7180 C   0  0  0  0  0  1  0  0  0  0  0  0
  -26.4460  -37.3980   23.7780 N   0  0  0  0  0  0  0  0  0  0  0  0
  -26.0400  -38.3180   23.9320 H   0  0  0  0  0  0  0  0  0  0  0  0
  -26.4150  -31.7280   25.1050 C   0  0  1  0  0  0  0  0  0  0  0  0
  -25.3340  -31.4790   26.1830 C   0  0  0  0  0  1  0  0  0  0  0  0
  -26.9960  -30.3550   24.6940 C   0  0  0  0  0  1  0  0  0  0  0  0
  -27.5710  -32.5190   25.7610 C   0  0  0  0  0  1  0  0  0  0  0  0
  -29.7730  -21.6420   19.7380 C   0  0  0  0  0  2  0  0  0  0  0  0
  -29.1100  -20.3380   19.6540 N   0  0  0  0  0  0  0  0  0  0  0  0
  -28.2120  -20.3480   19.1720 H   0  0  0  0  0  0  0  0  0  0  0  0
  -31.1710  -17.5840   21.0160 C   0  0  0  0  0  3  0  0  0  0  0  0
  -30.9530  -18.9460   20.6380 C   0  0  0  0  0  3  0  0  0  0  0  0
  -30.0760  -16.7730   20.8340 C   0  0  0  0  0  0  0  0  0  0  0  0
  -29.6900  -19.1710   20.1510 C   0  0  0  0  0  0  0  0  0  0  0  0
  -28.7380  -17.7080   20.2050 S   0  0  0  0  0  0  0  0  0  0  0  0
  -30.6570  -14.4610   20.5250 C   0  0  0  0  0  0  0  0  0  0  0  0
  -30.3730  -12.3130   19.3520 C   0  0  0  0  0  2  0  0  0  0  0  0
  -29.4370  -12.5440   18.1480 C   0  0  0  0  0  2  0  0  0  0  0  0
  -27.9590  -12.4080   18.5670 C   0  0  0  0  0  2  0  0  0  0  0  0
  -27.6180  -13.2260   19.8410 C   0  0  0  0  0  3  0  0  0  0  0  0
  -28.6650  -12.9750   20.9490 C   0  0  0  0  0  2  0  0  0  0  0  0
  -29.9970  -13.2790   20.3950 N   0  0  0  0  0  0  0  0  0  0  0  0
  -31.7830  -14.6610   20.0560 O   0  0  0  0  0  0  0  0  0  0  0  0
  -29.9340  -15.4450   21.0860 N   0  0  0  0  0  0  0  0  0  0  0  0
  -29.0180  -15.1470   21.3890 H   0  0  0  0  0  0  0  0  0  0  0  0
  -25.2120  -13.8370   20.5290 C   0  0  0  0  0  0  0  0  0  0  0  0
  -24.1420  -13.0640   20.8950 C   0  0  0  0  0  0  0  0  0  0  0  0
  -24.6050  -11.7130   20.8720 C   0  0  0  0  0  0  0  0  0  0  0  0
  -26.2600  -12.9550   20.3080 N   0  0  0  0  0  0  0  0  0  0  0  0
  -25.8960  -11.6730   20.5700 N   0  0  0  0  0  0  0  0  0  0  0  0
  -23.8790  -10.4510   21.0620 C   0  0  0  0  0  0  0  0  0  0  0  0
  -24.3180   -9.4800   21.9890 C   0  0  0  0  0  3  0  0  0  0  0  0
  -23.5940   -8.2810   22.1680 C   0  0  0  0  0  3  0  0  0  0  0  0
  -22.4160   -8.0450   21.4200 C   0  0  0  0  0  0  0  0  0  0  0  0
  -21.9960   -9.0050   20.4820 C   0  0  0  0  0  3  0  0  0  0  0  0
  -22.7210  -10.1960   20.3020 C   0  0  0  0  0  3  0  0  0  0  0  0
  -21.6620   -6.9000   21.5080 O   0  0  0  0  0  0  0  0  0  0  0  0
  -21.6330   -6.1440   22.6530 C   0  0  0  0  0  0  0  0  0  0  0  0
  -21.2380   -6.6870   23.8960 C   0  0  0  0  0  3  0  0  0  0  0  0
  -21.1550   -5.8580   25.0320 C   0  0  0  0  0  3  0  0  0  0  0  0
  -21.4580   -4.4870   24.9260 C   0  0  0  0  0  0  0  0  0  0  0  0
  -21.8450   -3.9430   23.6890 C   0  0  0  0  0  3  0  0  0  0  0  0
  -21.9290   -4.7700   22.5550 C   0  0  0  0  0  0  0  0  0  0  0  0
  -22.2830   -4.2370   21.3610 F   0  0  0  0  0  0  0  0  0  0  0  0
  -21.3700   -3.6880   26.0160 F   0  0  0  0  0  0  0  0  0  0  0  0
  -22.7420  -13.5400   21.1580 C   0  0  0  0  0  0  0  0  0  0  0  0
  -22.0090  -12.8460   22.0220 N   0  0  0  0  0  0  0  0  0  0  0  0
  -22.3060  -14.5630   20.6320 O   0  0  0  0  0  0  0  0  0  0  0  0
  -22.3730  -12.0200   22.4720 H   0  0  0  0  0  0  0  0  0  0  0  0
  -21.0690  -13.1470   22.2360 H   0  0  0  0  0  0  0  0  0  0  0  0
  -25.3750  -15.2070   20.3460 N   0  0  0  0  0  0  0  0  0  0  0  0
  -24.6010  -15.8570   20.4360 H   0  0  0  0  0  0  0  0  0  0  0  0
  -26.2220  -15.6480   20.0090 H   0  0  0  0  0  0  0  0  0  0  0  0
  1  3  1  0
  1 49  1  0
  2  1  2  0
  6  4  1  6
  5  6  1  0
  6  7  1  0
  6  3  1  0
  7  8  1  0
  9 20  2  0
 10  8  1  0
 10 15  1  0
 11 19  1  0
 11 21  1  0
 12 18  1  0
 12 14  1  0
 13 19  1  0
 14 13  1  0
 15 14  2  0
 16 17  1  0
 16 10  2  0
 17 12  2  0
 18 11  1  0
 19  9  1  0
 21 23  2  0
 22 21  1  0
 24 22  1  0
 25 34  2  0
 25 30  1  0
 26 22  1  0
 26 30  1  0
 27 26  1  0
 28 29  1  0
 28 27  1  0
 29 25  1  0
 30 31  2  0
 31 32  1  0
 33 32  2  0
 34 33  1  0
 35  9  1  0
 35 36  1  0
 35 45  1  0
 36 39  1  0
 37 41  1  0
 37 36  1  0
 38 37  2  0
 41 40  1  0
 43 41  1  0
 43 44  1  0
 43 42  1  0
 45 48  1  1
 45 46  1  0
 47 45  1  0
 50 49  1  0
 50 55  1  0
 51 50  1  0
 53 52  1  0
 54 52  2  0
 54 65  1  0
 55 56  1  0
 55 53  2  0
 56 54  1  0
 57 65  1  0
 58 63  1  0
 59 60  1  0
 59 58  1  0
 61 60  1  0
 61 70  1  0
 61 62  1  0
 63 57  1  0
 63 62  1  0
 64 57  2  0
 65 66  1  0
 67 68  2  0
 68 87  1  0
 69 68  1  0
 69 72  1  0
 70 67  1  0
 70 71  1  0
 71 69  2  0
 72 73  1  0
 73 74  2  0
 75 78  1  0
 75 74  1  0
 76 75  2  0
 77 76  1  0
 77 72  2  0
 78 79  1  0
 79 80  1  0
 80 81  2  0
 82 81  1  0
 82 86  1  0
 83 82  2  0
 84 79  2  0
 84 83  1  0
 85 84  1  0
 87 88  1  0
 88 91  1  0
 88 90  1  0
 89 87  2  0
 92 93  1  0
 92 67  1  0
 94 92  1  0
M  ISO  4   7 101   8 101  57 100  65 100
M  END
>  <TORSDO>  (15) 
F 22

>  <SCORE>  (15) 
-13.285

>  <name>  (15) 
14

>  <ligand_id>  (15) 
14

>  <original_smiles>  (15) 
[H]c1c(N([H])C(=O)N2C([H])([H])C([H])([H])C([H])([H])C([H])(n3nc(-c4c([H])c([H])c(Oc5c([H])c([H])c(F)c([H])c5F)c([H])c4[H])c(C(=O)N([H])[H])c3N([H])[H])C2([H])[H])sc(N([H])C([H])([H])C(=O)C([H])([H])C(C([H])([H])[H])(C([H])([H])[H])C([H])([H])Oc2c([H])c([H])c3c(c2[H])C([H])([H])N(C(=O)C([H])(N([H])C(=O)C([H])(N([H])C([H])([H])[H])C([H])([H])[H])C(C([H])([H])[H])(C([H])([H])[H])C([H])([H])[H])C([H])(C(=O)N([H])C2([H])c4c([H])c([H])c([H])c([H])c4C([H])([H])C([H])([H])C2([H])[H])C3([H])[H])c1[H]

>  <smiles>  (15) 
[H]c1c(N([H])C(=O)N2C([H])([H])C([H])([H])C([H])([H])C([H])(n3nc(-c4c([H])c([H])c(Oc5c([H])c([H])c(F)c([H])c5F)c([H])c4[H])c(C(=O)N([H])[H])c3N([H])[H])C2([H])[H])sc(N([H])C([H])([H])C(=O)C([H])([H])C(C([H])([H])[H])(C([H])([H])[H])C([H])([H])Oc2c([H])c([H])c3c(c2[H])C([H])([H])N(C(=O)C([H])(N([H])C(=O)C([H])(N([H])C([H])([H])[H])C([H])([H])[H])C(C([H])([H])[H])(C([H])([H])[H])C([H])([H])[H])C([H])(C(=O)N([H])C2([H])c4c([H])c([H])c([H])c([H])c4C([H])([H])C([H])([H])C2([H])[H])C3([H])[H])c1[H]

$$$$
15:0:0
     RDKit          3D

 95104  0  0  1  0  0  0  0  0999 V2000
  -29.4700  -22.7770   19.9540 C   0  0  0  0  0  3  0  0  0  0  0  0
  -29.3390  -24.1330   20.2380 C   0  0  0  0  0  0  0  0  0  0  0  0
  -30.9930  -20.6820   20.0590 C   0  0  0  0  0  3  0  0  0  0  0  0
  -30.4960  -24.9380   20.8180 C   0  0  0  0  0  2  0  0  0  0  0  0
  -31.6980  -24.0650   21.1670 C   0  0  0  0  0  2  0  0  0  0  0  0
  -31.8900  -23.0000   20.0870 C   0  0  0  0  0  2  0  0  0  0  0  0
  -30.7180  -22.0680   20.0500 N   0  0  0  0  0  0  0  0  0  0  0  0
  -32.2820  -20.3080   20.1470 N   0  0  0  0  0  0  0  0  0  0  0  0
  -32.5130  -19.3310   20.2270 H   0  0  0  0  0  0  0  0  0  0  0  0
  -33.0350  -20.9750   20.1820 H   0  0  0  0  0  0  0  0  0  0  0  0
  -30.6440  -18.0780   19.9800 C   0  0  0  0  0  3  0  0  0  0  0  0
  -28.7650  -19.4660   20.2520 C   0  0  0  0  0  3  0  0  0  0  0  0
  -30.1130  -19.4520   20.0360 C   0  0  0  0  0  0  0  0  0  0  0  0
  -29.7120  -17.0690   20.2190 C   0  0  0  0  0  0  0  0  0  0  0  0
  -28.1390  -17.8360   20.4030 S   0  0  0  0  0  0  0  0  0  0  0  0
  -30.6160  -14.6770   19.9910 C   0  0  0  0  0  0  0  0  0  0  0  0
  -30.4470  -12.3620   19.0790 C   0  0  0  0  0  2  0  0  0  0  0  0
  -29.4440  -12.3830   17.9010 C   0  0  0  0  0  2  0  0  0  0  0  0
  -27.9910  -12.2340   18.4010 C   0  0  0  0  0  2  0  0  0  0  0  0
  -27.6700  -13.1760   19.5910 C   0  0  0  0  0  3  0  0  0  0  0  0
  -28.7730  -13.0860   20.6690 C   0  0  0  0  0  2  0  0  0  0  0  0
  -30.0530  -13.4250   20.0230 N   0  0  0  0  0  0  0  0  0  0  0  0
  -31.7480  -14.8680   19.5350 O   0  0  0  0  0  0  0  0  0  0  0  0
  -29.7600  -15.6860   20.3480 N   0  0  0  0  0  0  0  0  0  0  0  0
  -28.9040  -15.3000   20.7170 H   0  0  0  0  0  0  0  0  0  0  0  0
  -25.3370  -13.8270   20.4550 C   0  0  0  0  0  0  0  0  0  0  0  0
  -24.2710  -13.0750   20.8670 C   0  0  0  0  0  0  0  0  0  0  0  0
  -24.6910  -11.7120   20.7760 C   0  0  0  0  0  0  0  0  0  0  0  0
  -26.3410  -12.9230   20.1420 N   0  0  0  0  0  0  0  0  0  0  0  0
  -25.9590  -11.6450   20.3930 N   0  0  0  0  0  0  0  0  0  0  0  0
  -23.9400  -10.4650   20.9760 C   0  0  0  0  0  0  0  0  0  0  0  0
  -24.3740   -9.4810   21.8900 C   0  0  0  0  0  3  0  0  0  0  0  0
  -23.6270   -8.2990   22.0780 C   0  0  0  0  0  3  0  0  0  0  0  0
  -22.4310   -8.0920   21.3490 C   0  0  0  0  0  0  0  0  0  0  0  0
  -22.0160   -9.0650   20.4230 C   0  0  0  0  0  3  0  0  0  0  0  0
  -22.7630  -10.2390   20.2340 C   0  0  0  0  0  3  0  0  0  0  0  0
  -21.6540   -6.9640   21.4470 O   0  0  0  0  0  0  0  0  0  0  0  0
  -21.5790   -6.2400   22.6110 C   0  0  0  0  0  0  0  0  0  0  0  0
  -21.1180   -6.8130   23.8160 C   0  0  0  0  0  3  0  0  0  0  0  0
  -20.9910   -6.0150   24.9700 C   0  0  0  0  0  3  0  0  0  0  0  0
  -21.3160   -4.6460   24.9200 C   0  0  0  0  0  0  0  0  0  0  0  0
  -21.7700   -4.0730   23.7190 C   0  0  0  0  0  3  0  0  0  0  0  0
  -21.8980   -4.8680   22.5670 C   0  0  0  0  0  0  0  0  0  0  0  0
  -22.3160   -4.3070   21.4080 F   0  0  0  0  0  0  0  0  0  0  0  0
  -21.1850   -3.8780   26.0280 F   0  0  0  0  0  0  0  0  0  0  0  0
  -22.9040  -13.5830   21.2280 C   0  0  0  0  0  0  0  0  0  0  0  0
  -22.2100  -12.8900   22.1240 N   0  0  0  0  0  0  0  0  0  0  0  0
  -22.4650  -14.6290   20.7520 O   0  0  0  0  0  0  0  0  0  0  0  0
  -22.5780  -12.0440   22.5310 H   0  0  0  0  0  0  0  0  0  0  0  0
  -21.2940  -13.2120   22.4070 H   0  0  0  0  0  0  0  0  0  0  0  0
  -25.5270  -15.1960   20.3010 N   0  0  0  0  0  0  0  0  0  0  0  0
  -24.7770  -15.8600   20.4590 H   0  0  0  0  0  0  0  0  0  0  0  0
  -26.3540  -15.6250   19.9040 H   0  0  0  0  0  0  0  0  0  0  0  0
  -28.0800  -25.0360   19.9910 C   0  0  0  0  0  2  0  0  0  0  0  0
  -28.2570  -26.5040   20.1590 O   0  0  0  0  0  0  0  0  0  0  0  0
  -24.5830  -31.8960   23.2370 C   0  0  0  0  0  0  0  0  0  0  0  0
  -27.1270  -27.3370   20.1300 C   0  0  0  0  0  0  0  0  0  0  0  0
  -23.3430  -30.5070   21.6130 C   0  0  0  0  0  3  0  0  0  0  0  0
  -24.7630  -28.9520   20.1600 C   0  0  0  0  0  0  0  0  0  0  0  0
  -25.8790  -30.8190   21.3820 C   0  0  0  0  0  2  0  0  0  0  0  0
  -25.9440  -29.4400   20.7350 C   0  0  0  0  0  0  0  0  0  0  0  0
  -27.1280  -28.6470   20.7060 C   0  0  0  0  0  3  0  0  0  0  0  0
  -25.9210  -26.8980   19.5370 C   0  0  0  0  0  3  0  0  0  0  0  0
  -24.7540  -27.6880   19.5510 C   0  0  0  0  0  3  0  0  0  0  0  0
  -23.5310  -29.8310   20.2290 C   0  0  0  0  0  2  0  0  0  0  0  0
  -24.6220  -31.0910   22.1350 N   0  0  0  0  0  0  0  0  0  0  0  0
  -23.5100  -32.1760   23.7920 O   0  0  0  0  0  0  0  0  0  0  0  0
  -22.6910  -29.4930   22.5840 C   0  0  0  0  0  0  0  0  0  0  0  0
  -21.3680  -29.3010   22.4580 N   0  0  0  0  0  0  0  0  0  0  0  0
  -23.3760  -28.8820   23.4090 O   0  0  0  0  0  0  0  0  0  0  0  0
  -20.8740  -29.8470   21.7660 H   0  0  0  0  0  0  0  0  0  0  0  0
  -18.0040  -28.0670   22.9560 C   0  0  0  0  0  0  0  0  0  0  0  0
  -20.5570  -28.3630   23.2370 C   0  0  0  0  0  3  0  0  0  0  0  0
  -20.6800  -26.9250   22.6810 C   0  0  0  0  0  2  0  0  0  0  0  0
  -19.5890  -26.5760   21.6630 C   0  0  0  0  0  2  0  0  0  0  0  0
  -18.2020  -26.7120   22.2970 C   0  0  0  0  0  2  0  0  0  0  0  0
  -19.1100  -28.8480   23.3820 C   0  0  0  0  0  0  0  0  0  0  0  0
  -18.8720  -30.1150   23.9580 C   0  0  0  0  0  3  0  0  0  0  0  0
  -17.5600  -30.6020   24.1100 C   0  0  0  0  0  3  0  0  0  0  0  0
  -16.4680  -29.8170   23.7010 C   0  0  0  0  0  3  0  0  0  0  0  0
  -16.6910  -28.5510   23.1300 C   0  0  0  0  0  3  0  0  0  0  0  0
  -25.8790  -32.5200   23.8390 C   0  0  0  0  0  3  0  0  0  0  0  0
  -25.5890  -33.9270   24.1570 N   0  0  0  0  0  0  0  0  0  0  0  0
  -25.8980  -34.9650   23.3670 C   0  0  0  0  0  0  0  0  0  0  0  0
  -26.5260  -34.8380   22.3130 O   0  0  0  0  0  0  0  0  0  0  0  0
  -25.0310  -34.0980   24.9800 H   0  0  0  0  0  0  0  0  0  0  0  0
  -24.1550  -36.7510   23.0630 C   0  0  0  0  0  1  0  0  0  0  0  0
  -25.4370  -36.3650   23.8170 C   0  0  0  0  0  3  0  0  0  0  0  0
  -27.6090  -37.2690   24.5200 C   0  0  0  0  0  1  0  0  0  0  0  0
  -26.4630  -37.4130   23.6260 N   0  0  0  0  0  0  0  0  0  0  0  0
  -26.0660  -38.3370   23.7660 H   0  0  0  0  0  0  0  0  0  0  0  0
  -26.3980  -31.7590   25.1210 C   0  0  1  0  0  0  0  0  0  0  0  0
  -25.3110  -31.5420   26.1990 C   0  0  0  0  0  1  0  0  0  0  0  0
  -26.9660  -30.3730   24.7380 C   0  0  0  0  0  1  0  0  0  0  0  0
  -27.5590  -32.5500   25.7660 C   0  0  0  0  0  1  0  0  0  0  0  0
  1  7  1  0
  1  2  2  0
  2  4  1  0
  3  8  1  0
  4  5  1  0
  6  5  1  0
  7  3  1  0
  7  6  1  0
  8 10  1  0
  8  9  1  0
 11 13  1  0
 11 14  2  0
 12 15  1  0
 13  3  1  0
 13 12  2  0
 14 24  1  0
 14 15  1  0
 16 22  1  0
 16 24  1  0
 17 22  1  0
 18 19  1  0
 18 17  1  0
 20 19  1  0
 20 29  1  0
 20 21  1  0
 22 21  1  0
 23 16  2  0
 24 25  1  0
 26 27  2  0
 27 46  1  0
 28 27  1  0
 28 31  1  0
 29 30  1  0
 29 26  1  0
 30 28  2  0
 31 32  1  0
 32 33  2  0
 34 37  1  0
 34 33  1  0
 35 34  2  0
 36 35  1  0
 36 31  2  0
 37 38  1  0
 38 39  1  0
 39 40  2  0
 41 40  1  0
 41 45  1  0
 42 41  2  0
 43 38  2  0
 43 42  1  0
 44 43  1  0
 46 47  1  0
 47 50  1  0
 47 49  1  0
 48 46  2  0
 51 26  1  0
 51 52  1  0
 53 51  1  0
 54 55  1  0
 54  2  1  0
 56 67  2  0
 57 55  1  0
 57 62  1  0
 58 66  1  0
 58 68  1  0
 59 65  1  0
 59 61  1  0
 60 66  1  0
 61 60  1  0
 62 61  2  0
 63 64  1  0
 63 57  2  0
 64 59  2  0
 65 58  1  0
 66 56  1  0
 68 70  2  0
 69 68  1  0
 71 69  1  0
 72 81  2  0
 72 77  1  0
 73 69  1  0
 73 77  1  0
 74 73  1  0
 75 76  1  0
 75 74  1  0
 76 72  1  0
 77 78  2  0
 78 79  1  0
 80 79  2  0
 81 80  1  0
 82 56  1  0
 82 83  1  0
 82 92  1  0
 83 86  1  0
 84 88  1  0
 84 83  1  0
 85 84  2  0
 88 87  1  0
 90 91  1  0
 90 88  1  0
 90 89  1  0
 92 95  1  1
 92 93  1  0
 94 92  1  0
M  ISO  4  16 100  24 100  54 101  55 101
M  END
>  <TORSDO>  (16) 
F 18

>  <SCORE>  (16) 
-14.211

>  <name>  (16) 
15

>  <ligand_id>  (16) 
15

>  <original_smiles>  (16) 
[H]C1=C(C([H])([H])Oc2c([H])c([H])c3c(c2[H])C([H])([H])N(C(=O)C([H])(N([H])C(=O)C([H])(N([H])C([H])([H])[H])C([H])([H])[H])C(C([H])([H])[H])(C([H])([H])[H])C([H])([H])[H])C([H])(C(=O)N([H])C2([H])c4c([H])c([H])c([H])c([H])c4C([H])([H])C([H])([H])C2([H])[H])C3([H])[H])C([H])([H])C([H])([H])C([H])([H])N1C(c1c([H])sc(N([H])C(=O)N2C([H])([H])C([H])([H])C([H])([H])C([H])(n3nc(-c4c([H])c([H])c(Oc5c([H])c([H])c(F)c([H])c5F)c([H])c4[H])c(C(=O)N([H])[H])c3N([H])[H])C2([H])[H])c1[H])=[N+]([H])[H]

>  <smiles>  (16) 
[H]C1=C(C([H])([H])Oc2c([H])c([H])c3c(c2[H])C([H])([H])N(C(=O)C([H])(N([H])C(=O)C([H])(N([H])C([H])([H])[H])C([H])([H])[H])C(C([H])([H])[H])(C([H])([H])[H])C([H])([H])[H])C([H])(C(=O)N([H])C2([H])c4c([H])c([H])c([H])c([H])c4C([H])([H])C([H])([H])C2([H])[H])C3([H])[H])C([H])([H])C([H])([H])C([H])([H])N1C(c1c([H])sc(N([H])C(=O)N2C([H])([H])C([H])([H])C([H])([H])C([H])(n3nc(-c4c([H])c([H])c(Oc5c([H])c([H])c(F)c([H])c5F)c([H])c4[H])c(C(=O)N([H])[H])c3N([H])[H])C2([H])[H])c1[H])=[N+]([H])[H]

$$$$
16:0:0
     RDKit          3D

 91100  0  0  1  0  0  0  0  0999 V2000
  -29.8020  -19.8870   20.7940 C   0  0  0  0  0  3  0  0  0  0  0  0
  -28.4740  -20.6730   19.0840 C   0  0  0  0  0  3  0  0  0  0  0  0
  -29.0500  -21.0450   20.2760 C   0  0  0  0  0  0  0  0  0  0  0  0
  -29.8080  -18.7040   20.0280 C   0  0  0  0  0  0  0  0  0  0  0  0
  -28.8170  -19.0050   18.6210 S   0  0  0  0  0  0  0  0  0  0  0  0
  -30.6610  -14.8040   20.0100 C   0  0  0  0  0  0  0  0  0  0  0  0
  -30.2990  -12.5770   18.9260 C   0  0  0  0  0  2  0  0  0  0  0  0
  -29.2880  -12.6810   17.7650 C   0  0  0  0  0  2  0  0  0  0  0  0
  -27.8510  -12.5000   18.2860 C   0  0  0  0  0  2  0  0  0  0  0  0
  -27.5610  -13.3540   19.5480 C   0  0  0  0  0  3  0  0  0  0  0  0
  -28.6910  -13.2480   20.5920 C   0  0  0  0  0  2  0  0  0  0  0  0
  -29.9510  -13.6200   19.9270 N   0  0  0  0  0  0  0  0  0  0  0  0
  -31.7720  -14.8490   19.4760 O   0  0  0  0  0  0  0  0  0  0  0  0
  -31.1530  -16.8880   22.4440 C   0  0  0  0  0  2  0  0  0  0  0  0
  -31.7680  -17.5260   21.1960 C   0  0  0  0  0  2  0  0  0  0  0  0
  -29.9230  -16.1140   21.9350 C   0  0  0  0  0  2  0  0  0  0  0  0
  -30.6690  -17.3730   20.1360 C   0  0  0  0  0  3  0  0  0  0  0  0
  -30.0860  -15.9940   20.4820 N   0  0  0  0  0  0  0  0  0  0  0  0
  -25.2280  -13.9070   20.4570 C   0  0  0  0  0  0  0  0  0  0  0  0
  -24.1930  -13.1170   20.8740 C   0  0  0  0  0  0  0  0  0  0  0  0
  -24.6580  -11.7690   20.7740 C   0  0  0  0  0  0  0  0  0  0  0  0
  -26.2570  -13.0430   20.1230 N   0  0  0  0  0  0  0  0  0  0  0  0
  -25.9260  -11.7490   20.3770 N   0  0  0  0  0  0  0  0  0  0  0  0
  -23.9510  -10.4980   20.9780 C   0  0  0  0  0  0  0  0  0  0  0  0
  -24.4000   -9.5450   21.9180 C   0  0  0  0  0  3  0  0  0  0  0  0
  -23.6920   -8.3400   22.1100 C   0  0  0  0  0  3  0  0  0  0  0  0
  -22.5210   -8.0770   21.3610 C   0  0  0  0  0  0  0  0  0  0  0  0
  -22.0920   -9.0180   20.4090 C   0  0  0  0  0  3  0  0  0  0  0  0
  -22.8000  -10.2160   20.2150 C   0  0  0  0  0  3  0  0  0  0  0  0
  -21.7840   -6.9220   21.4600 O   0  0  0  0  0  0  0  0  0  0  0  0
  -21.6880   -6.2290   22.6410 C   0  0  0  0  0  0  0  0  0  0  0  0
  -21.1650   -6.8200   23.8120 C   0  0  0  0  0  3  0  0  0  0  0  0
  -21.0200   -6.0500   24.9830 C   0  0  0  0  0  3  0  0  0  0  0  0
  -21.3880   -4.6910   24.9840 C   0  0  0  0  0  0  0  0  0  0  0  0
  -21.9020   -4.0990   23.8170 C   0  0  0  0  0  3  0  0  0  0  0  0
  -22.0500   -4.8660   22.6490 C   0  0  0  0  0  0  0  0  0  0  0  0
  -22.5260   -4.2870   21.5210 F   0  0  0  0  0  0  0  0  0  0  0  0
  -21.2410   -3.9490   26.1070 F   0  0  0  0  0  0  0  0  0  0  0  0
  -22.8160  -13.5780   21.2520 C   0  0  0  0  0  0  0  0  0  0  0  0
  -22.1480  -12.8490   22.1380 N   0  0  0  0  0  0  0  0  0  0  0  0
  -22.3440  -14.6210   20.7980 O   0  0  0  0  0  0  0  0  0  0  0  0
  -22.5440  -12.0070   22.5290 H   0  0  0  0  0  0  0  0  0  0  0  0
  -21.2250  -13.1390   22.4320 H   0  0  0  0  0  0  0  0  0  0  0  0
  -25.3760  -15.2830   20.3090 N   0  0  0  0  0  0  0  0  0  0  0  0
  -24.6200  -15.9320   20.4980 H   0  0  0  0  0  0  0  0  0  0  0  0
  -26.2110  -15.7390   19.9610 H   0  0  0  0  0  0  0  0  0  0  0  0
  -28.7650  -22.4230   21.0090 C   0  0  0  0  0  2  0  0  0  0  0  0
  -29.0540  -23.8290   20.2970 C   0  0  0  0  0  0  0  0  0  0  0  0
  -30.1680  -24.0590   19.8110 O   0  0  0  0  0  0  0  0  0  0  0  0
  -27.9110  -24.9460   20.2270 C   0  0  0  0  0  2  0  0  0  0  0  0
  -28.2490  -26.4170   20.2610 O   0  0  0  0  0  0  0  0  0  0  0  0
  -24.5230  -31.9250   23.2330 C   0  0  0  0  0  0  0  0  0  0  0  0
  -27.1580  -27.3200   20.2070 C   0  0  0  0  0  0  0  0  0  0  0  0
  -23.3330  -30.5120   21.6030 C   0  0  0  0  0  3  0  0  0  0  0  0
  -24.7930  -28.9620   20.1910 C   0  0  0  0  0  0  0  0  0  0  0  0
  -25.8790  -30.8290   21.4280 C   0  0  0  0  0  2  0  0  0  0  0  0
  -25.9650  -29.4450   20.7850 C   0  0  0  0  0  0  0  0  0  0  0  0
  -27.1520  -28.6390   20.7810 C   0  0  0  0  0  3  0  0  0  0  0  0
  -25.9570  -26.9130   19.5800 C   0  0  0  0  0  3  0  0  0  0  0  0
  -24.7950  -27.7020   19.5780 C   0  0  0  0  0  3  0  0  0  0  0  0
  -23.5540  -29.8340   20.2280 C   0  0  0  0  0  2  0  0  0  0  0  0
  -24.5970  -31.1060   22.1430 N   0  0  0  0  0  0  0  0  0  0  0  0
  -23.4360  -32.2000   23.7630 O   0  0  0  0  0  0  0  0  0  0  0  0
  -22.6720  -29.4950   22.5650 C   0  0  0  0  0  0  0  0  0  0  0  0
  -21.3510  -29.2930   22.4220 N   0  0  0  0  0  0  0  0  0  0  0  0
  -23.3480  -28.8930   23.4040 O   0  0  0  0  0  0  0  0  0  0  0  0
  -20.8590  -29.8320   21.7220 H   0  0  0  0  0  0  0  0  0  0  0  0
  -17.9890  -28.0400   22.9030 C   0  0  0  0  0  0  0  0  0  0  0  0
  -20.5400  -28.3510   23.1980 C   0  0  0  0  0  3  0  0  0  0  0  0
  -20.6750  -26.9130   22.6460 C   0  0  0  0  0  2  0  0  0  0  0  0
  -19.5910  -26.5550   21.6230 C   0  0  0  0  0  2  0  0  0  0  0  0
  -18.1990  -26.6850   22.2490 C   0  0  0  0  0  2  0  0  0  0  0  0
  -19.0890  -28.8280   23.3370 C   0  0  0  0  0  0  0  0  0  0  0  0
  -18.8410  -30.0930   23.9120 C   0  0  0  0  0  3  0  0  0  0  0  0
  -17.5260  -30.5740   24.0540 C   0  0  0  0  0  3  0  0  0  0  0  0
  -16.4400  -29.7840   23.6380 C   0  0  0  0  0  3  0  0  0  0  0  0
  -16.6730  -28.5190   23.0700 C   0  0  0  0  0  3  0  0  0  0  0  0
  -25.7990  -32.5720   23.8540 C   0  0  0  0  0  3  0  0  0  0  0  0
  -26.3170  -31.8150   25.1380 C   0  0  1  0  0  0  0  0  0  0  0  0
  -25.2130  -31.5500   26.1890 C   0  0  0  0  0  1  0  0  0  0  0  0
  -26.9390  -30.4500   24.7610 C   0  0  0  0  0  1  0  0  0  0  0  0
  -27.4390  -32.6380   25.8120 C   0  0  0  0  0  1  0  0  0  0  0  0
  -25.4770  -33.9690   24.1730 N   0  0  0  0  0  0  0  0  0  0  0  0
  -25.8060  -35.0200   23.4110 C   0  0  0  0  0  0  0  0  0  0  0  0
  -26.4820  -34.9170   22.3830 O   0  0  0  0  0  0  0  0  0  0  0  0
  -24.8700  -34.1240   24.9650 H   0  0  0  0  0  0  0  0  0  0  0  0
  -24.0720  -36.8070   23.0420 C   0  0  0  0  0  1  0  0  0  0  0  0
  -25.3110  -36.4100   23.8610 C   0  0  0  0  0  3  0  0  0  0  0  0
  -27.4370  -37.3090   24.6980 C   0  0  0  0  0  1  0  0  0  0  0  0
  -26.3390  -37.4670   23.7500 N   0  0  0  0  0  0  0  0  0  0  0  0
  -25.9260  -38.3840   23.8920 H   0  0  0  0  0  0  0  0  0  0  0  0
  2  3  2  0
  3  1  1  0
  3 47  1  0
  4  1  2  0
  5  2  1  0
  5  4  1  0
  6 18  1  0
  7 12  1  0
  8  9  1  0
  8  7  1  0
 10  9  1  0
 10 22  1  0
 10 11  1  0
 12  6  1  0
 12 11  1  0
 13  6  2  0
 15 14  1  0
 16 14  1  0
 17  4  1  0
 17 18  1  0
 17 15  1  0
 18 16  1  0
 19 20  2  0
 20 39  1  0
 21 20  1  0
 21 24  1  0
 22 23  1  0
 22 19  1  0
 23 21  2  0
 24 25  1  0
 25 26  2  0
 27 30  1  0
 27 26  1  0
 28 27  2  0
 29 28  1  0
 29 24  2  0
 30 31  1  0
 31 36  2  0
 31 32  1  0
 32 33  2  0
 33 34  1  0
 34 38  1  0
 35 34  2  0
 36 35  1  0
 37 36  1  0
 39 40  1  0
 40 43  1  0
 40 42  1  0
 41 39  2  0
 44 19  1  0
 44 45  1  0
 46 44  1  0
 48 47  1  0
 49 48  2  0
 50 51  1  0
 50 48  1  0
 52 63  2  0
 53 51  1  0
 53 58  1  0
 54 62  1  0
 54 64  1  0
 55 61  1  0
 55 57  1  0
 56 62  1  0
 57 56  1  0
 58 57  2  0
 59 53  2  0
 60 59  1  0
 60 55  2  0
 61 54  1  0
 62 52  1  0
 64 66  2  0
 65 64  1  0
 67 65  1  0
 68 77  2  0
 68 73  1  0
 69 65  1  0
 69 73  1  0
 70 69  1  0
 71 72  1  0
 71 70  1  0
 72 68  1  0
 73 74  2  0
 74 75  1  0
 76 75  2  0
 77 76  1  0
 78 52  1  0
 78 83  1  0
 78 79  1  0
 79 82  1  1
 79 80  1  0
 81 79  1  0
 83 86  1  0
 84 88  1  0
 84 83  1  0
 85 84  2  0
 88 87  1  0
 90 88  1  0
 90 91  1  0
 90 89  1  0
M  ISO  4   6 100  18 100  50 101  51 101
M  END
>  <TORSDO>  (17) 
F 19

>  <SCORE>  (17) 
-13.869

>  <name>  (17) 
16

>  <ligand_id>  (17) 
16

>  <original_smiles>  (17) 
[H]c1sc(C2([H])N(C(=O)N3C([H])([H])C([H])([H])C([H])([H])C([H])(n4nc(-c5c([H])c([H])c(Oc6c([H])c([H])c(F)c([H])c6F)c([H])c5[H])c(C(=O)N([H])[H])c4N([H])[H])C3([H])[H])C([H])([H])C([H])([H])C2([H])[H])c([H])c1C([H])([H])C(=O)C([H])([H])Oc1c([H])c([H])c2c(c1[H])C([H])([H])N(C(=O)C([H])(N([H])C(=O)C([H])(N([H])C([H])([H])[H])C([H])([H])[H])C(C([H])([H])[H])(C([H])([H])[H])C([H])([H])[H])C([H])(C(=O)N([H])C1([H])c3c([H])c([H])c([H])c([H])c3C([H])([H])C([H])([H])C1([H])[H])C2([H])[H]

>  <smiles>  (17) 
[H]c1sc(C2([H])N(C(=O)N3C([H])([H])C([H])([H])C([H])([H])C([H])(n4nc(-c5c([H])c([H])c(Oc6c([H])c([H])c(F)c([H])c6F)c([H])c5[H])c(C(=O)N([H])[H])c4N([H])[H])C3([H])[H])C([H])([H])C([H])([H])C2([H])[H])c([H])c1C([H])([H])C(=O)C([H])([H])Oc1c([H])c([H])c2c(c1[H])C([H])([H])N(C(=O)C([H])(N([H])C(=O)C([H])(N([H])C([H])([H])[H])C([H])([H])[H])C(C([H])([H])[H])(C([H])([H])[H])C([H])([H])[H])C([H])(C(=O)N([H])C1([H])c3c([H])c([H])c([H])c([H])c3C([H])([H])C([H])([H])C1([H])[H])C2([H])[H]

$$$$
17:0:0
     RDKit          3D

 94103  0  0  1  0  0  0  0  0999 V2000
  -30.5380  -23.9550   21.0520 C   0  0  0  0  0  2  0  0  0  0  0  0
  -31.0390  -22.4960   20.9260 C   0  0  0  0  0  2  0  0  0  0  0  0
  -28.7090  -22.5710   20.3990 C   0  0  0  0  0  2  0  0  0  0  0  0
  -29.2480  -24.0540   20.2130 C   0  0  2  0  0  0  0  0  0  0  0  0
  -29.5820  -24.2820   18.7270 C   0  0  0  0  0  1  0  0  0  0  0  0
  -29.8530  -21.6770   20.6980 N   0  0  0  0  0  0  0  0  0  0  0  0
  -29.3870  -19.4830   19.5830 C   0  0  0  0  0  3  0  0  0  0  0  0
  -30.5700  -18.0490   21.6580 C   0  0  0  0  0  3  0  0  0  0  0  0
  -29.4580  -18.0530   19.5230 C   0  0  0  0  0  0  0  0  0  0  0  0
  -30.4910  -19.4730   21.7230 C   0  0  0  0  0  0  0  0  0  0  0  0
  -29.9010  -20.2380   20.6720 C   0  0  0  0  0  0  0  0  0  0  0  0
  -30.0720  -17.2980   20.5650 C   0  0  0  0  0  0  0  0  0  0  0  0
  -28.8210  -17.3380   18.3440 C   0  0  0  0  0  1  0  0  0  0  0  0
  -31.0130  -20.1520   22.9790 C   0  0  0  0  0  1  0  0  0  0  0  0
  -30.7840  -14.8310   20.1730 C   0  0  0  0  0  0  0  0  0  0  0  0
  -30.5750  -12.5910   19.1090 C   0  0  0  0  0  2  0  0  0  0  0  0
  -29.5710  -12.7130   17.9410 C   0  0  0  0  0  2  0  0  0  0  0  0
  -28.1230  -12.5220   18.4350 C   0  0  0  0  0  2  0  0  0  0  0  0
  -27.8100  -13.3690   19.6980 C   0  0  0  0  0  3  0  0  0  0  0  0
  -28.9220  -13.2190   20.7590 C   0  0  0  0  0  2  0  0  0  0  0  0
  -30.1980  -13.5920   20.1260 N   0  0  0  0  0  0  0  0  0  0  0  0
  -31.9020  -15.0330   19.6860 O   0  0  0  0  0  0  0  0  0  0  0  0
  -30.0040  -15.8410   20.6710 N   0  0  0  0  0  0  0  0  0  0  0  0
  -29.1730  -15.4980   21.1300 H   0  0  0  0  0  0  0  0  0  0  0  0
  -25.4670  -13.9350   20.5900 C   0  0  0  0  0  0  0  0  0  0  0  0
  -24.4190  -13.1450   20.9780 C   0  0  0  0  0  0  0  0  0  0  0  0
  -24.8690  -11.7950   20.8410 C   0  0  0  0  0  0  0  0  0  0  0  0
  -26.4900  -13.0650   20.2440 N   0  0  0  0  0  0  0  0  0  0  0  0
  -26.1380  -11.7700   20.4510 N   0  0  0  0  0  0  0  0  0  0  0  0
  -24.1450  -10.5270   21.0010 C   0  0  0  0  0  0  0  0  0  0  0  0
  -24.5420   -9.5670   21.9570 C   0  0  0  0  0  3  0  0  0  0  0  0
  -23.8200   -8.3640   22.1060 C   0  0  0  0  0  3  0  0  0  0  0  0
  -22.6860   -8.1110   21.2960 C   0  0  0  0  0  0  0  0  0  0  0  0
  -22.3090   -9.0610   20.3310 C   0  0  0  0  0  3  0  0  0  0  0  0
  -23.0320  -10.2570   20.1800 C   0  0  0  0  0  3  0  0  0  0  0  0
  -21.9390   -6.9590   21.3510 O   0  0  0  0  0  0  0  0  0  0  0  0
  -21.7160   -6.3030   22.5350 C   0  0  0  0  0  0  0  0  0  0  0  0
  -21.0470   -6.9200   23.6140 C   0  0  0  0  0  3  0  0  0  0  0  0
  -20.7750   -6.1880   24.7870 C   0  0  0  0  0  3  0  0  0  0  0  0
  -21.1630   -4.8370   24.8800 C   0  0  0  0  0  0  0  0  0  0  0  0
  -21.8230   -4.2190   23.8030 C   0  0  0  0  0  3  0  0  0  0  0  0
  -22.0960   -4.9500   22.6340 C   0  0  0  0  0  0  0  0  0  0  0  0
  -22.7130   -4.3420   21.5920 F   0  0  0  0  0  0  0  0  0  0  0  0
  -20.8960   -4.1310   26.0030 F   0  0  0  0  0  0  0  0  0  0  0  0
  -23.0430  -13.6110   21.3640 C   0  0  0  0  0  0  0  0  0  0  0  0
  -22.3730  -12.8770   22.2450 N   0  0  0  0  0  0  0  0  0  0  0  0
  -22.5750  -14.6580   20.9200 O   0  0  0  0  0  0  0  0  0  0  0  0
  -22.7660  -12.0300   22.6270 H   0  0  0  0  0  0  0  0  0  0  0  0
  -21.4520  -13.1680   22.5420 H   0  0  0  0  0  0  0  0  0  0  0  0
  -25.6300  -15.3130   20.4800 N   0  0  0  0  0  0  0  0  0  0  0  0
  -24.8730  -15.9620   20.6630 H   0  0  0  0  0  0  0  0  0  0  0  0
  -26.4570  -15.7660   20.1120 H   0  0  0  0  0  0  0  0  0  0  0  0
  -28.2530  -25.2150   20.6830 C   0  0  0  0  0  2  0  0  0  0  0  0
  -28.5040  -26.6440   20.3450 O   0  0  0  0  0  0  0  0  0  0  0  0
  -24.6610  -31.9870   23.3230 C   0  0  0  0  0  0  0  0  0  0  0  0
  -27.3840  -27.4890   20.2850 C   0  0  0  0  0  0  0  0  0  0  0  0
  -23.5010  -30.5770   21.6610 C   0  0  0  0  0  3  0  0  0  0  0  0
  -24.9960  -29.0640   20.2420 C   0  0  0  0  0  0  0  0  0  0  0  0
  -26.0370  -30.9380   21.5140 C   0  0  0  0  0  2  0  0  0  0  0  0
  -26.1470  -29.5650   20.8630 C   0  0  0  0  0  0  0  0  0  0  0  0
  -27.3450  -28.7880   20.8800 C   0  0  0  0  0  3  0  0  0  0  0  0
  -26.2190  -27.0590   19.6100 C   0  0  0  0  0  3  0  0  0  0  0  0
  -25.0340  -27.8150   19.6060 C   0  0  0  0  0  3  0  0  0  0  0  0
  -23.7430  -29.9150   20.2790 C   0  0  0  0  0  2  0  0  0  0  0  0
  -24.7510  -31.1840   22.2230 N   0  0  0  0  0  0  0  0  0  0  0  0
  -23.5670  -32.2430   23.8460 O   0  0  0  0  0  0  0  0  0  0  0  0
  -22.8450  -29.5430   22.6050 C   0  0  0  0  0  0  0  0  0  0  0  0
  -21.5340  -29.3090   22.4290 N   0  0  0  0  0  0  0  0  0  0  0  0
  -23.5170  -28.9520   23.4560 O   0  0  0  0  0  0  0  0  0  0  0  0
  -21.0500  -29.8370   21.7160 H   0  0  0  0  0  0  0  0  0  0  0  0
  -18.1970  -27.9600   22.7910 C   0  0  0  0  0  0  0  0  0  0  0  0
  -20.7240  -28.3480   23.1790 C   0  0  0  0  0  3  0  0  0  0  0  0
  -20.9220  -26.9120   22.6400 C   0  0  0  0  0  2  0  0  0  0  0  0
  -19.8880  -26.5170   21.5820 C   0  0  0  0  0  2  0  0  0  0  0  0
  -18.4700  -26.6080   22.1550 C   0  0  0  0  0  2  0  0  0  0  0  0
  -19.2560  -28.7840   23.2580 C   0  0  0  0  0  0  0  0  0  0  0  0
  -18.9490  -30.0460   23.8100 C   0  0  0  0  0  3  0  0  0  0  0  0
  -17.6160  -30.4880   23.9030 C   0  0  0  0  0  3  0  0  0  0  0  0
  -16.5700  -29.6620   23.4540 C   0  0  0  0  0  3  0  0  0  0  0  0
  -16.8610  -28.4020   22.9030 C   0  0  0  0  0  3  0  0  0  0  0  0
  -25.9250  -32.6370   23.9630 C   0  0  0  0  0  3  0  0  0  0  0  0
  -25.5930  -34.0320   24.2810 N   0  0  0  0  0  0  0  0  0  0  0  0
  -25.9260  -35.0870   23.5240 C   0  0  0  0  0  0  0  0  0  0  0  0
  -26.6150  -34.9870   22.5050 O   0  0  0  0  0  0  0  0  0  0  0  0
  -24.9800  -34.1820   25.0690 H   0  0  0  0  0  0  0  0  0  0  0  0
  -24.1890  -36.8630   23.1220 C   0  0  0  0  0  1  0  0  0  0  0  0
  -25.4140  -36.4710   23.9650 C   0  0  0  0  0  3  0  0  0  0  0  0
  -27.5110  -37.3850   24.8570 C   0  0  0  0  0  1  0  0  0  0  0  0
  -26.4390  -37.5340   23.8760 N   0  0  0  0  0  0  0  0  0  0  0  0
  -26.0200  -38.4520   24.0040 H   0  0  0  0  0  0  0  0  0  0  0  0
  -26.4270  -31.8780   25.2520 C   0  0  1  0  0  0  0  0  0  0  0  0
  -25.3120  -31.6120   26.2910 C   0  0  0  0  0  1  0  0  0  0  0  0
  -27.0570  -30.5160   24.8800 C   0  0  0  0  0  1  0  0  0  0  0  0
  -27.5370  -32.7010   25.9450 C   0  0  0  0  0  1  0  0  0  0  0  0
  2  1  1  0
  3  6  1  0
  4  5  1  6
  4  3  1  0
  4 53  1  0
  4  1  1  0
  6  2  1  0
  7 11  1  0
  8 10  1  0
  9  7  2  0
  9 12  1  0
 10 14  1  0
 11  6  1  0
 11 10  2  0
 12 23  1  0
 12  8  2  0
 13  9  1  0
 15 23  1  0
 16 21  1  0
 17 18  1  0
 17 16  1  0
 19 18  1  0
 19 28  1  0
 19 20  1  0
 21 15  1  0
 21 20  1  0
 22 15  2  0
 23 24  1  0
 25 26  2  0
 26 45  1  0
 27 26  1  0
 27 30  1  0
 28 29  1  0
 28 25  1  0
 29 27  2  0
 30 31  1  0
 31 32  2  0
 33 36  1  0
 33 32  1  0
 34 33  2  0
 35 34  1  0
 35 30  2  0
 36 37  1  0
 37 42  2  0
 37 38  1  0
 38 39  2  0
 39 40  1  0
 40 44  1  0
 41 40  2  0
 42 41  1  0
 43 42  1  0
 45 46  1  0
 46 49  1  0
 46 48  1  0
 47 45  2  0
 50 25  1  0
 50 51  1  0
 52 50  1  0
 54 53  1  0
 55 66  2  0
 56 54  1  0
 56 61  1  0
 57 65  1  0
 57 67  1  0
 58 64  1  0
 58 60  1  0
 59 65  1  0
 60 61  2  0
 60 59  1  0
 62 56  2  0
 63 62  1  0
 63 58  2  0
 64 57  1  0
 65 55  1  0
 67 69  2  0
 68 67  1  0
 70 68  1  0
 71 80  2  0
 71 76  1  0
 72 68  1  0
 72 76  1  0
 73 72  1  0
 74 75  1  0
 74 73  1  0
 75 71  1  0
 76 77  2  0
 77 78  1  0
 79 78  2  0
 80 79  1  0
 81 55  1  0
 81 82  1  0
 81 91  1  0
 82 85  1  0
 83 87  1  0
 83 82  1  0
 84 83  2  0
 87 86  1  0
 89 87  1  0
 89 90  1  0
 89 88  1  0
 91 94  1  1
 91 92  1  0
 93 91  1  0
M  ISO  4  15 100  23 100  53 101  54 101
M  END
>  <TORSDO>  (18) 
F 18

>  <SCORE>  (18) 
-14.354

>  <name>  (18) 
17

>  <ligand_id>  (18) 
17

>  <original_smiles>  (18) 
[H]c1c([H])c([H])c2c(c1[H])C([H])([H])C([H])([H])C([H])([H])C2([H])N([H])C(=O)C1([H])N(C(=O)C([H])(N([H])C(=O)C([H])(N([H])C([H])([H])[H])C([H])([H])[H])C(C([H])([H])[H])(C([H])([H])[H])C([H])([H])[H])C([H])([H])c2c([H])c(OC([H])([H])C3(C([H])([H])[H])C([H])([H])N(c4c([H])c(C([H])([H])[H])c(N([H])C(=O)N5C([H])([H])C([H])([H])C([H])([H])C([H])(n6nc(-c7c([H])c([H])c(Oc8c([H])c([H])c(F)c([H])c8F)c([H])c7[H])c(C(=O)N([H])[H])c6N([H])[H])C5([H])[H])c([H])c4C([H])([H])[H])C([H])([H])C3([H])[H])c([H])c([H])c2C1([H])[H]

>  <smiles>  (18) 
[H]c1c([H])c([H])c2c(c1[H])C([H])([H])C([H])([H])C([H])([H])C2([H])N([H])C(=O)C1([H])N(C(=O)C([H])(N([H])C(=O)C([H])(N([H])C([H])([H])[H])C([H])([H])[H])C(C([H])([H])[H])(C([H])([H])[H])C([H])([H])[H])C([H])([H])c2c([H])c(OC([H])([H])C3(C([H])([H])[H])C([H])([H])N(c4c([H])c(C([H])([H])[H])c(N([H])C(=O)N5C([H])([H])C([H])([H])C([H])([H])C([H])(n6nc(-c7c([H])c([H])c(Oc8c([H])c([H])c(F)c([H])c8F)c([H])c7[H])c(C(=O)N([H])[H])c6N([H])[H])C5([H])[H])c([H])c4C([H])([H])[H])C([H])([H])C3([H])[H])c([H])c([H])c2C1([H])[H]

$$$$
18:0:0
     RDKit          3D

 94103  0  0  1  0  0  0  0  0999 V2000
  -26.9390  -24.1090   20.8340 C   0  0  0  0  0  3  0  0  0  0  0  0
  -28.0330  -24.3760   20.0960 C   0  0  0  0  0  0  0  0  0  0  0  0
  -26.8100  -22.8960   21.7370 C   0  0  0  0  0  2  0  0  0  0  0  0
  -29.2210  -23.3990   20.0630 C   0  0  0  0  0  2  0  0  0  0  0  0
  -28.2000  -22.3460   22.1280 C   0  0  0  0  0  2  0  0  0  0  0  0
  -29.0790  -22.1840   20.9340 N   0  0  2  0  0  4  0  0  0  0  0  0
  -28.5970  -21.5350   20.3390 H   0  0  0  0  0  0  0  0  0  0  0  0
  -30.3500  -21.4580   21.2370 C   0  0  0  0  0  2  0  0  0  0  0  0
  -29.1200  -19.3240   20.3970 C   0  0  0  0  0  3  0  0  0  0  0  0
  -31.2840  -19.0730   21.4710 C   0  0  0  0  0  3  0  0  0  0  0  0
  -29.0800  -17.9330   20.1580 C   0  0  0  0  0  3  0  0  0  0  0  0
  -31.2460  -17.6780   21.2250 C   0  0  0  0  0  3  0  0  0  0  0  0
  -30.2370  -19.9280   21.0330 C   0  0  0  0  0  0  0  0  0  0  0  0
  -30.1680  -17.1050   20.5210 C   0  0  0  0  0  0  0  0  0  0  0  0
  -30.9790  -14.7210   20.0810 C   0  0  0  0  0  0  0  0  0  0  0  0
  -30.7690  -12.4590   19.1030 C   0  0  0  0  0  2  0  0  0  0  0  0
  -29.8000  -12.5510   17.8990 C   0  0  0  0  0  2  0  0  0  0  0  0
  -28.3360  -12.4010   18.3640 C   0  0  0  0  0  2  0  0  0  0  0  0
  -27.9880  -13.3720   19.5220 C   0  0  0  0  0  3  0  0  0  0  0  0
  -29.0460  -13.2430   20.6410 C   0  0  0  0  0  2  0  0  0  0  0  0
  -30.3680  -13.5060   20.0480 N   0  0  0  0  0  0  0  0  0  0  0  0
  -32.1480  -14.9080   19.7330 O   0  0  0  0  0  0  0  0  0  0  0  0
  -30.0690  -15.7160   20.2200 N   0  0  0  0  0  0  0  0  0  0  0  0
  -29.1320  -15.3850   20.0670 H   0  0  0  0  0  0  0  0  0  0  0  0
  -25.6390  -14.0830   20.2950 C   0  0  0  0  0  0  0  0  0  0  0  0
  -24.5510  -13.3490   20.6990 C   0  0  0  0  0  0  0  0  0  0  0  0
  -24.9630  -11.9840   20.6530 C   0  0  0  0  0  0  0  0  0  0  0  0
  -26.6410  -13.1580   20.0340 N   0  0  0  0  0  0  0  0  0  0  0  0
  -26.2410  -11.8940   20.3120 N   0  0  0  0  0  0  0  0  0  0  0  0
  -24.1990  -10.7500   20.8660 C   0  0  0  0  0  0  0  0  0  0  0  0
  -24.6010   -9.7990   21.8280 C   0  0  0  0  0  3  0  0  0  0  0  0
  -23.8480   -8.6210   22.0260 C   0  0  0  0  0  3  0  0  0  0  0  0
  -22.6780   -8.3930   21.2600 C   0  0  0  0  0  0  0  0  0  0  0  0
  -22.2970   -9.3350   20.2880 C   0  0  0  0  0  3  0  0  0  0  0  0
  -23.0510  -10.5040   20.0900 C   0  0  0  0  0  3  0  0  0  0  0  0
  -21.8950   -7.2680   21.3630 O   0  0  0  0  0  0  0  0  0  0  0  0
  -21.7700   -6.5850   22.5460 C   0  0  0  0  0  0  0  0  0  0  0  0
  -21.2950   -7.2090   23.7200 C   0  0  0  0  0  3  0  0  0  0  0  0
  -21.1090   -6.4530   24.8940 C   0  0  0  0  0  3  0  0  0  0  0  0
  -21.3920   -5.0720   24.8960 C   0  0  0  0  0  0  0  0  0  0  0  0
  -21.8630   -4.4510   23.7250 C   0  0  0  0  0  3  0  0  0  0  0  0
  -22.0450   -5.2040   22.5540 C   0  0  0  0  0  0  0  0  0  0  0  0
  -22.4740   -4.5960   21.4210 F   0  0  0  0  0  0  0  0  0  0  0  0
  -21.2100   -4.3430   26.0210 F   0  0  0  0  0  0  0  0  0  0  0  0
  -23.1820  -13.8790   21.0110 C   0  0  0  0  0  0  0  0  0  0  0  0
  -22.4600  -13.2070   21.9050 N   0  0  0  0  0  0  0  0  0  0  0  0
  -22.7620  -14.9130   20.4970 O   0  0  0  0  0  0  0  0  0  0  0  0
  -22.8260  -12.3710   22.3360 H   0  0  0  0  0  0  0  0  0  0  0  0
  -21.5410  -13.5300   22.1670 H   0  0  0  0  0  0  0  0  0  0  0  0
  -25.8460  -15.4450   20.1100 N   0  0  0  0  0  0  0  0  0  0  0  0
  -25.1010  -16.1190   20.2480 H   0  0  0  0  0  0  0  0  0  0  0  0
  -26.6840  -15.8510   19.7210 H   0  0  0  0  0  0  0  0  0  0  0  0
  -28.1150  -25.5610   19.1150 C   0  0  0  0  0  2  0  0  0  0  0  0
  -28.1330  -26.8700   19.7310 O   0  0  0  0  0  0  0  0  0  0  0  0
  -24.5480  -31.9750   23.1720 C   0  0  0  0  0  0  0  0  0  0  0  0
  -26.9630  -27.6170   19.7920 C   0  0  0  0  0  0  0  0  0  0  0  0
  -23.2530  -30.6480   21.5440 C   0  0  0  0  0  3  0  0  0  0  0  0
  -24.6040  -29.1710   19.9860 C   0  0  0  0  0  0  0  0  0  0  0  0
  -25.7670  -31.0030   21.2260 C   0  0  0  0  0  2  0  0  0  0  0  0
  -25.7990  -29.6530   20.5290 C   0  0  0  0  0  0  0  0  0  0  0  0
  -26.9790  -28.8780   20.4410 C   0  0  0  0  0  3  0  0  0  0  0  0
  -25.7390  -27.1710   19.2330 C   0  0  0  0  0  3  0  0  0  0  0  0
  -24.5700  -27.9310   19.3320 C   0  0  0  0  0  3  0  0  0  0  0  0
  -23.3830  -30.0370   20.1300 C   0  0  0  0  0  2  0  0  0  0  0  0
  -24.5460  -31.2230   22.0380 N   0  0  0  0  0  0  0  0  0  0  0  0
  -23.4940  -32.2280   23.7750 O   0  0  0  0  0  0  0  0  0  0  0  0
  -22.6570  -29.5790   22.4880 C   0  0  0  0  0  0  0  0  0  0  0  0
  -21.3350  -29.3680   22.3740 N   0  0  0  0  0  0  0  0  0  0  0  0
  -23.3700  -28.9630   23.2850 O   0  0  0  0  0  0  0  0  0  0  0  0
  -20.8170  -29.9330   21.7180 H   0  0  0  0  0  0  0  0  0  0  0  0
  -18.0220  -27.9870   22.8490 C   0  0  0  0  0  0  0  0  0  0  0  0
  -20.5560  -28.3930   23.1350 C   0  0  0  0  0  3  0  0  0  0  0  0
  -20.7420  -26.9640   22.5790 C   0  0  0  0  0  2  0  0  0  0  0  0
  -19.6650  -26.5580   21.5600 C   0  0  0  0  0  2  0  0  0  0  0  0
  -18.2770  -26.6460   22.1910 C   0  0  0  0  0  2  0  0  0  0  0  0
  -19.0910  -28.8170   23.2790 C   0  0  0  0  0  0  0  0  0  0  0  0
  -18.7880  -30.0610   23.8680 C   0  0  0  0  0  3  0  0  0  0  0  0
  -17.4550  -30.4780   24.0360 C   0  0  0  0  0  3  0  0  0  0  0  0
  -16.3990  -29.6480   23.6150 C   0  0  0  0  0  3  0  0  0  0  0  0
  -16.6840  -28.4050   23.0270 C   0  0  0  0  0  3  0  0  0  0  0  0
  -25.8690  -32.5800   23.7460 C   0  0  0  0  0  3  0  0  0  0  0  0
  -26.4490  -31.7690   24.9690 C   0  0  1  0  0  0  0  0  0  0  0  0
  -25.4160  -31.5170   26.0930 C   0  0  0  0  0  1  0  0  0  0  0  0
  -27.0010  -30.3980   24.5190 C   0  0  0  0  0  1  0  0  0  0  0  0
  -27.6360  -32.5400   25.5900 C   0  0  0  0  0  1  0  0  0  0  0  0
  -25.5860  -33.9710   24.1330 N   0  0  0  0  0  0  0  0  0  0  0  0
  -25.9000  -35.0380   23.3850 C   0  0  0  0  0  0  0  0  0  0  0  0
  -26.5240  -34.9530   22.3220 O   0  0  0  0  0  0  0  0  0  0  0  0
  -25.0230  -34.1080   24.9630 H   0  0  0  0  0  0  0  0  0  0  0  0
  -24.1790  -36.8540   23.1360 C   0  0  0  0  0  1  0  0  0  0  0  0
  -25.4440  -36.4190   23.8960 C   0  0  0  0  0  3  0  0  0  0  0  0
  -27.6180  -37.2500   24.6780 C   0  0  0  0  0  1  0  0  0  0  0  0
  -26.4890  -37.4580   23.7750 N   0  0  0  0  0  0  0  0  0  0  0  0
  -26.1030  -38.3770   23.9770 H   0  0  0  0  0  0  0  0  0  0  0  0
  1  3  1  0
  2  1  2  0
  3  5  1  0
  4  2  1  0
  4  6  1  0
  6  8  1  0
  6  5  1  0
  6  7  1  6
  9 13  1  0
 11  9  2  0
 11 14  1  0
 12 10  1  0
 13  8  1  0
 13 10  2  0
 14 12  2  0
 15 23  1  0
 16 21  1  0
 17 18  1  0
 17 16  1  0
 19 18  1  0
 19 28  1  0
 19 20  1  0
 21 15  1  0
 21 20  1  0
 22 15  2  0
 23 14  1  0
 24 23  1  0
 25 26  2  0
 26 45  1  0
 27 26  1  0
 27 30  1  0
 28 25  1  0
 28 29  1  0
 29 27  2  0
 30 31  1  0
 31 32  2  0
 33 36  1  0
 33 32  1  0
 34 33  2  0
 35 34  1  0
 35 30  2  0
 36 37  1  0
 37 42  2  0
 37 38  1  0
 38 39  2  0
 39 40  1  0
 40 44  1  0
 41 40  2  0
 42 41  1  0
 43 42  1  0
 45 46  1  0
 46 49  1  0
 46 48  1  0
 47 45  2  0
 50 51  1  0
 50 25  1  0
 52 50  1  0
 53 54  1  0
 53  2  1  0
 54 56  1  0
 55 66  2  0
 56 61  1  0
 57 65  1  0
 57 67  1  0
 58 64  1  0
 58 60  1  0
 59 65  1  0
 60 59  1  0
 61 60  2  0
 62 63  1  0
 62 56  2  0
 63 58  2  0
 64 57  1  0
 65 55  1  0
 67 69  2  0
 68 67  1  0
 70 68  1  0
 71 80  2  0
 71 76  1  0
 72 68  1  0
 72 76  1  0
 73 72  1  0
 74 75  1  0
 74 73  1  0
 75 71  1  0
 76 77  2  0
 77 78  1  0
 79 78  2  0
 80 79  1  0
 81 55  1  0
 81 86  1  0
 81 82  1  0
 82 85  1  1
 82 83  1  0
 84 82  1  0
 86 89  1  0
 87 91  1  0
 87 86  1  0
 88 87  2  0
 91 90  1  0
 93 91  1  0
 93 94  1  0
 93 92  1  0
M  ISO  4  15 100  23 100  53 101  54 101
M  END
>  <TORSDO>  (19) 
F 19

>  <SCORE>  (19) 
-13.953

>  <name>  (19) 
18

>  <ligand_id>  (19) 
18

>  <original_smiles>  (19) 
[H]C1=C(C([H])([H])Oc2c([H])c([H])c3c(c2[H])C([H])([H])N(C(=O)C([H])(N([H])C(=O)C([H])(N([H])C([H])([H])[H])C([H])([H])[H])C(C([H])([H])[H])(C([H])([H])[H])C([H])([H])[H])C([H])(C(=O)N([H])C2([H])c4c([H])c([H])c([H])c([H])c4C([H])([H])C([H])([H])C2([H])[H])C3([H])[H])C([H])([H])[N+]([H])(C([H])([H])c2c([H])c([H])c(N([H])C(=O)N3C([H])([H])C([H])([H])C([H])([H])C([H])(n4nc(-c5c([H])c([H])c(Oc6c([H])c([H])c(F)c([H])c6F)c([H])c5[H])c(C(=O)N([H])[H])c4N([H])[H])C3([H])[H])c([H])c2[H])C([H])([H])C1([H])[H]

>  <smiles>  (19) 
[H]C1=C(C([H])([H])Oc2c([H])c([H])c3c(c2[H])C([H])([H])N(C(=O)C([H])(N([H])C(=O)C([H])(N([H])C([H])([H])[H])C([H])([H])[H])C(C([H])([H])[H])(C([H])([H])[H])C([H])([H])[H])C([H])(C(=O)N([H])C2([H])c4c([H])c([H])c([H])c([H])c4C([H])([H])C([H])([H])C2([H])[H])C3([H])[H])C([H])([H])[N+]([H])(C([H])([H])c2c([H])c([H])c(N([H])C(=O)N3C([H])([H])C([H])([H])C([H])([H])C([H])(n4nc(-c5c([H])c([H])c(Oc6c([H])c([H])c(F)c([H])c6F)c([H])c5[H])c(C(=O)N([H])[H])c4N([H])[H])C3([H])[H])c([H])c2[H])C([H])([H])C1([H])[H]

$$$$
19:0:0
     RDKit          3D

 93102  0  0  1  0  0  0  0  0999 V2000
  -31.0040  -21.4020   21.2120 C   0  0  0  0  0  0  0  0  0  0  0  0
  -31.7110  -22.5510   20.5020 C   0  0  0  0  0  2  0  0  0  0  0  0
  -30.8060  -22.7800   19.2900 C   0  0  0  0  0  2  0  0  0  0  0  0
  -29.4340  -22.3890   19.8500 C   0  0  0  0  0  3  0  0  0  0  0  0
  -29.7970  -21.1280   20.6700 N   0  0  0  0  0  0  0  0  0  0  0  0
  -31.5310  -20.7960   22.1500 O   0  0  0  0  0  0  0  0  0  0  0  0
  -29.7240  -18.5610   21.0110 C   0  0  0  0  0  3  0  0  0  0  0  0
  -29.7860  -17.5920   18.8940 C   0  0  0  0  0  3  0  0  0  0  0  0
  -29.8280  -17.3080   20.2350 C   0  0  0  0  0  0  0  0  0  0  0  0
  -29.6650  -19.7740   20.2770 C   0  0  0  0  0  0  0  0  0  0  0  0
  -29.6230  -19.3190   18.5790 S   0  0  0  0  0  0  0  0  0  0  0  0
  -30.5670  -14.7920   20.3340 C   0  0  0  0  0  0  0  0  0  0  0  0
  -30.3660  -12.5100   19.3330 C   0  0  0  0  0  2  0  0  0  0  0  0
  -29.4270  -12.6000   18.1090 C   0  0  0  0  0  2  0  0  0  0  0  0
  -27.9590  -12.4250   18.5380 C   0  0  0  0  0  2  0  0  0  0  0  0
  -27.5920  -13.3020   19.7630 C   0  0  0  0  0  3  0  0  0  0  0  0
  -28.6510  -13.2010   20.8840 C   0  0  0  0  0  2  0  0  0  0  0  0
  -29.9530  -13.5560   20.3010 N   0  0  0  0  0  0  0  0  0  0  0  0
  -31.7220  -14.9050   19.9090 O   0  0  0  0  0  0  0  0  0  0  0  0
  -29.8400  -15.9060   20.7420 N   0  0  0  0  0  0  0  0  0  0  0  0
  -29.0490  -15.6710   21.3250 H   0  0  0  0  0  0  0  0  0  0  0  0
  -25.2020  -13.8960   20.4830 C   0  0  0  0  0  0  0  0  0  0  0  0
  -24.1370  -13.1240   20.8580 C   0  0  0  0  0  0  0  0  0  0  0  0
  -24.6000  -11.7720   20.8370 C   0  0  0  0  0  0  0  0  0  0  0  0
  -26.2470  -13.0150   20.2530 N   0  0  0  0  0  0  0  0  0  0  0  0
  -25.8920  -11.7330   20.5270 N   0  0  0  0  0  0  0  0  0  0  0  0
  -23.8740  -10.5110   21.0350 C   0  0  0  0  0  0  0  0  0  0  0  0
  -24.3130   -9.5430   21.9650 C   0  0  0  0  0  3  0  0  0  0  0  0
  -23.5870   -8.3470   22.1500 C   0  0  0  0  0  3  0  0  0  0  0  0
  -22.4060   -8.1100   21.4080 C   0  0  0  0  0  0  0  0  0  0  0  0
  -21.9840   -9.0670   20.4670 C   0  0  0  0  0  3  0  0  0  0  0  0
  -22.7120  -10.2540   20.2790 C   0  0  0  0  0  3  0  0  0  0  0  0
  -21.6520   -6.9660   21.5030 O   0  0  0  0  0  0  0  0  0  0  0  0
  -21.6200   -6.2180   22.6530 C   0  0  0  0  0  0  0  0  0  0  0  0
  -21.2180   -6.7690   23.8890 C   0  0  0  0  0  3  0  0  0  0  0  0
  -21.1320   -5.9480   25.0310 C   0  0  0  0  0  3  0  0  0  0  0  0
  -21.4380   -4.5770   24.9390 C   0  0  0  0  0  0  0  0  0  0  0  0
  -21.8340   -4.0260   23.7090 C   0  0  0  0  0  3  0  0  0  0  0  0
  -21.9210   -4.8440   22.5680 C   0  0  0  0  0  0  0  0  0  0  0  0
  -22.2830   -4.3020   21.3800 F   0  0  0  0  0  0  0  0  0  0  0  0
  -21.3490   -3.7870   26.0350 F   0  0  0  0  0  0  0  0  0  0  0  0
  -22.7410  -13.6030   21.1280 C   0  0  0  0  0  0  0  0  0  0  0  0
  -22.0120  -12.9150   21.9990 N   0  0  0  0  0  0  0  0  0  0  0  0
  -22.3040  -14.6260   20.6030 O   0  0  0  0  0  0  0  0  0  0  0  0
  -22.3770  -12.0890   22.4500 H   0  0  0  0  0  0  0  0  0  0  0  0
  -21.0750  -13.2220   22.2230 H   0  0  0  0  0  0  0  0  0  0  0  0
  -25.3660  -15.2650   20.2910 N   0  0  0  0  0  0  0  0  0  0  0  0
  -24.5930  -15.9170   20.3740 H   0  0  0  0  0  0  0  0  0  0  0  0
  -26.2090  -15.6930   19.9290 H   0  0  0  0  0  0  0  0  0  0  0  0
  -28.8360  -23.7310   20.5910 C   0  0  0  0  0  0  0  0  0  0  0  0
  -28.8770  -23.8400   21.8210 O   0  0  0  0  0  0  0  0  0  0  0  0
  -28.2020  -24.9480   19.7500 C   0  0  0  0  0  2  0  0  0  0  0  0
  -28.2980  -26.3710   20.2680 O   0  0  0  0  0  0  0  0  0  0  0  0
  -24.6100  -31.8950   23.2360 C   0  0  0  0  0  0  0  0  0  0  0  0
  -27.2040  -27.2740   20.1760 C   0  0  0  0  0  0  0  0  0  0  0  0
  -23.4040  -30.4970   21.5990 C   0  0  0  0  0  3  0  0  0  0  0  0
  -24.8520  -28.9450   20.1640 C   0  0  0  0  0  0  0  0  0  0  0  0
  -25.9490  -30.7940   21.4210 C   0  0  0  0  0  2  0  0  0  0  0  0
  -26.0250  -29.4110   20.7710 C   0  0  0  0  0  0  0  0  0  0  0  0
  -27.1970  -28.5860   20.7730 C   0  0  0  0  0  3  0  0  0  0  0  0
  -26.0110  -26.8990   19.5150 C   0  0  0  0  0  3  0  0  0  0  0  0
  -24.8520  -27.6980   19.5260 C   0  0  0  0  0  3  0  0  0  0  0  0
  -23.6180  -29.8260   20.2170 C   0  0  0  0  0  2  0  0  0  0  0  0
  -24.6730  -31.0820   22.1400 N   0  0  0  0  0  0  0  0  0  0  0  0
  -23.5270  -32.1750   23.7700 O   0  0  0  0  0  0  0  0  0  0  0  0
  -22.7390  -29.4820   22.5600 C   0  0  0  0  0  0  0  0  0  0  0  0
  -21.4130  -29.3030   22.4320 N   0  0  0  0  0  0  0  0  0  0  0  0
  -23.4160  -28.8590   23.3820 O   0  0  0  0  0  0  0  0  0  0  0  0
  -20.9240  -29.8560   21.7420 H   0  0  0  0  0  0  0  0  0  0  0  0
  -18.0390  -28.0910   22.9250 C   0  0  0  0  0  0  0  0  0  0  0  0
  -20.5950  -28.3660   23.2040 C   0  0  0  0  0  3  0  0  0  0  0  0
  -20.7080  -26.9310   22.6360 C   0  0  0  0  0  2  0  0  0  0  0  0
  -19.6110  -26.5970   21.6190 C   0  0  0  0  0  2  0  0  0  0  0  0
  -18.2260  -26.7390   22.2570 C   0  0  0  0  0  2  0  0  0  0  0  0
  -19.1520  -28.8610   23.3560 C   0  0  0  0  0  0  0  0  0  0  0  0
  -18.9240  -30.1240   23.9430 C   0  0  0  0  0  3  0  0  0  0  0  0
  -17.6150  -30.6190   24.1020 C   0  0  0  0  0  3  0  0  0  0  0  0
  -16.5170  -29.8460   23.6870 C   0  0  0  0  0  3  0  0  0  0  0  0
  -16.7300  -28.5840   23.1050 C   0  0  0  0  0  3  0  0  0  0  0  0
  -25.8930  -32.5270   23.8570 C   0  0  0  0  0  3  0  0  0  0  0  0
  -26.4070  -31.7590   25.1370 C   0  0  1  0  0  0  0  0  0  0  0  0
  -25.3150  -31.5310   26.2080 C   0  0  0  0  0  1  0  0  0  0  0  0
  -26.9840  -30.3760   24.7530 C   0  0  0  0  0  1  0  0  0  0  0  0
  -27.5620  -32.5510   25.7930 C   0  0  0  0  0  1  0  0  0  0  0  0
  -25.5830  -33.9260   24.1870 N   0  0  0  0  0  0  0  0  0  0  0  0
  -25.9110  -34.9800   23.4270 C   0  0  0  0  0  0  0  0  0  0  0  0
  -26.5750  -34.8760   22.3920 O   0  0  0  0  0  0  0  0  0  0  0  0
  -24.9930  -34.0800   24.9910 H   0  0  0  0  0  0  0  0  0  0  0  0
  -24.1820  -36.7740   23.0830 C   0  0  0  0  0  1  0  0  0  0  0  0
  -25.4270  -36.3690   23.8870 C   0  0  0  0  0  3  0  0  0  0  0  0
  -27.5680  -37.2540   24.7020 C   0  0  0  0  0  1  0  0  0  0  0  0
  -26.4590  -37.4220   23.7670 N   0  0  0  0  0  0  0  0  0  0  0  0
  -26.0540  -38.3420   23.9170 H   0  0  0  0  0  0  0  0  0  0  0  0
  1  6  2  0
  2  1  1  0
  3  4  1  0
  3  2  1  0
  4 50  1  0
  4  5  1  0
  5  1  1  0
  8  9  2  0
  9 20  1  0
  9  7  1  0
 10  5  1  0
 10  7  2  0
 11  8  1  0
 11 10  1  0
 12 20  1  0
 13 18  1  0
 14 15  1  0
 14 13  1  0
 16 15  1  0
 16 25  1  0
 16 17  1  0
 18 12  1  0
 18 17  1  0
 19 12  2  0
 20 21  1  0
 22 23  2  0
 23 42  1  0
 24 23  1  0
 24 27  1  0
 25 22  1  0
 25 26  1  0
 26 24  2  0
 27 28  1  0
 28 29  2  0
 30 33  1  0
 30 29  1  0
 31 30  2  0
 32 31  1  0
 32 27  2  0
 33 34  1  0
 34 35  1  0
 35 36  2  0
 37 36  1  0
 37 41  1  0
 38 37  2  0
 39 34  2  0
 39 38  1  0
 40 39  1  0
 42 43  1  0
 43 46  1  0
 43 45  1  0
 44 42  2  0
 47 48  1  0
 47 22  1  0
 49 47  1  0
 50 51  2  0
 52 53  1  0
 52 50  1  0
 54 65  2  0
 55 53  1  0
 55 60  1  0
 56 64  1  0
 56 66  1  0
 57 63  1  0
 57 59  1  0
 58 64  1  0
 59 60  2  0
 59 58  1  0
 61 62  1  0
 61 55  2  0
 62 57  2  0
 63 56  1  0
 64 54  1  0
 66 68  2  0
 67 66  1  0
 69 67  1  0
 70 79  2  0
 70 75  1  0
 71 67  1  0
 71 75  1  0
 72 71  1  0
 73 74  1  0
 73 72  1  0
 74 70  1  0
 75 76  2  0
 76 77  1  0
 78 77  2  0
 79 78  1  0
 80 54  1  0
 80 85  1  0
 80 81  1  0
 81 84  1  1
 81 82  1  0
 83 81  1  0
 85 88  1  0
 86 90  1  0
 86 85  1  0
 87 86  2  0
 90 89  1  0
 92 90  1  0
 92 93  1  0
 92 91  1  0
M  ISO  4  12 100  20 100  52 101  53 101
M  END
>  <TORSDO>  (20) 
F 19

>  <SCORE>  (20) 
-14.430

>  <name>  (20) 
19

>  <ligand_id>  (20) 
19

>  <original_smiles>  (20) 
[H]c1sc(N2C(=O)C([H])([H])C([H])([H])C2([H])C(=O)C([H])([H])Oc2c([H])c([H])c3c(c2[H])C([H])([H])N(C(=O)C([H])(N([H])C(=O)C([H])(N([H])C([H])([H])[H])C([H])([H])[H])C(C([H])([H])[H])(C([H])([H])[H])C([H])([H])[H])C([H])(C(=O)N([H])C2([H])c4c([H])c([H])c([H])c([H])c4C([H])([H])C([H])([H])C2([H])[H])C3([H])[H])c([H])c1N([H])C(=O)N1C([H])([H])C([H])([H])C([H])([H])C([H])(n2nc(-c3c([H])c([H])c(Oc4c([H])c([H])c(F)c([H])c4F)c([H])c3[H])c(C(=O)N([H])[H])c2N([H])[H])C1([H])[H]

>  <smiles>  (20) 
[H]c1sc(N2C(=O)C([H])([H])C([H])([H])C2([H])C(=O)C([H])([H])Oc2c([H])c([H])c3c(c2[H])C([H])([H])N(C(=O)C([H])(N([H])C(=O)C([H])(N([H])C([H])([H])[H])C([H])([H])[H])C(C([H])([H])[H])(C([H])([H])[H])C([H])([H])[H])C([H])(C(=O)N([H])C2([H])c4c([H])c([H])c([H])c([H])c4C([H])([H])C([H])([H])C2([H])[H])C3([H])[H])c([H])c1N([H])C(=O)N1C([H])([H])C([H])([H])C([H])([H])C([H])(n2nc(-c3c([H])c([H])c(Oc4c([H])c([H])c(F)c([H])c4F)c([H])c3[H])c(C(=O)N([H])[H])c2N([H])[H])C1([H])[H]

$$$$
20:0:0
     RDKit          3D

 92100  0  0  1  0  0  0  0  0999 V2000
  -29.2140  -23.1200   20.5650 C   0  0  0  0  0  3  0  0  0  0  0  0
  -28.5420  -24.2500   20.9800 C   0  0  0  0  0  0  0  0  0  0  0  0
  -28.8590  -21.7030   20.8880 C   0  0  0  0  0  0  0  0  0  0  0  0
  -28.1840  -21.4230   21.8800 O   0  0  0  0  0  0  0  0  0  0  0  0
  -31.0130  -14.8050   19.6450 C   0  0  0  0  0  0  0  0  0  0  0  0
  -30.6150  -12.6150   18.5130 C   0  0  0  0  0  2  0  0  0  0  0  0
  -29.5240  -12.7380   17.4260 C   0  0  0  0  0  2  0  0  0  0  0  0
  -28.1270  -12.5270   18.0440 C   0  0  0  0  0  2  0  0  0  0  0  0
  -27.9140  -13.3540   19.3400 C   0  0  0  0  0  3  0  0  0  0  0  0
  -29.1120  -13.1900   20.2970 C   0  0  0  0  0  2  0  0  0  0  0  0
  -30.3140  -13.6180   19.5670 N   0  0  0  0  0  0  0  0  0  0  0  0
  -32.1220  -14.8610   19.1020 O   0  0  0  0  0  0  0  0  0  0  0  0
  -29.6960  -18.8680   21.6540 C   0  0  0  0  0  3  0  0  0  0  0  0
  -29.7440  -17.5580   22.0170 C   0  0  0  0  0  3  0  0  0  0  0  0
  -29.5820  -19.4630   20.2890 C   0  0  0  0  0  0  0  0  0  0  0  0
  -29.6000  -16.2310   21.2320 C   0  0  0  0  0  3  0  0  0  0  0  0
  -29.8380  -18.4390   19.1570 C   0  0  0  0  0  3  0  0  0  0  0  0
  -30.8880  -17.2990   19.4260 C   0  0  0  0  0  3  0  0  0  0  0  0
  -29.3770  -20.7290   19.9910 N   0  0  0  0  0  2  0  0  0  0  0  0
  -30.3880  -16.0070   19.9950 N   0  0  0  0  0  0  0  0  0  0  0  0
  -25.6980  -13.8850   20.5190 C   0  0  0  0  0  0  0  0  0  0  0  0
  -24.6690  -13.0890   20.9450 C   0  0  0  0  0  0  0  0  0  0  0  0
  -25.0600  -11.7480   20.6500 C   0  0  0  0  0  0  0  0  0  0  0  0
  -26.6520  -13.0270   19.9960 N   0  0  0  0  0  0  0  0  0  0  0  0
  -26.2830  -11.7280   20.1330 N   0  0  0  0  0  0  0  0  0  0  0  0
  -24.3170  -10.4880   20.7770 C   0  0  0  0  0  0  0  0  0  0  0  0
  -24.7460   -9.4630   21.6510 C   0  0  0  0  0  3  0  0  0  0  0  0
  -24.0070   -8.2660   21.7700 C   0  0  0  0  0  3  0  0  0  0  0  0
  -22.8230   -8.0860   21.0160 C   0  0  0  0  0  0  0  0  0  0  0  0
  -22.4110   -9.0990   20.1320 C   0  0  0  0  0  3  0  0  0  0  0  0
  -23.1490  -10.2890   20.0100 C   0  0  0  0  0  3  0  0  0  0  0  0
  -22.0550   -6.9470   21.0470 O   0  0  0  0  0  0  0  0  0  0  0  0
  -21.8780   -6.2300   22.2030 C   0  0  0  0  0  0  0  0  0  0  0  0
  -21.3210   -6.8100   23.3640 C   0  0  0  0  0  3  0  0  0  0  0  0
  -21.0950   -6.0180   24.5060 C   0  0  0  0  0  3  0  0  0  0  0  0
  -21.4150   -4.6470   24.4890 C   0  0  0  0  0  0  0  0  0  0  0  0
  -21.9620   -4.0670   23.3300 C   0  0  0  0  0  3  0  0  0  0  0  0
  -22.1910   -4.8550   22.1910 C   0  0  0  0  0  0  0  0  0  0  0  0
  -22.7000   -4.2880   21.0700 F   0  0  0  0  0  0  0  0  0  0  0  0
  -21.1900   -3.8830   25.5840 F   0  0  0  0  0  0  0  0  0  0  0  0
  -23.3540  -13.5560   21.4990 C   0  0  0  0  0  0  0  0  0  0  0  0
  -22.7620  -12.7870   22.4060 N   0  0  0  0  0  0  0  0  0  0  0  0
  -22.8660  -14.6340   21.1650 O   0  0  0  0  0  0  0  0  0  0  0  0
  -23.1700  -11.9150   22.7080 H   0  0  0  0  0  0  0  0  0  0  0  0
  -21.8830  -13.0820   22.8070 H   0  0  0  0  0  0  0  0  0  0  0  0
  -25.8890  -15.2620   20.5080 N   0  0  0  0  0  0  0  0  0  0  0  0
  -25.1750  -15.9080   20.8260 H   0  0  0  0  0  0  0  0  0  0  0  0
  -26.6870  -15.7280   20.0930 H   0  0  0  0  0  0  0  0  0  0  0  0
  -27.3720  -24.2150   21.6360 O   0  0  0  0  0  0  0  0  0  0  0  0
  -27.1350  -25.1100   21.8500 H   0  0  0  0  0  0  0  0  0  0  0  0
  -29.0240  -25.7410   20.9190 C   0  0  0  0  0  2  0  0  0  0  0  0
  -28.5910  -26.6060   19.8340 O   0  0  0  0  0  0  0  0  0  0  0  0
  -24.7090  -31.7360   23.1590 C   0  0  0  0  0  0  0  0  0  0  0  0
  -27.4490  -27.3850   19.9660 C   0  0  0  0  0  0  0  0  0  0  0  0
  -23.5550  -30.3790   21.4460 C   0  0  0  0  0  3  0  0  0  0  0  0
  -25.0520  -28.9120   19.9900 C   0  0  0  0  0  0  0  0  0  0  0  0
  -26.0840  -30.7680   21.3060 C   0  0  0  0  0  2  0  0  0  0  0  0
  -26.2010  -29.4130   20.6210 C   0  0  0  0  0  0  0  0  0  0  0  0
  -27.4090  -28.6600   20.6030 C   0  0  0  0  0  3  0  0  0  0  0  0
  -26.2860  -26.9230   19.3220 C   0  0  0  0  0  3  0  0  0  0  0  0
  -25.0930  -27.6700   19.3350 C   0  0  0  0  0  3  0  0  0  0  0  0
  -23.8000  -29.7620   20.0440 C   0  0  0  0  0  2  0  0  0  0  0  0
  -24.8000  -30.9780   22.0290 N   0  0  0  0  0  0  0  0  0  0  0  0
  -23.6150  -31.9680   23.6920 O   0  0  0  0  0  0  0  0  0  0  0  0
  -22.9060  -29.3120   22.3550 C   0  0  0  0  0  0  0  0  0  0  0  0
  -21.5760  -29.1470   22.2400 N   0  0  0  0  0  0  0  0  0  0  0  0
  -23.5940  -28.6360   23.1250 O   0  0  0  0  0  0  0  0  0  0  0  0
  -21.0810  -29.7450   21.5930 H   0  0  0  0  0  0  0  0  0  0  0  0
  -18.1950  -27.9830   22.7640 C   0  0  0  0  0  0  0  0  0  0  0  0
  -20.7650  -28.1720   22.9650 C   0  0  0  0  0  3  0  0  0  0  0  0
  -20.8150  -26.7830   22.2830 C   0  0  0  0  0  2  0  0  0  0  0  0
  -19.6730  -26.5570   21.2860 C   0  0  0  0  0  2  0  0  0  0  0  0
  -18.3170  -26.6840   21.9860 C   0  0  0  0  0  2  0  0  0  0  0  0
  -19.3430  -28.6890   23.2100 C   0  0  0  0  0  0  0  0  0  0  0  0
  -19.1730  -29.9100   23.8980 C   0  0  0  0  0  3  0  0  0  0  0  0
  -17.8860  -30.4230   24.1440 C   0  0  0  0  0  3  0  0  0  0  0  0
  -16.7520  -29.7120   23.7140 C   0  0  0  0  0  3  0  0  0  0  0  0
  -16.9060  -28.4940   23.0290 C   0  0  0  0  0  3  0  0  0  0  0  0
  -25.9740  -32.3670   23.8200 C   0  0  0  0  0  3  0  0  0  0  0  0
  -26.5200  -31.5290   25.0420 C   0  0  1  0  0  0  0  0  0  0  0  0
  -25.4370  -31.1770   26.0880 C   0  0  0  0  0  1  0  0  0  0  0  0
  -27.1530  -30.2040   24.5570 C   0  0  0  0  0  1  0  0  0  0  0  0
  -27.6430  -32.3170   25.7600 C   0  0  0  0  0  1  0  0  0  0  0  0
  -25.6230  -33.7280   24.2440 N   0  0  0  0  0  0  0  0  0  0  0  0
  -25.9250  -34.8400   23.5590 C   0  0  0  0  0  0  0  0  0  0  0  0
  -26.5990  -34.8260   22.5250 O   0  0  0  0  0  0  0  0  0  0  0  0
  -25.0200  -33.8100   25.0500 H   0  0  0  0  0  0  0  0  0  0  0  0
  -24.1440  -36.5970   23.3150 C   0  0  0  0  0  1  0  0  0  0  0  0
  -25.3940  -36.1790   24.1060 C   0  0  0  0  0  3  0  0  0  0  0  0
  -27.4950  -37.0680   25.0120 C   0  0  0  0  0  1  0  0  0  0  0  0
  -26.3950  -37.2670   24.0720 N   0  0  0  0  0  0  0  0  0  0  0  0
  -25.9610  -38.1620   24.2790 H   0  0  0  0  0  0  0  0  0  0  0  0
  1  3  1  0
  1  2  2  0
  2 49  1  0
  3  4  2  0
  5 20  1  0
  6 11  1  0
  7  8  1  0
  7  6  1  0
  9  8  1  0
  9 24  1  0
  9 10  1  0
 11  5  1  0
 11 10  1  0
 12  5  2  0
 13 14  1  0
 15 13  2  0
 16 14  2  0
 17 18  2  0
 17 15  1  0
 18 20  1  0
 19 15  1  0
 19  3  1  0
 20 16  1  0
 21 22  2  0
 22 41  1  0
 23 26  1  0
 23 22  1  0
 24 25  1  0
 24 21  1  0
 25 23  2  0
 26 27  1  0
 27 28  2  0
 29 32  1  0
 29 28  1  0
 30 29  2  0
 31 30  1  0
 31 26  2  0
 32 33  1  0
 33 34  1  0
 34 35  2  0
 36 35  1  0
 36 40  1  0
 37 36  2  0
 38 33  2  0
 38 37  1  0
 39 38  1  0
 41 42  1  0
 42 44  1  0
 42 45  1  0
 43 41  2  0
 46 21  1  0
 46 47  1  0
 48 46  1  0
 49 50  1  0
 51  2  1  0
 52 54  1  0
 52 51  1  0
 53 64  2  0
 54 59  1  0
 55 63  1  0
 55 65  1  0
 56 62  1  0
 56 58  1  0
 57 63  1  0
 58 57  1  0
 59 58  2  0
 60 61  1  0
 60 54  2  0
 61 56  2  0
 62 55  1  0
 63 53  1  0
 65 67  2  0
 66 65  1  0
 68 66  1  0
 69 78  2  0
 69 74  1  0
 70 66  1  0
 70 74  1  0
 71 70  1  0
 72 73  1  0
 72 71  1  0
 73 69  1  0
 74 75  2  0
 75 76  1  0
 77 76  2  0
 78 77  1  0
 79 53  1  0
 79 84  1  0
 79 80  1  0
 80 83  1  1
 80 81  1  0
 82 80  1  0
 84 87  1  0
 85 89  1  0
 85 84  1  0
 86 85  2  0
 89 88  1  0
 91 89  1  0
 91 92  1  0
 91 90  1  0
M  ISO  4   5 100  20 100  51 101  52 101
M  END
>  <TORSDO>  (21) 
F 19

>  <SCORE>  (21) 
-11.767

>  <name>  (21) 
20

>  <ligand_id>  (21) 
20

>  <original_smiles>  (21) 
[H]OC(=C([H])C(=O)N=C1C([H])=C([H])C([H])([H])N(C(=O)N2C([H])([H])C([H])([H])C([H])([H])C([H])(n3nc(-c4c([H])c([H])c(Oc5c([H])c([H])c(F)c([H])c5F)c([H])c4[H])c(C(=O)N([H])[H])c3N([H])[H])C2([H])[H])C([H])([H])C1([H])[H])C([H])([H])Oc1c([H])c([H])c2c(c1[H])C([H])([H])N(C(=O)C([H])(N([H])C(=O)C([H])(N([H])C([H])([H])[H])C([H])([H])[H])C(C([H])([H])[H])(C([H])([H])[H])C([H])([H])[H])C([H])(C(=O)N([H])C1([H])c3c([H])c([H])c([H])c([H])c3C([H])([H])C([H])([H])C1([H])[H])C2([H])[H]

>  <smiles>  (21) 
[H]OC(=C([H])C(=O)N=C1C([H])=C([H])C([H])([H])N(C(=O)N2C([H])([H])C([H])([H])C([H])([H])C([H])(n3nc(-c4c([H])c([H])c(Oc5c([H])c([H])c(F)c([H])c5F)c([H])c4[H])c(C(=O)N([H])[H])c3N([H])[H])C2([H])[H])C([H])([H])C1([H])[H])C([H])([H])Oc1c([H])c([H])c2c(c1[H])C([H])([H])N(C(=O)C([H])(N([H])C(=O)C([H])(N([H])C([H])([H])[H])C([H])([H])[H])C(C([H])([H])[H])(C([H])([H])[H])C([H])([H])[H])C([H])(C(=O)N([H])C1([H])c3c([H])c([H])c([H])c([H])c3C([H])([H])C([H])([H])C1([H])[H])C2([H])[H]

$$$$
21:0:0
     RDKit          3D

 94103  0  0  1  0  0  0  0  0999 V2000
  -30.5720  -21.2240   21.4070 C   0  0  0  0  0  2  0  0  0  0  0  0
  -29.9060  -22.5980   21.5760 C   0  0  0  0  0  2  0  0  0  0  0  0
  -30.1280  -20.7070   20.0220 C   0  0  0  0  0  3  0  0  0  0  0  0
  -29.5640  -23.0560   20.1490 C   0  0  0  0  0  3  0  0  0  0  0  0
  -29.2850  -21.7880   19.4030 N   0  0  0  0  0  4  0  0  0  0  0  0
  -28.3110  -21.5640   19.5310 H   0  0  0  0  0  0  0  0  0  0  0  0
  -29.4660  -21.8910   18.4160 H   0  0  0  0  0  0  0  0  0  0  0  0
  -30.0970  -18.1420   20.6880 C   0  0  0  0  0  3  0  0  0  0  0  0
  -28.8820  -16.9950   19.0450 C   0  0  0  0  0  3  0  0  0  0  0  0
  -29.6390  -16.8710   20.1830 C   0  0  0  0  0  0  0  0  0  0  0  0
  -29.7180  -19.2290   19.9050 C   0  0  0  0  0  0  0  0  0  0  0  0
  -28.7390  -18.6680   18.5620 S   0  0  0  0  0  0  0  0  0  0  0  0
  -30.5980  -14.5800   20.4360 C   0  0  0  0  0  0  0  0  0  0  0  0
  -30.3820  -12.3720   19.3600 C   0  0  0  0  0  2  0  0  0  0  0  0
  -29.4380  -12.5460   18.1500 C   0  0  0  0  0  2  0  0  0  0  0  0
  -27.9600  -12.4020   18.5700 C   0  0  0  0  0  2  0  0  0  0  0  0
  -27.6120  -13.2380   19.8310 C   0  0  0  0  0  3  0  0  0  0  0  0
  -28.6670  -13.0340   20.9410 C   0  0  0  0  0  2  0  0  0  0  0  0
  -29.9850  -13.3630   20.3740 N   0  0  0  0  0  0  0  0  0  0  0  0
  -31.7470  -14.7640   20.0170 O   0  0  0  0  0  0  0  0  0  0  0  0
  -29.8120  -15.6050   20.8470 N   0  0  0  0  0  0  0  0  0  0  0  0
  -28.9730  -15.2630   21.2900 H   0  0  0  0  0  0  0  0  0  0  0  0
  -25.2100  -13.8420   20.5270 C   0  0  0  0  0  0  0  0  0  0  0  0
  -24.1420  -13.0660   20.8910 C   0  0  0  0  0  0  0  0  0  0  0  0
  -24.6090  -11.7170   20.8690 C   0  0  0  0  0  0  0  0  0  0  0  0
  -26.2590  -12.9640   20.3060 N   0  0  0  0  0  0  0  0  0  0  0  0
  -25.9020  -11.6810   20.5710 N   0  0  0  0  0  0  0  0  0  0  0  0
  -23.8890  -10.4530   21.0600 C   0  0  0  0  0  0  0  0  0  0  0  0
  -24.3320   -9.4840   21.9870 C   0  0  0  0  0  3  0  0  0  0  0  0
  -23.6120   -8.2840   22.1670 C   0  0  0  0  0  3  0  0  0  0  0  0
  -22.4360   -8.0440   21.4180 C   0  0  0  0  0  0  0  0  0  0  0  0
  -22.0140   -9.0000   20.4780 C   0  0  0  0  0  3  0  0  0  0  0  0
  -22.7340  -10.1920   20.2960 C   0  0  0  0  0  3  0  0  0  0  0  0
  -21.6860   -6.8970   21.5070 O   0  0  0  0  0  0  0  0  0  0  0  0
  -21.6530   -6.1450   22.6540 C   0  0  0  0  0  0  0  0  0  0  0  0
  -21.2480   -6.6910   23.8920 C   0  0  0  0  0  3  0  0  0  0  0  0
  -21.1640   -5.8650   25.0310 C   0  0  0  0  0  3  0  0  0  0  0  0
  -21.4750   -4.4970   24.9330 C   0  0  0  0  0  0  0  0  0  0  0  0
  -21.8710   -3.9490   23.7000 C   0  0  0  0  0  3  0  0  0  0  0  0
  -21.9570   -4.7710   22.5630 C   0  0  0  0  0  0  0  0  0  0  0  0
  -22.3190   -4.2360   21.3720 F   0  0  0  0  0  0  0  0  0  0  0  0
  -21.3870   -3.7000   26.0250 F   0  0  0  0  0  0  0  0  0  0  0  0
  -22.7410  -13.5360   21.1530 C   0  0  0  0  0  0  0  0  0  0  0  0
  -22.0130  -12.8390   22.0190 N   0  0  0  0  0  0  0  0  0  0  0  0
  -22.2980  -14.5570   20.6270 O   0  0  0  0  0  0  0  0  0  0  0  0
  -22.3860  -12.0120   22.4630 H   0  0  0  0  0  0  0  0  0  0  0  0
  -21.0710  -13.1330   22.2380 H   0  0  0  0  0  0  0  0  0  0  0  0
  -25.3680  -15.2150   20.3480 N   0  0  0  0  0  0  0  0  0  0  0  0
  -24.5930  -15.8610   20.4460 H   0  0  0  0  0  0  0  0  0  0  0  0
  -26.2210  -15.6680   20.0500 H   0  0  0  0  0  0  0  0  0  0  0  0
  -28.3840  -24.0990   20.1120 C   0  0  0  0  0  0  0  0  0  0  0  0
  -27.2790  -23.8530   20.6090 O   0  0  0  0  0  0  0  0  0  0  0  0
  -28.6100  -25.4700   19.3920 C   0  0  0  0  0  2  0  0  0  0  0  0
  -28.3960  -26.6590   20.2140 O   0  0  0  0  0  0  0  0  0  0  0  0
  -24.5940  -31.9180   23.2390 C   0  0  0  0  0  0  0  0  0  0  0  0
  -27.2230  -27.4060   20.1650 C   0  0  0  0  0  0  0  0  0  0  0  0
  -23.3830  -30.5090   21.6090 C   0  0  0  0  0  3  0  0  0  0  0  0
  -24.8310  -28.9570   20.1810 C   0  0  0  0  0  0  0  0  0  0  0  0
  -25.9160  -30.8400   21.4150 C   0  0  0  0  0  2  0  0  0  0  0  0
  -25.9920  -29.4640   20.7750 C   0  0  0  0  0  0  0  0  0  0  0  0
  -27.1830  -28.6930   20.7710 C   0  0  0  0  0  3  0  0  0  0  0  0
  -26.0390  -26.9260   19.5620 C   0  0  0  0  0  3  0  0  0  0  0  0
  -24.8520  -27.6880   19.5740 C   0  0  0  0  0  3  0  0  0  0  0  0
  -23.5870  -29.8200   20.2330 C   0  0  0  0  0  2  0  0  0  0  0  0
  -24.6490  -31.1070   22.1440 N   0  0  0  0  0  0  0  0  0  0  0  0
  -23.5150  -32.2000   23.7780 O   0  0  0  0  0  0  0  0  0  0  0  0
  -22.7280  -29.4990   22.5780 C   0  0  0  0  0  0  0  0  0  0  0  0
  -21.4020  -29.3180   22.4520 N   0  0  0  0  0  0  0  0  0  0  0  0
  -23.4090  -28.8780   23.3980 O   0  0  0  0  0  0  0  0  0  0  0  0
  -20.9110  -29.8710   21.7630 H   0  0  0  0  0  0  0  0  0  0  0  0
  -18.0270  -28.1270   22.9560 C   0  0  0  0  0  0  0  0  0  0  0  0
  -20.5860  -28.3840   23.2280 C   0  0  0  0  0  3  0  0  0  0  0  0
  -20.6880  -26.9520   22.6570 C   0  0  0  0  0  2  0  0  0  0  0  0
  -19.5860  -26.6260   21.6440 C   0  0  0  0  0  2  0  0  0  0  0  0
  -18.2030  -26.7740   22.2860 C   0  0  0  0  0  2  0  0  0  0  0  0
  -19.1460  -28.8900   23.3840 C   0  0  0  0  0  0  0  0  0  0  0  0
  -18.9300  -30.1550   23.9670 C   0  0  0  0  0  3  0  0  0  0  0  0
  -17.6260  -30.6610   24.1290 C   0  0  0  0  0  3  0  0  0  0  0  0
  -16.5210  -29.8950   23.7200 C   0  0  0  0  0  3  0  0  0  0  0  0
  -16.7220  -28.6300   23.1390 C   0  0  0  0  0  3  0  0  0  0  0  0
  -25.8810  -32.5490   23.8560 C   0  0  0  0  0  3  0  0  0  0  0  0
  -26.4000  -31.7810   25.1340 C   0  0  1  0  0  0  0  0  0  0  0  0
  -25.3090  -31.5520   26.2070 C   0  0  0  0  0  1  0  0  0  0  0  0
  -26.9740  -30.3980   24.7490 C   0  0  0  0  0  1  0  0  0  0  0  0
  -27.5590  -32.5730   25.7850 C   0  0  0  0  0  1  0  0  0  0  0  0
  -25.5760  -33.9480   24.1820 N   0  0  0  0  0  0  0  0  0  0  0  0
  -25.9140  -34.9990   23.4220 C   0  0  0  0  0  0  0  0  0  0  0  0
  -26.5850  -34.8950   22.3920 O   0  0  0  0  0  0  0  0  0  0  0  0
  -24.9740  -34.1070   24.9760 H   0  0  0  0  0  0  0  0  0  0  0  0
  -24.1820  -36.7910   23.0660 C   0  0  0  0  0  1  0  0  0  0  0  0
  -25.4230  -36.3870   23.8770 C   0  0  0  0  0  3  0  0  0  0  0  0
  -27.5710  -37.2560   24.6920 C   0  0  0  0  0  1  0  0  0  0  0  0
  -26.4490  -37.4480   23.7760 N   0  0  0  0  0  0  0  0  0  0  0  0
  -26.0390  -38.3570   23.9720 H   0  0  0  0  0  0  0  0  0  0  0  0
  1  2  1  0
  3 11  1  0
  3  1  1  0
  4 51  1  0
  4  2  1  0
  5  6  1  0
  5  3  1  0
  5  4  1  0
  7  5  1  0
  9 10  2  0
 10  8  1  0
 10 21  1  0
 11  8  2  0
 12  9  1  0
 12 11  1  0
 13 21  1  0
 14 19  1  0
 15 16  1  0
 15 14  1  0
 17 16  1  0
 17 26  1  0
 17 18  1  0
 19 13  1  0
 19 18  1  0
 20 13  2  0
 21 22  1  0
 23 24  2  0
 24 43  1  0
 25 24  1  0
 25 28  1  0
 26 23  1  0
 26 27  1  0
 27 25  2  0
 28 29  1  0
 29 30  2  0
 31 34  1  0
 31 30  1  0
 32 31  2  0
 33 32  1  0
 33 28  2  0
 34 35  1  0
 35 36  1  0
 36 37  2  0
 38 37  1  0
 38 42  1  0
 39 38  2  0
 40 35  2  0
 40 39  1  0
 41 40  1  0
 43 44  1  0
 44 47  1  0
 44 46  1  0
 45 43  2  0
 48 49  1  0
 48 23  1  0
 50 48  1  0
 51 52  2  0
 53 51  1  0
 53 54  1  0
 55 66  2  0
 56 54  1  0
 56 61  1  0
 57 65  1  0
 57 67  1  0
 58 64  1  0
 58 60  1  0
 59 65  1  0
 60 59  1  0
 61 60  2  0
 62 63  1  0
 62 56  2  0
 63 58  2  0
 64 57  1  0
 65 55  1  0
 67 69  2  0
 68 67  1  0
 70 68  1  0
 71 80  2  0
 71 76  1  0
 72 68  1  0
 72 76  1  0
 73 72  1  0
 74 75  1  0
 74 73  1  0
 75 71  1  0
 76 77  2  0
 77 78  1  0
 79 78  2  0
 80 79  1  0
 81 55  1  0
 81 86  1  0
 81 82  1  0
 82 85  1  1
 82 83  1  0
 84 82  1  0
 86 89  1  0
 87 91  1  0
 87 86  1  0
 88 87  2  0
 91 90  1  0
 93 91  1  0
 93 94  1  0
 93 92  1  0
M  ISO  4  13 100  21 100  53 101  54 101
M  END
>  <TORSDO>  (22) 
F 19

>  <SCORE>  (22) 
-14.429

>  <name>  (22) 
21

>  <ligand_id>  (22) 
21

>  <original_smiles>  (22) 
[H]c1sc(C2([H])C([H])([H])C([H])([H])C([H])(C(=O)C([H])([H])Oc3c([H])c([H])c4c(c3[H])C([H])([H])N(C(=O)C([H])(N([H])C(=O)C([H])(N([H])C([H])([H])[H])C([H])([H])[H])C(C([H])([H])[H])(C([H])([H])[H])C([H])([H])[H])C([H])(C(=O)N([H])C3([H])c5c([H])c([H])c([H])c([H])c5C([H])([H])C([H])([H])C3([H])[H])C4([H])[H])[N+]2([H])[H])c([H])c1N([H])C(=O)N1C([H])([H])C([H])([H])C([H])([H])C([H])(n2nc(-c3c([H])c([H])c(Oc4c([H])c([H])c(F)c([H])c4F)c([H])c3[H])c(C(=O)N([H])[H])c2N([H])[H])C1([H])[H]

>  <smiles>  (22) 
[H]c1sc(C2([H])C([H])([H])C([H])([H])C([H])(C(=O)C([H])([H])Oc3c([H])c([H])c4c(c3[H])C([H])([H])N(C(=O)C([H])(N([H])C(=O)C([H])(N([H])C([H])([H])[H])C([H])([H])[H])C(C([H])([H])[H])(C([H])([H])[H])C([H])([H])[H])C([H])(C(=O)N([H])C3([H])c5c([H])c([H])c([H])c([H])c5C([H])([H])C([H])([H])C3([H])[H])C4([H])[H])[N+]2([H])[H])c([H])c1N([H])C(=O)N1C([H])([H])C([H])([H])C([H])([H])C([H])(n2nc(-c3c([H])c([H])c(Oc4c([H])c([H])c(F)c([H])c4F)c([H])c3[H])c(C(=O)N([H])[H])c2N([H])[H])C1([H])[H]

$$$$
22:0:0
     RDKit          3D

104114  0  0  1  0  0  0  0  0999 V2000
  -26.6790  -18.3830   18.1770 C   0  0  0  0  0  3  0  0  0  0  0  0
  -25.5690  -18.9100   17.4950 C   0  0  0  0  0  3  0  0  0  0  0  0
  -26.4340  -21.1490   17.8540 C   0  0  0  0  0  3  0  0  0  0  0  0
  -27.6860  -19.2230   18.7160 C   0  0  0  0  0  0  0  0  0  0  0  0
  -25.4440  -20.2990   17.3280 C   0  0  0  0  0  0  0  0  0  0  0  0
  -27.5570  -20.6280   18.5380 C   0  0  0  0  0  0  0  0  0  0  0  0
  -24.2700  -20.8800   16.5650 C   0  0  0  0  0  1  0  0  0  0  0  0
  -28.5750  -17.6250   20.5380 C   0  0  0  0  0  2  0  0  0  0  0  0
  -29.6730  -16.5990   20.8950 C   0  0  0  0  0  2  0  0  0  0  0  0
  -29.7210  -17.8860   18.2120 C   0  0  0  0  0  2  0  0  0  0  0  0
  -28.9260  -18.5710   19.3500 C   0  0  0  0  0  3  0  0  0  0  0  0
  -30.1000  -15.8400   19.6240 C   0  0  0  0  0  3  0  0  0  0  0  0
  -30.7890  -16.8800   18.6820 C   0  0  0  0  0  3  0  0  0  0  0  0
  -30.8500  -14.4980   19.8510 C   0  0  0  0  0  0  0  0  0  0  0  0
  -30.3800  -12.3880   18.7280 C   0  0  0  0  0  2  0  0  0  0  0  0
  -29.3540  -12.6960   17.6160 C   0  0  0  0  0  2  0  0  0  0  0  0
  -27.9140  -12.5680   18.1540 C   0  0  0  0  0  2  0  0  0  0  0  0
  -27.6900  -13.3390   19.4810 C   0  0  0  0  0  3  0  0  0  0  0  0
  -28.8470  -13.0880   20.4790 C   0  0  0  0  0  2  0  0  0  0  0  0
  -30.1380  -13.3410   19.8180 N   0  0  0  0  0  0  0  0  0  0  0  0
  -32.0570  -14.5310   19.6060 O   0  0  0  0  0  0  0  0  0  0  0  0
  -25.3660  -13.9460   20.3970 C   0  0  0  0  0  0  0  0  0  0  0  0
  -24.3210  -13.1730   20.8170 C   0  0  0  0  0  0  0  0  0  0  0  0
  -24.7670  -11.8200   20.7170 C   0  0  0  0  0  0  0  0  0  0  0  0
  -26.3830  -13.0620   20.0650 N   0  0  0  0  0  0  0  0  0  0  0  0
  -26.0320  -11.7770   20.3190 N   0  0  0  0  0  0  0  0  0  0  0  0
  -24.0460  -10.5620   20.9190 C   0  0  0  0  0  0  0  0  0  0  0  0
  -24.4990   -9.5910   21.8380 C   0  0  0  0  0  3  0  0  0  0  0  0
  -23.7740   -8.3950   22.0290 C   0  0  0  0  0  3  0  0  0  0  0  0
  -22.5810   -8.1630   21.3010 C   0  0  0  0  0  0  0  0  0  0  0  0
  -22.1490   -9.1240   20.3680 C   0  0  0  0  0  3  0  0  0  0  0  0
  -22.8760  -10.3100   20.1760 C   0  0  0  0  0  3  0  0  0  0  0  0
  -21.8280   -7.0210   21.4020 O   0  0  0  0  0  0  0  0  0  0  0  0
  -21.7480   -6.3150   22.5770 C   0  0  0  0  0  0  0  0  0  0  0  0
  -21.2860   -6.9070   23.7720 C   0  0  0  0  0  3  0  0  0  0  0  0
  -21.1540   -6.1260   24.9390 C   0  0  0  0  0  3  0  0  0  0  0  0
  -21.4740   -4.7550   24.9090 C   0  0  0  0  0  0  0  0  0  0  0  0
  -21.9310   -4.1650   23.7180 C   0  0  0  0  0  3  0  0  0  0  0  0
  -22.0650   -4.9420   22.5540 C   0  0  0  0  0  0  0  0  0  0  0  0
  -22.4840   -4.3630   21.4010 F   0  0  0  0  0  0  0  0  0  0  0  0
  -21.3410   -4.0020   26.0260 F   0  0  0  0  0  0  0  0  0  0  0  0
  -22.9520  -13.6540   21.1990 C   0  0  0  0  0  0  0  0  0  0  0  0
  -22.2860  -12.9460   22.1050 N   0  0  0  0  0  0  0  0  0  0  0  0
  -22.4870  -14.6940   20.7360 O   0  0  0  0  0  0  0  0  0  0  0  0
  -22.6760  -12.1050   22.5020 H   0  0  0  0  0  0  0  0  0  0  0  0
  -21.3710  -13.2520   22.4050 H   0  0  0  0  0  0  0  0  0  0  0  0
  -25.5220  -15.3190   20.2500 N   0  0  0  0  0  0  0  0  0  0  0  0
  -24.7680  -15.9690   20.4430 H   0  0  0  0  0  0  0  0  0  0  0  0
  -26.3620  -15.7690   19.9190 H   0  0  0  0  0  0  0  0  0  0  0  0
  -31.4810  -16.3020   17.5060 N   0  0  0  0  0  4  0  0  0  0  0  0
  -30.8430  -15.8920   16.8460 H   0  0  0  0  0  0  0  0  0  0  0  0
  -32.1160  -15.5890   17.8360 H   0  0  0  0  0  0  0  0  0  0  0  0
  -32.0210  -17.0050   17.0340 H   0  0  0  0  0  0  0  0  0  0  0  0
  -28.6130  -21.6250   19.0100 C   0  0  0  0  0  2  0  0  0  0  0  0
  -26.8790  -22.3110   20.7970 C   0  0  0  0  0  1  0  0  0  0  0  0
  -28.3720  -22.2620   20.4050 C   0  0  0  0  0  3  0  0  0  0  0  0
  -30.5090  -23.7380   20.2490 C   0  0  0  0  0  2  0  0  0  0  0  0
  -30.8780  -25.1610   20.6680 C   0  0  0  0  0  2  0  0  0  0  0  0
  -28.8350  -24.4160   21.7980 C   0  0  0  0  0  2  0  0  0  0  0  0
  -28.9960  -23.6770   20.4630 C   0  0  0  0  0  3  0  0  0  0  0  0
  -29.8810  -25.5580   21.7820 C   0  0  1  0  0  0  0  0  0  0  0  0
  -30.6050  -25.6360   23.1400 C   0  0  0  0  0  1  0  0  0  0  0  0
  -29.2150  -26.9270   21.4910 C   0  0  0  0  0  2  0  0  0  0  0  0
  -28.4180  -26.8590   20.3090 O   0  0  0  0  0  0  0  0  0  0  0  0
  -24.5170  -32.0280   23.2900 C   0  0  0  0  0  0  0  0  0  0  0  0
  -27.2640  -27.6060   20.3110 C   0  0  0  0  0  0  0  0  0  0  0  0
  -23.3430  -30.5820   21.6560 C   0  0  0  0  0  3  0  0  0  0  0  0
  -24.8350  -29.0430   20.2710 C   0  0  0  0  0  0  0  0  0  0  0  0
  -25.8570  -30.9880   21.4700 C   0  0  0  0  0  2  0  0  0  0  0  0
  -25.9730  -29.6080   20.8620 C   0  0  0  0  0  0  0  0  0  0  0  0
  -27.1890  -28.8950   20.8870 C   0  0  0  0  0  3  0  0  0  0  0  0
  -26.1190  -27.0550   19.7070 C   0  0  0  0  0  3  0  0  0  0  0  0
  -24.9000  -27.7620   19.6930 C   0  0  0  0  0  3  0  0  0  0  0  0
  -23.5750  -29.8780   20.2900 C   0  0  0  0  0  2  0  0  0  0  0  0
  -24.5890  -31.2160   22.1970 N   0  0  0  0  0  0  0  0  0  0  0  0
  -23.4290  -32.2920   23.8210 O   0  0  0  0  0  0  0  0  0  0  0  0
  -22.6990  -29.5680   22.6290 C   0  0  0  0  0  0  0  0  0  0  0  0
  -21.3820  -29.3570   22.4850 N   0  0  0  0  0  0  0  0  0  0  0  0
  -23.3830  -28.9720   23.4650 O   0  0  0  0  0  0  0  0  0  0  0  0
  -20.8920  -29.8910   21.7800 H   0  0  0  0  0  0  0  0  0  0  0  0
  -18.0260  -28.1060   22.9440 C   0  0  0  0  0  0  0  0  0  0  0  0
  -20.5710  -28.4210   23.2610 C   0  0  0  0  0  3  0  0  0  0  0  0
  -20.7140  -26.9800   22.7170 C   0  0  0  0  0  2  0  0  0  0  0  0
  -19.6390  -26.6130   21.6890 C   0  0  0  0  0  2  0  0  0  0  0  0
  -18.2420  -26.7440   22.3040 C   0  0  0  0  0  2  0  0  0  0  0  0
  -19.1190  -28.8990   23.3790 C   0  0  0  0  0  0  0  0  0  0  0  0
  -18.8660  -30.1720   23.9350 C   0  0  0  0  0  3  0  0  0  0  0  0
  -17.5490  -30.6520   24.0640 C   0  0  0  0  0  3  0  0  0  0  0  0
  -16.4680  -29.8550   23.6470 C   0  0  0  0  0  3  0  0  0  0  0  0
  -16.7070  -28.5840   23.0930 C   0  0  0  0  0  3  0  0  0  0  0  0
  -25.7920  -32.6850   23.9090 C   0  0  0  0  0  3  0  0  0  0  0  0
  -25.4670  -34.0840   24.2120 N   0  0  0  0  0  0  0  0  0  0  0  0
  -25.8060  -35.1260   23.4440 C   0  0  0  0  0  0  0  0  0  0  0  0
  -26.4990  -35.0140   22.4290 O   0  0  0  0  0  0  0  0  0  0  0  0
  -24.8580  -34.2440   25.0010 H   0  0  0  0  0  0  0  0  0  0  0  0
  -24.0700  -36.8950   23.0180 C   0  0  0  0  0  1  0  0  0  0  0  0
  -25.2960  -36.5170   23.8670 C   0  0  0  0  0  3  0  0  0  0  0  0
  -27.4020  -37.4320   24.7340 C   0  0  0  0  0  1  0  0  0  0  0  0
  -26.3220  -37.5780   23.7630 N   0  0  0  0  0  0  0  0  0  0  0  0
  -25.9050  -38.4970   23.8880 H   0  0  0  0  0  0  0  0  0  0  0  0
  -26.3120  -31.9380   25.1970 C   0  0  1  0  0  0  0  0  0  0  0  0
  -25.2140  -31.6960   26.2590 C   0  0  0  0  0  1  0  0  0  0  0  0
  -26.9180  -30.5650   24.8250 C   0  0  0  0  0  1  0  0  0  0  0  0
  -27.4450  -32.7570   25.8610 C   0  0  0  0  0  1  0  0  0  0  0  0
  1  4  1  0
  2  1  2  0
  3  6  1  0
  5  2  1  0
  5  3  2  0
  6  4  2  0
  6 54  1  0
  7  5  1  0
  8  9  1  0
 10 13  1  0
 10 11  1  0
 11  4  1  0
 11  8  1  0
 12 14  1  0
 12  9  1  0
 13 50  1  0
 13 12  1  0
 15 20  1  0
 16 17  1  0
 16 15  1  0
 18 17  1  0
 18 25  1  0
 18 19  1  0
 20 14  1  0
 20 19  1  0
 21 14  2  0
 22 23  2  0
 23 42  1  0
 24 23  1  0
 24 27  1  0
 25 26  1  0
 25 22  1  0
 26 24  2  0
 27 28  1  0
 28 29  2  0
 30 33  1  0
 30 29  1  0
 31 30  2  0
 32 31  1  0
 32 27  2  0
 33 34  1  0
 34 35  1  0
 35 36  2  0
 37 36  1  0
 37 41  1  0
 38 37  2  0
 39 34  2  0
 39 38  1  0
 40 39  1  0
 42 43  1  0
 43 46  1  0
 43 45  1  0
 44 42  2  0
 47 22  1  0
 47 48  1  0
 49 47  1  0
 50 52  1  0
 51 50  1  0
 53 50  1  0
 54 56  1  0
 56 55  1  0
 57 60  1  0
 57 58  1  0
 58 61  1  0
 60 56  1  0
 60 59  1  0
 61 59  1  0
 61 62  1  1
 63 61  1  0
 64 66  1  0
 64 63  1  0
 65 76  2  0
 66 71  1  0
 67 75  1  0
 67 77  1  0
 68 74  1  0
 68 70  1  0
 69 75  1  0
 70 71  2  0
 70 69  1  0
 72 66  2  0
 73 72  1  0
 73 68  2  0
 74 67  1  0
 75 65  1  0
 77 79  2  0
 78 77  1  0
 80 78  1  0
 81 90  2  0
 81 86  1  0
 82 78  1  0
 82 86  1  0
 83 82  1  0
 84 85  1  0
 84 83  1  0
 85 81  1  0
 86 87  2  0
 87 88  1  0
 89 88  2  0
 90 89  1  0
 91 65  1  0
 91 92  1  0
 91101  1  0
 92 95  1  0
 93 97  1  0
 93 92  1  0
 94 93  2  0
 97 96  1  0
 99 97  1  0
 99100  1  0
 99 98  1  0
101104  1  1
101102  1  0
103101  1  0
M  ISO  4  12 100  14 100  63 101  64 101
M  END
>  <TORSDO>  (23) 
F 22

>  <SCORE>  (23) 
-10.663

>  <name>  (23) 
22

>  <ligand_id>  (23) 
22

>  <original_smiles>  (23) 
[H]c1c([H])c([H])c2c(c1[H])C([H])([H])C([H])([H])C([H])([H])C2([H])N([H])C(=O)C1([H])N(C(=O)C([H])(N([H])C(=O)C([H])(N([H])C([H])([H])[H])C([H])([H])[H])C(C([H])([H])[H])(C([H])([H])[H])C([H])([H])[H])C([H])([H])c2c([H])c(OC([H])([H])C3(C([H])([H])[H])C([H])([H])C([H])([H])C([H])(C([H])(C([H])([H])[H])C([H])([H])c4c([H])c(C([H])([H])[H])c([H])c([H])c4C4([H])C([H])([H])C([H])([H])C([H])(C(=O)N5C([H])([H])C([H])([H])C([H])([H])C([H])(n6nc(-c7c([H])c([H])c(Oc8c([H])c([H])c(F)c([H])c8F)c([H])c7[H])c(C(=O)N([H])[H])c6N([H])[H])C5([H])[H])C([H])([N+]([H])([H])[H])C4([H])[H])C3([H])[H])c([H])c([H])c2C1([H])[H]

>  <smiles>  (23) 
[H]c1c([H])c([H])c2c(c1[H])C([H])([H])C([H])([H])C([H])([H])C2([H])N([H])C(=O)C1([H])N(C(=O)C([H])(N([H])C(=O)C([H])(N([H])C([H])([H])[H])C([H])([H])[H])C(C([H])([H])[H])(C([H])([H])[H])C([H])([H])[H])C([H])([H])c2c([H])c(OC([H])([H])C3(C([H])([H])[H])C([H])([H])C([H])([H])C([H])(C([H])(C([H])([H])[H])C([H])([H])c4c([H])c(C([H])([H])[H])c([H])c([H])c4C4([H])C([H])([H])C([H])([H])C([H])(C(=O)N5C([H])([H])C([H])([H])C([H])([H])C([H])(n6nc(-c7c([H])c([H])c(Oc8c([H])c([H])c(F)c([H])c8F)c([H])c7[H])c(C(=O)N([H])[H])c6N([H])[H])C5([H])[H])C([H])([N+]([H])([H])[H])C4([H])[H])C3([H])[H])c([H])c([H])c2C1([H])[H]

$$$$
23:0:0
     RDKit          3D

102111  0  0  1  0  0  0  0  0999 V2000
  -29.0090  -20.7820   20.7930 C   0  0  0  0  0  3  0  0  0  0  0  0
  -29.6050  -24.1630   19.2570 C   0  0  0  0  0  2  0  0  0  0  0  0
  -29.8440  -22.6400   19.3050 C   0  0  0  0  0  2  0  0  0  0  0  0
  -28.2170  -24.3820   19.8800 C   0  0  2  0  0  0  0  0  0  0  0  0
  -28.2230  -23.2550   20.9930 C   0  0  2  0  0  0  0  0  0  0  0  0
  -27.1520  -24.0990   18.7890 C   0  0  0  0  0  1  0  0  0  0  0  0
  -26.7710  -22.9140   21.4290 C   0  0  0  0  0  1  0  0  0  0  0  0
  -29.0050  -23.6980   22.2550 C   0  0  0  0  0  1  0  0  0  0  0  0
  -28.9660  -22.0980   20.3750 N   0  0  0  0  0  0  0  0  0  0  0  0
  -28.1470  -20.3780   21.7200 N   0  0  0  0  0  0  0  0  0  0  0  0
  -28.2190  -19.4450   22.0950 H   0  0  0  0  0  0  0  0  0  0  0  0
  -27.4220  -20.9890   22.0530 H   0  0  0  0  0  0  0  0  0  0  0  0
  -31.3420  -20.0870   20.1970 C   0  0  0  0  0  3  0  0  0  0  0  0
  -29.6220  -18.3670   20.2780 C   0  0  0  0  0  3  0  0  0  0  0  0
  -31.9350  -17.7620   19.8070 C   0  0  0  0  0  3  0  0  0  0  0  0
  -29.9830  -19.7440   20.3580 C   0  0  0  0  0  0  0  0  0  0  0  0
  -32.3230  -19.1230   19.8780 C   0  0  0  0  0  0  0  0  0  0  0  0
  -30.5950  -17.3600   20.0220 C   0  0  0  0  0  0  0  0  0  0  0  0
  -31.0020  -14.8730   19.8630 C   0  0  0  0  0  0  0  0  0  0  0  0
  -30.8160  -12.4820   19.2590 C   0  0  0  0  0  2  0  0  0  0  0  0
  -29.8730  -12.3390   18.0470 C   0  0  0  0  0  2  0  0  0  0  0  0
  -28.4060  -12.2360   18.5040 C   0  0  0  0  0  2  0  0  0  0  0  0
  -28.0180  -13.3320   19.5330 C   0  0  0  0  0  3  0  0  0  0  0  0
  -29.0760  -13.4450   20.6550 C   0  0  0  0  0  2  0  0  0  0  0  0
  -30.3830  -13.6690   20.0150 N   0  0  0  0  0  0  0  0  0  0  0  0
  -32.1380  -14.9670   19.3880 O   0  0  0  0  0  0  0  0  0  0  0  0
  -30.2290  -15.9660   20.0740 N   0  0  0  0  0  0  0  0  0  0  0  0
  -29.2630  -15.7670   20.2830 H   0  0  0  0  0  0  0  0  0  0  0  0
  -25.6930  -14.0450   20.3690 C   0  0  0  0  0  0  0  0  0  0  0  0
  -24.6020  -13.3210   20.7670 C   0  0  0  0  0  0  0  0  0  0  0  0
  -24.9860  -11.9470   20.6790 C   0  0  0  0  0  0  0  0  0  0  0  0
  -26.6760  -13.1150   20.0660 N   0  0  0  0  0  0  0  0  0  0  0  0
  -26.2570  -11.8470   20.3110 N   0  0  0  0  0  0  0  0  0  0  0  0
  -24.2010  -10.7220   20.8680 C   0  0  0  0  0  0  0  0  0  0  0  0
  -24.5900   -9.7300   21.7960 C   0  0  0  0  0  3  0  0  0  0  0  0
  -23.8080   -8.5690   21.9730 C   0  0  0  0  0  3  0  0  0  0  0  0
  -22.6220   -8.3900   21.2220 C   0  0  0  0  0  0  0  0  0  0  0  0
  -22.2510   -9.3680   20.2840 C   0  0  0  0  0  3  0  0  0  0  0  0
  -23.0330  -10.5230   20.1050 C   0  0  0  0  0  3  0  0  0  0  0  0
  -21.8140   -7.2820   21.3090 O   0  0  0  0  0  0  0  0  0  0  0  0
  -21.6870   -6.5730   22.4760 C   0  0  0  0  0  0  0  0  0  0  0  0
  -21.2300   -7.1760   23.6680 C   0  0  0  0  0  3  0  0  0  0  0  0
  -21.0490   -6.3950   24.8270 C   0  0  0  0  0  3  0  0  0  0  0  0
  -21.3150   -5.0130   24.7940 C   0  0  0  0  0  0  0  0  0  0  0  0
  -21.7650   -4.4100   23.6060 C   0  0  0  0  0  3  0  0  0  0  0  0
  -21.9470   -5.1880   22.4500 C   0  0  0  0  0  0  0  0  0  0  0  0
  -22.3610   -4.5980   21.3030 F   0  0  0  0  0  0  0  0  0  0  0  0
  -21.1330   -4.2610   25.9060 F   0  0  0  0  0  0  0  0  0  0  0  0
  -23.2460  -13.8640   21.1170 C   0  0  0  0  0  0  0  0  0  0  0  0
  -22.5280  -13.1910   22.0090 N   0  0  0  0  0  0  0  0  0  0  0  0
  -22.8370  -14.9180   20.6330 O   0  0  0  0  0  0  0  0  0  0  0  0
  -22.8740  -12.3380   22.4210 H   0  0  0  0  0  0  0  0  0  0  0  0
  -21.6200  -13.5370   22.2870 H   0  0  0  0  0  0  0  0  0  0  0  0
  -25.9240  -15.4090   20.2180 N   0  0  0  0  0  0  0  0  0  0  0  0
  -25.1910  -16.0940   20.3630 H   0  0  0  0  0  0  0  0  0  0  0  0
  -26.7600  -15.8080   19.8130 H   0  0  0  0  0  0  0  0  0  0  0  0
  -34.4110  -19.7780   21.0920 C   0  0  0  0  0  1  0  0  0  0  0  0
  -33.8860  -20.8720   18.8900 C   0  0  0  0  0  1  0  0  0  0  0  0
  -34.6350  -18.5100   18.9420 C   0  0  0  0  0  1  0  0  0  0  0  0
  -33.7920  -19.5590   19.7000 C   0  0  2  0  0  0  0  0  0  0  0  0
  -28.0110  -25.8370   20.4580 C   0  0  0  0  0  2  0  0  0  0  0  0
  -28.0490  -26.9650   19.5450 O   0  0  0  0  0  0  0  0  0  0  0  0
  -24.6600  -31.9750   23.3520 C   0  0  0  0  0  0  0  0  0  0  0  0
  -26.9510  -27.7950   19.6660 C   0  0  0  0  0  0  0  0  0  0  0  0
  -23.3050  -30.7650   21.6760 C   0  0  0  0  0  3  0  0  0  0  0  0
  -24.6130  -29.3550   19.9980 C   0  0  0  0  0  0  0  0  0  0  0  0
  -25.8210  -31.0930   21.3280 C   0  0  0  0  0  2  0  0  0  0  0  0
  -25.8260  -29.7900   20.5490 C   0  0  0  0  0  0  0  0  0  0  0  0
  -27.0030  -29.0170   20.3800 C   0  0  0  0  0  3  0  0  0  0  0  0
  -25.7240  -27.3890   19.1010 C   0  0  0  0  0  3  0  0  0  0  0  0
  -24.5580  -28.1560   19.2710 C   0  0  0  0  0  3  0  0  0  0  0  0
  -23.3970  -30.2260   20.2260 C   0  0  0  0  0  2  0  0  0  0  0  0
  -24.6170  -31.2870   22.1770 N   0  0  0  0  0  0  0  0  0  0  0  0
  -23.6270  -32.2130   23.9950 O   0  0  0  0  0  0  0  0  0  0  0  0
  -22.7000  -29.6650   22.5790 C   0  0  0  0  0  0  0  0  0  0  0  0
  -21.3810  -29.4440   22.4520 N   0  0  0  0  0  0  0  0  0  0  0  0
  -23.4130  -29.0150   23.3480 O   0  0  0  0  0  0  0  0  0  0  0  0
  -20.8660  -30.0220   21.8020 H   0  0  0  0  0  0  0  0  0  0  0  0
  -18.0850  -27.9970   22.7880 C   0  0  0  0  0  0  0  0  0  0  0  0
  -20.6040  -28.4340   23.1720 C   0  0  0  0  0  3  0  0  0  0  0  0
  -20.8350  -27.0280   22.5740 C   0  0  0  0  0  2  0  0  0  0  0  0
  -19.8010  -26.6470   21.5090 C   0  0  0  0  0  2  0  0  0  0  0  0
  -18.3870  -26.6790   22.0960 C   0  0  0  0  0  2  0  0  0  0  0  0
  -19.1260  -28.8290   23.2780 C   0  0  0  0  0  0  0  0  0  0  0  0
  -18.7910  -30.0610   23.8800 C   0  0  0  0  0  3  0  0  0  0  0  0
  -17.4490  -30.4640   23.9990 C   0  0  0  0  0  3  0  0  0  0  0  0
  -16.4210  -29.6300   23.5250 C   0  0  0  0  0  3  0  0  0  0  0  0
  -16.7400  -28.3990   22.9260 C   0  0  0  0  0  3  0  0  0  0  0  0
  -26.0020  -32.5190   23.9330 C   0  0  0  0  0  3  0  0  0  0  0  0
  -26.5410  -31.6730   25.1500 C   0  0  1  0  0  0  0  0  0  0  0  0
  -25.4770  -31.4050   26.2420 C   0  0  0  0  0  1  0  0  0  0  0  0
  -27.0750  -30.3040   24.6680 C   0  0  0  0  0  1  0  0  0  0  0  0
  -27.7340  -32.4040   25.8090 C   0  0  0  0  0  1  0  0  0  0  0  0
  -25.7780  -33.9160   24.3300 N   0  0  0  0  0  0  0  0  0  0  0  0
  -26.1150  -34.9800   23.5880 C   0  0  0  0  0  0  0  0  0  0  0  0
  -26.7160  -34.8840   22.5150 O   0  0  0  0  0  0  0  0  0  0  0  0
  -25.2340  -34.0670   25.1670 H   0  0  0  0  0  0  0  0  0  0  0  0
  -24.4380  -36.8490   23.4140 C   0  0  0  0  0  1  0  0  0  0  0  0
  -25.7180  -36.3710   24.1200 C   0  0  0  0  0  3  0  0  0  0  0  0
  -27.9400  -37.1450   24.8190 C   0  0  0  0  0  1  0  0  0  0  0  0
  -26.7830  -37.3860   23.9620 N   0  0  0  0  0  0  0  0  0  0  0  0
  -26.4270  -38.3160   24.1630 H   0  0  0  0  0  0  0  0  0  0  0  0
  1 10  1  0
  2  3  1  0
  2  4  1  0
  3  9  1  0
  4  6  1  6
  4 61  1  0
  4  5  1  0
  5  7  1  1
  5  8  1  0
  9  1  1  0
  9  5  1  0
 10 12  1  0
 10 11  1  0
 13 16  1  0
 14 16  2  0
 15 17  1  0
 15 18  2  0
 16  1  1  0
 17 13  2  0
 18 27  1  0
 18 14  1  0
 19 25  1  0
 19 27  1  0
 20 25  1  0
 21 22  1  0
 21 20  1  0
 23 22  1  0
 23 32  1  0
 23 24  1  0
 25 24  1  0
 26 19  2  0
 27 28  1  0
 29 30  2  0
 30 49  1  0
 31 30  1  0
 31 34  1  0
 32 33  1  0
 32 29  1  0
 33 31  2  0
 34 35  1  0
 35 36  2  0
 37 40  1  0
 37 36  1  0
 38 37  2  0
 39 38  1  0
 39 34  2  0
 40 41  1  0
 41 42  1  0
 42 43  2  0
 44 43  1  0
 44 48  1  0
 45 44  2  0
 46 41  2  0
 46 45  1  0
 47 46  1  0
 49 50  1  0
 50 53  1  0
 50 52  1  0
 51 49  2  0
 54 55  1  0
 54 29  1  0
 56 54  1  0
 60 58  1  6
 59 60  1  0
 60 17  1  0
 60 57  1  0
 62 64  1  0
 62 61  1  0
 63 74  2  0
 64 69  1  0
 65 73  1  0
 65 75  1  0
 66 72  1  0
 66 68  1  0
 67 73  1  0
 68 67  1  0
 69 68  2  0
 70 71  1  0
 70 64  2  0
 71 66  2  0
 72 65  1  0
 73 63  1  0
 75 77  2  0
 76 75  1  0
 78 76  1  0
 79 88  2  0
 79 84  1  0
 80 76  1  0
 80 84  1  0
 81 80  1  0
 82 83  1  0
 82 81  1  0
 83 79  1  0
 84 85  2  0
 85 86  1  0
 87 86  2  0
 88 87  1  0
 89 63  1  0
 89 94  1  0
 89 90  1  0
 90 93  1  1
 90 91  1  0
 92 90  1  0
 94 97  1  0
 95 99  1  0
 95 94  1  0
 96 95  2  0
 99 98  1  0
101 99  1  0
101102  1  0
101100  1  0
M  ISO  4  19 100  27 100  61 101  62 101
M  END
>  <TORSDO>  (24) 
F 19

>  <SCORE>  (24) 
-13.611

>  <name>  (24) 
23

>  <ligand_id>  (24) 
23

>  <original_smiles>  (24) 
[H]c1c([H])c([H])c2c(c1[H])C([H])([H])C([H])([H])C([H])([H])C2([H])N([H])C(=O)C1([H])N(C(=O)C([H])(N([H])C(=O)C([H])(N([H])C([H])([H])[H])C([H])([H])[H])C(C([H])([H])[H])(C([H])([H])[H])C([H])([H])[H])C([H])([H])c2c([H])c(OC([H])([H])C3(C([H])([H])[H])C([H])([H])C([H])([H])N(C(c4c([H])c(N([H])C(=O)N5C([H])([H])C([H])([H])C([H])([H])C([H])(n6nc(-c7c([H])c([H])c(Oc8c([H])c([H])c(F)c([H])c8F)c([H])c7[H])c(C(=O)N([H])[H])c6N([H])[H])C5([H])[H])c([H])c(C(C([H])([H])[H])(C([H])([H])[H])C([H])([H])[H])c4[H])=[N+]([H])[H])C3(C([H])([H])[H])C([H])([H])[H])c([H])c([H])c2C1([H])[H]

>  <smiles>  (24) 
[H]c1c([H])c([H])c2c(c1[H])C([H])([H])C([H])([H])C([H])([H])C2([H])N([H])C(=O)C1([H])N(C(=O)C([H])(N([H])C(=O)C([H])(N([H])C([H])([H])[H])C([H])([H])[H])C(C([H])([H])[H])(C([H])([H])[H])C([H])([H])[H])C([H])([H])c2c([H])c(OC([H])([H])C3(C([H])([H])[H])C([H])([H])C([H])([H])N(C(c4c([H])c(N([H])C(=O)N5C([H])([H])C([H])([H])C([H])([H])C([H])(n6nc(-c7c([H])c([H])c(Oc8c([H])c([H])c(F)c([H])c8F)c([H])c7[H])c(C(=O)N([H])[H])c6N([H])[H])C5([H])[H])c([H])c(C(C([H])([H])[H])(C([H])([H])[H])C([H])([H])[H])c4[H])=[N+]([H])[H])C3(C([H])([H])[H])C([H])([H])[H])c([H])c([H])c2C1([H])[H]

$$$$
24:0:0
     RDKit          3D

 94103  0  0  1  0  0  0  0  0999 V2000
  -29.1620  -21.5660   20.0780 C   0  0  0  0  0  2  0  0  0  0  0  0
  -31.3810  -17.8020   17.7710 C   0  0  0  0  0  3  0  0  0  0  0  0
  -30.9630  -16.7320   18.5700 C   0  0  0  0  0  3  0  0  0  0  0  0
  -29.9930  -18.2960   20.2010 C   0  0  0  0  0  3  0  0  0  0  0  0
  -31.1250  -19.1030   18.2120 C   0  0  0  0  0  0  0  0  0  0  0  0
  -30.4170  -19.3960   19.3800 C   0  0  0  0  0  0  0  0  0  0  0  0
  -30.3190  -16.9400   19.8210 C   0  0  0  0  0  0  0  0  0  0  0  0
  -31.5990  -20.3290   17.5190 C   0  0  0  0  0  3  0  0  0  0  0  0
  -31.0340  -21.4210   18.4190 C   0  0  0  0  0  3  0  0  0  0  0  0
  -30.3320  -20.8140   19.5610 N   0  0  0  0  0  0  0  0  0  0  0  0
  -30.7540  -14.6160   20.6160 C   0  0  0  0  0  0  0  0  0  0  0  0
  -30.5010  -12.3850   19.6220 C   0  0  0  0  0  2  0  0  0  0  0  0
  -29.6250  -12.5310   18.3600 C   0  0  0  0  0  2  0  0  0  0  0  0
  -28.1350  -12.4000   18.7250 C   0  0  0  0  0  2  0  0  0  0  0  0
  -27.7300  -13.2860   19.9340 C   0  0  0  0  0  3  0  0  0  0  0  0
  -28.7370  -13.1660   21.0990 C   0  0  0  0  0  2  0  0  0  0  0  0
  -30.0770  -13.4350   20.5660 N   0  0  0  0  0  0  0  0  0  0  0  0
  -31.9680  -14.6700   20.4030 O   0  0  0  0  0  0  0  0  0  0  0  0
  -30.0150  -15.7640   20.6240 N   0  0  0  0  0  0  0  0  0  0  0  0
  -29.0780  -15.6980   20.9900 H   0  0  0  0  0  0  0  0  0  0  0  0
  -25.3080  -13.8940   20.5410 C   0  0  0  0  0  0  0  0  0  0  0  0
  -24.2270  -13.1250   20.8760 C   0  0  0  0  0  0  0  0  0  0  0  0
  -24.6900  -11.7740   20.8890 C   0  0  0  0  0  0  0  0  0  0  0  0
  -26.3620  -13.0110   20.3670 N   0  0  0  0  0  0  0  0  0  0  0  0
  -25.9940  -11.7320   20.6390 N   0  0  0  0  0  0  0  0  0  0  0  0
  -23.9580  -10.5140   21.0660 C   0  0  0  0  0  0  0  0  0  0  0  0
  -24.3520   -9.5580   22.0280 C   0  0  0  0  0  3  0  0  0  0  0  0
  -23.6200   -8.3630   22.1930 C   0  0  0  0  0  3  0  0  0  0  0  0
  -22.4780   -8.1140   21.3950 C   0  0  0  0  0  0  0  0  0  0  0  0
  -22.1020   -9.0590   20.4220 C   0  0  0  0  0  3  0  0  0  0  0  0
  -22.8360  -10.2460   20.2560 C   0  0  0  0  0  3  0  0  0  0  0  0
  -21.7190   -6.9710   21.4680 O   0  0  0  0  0  0  0  0  0  0  0  0
  -21.6290   -6.2400   22.6250 C   0  0  0  0  0  0  0  0  0  0  0  0
  -21.1510   -6.8050   23.8270 C   0  0  0  0  0  3  0  0  0  0  0  0
  -21.0070   -5.9990   24.9750 C   0  0  0  0  0  3  0  0  0  0  0  0
  -21.3330   -4.6310   24.9210 C   0  0  0  0  0  0  0  0  0  0  0  0
  -21.8030   -4.0660   23.7230 C   0  0  0  0  0  3  0  0  0  0  0  0
  -21.9470   -4.8670   22.5770 C   0  0  0  0  0  0  0  0  0  0  0  0
  -22.3810   -4.3130   21.4200 F   0  0  0  0  0  0  0  0  0  0  0  0
  -21.1880   -3.8550   26.0200 F   0  0  0  0  0  0  0  0  0  0  0  0
  -22.8180  -13.6040   21.0780 C   0  0  0  0  0  0  0  0  0  0  0  0
  -22.0520  -12.9210   21.9200 N   0  0  0  0  0  0  0  0  0  0  0  0
  -22.4040  -14.6220   20.5220 O   0  0  0  0  0  0  0  0  0  0  0  0
  -22.3990  -12.0990   22.3930 H   0  0  0  0  0  0  0  0  0  0  0  0
  -21.1050  -13.2250   22.0960 H   0  0  0  0  0  0  0  0  0  0  0  0
  -25.4790  -15.2610   20.3470 N   0  0  0  0  0  0  0  0  0  0  0  0
  -24.7050  -15.9140   20.4100 H   0  0  0  0  0  0  0  0  0  0  0  0
  -26.3360  -15.6960   20.0290 H   0  0  0  0  0  0  0  0  0  0  0  0
  -29.5160  -22.9010   20.8580 C   0  0  0  0  0  2  0  0  0  0  0  0
  -29.7180  -24.4330   18.7200 C   0  0  0  0  0  1  0  0  0  0  0  0
  -30.6950  -25.1300   20.9020 C   0  0  0  0  0  1  0  0  0  0  0  0
  -29.5120  -24.3830   20.2450 C   0  0  2  0  0  0  0  0  0  0  0  0
  -28.2180  -25.2190   20.5640 C   0  0  0  0  0  2  0  0  0  0  0  0
  -28.3420  -26.6400   20.2410 O   0  0  0  0  0  0  0  0  0  0  0  0
  -24.5620  -31.9220   23.2690 C   0  0  0  0  0  0  0  0  0  0  0  0
  -27.1880  -27.4120   20.2290 C   0  0  0  0  0  0  0  0  0  0  0  0
  -23.3590  -30.5170   21.6300 C   0  0  0  0  0  3  0  0  0  0  0  0
  -24.8100  -28.9670   20.2150 C   0  0  0  0  0  0  0  0  0  0  0  0
  -25.8900  -30.8560   21.4420 C   0  0  0  0  0  2  0  0  0  0  0  0
  -25.9720  -29.4790   20.8050 C   0  0  0  0  0  0  0  0  0  0  0  0
  -27.1670  -28.7110   20.8010 C   0  0  0  0  0  3  0  0  0  0  0  0
  -26.0070  -26.9350   19.6180 C   0  0  0  0  0  3  0  0  0  0  0  0
  -24.8240  -27.6980   19.6160 C   0  0  0  0  0  3  0  0  0  0  0  0
  -23.5710  -29.8350   20.2540 C   0  0  0  0  0  2  0  0  0  0  0  0
  -24.6220  -31.1150   22.1710 N   0  0  0  0  0  0  0  0  0  0  0  0
  -23.4800  -32.2000   23.8040 O   0  0  0  0  0  0  0  0  0  0  0  0
  -22.6990  -29.5020   22.5940 C   0  0  0  0  0  0  0  0  0  0  0  0
  -21.3750  -29.3250   22.4660 N   0  0  0  0  0  0  0  0  0  0  0  0
  -23.3790  -28.8760   23.4120 O   0  0  0  0  0  0  0  0  0  0  0  0
  -20.8870  -29.8810   21.7780 H   0  0  0  0  0  0  0  0  0  0  0  0
  -17.9940  -28.1470   22.9690 C   0  0  0  0  0  0  0  0  0  0  0  0
  -20.5530  -28.3910   23.2380 C   0  0  0  0  0  3  0  0  0  0  0  0
  -20.6470  -26.9590   22.6630 C   0  0  0  0  0  2  0  0  0  0  0  0
  -19.5430  -26.6410   21.6500 C   0  0  0  0  0  2  0  0  0  0  0  0
  -18.1630  -26.7950   22.2960 C   0  0  0  0  0  2  0  0  0  0  0  0
  -19.1170  -28.9030   23.3970 C   0  0  0  0  0  0  0  0  0  0  0  0
  -18.9050  -30.1690   23.9860 C   0  0  0  0  0  3  0  0  0  0  0  0
  -17.6050  -30.6780   24.1520 C   0  0  0  0  0  3  0  0  0  0  0  0
  -16.4960  -29.9180   23.7410 C   0  0  0  0  0  3  0  0  0  0  0  0
  -16.6920  -28.6540   23.1550 C   0  0  0  0  0  3  0  0  0  0  0  0
  -25.8480  -32.5530   23.8880 C   0  0  0  0  0  3  0  0  0  0  0  0
  -26.3550  -31.7940   25.1750 C   0  0  1  0  0  0  0  0  0  0  0  0
  -25.2560  -31.5720   26.2410 C   0  0  0  0  0  1  0  0  0  0  0  0
  -26.9340  -30.4100   24.8000 C   0  0  0  0  0  1  0  0  0  0  0  0
  -27.5050  -32.5910   25.8350 C   0  0  0  0  0  1  0  0  0  0  0  0
  -25.5440  -33.9570   24.2010 N   0  0  0  0  0  0  0  0  0  0  0  0
  -25.8940  -35.0000   23.4370 C   0  0  0  0  0  0  0  0  0  0  0  0
  -26.5770  -34.8820   22.4150 O   0  0  0  0  0  0  0  0  0  0  0  0
  -24.9390  -34.1240   24.9920 H   0  0  0  0  0  0  0  0  0  0  0  0
  -24.1930  -36.8070   23.0310 C   0  0  0  0  0  1  0  0  0  0  0  0
  -25.4110  -36.3950   23.8730 C   0  0  0  0  0  3  0  0  0  0  0  0
  -27.5340  -37.2650   24.7490 C   0  0  0  0  0  1  0  0  0  0  0  0
  -26.4570  -37.4370   23.7780 N   0  0  0  0  0  0  0  0  0  0  0  0
  -26.0570  -38.3630   23.9090 H   0  0  0  0  0  0  0  0  0  0  0  0
  1 49  1  0
  2  5  2  0
  2  3  1  0
  3  7  2  0
  5  6  1  0
  6 10  1  0
  6  4  2  0
  7  4  1  0
  7 19  1  0
  8  5  1  0
  8  9  2  0
  9 10  1  0
 10  1  1  0
 11 19  1  0
 12 17  1  0
 13 14  1  0
 13 12  1  0
 15 14  1  0
 15 24  1  0
 15 16  1  0
 17 11  1  0
 17 16  1  0
 18 11  2  0
 19 20  1  0
 21 22  2  0
 22 23  1  0
 22 41  1  0
 23 26  1  0
 24 21  1  0
 24 25  1  0
 25 23  2  0
 26 27  1  0
 27 28  2  0
 29 32  1  0
 29 28  1  0
 30 29  2  0
 31 30  1  0
 31 26  2  0
 32 33  1  0
 33 34  1  0
 34 35  2  0
 36 35  1  0
 36 40  1  0
 37 36  2  0
 38 33  2  0
 38 37  1  0
 39 38  1  0
 41 42  1  0
 42 45  1  0
 42 44  1  0
 43 41  2  0
 46 47  1  0
 46 21  1  0
 48 46  1  0
 52 50  1  6
 52 53  1  0
 52 49  1  0
 52 51  1  0
 54 53  1  0
 55 66  2  0
 56 54  1  0
 56 61  1  0
 57 65  1  0
 57 67  1  0
 58 64  1  0
 58 60  1  0
 59 65  1  0
 60 59  1  0
 61 60  2  0
 62 56  2  0
 63 62  1  0
 63 58  2  0
 64 57  1  0
 65 55  1  0
 67 69  2  0
 68 67  1  0
 70 68  1  0
 71 80  2  0
 71 76  1  0
 72 68  1  0
 72 76  1  0
 73 72  1  0
 74 75  1  0
 74 73  1  0
 75 71  1  0
 76 77  2  0
 77 78  1  0
 79 78  2  0
 80 79  1  0
 81 55  1  0
 81 86  1  0
 81 82  1  0
 82 85  1  1
 82 83  1  0
 84 82  1  0
 86 89  1  0
 87 91  1  0
 87 86  1  0
 88 87  2  0
 91 90  1  0
 93 91  1  0
 93 94  1  0
 93 92  1  0
M  ISO  4  11 100  19 100  53 101  54 101
M  END
>  <TORSDO>  (25) 
F 20

>  <SCORE>  (25) 
-13.872

>  <name>  (25) 
24

>  <ligand_id>  (25) 
24

>  <original_smiles>  (25) 
[H]c1c([H])c([H])c2c(c1[H])C([H])([H])C([H])([H])C([H])([H])C2([H])N([H])C(=O)C1([H])N(C(=O)C([H])(N([H])C(=O)C([H])(N([H])C([H])([H])[H])C([H])([H])[H])C(C([H])([H])[H])(C([H])([H])[H])C([H])([H])[H])C([H])([H])c2c([H])c(OC([H])([H])C(C([H])([H])[H])(C([H])([H])[H])C([H])([H])C([H])([H])N3c4c([H])c(N([H])C(=O)N5C([H])([H])C([H])([H])C([H])([H])C([H])(n6nc(-c7c([H])c([H])c(Oc8c([H])c([H])c(F)c([H])c8F)c([H])c7[H])c(C(=O)N([H])[H])c6N([H])[H])C5([H])[H])c([H])c([H])c4C([H])([H])C3([H])[H])c([H])c([H])c2C1([H])[H]

>  <smiles>  (25) 
[H]c1c([H])c([H])c2c(c1[H])C([H])([H])C([H])([H])C([H])([H])C2([H])N([H])C(=O)C1([H])N(C(=O)C([H])(N([H])C(=O)C([H])(N([H])C([H])([H])[H])C([H])([H])[H])C(C([H])([H])[H])(C([H])([H])[H])C([H])([H])[H])C([H])([H])c2c([H])c(OC([H])([H])C(C([H])([H])[H])(C([H])([H])[H])C([H])([H])C([H])([H])N3c4c([H])c(N([H])C(=O)N5C([H])([H])C([H])([H])C([H])([H])C([H])(n6nc(-c7c([H])c([H])c(Oc8c([H])c([H])c(F)c([H])c8F)c([H])c7[H])c(C(=O)N([H])[H])c6N([H])[H])C5([H])[H])c([H])c([H])c4C([H])([H])C3([H])[H])c([H])c([H])c2C1([H])[H]

$$$$
25:0:0
     RDKit          3D

 96105  0  0  1  0  0  0  0  0999 V2000
  -29.3600  -22.4980   19.9750 C   0  0  0  0  0  0  0  0  0  0  0  0
  -27.1630  -22.3270   21.8350 C   0  0  0  0  0  2  0  0  0  0  0  0
  -27.2580  -23.5820   20.9500 C   0  0  0  0  0  2  0  0  0  0  0  0
  -27.7510  -21.0760   21.1510 C   0  0  0  0  0  2  0  0  0  0  0  0
  -28.7000  -23.8850   20.4990 C   0  0  1  0  0  0  0  0  0  0  0  0
  -29.5480  -24.3450   21.7050 C   0  0  0  0  0  1  0  0  0  0  0  0
  -29.0940  -21.2570   20.5740 N   0  0  0  0  0  0  0  0  0  0  0  0
  -30.1410  -22.5700   19.0210 O   0  0  0  0  0  0  0  0  0  0  0  0
  -32.1550  -19.0090   21.1630 C   0  0  0  0  0  3  0  0  0  0  0  0
  -31.6830  -17.7120   20.9140 C   0  0  0  0  0  3  0  0  0  0  0  0
  -29.5220  -18.6660   20.3750 C   0  0  0  0  0  3  0  0  0  0  0  0
  -31.3400  -20.1550   21.0520 C   0  0  0  0  0  0  0  0  0  0  0  0
  -29.9840  -20.0430   20.6080 C   0  0  0  0  0  0  0  0  0  0  0  0
  -30.3510  -17.4670   20.5250 C   0  0  0  0  0  0  0  0  0  0  0  0
  -30.6060  -14.8850   20.0690 C   0  0  0  0  0  0  0  0  0  0  0  0
  -30.2980  -12.6600   18.9680 C   0  0  0  0  0  2  0  0  0  0  0  0
  -29.2990  -12.7860   17.7990 C   0  0  0  0  0  2  0  0  0  0  0  0
  -27.8560  -12.6000   18.3050 C   0  0  0  0  0  2  0  0  0  0  0  0
  -27.5540  -13.4440   19.5720 C   0  0  0  0  0  3  0  0  0  0  0  0
  -28.6720  -13.3220   20.6310 C   0  0  0  0  0  2  0  0  0  0  0  0
  -29.9340  -13.6850   19.9750 N   0  0  0  0  0  0  0  0  0  0  0  0
  -31.7750  -14.9340   19.6770 O   0  0  0  0  0  0  0  0  0  0  0  0
  -29.8960  -16.0490   20.3700 N   0  0  0  0  0  0  0  0  0  0  0  0
  -28.9080  -15.8990   20.5010 H   0  0  0  0  0  0  0  0  0  0  0  0
  -25.2050  -14.0090   20.4290 C   0  0  0  0  0  0  0  0  0  0  0  0
  -24.1620  -13.2230   20.8340 C   0  0  0  0  0  0  0  0  0  0  0  0
  -24.6280  -11.8750   20.7550 C   0  0  0  0  0  0  0  0  0  0  0  0
  -26.2390  -13.1390   20.1250 N   0  0  0  0  0  0  0  0  0  0  0  0
  -25.9030  -11.8490   20.3840 N   0  0  0  0  0  0  0  0  0  0  0  0
  -23.9150  -10.6050   20.9520 C   0  0  0  0  0  0  0  0  0  0  0  0
  -24.3760   -9.6340   21.8670 C   0  0  0  0  0  3  0  0  0  0  0  0
  -23.6610   -8.4300   22.0540 C   0  0  0  0  0  3  0  0  0  0  0  0
  -22.4730   -8.1900   21.3250 C   0  0  0  0  0  0  0  0  0  0  0  0
  -22.0310   -9.1500   20.3970 C   0  0  0  0  0  3  0  0  0  0  0  0
  -22.7450  -10.3450   20.2100 C   0  0  0  0  0  3  0  0  0  0  0  0
  -21.7280   -7.0400   21.4220 O   0  0  0  0  0  0  0  0  0  0  0  0
  -21.7000   -6.2950   22.5730 C   0  0  0  0  0  0  0  0  0  0  0  0
  -21.2730   -6.8400   23.8030 C   0  0  0  0  0  3  0  0  0  0  0  0
  -21.1940   -6.0200   24.9470 C   0  0  0  0  0  3  0  0  0  0  0  0
  -21.5330   -4.6570   24.8620 C   0  0  0  0  0  0  0  0  0  0  0  0
  -21.9550   -4.1120   23.6370 C   0  0  0  0  0  3  0  0  0  0  0  0
  -22.0350   -4.9270   22.4950 C   0  0  0  0  0  0  0  0  0  0  0  0
  -22.4210   -4.3920   21.3120 F   0  0  0  0  0  0  0  0  0  0  0  0
  -21.4520   -3.8670   25.9590 F   0  0  0  0  0  0  0  0  0  0  0  0
  -22.7770  -13.6880   21.1790 C   0  0  0  0  0  0  0  0  0  0  0  0
  -22.0910  -12.9690   22.0610 N   0  0  0  0  0  0  0  0  0  0  0  0
  -22.3140  -14.7250   20.7020 O   0  0  0  0  0  0  0  0  0  0  0  0
  -22.4800  -12.1320   22.4650 H   0  0  0  0  0  0  0  0  0  0  0  0
  -21.1640  -13.2610   22.3340 H   0  0  0  0  0  0  0  0  0  0  0  0
  -25.3550  -15.3840   20.2690 N   0  0  0  0  0  0  0  0  0  0  0  0
  -24.5870  -16.0280   20.4210 H   0  0  0  0  0  0  0  0  0  0  0  0
  -26.1720  -15.8310   19.8730 H   0  0  0  0  0  0  0  0  0  0  0  0
  -31.6860  -21.6370   23.0720 C   0  0  0  0  0  1  0  0  0  0  0  0
  -31.9800  -21.4400   21.5800 C   0  0  0  0  0  2  0  0  0  0  0  0
  -28.6810  -25.1670   19.4950 C   0  0  0  0  0  2  0  0  0  0  0  0
  -28.5730  -26.5840   19.9970 O   0  0  0  0  0  0  0  0  0  0  0  0
  -24.6990  -31.8550   23.1030 C   0  0  0  0  0  0  0  0  0  0  0  0
  -27.4140  -27.3930   19.9430 C   0  0  0  0  0  0  0  0  0  0  0  0
  -23.5290  -30.4650   21.4320 C   0  0  0  0  0  3  0  0  0  0  0  0
  -25.0140  -28.9780   19.9670 C   0  0  0  0  0  0  0  0  0  0  0  0
  -26.0620  -30.8370   21.2600 C   0  0  0  0  0  2  0  0  0  0  0  0
  -26.1720  -29.4730   20.5770 C   0  0  0  0  0  0  0  0  0  0  0  0
  -27.3700  -28.6920   20.5550 C   0  0  0  0  0  3  0  0  0  0  0  0
  -26.2250  -26.9540   19.3180 C   0  0  0  0  0  3  0  0  0  0  0  0
  -25.0450  -27.7270   19.3290 C   0  0  0  0  0  3  0  0  0  0  0  0
  -23.7590  -29.8260   20.0370 C   0  0  0  0  0  2  0  0  0  0  0  0
  -24.7820  -31.0700   21.9880 N   0  0  0  0  0  0  0  0  0  0  0  0
  -23.6090  -32.0960   23.6440 O   0  0  0  0  0  0  0  0  0  0  0  0
  -22.8890  -29.4120   22.3700 C   0  0  0  0  0  0  0  0  0  0  0  0
  -21.5630  -29.2230   22.2530 N   0  0  0  0  0  0  0  0  0  0  0  0
  -23.5840  -28.7720   23.1630 O   0  0  0  0  0  0  0  0  0  0  0  0
  -21.0600  -29.7960   21.5900 H   0  0  0  0  0  0  0  0  0  0  0  0
  -18.2010  -27.9870   22.7680 C   0  0  0  0  0  0  0  0  0  0  0  0
  -20.7620  -28.2520   23.0010 C   0  0  0  0  0  3  0  0  0  0  0  0
  -20.8620  -26.8440   22.3710 C   0  0  0  0  0  2  0  0  0  0  0  0
  -19.7420  -26.5530   21.3660 C   0  0  0  0  0  2  0  0  0  0  0  0
  -18.3720  -26.6650   22.0390 C   0  0  0  0  0  2  0  0  0  0  0  0
  -19.3230  -28.7400   23.2060 C   0  0  0  0  0  0  0  0  0  0  0  0
  -19.1090  -29.9790   23.8470 C   0  0  0  0  0  3  0  0  0  0  0  0
  -17.8040  -30.4650   24.0570 C   0  0  0  0  0  3  0  0  0  0  0  0
  -16.6970  -29.7080   23.6370 C   0  0  0  0  0  3  0  0  0  0  0  0
  -16.8960  -28.4710   22.9990 C   0  0  0  0  0  3  0  0  0  0  0  0
  -25.9660  -32.5040   23.7410 C   0  0  0  0  0  3  0  0  0  0  0  0
  -26.4930  -31.7240   25.0080 C   0  0  1  0  0  0  0  0  0  0  0  0
  -25.3990  -31.4480   26.0670 C   0  0  0  0  0  1  0  0  0  0  0  0
  -27.1050  -30.3650   24.5970 C   0  0  0  0  0  1  0  0  0  0  0  0
  -27.6230  -32.5310   25.6880 C   0  0  0  0  0  1  0  0  0  0  0  0
  -25.6260  -33.8890   24.0940 N   0  0  0  0  0  0  0  0  0  0  0  0
  -25.9360  -34.9640   23.3560 C   0  0  0  0  0  0  0  0  0  0  0  0
  -26.6080  -34.8930   22.3230 O   0  0  0  0  0  0  0  0  0  0  0  0
  -25.0290  -34.0160   24.8990 H   0  0  0  0  0  0  0  0  0  0  0  0
  -24.1710  -36.7260   23.0370 C   0  0  0  0  0  1  0  0  0  0  0  0
  -25.4210  -36.3340   23.8390 C   0  0  0  0  0  3  0  0  0  0  0  0
  -27.5360  -37.2490   24.6870 C   0  0  0  0  0  1  0  0  0  0  0  0
  -26.4310  -37.4100   23.7450 N   0  0  0  0  0  0  0  0  0  0  0  0
  -26.0060  -38.3180   23.9080 H   0  0  0  0  0  0  0  0  0  0  0  0
  1  5  1  0
  1  7  1  0
  3  2  1  0
  4  2  1  0
  5  3  1  0
  5  6  1  1
  7 13  1  0
  7  4  1  0
  8  1  2  0
 10  9  2  0
 11 14  2  0
 11 13  1  0
 12  9  1  0
 12 54  1  0
 13 12  2  0
 14 10  1  0
 15 23  1  0
 16 21  1  0
 17 18  1  0
 17 16  1  0
 19 18  1  0
 19 28  1  0
 19 20  1  0
 21 15  1  0
 21 20  1  0
 22 15  2  0
 23 24  1  0
 23 14  1  0
 25 26  2  0
 26 45  1  0
 27 26  1  0
 27 30  1  0
 28 29  1  0
 28 25  1  0
 29 27  2  0
 30 31  1  0
 31 32  2  0
 33 36  1  0
 33 32  1  0
 34 33  2  0
 35 34  1  0
 35 30  2  0
 36 37  1  0
 37 38  1  0
 38 39  2  0
 40 39  1  0
 40 44  1  0
 41 40  2  0
 42 37  2  0
 42 41  1  0
 43 42  1  0
 45 46  1  0
 46 49  1  0
 46 48  1  0
 47 45  2  0
 50 51  1  0
 50 25  1  0
 52 50  1  0
 54 53  1  0
 55 56  1  0
 55  5  1  0
 57 68  2  0
 58 56  1  0
 58 63  1  0
 59 67  1  0
 59 69  1  0
 60 66  1  0
 60 62  1  0
 61 67  1  0
 62 61  1  0
 63 62  2  0
 64 65  1  0
 64 58  2  0
 65 60  2  0
 66 59  1  0
 67 57  1  0
 69 71  2  0
 70 69  1  0
 72 70  1  0
 73 82  2  0
 73 78  1  0
 74 70  1  0
 74 78  1  0
 75 74  1  0
 76 77  1  0
 76 75  1  0
 77 73  1  0
 78 79  2  0
 79 80  1  0
 81 80  2  0
 82 81  1  0
 83 57  1  0
 83 88  1  0
 83 84  1  0
 84 87  1  1
 84 85  1  0
 86 84  1  0
 88 91  1  0
 89 93  1  0
 89 88  1  0
 90 89  2  0
 93 92  1  0
 95 93  1  0
 95 96  1  0
 95 94  1  0
M  ISO  4  15 100  23 100  55 101  56 101
M  END
>  <TORSDO>  (26) 
F 19

>  <SCORE>  (26) 
-13.654

>  <name>  (26) 
25

>  <ligand_id>  (26) 
25

>  <original_smiles>  (26) 
[H]c1c([H])c([H])c2c(c1[H])C([H])([H])C([H])([H])C([H])([H])C2([H])N([H])C(=O)C1([H])N(C(=O)C([H])(N([H])C(=O)C([H])(N([H])C([H])([H])[H])C([H])([H])[H])C(C([H])([H])[H])(C([H])([H])[H])C([H])([H])[H])C([H])([H])c2c([H])c(OC([H])([H])C3(C([H])([H])[H])C(=O)N(c4c([H])c(N([H])C(=O)N5C([H])([H])C([H])([H])C([H])([H])C([H])(n6nc(-c7c([H])c([H])c(Oc8c([H])c([H])c(F)c([H])c8F)c([H])c7[H])c(C(=O)N([H])[H])c6N([H])[H])C5([H])[H])c([H])c([H])c4C([H])([H])C([H])([H])[H])C([H])([H])C([H])([H])C3([H])[H])c([H])c([H])c2C1([H])[H]

>  <smiles>  (26) 
[H]c1c([H])c([H])c2c(c1[H])C([H])([H])C([H])([H])C([H])([H])C2([H])N([H])C(=O)C1([H])N(C(=O)C([H])(N([H])C(=O)C([H])(N([H])C([H])([H])[H])C([H])([H])[H])C(C([H])([H])[H])(C([H])([H])[H])C([H])([H])[H])C([H])([H])c2c([H])c(OC([H])([H])C3(C([H])([H])[H])C(=O)N(c4c([H])c(N([H])C(=O)N5C([H])([H])C([H])([H])C([H])([H])C([H])(n6nc(-c7c([H])c([H])c(Oc8c([H])c([H])c(F)c([H])c8F)c([H])c7[H])c(C(=O)N([H])[H])c6N([H])[H])C5([H])[H])c([H])c([H])c4C([H])([H])C([H])([H])[H])C([H])([H])C([H])([H])C3([H])[H])c([H])c([H])c2C1([H])[H]

$$$$
26:0:0
     RDKit          3D

 94103  0  0  1  0  0  0  0  0999 V2000
  -28.5420  -20.0480   21.5930 C   0  0  0  0  0  3  0  0  0  0  0  0
  -30.1090  -20.1980   19.7490 C   0  0  0  0  0  3  0  0  0  0  0  0
  -28.4410  -21.4520   21.6300 C   0  0  0  0  0  3  0  0  0  0  0  0
  -30.0080  -21.6110   19.7830 C   0  0  0  0  0  3  0  0  0  0  0  0
  -29.3710  -19.3970   20.6510 C   0  0  0  0  0  0  0  0  0  0  0  0
  -29.1620  -22.2560   20.7210 C   0  0  0  0  0  0  0  0  0  0  0  0
  -30.9680  -14.6260   19.7020 C   0  0  0  0  0  0  0  0  0  0  0  0
  -30.6180  -12.4850   18.4980 C   0  0  0  0  0  2  0  0  0  0  0  0
  -29.5220  -12.6800   17.4230 C   0  0  0  0  0  2  0  0  0  0  0  0
  -28.1000  -12.5300   18.0120 C   0  0  0  0  0  2  0  0  0  0  0  0
  -27.9250  -13.3150   19.3400 C   0  0  0  0  0  3  0  0  0  0  0  0
  -29.1000  -12.9690   20.2790 C   0  0  0  0  0  2  0  0  0  0  0  0
  -30.3320  -13.4140   19.6080 N   0  0  0  0  0  0  0  0  0  0  0  0
  -32.0020  -14.8470   19.0570 O   0  0  0  0  0  0  0  0  0  0  0  0
  -29.2990  -17.1390   21.9140 C   0  0  0  0  0  2  0  0  0  0  0  0
  -29.4840  -15.6820   21.5030 C   0  0  0  0  0  2  0  0  0  0  0  0
  -30.4550  -17.0830   19.8450 C   0  0  0  0  0  2  0  0  0  0  0  0
  -29.3380  -17.8610   20.5740 C   0  0  0  0  0  3  0  0  0  0  0  0
  -30.2800  -15.6720   20.2630 N   0  0  0  0  0  0  0  0  0  0  0  0
  -25.6510  -13.9440   20.3700 C   0  0  0  0  0  0  0  0  0  0  0  0
  -24.6140  -13.1760   20.8280 C   0  0  0  0  0  0  0  0  0  0  0  0
  -25.0260  -11.8180   20.6590 C   0  0  0  0  0  0  0  0  0  0  0  0
  -26.6310  -13.0520   19.9630 N   0  0  0  0  0  0  0  0  0  0  0  0
  -26.2640  -11.7660   20.1860 N   0  0  0  0  0  0  0  0  0  0  0  0
  -24.2950  -10.5640   20.8680 C   0  0  0  0  0  0  0  0  0  0  0  0
  -24.7310   -9.6020   21.8060 C   0  0  0  0  0  3  0  0  0  0  0  0
  -24.0020   -8.4100   22.0020 C   0  0  0  0  0  3  0  0  0  0  0  0
  -22.8210   -8.1720   21.2590 C   0  0  0  0  0  0  0  0  0  0  0  0
  -22.4030   -9.1220   20.3100 C   0  0  0  0  0  3  0  0  0  0  0  0
  -23.1340  -10.3050   20.1140 C   0  0  0  0  0  3  0  0  0  0  0  0
  -22.0620   -7.0320   21.3640 O   0  0  0  0  0  0  0  0  0  0  0  0
  -21.8890   -6.3900   22.5630 C   0  0  0  0  0  0  0  0  0  0  0  0
  -21.3340   -7.0440   23.6850 C   0  0  0  0  0  3  0  0  0  0  0  0
  -21.1100   -6.3280   24.8780 C   0  0  0  0  0  3  0  0  0  0  0  0
  -21.4300   -4.9580   24.9490 C   0  0  0  0  0  0  0  0  0  0  0  0
  -21.9790   -4.3050   23.8320 C   0  0  0  0  0  3  0  0  0  0  0  0
  -22.2050   -5.0190   22.6410 C   0  0  0  0  0  0  0  0  0  0  0  0
  -22.7130   -4.3800   21.5600 F   0  0  0  0  0  0  0  0  0  0  0  0
  -21.2090   -4.2670   26.0920 F   0  0  0  0  0  0  0  0  0  0  0  0
  -23.2780  -13.6640   21.3080 C   0  0  0  0  0  0  0  0  0  0  0  0
  -22.6670  -12.9500   22.2450 N   0  0  0  0  0  0  0  0  0  0  0  0
  -22.7900  -14.7130   20.8880 O   0  0  0  0  0  0  0  0  0  0  0  0
  -23.0790  -12.1010   22.6030 H   0  0  0  0  0  0  0  0  0  0  0  0
  -21.7780  -13.2570   22.6120 H   0  0  0  0  0  0  0  0  0  0  0  0
  -25.8320  -15.3200   20.2540 N   0  0  0  0  0  0  0  0  0  0  0  0
  -25.1110  -15.9830   20.5160 H   0  0  0  0  0  0  0  0  0  0  0  0
  -26.6540  -15.7600   19.8580 H   0  0  0  0  0  0  0  0  0  0  0  0
  -29.5550  -24.7120   20.2050 C   0  0  0  0  0  0  0  0  0  0  0  0
  -28.9490  -23.6670   20.8090 N   0  0  0  0  0  0  0  0  0  0  0  0
  -30.4510  -24.5930   19.3660 O   0  0  0  0  0  0  0  0  0  0  0  0
  -28.2320  -23.9550   21.4610 H   0  0  0  0  0  0  0  0  0  0  0  0
  -28.0780  -26.1300   21.7910 C   0  0  0  0  0  1  0  0  0  0  0  0
  -29.0780  -26.1350   20.5970 C   0  0  0  0  0  3  0  0  0  0  0  0
  -28.6430  -26.8160   19.3990 O   0  0  0  0  0  0  0  0  0  0  0  0
  -24.6550  -31.5200   22.9420 C   0  0  0  0  0  0  0  0  0  0  0  0
  -27.4680  -27.5220   19.4680 C   0  0  0  0  0  0  0  0  0  0  0  0
  -23.4880  -30.1850   21.2150 C   0  0  0  0  0  3  0  0  0  0  0  0
  -24.9930  -28.8650   19.6300 C   0  0  0  0  0  0  0  0  0  0  0  0
  -25.9800  -30.7140   20.9950 C   0  0  0  0  0  2  0  0  0  0  0  0
  -26.1290  -29.4110   20.2440 C   0  0  0  0  0  0  0  0  0  0  0  0
  -27.3700  -28.7460   20.1640 C   0  0  0  0  0  3  0  0  0  0  0  0
  -26.3290  -26.9980   18.8270 C   0  0  0  0  0  3  0  0  0  0  0  0
  -25.0870  -27.6580   18.9160 C   0  0  0  0  0  3  0  0  0  0  0  0
  -23.6990  -29.6370   19.7780 C   0  0  0  0  0  2  0  0  0  0  0  0
  -24.7240  -30.8180   21.7760 N   0  0  0  0  0  0  0  0  0  0  0  0
  -23.5750  -31.6850   23.5250 O   0  0  0  0  0  0  0  0  0  0  0  0
  -22.9240  -29.0480   22.0980 C   0  0  0  0  0  0  0  0  0  0  0  0
  -21.6110  -28.7920   21.9730 N   0  0  0  0  0  0  0  0  0  0  0  0
  -23.6610  -28.4050   22.8500 O   0  0  0  0  0  0  0  0  0  0  0  0
  -21.0690  -29.3730   21.3500 H   0  0  0  0  0  0  0  0  0  0  0  0
  -18.3340  -27.3450   22.4030 C   0  0  0  0  0  0  0  0  0  0  0  0
  -20.8720  -27.7450   22.6760 C   0  0  0  0  0  3  0  0  0  0  0  0
  -21.0590  -26.3720   21.9910 C   0  0  0  0  0  2  0  0  0  0  0  0
  -19.9690  -26.0570   20.9610 C   0  0  0  0  0  2  0  0  0  0  0  0
  -18.5880  -26.0640   21.6240 C   0  0  0  0  0  2  0  0  0  0  0  0
  -19.4060  -28.1420   22.8810 C   0  0  0  0  0  0  0  0  0  0  0  0
  -19.1170  -29.3430   23.5650 C   0  0  0  0  0  3  0  0  0  0  0  0
  -17.7860  -29.7490   23.7750 C   0  0  0  0  0  3  0  0  0  0  0  0
  -16.7270  -28.9460   23.3170 C   0  0  0  0  0  3  0  0  0  0  0  0
  -17.0010  -27.7470   22.6360 C   0  0  0  0  0  3  0  0  0  0  0  0
  -25.9210  -32.1680   23.5820 C   0  0  0  0  0  3  0  0  0  0  0  0
  -25.5480  -33.5070   24.0550 N   0  0  0  0  0  0  0  0  0  0  0  0
  -25.8090  -34.6440   23.3970 C   0  0  0  0  0  0  0  0  0  0  0  0
  -26.4650  -34.6790   22.3520 O   0  0  0  0  0  0  0  0  0  0  0  0
  -24.9730  -33.5530   24.8820 H   0  0  0  0  0  0  0  0  0  0  0  0
  -23.9850  -36.3590   23.2220 C   0  0  0  0  0  1  0  0  0  0  0  0
  -25.2520  -35.9510   23.9920 C   0  0  0  0  0  3  0  0  0  0  0  0
  -27.3390  -36.8640   24.9020 C   0  0  0  0  0  1  0  0  0  0  0  0
  -26.2250  -37.0650   23.9800 N   0  0  0  0  0  0  0  0  0  0  0  0
  -25.7720  -37.9440   24.2150 H   0  0  0  0  0  0  0  0  0  0  0  0
  -26.5330  -31.3110   24.7570 C   0  0  1  0  0  0  0  0  0  0  0  0
  -25.4960  -30.8950   25.8260 C   0  0  0  0  0  1  0  0  0  0  0  0
  -27.1890  -30.0230   24.2060 C   0  0  0  0  0  1  0  0  0  0  0  0
  -27.6500  -32.1130   25.4640 C   0  0  0  0  0  1  0  0  0  0  0  0
  1  3  1  0
  2  4  2  0
  2  5  1  0
  4  6  1  0
  5  1  2  0
  6 49  1  0
  6  3  2  0
  7 19  1  0
  8 13  1  0
  9 10  1  0
  9  8  1  0
 11 10  1  0
 11 23  1  0
 11 12  1  0
 13  7  1  0
 13 12  1  0
 14  7  2  0
 16 15  1  0
 17 19  1  0
 17 18  1  0
 18  5  1  0
 18 15  1  0
 19 16  1  0
 20 21  2  0
 21 40  1  0
 22 21  1  0
 22 25  1  0
 23 24  1  0
 23 20  1  0
 24 22  2  0
 25 26  1  0
 26 27  2  0
 28 31  1  0
 28 27  1  0
 29 28  2  0
 30 29  1  0
 30 25  2  0
 31 32  1  0
 32 37  2  0
 32 33  1  0
 33 34  2  0
 34 35  1  0
 35 39  1  0
 36 35  2  0
 37 36  1  0
 38 37  1  0
 40 41  1  0
 41 43  1  0
 41 44  1  0
 42 40  2  0
 45 20  1  0
 45 46  1  0
 47 45  1  0
 48 53  1  0
 48 49  1  0
 49 51  1  0
 50 48  2  0
 53 52  1  0
 54 56  1  0
 54 53  1  0
 55 66  2  0
 56 61  1  0
 57 65  1  0
 57 67  1  0
 58 64  1  0
 58 60  1  0
 59 65  1  0
 60 59  1  0
 61 60  2  0
 62 63  1  0
 62 56  2  0
 63 58  2  0
 64 57  1  0
 65 55  1  0
 67 69  2  0
 68 67  1  0
 70 68  1  0
 71 80  2  0
 71 76  1  0
 72 68  1  0
 72 76  1  0
 73 72  1  0
 74 75  1  0
 74 73  1  0
 75 71  1  0
 76 77  2  0
 77 78  1  0
 79 78  2  0
 80 79  1  0
 81 55  1  0
 81 82  1  0
 81 91  1  0
 82 85  1  0
 83 87  1  0
 83 82  1  0
 84 83  2  0
 87 86  1  0
 89 87  1  0
 89 90  1  0
 89 88  1  0
 91 94  1  1
 91 92  1  0
 93 91  1  0
M  ISO  4   7 100  19 100  53 101  54 101
M  END
>  <TORSDO>  (27) 
F 18

>  <SCORE>  (27) 
-10.749

>  <name>  (27) 
26

>  <ligand_id>  (27) 
26

>  <original_smiles>  (27) 
[H]c1c([H])c([H])c2c(c1[H])C([H])([H])C([H])([H])C([H])([H])C2([H])N([H])C(=O)C1([H])N(C(=O)C([H])(N([H])C(=O)C([H])(N([H])C([H])([H])[H])C([H])([H])[H])C(C([H])([H])[H])(C([H])([H])[H])C([H])([H])[H])C([H])([H])c2c([H])c(OC([H])(C(=O)N([H])c3c([H])c([H])c(C4([H])C([H])([H])N(C(=O)N5C([H])([H])C([H])([H])C([H])([H])C([H])(n6nc(-c7c([H])c([H])c(Oc8c([H])c([H])c(F)c([H])c8F)c([H])c7[H])c(C(=O)N([H])[H])c6N([H])[H])C5([H])[H])C([H])([H])C4([H])[H])c([H])c3[H])C([H])([H])[H])c([H])c([H])c2C1([H])[H]

>  <smiles>  (27) 
[H]c1c([H])c([H])c2c(c1[H])C([H])([H])C([H])([H])C([H])([H])C2([H])N([H])C(=O)C1([H])N(C(=O)C([H])(N([H])C(=O)C([H])(N([H])C([H])([H])[H])C([H])([H])[H])C(C([H])([H])[H])(C([H])([H])[H])C([H])([H])[H])C([H])([H])c2c([H])c(OC([H])(C(=O)N([H])c3c([H])c([H])c(C4([H])C([H])([H])N(C(=O)N5C([H])([H])C([H])([H])C([H])([H])C([H])(n6nc(-c7c([H])c([H])c(Oc8c([H])c([H])c(F)c([H])c8F)c([H])c7[H])c(C(=O)N([H])[H])c6N([H])[H])C5([H])[H])C([H])([H])C4([H])[H])c([H])c3[H])C([H])([H])[H])c([H])c([H])c2C1([H])[H]

$$$$
27:0:0
     RDKit          3D

 98106  0  0  1  0  0  0  0  0999 V2000
  -28.9580  -22.0050   20.0330 C   0  0  0  0  0  0  0  0  0  0  0  0
  -29.0660  -20.9330   20.8480 N   0  0  0  0  0  0  0  0  0  0  0  0
  -29.5300  -22.0850   18.9420 O   0  0  0  0  0  0  0  0  0  0  0  0
  -28.6180  -21.0940   21.7380 H   0  0  0  0  0  0  0  0  0  0  0  0
  -29.8980  -17.4580   19.5290 C   0  0  0  0  0  3  0  0  0  0  0  0
  -29.4880  -18.8180   19.5320 C   0  0  0  0  0  3  0  0  0  0  0  0
  -30.5890  -17.6750   21.8440 C   0  0  0  0  0  3  0  0  0  0  0  0
  -30.1670  -19.0220   21.8630 C   0  0  0  0  0  0  0  0  0  0  0  0
  -30.4340  -16.8640   20.7010 C   0  0  0  0  0  0  0  0  0  0  0  0
  -29.5940  -19.6090   20.7050 C   0  0  0  0  0  0  0  0  0  0  0  0
  -31.2840  -14.5960   19.9880 C   0  0  0  0  0  0  0  0  0  0  0  0
  -30.9540  -12.3740   18.9460 C   0  0  0  0  0  2  0  0  0  0  0  0
  -29.8810  -12.4840   17.8430 C   0  0  0  0  0  2  0  0  0  0  0  0
  -28.4640  -12.3350   18.4300 C   0  0  0  0  0  2  0  0  0  0  0  0
  -28.2380  -13.2300   19.6760 C   0  0  0  0  0  3  0  0  0  0  0  0
  -29.4010  -13.0650   20.6790 C   0  0  0  0  0  2  0  0  0  0  0  0
  -30.6640  -13.3820   19.9790 N   0  0  0  0  0  0  0  0  0  0  0  0
  -32.2590  -14.8590   19.2750 O   0  0  0  0  0  0  0  0  0  0  0  0
  -30.7670  -15.4810   20.8630 N   0  0  0  0  0  0  0  0  0  0  0  0
  -30.2340  -15.0240   21.5870 H   0  0  0  0  0  0  0  0  0  0  0  0
  -25.9800  -13.8550   20.7490 C   0  0  0  0  0  0  0  0  0  0  0  0
  -24.9320  -13.0900   21.1860 C   0  0  0  0  0  0  0  0  0  0  0  0
  -25.3170  -11.7310   20.9670 C   0  0  0  0  0  0  0  0  0  0  0  0
  -26.9420  -12.9620   20.2990 N   0  0  0  0  0  0  0  0  0  0  0  0
  -26.5520  -11.6740   20.4830 N   0  0  0  0  0  0  0  0  0  0  0  0
  -24.5600  -10.4850   21.1370 C   0  0  0  0  0  0  0  0  0  0  0  0
  -24.9680   -9.4940   22.0570 C   0  0  0  0  0  3  0  0  0  0  0  0
  -24.2160   -8.3100   22.2150 C   0  0  0  0  0  3  0  0  0  0  0  0
  -23.0400   -8.1080   21.4520 C   0  0  0  0  0  0  0  0  0  0  0  0
  -22.6500   -9.0890   20.5220 C   0  0  0  0  0  3  0  0  0  0  0  0
  -23.4030  -10.2650   20.3630 C   0  0  0  0  0  3  0  0  0  0  0  0
  -22.2610   -6.9780   21.5200 O   0  0  0  0  0  0  0  0  0  0  0  0
  -22.0520   -6.3190   22.7050 C   0  0  0  0  0  0  0  0  0  0  0  0
  -21.4980   -6.9660   23.8300 C   0  0  0  0  0  3  0  0  0  0  0  0
  -21.2340   -6.2330   25.0050 C   0  0  0  0  0  3  0  0  0  0  0  0
  -21.5160   -4.8550   25.0530 C   0  0  0  0  0  0  0  0  0  0  0  0
  -22.0620   -4.2070   23.9320 C   0  0  0  0  0  3  0  0  0  0  0  0
  -22.3280   -4.9380   22.7600 C   0  0  0  0  0  0  0  0  0  0  0  0
  -22.8340   -4.3040   21.6750 F   0  0  0  0  0  0  0  0  0  0  0  0
  -21.2550   -4.1490   26.1790 F   0  0  0  0  0  0  0  0  0  0  0  0
  -23.6080  -13.5890   21.6920 C   0  0  0  0  0  0  0  0  0  0  0  0
  -22.9850  -12.8550   22.6080 N   0  0  0  0  0  0  0  0  0  0  0  0
  -23.1410  -14.6610   21.3110 O   0  0  0  0  0  0  0  0  0  0  0  0
  -23.3790  -11.9850   22.9370 H   0  0  0  0  0  0  0  0  0  0  0  0
  -22.1020  -13.1680   22.9860 H   0  0  0  0  0  0  0  0  0  0  0  0
  -26.1910  -15.2290   20.6810 N   0  0  0  0  0  0  0  0  0  0  0  0
  -25.4870  -15.9030   20.9610 H   0  0  0  0  0  0  0  0  0  0  0  0
  -27.0270  -15.6620   20.3100 H   0  0  0  0  0  0  0  0  0  0  0  0
  -31.4680  -20.8010   23.1500 C   0  0  0  0  0  1  0  0  0  0  0  0
  -30.3060  -19.8000   23.1700 C   0  0  0  0  0  2  0  0  0  0  0  0
  -27.5180  -22.8430   21.9870 C   0  0  0  0  0  1  0  0  0  0  0  0
  -27.9970  -23.1450   20.5270 C   0  0  1  0  0  0  0  0  0  0  0  0
  -28.7300  -24.5410   20.5440 C   0  0  0  0  0  0  0  0  0  0  0  0
  -29.2200  -24.9660   21.5980 O   0  0  0  0  0  0  0  0  0  0  0  0
  -28.8640  -25.4130   19.2630 C   0  0  0  0  0  2  0  0  0  0  0  0
  -28.8210  -26.8400   19.5450 O   0  0  0  0  0  0  0  0  0  0  0  0
  -24.7560  -31.5660   23.0320 C   0  0  0  0  0  0  0  0  0  0  0  0
  -27.6040  -27.5050   19.5900 C   0  0  0  0  0  0  0  0  0  0  0  0
  -23.6060  -30.2110   21.3160 C   0  0  0  0  0  3  0  0  0  0  0  0
  -25.1210  -28.8740   19.7590 C   0  0  0  0  0  0  0  0  0  0  0  0
  -26.1050  -30.7300   21.1090 C   0  0  0  0  0  2  0  0  0  0  0  0
  -26.2600  -29.4150   20.3690 C   0  0  0  0  0  0  0  0  0  0  0  0
  -27.4990  -28.7360   20.2850 C   0  0  0  0  0  3  0  0  0  0  0  0
  -26.4450  -27.0010   18.9570 C   0  0  0  0  0  3  0  0  0  0  0  0
  -25.2100  -27.6650   19.0520 C   0  0  0  0  0  3  0  0  0  0  0  0
  -23.8290  -29.6500   19.8870 C   0  0  0  0  0  2  0  0  0  0  0  0
  -24.8410  -30.8490   21.8760 N   0  0  0  0  0  0  0  0  0  0  0  0
  -23.6720  -31.7320   23.6080 O   0  0  0  0  0  0  0  0  0  0  0  0
  -23.0410  -29.0840   22.2090 C   0  0  0  0  0  0  0  0  0  0  0  0
  -21.7440  -28.7790   22.0420 N   0  0  0  0  0  0  0  0  0  0  0  0
  -23.7670  -28.4890   23.0080 O   0  0  0  0  0  0  0  0  0  0  0  0
  -21.2140  -29.3220   21.3740 H   0  0  0  0  0  0  0  0  0  0  0  0
  -18.5150  -27.1850   22.3400 C   0  0  0  0  0  0  0  0  0  0  0  0
  -21.0080  -27.7310   22.7470 C   0  0  0  0  0  3  0  0  0  0  0  0
  -21.3050  -26.3400   22.1430 C   0  0  0  0  0  2  0  0  0  0  0  0
  -20.3000  -25.9250   21.0650 C   0  0  0  0  0  2  0  0  0  0  0  0
  -18.8810  -25.8870   21.6400 C   0  0  0  0  0  2  0  0  0  0  0  0
  -19.5140  -28.0590   22.8450 C   0  0  0  0  0  0  0  0  0  0  0  0
  -19.1200  -29.2710   23.4530 C   0  0  0  0  0  3  0  0  0  0  0  0
  -17.7590  -29.6130   23.5610 C   0  0  0  0  0  3  0  0  0  0  0  0
  -16.7740  -28.7360   23.0730 C   0  0  0  0  0  3  0  0  0  0  0  0
  -17.1520  -27.5240   22.4690 C   0  0  0  0  0  3  0  0  0  0  0  0
  -26.0140  -32.2320   23.6740 C   0  0  0  0  0  3  0  0  0  0  0  0
  -25.6190  -33.5700   24.1330 N   0  0  0  0  0  0  0  0  0  0  0  0
  -25.8540  -34.7050   23.4630 C   0  0  0  0  0  0  0  0  0  0  0  0
  -26.5020  -34.7400   22.4120 O   0  0  0  0  0  0  0  0  0  0  0  0
  -25.0370  -33.6100   24.9580 H   0  0  0  0  0  0  0  0  0  0  0  0
  -23.9870  -36.3820   23.3140 C   0  0  0  0  0  1  0  0  0  0  0  0
  -25.2830  -36.0090   24.0510 C   0  0  0  0  0  3  0  0  0  0  0  0
  -27.3760  -36.9830   24.8880 C   0  0  0  0  0  1  0  0  0  0  0  0
  -26.2300  -37.1430   23.9960 N   0  0  0  0  0  0  0  0  0  0  0  0
  -25.7630  -38.0150   24.2310 H   0  0  0  0  0  0  0  0  0  0  0  0
  -26.6250  -31.3900   24.8610 C   0  0  1  0  0  0  0  0  0  0  0  0
  -25.5860  -30.9800   25.9310 C   0  0  0  0  0  1  0  0  0  0  0  0
  -27.2920  -30.0990   24.3310 C   0  0  0  0  0  1  0  0  0  0  0  0
  -27.7370  -32.2060   25.5610 C   0  0  0  0  0  1  0  0  0  0  0  0
  -25.4560  -23.7600   20.1380 C   0  0  0  0  0  1  0  0  0  0  0  0
  -26.7440  -23.1120   19.5900 C   0  0  0  0  0  2  0  0  0  0  0  0
  1 52  1  0
  1  2  1  0
  2  4  1  0
  3  1  2  0
  5  6  2  0
  5  9  1  0
  6 10  1  0
  7  8  1  0
  8 50  1  0
  9 19  1  0
  9  7  2  0
 10  2  1  0
 10  8  2  0
 11 19  1  0
 12 17  1  0
 13 14  1  0
 13 12  1  0
 15 14  1  0
 15 24  1  0
 15 16  1  0
 17 11  1  0
 17 16  1  0
 18 11  2  0
 19 20  1  0
 21 22  2  0
 22 41  1  0
 23 26  1  0
 23 22  1  0
 24 25  1  0
 24 21  1  0
 25 23  2  0
 26 27  1  0
 27 28  2  0
 29 32  1  0
 29 28  1  0
 30 29  2  0
 31 30  1  0
 31 26  2  0
 32 33  1  0
 33 38  2  0
 33 34  1  0
 34 35  2  0
 35 36  1  0
 36 40  1  0
 37 36  2  0
 38 37  1  0
 39 38  1  0
 41 42  1  0
 42 44  1  0
 42 45  1  0
 43 41  2  0
 46 21  1  0
 46 47  1  0
 48 46  1  0
 49 50  1  0
 52 53  1  0
 52 51  1  1
 53 54  2  0
 55 56  1  0
 55 53  1  0
 56 58  1  0
 57 68  2  0
 58 63  1  0
 59 67  1  0
 59 69  1  0
 60 66  1  0
 60 62  1  0
 61 67  1  0
 62 61  1  0
 63 62  2  0
 64 65  1  0
 64 58  2  0
 65 60  2  0
 66 59  1  0
 67 57  1  0
 69 71  2  0
 70 69  1  0
 72 70  1  0
 73 82  2  0
 73 78  1  0
 74 70  1  0
 74 78  1  0
 75 74  1  0
 76 77  1  0
 76 75  1  0
 77 73  1  0
 78 79  2  0
 79 80  1  0
 81 80  2  0
 82 81  1  0
 83 57  1  0
 83 84  1  0
 83 93  1  0
 84 87  1  0
 85 89  1  0
 85 84  1  0
 86 85  2  0
 89 88  1  0
 91 89  1  0
 91 92  1  0
 91 90  1  0
 93 96  1  1
 93 94  1  0
 95 93  1  0
 98 97  1  0
 98 52  1  0
M  ISO  4  11 100  19 100  55 101  56 101
M  END
>  <TORSDO>  (28) 
F 22

>  <SCORE>  (28) 
-10.368

>  <name>  (28) 
27

>  <ligand_id>  (28) 
27

>  <original_smiles>  (28) 
[H]c1c([H])c([H])c2c(c1[H])C([H])([H])C([H])([H])C([H])([H])C2([H])N([H])C(=O)C1([H])N(C(=O)C([H])(N([H])C(=O)C([H])(N([H])C([H])([H])[H])C([H])([H])[H])C(C([H])([H])[H])(C([H])([H])[H])C([H])([H])[H])C([H])([H])c2c([H])c(OC([H])([H])C(=O)C(C(=O)N([H])c3c([H])c([H])c(N([H])C(=O)N4C([H])([H])C([H])([H])C([H])([H])C([H])(n5nc(-c6c([H])c([H])c(Oc7c([H])c([H])c(F)c([H])c7F)c([H])c6[H])c(C(=O)N([H])[H])c5N([H])[H])C4([H])[H])c([H])c3C([H])([H])C([H])([H])[H])(C([H])([H])[H])C([H])([H])C([H])([H])[H])c([H])c([H])c2C1([H])[H]

>  <smiles>  (28) 
[H]c1c([H])c([H])c2c(c1[H])C([H])([H])C([H])([H])C([H])([H])C2([H])N([H])C(=O)C1([H])N(C(=O)C([H])(N([H])C(=O)C([H])(N([H])C([H])([H])[H])C([H])([H])[H])C(C([H])([H])[H])(C([H])([H])[H])C([H])([H])[H])C([H])([H])c2c([H])c(OC([H])([H])C(=O)C(C(=O)N([H])c3c([H])c([H])c(N([H])C(=O)N4C([H])([H])C([H])([H])C([H])([H])C([H])(n5nc(-c6c([H])c([H])c(Oc7c([H])c([H])c(F)c([H])c7F)c([H])c6[H])c(C(=O)N([H])[H])c5N([H])[H])C4([H])[H])c([H])c3C([H])([H])C([H])([H])[H])(C([H])([H])[H])C([H])([H])C([H])([H])[H])c([H])c([H])c2C1([H])[H]

$$$$
28:0:0
     RDKit          3D

 92101  0  0  1  0  0  0  0  0999 V2000
  -27.8410  -21.3640   19.5810 C   0  0  0  0  0  2  0  0  0  0  0  0
  -27.3350  -22.8310   19.7450 C   0  0  0  0  0  2  0  0  0  0  0  0
  -29.4850  -22.6340   20.7700 C   0  0  0  0  0  2  0  0  0  0  0  0
  -28.8660  -21.1550   20.7040 C   0  0  0  0  0  3  0  0  0  0  0  0
  -28.5590  -23.7340   20.0510 C   0  0  1  0  0  0  0  0  0  0  0  0
  -29.1970  -24.1710   18.7180 C   0  0  0  0  0  1  0  0  0  0  0  0
  -32.0990  -18.9660   20.7790 C   0  0  0  0  0  3  0  0  0  0  0  0
  -31.2000  -20.0450   20.7350 C   0  0  0  0  0  3  0  0  0  0  0  0
  -31.6510  -17.6370   20.7460 C   0  0  0  0  0  3  0  0  0  0  0  0
  -29.3630  -18.4580   20.6280 C   0  0  0  0  0  3  0  0  0  0  0  0
  -29.8030  -19.8520   20.6570 C   0  0  0  0  0  0  0  0  0  0  0  0
  -30.2760  -17.3150   20.6560 C   0  0  0  0  0  0  0  0  0  0  0  0
  -30.5910  -14.7410   20.2970 C   0  0  0  0  0  0  0  0  0  0  0  0
  -30.3200  -12.5140   19.2120 C   0  0  0  0  0  2  0  0  0  0  0  0
  -29.3550  -12.6440   18.0150 C   0  0  0  0  0  2  0  0  0  0  0  0
  -27.8980  -12.4660   18.4810 C   0  0  0  0  0  2  0  0  0  0  0  0
  -27.5660  -13.3250   19.7300 C   0  0  0  0  0  3  0  0  0  0  0  0
  -28.6460  -13.1860   20.8220 C   0  0  0  0  0  2  0  0  0  0  0  0
  -29.9330  -13.5380   20.2100 N   0  0  0  0  0  0  0  0  0  0  0  0
  -31.7560  -14.8060   19.8960 O   0  0  0  0  0  0  0  0  0  0  0  0
  -29.8690  -15.8830   20.6300 N   0  0  0  0  0  0  0  0  0  0  0  0
  -28.8970  -15.7020   20.8370 H   0  0  0  0  0  0  0  0  0  0  0  0
  -25.1930  -13.9040   20.5130 C   0  0  0  0  0  0  0  0  0  0  0  0
  -24.1380  -13.1220   20.8980 C   0  0  0  0  0  0  0  0  0  0  0  0
  -24.6050  -11.7740   20.8380 C   0  0  0  0  0  0  0  0  0  0  0  0
  -26.2330  -13.0310   20.2430 N   0  0  0  0  0  0  0  0  0  0  0  0
  -25.8880  -11.7440   20.5010 N   0  0  0  0  0  0  0  0  0  0  0  0
  -23.8900  -10.5050   21.0230 C   0  0  0  0  0  0  0  0  0  0  0  0
  -24.3250   -9.5360   21.9540 C   0  0  0  0  0  3  0  0  0  0  0  0
  -23.6060   -8.3330   22.1250 C   0  0  0  0  0  3  0  0  0  0  0  0
  -22.4380   -8.0900   21.3640 C   0  0  0  0  0  0  0  0  0  0  0  0
  -22.0230   -9.0470   20.4200 C   0  0  0  0  0  3  0  0  0  0  0  0
  -22.7430  -10.2400   20.2470 C   0  0  0  0  0  3  0  0  0  0  0  0
  -21.6900   -6.9390   21.4470 O   0  0  0  0  0  0  0  0  0  0  0  0
  -21.6150   -6.2130   22.6080 C   0  0  0  0  0  0  0  0  0  0  0  0
  -21.0980   -6.7640   23.8020 C   0  0  0  0  0  3  0  0  0  0  0  0
  -20.9770   -5.9610   24.9540 C   0  0  0  0  0  3  0  0  0  0  0  0
  -21.3590   -4.6060   24.9120 C   0  0  0  0  0  0  0  0  0  0  0  0
  -21.8670   -4.0540   23.7240 C   0  0  0  0  0  3  0  0  0  0  0  0
  -21.9930   -4.8550   22.5750 C   0  0  0  0  0  0  0  0  0  0  0  0
  -22.4640   -4.3120   21.4260 F   0  0  0  0  0  0  0  0  0  0  0  0
  -21.2350   -3.8330   26.0160 F   0  0  0  0  0  0  0  0  0  0  0  0
  -22.7440  -13.5900   21.2080 C   0  0  0  0  0  0  0  0  0  0  0  0
  -22.0370  -12.8700   22.0740 N   0  0  0  0  0  0  0  0  0  0  0  0
  -22.2970  -14.6270   20.7230 O   0  0  0  0  0  0  0  0  0  0  0  0
  -22.4130  -12.0280   22.4810 H   0  0  0  0  0  0  0  0  0  0  0  0
  -21.1040  -13.1630   22.3300 H   0  0  0  0  0  0  0  0  0  0  0  0
  -25.3510  -15.2770   20.3490 N   0  0  0  0  0  0  0  0  0  0  0  0
  -24.5840  -15.9270   20.4810 H   0  0  0  0  0  0  0  0  0  0  0  0
  -26.1810  -15.7160   19.9740 H   0  0  0  0  0  0  0  0  0  0  0  0
  -28.1830  -25.0970   20.8550 C   0  0  0  0  0  2  0  0  0  0  0  0
  -28.3600  -26.4690   20.2810 O   0  0  0  0  0  0  0  0  0  0  0  0
  -24.5900  -31.8990   23.2480 C   0  0  0  0  0  0  0  0  0  0  0  0
  -27.2520  -27.3280   20.2490 C   0  0  0  0  0  0  0  0  0  0  0  0
  -23.4130  -30.4830   21.6040 C   0  0  0  0  0  3  0  0  0  0  0  0
  -24.8870  -28.9340   20.1990 C   0  0  0  0  0  0  0  0  0  0  0  0
  -25.9490  -30.8200   21.4360 C   0  0  0  0  0  2  0  0  0  0  0  0
  -26.0490  -29.4350   20.8000 C   0  0  0  0  0  0  0  0  0  0  0  0
  -27.2410  -28.6460   20.8040 C   0  0  0  0  0  3  0  0  0  0  0  0
  -26.0690  -26.8750   19.6310 C   0  0  0  0  0  3  0  0  0  0  0  0
  -24.8990  -27.6590   19.6080 C   0  0  0  0  0  3  0  0  0  0  0  0
  -23.6470  -29.8020   20.2280 C   0  0  0  0  0  2  0  0  0  0  0  0
  -24.6690  -31.0850   22.1540 N   0  0  0  0  0  0  0  0  0  0  0  0
  -23.4990  -32.1700   23.7720 O   0  0  0  0  0  0  0  0  0  0  0  0
  -22.7470  -29.4660   22.5630 C   0  0  0  0  0  0  0  0  0  0  0  0
  -21.4210  -29.2880   22.4340 N   0  0  0  0  0  0  0  0  0  0  0  0
  -23.4250  -28.8420   23.3850 O   0  0  0  0  0  0  0  0  0  0  0  0
  -20.9360  -29.8470   21.7460 H   0  0  0  0  0  0  0  0  0  0  0  0
  -18.0360  -28.1140   22.9480 C   0  0  0  0  0  0  0  0  0  0  0  0
  -20.5980  -28.3490   23.2010 C   0  0  0  0  0  3  0  0  0  0  0  0
  -20.6840  -26.9240   22.6070 C   0  0  0  0  0  2  0  0  0  0  0  0
  -19.5720  -26.6220   21.5980 C   0  0  0  0  0  2  0  0  0  0  0  0
  -18.1970  -26.7710   22.2570 C   0  0  0  0  0  2  0  0  0  0  0  0
  -19.1650  -28.8620   23.3760 C   0  0  0  0  0  0  0  0  0  0  0  0
  -18.9610  -30.1200   23.9850 C   0  0  0  0  0  3  0  0  0  0  0  0
  -17.6610  -30.6280   24.1720 C   0  0  0  0  0  3  0  0  0  0  0  0
  -16.5470  -29.8750   23.7610 C   0  0  0  0  0  3  0  0  0  0  0  0
  -16.7360  -28.6200   23.1550 C   0  0  0  0  0  3  0  0  0  0  0  0
  -25.8620  -32.5450   23.8810 C   0  0  0  0  0  3  0  0  0  0  0  0
  -25.5440  -33.9450   24.1910 N   0  0  0  0  0  0  0  0  0  0  0  0
  -25.8800  -34.9910   23.4230 C   0  0  0  0  0  0  0  0  0  0  0  0
  -26.5590  -34.8770   22.4000 O   0  0  0  0  0  0  0  0  0  0  0  0
  -24.9430  -34.1060   24.9860 H   0  0  0  0  0  0  0  0  0  0  0  0
  -24.1670  -36.7870   23.0180 C   0  0  0  0  0  1  0  0  0  0  0  0
  -25.3860  -36.3830   23.8610 C   0  0  0  0  0  3  0  0  0  0  0  0
  -27.4940  -37.2750   24.7500 C   0  0  0  0  0  1  0  0  0  0  0  0
  -26.4250  -37.4330   23.7700 N   0  0  0  0  0  0  0  0  0  0  0  0
  -26.0160  -38.3550   23.8950 H   0  0  0  0  0  0  0  0  0  0  0  0
  -26.3600  -31.7920   25.1750 C   0  0  1  0  0  0  0  0  0  0  0  0
  -25.2520  -31.5600   26.2290 C   0  0  0  0  0  1  0  0  0  0  0  0
  -26.9550  -30.4130   24.8050 C   0  0  0  0  0  1  0  0  0  0  0  0
  -27.4970  -32.6000   25.8460 C   0  0  0  0  0  1  0  0  0  0  0  0
  1  2  1  0
  1  4  1  0
  2  5  1  0
  4 11  1  0
  4  3  1  0
  5  6  1  6
  5  3  1  0
  5 51  1  0
  8  7  2  0
  9  7  1  0
 10 12  1  0
 10 11  2  0
 11  8  1  0
 12  9  2  0
 13 21  1  0
 14 19  1  0
 15 16  1  0
 15 14  1  0
 17 16  1  0
 17 26  1  0
 17 18  1  0
 19 13  1  0
 19 18  1  0
 20 13  2  0
 21 12  1  0
 21 22  1  0
 23 24  2  0
 24 43  1  0
 25 24  1  0
 25 28  1  0
 26 27  1  0
 26 23  1  0
 27 25  2  0
 28 29  1  0
 29 30  2  0
 31 34  1  0
 31 30  1  0
 32 31  2  0
 33 32  1  0
 33 28  2  0
 34 35  1  0
 35 36  1  0
 36 37  2  0
 38 37  1  0
 38 42  1  0
 39 38  2  0
 40 35  2  0
 40 39  1  0
 41 40  1  0
 43 44  1  0
 44 47  1  0
 44 46  1  0
 45 43  2  0
 48 49  1  0
 48 23  1  0
 50 48  1  0
 52 51  1  0
 53 64  2  0
 54 52  1  0
 54 59  1  0
 55 63  1  0
 55 65  1  0
 56 62  1  0
 56 58  1  0
 57 63  1  0
 58 59  2  0
 58 57  1  0
 60 54  2  0
 61 60  1  0
 61 56  2  0
 62 55  1  0
 63 53  1  0
 65 67  2  0
 66 65  1  0
 68 66  1  0
 69 78  2  0
 69 74  1  0
 70 66  1  0
 70 74  1  0
 71 70  1  0
 72 73  1  0
 72 71  1  0
 73 69  1  0
 74 75  2  0
 75 76  1  0
 77 76  2  0
 78 77  1  0
 79 53  1  0
 79 80  1  0
 79 89  1  0
 80 83  1  0
 81 85  1  0
 81 80  1  0
 82 81  2  0
 85 84  1  0
 87 85  1  0
 87 88  1  0
 87 86  1  0
 89 92  1  1
 89 90  1  0
 91 89  1  0
M  ISO  4  13 100  21 100  51 101  52 101
M  END
>  <TORSDO>  (29) 
F 18

>  <SCORE>  (29) 
-15.006

>  <name>  (29) 
28

>  <ligand_id>  (29) 
28

>  <original_smiles>  (29) 
[H]c1c([H])c([H])c2c(c1[H])C([H])([H])C([H])([H])C([H])([H])C2([H])N([H])C(=O)C1([H])N(C(=O)C([H])(N([H])C(=O)C([H])(N([H])C([H])([H])[H])C([H])([H])[H])C(C([H])([H])[H])(C([H])([H])[H])C([H])([H])[H])C([H])([H])c2c([H])c(OC([H])([H])C3(C([H])([H])[H])C([H])([H])C([H])([H])C([H])(c4c([H])c([H])c([H])c(N([H])C(=O)N5C([H])([H])C([H])([H])C([H])([H])C([H])(n6nc(-c7c([H])c([H])c(Oc8c([H])c([H])c(F)c([H])c8F)c([H])c7[H])c(C(=O)N([H])[H])c6N([H])[H])C5([H])[H])c4[H])C3([H])[H])c([H])c([H])c2C1([H])[H]

>  <smiles>  (29) 
[H]c1c([H])c([H])c2c(c1[H])C([H])([H])C([H])([H])C([H])([H])C2([H])N([H])C(=O)C1([H])N(C(=O)C([H])(N([H])C(=O)C([H])(N([H])C([H])([H])[H])C([H])([H])[H])C(C([H])([H])[H])(C([H])([H])[H])C([H])([H])[H])C([H])([H])c2c([H])c(OC([H])([H])C3(C([H])([H])[H])C([H])([H])C([H])([H])C([H])(c4c([H])c([H])c([H])c(N([H])C(=O)N5C([H])([H])C([H])([H])C([H])([H])C([H])(n6nc(-c7c([H])c([H])c(Oc8c([H])c([H])c(F)c([H])c8F)c([H])c7[H])c(C(=O)N([H])[H])c6N([H])[H])C5([H])[H])c4[H])C3([H])[H])c([H])c([H])c2C1([H])[H]

$$$$
29:0:0
     RDKit          3D

103111  0  0  1  0  0  0  0  0999 V2000
  -29.6580  -20.3640   22.3320 C   0  0  0  0  0  2  0  0  0  0  0  0
  -31.8000  -19.7230   21.0800 C   0  0  0  0  0  3  0  0  0  0  0  0
  -32.0690  -17.5520   20.0070 C   0  0  0  0  0  3  0  0  0  0  0  0
  -29.9790  -18.1070   21.1360 C   0  0  0  0  0  3  0  0  0  0  0  0
  -32.5820  -18.8230   20.3290 C   0  0  0  0  0  0  0  0  0  0  0  0
  -30.4780  -19.3980   21.4560 C   0  0  0  0  0  0  0  0  0  0  0  0
  -30.7730  -17.1690   20.4250 C   0  0  0  0  0  0  0  0  0  0  0  0
  -30.9810  -14.7720   19.7530 C   0  0  0  0  0  0  0  0  0  0  0  0
  -30.7940  -12.3930   19.1030 C   0  0  0  0  0  2  0  0  0  0  0  0
  -29.8120  -12.2260   17.9280 C   0  0  0  0  0  2  0  0  0  0  0  0
  -28.3650  -12.0920   18.4400 C   0  0  0  0  0  2  0  0  0  0  0  0
  -27.9910  -13.1900   19.4710 C   0  0  0  0  0  3  0  0  0  0  0  0
  -29.0810  -13.3130   20.5590 C   0  0  0  0  0  2  0  0  0  0  0  0
  -30.3660  -13.5650   19.8850 N   0  0  0  0  0  0  0  0  0  0  0  0
  -32.0440  -14.9100   19.1410 O   0  0  0  0  0  0  0  0  0  0  0  0
  -30.2970  -15.8340   20.2280 N   0  0  0  0  0  0  0  0  0  0  0  0
  -29.3510  -15.6460   20.5220 H   0  0  0  0  0  0  0  0  0  0  0  0
  -25.6930  -13.8630   20.4110 C   0  0  0  0  0  0  0  0  0  0  0  0
  -24.6260  -13.1200   20.8390 C   0  0  0  0  0  0  0  0  0  0  0  0
  -25.0200  -11.7530   20.7080 C   0  0  0  0  0  0  0  0  0  0  0  0
  -26.6720  -12.9510   20.0520 N   0  0  0  0  0  0  0  0  0  0  0  0
  -26.2750  -11.6740   20.2870 N   0  0  0  0  0  0  0  0  0  0  0  0
  -24.2560  -10.5150   20.9050 C   0  0  0  0  0  0  0  0  0  0  0  0
  -24.6770   -9.5240   21.8200 C   0  0  0  0  0  3  0  0  0  0  0  0
  -23.9150   -8.3510   22.0040 C   0  0  0  0  0  3  0  0  0  0  0  0
  -22.7190   -8.1580   21.2730 C   0  0  0  0  0  0  0  0  0  0  0  0
  -22.3170   -9.1360   20.3470 C   0  0  0  0  0  3  0  0  0  0  0  0
  -23.0790  -10.3010   20.1600 C   0  0  0  0  0  3  0  0  0  0  0  0
  -21.9280   -7.0380   21.3680 O   0  0  0  0  0  0  0  0  0  0  0  0
  -21.8110   -6.3380   22.5420 C   0  0  0  0  0  0  0  0  0  0  0  0
  -21.3490   -6.9460   23.7290 C   0  0  0  0  0  3  0  0  0  0  0  0
  -21.1780   -6.1730   24.8960 C   0  0  0  0  0  3  0  0  0  0  0  0
  -21.4570   -4.7940   24.8740 C   0  0  0  0  0  0  0  0  0  0  0  0
  -21.9110   -4.1850   23.6910 C   0  0  0  0  0  3  0  0  0  0  0  0
  -22.0850   -4.9550   22.5280 C   0  0  0  0  0  0  0  0  0  0  0  0
  -22.5030   -4.3600   21.3840 F   0  0  0  0  0  0  0  0  0  0  0  0
  -21.2850   -4.0490   25.9910 F   0  0  0  0  0  0  0  0  0  0  0  0
  -23.2800  -13.6410   21.2530 C   0  0  0  0  0  0  0  0  0  0  0  0
  -22.6050  -12.9450   22.1600 N   0  0  0  0  0  0  0  0  0  0  0  0
  -22.8410  -14.7010   20.8090 O   0  0  0  0  0  0  0  0  0  0  0  0
  -22.9740  -12.0860   22.5420 H   0  0  0  0  0  0  0  0  0  0  0  0
  -21.7040  -13.2750   22.4790 H   0  0  0  0  0  0  0  0  0  0  0  0
  -25.9050  -15.2340   20.2800 N   0  0  0  0  0  0  0  0  0  0  0  0
  -25.1790  -15.9130   20.4740 H   0  0  0  0  0  0  0  0  0  0  0  0
  -26.7360  -15.6480   19.8780 H   0  0  0  0  0  0  0  0  0  0  0  0
  -33.9290  -19.1990   19.9040 C   0  0  0  0  0  0  0  0  0  0  0  0
  -34.7380  -19.8740   20.7180 N   0  0  0  0  0  0  0  0  0  0  0  0
  -34.3620  -18.8760   18.6870 N   0  0  0  0  0  4  0  0  0  0  0  0
  -34.4330  -20.0740   21.6600 H   0  0  0  0  0  0  0  0  0  0  0  0
  -35.6630  -20.1710   20.4480 H   0  0  0  0  0  0  0  0  0  0  0  0
  -33.7250  -18.4170   18.0530 H   0  0  0  0  0  0  0  0  0  0  0  0
  -35.2810  -19.1170   18.3530 H   0  0  0  0  0  0  0  0  0  0  0  0
  -29.0100  -22.6040   23.2600 C   0  0  0  0  0  1  0  0  0  0  0  0
  -30.9650  -22.5650   21.7080 C   0  0  0  0  0  1  0  0  0  0  0  0
  -29.5930  -21.9130   22.0020 C   0  0  1  0  0  0  0  0  0  0  0  0
  -28.6650  -22.2080   20.7880 C   0  0  0  0  0  0  0  0  0  0  0  0
  -27.9350  -21.3260   20.3300 O   0  0  0  0  0  0  0  0  0  0  0  0
  -28.7590  -23.5940   20.0940 C   0  0  0  0  0  2  0  0  0  0  0  0
  -26.6230  -24.6470   20.9690 C   0  0  0  0  0  1  0  0  0  0  0  0
  -26.5770  -23.4720   18.7570 C   0  0  0  0  0  1  0  0  0  0  0  0
  -27.4470  -24.3440   19.6960 C   0  0  2  0  0  0  0  0  0  0  0  0
  -27.8390  -25.6450   18.8930 C   0  0  0  0  0  2  0  0  0  0  0  0
  -27.9580  -26.8930   19.6040 O   0  0  0  0  0  0  0  0  0  0  0  0
  -24.8090  -31.9760   23.4860 C   0  0  0  0  0  0  0  0  0  0  0  0
  -26.8430  -27.7040   19.7470 C   0  0  0  0  0  0  0  0  0  0  0  0
  -23.3670  -30.8180   21.8480 C   0  0  0  0  0  3  0  0  0  0  0  0
  -24.5760  -29.3580   20.1440 C   0  0  0  0  0  0  0  0  0  0  0  0
  -25.8860  -31.0380   21.4430 C   0  0  0  0  0  2  0  0  0  0  0  0
  -25.8170  -29.7350   20.6740 C   0  0  0  0  0  0  0  0  0  0  0  0
  -26.9500  -28.9070   20.4840 C   0  0  0  0  0  3  0  0  0  0  0  0
  -25.5840  -27.3680   19.1970 C   0  0  0  0  0  3  0  0  0  0  0  0
  -24.4540  -28.1720   19.4090 C   0  0  0  0  0  3  0  0  0  0  0  0
  -23.4050  -30.2780   20.3960 C   0  0  0  0  0  2  0  0  0  0  0  0
  -24.7130  -31.2860   22.3160 N   0  0  0  0  0  0  0  0  0  0  0  0
  -23.8020  -32.2540   24.1520 O   0  0  0  0  0  0  0  0  0  0  0  0
  -22.7440  -29.7400   22.7640 C   0  0  0  0  0  0  0  0  0  0  0  0
  -21.4360  -29.4830   22.5850 N   0  0  0  0  0  0  0  0  0  0  0  0
  -23.4320  -29.1370   23.5920 O   0  0  0  0  0  0  0  0  0  0  0  0
  -20.9400  -30.0270   21.8930 H   0  0  0  0  0  0  0  0  0  0  0  0
  -18.1820  -27.9210   22.7750 C   0  0  0  0  0  0  0  0  0  0  0  0
  -20.6480  -28.4870   23.3090 C   0  0  0  0  0  3  0  0  0  0  0  0
  -20.9750  -27.0570   22.8220 C   0  0  0  0  0  2  0  0  0  0  0  0
  -20.0380  -26.5680   21.7140 C   0  0  0  0  0  2  0  0  0  0  0  0
  -18.5830  -26.5760   22.1950 C   0  0  0  0  0  2  0  0  0  0  0  0
  -19.1530  -28.8240   23.2850 C   0  0  0  0  0  0  0  0  0  0  0  0
  -18.7310  -30.0760   23.7830 C   0  0  0  0  0  3  0  0  0  0  0  0
  -17.3690  -30.4310   23.7790 C   0  0  0  0  0  3  0  0  0  0  0  0
  -16.4110  -29.5280   23.2870 C   0  0  0  0  0  3  0  0  0  0  0  0
  -16.8170  -28.2760   22.7920 C   0  0  0  0  0  3  0  0  0  0  0  0
  -26.1840  -32.4700   24.0320 C   0  0  0  0  0  3  0  0  0  0  0  0
  -26.0090  -33.8590   24.4740 N   0  0  0  0  0  0  0  0  0  0  0  0
  -26.3480  -34.9360   23.7530 C   0  0  0  0  0  0  0  0  0  0  0  0
  -26.9150  -34.8560   22.6590 O   0  0  0  0  0  0  0  0  0  0  0  0
  -25.4990  -33.9960   25.3340 H   0  0  0  0  0  0  0  0  0  0  0  0
  -24.7150  -36.8490   23.6830 C   0  0  0  0  0  1  0  0  0  0  0  0
  -26.0030  -36.3200   24.3350 C   0  0  0  0  0  3  0  0  0  0  0  0
  -28.2690  -37.0180   24.9730 C   0  0  0  0  0  1  0  0  0  0  0  0
  -27.0870  -37.3140   24.1680 N   0  0  0  0  0  0  0  0  0  0  0  0
  -26.7620  -38.2450   24.4130 H   0  0  0  0  0  0  0  0  0  0  0  0
  -26.7430  -31.5760   25.2060 C   0  0  1  0  0  0  0  0  0  0  0  0
  -25.7160  -31.3180   26.3340 C   0  0  0  0  0  1  0  0  0  0  0  0
  -27.2170  -30.2040   24.6720 C   0  0  0  0  0  1  0  0  0  0  0  0
  -27.9800  -32.2590   25.8350 C   0  0  0  0  0  1  0  0  0  0  0  0
  2  6  1  0
  3  5  1  0
  3  7  2  0
  4  6  2  0
  5  2  2  0
  6  1  1  0
  7  4  1  0
  8 14  1  0
  8 16  1  0
  9 14  1  0
 10 11  1  0
 10  9  1  0
 12 11  1  0
 12 21  1  0
 12 13  1  0
 14 13  1  0
 15  8  2  0
 16  7  1  0
 16 17  1  0
 18 19  2  0
 19 38  1  0
 20 19  1  0
 20 23  1  0
 21 22  1  0
 21 18  1  0
 22 20  2  0
 23 24  1  0
 24 25  2  0
 26 29  1  0
 26 25  1  0
 27 26  2  0
 28 27  1  0
 28 23  2  0
 29 30  1  0
 30 31  1  0
 31 32  2  0
 33 32  1  0
 33 37  1  0
 34 33  2  0
 35 30  2  0
 35 34  1  0
 36 35  1  0
 38 39  1  0
 39 42  1  0
 39 41  1  0
 40 38  2  0
 43 18  1  0
 43 44  1  0
 45 43  1  0
 46  5  1  0
 46 47  1  0
 47 49  1  0
 48 46  2  0
 50 47  1  0
 51 48  1  0
 52 48  1  0
 55 54  1  6
 55  1  1  0
 55 53  1  0
 56 55  1  0
 57 56  2  0
 58 56  1  0
 61 60  1  6
 61 58  1  0
 61 59  1  0
 62 63  1  0
 62 61  1  0
 63 65  1  0
 64 75  2  0
 65 70  1  0
 66 74  1  0
 66 76  1  0
 67 73  1  0
 67 69  1  0
 68 74  1  0
 69 68  1  0
 70 69  2  0
 71 72  1  0
 71 65  2  0
 72 67  2  0
 73 66  1  0
 74 64  1  0
 76 78  2  0
 77 76  1  0
 79 77  1  0
 80 89  2  0
 80 85  1  0
 81 77  1  0
 82 81  1  0
 83 84  1  0
 83 82  1  0
 84 80  1  0
 85 81  1  0
 85 86  2  0
 87 86  1  0
 88 87  2  0
 89 88  1  0
 90 64  1  0
 90 91  1  0
 90100  1  0
 91 94  1  0
 92 96  1  0
 92 91  1  0
 93 92  2  0
 96 95  1  0
 98 96  1  0
 98 99  1  0
 98 97  1  0
100103  1  1
100101  1  0
102100  1  0
M  ISO  4   8 100  16 100  62 101  63 101
M  END
>  <TORSDO>  (30) 
F 23

>  <SCORE>  (30) 
-11.629

>  <name>  (30) 
29

>  <ligand_id>  (30) 
29

>  <original_smiles>  (30) 
[H]c1c([H])c([H])c2c(c1[H])C([H])([H])C([H])([H])C([H])([H])C2([H])N([H])C(=O)C1([H])N(C(=O)C([H])(N([H])C(=O)C([H])(N([H])C([H])([H])[H])C([H])([H])[H])C(C([H])([H])[H])(C([H])([H])[H])C([H])([H])[H])C([H])([H])c2c([H])c(OC([H])([H])C(C([H])([H])[H])(C([H])([H])[H])C([H])([H])C(=O)C(C([H])([H])[H])(C([H])([H])[H])C([H])([H])c3c([H])c(C(N([H])[H])=[N+]([H])[H])c([H])c(N([H])C(=O)N4C([H])([H])C([H])([H])C([H])([H])C([H])(n5nc(-c6c([H])c([H])c(Oc7c([H])c([H])c(F)c([H])c7F)c([H])c6[H])c(C(=O)N([H])[H])c5N([H])[H])C4([H])[H])c3[H])c([H])c([H])c2C1([H])[H]

>  <smiles>  (30) 
[H]c1c([H])c([H])c2c(c1[H])C([H])([H])C([H])([H])C([H])([H])C2([H])N([H])C(=O)C1([H])N(C(=O)C([H])(N([H])C(=O)C([H])(N([H])C([H])([H])[H])C([H])([H])[H])C(C([H])([H])[H])(C([H])([H])[H])C([H])([H])[H])C([H])([H])c2c([H])c(OC([H])([H])C(C([H])([H])[H])(C([H])([H])[H])C([H])([H])C(=O)C(C([H])([H])[H])(C([H])([H])[H])C([H])([H])c3c([H])c(C(N([H])[H])=[N+]([H])[H])c([H])c(N([H])C(=O)N4C([H])([H])C([H])([H])C([H])([H])C([H])(n5nc(-c6c([H])c([H])c(Oc7c([H])c([H])c(F)c([H])c7F)c([H])c6[H])c(C(=O)N([H])[H])c5N([H])[H])C4([H])[H])c3[H])c([H])c([H])c2C1([H])[H]

$$$$
30:0:0
     RDKit          3D

 93102  0  0  1  0  0  0  0  0999 V2000
  -26.9780  -21.1170   20.4950 C   0  0  0  0  0  2  0  0  0  0  0  0
  -28.4900  -21.7030   18.4220 C   0  0  0  0  0  2  0  0  0  0  0  0
  -27.2040  -22.6020   20.9260 C   0  0  0  0  0  2  0  0  0  0  0  0
  -28.7390  -23.0940   19.0850 C   0  0  0  0  0  2  0  0  0  0  0  0
  -27.8160  -20.5900   19.3120 C   0  0  0  0  0  3  0  0  0  0  0  0
  -27.5180  -23.7060   19.8470 C   0  0  1  0  0  0  0  0  0  0  0  0
  -26.2660  -23.7670   18.9340 C   0  0  0  0  0  1  0  0  0  0  0  0
  -28.6910  -17.1790   17.8180 C   0  0  0  0  0  3  0  0  0  0  0  0
  -28.2430  -18.4860   18.0400 C   0  0  0  0  0  3  0  0  0  0  0  0
  -29.2620  -16.4330   18.8540 C   0  0  0  0  0  3  0  0  0  0  0  0
  -28.9610  -18.3250   20.3720 C   0  0  0  0  0  3  0  0  0  0  0  0
  -28.3810  -19.1190   19.2950 C   0  0  0  0  0  0  0  0  0  0  0  0
  -29.4120  -16.9510   20.1680 C   0  0  0  0  0  0  0  0  0  0  0  0
  -30.7970  -14.9650   21.1600 C   0  0  0  0  0  0  0  0  0  0  0  0
  -30.8440  -12.6210   20.2680 C   0  0  0  0  0  2  0  0  0  0  0  0
  -30.0550  -12.5550   18.9620 C   0  0  0  0  0  2  0  0  0  0  0  0
  -28.5780  -12.2730   19.2980 C   0  0  0  0  0  2  0  0  0  0  0  0
  -27.9780  -13.3110   20.2810 C   0  0  0  0  0  3  0  0  0  0  0  0
  -28.8740  -13.3900   21.5290 C   0  0  0  0  0  2  0  0  0  0  0  0
  -30.2210  -13.7220   21.0550 N   0  0  0  0  0  0  0  0  0  0  0  0
  -32.0200  -15.0700   21.1020 O   0  0  0  0  0  0  0  0  0  0  0  0
  -30.0150  -16.1100   21.2340 N   0  0  0  0  0  0  0  0  0  0  0  0
  -30.3970  -16.6900   21.9770 H   0  0  0  0  0  0  0  0  0  0  0  0
  -25.5360  -13.9370   20.7010 C   0  0  0  0  0  0  0  0  0  0  0  0
  -24.4250  -13.1820   20.9700 C   0  0  0  0  0  0  0  0  0  0  0  0
  -24.8840  -11.8440   21.0480 C   0  0  0  0  0  0  0  0  0  0  0  0
  -26.5950  -13.0490   20.6280 N   0  0  0  0  0  0  0  0  0  0  0  0
  -26.1980  -11.7850   20.8950 N   0  0  0  0  0  0  0  0  0  0  0  0
  -24.1490  -10.5830   21.1970 C   0  0  0  0  0  0  0  0  0  0  0  0
  -24.5000   -9.6210   22.1810 C   0  0  0  0  0  3  0  0  0  0  0  0
  -23.7640   -8.4260   22.3090 C   0  0  0  0  0  3  0  0  0  0  0  0
  -22.6710   -8.1650   21.4530 C   0  0  0  0  0  0  0  0  0  0  0  0
  -22.3320   -9.1060   20.4770 C   0  0  0  0  0  3  0  0  0  0  0  0
  -23.0660  -10.3060   20.3460 C   0  0  0  0  0  3  0  0  0  0  0  0
  -21.9340   -7.0060   21.4780 O   0  0  0  0  0  0  0  0  0  0  0  0
  -21.7950   -6.2670   22.6230 C   0  0  0  0  0  0  0  0  0  0  0  0
  -21.2950   -6.8420   23.8110 C   0  0  0  0  0  3  0  0  0  0  0  0
  -21.1090   -6.0380   24.9540 C   0  0  0  0  0  3  0  0  0  0  0  0
  -21.4200   -4.6680   24.9030 C   0  0  0  0  0  0  0  0  0  0  0  0
  -21.9320   -4.0970   23.7250 C   0  0  0  0  0  3  0  0  0  0  0  0
  -22.1150   -4.8960   22.5850 C   0  0  0  0  0  0  0  0  0  0  0  0
  -22.5840   -4.3500   21.4410 F   0  0  0  0  0  0  0  0  0  0  0  0
  -21.2320   -3.8880   25.9980 F   0  0  0  0  0  0  0  0  0  0  0  0
  -23.0220  -13.6740   21.0550 C   0  0  0  0  0  0  0  0  0  0  0  0
  -22.1940  -13.0440   21.8870 N   0  0  0  0  0  0  0  0  0  0  0  0
  -22.6300  -14.6560   20.4250 O   0  0  0  0  0  0  0  0  0  0  0  0
  -22.5050  -12.2900   22.4640 H   0  0  0  0  0  0  0  0  0  0  0  0
  -21.2470  -13.4050   21.9780 H   0  0  0  0  0  0  0  0  0  0  0  0
  -25.7170  -15.2940   20.4760 N   0  0  0  0  0  0  0  0  0  0  0  0
  -24.9490  -15.9530   20.4360 H   0  0  0  0  0  0  0  0  0  0  0  0
  -26.6190  -15.6930   20.2470 H   0  0  0  0  0  0  0  0  0  0  0  0
  -27.8620  -25.1110   20.6290 C   0  0  0  0  0  2  0  0  0  0  0  0
  -28.1650  -26.4920   20.1190 O   0  0  0  0  0  0  0  0  0  0  0  0
  -24.6530  -31.9830   23.4060 C   0  0  0  0  0  0  0  0  0  0  0  0
  -27.1500  -27.4530   20.1810 C   0  0  0  0  0  0  0  0  0  0  0  0
  -23.4330  -30.6520   21.7360 C   0  0  0  0  0  3  0  0  0  0  0  0
  -24.8520  -29.1440   20.2510 C   0  0  0  0  0  0  0  0  0  0  0  0
  -25.9830  -30.9310   21.5620 C   0  0  0  0  0  2  0  0  0  0  0  0
  -26.0350  -29.5700   20.8740 C   0  0  0  0  0  0  0  0  0  0  0  0
  -27.1970  -28.7300   20.8410 C   0  0  0  0  0  3  0  0  0  0  0  0
  -25.9660  -27.1370   19.5100 C   0  0  0  0  0  3  0  0  0  0  0  0
  -24.8180  -27.9300   19.5650 C   0  0  0  0  0  3  0  0  0  0  0  0
  -23.6360  -30.0380   20.3300 C   0  0  0  0  0  2  0  0  0  0  0  0
  -24.7110  -31.2020   22.2900 N   0  0  0  0  0  0  0  0  0  0  0  0
  -23.5730  -32.2520   23.9490 O   0  0  0  0  0  0  0  0  0  0  0  0
  -22.7690  -29.5970   22.6540 C   0  0  0  0  0  0  0  0  0  0  0  0
  -21.4460  -29.4180   22.5050 N   0  0  0  0  0  0  0  0  0  0  0  0
  -23.4390  -28.9490   23.4620 O   0  0  0  0  0  0  0  0  0  0  0  0
  -20.9620  -29.9890   21.8260 H   0  0  0  0  0  0  0  0  0  0  0  0
  -18.0660  -28.1990   22.9230 C   0  0  0  0  0  0  0  0  0  0  0  0
  -20.6200  -28.4640   23.2450 C   0  0  0  0  0  3  0  0  0  0  0  0
  -20.7380  -27.0430   22.6470 C   0  0  0  0  0  2  0  0  0  0  0  0
  -19.6550  -26.7320   21.6080 C   0  0  0  0  0  2  0  0  0  0  0  0
  -18.2620  -26.8620   22.2300 C   0  0  0  0  0  2  0  0  0  0  0  0
  -19.1750  -28.9570   23.3870 C   0  0  0  0  0  0  0  0  0  0  0  0
  -18.9410  -30.2100   23.9930 C   0  0  0  0  0  3  0  0  0  0  0  0
  -17.6310  -30.7040   24.1430 C   0  0  0  0  0  3  0  0  0  0  0  0
  -16.5370  -29.9410   23.6990 C   0  0  0  0  0  3  0  0  0  0  0  0
  -16.7550  -28.6920   23.0930 C   0  0  0  0  0  3  0  0  0  0  0  0
  -25.9400  -32.5860   24.0450 C   0  0  0  0  0  3  0  0  0  0  0  0
  -25.6400  -33.9750   24.4120 N   0  0  0  0  0  0  0  0  0  0  0  0
  -25.9920  -35.0450   23.6860 C   0  0  0  0  0  0  0  0  0  0  0  0
  -26.6740  -34.9630   22.6610 O   0  0  0  0  0  0  0  0  0  0  0  0
  -25.0370  -34.1130   25.2100 H   0  0  0  0  0  0  0  0  0  0  0  0
  -24.2890  -36.8660   23.3530 C   0  0  0  0  0  1  0  0  0  0  0  0
  -25.5110  -36.4250   24.1750 C   0  0  0  0  0  3  0  0  0  0  0  0
  -27.6420  -37.2570   25.0630 C   0  0  0  0  0  1  0  0  0  0  0  0
  -26.5560  -37.4690   24.1110 N   0  0  0  0  0  0  0  0  0  0  0  0
  -26.1590  -38.3880   24.2820 H   0  0  0  0  0  0  0  0  0  0  0  0
  -26.4420  -31.7730   25.3000 C   0  0  1  0  0  0  0  0  0  0  0  0
  -25.3440  -31.5170   26.3590 C   0  0  0  0  0  1  0  0  0  0  0  0
  -27.0120  -30.4010   24.8740 C   0  0  0  0  0  1  0  0  0  0  0  0
  -27.6000  -32.5360   25.9860 C   0  0  0  0  0  1  0  0  0  0  0  0
  1  3  1  0
  2  4  1  0
  2  5  1  0
  4  6  1  0
  5 12  1  0
  5  1  1  0
  6  7  1  6
  6 52  1  0
  6  3  1  0
  8  9  2  0
  8 10  1  0
  9 12  1  0
 10 13  2  0
 12 11  2  0
 13 11  1  0
 13 22  1  0
 14 22  1  0
 15 20  1  0
 16 17  1  0
 16 15  1  0
 18 17  1  0
 18 27  1  0
 18 19  1  0
 20 14  1  0
 20 19  1  0
 21 14  2  0
 22 23  1  0
 24 25  2  0
 25 26  1  0
 25 44  1  0
 26 29  1  0
 27 24  1  0
 27 28  1  0
 28 26  2  0
 29 30  1  0
 30 31  2  0
 32 35  1  0
 32 31  1  0
 33 32  2  0
 34 33  1  0
 34 29  2  0
 35 36  1  0
 36 37  1  0
 37 38  2  0
 39 38  1  0
 39 43  1  0
 40 39  2  0
 41 36  2  0
 41 40  1  0
 42 41  1  0
 44 45  1  0
 45 48  1  0
 45 47  1  0
 46 44  2  0
 49 24  1  0
 50 49  1  0
 51 49  1  0
 53 55  1  0
 53 52  1  0
 54 65  2  0
 55 60  1  0
 56 64  1  0
 56 66  1  0
 57 63  1  0
 57 59  1  0
 58 64  1  0
 59 58  1  0
 60 59  2  0
 61 62  1  0
 61 55  2  0
 62 57  2  0
 63 56  1  0
 64 54  1  0
 66 68  2  0
 67 66  1  0
 69 67  1  0
 70 79  2  0
 70 75  1  0
 71 67  1  0
 71 75  1  0
 72 71  1  0
 73 74  1  0
 73 72  1  0
 74 70  1  0
 75 76  2  0
 76 77  1  0
 78 77  2  0
 79 78  1  0
 80 54  1  0
 80 81  1  0
 80 90  1  0
 81 84  1  0
 82 86  1  0
 82 81  1  0
 83 82  2  0
 86 85  1  0
 88 86  1  0
 88 89  1  0
 88 87  1  0
 90 93  1  1
 90 91  1  0
 92 90  1  0
M  ISO  4  14 100  22 100  52 101  53 101
M  END
>  <TORSDO>  (31) 
F 18

>  <SCORE>  (31) 
-12.884

>  <name>  (31) 
30

>  <ligand_id>  (31) 
30

>  <original_smiles>  (31) 
[H]c1c([H])c([H])c2c(c1[H])C([H])([H])C([H])([H])C([H])([H])C2([H])N([H])C(=O)C1([H])N(C(=O)C([H])(N([H])C(=O)C([H])(N([H])C([H])([H])[H])C([H])([H])[H])C(C([H])([H])[H])(C([H])([H])[H])C([H])([H])[H])C([H])([H])c2c([H])c(OC([H])([H])C3(C([H])([H])[H])C([H])([H])C([H])([H])C([H])(c4c([H])c([H])c([H])c(N([H])C(=O)N5C([H])([H])C([H])([H])C([H])([H])C([H])(n6nc(-c7c([H])c([H])c(Oc8c([H])c([H])c(F)c([H])c8F)c([H])c7[H])c(C(=O)N([H])[H])c6N([H])[H])C5([H])[H])c4[H])C([H])([H])C3([H])[H])c([H])c([H])c2C1([H])[H]

>  <smiles>  (31) 
[H]c1c([H])c([H])c2c(c1[H])C([H])([H])C([H])([H])C([H])([H])C2([H])N([H])C(=O)C1([H])N(C(=O)C([H])(N([H])C(=O)C([H])(N([H])C([H])([H])[H])C([H])([H])[H])C(C([H])([H])[H])(C([H])([H])[H])C([H])([H])[H])C([H])([H])c2c([H])c(OC([H])([H])C3(C([H])([H])[H])C([H])([H])C([H])([H])C([H])(c4c([H])c([H])c([H])c(N([H])C(=O)N5C([H])([H])C([H])([H])C([H])([H])C([H])(n6nc(-c7c([H])c([H])c(Oc8c([H])c([H])c(F)c([H])c8F)c([H])c7[H])c(C(=O)N([H])[H])c6N([H])[H])C5([H])[H])c4[H])C([H])([H])C3([H])[H])c([H])c([H])c2C1([H])[H]

$$$$
31:0:0
     RDKit          3D

 96105  0  0  1  0  0  0  0  0999 V2000
  -30.0000  -24.2900   18.8350 C   0  0  0  0  0  0  0  0  0  0  0  0
  -30.3060  -23.5060   19.8880 N   0  0  0  0  0  0  0  0  0  0  0  0
  -29.3920  -23.8820   17.8400 O   0  0  0  0  0  0  0  0  0  0  0  0
  -30.7070  -24.0160   20.6650 H   0  0  0  0  0  0  0  0  0  0  0  0
  -30.1800  -20.2150   21.6640 C   0  0  0  0  0  3  0  0  0  0  0  0
  -29.6800  -19.8080   19.3250 C   0  0  0  0  0  3  0  0  0  0  0  0
  -30.3200  -21.5920   21.3920 C   0  0  0  0  0  3  0  0  0  0  0  0
  -29.8210  -21.1870   19.0510 C   0  0  0  0  0  3  0  0  0  0  0  0
  -29.8550  -19.3040   20.6360 C   0  0  0  0  0  0  0  0  0  0  0  0
  -30.1280  -22.1020   20.0870 C   0  0  0  0  0  0  0  0  0  0  0  0
  -30.9170  -14.4740   19.9870 C   0  0  0  0  0  0  0  0  0  0  0  0
  -30.4920  -12.3890   18.7400 C   0  0  0  0  0  2  0  0  0  0  0  0
  -29.4450  -12.6700   17.6410 C   0  0  0  0  0  2  0  0  0  0  0  0
  -28.0120  -12.5150   18.1900 C   0  0  0  0  0  2  0  0  0  0  0  0
  -27.8010  -13.2700   19.5310 C   0  0  0  0  0  3  0  0  0  0  0  0
  -28.9530  -12.9660   20.5130 C   0  0  0  0  0  2  0  0  0  0  0  0
  -30.2190  -13.3110   19.8530 N   0  0  0  0  0  0  0  0  0  0  0  0
  -31.9690  -14.6770   19.3680 O   0  0  0  0  0  0  0  0  0  0  0  0
  -30.2430  -17.2560   22.2190 C   0  0  0  0  0  2  0  0  0  0  0  0
  -30.1800  -15.7350   22.0050 C   0  0  0  0  0  2  0  0  0  0  0  0
  -30.2040  -16.8300   19.8930 C   0  0  0  0  0  2  0  0  0  0  0  0
  -29.6370  -17.8090   20.9310 C   0  0  0  0  0  3  0  0  0  0  0  0
  -30.2480  -15.5120   20.5520 N   0  0  0  0  0  0  0  0  0  0  0  0
  -25.4930  -13.8530   20.5180 C   0  0  0  0  0  0  0  0  0  0  0  0
  -24.4560  -13.0700   20.9480 C   0  0  0  0  0  0  0  0  0  0  0  0
  -24.8870  -11.7190   20.7820 C   0  0  0  0  0  0  0  0  0  0  0  0
  -26.4960  -12.9780   20.1220 N   0  0  0  0  0  0  0  0  0  0  0  0
  -26.1360  -11.6850   20.3340 N   0  0  0  0  0  0  0  0  0  0  0  0
  -24.1630  -10.4550   20.9680 C   0  0  0  0  0  0  0  0  0  0  0  0
  -24.6060   -9.4800   21.8880 C   0  0  0  0  0  3  0  0  0  0  0  0
  -23.8850   -8.2770   22.0590 C   0  0  0  0  0  3  0  0  0  0  0  0
  -22.7080   -8.0440   21.3110 C   0  0  0  0  0  0  0  0  0  0  0  0
  -22.2850   -9.0080   20.3800 C   0  0  0  0  0  3  0  0  0  0  0  0
  -23.0050  -10.2010   20.2050 C   0  0  0  0  0  3  0  0  0  0  0  0
  -21.9550   -6.8980   21.3930 O   0  0  0  0  0  0  0  0  0  0  0  0
  -21.8350   -6.1990   22.5680 C   0  0  0  0  0  0  0  0  0  0  0  0
  -21.3100   -6.7900   23.7380 C   0  0  0  0  0  3  0  0  0  0  0  0
  -21.1470   -6.0150   24.9040 C   0  0  0  0  0  3  0  0  0  0  0  0
  -21.4920   -4.6490   24.8980 C   0  0  0  0  0  0  0  0  0  0  0  0
  -22.0020   -4.0560   23.7310 C   0  0  0  0  0  3  0  0  0  0  0  0
  -22.1730   -4.8290   22.5690 C   0  0  0  0  0  0  0  0  0  0  0  0
  -22.6500   -4.2480   21.4440 F   0  0  0  0  0  0  0  0  0  0  0  0
  -21.3240   -3.9030   26.0150 F   0  0  0  0  0  0  0  0  0  0  0  0
  -23.1050  -13.5450   21.3930 C   0  0  0  0  0  0  0  0  0  0  0  0
  -22.4740  -12.8310   22.3200 N   0  0  0  0  0  0  0  0  0  0  0  0
  -22.6160  -14.5840   20.9530 O   0  0  0  0  0  0  0  0  0  0  0  0
  -22.8820  -11.9880   22.6980 H   0  0  0  0  0  0  0  0  0  0  0  0
  -21.5640  -13.1280   22.6490 H   0  0  0  0  0  0  0  0  0  0  0  0
  -25.6670  -15.2320   20.4220 N   0  0  0  0  0  0  0  0  0  0  0  0
  -24.9370  -15.8860   20.6760 H   0  0  0  0  0  0  0  0  0  0  0  0
  -26.4950  -15.6830   20.0570 H   0  0  0  0  0  0  0  0  0  0  0  0
  -31.3890  -26.0710   17.7170 C   0  0  0  0  0  1  0  0  0  0  0  0
  -31.1720  -26.1590   20.2020 C   0  0  0  0  0  1  0  0  0  0  0  0
  -30.4280  -25.7850   18.8920 C   0  0  2  0  0  0  0  0  0  0  0  0
  -29.1750  -26.6900   18.7430 C   0  0  0  0  0  2  0  0  0  0  0  0
  -28.5230  -26.8040   20.0030 O   0  0  0  0  0  0  0  0  0  0  0  0
  -24.5530  -31.7790   23.1520 C   0  0  0  0  0  0  0  0  0  0  0  0
  -27.3430  -27.4970   19.9970 C   0  0  0  0  0  0  0  0  0  0  0  0
  -23.3970  -30.3720   21.4740 C   0  0  0  0  0  3  0  0  0  0  0  0
  -24.9040  -28.9000   20.0340 C   0  0  0  0  0  0  0  0  0  0  0  0
  -25.9090  -30.8080   21.3030 C   0  0  0  0  0  2  0  0  0  0  0  0
  -26.0370  -29.4520   20.6460 C   0  0  0  0  0  0  0  0  0  0  0  0
  -27.2580  -28.7460   20.6450 C   0  0  0  0  0  3  0  0  0  0  0  0
  -26.1990  -26.9450   19.3900 C   0  0  0  0  0  3  0  0  0  0  0  0
  -24.9760  -27.6410   19.4090 C   0  0  0  0  0  3  0  0  0  0  0  0
  -23.6340  -29.7180   20.0860 C   0  0  0  0  0  2  0  0  0  0  0  0
  -24.6370  -31.0010   22.0350 N   0  0  0  0  0  0  0  0  0  0  0  0
  -23.4600  -32.0130   23.6870 O   0  0  0  0  0  0  0  0  0  0  0  0
  -22.7660  -29.3200   22.4110 C   0  0  0  0  0  0  0  0  0  0  0  0
  -21.4490  -29.1000   22.2640 N   0  0  0  0  0  0  0  0  0  0  0  0
  -23.4580  -28.7030   23.2250 O   0  0  0  0  0  0  0  0  0  0  0  0
  -20.9530  -29.6520   21.5780 H   0  0  0  0  0  0  0  0  0  0  0  0
  -18.1020  -27.8180   22.7020 C   0  0  0  0  0  0  0  0  0  0  0  0
  -20.6490  -28.1290   23.0080 C   0  0  0  0  0  3  0  0  0  0  0  0
  -20.7920  -26.7140   22.4040 C   0  0  0  0  0  2  0  0  0  0  0  0
  -19.7080  -26.3860   21.3730 C   0  0  0  0  0  2  0  0  0  0  0  0
  -18.3170  -26.4860   22.0020 C   0  0  0  0  0  2  0  0  0  0  0  0
  -19.1970  -28.5960   23.1590 C   0  0  0  0  0  0  0  0  0  0  0  0
  -18.9420  -29.8430   23.7690 C   0  0  0  0  0  3  0  0  0  0  0  0
  -17.6250  -30.3150   23.9270 C   0  0  0  0  0  3  0  0  0  0  0  0
  -16.5440  -29.5310   23.4850 C   0  0  0  0  0  3  0  0  0  0  0  0
  -16.7830  -28.2850   22.8800 C   0  0  0  0  0  3  0  0  0  0  0  0
  -25.8170  -32.4290   23.7950 C   0  0  0  0  0  3  0  0  0  0  0  0
  -26.3410  -31.6500   25.0620 C   0  0  1  0  0  0  0  0  0  0  0  0
  -25.2440  -31.3630   26.1140 C   0  0  0  0  0  1  0  0  0  0  0  0
  -26.9630  -30.2960   24.6490 C   0  0  0  0  0  1  0  0  0  0  0  0
  -27.4680  -32.4590   25.7460 C   0  0  0  0  0  1  0  0  0  0  0  0
  -25.4750  -33.8150   24.1390 N   0  0  0  0  0  0  0  0  0  0  0  0
  -25.8030  -34.8850   23.4000 C   0  0  0  0  0  0  0  0  0  0  0  0
  -26.4960  -34.8070   22.3810 O   0  0  0  0  0  0  0  0  0  0  0  0
  -24.8520  -33.9460   24.9220 H   0  0  0  0  0  0  0  0  0  0  0  0
  -24.0530  -36.6500   23.0270 C   0  0  0  0  0  1  0  0  0  0  0  0
  -25.2800  -36.2560   23.8660 C   0  0  0  0  0  3  0  0  0  0  0  0
  -27.3730  -37.1630   24.7710 C   0  0  0  0  0  1  0  0  0  0  0  0
  -26.2950  -37.3300   23.7990 N   0  0  0  0  0  0  0  0  0  0  0  0
  -25.8710  -38.2400   23.9510 H   0  0  0  0  0  0  0  0  0  0  0  0
  1 54  1  0
  1  2  1  0
  2 10  1  0
  2  4  1  0
  3  1  2  0
  6  9  1  0
  7  5  1  0
  8  6  2  0
  8 10  1  0
  9  5  2  0
 10  7  2  0
 11 23  1  0
 12 17  1  0
 13 14  1  0
 13 12  1  0
 15 14  1  0
 15 27  1  0
 15 16  1  0
 17 11  1  0
 17 16  1  0
 18 11  2  0
 20 19  1  0
 21 23  1  0
 21 22  1  0
 22  9  1  0
 22 19  1  0
 23 20  1  0
 24 25  2  0
 25 44  1  0
 26 25  1  0
 26 29  1  0
 27 28  1  0
 27 24  1  0
 28 26  2  0
 29 30  1  0
 30 31  2  0
 32 35  1  0
 32 31  1  0
 33 32  2  0
 34 33  1  0
 34 29  2  0
 35 36  1  0
 36 41  2  0
 36 37  1  0
 37 38  2  0
 39 38  1  0
 39 43  1  0
 40 39  2  0
 41 40  1  0
 42 41  1  0
 44 45  1  0
 45 48  1  0
 45 47  1  0
 46 44  2  0
 49 24  1  0
 49 50  1  0
 51 49  1  0
 54 52  1  6
 54 53  1  0
 55 54  1  0
 55 56  1  0
 57 68  2  0
 58 56  1  0
 58 63  1  0
 59 67  1  0
 59 69  1  0
 60 66  1  0
 60 62  1  0
 61 67  1  0
 62 61  1  0
 63 62  2  0
 64 65  1  0
 64 58  2  0
 65 60  2  0
 66 59  1  0
 67 57  1  0
 69 71  2  0
 70 69  1  0
 72 70  1  0
 73 82  2  0
 73 78  1  0
 74 70  1  0
 74 78  1  0
 75 74  1  0
 76 77  1  0
 76 75  1  0
 77 73  1  0
 78 79  2  0
 79 80  1  0
 81 80  2  0
 82 81  1  0
 83 57  1  0
 83 88  1  0
 83 84  1  0
 84 87  1  1
 84 85  1  0
 86 84  1  0
 88 91  1  0
 89 93  1  0
 89 88  1  0
 90 89  2  0
 93 92  1  0
 95 93  1  0
 95 96  1  0
 95 94  1  0
M  ISO  4  11 100  23 100  55 101  56 101
M  END
>  <TORSDO>  (32) 
F 19

>  <SCORE>  (32) 
-13.381

>  <name>  (32) 
31

>  <ligand_id>  (32) 
31

>  <original_smiles>  (32) 
[H]c1c([H])c([H])c2c(c1[H])C([H])([H])C([H])([H])C([H])([H])C2([H])N([H])C(=O)C1([H])N(C(=O)C([H])(N([H])C(=O)C([H])(N([H])C([H])([H])[H])C([H])([H])[H])C(C([H])([H])[H])(C([H])([H])[H])C([H])([H])[H])C([H])([H])c2c([H])c(OC([H])([H])C(C(=O)N([H])c3c([H])c([H])c(C4([H])C([H])([H])N(C(=O)N5C([H])([H])C([H])([H])C([H])([H])C([H])(n6nc(-c7c([H])c([H])c(Oc8c([H])c([H])c(F)c([H])c8F)c([H])c7[H])c(C(=O)N([H])[H])c6N([H])[H])C5([H])[H])C([H])([H])C4([H])[H])c([H])c3[H])(C([H])([H])[H])C([H])([H])[H])c([H])c([H])c2C1([H])[H]

>  <smiles>  (32) 
[H]c1c([H])c([H])c2c(c1[H])C([H])([H])C([H])([H])C([H])([H])C2([H])N([H])C(=O)C1([H])N(C(=O)C([H])(N([H])C(=O)C([H])(N([H])C([H])([H])[H])C([H])([H])[H])C(C([H])([H])[H])(C([H])([H])[H])C([H])([H])[H])C([H])([H])c2c([H])c(OC([H])([H])C(C(=O)N([H])c3c([H])c([H])c(C4([H])C([H])([H])N(C(=O)N5C([H])([H])C([H])([H])C([H])([H])C([H])(n6nc(-c7c([H])c([H])c(Oc8c([H])c([H])c(F)c([H])c8F)c([H])c7[H])c(C(=O)N([H])[H])c6N([H])[H])C5([H])[H])C([H])([H])C4([H])[H])c([H])c3[H])(C([H])([H])[H])C([H])([H])[H])c([H])c([H])c2C1([H])[H]

$$$$
32:0:0
     RDKit          3D

 91 99  0  0  1  0  0  0  0  0999 V2000
  -28.8980  -22.3360   20.4310 C   0  0  0  0  0  2  0  0  0  0  0  0
  -30.4850  -24.2170   19.7320 C   0  0  0  0  0  1  0  0  0  0  0  0
  -28.4850  -23.7380   18.2940 C   0  0  0  0  0  1  0  0  0  0  0  0
  -28.9980  -23.8120   19.7490 C   0  0  1  0  0  0  0  0  0  0  0  0
  -28.1670  -24.9880   20.4920 C   0  0  0  0  0  2  0  0  0  0  0  0
  -28.3390  -26.4430   20.1560 O   0  0  0  0  0  0  0  0  0  0  0  0
  -24.6120  -31.8840   23.2390 C   0  0  0  0  0  0  0  0  0  0  0  0
  -27.2190  -27.3010   20.1740 C   0  0  0  0  0  0  0  0  0  0  0  0
  -23.4060  -30.4820   21.6070 C   0  0  0  0  0  3  0  0  0  0  0  0
  -24.8530  -28.9260   20.1800 C   0  0  0  0  0  0  0  0  0  0  0  0
  -25.9480  -30.7910   21.4190 C   0  0  0  0  0  2  0  0  0  0  0  0
  -26.0260  -29.4100   20.7750 C   0  0  0  0  0  0  0  0  0  0  0  0
  -27.2130  -28.6100   20.7610 C   0  0  0  0  0  3  0  0  0  0  0  0
  -26.0230  -26.8790   19.5540 C   0  0  0  0  0  3  0  0  0  0  0  0
  -24.8560  -27.6650   19.5630 C   0  0  0  0  0  3  0  0  0  0  0  0
  -23.6180  -29.8040   20.2270 C   0  0  0  0  0  2  0  0  0  0  0  0
  -24.6750  -31.0720   22.1430 N   0  0  0  0  0  0  0  0  0  0  0  0
  -23.5290  -32.1630   23.7730 O   0  0  0  0  0  0  0  0  0  0  0  0
  -22.7440  -29.4660   22.5680 C   0  0  0  0  0  0  0  0  0  0  0  0
  -21.4190  -29.2830   22.4400 N   0  0  0  0  0  0  0  0  0  0  0  0
  -23.4240  -28.8490   23.3920 O   0  0  0  0  0  0  0  0  0  0  0  0
  -20.9320  -29.8330   21.7460 H   0  0  0  0  0  0  0  0  0  0  0  0
  -18.0460  -28.0640   22.9270 C   0  0  0  0  0  0  0  0  0  0  0  0
  -20.6010  -28.3460   23.2120 C   0  0  0  0  0  3  0  0  0  0  0  0
  -20.7190  -26.9110   22.6470 C   0  0  0  0  0  2  0  0  0  0  0  0
  -19.6240  -26.5710   21.6300 C   0  0  0  0  0  2  0  0  0  0  0  0
  -18.2370  -26.7110   22.2620 C   0  0  0  0  0  2  0  0  0  0  0  0
  -19.1560  -28.8380   23.3570 C   0  0  0  0  0  0  0  0  0  0  0  0
  -18.9230  -30.1050   23.9370 C   0  0  0  0  0  3  0  0  0  0  0  0
  -17.6120  -30.5980   24.0890 C   0  0  0  0  0  3  0  0  0  0  0  0
  -16.5170  -29.8190   23.6740 C   0  0  0  0  0  3  0  0  0  0  0  0
  -16.7340  -28.5550   23.0990 C   0  0  0  0  0  3  0  0  0  0  0  0
  -25.8940  -32.5180   23.8580 C   0  0  0  0  0  3  0  0  0  0  0  0
  -26.4110  -31.7520   25.1360 C   0  0  1  0  0  0  0  0  0  0  0  0
  -25.3190  -31.5200   26.2050 C   0  0  0  0  0  1  0  0  0  0  0  0
  -26.9920  -30.3730   24.7480 C   0  0  0  0  0  1  0  0  0  0  0  0
  -27.5680  -32.5450   25.7910 C   0  0  0  0  0  1  0  0  0  0  0  0
  -25.5860  -33.9170   24.1860 N   0  0  0  0  0  0  0  0  0  0  0  0
  -25.9170  -34.9710   23.4280 C   0  0  0  0  0  0  0  0  0  0  0  0
  -26.5840  -34.8680   22.3940 O   0  0  0  0  0  0  0  0  0  0  0  0
  -24.9990  -34.0720   24.9910 H   0  0  0  0  0  0  0  0  0  0  0  0
  -24.1850  -36.7610   23.0790 C   0  0  0  0  0  1  0  0  0  0  0  0
  -25.4300  -36.3600   23.8860 C   0  0  0  0  0  3  0  0  0  0  0  0
  -27.5700  -37.2420   24.7050 C   0  0  0  0  0  1  0  0  0  0  0  0
  -26.4610  -37.4140   23.7690 N   0  0  0  0  0  0  0  0  0  0  0  0
  -26.0570  -38.3340   23.9240 H   0  0  0  0  0  0  0  0  0  0  0  0
  -29.4200  -21.1470   19.6620 N   0  0  0  0  0  0  0  0  0  0  0  0
  -29.1500  -21.1680   18.6800 H   0  0  0  0  0  0  0  0  0  0  0  0
  -30.7590  -17.9760   21.2910 C   0  0  0  0  0  3  0  0  0  0  0  0
  -30.6150  -19.4150   21.1370 C   0  0  0  0  0  3  0  0  0  0  0  0
  -29.9400  -17.1950   20.4950 C   0  0  0  0  0  0  0  0  0  0  0  0
  -29.7030  -19.8250   20.1860 C   0  0  0  0  0  0  0  0  0  0  0  0
  -28.9810  -18.3420   19.5120 S   0  0  0  0  0  0  0  0  0  0  0  0
  -30.5680  -14.7250   20.3360 C   0  0  0  0  0  0  0  0  0  0  0  0
  -30.3750  -12.4610   19.2990 C   0  0  0  0  0  2  0  0  0  0  0  0
  -29.4210  -12.5520   18.0890 C   0  0  0  0  0  2  0  0  0  0  0  0
  -27.9550  -12.3780   18.5370 C   0  0  0  0  0  2  0  0  0  0  0  0
  -27.5930  -13.2570   19.7620 C   0  0  0  0  0  3  0  0  0  0  0  0
  -28.6650  -13.1380   20.8710 C   0  0  0  0  0  2  0  0  0  0  0  0
  -29.9590  -13.4950   20.2690 N   0  0  0  0  0  0  0  0  0  0  0  0
  -31.7580  -14.8580   20.0310 O   0  0  0  0  0  0  0  0  0  0  0  0
  -29.7310  -15.8110   20.4970 N   0  0  0  0  0  0  0  0  0  0  0  0
  -28.7620  -15.5350   20.5330 H   0  0  0  0  0  0  0  0  0  0  0  0
  -25.2090  -13.8590   20.5080 C   0  0  0  0  0  0  0  0  0  0  0  0
  -24.1450  -13.0880   20.8900 C   0  0  0  0  0  0  0  0  0  0  0  0
  -24.6060  -11.7350   20.8590 C   0  0  0  0  0  0  0  0  0  0  0  0
  -26.2490  -12.9760   20.2650 N   0  0  0  0  0  0  0  0  0  0  0  0
  -25.8930  -11.6950   20.5400 N   0  0  0  0  0  0  0  0  0  0  0  0
  -23.8780  -10.4750   21.0540 C   0  0  0  0  0  0  0  0  0  0  0  0
  -24.3300   -9.5020   21.9740 C   0  0  0  0  0  3  0  0  0  0  0  0
  -23.6060   -8.3060   22.1600 C   0  0  0  0  0  3  0  0  0  0  0  0
  -22.4170   -8.0730   21.4270 C   0  0  0  0  0  0  0  0  0  0  0  0
  -21.9830   -9.0340   20.4980 C   0  0  0  0  0  3  0  0  0  0  0  0
  -22.7070  -10.2240   20.3090 C   0  0  0  0  0  3  0  0  0  0  0  0
  -21.6600   -6.9290   21.5260 O   0  0  0  0  0  0  0  0  0  0  0  0
  -21.6490   -6.1680   22.6680 C   0  0  0  0  0  0  0  0  0  0  0  0
  -21.2770   -6.7060   23.9190 C   0  0  0  0  0  3  0  0  0  0  0  0
  -21.2130   -5.8710   25.0530 C   0  0  0  0  0  3  0  0  0  0  0  0
  -21.5080   -4.5010   24.9360 C   0  0  0  0  0  0  0  0  0  0  0  0
  -21.8740   -3.9600   23.6910 C   0  0  0  0  0  3  0  0  0  0  0  0
  -21.9410   -4.7910   22.5590 C   0  0  0  0  0  0  0  0  0  0  0  0
  -22.2710   -4.2640   21.3570 F   0  0  0  0  0  0  0  0  0  0  0  0
  -21.4380   -3.6960   26.0230 F   0  0  0  0  0  0  0  0  0  0  0  0
  -22.7500  -13.5660   21.1670 C   0  0  0  0  0  0  0  0  0  0  0  0
  -22.0260  -12.8770   22.0420 N   0  0  0  0  0  0  0  0  0  0  0  0
  -22.3090  -14.5860   20.6400 O   0  0  0  0  0  0  0  0  0  0  0  0
  -22.3960  -12.0570   22.4950 H   0  0  0  0  0  0  0  0  0  0  0  0
  -21.0870  -13.1750   22.2590 H   0  0  0  0  0  0  0  0  0  0  0  0
  -25.3710  -15.2280   20.3250 N   0  0  0  0  0  0  0  0  0  0  0  0
  -24.5960  -15.8740   20.4340 H   0  0  0  0  0  0  0  0  0  0  0  0
  -26.1950  -15.6680   19.9340 H   0  0  0  0  0  0  0  0  0  0  0  0
  4  2  1  6
  3  4  1  0
  4  1  1  0
  4  5  1  0
  6  8  1  0
  6  5  1  0
  7 18  2  0
  8 13  1  0
  9 17  1  0
  9 19  1  0
 10 16  1  0
 10 12  1  0
 11 17  1  0
 12 11  1  0
 13 12  2  0
 14 15  1  0
 14  8  2  0
 15 10  2  0
 16  9  1  0
 17  7  1  0
 19 21  2  0
 20 19  1  0
 22 20  1  0
 23 32  2  0
 23 28  1  0
 24 20  1  0
 24 28  1  0
 25 24  1  0
 26 27  1  0
 26 25  1  0
 27 23  1  0
 28 29  2  0
 29 30  1  0
 31 30  2  0
 32 31  1  0
 33  7  1  0
 33 38  1  0
 33 34  1  0
 34 37  1  1
 34 35  1  0
 36 34  1  0
 38 41  1  0
 39 43  1  0
 39 38  1  0
 40 39  2  0
 43 42  1  0
 45 43  1  0
 45 46  1  0
 45 44  1  0
 47 52  1  0
 47  1  1  0
 48 47  1  0
 50 49  1  0
 51 62  1  0
 51 49  2  0
 52 50  2  0
 53 52  1  0
 53 51  1  0
 54 62  1  0
 55 60  1  0
 56 57  1  0
 56 55  1  0
 58 57  1  0
 58 67  1  0
 58 59  1  0
 60 54  1  0
 60 59  1  0
 61 54  2  0
 62 63  1  0
 64 65  2  0
 65 84  1  0
 66 65  1  0
 66 69  1  0
 67 64  1  0
 67 68  1  0
 68 66  2  0
 69 70  1  0
 70 71  2  0
 72 75  1  0
 72 71  1  0
 73 72  2  0
 74 73  1  0
 74 69  2  0
 75 76  1  0
 76 77  1  0
 77 78  2  0
 79 78  1  0
 79 83  1  0
 80 79  2  0
 81 76  2  0
 81 80  1  0
 82 81  1  0
 84 85  1  0
 85 88  1  0
 85 87  1  0
 86 84  2  0
 89 90  1  0
 89 64  1  0
 91 89  1  0
M  ISO  4   5 101   6 101  54 100  62 100
M  END
>  <TORSDO>  (33) 
F 20

>  <SCORE>  (33) 
-13.870

>  <name>  (33) 
32

>  <ligand_id>  (33) 
32

>  <original_smiles>  (33) 
[H]c1c(N([H])C(=O)N2C([H])([H])C([H])([H])C([H])([H])C([H])(n3nc(-c4c([H])c([H])c(Oc5c([H])c([H])c(F)c([H])c5F)c([H])c4[H])c(C(=O)N([H])[H])c3N([H])[H])C2([H])[H])sc(N([H])C([H])([H])C(C([H])([H])[H])(C([H])([H])[H])C([H])([H])Oc2c([H])c([H])c3c(c2[H])C([H])([H])N(C(=O)C([H])(N([H])C(=O)C([H])(N([H])C([H])([H])[H])C([H])([H])[H])C(C([H])([H])[H])(C([H])([H])[H])C([H])([H])[H])C([H])(C(=O)N([H])C2([H])c4c([H])c([H])c([H])c([H])c4C([H])([H])C([H])([H])C2([H])[H])C3([H])[H])c1[H]

>  <smiles>  (33) 
[H]c1c(N([H])C(=O)N2C([H])([H])C([H])([H])C([H])([H])C([H])(n3nc(-c4c([H])c([H])c(Oc5c([H])c([H])c(F)c([H])c5F)c([H])c4[H])c(C(=O)N([H])[H])c3N([H])[H])C2([H])[H])sc(N([H])C([H])([H])C(C([H])([H])[H])(C([H])([H])[H])C([H])([H])Oc2c([H])c([H])c3c(c2[H])C([H])([H])N(C(=O)C([H])(N([H])C(=O)C([H])(N([H])C([H])([H])[H])C([H])([H])[H])C(C([H])([H])[H])(C([H])([H])[H])C([H])([H])[H])C([H])(C(=O)N([H])C2([H])c4c([H])c([H])c([H])c([H])c4C([H])([H])C([H])([H])C2([H])[H])C3([H])[H])c1[H]

$$$$
33:0:0
     RDKit          3D

 92101  0  0  1  0  0  0  0  0999 V2000
  -30.1510  -23.1650   20.9390 C   0  0  0  0  0  2  0  0  0  0  0  0
  -28.3750  -22.5620   19.3090 C   0  0  0  0  0  2  0  0  0  0  0  0
  -29.9080  -21.6600   21.3520 C   0  0  0  0  0  2  0  0  0  0  0  0
  -29.1820  -21.2240   19.0540 C   0  0  0  0  0  2  0  0  0  0  0  0
  -29.1960  -23.7930   19.8470 C   0  0  2  0  0  0  0  0  0  0  0  0
  -30.0420  -24.3640   18.6920 C   0  0  0  0  0  1  0  0  0  0  0  0
  -29.9240  -20.7060   20.2220 N   0  0  0  0  0  0  0  0  0  0  0  0
  -30.3890  -18.1150   19.9600 C   0  0  0  0  0  3  0  0  0  0  0  0
  -28.9530  -18.8360   21.5320 C   0  0  0  0  0  3  0  0  0  0  0  0
  -29.7720  -19.3040   20.5410 C   0  0  0  0  0  0  0  0  0  0  0  0
  -29.8760  -17.0190   20.6550 C   0  0  0  0  0  0  0  0  0  0  0  0
  -28.9960  -17.4710   21.5990 O   0  0  0  0  0  0  0  0  0  0  0  0
  -30.7390  -14.7110   19.8580 C   0  0  0  0  0  0  0  0  0  0  0  0
  -30.4910  -12.5080   18.6990 C   0  0  0  0  0  2  0  0  0  0  0  0
  -29.4100  -12.6600   17.6030 C   0  0  0  0  0  2  0  0  0  0  0  0
  -27.9890  -12.4630   18.1760 C   0  0  0  0  0  2  0  0  0  0  0  0
  -27.7620  -13.2630   19.4850 C   0  0  0  0  0  3  0  0  0  0  0  0
  -28.9330  -13.0470   20.4690 C   0  0  0  0  0  2  0  0  0  0  0  0
  -30.1720  -13.4620   19.7820 N   0  0  0  0  0  0  0  0  0  0  0  0
  -31.8150  -14.9680   19.3060 O   0  0  0  0  0  0  0  0  0  0  0  0
  -29.9600  -15.6380   20.4990 N   0  0  0  0  0  0  0  0  0  0  0  0
  -29.2070  -15.1620   20.9720 H   0  0  0  0  0  0  0  0  0  0  0  0
  -25.4680  -13.8230   20.5010 C   0  0  0  0  0  0  0  0  0  0  0  0
  -24.4400  -13.0310   20.9330 C   0  0  0  0  0  0  0  0  0  0  0  0
  -24.8800  -11.6830   20.7570 C   0  0  0  0  0  0  0  0  0  0  0  0
  -26.4710  -12.9570   20.0940 N   0  0  0  0  0  0  0  0  0  0  0  0
  -26.1270  -11.6620   20.3060 N   0  0  0  0  0  0  0  0  0  0  0  0
  -24.1650  -10.4130   20.9430 C   0  0  0  0  0  0  0  0  0  0  0  0
  -24.6230   -9.4350   21.8550 C   0  0  0  0  0  3  0  0  0  0  0  0
  -23.9100   -8.2290   22.0290 C   0  0  0  0  0  3  0  0  0  0  0  0
  -22.7250   -7.9920   21.2930 C   0  0  0  0  0  0  0  0  0  0  0  0
  -22.2860   -8.9590   20.3720 C   0  0  0  0  0  3  0  0  0  0  0  0
  -22.9990  -10.1560   20.1950 C   0  0  0  0  0  3  0  0  0  0  0  0
  -21.9840   -6.8390   21.3770 O   0  0  0  0  0  0  0  0  0  0  0  0
  -21.8720   -6.1380   22.5510 C   0  0  0  0  0  0  0  0  0  0  0  0
  -21.3500   -6.7290   23.7220 C   0  0  0  0  0  3  0  0  0  0  0  0
  -21.1870   -5.9530   24.8870 C   0  0  0  0  0  3  0  0  0  0  0  0
  -21.5360   -4.5900   24.8820 C   0  0  0  0  0  0  0  0  0  0  0  0
  -22.0510   -3.9990   23.7140 C   0  0  0  0  0  3  0  0  0  0  0  0
  -22.2150   -4.7710   22.5510 C   0  0  0  0  0  0  0  0  0  0  0  0
  -22.6930   -4.1930   21.4220 F   0  0  0  0  0  0  0  0  0  0  0  0
  -21.3710   -3.8430   25.9990 F   0  0  0  0  0  0  0  0  0  0  0  0
  -23.0850  -13.4930   21.3920 C   0  0  0  0  0  0  0  0  0  0  0  0
  -22.4610  -12.7500   22.2990 N   0  0  0  0  0  0  0  0  0  0  0  0
  -22.5950  -14.5440   20.9830 O   0  0  0  0  0  0  0  0  0  0  0  0
  -22.8710  -11.8970   22.6490 H   0  0  0  0  0  0  0  0  0  0  0  0
  -21.5590  -13.0410   22.6500 H   0  0  0  0  0  0  0  0  0  0  0  0
  -25.6280  -15.2020   20.4020 N   0  0  0  0  0  0  0  0  0  0  0  0
  -24.8880  -15.8500   20.6470 H   0  0  0  0  0  0  0  0  0  0  0  0
  -26.4420  -15.6630   20.0150 H   0  0  0  0  0  0  0  0  0  0  0  0
  -28.2410  -24.9950   20.3650 C   0  0  0  0  0  2  0  0  0  0  0  0
  -28.4610  -26.4360   20.0160 O   0  0  0  0  0  0  0  0  0  0  0  0
  -24.6800  -31.7820   23.1200 C   0  0  0  0  0  0  0  0  0  0  0  0
  -27.3400  -27.2910   19.9970 C   0  0  0  0  0  0  0  0  0  0  0  0
  -23.4870  -30.3930   21.4620 C   0  0  0  0  0  3  0  0  0  0  0  0
  -24.9550  -28.8840   20.0080 C   0  0  0  0  0  0  0  0  0  0  0  0
  -26.0220  -30.7450   21.2770 C   0  0  0  0  0  2  0  0  0  0  0  0
  -26.1190  -29.3750   20.6120 C   0  0  0  0  0  0  0  0  0  0  0  0
  -27.3160  -28.5920   20.5960 C   0  0  0  0  0  3  0  0  0  0  0  0
  -26.1560  -26.8690   19.3500 C   0  0  0  0  0  3  0  0  0  0  0  0
  -24.9770  -27.6380   19.3640 C   0  0  0  0  0  3  0  0  0  0  0  0
  -23.7050  -29.7410   20.0720 C   0  0  0  0  0  2  0  0  0  0  0  0
  -24.7480  -30.9910   22.0100 N   0  0  0  0  0  0  0  0  0  0  0  0
  -23.5950  -32.0400   23.6620 O   0  0  0  0  0  0  0  0  0  0  0  0
  -22.8420  -29.3530   22.4100 C   0  0  0  0  0  0  0  0  0  0  0  0
  -21.5150  -29.1740   22.2970 N   0  0  0  0  0  0  0  0  0  0  0  0
  -23.5340  -28.7110   23.2050 O   0  0  0  0  0  0  0  0  0  0  0  0
  -21.0180  -29.7420   21.6270 H   0  0  0  0  0  0  0  0  0  0  0  0
  -18.1410  -27.9930   22.8510 C   0  0  0  0  0  0  0  0  0  0  0  0
  -20.7080  -28.2210   23.0590 C   0  0  0  0  0  3  0  0  0  0  0  0
  -20.7800  -26.8090   22.4330 C   0  0  0  0  0  2  0  0  0  0  0  0
  -19.6460  -26.5310   21.4400 C   0  0  0  0  0  2  0  0  0  0  0  0
  -18.2850  -26.6660   22.1260 C   0  0  0  0  0  2  0  0  0  0  0  0
  -19.2780  -28.7310   23.2740 C   0  0  0  0  0  0  0  0  0  0  0  0
  -19.0880  -29.9740   23.9160 C   0  0  0  0  0  3  0  0  0  0  0  0
  -17.7920  -30.4800   24.1360 C   0  0  0  0  0  3  0  0  0  0  0  0
  -16.6700  -29.7380   23.7260 C   0  0  0  0  0  3  0  0  0  0  0  0
  -16.8450  -28.4960   23.0900 C   0  0  0  0  0  3  0  0  0  0  0  0
  -25.9570  -32.4210   23.7480 C   0  0  0  0  0  3  0  0  0  0  0  0
  -25.6290  -33.8090   24.1030 N   0  0  0  0  0  0  0  0  0  0  0  0
  -25.9560  -34.8810   23.3690 C   0  0  0  0  0  0  0  0  0  0  0  0
  -26.6330  -34.8040   22.3400 O   0  0  0  0  0  0  0  0  0  0  0  0
  -25.0280  -33.9430   24.9020 H   0  0  0  0  0  0  0  0  0  0  0  0
  -24.2250  -36.6730   23.0190 C   0  0  0  0  0  1  0  0  0  0  0  0
  -25.4500  -36.2550   23.8500 C   0  0  0  0  0  3  0  0  0  0  0  0
  -27.5570  -37.1310   24.7560 C   0  0  0  0  0  1  0  0  0  0  0  0
  -26.4790  -37.3150   23.7870 N   0  0  0  0  0  0  0  0  0  0  0  0
  -26.0650  -38.2290   23.9450 H   0  0  0  0  0  0  0  0  0  0  0  0
  -26.4880  -31.6360   25.0100 C   0  0  1  0  0  0  0  0  0  0  0  0
  -25.3990  -31.3620   26.0740 C   0  0  0  0  0  1  0  0  0  0  0  0
  -27.0900  -30.2740   24.5940 C   0  0  0  0  0  1  0  0  0  0  0  0
  -27.6300  -32.4340   25.6830 C   0  0  0  0  0  1  0  0  0  0  0  0
  1  3  1  0
  2  5  1  0
  4  2  1  0
  4  7  1  0
  5  6  1  6
  5 51  1  0
  5  1  1  0
  7 10  1  0
  7  3  1  0
  8 10  1  0
  8 11  2  0
  9 12  1  0
 10  9  2  0
 11 12  1  0
 13 21  1  0
 14 19  1  0
 15 16  1  0
 15 14  1  0
 17 16  1  0
 17 26  1  0
 17 18  1  0
 19 13  1  0
 19 18  1  0
 20 13  2  0
 21 11  1  0
 21 22  1  0
 23 24  2  0
 24 43  1  0
 25 24  1  0
 25 28  1  0
 26 27  1  0
 26 23  1  0
 27 25  2  0
 28 29  1  0
 29 30  2  0
 31 34  1  0
 31 30  1  0
 32 31  2  0
 33 32  1  0
 33 28  2  0
 34 35  1  0
 35 40  2  0
 35 36  1  0
 36 37  2  0
 38 37  1  0
 38 42  1  0
 39 38  2  0
 40 39  1  0
 41 40  1  0
 43 44  1  0
 44 46  1  0
 44 47  1  0
 45 43  2  0
 48 23  1  0
 48 49  1  0
 50 48  1  0
 52 51  1  0
 53 64  2  0
 54 52  1  0
 54 59  1  0
 55 63  1  0
 55 65  1  0
 56 62  1  0
 56 58  1  0
 57 63  1  0
 58 57  1  0
 59 58  2  0
 60 61  1  0
 60 54  2  0
 61 56  2  0
 62 55  1  0
 63 53  1  0
 65 67  2  0
 66 65  1  0
 68 66  1  0
 69 78  2  0
 69 74  1  0
 70 66  1  0
 70 74  1  0
 71 70  1  0
 72 73  1  0
 72 71  1  0
 73 69  1  0
 74 75  2  0
 75 76  1  0
 77 76  2  0
 78 77  1  0
 79 53  1  0
 79 80  1  0
 79 89  1  0
 80 83  1  0
 81 85  1  0
 81 80  1  0
 82 81  2  0
 85 84  1  0
 87 85  1  0
 87 88  1  0
 87 86  1  0
 89 92  1  1
 89 90  1  0
 91 89  1  0
M  ISO  4  13 100  21 100  51 101  52 101
M  END
>  <TORSDO>  (34) 
F 18

>  <SCORE>  (34) 
-12.789

>  <name>  (34) 
33

>  <ligand_id>  (34) 
33

>  <original_smiles>  (34) 
[H]c1oc(N([H])C(=O)N2C([H])([H])C([H])([H])C([H])([H])C([H])(n3nc(-c4c([H])c([H])c(Oc5c([H])c([H])c(F)c([H])c5F)c([H])c4[H])c(C(=O)N([H])[H])c3N([H])[H])C2([H])[H])c([H])c1N1C([H])([H])C([H])([H])C(C([H])([H])[H])(C([H])([H])Oc2c([H])c([H])c3c(c2[H])C([H])([H])N(C(=O)C([H])(N([H])C(=O)C([H])(N([H])C([H])([H])[H])C([H])([H])[H])C(C([H])([H])[H])(C([H])([H])[H])C([H])([H])[H])C([H])(C(=O)N([H])C2([H])c4c([H])c([H])c([H])c([H])c4C([H])([H])C([H])([H])C2([H])[H])C3([H])[H])C([H])([H])C1([H])[H]

>  <smiles>  (34) 
[H]c1oc(N([H])C(=O)N2C([H])([H])C([H])([H])C([H])([H])C([H])(n3nc(-c4c([H])c([H])c(Oc5c([H])c([H])c(F)c([H])c5F)c([H])c4[H])c(C(=O)N([H])[H])c3N([H])[H])C2([H])[H])c([H])c1N1C([H])([H])C([H])([H])C(C([H])([H])[H])(C([H])([H])Oc2c([H])c([H])c3c(c2[H])C([H])([H])N(C(=O)C([H])(N([H])C(=O)C([H])(N([H])C([H])([H])[H])C([H])([H])[H])C(C([H])([H])[H])(C([H])([H])[H])C([H])([H])[H])C([H])(C(=O)N([H])C2([H])c4c([H])c([H])c([H])c([H])c4C([H])([H])C([H])([H])C2([H])[H])C3([H])[H])C([H])([H])C1([H])[H]

$$$$
34:0:0
     RDKit          3D

 95103  0  0  1  0  0  0  0  0999 V2000
  -29.6840  -22.3890   23.8840 C   0  0  0  0  0  1  0  0  0  0  0  0
  -30.9350  -24.0670   22.5830 C   0  0  0  0  0  1  0  0  0  0  0  0
  -29.9820  -22.8630   22.4400 C   0  0  2  0  0  0  0  0  0  0  0  0
  -28.6120  -23.2570   21.7840 C   0  0  0  0  0  2  0  0  0  0  0  0
  -29.5460  -23.8430   19.4100 C   0  0  0  0  0  1  0  0  0  0  0  0
  -27.1290  -23.7320   19.8470 C   0  0  0  0  0  1  0  0  0  0  0  0
  -28.4760  -24.1380   20.4840 C   0  0  1  0  0  0  0  0  0  0  0  0
  -28.4540  -25.6630   20.8570 C   0  0  0  0  0  2  0  0  0  0  0  0
  -28.2380  -26.5730   19.7630 O   0  0  0  0  0  0  0  0  0  0  0  0
  -24.5100  -31.6620   23.1450 C   0  0  0  0  0  0  0  0  0  0  0  0
  -27.0940  -27.3400   19.8460 C   0  0  0  0  0  0  0  0  0  0  0  0
  -23.2780  -30.3350   21.4630 C   0  0  0  0  0  3  0  0  0  0  0  0
  -24.7100  -28.8580   19.9580 C   0  0  0  0  0  0  0  0  0  0  0  0
  -25.8060  -30.6860   21.2550 C   0  0  0  0  0  2  0  0  0  0  0  0
  -25.8770  -29.3430   20.5620 C   0  0  0  0  0  0  0  0  0  0  0  0
  -27.0740  -28.5860   20.5150 C   0  0  0  0  0  3  0  0  0  0  0  0
  -25.9170  -26.8910   19.2140 C   0  0  0  0  0  3  0  0  0  0  0  0
  -24.7240  -27.6270   19.2850 C   0  0  0  0  0  3  0  0  0  0  0  0
  -23.4690  -29.7170   20.0540 C   0  0  0  0  0  2  0  0  0  0  0  0
  -24.5500  -30.9080   22.0120 N   0  0  0  0  0  0  0  0  0  0  0  0
  -23.4370  -31.9160   23.7090 O   0  0  0  0  0  0  0  0  0  0  0  0
  -22.6360  -29.2740   22.3860 C   0  0  0  0  0  0  0  0  0  0  0  0
  -21.3100  -29.0990   22.2670 N   0  0  0  0  0  0  0  0  0  0  0  0
  -23.3300  -28.6120   23.1640 O   0  0  0  0  0  0  0  0  0  0  0  0
  -20.8110  -29.6860   21.6120 H   0  0  0  0  0  0  0  0  0  0  0  0
  -17.9360  -27.9100   22.7710 C   0  0  0  0  0  0  0  0  0  0  0  0
  -20.5000  -28.1330   23.0070 C   0  0  0  0  0  3  0  0  0  0  0  0
  -20.5800  -26.7290   22.3620 C   0  0  0  0  0  2  0  0  0  0  0  0
  -19.4560  -26.4650   21.3550 C   0  0  0  0  0  2  0  0  0  0  0  0
  -18.0870  -26.5930   22.0290 C   0  0  0  0  0  2  0  0  0  0  0  0
  -19.0690  -28.6410   23.2160 C   0  0  0  0  0  0  0  0  0  0  0  0
  -18.8740  -29.8770   23.8680 C   0  0  0  0  0  3  0  0  0  0  0  0
  -17.5780  -30.3830   24.0800 C   0  0  0  0  0  3  0  0  0  0  0  0
  -16.4590  -29.6480   23.6530 C   0  0  0  0  0  3  0  0  0  0  0  0
  -16.6380  -28.4130   23.0040 C   0  0  0  0  0  3  0  0  0  0  0  0
  -25.8070  -32.2620   23.7710 C   0  0  0  0  0  3  0  0  0  0  0  0
  -25.5250  -33.6620   24.1130 N   0  0  0  0  0  0  0  0  0  0  0  0
  -25.8920  -34.7140   23.3690 C   0  0  0  0  0  0  0  0  0  0  0  0
  -26.5740  -34.6050   22.3460 O   0  0  0  0  0  0  0  0  0  0  0  0
  -24.9240  -33.8220   24.9090 H   0  0  0  0  0  0  0  0  0  0  0  0
  -24.2260  -36.5570   22.9850 C   0  0  0  0  0  1  0  0  0  0  0  0
  -25.4270  -36.1080   23.8330 C   0  0  0  0  0  3  0  0  0  0  0  0
  -27.5500  -36.9230   24.7570 C   0  0  0  0  0  1  0  0  0  0  0  0
  -26.4930  -37.1330   23.7720 N   0  0  0  0  0  0  0  0  0  0  0  0
  -26.1060  -38.0620   23.9150 H   0  0  0  0  0  0  0  0  0  0  0  0
  -26.3100  -31.4660   25.0390 C   0  0  1  0  0  0  0  0  0  0  0  0
  -25.2100  -31.2330   26.1000 C   0  0  0  0  0  1  0  0  0  0  0  0
  -26.8720  -30.0850   24.6280 C   0  0  0  0  0  1  0  0  0  0  0  0
  -27.4690  -32.2350   25.7140 C   0  0  0  0  0  1  0  0  0  0  0  0
  -30.7080  -21.6930   21.7050 C   0  0  0  0  0  2  0  0  0  0  0  0
  -29.8320  -20.5520   21.4430 N   0  0  0  0  0  0  0  0  0  0  0  0
  -28.8520  -20.6830   21.6750 H   0  0  0  0  0  0  0  0  0  0  0  0
  -31.7480  -17.4650   20.7520 C   0  0  0  0  0  3  0  0  0  0  0  0
  -31.6150  -18.8810   20.8910 C   0  0  0  0  0  3  0  0  0  0  0  0
  -30.5820  -16.7630   20.9770 C   0  0  0  0  0  0  0  0  0  0  0  0
  -30.3460  -19.2710   21.2290 C   0  0  0  0  0  0  0  0  0  0  0  0
  -29.2990  -17.8830   21.3860 S   0  0  0  0  0  0  0  0  0  0  0  0
  -30.9350  -14.4860   20.1680 C   0  0  0  0  0  0  0  0  0  0  0  0
  -30.5730  -12.3650   18.9620 C   0  0  0  0  0  2  0  0  0  0  0  0
  -29.5890  -12.5940   17.7970 C   0  0  0  0  0  2  0  0  0  0  0  0
  -28.1300  -12.4570   18.2750 C   0  0  0  0  0  2  0  0  0  0  0  0
  -27.8430  -13.2720   19.5630 C   0  0  0  0  0  3  0  0  0  0  0  0
  -28.9320  -13.0170   20.6290 C   0  0  0  0  0  2  0  0  0  0  0  0
  -30.2440  -13.3220   20.0290 N   0  0  0  0  0  0  0  0  0  0  0  0
  -32.0060  -14.6960   19.5920 O   0  0  0  0  0  0  0  0  0  0  0  0
  -30.3260  -15.4240   20.9200 N   0  0  0  0  0  0  0  0  0  0  0  0
  -29.4690  -15.1190   21.3570 H   0  0  0  0  0  0  0  0  0  0  0  0
  -25.4690  -13.8780   20.3580 C   0  0  0  0  0  0  0  0  0  0  0  0
  -24.4110  -13.1020   20.7520 C   0  0  0  0  0  0  0  0  0  0  0  0
  -24.8660  -11.7500   20.6850 C   0  0  0  0  0  0  0  0  0  0  0  0
  -26.5030  -12.9960   20.0810 N   0  0  0  0  0  0  0  0  0  0  0  0
  -26.1440  -11.7120   20.3330 N   0  0  0  0  0  0  0  0  0  0  0  0
  -24.1430  -10.4870   20.8810 C   0  0  0  0  0  0  0  0  0  0  0  0
  -24.5260   -9.5640   21.8790 C   0  0  0  0  0  3  0  0  0  0  0  0
  -23.8040   -8.3650   22.0610 C   0  0  0  0  0  3  0  0  0  0  0  0
  -22.6850   -8.0790   21.2410 C   0  0  0  0  0  0  0  0  0  0  0  0
  -22.3230   -8.9890   20.2340 C   0  0  0  0  0  3  0  0  0  0  0  0
  -23.0450  -10.1810   20.0520 C   0  0  0  0  0  3  0  0  0  0  0  0
  -21.9400   -6.9280   21.3280 O   0  0  0  0  0  0  0  0  0  0  0  0
  -21.7210   -6.3010   22.5280 C   0  0  0  0  0  0  0  0  0  0  0  0
  -21.0820   -6.9530   23.6050 C   0  0  0  0  0  3  0  0  0  0  0  0
  -20.8150   -6.2490   24.7970 C   0  0  0  0  0  3  0  0  0  0  0  0
  -21.1770   -4.8930   24.9100 C   0  0  0  0  0  0  0  0  0  0  0  0
  -21.8090   -4.2400   23.8370 C   0  0  0  0  0  3  0  0  0  0  0  0
  -22.0770   -4.9420   22.6490 C   0  0  0  0  0  0  0  0  0  0  0  0
  -22.6670   -4.3030   21.6100 F   0  0  0  0  0  0  0  0  0  0  0  0
  -20.9140   -4.2150   26.0510 F   0  0  0  0  0  0  0  0  0  0  0  0
  -23.0250  -13.5790   21.0800 C   0  0  0  0  0  0  0  0  0  0  0  0
  -22.3300  -12.8770   21.9700 N   0  0  0  0  0  0  0  0  0  0  0  0
  -22.5680  -14.6080   20.5840 O   0  0  0  0  0  0  0  0  0  0  0  0
  -22.7120  -12.0440   22.3920 H   0  0  0  0  0  0  0  0  0  0  0  0
  -21.4010  -13.1780   22.2310 H   0  0  0  0  0  0  0  0  0  0  0  0
  -25.6330  -15.2490   20.1950 N   0  0  0  0  0  0  0  0  0  0  0  0
  -24.8730  -15.9070   20.3360 H   0  0  0  0  0  0  0  0  0  0  0  0
  -26.4750  -15.6880   19.8430 H   0  0  0  0  0  0  0  0  0  0  0  0
  3  2  1  1
  3  1  1  0
  4  3  1  0
  7  5  1  6
  6  7  1  0
  7  8  1  0
  7  4  1  0
  9 11  1  0
  9  8  1  0
 10 21  2  0
 11 16  1  0
 12 20  1  0
 12 22  1  0
 13 19  1  0
 13 15  1  0
 14 20  1  0
 15 14  1  0
 16 15  2  0
 17 18  1  0
 17 11  2  0
 18 13  2  0
 19 12  1  0
 20 10  1  0
 22 24  2  0
 23 22  1  0
 25 23  1  0
 26 35  2  0
 26 31  1  0
 27 23  1  0
 27 31  1  0
 28 27  1  0
 29 30  1  0
 29 28  1  0
 30 26  1  0
 31 32  2  0
 32 33  1  0
 34 33  2  0
 35 34  1  0
 36 10  1  0
 36 37  1  0
 36 46  1  0
 37 40  1  0
 38 42  1  0
 38 37  1  0
 39 38  2  0
 42 41  1  0
 44 42  1  0
 44 45  1  0
 44 43  1  0
 46 49  1  1
 46 47  1  0
 48 46  1  0
 50  3  1  0
 51 52  1  0
 51 50  1  0
 53 54  1  0
 53 55  2  0
 54 56  2  0
 55 57  1  0
 56 57  1  0
 56 51  1  0
 58 66  1  0
 59 64  1  0
 60 61  1  0
 60 59  1  0
 62 61  1  0
 62 71  1  0
 62 63  1  0
 64 58  1  0
 64 63  1  0
 65 58  2  0
 66 55  1  0
 66 67  1  0
 68 69  2  0
 69 88  1  0
 70 69  1  0
 70 73  1  0
 71 72  1  0
 71 68  1  0
 72 70  2  0
 73 74  1  0
 74 75  2  0
 76 79  1  0
 76 75  1  0
 77 76  2  0
 78 77  1  0
 78 73  2  0
 79 80  1  0
 80 85  2  0
 80 81  1  0
 81 82  2  0
 82 83  1  0
 83 87  1  0
 84 83  2  0
 85 84  1  0
 86 85  1  0
 88 89  1  0
 89 92  1  0
 89 91  1  0
 90 88  2  0
 93 94  1  0
 93 68  1  0
 95 93  1  0
M  ISO  4   8 101   9 101  58 100  66 100
M  END
>  <TORSDO>  (35) 
F 22

>  <SCORE>  (35) 
-11.503

>  <name>  (35) 
34

>  <ligand_id>  (35) 
34

>  <original_smiles>  (35) 
[H]c1c(N([H])C(=O)N2C([H])([H])C([H])([H])C([H])([H])C([H])(n3nc(-c4c([H])c([H])c(Oc5c([H])c([H])c(F)c([H])c5F)c([H])c4[H])c(C(=O)N([H])[H])c3N([H])[H])C2([H])[H])sc(N([H])C([H])([H])C(C([H])([H])[H])(C([H])([H])[H])C([H])([H])C(C([H])([H])[H])(C([H])([H])[H])C([H])([H])Oc2c([H])c([H])c3c(c2[H])C([H])([H])N(C(=O)C([H])(N([H])C(=O)C([H])(N([H])C([H])([H])[H])C([H])([H])[H])C(C([H])([H])[H])(C([H])([H])[H])C([H])([H])[H])C([H])(C(=O)N([H])C2([H])c4c([H])c([H])c([H])c([H])c4C([H])([H])C([H])([H])C2([H])[H])C3([H])[H])c1[H]

>  <smiles>  (35) 
[H]c1c(N([H])C(=O)N2C([H])([H])C([H])([H])C([H])([H])C([H])(n3nc(-c4c([H])c([H])c(Oc5c([H])c([H])c(F)c([H])c5F)c([H])c4[H])c(C(=O)N([H])[H])c3N([H])[H])C2([H])[H])sc(N([H])C([H])([H])C(C([H])([H])[H])(C([H])([H])[H])C([H])([H])C(C([H])([H])[H])(C([H])([H])[H])C([H])([H])Oc2c([H])c([H])c3c(c2[H])C([H])([H])N(C(=O)C([H])(N([H])C(=O)C([H])(N([H])C([H])([H])[H])C([H])([H])[H])C(C([H])([H])[H])(C([H])([H])[H])C([H])([H])[H])C([H])(C(=O)N([H])C2([H])c4c([H])c([H])c([H])c([H])c4C([H])([H])C([H])([H])C2([H])[H])C3([H])[H])c1[H]

$$$$
35:0:0
     RDKit          3D

 96105  0  0  1  0  0  0  0  0999 V2000
  -29.8640  -20.2990   19.3160 C   0  0  0  0  0  3  0  0  0  0  0  0
  -28.3670  -23.2960   20.9850 C   0  0  0  0  0  2  0  0  0  0  0  0
  -28.9360  -21.8620   21.0950 C   0  0  0  0  0  2  0  0  0  0  0  0
  -29.5690  -22.8540   19.0080 C   0  0  0  0  0  3  0  0  0  0  0  0
  -29.3090  -24.0370   20.0170 C   0  0  2  0  0  0  0  0  0  0  0  0
  -30.8090  -23.0690   18.1130 C   0  0  0  0  0  1  0  0  0  0  0  0
  -30.5990  -24.4730   20.7460 C   0  0  0  0  0  1  0  0  0  0  0  0
  -29.5510  -21.5660   19.7870 N   0  0  0  0  0  0  0  0  0  0  0  0
  -30.4780  -20.1750   18.1320 N   0  0  0  0  0  0  0  0  0  0  0  0
  -30.6050  -19.2610   17.7250 H   0  0  0  0  0  0  0  0  0  0  0  0
  -30.8150  -20.9820   17.6310 H   0  0  0  0  0  0  0  0  0  0  0  0
  -30.4150  -17.8620   20.1020 C   0  0  0  0  0  3  0  0  0  0  0  0
  -28.2150  -18.6700   20.2470 C   0  0  0  0  0  3  0  0  0  0  0  0
  -29.5110  -18.9900   19.9490 C   0  0  0  0  0  0  0  0  0  0  0  0
  -29.7800  -16.6880   20.5020 C   0  0  0  0  0  0  0  0  0  0  0  0
  -28.0780  -17.0140   20.7600 S   0  0  0  0  0  0  0  0  0  0  0  0
  -30.7960  -14.4890   19.9140 C   0  0  0  0  0  0  0  0  0  0  0  0
  -30.5400  -12.2420   18.8800 C   0  0  0  0  0  2  0  0  0  0  0  0
  -29.4980  -12.3370   17.7450 C   0  0  0  0  0  2  0  0  0  0  0  0
  -28.0680  -12.1550   18.2920 C   0  0  0  0  0  2  0  0  0  0  0  0
  -27.7920  -13.0500   19.5290 C   0  0  0  0  0  3  0  0  0  0  0  0
  -28.9300  -12.9170   20.5640 C   0  0  0  0  0  2  0  0  0  0  0  0
  -30.2040  -13.2570   19.8960 N   0  0  0  0  0  0  0  0  0  0  0  0
  -31.8100  -14.7510   19.2590 O   0  0  0  0  0  0  0  0  0  0  0  0
  -30.1870  -15.3940   20.7180 N   0  0  0  0  0  0  0  0  0  0  0  0
  -29.5800  -14.9150   21.3670 H   0  0  0  0  0  0  0  0  0  0  0  0
  -25.4900  -13.6520   20.5080 C   0  0  0  0  0  0  0  0  0  0  0  0
  -24.4470  -12.8760   20.9360 C   0  0  0  0  0  0  0  0  0  0  0  0
  -24.8730  -11.5220   20.7860 C   0  0  0  0  0  0  0  0  0  0  0  0
  -26.4860  -12.7690   20.1220 N   0  0  0  0  0  0  0  0  0  0  0  0
  -26.1240  -11.4800   20.3470 N   0  0  0  0  0  0  0  0  0  0  0  0
  -24.1430  -10.2620   20.9810 C   0  0  0  0  0  0  0  0  0  0  0  0
  -24.5700   -9.3020   21.9250 C   0  0  0  0  0  3  0  0  0  0  0  0
  -23.8430   -8.1050   22.1070 C   0  0  0  0  0  3  0  0  0  0  0  0
  -22.6770   -7.8610   21.3440 C   0  0  0  0  0  0  0  0  0  0  0  0
  -22.2680   -8.8120   20.3910 C   0  0  0  0  0  3  0  0  0  0  0  0
  -22.9950   -9.9990   20.2080 C   0  0  0  0  0  3  0  0  0  0  0  0
  -21.9230   -6.7160   21.4330 O   0  0  0  0  0  0  0  0  0  0  0  0
  -21.7630   -6.0500   22.6220 C   0  0  0  0  0  0  0  0  0  0  0  0
  -21.1660   -6.6640   23.7440 C   0  0  0  0  0  3  0  0  0  0  0  0
  -20.9560   -5.9220   24.9230 C   0  0  0  0  0  3  0  0  0  0  0  0
  -21.3360   -4.5670   24.9800 C   0  0  0  0  0  0  0  0  0  0  0  0
  -21.9280   -3.9520   23.8630 C   0  0  0  0  0  3  0  0  0  0  0  0
  -22.1380   -4.6920   22.6850 C   0  0  0  0  0  0  0  0  0  0  0  0
  -22.6880   -4.0910   21.6040 F   0  0  0  0  0  0  0  0  0  0  0  0
  -21.1270   -3.8520   26.1100 F   0  0  0  0  0  0  0  0  0  0  0  0
  -23.0950  -13.3590   21.3750 C   0  0  0  0  0  0  0  0  0  0  0  0
  -22.4470  -12.6320   22.2780 N   0  0  0  0  0  0  0  0  0  0  0  0
  -22.6260  -14.4160   20.9540 O   0  0  0  0  0  0  0  0  0  0  0  0
  -22.8390  -11.7760   22.6390 H   0  0  0  0  0  0  0  0  0  0  0  0
  -21.5440  -12.9400   22.6130 H   0  0  0  0  0  0  0  0  0  0  0  0
  -25.6670  -15.0290   20.3970 N   0  0  0  0  0  0  0  0  0  0  0  0
  -24.9360  -15.6920   20.6300 H   0  0  0  0  0  0  0  0  0  0  0  0
  -26.5030  -15.4730   20.0370 H   0  0  0  0  0  0  0  0  0  0  0  0
  -28.6540  -25.3010   19.3260 C   0  0  0  0  0  2  0  0  0  0  0  0
  -28.5080  -26.5360   20.1040 O   0  0  0  0  0  0  0  0  0  0  0  0
  -24.6040  -31.7890   23.0860 C   0  0  0  0  0  0  0  0  0  0  0  0
  -27.3410  -27.3080   20.0350 C   0  0  0  0  0  0  0  0  0  0  0  0
  -23.4480  -30.3720   21.4300 C   0  0  0  0  0  3  0  0  0  0  0  0
  -24.9420  -28.8600   20.0220 C   0  0  0  0  0  0  0  0  0  0  0  0
  -25.9820  -30.7390   21.2830 C   0  0  0  0  0  2  0  0  0  0  0  0
  -26.0910  -29.3650   20.6380 C   0  0  0  0  0  0  0  0  0  0  0  0
  -27.2890  -28.5960   20.6470 C   0  0  0  0  0  3  0  0  0  0  0  0
  -26.1590  -26.8530   19.3990 C   0  0  0  0  0  3  0  0  0  0  0  0
  -24.9740  -27.6050   19.4030 C   0  0  0  0  0  3  0  0  0  0  0  0
  -23.6910  -29.7100   20.0510 C   0  0  0  0  0  2  0  0  0  0  0  0
  -24.6970  -30.9820   21.9910 N   0  0  0  0  0  0  0  0  0  0  0  0
  -23.5080  -32.0480   23.6040 O   0  0  0  0  0  0  0  0  0  0  0  0
  -22.7920  -29.3390   22.3750 C   0  0  0  0  0  0  0  0  0  0  0  0
  -21.4670  -29.1600   22.2450 N   0  0  0  0  0  0  0  0  0  0  0  0
  -23.4730  -28.7040   23.1850 O   0  0  0  0  0  0  0  0  0  0  0  0
  -20.9780  -29.7250   21.5660 H   0  0  0  0  0  0  0  0  0  0  0  0
  -18.0830  -28.0020   22.7740 C   0  0  0  0  0  0  0  0  0  0  0  0
  -20.6490  -28.2150   23.0050 C   0  0  0  0  0  3  0  0  0  0  0  0
  -20.7180  -26.7980   22.3890 C   0  0  0  0  0  2  0  0  0  0  0  0
  -19.5940  -26.5190   21.3870 C   0  0  0  0  0  2  0  0  0  0  0  0
  -18.2260  -26.6680   22.0600 C   0  0  0  0  0  2  0  0  0  0  0  0
  -19.2210  -28.7350   23.2040 C   0  0  0  0  0  0  0  0  0  0  0  0
  -19.0330  -29.9840   23.8330 C   0  0  0  0  0  3  0  0  0  0  0  0
  -17.7390  -30.5030   24.0360 C   0  0  0  0  0  3  0  0  0  0  0  0
  -16.6160  -29.7660   23.6220 C   0  0  0  0  0  3  0  0  0  0  0  0
  -16.7890  -28.5170   22.9970 C   0  0  0  0  0  3  0  0  0  0  0  0
  -25.8670  -32.4410   23.7280 C   0  0  0  0  0  3  0  0  0  0  0  0
  -25.5090  -33.8120   24.1180 N   0  0  0  0  0  0  0  0  0  0  0  0
  -25.7710  -34.9030   23.3880 C   0  0  0  0  0  0  0  0  0  0  0  0
  -26.4110  -34.8660   22.3340 O   0  0  0  0  0  0  0  0  0  0  0  0
  -24.9320  -33.9110   24.9400 H   0  0  0  0  0  0  0  0  0  0  0  0
  -23.9470  -36.6220   23.1600 C   0  0  0  0  0  1  0  0  0  0  0  0
  -25.2370  -36.2530   23.9090 C   0  0  0  0  0  3  0  0  0  0  0  0
  -27.3520  -37.2210   24.6940 C   0  0  0  0  0  1  0  0  0  0  0  0
  -26.2140  -37.3570   23.7900 N   0  0  0  0  0  0  0  0  0  0  0  0
  -25.7690  -38.2520   23.9720 H   0  0  0  0  0  0  0  0  0  0  0  0
  -26.4190  -31.6350   24.9680 C   0  0  1  0  0  0  0  0  0  0  0  0
  -25.3390  -31.3010   26.0220 C   0  0  0  0  0  1  0  0  0  0  0  0
  -27.0630  -30.3050   24.5120 C   0  0  0  0  0  1  0  0  0  0  0  0
  -27.5340  -32.4500   25.6660 C   0  0  0  0  0  1  0  0  0  0  0  0
  1  9  1  0
  1  8  1  0
  1 14  1  0
  2  3  1  0
  4  6  1  0
  4  8  1  0
  4  5  1  0
  5  7  1  1
  5  2  1  0
  8  3  1  0
 10  9  1  0
 11  9  1  0
 12 15  2  0
 13 16  1  0
 14 12  1  0
 14 13  2  0
 15 25  1  0
 15 16  1  0
 17 25  1  0
 18 23  1  0
 19 20  1  0
 19 18  1  0
 21 20  1  0
 21 30  1  0
 21 22  1  0
 23 17  1  0
 23 22  1  0
 24 17  2  0
 25 26  1  0
 27 28  2  0
 28 47  1  0
 29 28  1  0
 29 32  1  0
 30 31  1  0
 30 27  1  0
 31 29  2  0
 32 33  1  0
 33 34  2  0
 35 38  1  0
 35 34  1  0
 36 35  2  0
 37 36  1  0
 37 32  2  0
 38 39  1  0
 39 44  2  0
 39 40  1  0
 40 41  2  0
 41 42  1  0
 42 46  1  0
 43 42  2  0
 44 43  1  0
 45 44  1  0
 47 48  1  0
 48 51  1  0
 48 50  1  0
 49 47  2  0
 52 27  1  0
 52 53  1  0
 54 52  1  0
 55  5  1  0
 55 56  1  0
 57 68  2  0
 58 56  1  0
 58 63  1  0
 59 67  1  0
 59 69  1  0
 60 66  1  0
 60 62  1  0
 61 67  1  0
 62 63  2  0
 62 61  1  0
 64 65  1  0
 64 58  2  0
 65 60  2  0
 66 59  1  0
 67 57  1  0
 69 71  2  0
 70 69  1  0
 72 70  1  0
 73 82  2  0
 73 78  1  0
 74 70  1  0
 74 78  1  0
 75 74  1  0
 76 77  1  0
 76 75  1  0
 77 73  1  0
 78 79  2  0
 79 80  1  0
 81 80  2  0
 82 81  1  0
 83 57  1  0
 83 84  1  0
 83 93  1  0
 84 87  1  0
 85 89  1  0
 85 84  1  0
 86 85  2  0
 89 88  1  0
 91 89  1  0
 91 92  1  0
 91 90  1  0
 93 96  1  1
 93 94  1  0
 95 93  1  0
M  ISO  4  17 100  25 100  55 101  56 101
M  END
>  <TORSDO>  (36) 
F 18

>  <SCORE>  (36) 
-13.974

>  <name>  (36) 
35

>  <ligand_id>  (36) 
35

>  <original_smiles>  (36) 
[H]c1sc(N([H])C(=O)N2C([H])([H])C([H])([H])C([H])([H])C([H])(n3nc(-c4c([H])c([H])c(Oc5c([H])c([H])c(F)c([H])c5F)c([H])c4[H])c(C(=O)N([H])[H])c3N([H])[H])C2([H])[H])c([H])c1C(N1C([H])([H])C([H])([H])C(C([H])([H])[H])(C([H])([H])Oc2c([H])c([H])c3c(c2[H])C([H])([H])N(C(=O)C([H])(N([H])C(=O)C([H])(N([H])C([H])([H])[H])C([H])([H])[H])C(C([H])([H])[H])(C([H])([H])[H])C([H])([H])[H])C([H])(C(=O)N([H])C2([H])c4c([H])c([H])c([H])c([H])c4C([H])([H])C([H])([H])C2([H])[H])C3([H])[H])C1([H])C([H])([H])[H])=[N+]([H])[H]

>  <smiles>  (36) 
[H]c1sc(N([H])C(=O)N2C([H])([H])C([H])([H])C([H])([H])C([H])(n3nc(-c4c([H])c([H])c(Oc5c([H])c([H])c(F)c([H])c5F)c([H])c4[H])c(C(=O)N([H])[H])c3N([H])[H])C2([H])[H])c([H])c1C(N1C([H])([H])C([H])([H])C(C([H])([H])[H])(C([H])([H])Oc2c([H])c([H])c3c(c2[H])C([H])([H])N(C(=O)C([H])(N([H])C(=O)C([H])(N([H])C([H])([H])[H])C([H])([H])[H])C(C([H])([H])[H])(C([H])([H])[H])C([H])([H])[H])C([H])(C(=O)N([H])C2([H])c4c([H])c([H])c([H])c([H])c4C([H])([H])C([H])([H])C2([H])[H])C3([H])[H])C1([H])C([H])([H])[H])=[N+]([H])[H]

$$$$
36:0:0
     RDKit          3D

 95104  0  0  1  0  0  0  0  0999 V2000
  -29.8410  -20.9700   21.6250 C   0  0  0  0  0  3  0  0  0  0  0  0
  -29.7560  -23.8470   19.2270 C   0  0  0  0  0  2  0  0  0  0  0  0
  -29.9810  -22.3360   19.4840 C   0  0  0  0  0  2  0  0  0  0  0  0
  -29.1900  -23.4120   21.4780 C   0  0  0  0  0  2  0  0  0  0  0  0
  -28.7240  -24.2970   20.2850 C   0  0  2  0  0  0  0  0  0  0  0  0
  -27.2980  -23.8710   19.8640 C   0  0  0  0  0  1  0  0  0  0  0  0
  -29.6820  -22.1300   20.9090 N   0  0  0  0  0  0  0  0  0  0  0  0
  -29.5330  -20.9940   22.9350 N   0  0  0  0  0  0  0  0  0  0  0  0
  -29.6980  -20.1820   23.5100 H   0  0  0  0  0  0  0  0  0  0  0  0
  -29.1740  -21.8170   23.3940 H   0  0  0  0  0  0  0  0  0  0  0  0
  -31.4520  -19.3630   20.3770 C   0  0  0  0  0  3  0  0  0  0  0  0
  -31.6250  -17.9530   20.1550 C   0  0  0  0  0  3  0  0  0  0  0  0
  -30.3260  -19.6830   21.0970 C   0  0  0  0  0  0  0  0  0  0  0  0
  -30.6360  -17.1610   20.7060 C   0  0  0  0  0  0  0  0  0  0  0  0
  -29.4580  -18.2040   21.4890 S   0  0  0  0  0  0  0  0  0  0  0  0
  -31.1440  -14.8110   20.0940 C   0  0  0  0  0  0  0  0  0  0  0  0
  -30.8150  -12.6340   18.9580 C   0  0  0  0  0  2  0  0  0  0  0  0
  -29.8340  -12.8510   17.7890 C   0  0  0  0  0  2  0  0  0  0  0  0
  -28.3720  -12.7170   18.2700 C   0  0  0  0  0  2  0  0  0  0  0  0
  -28.0870  -13.5300   19.5620 C   0  0  0  0  0  3  0  0  0  0  0  0
  -29.1880  -13.2980   20.6230 C   0  0  0  0  0  2  0  0  0  0  0  0
  -30.4870  -13.6170   20.0050 N   0  0  0  0  0  0  0  0  0  0  0  0
  -32.2380  -15.0030   19.5570 O   0  0  0  0  0  0  0  0  0  0  0  0
  -30.4570  -15.7990   20.7150 N   0  0  0  0  0  0  0  0  0  0  0  0
  -29.6110  -15.4780   21.1630 H   0  0  0  0  0  0  0  0  0  0  0  0
  -25.7280  -14.1360   20.4010 C   0  0  0  0  0  0  0  0  0  0  0  0
  -24.6700  -13.3640   20.7970 C   0  0  0  0  0  0  0  0  0  0  0  0
  -25.1120  -12.0110   20.7020 C   0  0  0  0  0  0  0  0  0  0  0  0
  -26.7530  -13.2520   20.0930 N   0  0  0  0  0  0  0  0  0  0  0  0
  -26.3850  -11.9660   20.3260 N   0  0  0  0  0  0  0  0  0  0  0  0
  -24.3790  -10.7510   20.8890 C   0  0  0  0  0  0  0  0  0  0  0  0
  -24.7690   -9.8050   21.8640 C   0  0  0  0  0  3  0  0  0  0  0  0
  -24.0370   -8.6120   22.0370 C   0  0  0  0  0  3  0  0  0  0  0  0
  -22.8990   -8.3550   21.2370 C   0  0  0  0  0  0  0  0  0  0  0  0
  -22.5290   -9.2890   20.2530 C   0  0  0  0  0  3  0  0  0  0  0  0
  -23.2630  -10.4730   20.0750 C   0  0  0  0  0  3  0  0  0  0  0  0
  -22.1430   -7.2110   21.3160 O   0  0  0  0  0  0  0  0  0  0  0  0
  -21.9360   -6.5640   22.5100 C   0  0  0  0  0  0  0  0  0  0  0  0
  -21.2940   -7.1950   23.5980 C   0  0  0  0  0  3  0  0  0  0  0  0
  -21.0400   -6.4720   24.7810 C   0  0  0  0  0  3  0  0  0  0  0  0
  -21.4210   -5.1200   24.8740 C   0  0  0  0  0  0  0  0  0  0  0  0
  -22.0540   -4.4890   23.7900 C   0  0  0  0  0  3  0  0  0  0  0  0
  -22.3100   -5.2100   22.6110 C   0  0  0  0  0  0  0  0  0  0  0  0
  -22.9020   -4.5910   21.5610 F   0  0  0  0  0  0  0  0  0  0  0  0
  -21.1710   -4.4230   26.0070 F   0  0  0  0  0  0  0  0  0  0  0  0
  -23.2920  -13.8500   21.1520 C   0  0  0  0  0  0  0  0  0  0  0  0
  -22.6000  -13.1440   22.0390 N   0  0  0  0  0  0  0  0  0  0  0  0
  -22.8390  -14.8910   20.6770 O   0  0  0  0  0  0  0  0  0  0  0  0
  -22.9750  -12.2990   22.4440 H   0  0  0  0  0  0  0  0  0  0  0  0
  -21.6780  -13.4510   22.3150 H   0  0  0  0  0  0  0  0  0  0  0  0
  -25.9000  -15.5100   20.2600 N   0  0  0  0  0  0  0  0  0  0  0  0
  -25.1490  -16.1670   20.4410 H   0  0  0  0  0  0  0  0  0  0  0  0
  -26.7420  -15.9570   19.9180 H   0  0  0  0  0  0  0  0  0  0  0  0
  -28.7570  -25.8350   20.6470 C   0  0  0  0  0  2  0  0  0  0  0  0
  -28.4800  -26.7970   19.5990 O   0  0  0  0  0  0  0  0  0  0  0  0
  -24.6630  -31.7840   23.0860 C   0  0  0  0  0  0  0  0  0  0  0  0
  -27.3170  -27.5400   19.7190 C   0  0  0  0  0  0  0  0  0  0  0  0
  -23.4480  -30.4500   21.3970 C   0  0  0  0  0  3  0  0  0  0  0  0
  -24.8990  -29.0210   19.8590 C   0  0  0  0  0  0  0  0  0  0  0  0
  -25.9650  -30.8630   21.1660 C   0  0  0  0  0  2  0  0  0  0  0  0
  -26.0620  -29.5260   20.4550 C   0  0  0  0  0  0  0  0  0  0  0  0
  -27.2750  -28.7910   20.3860 C   0  0  0  0  0  3  0  0  0  0  0  0
  -26.1390  -27.0710   19.1050 C   0  0  0  0  0  3  0  0  0  0  0  0
  -24.9330  -27.7910   19.1830 C   0  0  0  0  0  3  0  0  0  0  0  0
  -23.6400  -29.8520   19.9780 C   0  0  0  0  0  2  0  0  0  0  0  0
  -24.7120  -31.0450   21.9410 N   0  0  0  0  0  0  0  0  0  0  0  0
  -23.5900  -32.0020   23.6640 O   0  0  0  0  0  0  0  0  0  0  0  0
  -22.8380  -29.3630   22.3130 C   0  0  0  0  0  0  0  0  0  0  0  0
  -21.5160  -29.1530   22.1990 N   0  0  0  0  0  0  0  0  0  0  0  0
  -23.5510  -28.7130   23.0800 O   0  0  0  0  0  0  0  0  0  0  0  0
  -20.9950  -29.7310   21.5550 H   0  0  0  0  0  0  0  0  0  0  0  0
  -18.1790  -27.8620   22.7120 C   0  0  0  0  0  0  0  0  0  0  0  0
  -20.7380  -28.1560   22.9360 C   0  0  0  0  0  3  0  0  0  0  0  0
  -20.8500  -26.7610   22.2780 C   0  0  0  0  0  2  0  0  0  0  0  0
  -19.7310  -26.4760   21.2720 C   0  0  0  0  0  2  0  0  0  0  0  0
  -18.3620  -26.5590   21.9550 C   0  0  0  0  0  2  0  0  0  0  0  0
  -19.2950  -28.6200   23.1590 C   0  0  0  0  0  0  0  0  0  0  0  0
  -19.0680  -29.8450   23.8250 C   0  0  0  0  0  3  0  0  0  0  0  0
  -17.7590  -30.3110   24.0500 C   0  0  0  0  0  3  0  0  0  0  0  0
  -16.6580  -29.5470   23.6240 C   0  0  0  0  0  3  0  0  0  0  0  0
  -16.8700  -28.3260   22.9600 C   0  0  0  0  0  3  0  0  0  0  0  0
  -25.9520  -32.4080   23.7080 C   0  0  0  0  0  3  0  0  0  0  0  0
  -25.6340  -33.7910   24.0850 N   0  0  0  0  0  0  0  0  0  0  0  0
  -25.9430  -34.8700   23.3520 C   0  0  0  0  0  0  0  0  0  0  0  0
  -26.5960  -34.8040   22.3080 O   0  0  0  0  0  0  0  0  0  0  0  0
  -25.0590  -33.9140   24.9060 H   0  0  0  0  0  0  0  0  0  0  0  0
  -24.1910  -36.6500   23.0730 C   0  0  0  0  0  1  0  0  0  0  0  0
  -25.4470  -36.2360   23.8580 C   0  0  0  0  0  3  0  0  0  0  0  0
  -27.5760  -37.1250   24.6960 C   0  0  0  0  0  1  0  0  0  0  0  0
  -26.4640  -37.3060   23.7670 N   0  0  0  0  0  0  0  0  0  0  0  0
  -26.0460  -38.2150   23.9470 H   0  0  0  0  0  0  0  0  0  0  0  0
  -26.4940  -31.6010   24.9520 C   0  0  1  0  0  0  0  0  0  0  0  0
  -25.4190  -31.3080   26.0240 C   0  0  0  0  0  1  0  0  0  0  0  0
  -27.0930  -30.2480   24.5040 C   0  0  0  0  0  1  0  0  0  0  0  0
  -27.6380  -32.3910   25.6310 C   0  0  0  0  0  1  0  0  0  0  0  0
  1  8  1  0
  2  3  1  0
  2  5  1  0
  3  7  1  0
  5  6  1  6
  5 54  1  0
  5  4  1  0
  7  4  1  0
  7  1  1  0
  8 10  1  0
  8  9  1  0
 11 13  2  0
 12 11  1  0
 12 14  2  0
 13 15  1  0
 13  1  1  0
 14 24  1  0
 14 15  1  0
 16 24  1  0
 17 22  1  0
 18 19  1  0
 18 17  1  0
 20 19  1  0
 20 29  1  0
 20 21  1  0
 22 16  1  0
 22 21  1  0
 23 16  2  0
 24 25  1  0
 26 27  2  0
 27 46  1  0
 28 27  1  0
 28 31  1  0
 29 30  1  0
 29 26  1  0
 30 28  2  0
 31 32  1  0
 32 33  2  0
 34 37  1  0
 34 33  1  0
 35 34  2  0
 36 35  1  0
 36 31  2  0
 37 38  1  0
 38 43  2  0
 38 39  1  0
 39 40  2  0
 40 41  1  0
 41 45  1  0
 42 41  2  0
 43 42  1  0
 44 43  1  0
 46 47  1  0
 47 50  1  0
 47 49  1  0
 48 46  2  0
 51 26  1  0
 51 52  1  0
 53 51  1  0
 55 57  1  0
 55 54  1  0
 56 67  2  0
 57 62  1  0
 58 66  1  0
 58 68  1  0
 59 65  1  0
 59 61  1  0
 60 66  1  0
 61 60  1  0
 62 61  2  0
 63 64  1  0
 63 57  2  0
 64 59  2  0
 65 58  1  0
 66 56  1  0
 68 70  2  0
 69 68  1  0
 71 69  1  0
 72 81  2  0
 72 77  1  0
 73 69  1  0
 73 77  1  0
 74 73  1  0
 75 76  1  0
 75 74  1  0
 76 72  1  0
 77 78  2  0
 78 79  1  0
 80 79  2  0
 81 80  1  0
 82 56  1  0
 82 83  1  0
 82 92  1  0
 83 86  1  0
 84 88  1  0
 84 83  1  0
 85 84  2  0
 88 87  1  0
 90 88  1  0
 90 91  1  0
 90 89  1  0
 92 95  1  1
 92 93  1  0
 94 92  1  0
M  ISO  4  16 100  24 100  54 101  55 101
M  END
>  <TORSDO>  (37) 
F 18

>  <SCORE>  (37) 
-13.362

>  <name>  (37) 
36

>  <ligand_id>  (37) 
36

>  <original_smiles>  (37) 
[H]c1c(C(N2C([H])([H])C([H])([H])C(C([H])([H])[H])(C([H])([H])Oc3c([H])c([H])c4c(c3[H])C([H])([H])N(C(=O)C([H])(N([H])C(=O)C([H])(N([H])C([H])([H])[H])C([H])([H])[H])C(C([H])([H])[H])(C([H])([H])[H])C([H])([H])[H])C([H])(C(=O)N([H])C3([H])c5c([H])c([H])c([H])c([H])c5C([H])([H])C([H])([H])C3([H])[H])C4([H])[H])C2([H])[H])=[N+]([H])[H])sc(N([H])C(=O)N2C([H])([H])C([H])([H])C([H])([H])C([H])(n3nc(-c4c([H])c([H])c(Oc5c([H])c([H])c(F)c([H])c5F)c([H])c4[H])c(C(=O)N([H])[H])c3N([H])[H])C2([H])[H])c1[H]

>  <smiles>  (37) 
[H]c1c(C(N2C([H])([H])C([H])([H])C(C([H])([H])[H])(C([H])([H])Oc3c([H])c([H])c4c(c3[H])C([H])([H])N(C(=O)C([H])(N([H])C(=O)C([H])(N([H])C([H])([H])[H])C([H])([H])[H])C(C([H])([H])[H])(C([H])([H])[H])C([H])([H])[H])C([H])(C(=O)N([H])C3([H])c5c([H])c([H])c([H])c([H])c5C([H])([H])C([H])([H])C3([H])[H])C4([H])[H])C2([H])[H])=[N+]([H])[H])sc(N([H])C(=O)N2C([H])([H])C([H])([H])C([H])([H])C([H])(n3nc(-c4c([H])c([H])c(Oc5c([H])c([H])c(F)c([H])c5F)c([H])c4[H])c(C(=O)N([H])[H])c3N([H])[H])C2([H])[H])c1[H]

$$$$
37:0:0
     RDKit          3D

 95103  0  0  1  0  0  0  0  0999 V2000
  -29.1920  -23.0710   20.7930 C   0  0  0  0  0  0  0  0  0  0  0  0
  -29.5950  -22.2460   19.8060 N   0  0  0  0  0  0  0  0  0  0  0  0
  -28.5890  -22.7050   21.8070 O   0  0  0  0  0  0  0  0  0  0  0  0
  -29.9260  -22.7270   18.9780 H   0  0  0  0  0  0  0  0  0  0  0  0
  -29.4770  -18.5940   20.7720 C   0  0  0  0  0  3  0  0  0  0  0  0
  -29.3850  -19.9950   20.8420 C   0  0  0  0  0  3  0  0  0  0  0  0
  -30.0200  -18.7690   18.4170 C   0  0  0  0  0  3  0  0  0  0  0  0
  -29.8170  -17.9630   19.5630 C   0  0  0  0  0  0  0  0  0  0  0  0
  -29.9670  -20.1890   18.4660 C   0  0  0  0  0  0  0  0  0  0  0  0
  -29.6240  -20.8150   19.7090 C   0  0  0  0  0  0  0  0  0  0  0  0
  -30.2770  -20.9860   17.2150 C   0  0  0  0  0  0  0  0  0  0  0  0
  -31.0840  -20.3310   16.0910 C   0  0  0  0  0  1  0  0  0  0  0  0
  -29.9450  -22.1650   17.0500 O   0  0  0  0  0  0  0  0  0  0  0  0
  -30.0910  -16.5020   19.5050 C   0  0  0  0  0  2  0  0  0  0  0  0
  -30.0440  -15.6570   20.4770 N   0  0  0  0  0  2  0  0  0  0  0  0
  -30.7620  -14.4940   20.2180 C   0  0  0  0  0  0  0  0  0  0  0  0
  -30.3690  -12.3320   19.1360 C   0  0  0  0  0  2  0  0  0  0  0  0
  -29.4070  -12.5600   17.9540 C   0  0  0  0  0  2  0  0  0  0  0  0
  -27.9430  -12.4440   18.4220 C   0  0  0  0  0  2  0  0  0  0  0  0
  -27.6440  -13.2790   19.6950 C   0  0  0  0  0  3  0  0  0  0  0  0
  -28.7340  -13.0950   20.7740 C   0  0  0  0  0  2  0  0  0  0  0  0
  -30.0460  -13.3420   20.1570 N   0  0  0  0  0  0  0  0  0  0  0  0
  -31.9320  -14.5380   19.8300 O   0  0  0  0  0  0  0  0  0  0  0  0
  -25.2690  -13.8650   20.4850 C   0  0  0  0  0  0  0  0  0  0  0  0
  -24.2120  -13.0850   20.8680 C   0  0  0  0  0  0  0  0  0  0  0  0
  -24.6770  -11.7340   20.8130 C   0  0  0  0  0  0  0  0  0  0  0  0
  -26.3100  -12.9920   20.2150 N   0  0  0  0  0  0  0  0  0  0  0  0
  -25.9590  -11.7050   20.4750 N   0  0  0  0  0  0  0  0  0  0  0  0
  -23.9580  -10.4670   21.0060 C   0  0  0  0  0  0  0  0  0  0  0  0
  -24.4030   -9.4980   21.9300 C   0  0  0  0  0  3  0  0  0  0  0  0
  -23.6830   -8.2970   22.1120 C   0  0  0  0  0  3  0  0  0  0  0  0
  -22.5030   -8.0570   21.3670 C   0  0  0  0  0  0  0  0  0  0  0  0
  -22.0770   -9.0150   20.4310 C   0  0  0  0  0  3  0  0  0  0  0  0
  -22.7980  -10.2070   20.2480 C   0  0  0  0  0  3  0  0  0  0  0  0
  -21.7570   -6.9090   21.4560 O   0  0  0  0  0  0  0  0  0  0  0  0
  -21.7080   -6.1690   22.6110 C   0  0  0  0  0  0  0  0  0  0  0  0
  -21.2490   -6.7190   23.8280 C   0  0  0  0  0  3  0  0  0  0  0  0
  -21.1460   -5.9040   24.9740 C   0  0  0  0  0  3  0  0  0  0  0  0
  -21.4980   -4.5430   24.9040 C   0  0  0  0  0  0  0  0  0  0  0  0
  -21.9550   -3.9950   23.6930 C   0  0  0  0  0  3  0  0  0  0  0  0
  -22.0550   -4.8040   22.5500 C   0  0  0  0  0  0  0  0  0  0  0  0
  -22.4720   -4.2650   21.3770 F   0  0  0  0  0  0  0  0  0  0  0  0
  -21.3950   -3.7590   26.0030 F   0  0  0  0  0  0  0  0  0  0  0  0
  -22.8210  -13.5550   21.1800 C   0  0  0  0  0  0  0  0  0  0  0  0
  -22.1220  -12.8440   22.0590 N   0  0  0  0  0  0  0  0  0  0  0  0
  -22.3630  -14.5830   20.6840 O   0  0  0  0  0  0  0  0  0  0  0  0
  -22.5080  -12.0090   22.4750 H   0  0  0  0  0  0  0  0  0  0  0  0
  -21.1920  -13.1390   22.3230 H   0  0  0  0  0  0  0  0  0  0  0  0
  -25.4270  -15.2370   20.3200 N   0  0  0  0  0  0  0  0  0  0  0  0
  -24.6770  -15.8980   20.4860 H   0  0  0  0  0  0  0  0  0  0  0  0
  -26.2930  -15.6760   20.0310 H   0  0  0  0  0  0  0  0  0  0  0  0
  -30.7600  -24.8700   19.8100 C   0  0  0  0  0  1  0  0  0  0  0  0
  -29.4790  -24.5770   20.6170 C   0  0  0  0  0  3  0  0  0  0  0  0
  -28.2500  -25.3120   20.0510 C   0  0  0  0  0  2  0  0  0  0  0  0
  -28.3890  -26.7340   20.1710 O   0  0  0  0  0  0  0  0  0  0  0  0
  -24.5470  -31.8710   23.2420 C   0  0  0  0  0  0  0  0  0  0  0  0
  -27.2180  -27.4650   20.1340 C   0  0  0  0  0  0  0  0  0  0  0  0
  -23.3580  -30.4910   21.5740 C   0  0  0  0  0  3  0  0  0  0  0  0
  -24.8220  -28.9720   20.1460 C   0  0  0  0  0  0  0  0  0  0  0  0
  -25.8900  -30.8500   21.4060 C   0  0  0  0  0  2  0  0  0  0  0  0
  -25.9780  -29.4900   20.7430 C   0  0  0  0  0  0  0  0  0  0  0  0
  -27.1780  -28.7420   20.7360 C   0  0  0  0  0  3  0  0  0  0  0  0
  -26.0450  -26.9680   19.5200 C   0  0  0  0  0  3  0  0  0  0  0  0
  -24.8510  -27.7090   19.5360 C   0  0  0  0  0  3  0  0  0  0  0  0
  -23.5750  -29.8260   20.1910 C   0  0  0  0  0  2  0  0  0  0  0  0
  -24.6150  -31.0880   22.1290 N   0  0  0  0  0  0  0  0  0  0  0  0
  -23.4600  -32.1330   23.7760 O   0  0  0  0  0  0  0  0  0  0  0  0
  -22.7010  -29.4580   22.5150 C   0  0  0  0  0  0  0  0  0  0  0  0
  -21.3770  -29.2810   22.3770 N   0  0  0  0  0  0  0  0  0  0  0  0
  -23.3790  -28.8170   23.3220 O   0  0  0  0  0  0  0  0  0  0  0  0
  -20.8900  -29.8540   21.7020 H   0  0  0  0  0  0  0  0  0  0  0  0
  -17.9910  -28.1200   22.8950 C   0  0  0  0  0  0  0  0  0  0  0  0
  -20.5560  -28.3360   23.1340 C   0  0  0  0  0  3  0  0  0  0  0  0
  -20.6270  -26.9160   22.5260 C   0  0  0  0  0  2  0  0  0  0  0  0
  -19.5080  -26.6340   21.5210 C   0  0  0  0  0  2  0  0  0  0  0  0
  -18.1360  -26.7860   22.1810 C   0  0  0  0  0  2  0  0  0  0  0  0
  -19.1270  -28.8540   23.3270 C   0  0  0  0  0  0  0  0  0  0  0  0
  -18.9380  -30.1060   23.9490 C   0  0  0  0  0  3  0  0  0  0  0  0
  -17.6440  -30.6250   24.1440 C   0  0  0  0  0  3  0  0  0  0  0  0
  -16.5220  -29.8890   23.7230 C   0  0  0  0  0  3  0  0  0  0  0  0
  -16.6960  -28.6390   23.1060 C   0  0  0  0  0  3  0  0  0  0  0  0
  -25.8280  -32.4950   23.8800 C   0  0  0  0  0  3  0  0  0  0  0  0
  -25.5190  -33.8920   24.2120 N   0  0  0  0  0  0  0  0  0  0  0  0
  -25.8480  -34.9460   23.4490 C   0  0  0  0  0  0  0  0  0  0  0  0
  -26.5140  -34.8400   22.4150 O   0  0  0  0  0  0  0  0  0  0  0  0
  -24.9260  -34.0470   25.0160 H   0  0  0  0  0  0  0  0  0  0  0  0
  -24.1110  -36.7360   23.0990 C   0  0  0  0  0  1  0  0  0  0  0  0
  -25.3580  -36.3360   23.9050 C   0  0  0  0  0  3  0  0  0  0  0  0
  -27.4930  -37.2340   24.7180 C   0  0  0  0  0  1  0  0  0  0  0  0
  -26.3870  -37.3920   23.7760 N   0  0  0  0  0  0  0  0  0  0  0  0
  -25.9810  -38.3130   23.9190 H   0  0  0  0  0  0  0  0  0  0  0  0
  -26.3350  -31.7130   25.1540 C   0  0  1  0  0  0  0  0  0  0  0  0
  -25.2380  -31.4630   26.2150 C   0  0  0  0  0  1  0  0  0  0  0  0
  -26.9330  -30.3390   24.7640 C   0  0  0  0  0  1  0  0  0  0  0  0
  -27.4750  -32.5130   25.8260 C   0  0  0  0  0  1  0  0  0  0  0  0
  1  3  2  0
  2  1  1  0
  4  2  1  0
  5  6  1  0
  7  9  2  0
  7  8  1  0
  8  5  2  0
  9 10  1  0
 10  2  1  0
 10  6  2  0
 11  9  1  0
 12 11  1  0
 13 11  2  0
 14  8  1  0
 14 15  1  0
 16 15  1  0
 17 22  1  0
 18 19  1  0
 18 17  1  0
 20 19  1  0
 20 27  1  0
 20 21  1  0
 22 16  1  0
 22 21  1  0
 23 16  2  0
 24 25  2  0
 25 44  1  0
 26 25  1  0
 26 29  1  0
 27 28  1  0
 27 24  1  0
 28 26  2  0
 29 30  1  0
 30 31  2  0
 32 35  1  0
 32 31  1  0
 33 32  2  0
 34 33  1  0
 34 29  2  0
 35 36  1  0
 36 37  1  0
 37 38  2  0
 39 38  1  0
 39 43  1  0
 40 39  2  0
 41 36  2  0
 41 40  1  0
 42 41  1  0
 44 45  1  0
 45 48  1  0
 45 47  1  0
 46 44  2  0
 49 24  1  0
 49 50  1  0
 51 49  1  0
 53 52  1  0
 53  1  1  0
 54 55  1  0
 54 53  1  0
 56 67  2  0
 57 55  1  0
 57 62  1  0
 58 66  1  0
 58 68  1  0
 59 65  1  0
 59 61  1  0
 60 66  1  0
 61 60  1  0
 62 61  2  0
 63 64  1  0
 63 57  2  0
 64 59  2  0
 65 58  1  0
 66 56  1  0
 68 70  2  0
 69 68  1  0
 71 69  1  0
 72 81  2  0
 72 77  1  0
 73 69  1  0
 73 77  1  0
 74 73  1  0
 75 76  1  0
 75 74  1  0
 76 72  1  0
 77 78  2  0
 78 79  1  0
 80 79  2  0
 81 80  1  0
 82 56  1  0
 82 83  1  0
 82 92  1  0
 83 86  1  0
 84 88  1  0
 84 83  1  0
 85 84  2  0
 88 87  1  0
 90 88  1  0
 90 91  1  0
 90 89  1  0
 92 95  1  1
 92 93  1  0
 94 92  1  0
M  ISO  4  15 100  16 100  54 101  55 101
M  END
>  <TORSDO>  (38) 
F 21

>  <SCORE>  (38) 
-13.672

>  <name>  (38) 
37

>  <ligand_id>  (38) 
37

>  <original_smiles>  (38) 
[H]C(=NC(=O)N1C([H])([H])C([H])([H])C([H])([H])C([H])(n2nc(-c3c([H])c([H])c(Oc4c([H])c([H])c(F)c([H])c4F)c([H])c3[H])c(C(=O)N([H])[H])c2N([H])[H])C1([H])[H])c1c([H])c([H])c(N([H])C(=O)C([H])(C([H])([H])[H])C([H])([H])Oc2c([H])c([H])c3c(c2[H])C([H])([H])N(C(=O)C([H])(N([H])C(=O)C([H])(N([H])C([H])([H])[H])C([H])([H])[H])C(C([H])([H])[H])(C([H])([H])[H])C([H])([H])[H])C([H])(C(=O)N([H])C2([H])c4c([H])c([H])c([H])c([H])c4C([H])([H])C([H])([H])C2([H])[H])C3([H])[H])c(C(=O)C([H])([H])[H])c1[H]

>  <smiles>  (38) 
[H]C(=NC(=O)N1C([H])([H])C([H])([H])C([H])([H])C([H])(n2nc(-c3c([H])c([H])c(Oc4c([H])c([H])c(F)c([H])c4F)c([H])c3[H])c(C(=O)N([H])[H])c2N([H])[H])C1([H])[H])c1c([H])c([H])c(N([H])C(=O)C([H])(C([H])([H])[H])C([H])([H])Oc2c([H])c([H])c3c(c2[H])C([H])([H])N(C(=O)C([H])(N([H])C(=O)C([H])(N([H])C([H])([H])[H])C([H])([H])[H])C(C([H])([H])[H])(C([H])([H])[H])C([H])([H])[H])C([H])(C(=O)N([H])C2([H])c4c([H])c([H])c([H])c([H])c4C([H])([H])C([H])([H])C2([H])[H])C3([H])[H])c(C(=O)C([H])([H])[H])c1[H]

$$$$
38:0:0
     RDKit          3D

 90 98  0  0  1  0  0  0  0  0999 V2000
  -29.2060  -22.3800   20.2320 C   0  0  0  0  0  2  0  0  0  0  0  0
  -28.4900  -23.7510   20.6870 C   0  0  0  0  0  0  0  0  0  0  0  0
  -28.0380  -23.8280   21.8340 O   0  0  0  0  0  0  0  0  0  0  0  0
  -28.3480  -24.9970   19.6940 C   0  0  0  0  0  2  0  0  0  0  0  0
  -28.3160  -26.3990   20.2540 O   0  0  0  0  0  0  0  0  0  0  0  0
  -24.6280  -31.8770   23.2380 C   0  0  0  0  0  0  0  0  0  0  0  0
  -27.1990  -27.2670   20.1640 C   0  0  0  0  0  0  0  0  0  0  0  0
  -23.4130  -30.4810   21.6070 C   0  0  0  0  0  3  0  0  0  0  0  0
  -24.8480  -28.9300   20.1580 C   0  0  0  0  0  0  0  0  0  0  0  0
  -25.9520  -30.7810   21.4090 C   0  0  0  0  0  2  0  0  0  0  0  0
  -26.0200  -29.3970   20.7630 C   0  0  0  0  0  0  0  0  0  0  0  0
  -27.1900  -28.5730   20.7630 C   0  0  0  0  0  3  0  0  0  0  0  0
  -26.0040  -26.8770   19.5160 C   0  0  0  0  0  3  0  0  0  0  0  0
  -24.8460  -27.6790   19.5230 C   0  0  0  0  0  3  0  0  0  0  0  0
  -23.6150  -29.8120   20.2230 C   0  0  0  0  0  2  0  0  0  0  0  0
  -24.6850  -31.0660   22.1400 N   0  0  0  0  0  0  0  0  0  0  0  0
  -23.5480  -32.1570   23.7770 O   0  0  0  0  0  0  0  0  0  0  0  0
  -22.7580  -29.4620   22.5700 C   0  0  0  0  0  0  0  0  0  0  0  0
  -21.4310  -29.2790   22.4480 N   0  0  0  0  0  0  0  0  0  0  0  0
  -23.4420  -28.8400   23.3880 O   0  0  0  0  0  0  0  0  0  0  0  0
  -20.9370  -29.8300   21.7590 H   0  0  0  0  0  0  0  0  0  0  0  0
  -18.0620  -28.0660   22.9640 C   0  0  0  0  0  0  0  0  0  0  0  0
  -20.6200  -28.3390   23.2260 C   0  0  0  0  0  3  0  0  0  0  0  0
  -20.7270  -26.9070   22.6550 C   0  0  0  0  0  2  0  0  0  0  0  0
  -19.6230  -26.5750   21.6460 C   0  0  0  0  0  2  0  0  0  0  0  0
  -18.2420  -26.7160   22.2930 C   0  0  0  0  0  2  0  0  0  0  0  0
  -19.1770  -28.8360   23.3890 C   0  0  0  0  0  0  0  0  0  0  0  0
  -18.9540  -30.1000   23.9770 C   0  0  0  0  0  3  0  0  0  0  0  0
  -17.6460  -30.5950   24.1440 C   0  0  0  0  0  3  0  0  0  0  0  0
  -16.5440  -29.8210   23.7360 C   0  0  0  0  0  3  0  0  0  0  0  0
  -16.7540  -28.5600   23.1510 C   0  0  0  0  0  3  0  0  0  0  0  0
  -25.9130  -32.5120   23.8500 C   0  0  0  0  0  3  0  0  0  0  0  0
  -26.4420  -31.7380   25.1210 C   0  0  1  0  0  0  0  0  0  0  0  0
  -25.3640  -31.5020   26.2060 C   0  0  0  0  0  1  0  0  0  0  0  0
  -27.0140  -30.3590   24.7210 C   0  0  0  0  0  1  0  0  0  0  0  0
  -27.6080  -32.5250   25.7650 C   0  0  0  0  0  1  0  0  0  0  0  0
  -25.6060  -33.9090   24.1870 N   0  0  0  0  0  0  0  0  0  0  0  0
  -25.9280  -34.9630   23.4270 C   0  0  0  0  0  0  0  0  0  0  0  0
  -26.5860  -34.8630   22.3890 O   0  0  0  0  0  0  0  0  0  0  0  0
  -25.0160  -34.0610   24.9910 H   0  0  0  0  0  0  0  0  0  0  0  0
  -24.1910  -36.7560   23.1000 C   0  0  0  0  0  1  0  0  0  0  0  0
  -25.4440  -36.3500   23.8940 C   0  0  0  0  0  3  0  0  0  0  0  0
  -27.5900  -37.2350   24.6940 C   0  0  0  0  0  1  0  0  0  0  0  0
  -26.4720  -37.4070   23.7700 N   0  0  0  0  0  0  0  0  0  0  0  0
  -26.0660  -38.3260   23.9300 H   0  0  0  0  0  0  0  0  0  0  0  0
  -28.7190  -21.0340   20.7470 N   0  0  0  0  0  0  0  0  0  0  0  0
  -27.8280  -21.0820   21.2460 H   0  0  0  0  0  0  0  0  0  0  0  0
  -28.9490  -18.4180   20.7280 C   0  0  0  0  0  3  0  0  0  0  0  0
  -31.1230  -17.9260   20.0640 C   0  0  0  0  0  3  0  0  0  0  0  0
  -29.9360  -17.3570   20.4550 C   0  0  0  0  0  0  0  0  0  0  0  0
  -29.3800  -19.7500   20.5480 C   0  0  0  0  0  0  0  0  0  0  0  0
  -31.0420  -19.6860   20.0060 S   0  0  0  0  0  0  0  0  0  0  0  0
  -30.5380  -14.7810   20.3290 C   0  0  0  0  0  0  0  0  0  0  0  0
  -30.3710  -12.5030   19.3110 C   0  0  0  0  0  2  0  0  0  0  0  0
  -29.4250  -12.5710   18.0900 C   0  0  0  0  0  2  0  0  0  0  0  0
  -27.9560  -12.4000   18.5260 C   0  0  0  0  0  2  0  0  0  0  0  0
  -27.5880  -13.2720   19.7520 C   0  0  0  0  0  3  0  0  0  0  0  0
  -28.6510  -13.1790   20.8660 C   0  0  0  0  0  2  0  0  0  0  0  0
  -29.9390  -13.5410   20.2720 N   0  0  0  0  0  0  0  0  0  0  0  0
  -31.7260  -14.8940   20.0020 O   0  0  0  0  0  0  0  0  0  0  0  0
  -29.7150  -15.8860   20.5620 N   0  0  0  0  0  0  0  0  0  0  0  0
  -28.7650  -15.6190   20.7710 H   0  0  0  0  0  0  0  0  0  0  0  0
  -25.2050  -13.8640   20.4860 C   0  0  0  0  0  0  0  0  0  0  0  0
  -24.1430  -13.0940   20.8710 C   0  0  0  0  0  0  0  0  0  0  0  0
  -24.6070  -11.7410   20.8430 C   0  0  0  0  0  0  0  0  0  0  0  0
  -26.2470  -12.9850   20.2480 N   0  0  0  0  0  0  0  0  0  0  0  0
  -25.8950  -11.7030   20.5250 N   0  0  0  0  0  0  0  0  0  0  0  0
  -23.8810  -10.4790   21.0370 C   0  0  0  0  0  0  0  0  0  0  0  0
  -24.3220   -9.5110   21.9640 C   0  0  0  0  0  3  0  0  0  0  0  0
  -23.5980   -8.3140   22.1500 C   0  0  0  0  0  3  0  0  0  0  0  0
  -22.4170   -8.0750   21.4090 C   0  0  0  0  0  0  0  0  0  0  0  0
  -21.9930   -9.0320   20.4700 C   0  0  0  0  0  3  0  0  0  0  0  0
  -22.7190  -10.2210   20.2820 C   0  0  0  0  0  3  0  0  0  0  0  0
  -21.6660   -6.9300   21.5010 O   0  0  0  0  0  0  0  0  0  0  0  0
  -21.6350   -6.1810   22.6500 C   0  0  0  0  0  0  0  0  0  0  0  0
  -21.2330   -6.7270   23.8870 C   0  0  0  0  0  3  0  0  0  0  0  0
  -21.1510   -5.9060   25.0280 C   0  0  0  0  0  3  0  0  0  0  0  0
  -21.4570   -4.5360   24.9330 C   0  0  0  0  0  0  0  0  0  0  0  0
  -21.8510   -3.9870   23.7000 C   0  0  0  0  0  3  0  0  0  0  0  0
  -21.9360   -4.8080   22.5620 C   0  0  0  0  0  0  0  0  0  0  0  0
  -22.2950   -4.2700   21.3730 F   0  0  0  0  0  0  0  0  0  0  0  0
  -21.3730   -3.7430   26.0260 F   0  0  0  0  0  0  0  0  0  0  0  0
  -22.7470  -13.5720   21.1440 C   0  0  0  0  0  0  0  0  0  0  0  0
  -22.0210  -12.8800   22.0180 N   0  0  0  0  0  0  0  0  0  0  0  0
  -22.3060  -14.5940   20.6190 O   0  0  0  0  0  0  0  0  0  0  0  0
  -22.3870  -12.0560   22.4710 H   0  0  0  0  0  0  0  0  0  0  0  0
  -21.0870  -13.1860   22.2440 H   0  0  0  0  0  0  0  0  0  0  0  0
  -25.3580  -15.2320   20.2870 N   0  0  0  0  0  0  0  0  0  0  0  0
  -24.5590  -15.8530   20.3380 H   0  0  0  0  0  0  0  0  0  0  0  0
  -26.1410  -15.6450   19.7990 H   0  0  0  0  0  0  0  0  0  0  0  0
  1  2  1  0
  1 46  1  0
  2  3  2  0
  4  5  1  0
  4  2  1  0
  6 17  2  0
  7  5  1  0
  7 12  1  0
  8 16  1  0
  8 18  1  0
  9 15  1  0
  9 11  1  0
 10 16  1  0
 11 10  1  0
 12 11  2  0
 13 14  1  0
 13  7  2  0
 14  9  2  0
 15  8  1  0
 16  6  1  0
 18 20  2  0
 19 18  1  0
 21 19  1  0
 22 31  2  0
 22 27  1  0
 23 19  1  0
 23 27  1  0
 24 23  1  0
 25 26  1  0
 25 24  1  0
 26 22  1  0
 27 28  2  0
 28 29  1  0
 30 29  2  0
 31 30  1  0
 32  6  1  0
 32 37  1  0
 32 33  1  0
 33 36  1  1
 33 34  1  0
 35 33  1  0
 37 40  1  0
 38 42  1  0
 38 37  1  0
 39 38  2  0
 42 41  1  0
 44 42  1  0
 44 45  1  0
 44 43  1  0
 46 47  1  0
 49 50  2  0
 50 61  1  0
 50 48  1  0
 51 48  2  0
 51 46  1  0
 52 49  1  0
 52 51  1  0
 53 61  1  0
 54 59  1  0
 55 56  1  0
 55 54  1  0
 57 56  1  0
 57 66  1  0
 57 58  1  0
 59 53  1  0
 59 58  1  0
 60 53  2  0
 61 62  1  0
 63 64  2  0
 64 83  1  0
 65 64  1  0
 65 68  1  0
 66 63  1  0
 66 67  1  0
 67 65  2  0
 68 69  1  0
 69 70  2  0
 71 74  1  0
 71 70  1  0
 72 71  2  0
 73 72  1  0
 73 68  2  0
 74 75  1  0
 75 76  1  0
 76 77  2  0
 78 77  1  0
 78 82  1  0
 79 78  2  0
 80 75  2  0
 80 79  1  0
 81 80  1  0
 83 84  1  0
 84 87  1  0
 84 86  1  0
 85 83  2  0
 88 89  1  0
 88 63  1  0
 90 88  1  0
M  ISO  4   4 101   5 101  53 100  61 100
M  END
>  <TORSDO>  (39) 
F 20

>  <SCORE>  (39) 
-13.753

>  <name>  (39) 
38

>  <ligand_id>  (39) 
38

>  <original_smiles>  (39) 
[H]c1sc(N([H])C([H])([H])C(=O)C([H])([H])Oc2c([H])c([H])c3c(c2[H])C([H])([H])N(C(=O)C([H])(N([H])C(=O)C([H])(N([H])C([H])([H])[H])C([H])([H])[H])C(C([H])([H])[H])(C([H])([H])[H])C([H])([H])[H])C([H])(C(=O)N([H])C2([H])c4c([H])c([H])c([H])c([H])c4C([H])([H])C([H])([H])C2([H])[H])C3([H])[H])c([H])c1N([H])C(=O)N1C([H])([H])C([H])([H])C([H])([H])C([H])(n2nc(-c3c([H])c([H])c(Oc4c([H])c([H])c(F)c([H])c4F)c([H])c3[H])c(C(=O)N([H])[H])c2N([H])[H])C1([H])[H]

>  <smiles>  (39) 
[H]c1sc(N([H])C([H])([H])C(=O)C([H])([H])Oc2c([H])c([H])c3c(c2[H])C([H])([H])N(C(=O)C([H])(N([H])C(=O)C([H])(N([H])C([H])([H])[H])C([H])([H])[H])C(C([H])([H])[H])(C([H])([H])[H])C([H])([H])[H])C([H])(C(=O)N([H])C2([H])c4c([H])c([H])c([H])c([H])c4C([H])([H])C([H])([H])C2([H])[H])C3([H])[H])c([H])c1N([H])C(=O)N1C([H])([H])C([H])([H])C([H])([H])C([H])(n2nc(-c3c([H])c([H])c(Oc4c([H])c([H])c(F)c([H])c4F)c([H])c3[H])c(C(=O)N([H])[H])c2N([H])[H])C1([H])[H]

$$$$
39:0:0
     RDKit          3D

 92101  0  0  1  0  0  0  0  0999 V2000
  -28.6370  -23.7370   20.1140 C   0  0  0  0  0  0  0  0  0  0  0  0
  -28.2510  -25.0020   19.6510 C   0  0  0  0  0  3  0  0  0  0  0  0
  -29.1500  -23.3180   21.4800 C   0  0  0  0  0  2  0  0  0  0  0  0
  -28.6480  -22.3820   19.3220 C   0  0  0  0  0  2  0  0  0  0  0  0
  -29.0280  -21.7510   21.5740 C   0  0  0  0  0  2  0  0  0  0  0  0
  -28.9740  -21.2090   20.2140 N   0  0  0  0  0  0  0  0  0  0  0  0
  -31.2090  -18.8860   18.2600 C   0  0  0  0  0  3  0  0  0  0  0  0
  -30.5320  -20.0180   18.7480 C   0  0  0  0  0  3  0  0  0  0  0  0
  -31.0020  -17.6080   18.8040 C   0  0  0  0  0  3  0  0  0  0  0  0
  -29.6180  -19.9440   19.8210 C   0  0  0  0  0  0  0  0  0  0  0  0
  -30.1220  -17.3880   19.8880 C   0  0  0  0  0  0  0  0  0  0  0  0
  -29.4430  -18.5940   20.3940 C   0  0  0  0  0  0  0  0  0  0  0  0
  -28.5870  -18.4420   21.4340 F   0  0  0  0  0  0  0  0  0  0  0  0
  -30.6380  -14.8040   20.0460 C   0  0  0  0  0  0  0  0  0  0  0  0
  -30.3610  -12.5370   19.0140 C   0  0  0  0  0  2  0  0  0  0  0  0
  -29.3690  -12.6470   17.8330 C   0  0  0  0  0  2  0  0  0  0  0  0
  -27.9240  -12.4660   18.3350 C   0  0  0  0  0  2  0  0  0  0  0  0
  -27.6190  -13.3310   19.5880 C   0  0  0  0  0  3  0  0  0  0  0  0
  -28.7290  -13.2270   20.6570 C   0  0  0  0  0  2  0  0  0  0  0  0
  -29.9940  -13.5830   20.0050 N   0  0  0  0  0  0  0  0  0  0  0  0
  -31.8140  -14.8580   19.6730 O   0  0  0  0  0  0  0  0  0  0  0  0
  -29.9150  -15.9670   20.3410 N   0  0  0  0  0  0  0  0  0  0  0  0
  -29.0290  -15.8030   20.7950 H   0  0  0  0  0  0  0  0  0  0  0  0
  -25.2790  -13.9210   20.4470 C   0  0  0  0  0  0  0  0  0  0  0  0
  -24.2280  -13.1470   20.8560 C   0  0  0  0  0  0  0  0  0  0  0  0
  -24.6810  -11.7940   20.7770 C   0  0  0  0  0  0  0  0  0  0  0  0
  -26.3020  -13.0400   20.1420 N   0  0  0  0  0  0  0  0  0  0  0  0
  -25.9530  -11.7540   20.4030 N   0  0  0  0  0  0  0  0  0  0  0  0
  -23.9550  -10.5330   20.9790 C   0  0  0  0  0  0  0  0  0  0  0  0
  -24.4120   -9.5570   21.8930 C   0  0  0  0  0  3  0  0  0  0  0  0
  -23.6860   -8.3610   22.0840 C   0  0  0  0  0  3  0  0  0  0  0  0
  -22.4900   -8.1330   21.3620 C   0  0  0  0  0  0  0  0  0  0  0  0
  -22.0530   -9.0970   20.4370 C   0  0  0  0  0  3  0  0  0  0  0  0
  -22.7780  -10.2860   20.2450 C   0  0  0  0  0  3  0  0  0  0  0  0
  -21.7340   -6.9910   21.4630 O   0  0  0  0  0  0  0  0  0  0  0  0
  -21.6950   -6.2540   22.6190 C   0  0  0  0  0  0  0  0  0  0  0  0
  -21.2860   -6.8160   23.8470 C   0  0  0  0  0  3  0  0  0  0  0  0
  -21.1920   -6.0060   24.9950 C   0  0  0  0  0  3  0  0  0  0  0  0
  -21.4980   -4.6340   24.9170 C   0  0  0  0  0  0  0  0  0  0  0  0
  -21.9000   -4.0710   23.6940 C   0  0  0  0  0  3  0  0  0  0  0  0
  -21.9950   -4.8780   22.5470 C   0  0  0  0  0  0  0  0  0  0  0  0
  -22.3620   -4.3260   21.3660 F   0  0  0  0  0  0  0  0  0  0  0  0
  -21.4010   -3.8540   26.0190 F   0  0  0  0  0  0  0  0  0  0  0  0
  -22.8500  -13.6280   21.2050 C   0  0  0  0  0  0  0  0  0  0  0  0
  -22.1640  -12.9220   22.0950 N   0  0  0  0  0  0  0  0  0  0  0  0
  -22.3960  -14.6650   20.7240 O   0  0  0  0  0  0  0  0  0  0  0  0
  -22.5470  -12.0830   22.5020 H   0  0  0  0  0  0  0  0  0  0  0  0
  -21.2420  -13.2280   22.3750 H   0  0  0  0  0  0  0  0  0  0  0  0
  -25.4440  -15.2930   20.2900 N   0  0  0  0  0  0  0  0  0  0  0  0
  -24.6820  -15.9420   20.4460 H   0  0  0  0  0  0  0  0  0  0  0  0
  -26.2710  -15.7380   19.9140 H   0  0  0  0  0  0  0  0  0  0  0  0
  -28.2840  -26.3100   20.2470 O   0  0  0  0  0  0  0  0  0  0  0  0
  -24.6360  -31.8620   23.2400 C   0  0  0  0  0  0  0  0  0  0  0  0
  -27.2060  -27.2390   20.1530 C   0  0  0  0  0  0  0  0  0  0  0  0
  -23.4220  -30.4780   21.5960 C   0  0  0  0  0  3  0  0  0  0  0  0
  -24.8620  -28.9240   20.1520 C   0  0  0  0  0  0  0  0  0  0  0  0
  -25.9690  -30.7650   21.4140 C   0  0  0  0  0  2  0  0  0  0  0  0
  -26.0370  -29.3840   20.7550 C   0  0  0  0  0  0  0  0  0  0  0  0
  -27.2090  -28.5520   20.7480 C   0  0  0  0  0  3  0  0  0  0  0  0
  -25.9990  -26.8540   19.5250 C   0  0  0  0  0  3  0  0  0  0  0  0
  -24.8490  -27.6670   19.5280 C   0  0  0  0  0  3  0  0  0  0  0  0
  -23.6320  -29.8100   20.2120 C   0  0  0  0  0  2  0  0  0  0  0  0
  -24.6950  -31.0540   22.1390 N   0  0  0  0  0  0  0  0  0  0  0  0
  -23.5540  -32.1430   23.7780 O   0  0  0  0  0  0  0  0  0  0  0  0
  -22.7530  -29.4630   22.5560 C   0  0  0  0  0  0  0  0  0  0  0  0
  -21.4240  -29.2940   22.4370 N   0  0  0  0  0  0  0  0  0  0  0  0
  -23.4310  -28.8290   23.3690 O   0  0  0  0  0  0  0  0  0  0  0  0
  -20.9320  -29.8610   21.7620 H   0  0  0  0  0  0  0  0  0  0  0  0
  -18.0450  -28.0970   22.9480 C   0  0  0  0  0  0  0  0  0  0  0  0
  -20.6050  -28.3560   23.2110 C   0  0  0  0  0  3  0  0  0  0  0  0
  -20.7030  -26.9240   22.6340 C   0  0  0  0  0  2  0  0  0  0  0  0
  -19.5990  -26.6030   21.6220 C   0  0  0  0  0  2  0  0  0  0  0  0
  -18.2190  -26.7490   22.2690 C   0  0  0  0  0  2  0  0  0  0  0  0
  -19.1650  -28.8580   23.3780 C   0  0  0  0  0  0  0  0  0  0  0  0
  -18.9470  -30.1190   23.9720 C   0  0  0  0  0  3  0  0  0  0  0  0
  -17.6430  -30.6190   24.1430 C   0  0  0  0  0  3  0  0  0  0  0  0
  -16.5380  -29.8550   23.7300 C   0  0  0  0  0  3  0  0  0  0  0  0
  -16.7400  -28.5960   23.1390 C   0  0  0  0  0  3  0  0  0  0  0  0
  -25.9220  -32.4890   23.8600 C   0  0  0  0  0  3  0  0  0  0  0  0
  -25.6180  -33.8870   24.2030 N   0  0  0  0  0  0  0  0  0  0  0  0
  -25.9270  -34.9440   23.4410 C   0  0  0  0  0  0  0  0  0  0  0  0
  -26.5670  -34.8470   22.3910 O   0  0  0  0  0  0  0  0  0  0  0  0
  -25.0460  -34.0360   25.0220 H   0  0  0  0  0  0  0  0  0  0  0  0
  -24.1780  -36.7300   23.1540 C   0  0  0  0  0  1  0  0  0  0  0  0
  -25.4490  -36.3300   23.9190 C   0  0  0  0  0  3  0  0  0  0  0  0
  -27.6120  -37.2220   24.6640 C   0  0  0  0  0  1  0  0  0  0  0  0
  -26.4700  -37.3910   23.7710 N   0  0  0  0  0  0  0  0  0  0  0  0
  -26.0640  -38.3070   23.9460 H   0  0  0  0  0  0  0  0  0  0  0  0
  -26.4420  -31.7100   25.1300 C   0  0  1  0  0  0  0  0  0  0  0  0
  -25.3550  -31.4720   26.2030 C   0  0  0  0  0  1  0  0  0  0  0  0
  -27.0190  -30.3320   24.7320 C   0  0  0  0  0  1  0  0  0  0  0  0
  -27.5990  -32.4970   25.7900 C   0  0  0  0  0  1  0  0  0  0  0  0
  1  3  1  0
  2  1  2  0
  2 52  1  0
  3  5  1  0
  4  1  1  0
  4  6  1  0
  6  5  1  0
  7  8  2  0
  7  9  1  0
  8 10  1  0
  9 11  2  0
 10  6  1  0
 10 12  2  0
 11 22  1  0
 11 12  1  0
 12 13  1  0
 14 22  1  0
 15 20  1  0
 16 17  1  0
 16 15  1  0
 18 17  1  0
 18 27  1  0
 18 19  1  0
 20 14  1  0
 20 19  1  0
 21 14  2  0
 22 23  1  0
 24 25  2  0
 25 44  1  0
 26 25  1  0
 26 29  1  0
 27 28  1  0
 27 24  1  0
 28 26  2  0
 29 30  1  0
 30 31  2  0
 32 35  1  0
 32 31  1  0
 33 32  2  0
 34 33  1  0
 34 29  2  0
 35 36  1  0
 36 37  1  0
 37 38  2  0
 39 38  1  0
 39 43  1  0
 40 39  2  0
 41 36  2  0
 41 40  1  0
 42 41  1  0
 44 45  1  0
 45 48  1  0
 45 47  1  0
 46 44  2  0
 49 50  1  0
 49 24  1  0
 51 49  1  0
 53 64  2  0
 54 52  1  0
 54 59  1  0
 55 63  1  0
 55 65  1  0
 56 62  1  0
 56 58  1  0
 57 63  1  0
 58 57  1  0
 59 58  2  0
 60 61  1  0
 60 54  2  0
 61 56  2  0
 62 55  1  0
 63 53  1  0
 65 67  2  0
 66 65  1  0
 68 66  1  0
 69 78  2  0
 69 74  1  0
 70 66  1  0
 70 74  1  0
 71 70  1  0
 72 73  1  0
 72 71  1  0
 73 69  1  0
 74 75  2  0
 75 76  1  0
 77 76  2  0
 78 77  1  0
 79 53  1  0
 79 80  1  0
 79 89  1  0
 80 83  1  0
 81 85  1  0
 81 80  1  0
 82 81  2  0
 85 84  1  0
 87 85  1  0
 87 88  1  0
 87 86  1  0
 89 92  1  1
 89 90  1  0
 91 89  1  0
M  ISO  4   2 101  14 100  22 100  52 101
M  END
>  <TORSDO>  (40) 
F 17

>  <SCORE>  (40) 
-14.868

>  <name>  (40) 
39

>  <ligand_id>  (40) 
39

>  <original_smiles>  (40) 
[H]C(Oc1c([H])c([H])c2c(c1[H])C([H])([H])N(C(=O)C([H])(N([H])C(=O)C([H])(N([H])C([H])([H])[H])C([H])([H])[H])C(C([H])([H])[H])(C([H])([H])[H])C([H])([H])[H])C([H])(C(=O)N([H])C1([H])c3c([H])c([H])c([H])c([H])c3C([H])([H])C([H])([H])C1([H])[H])C2([H])[H])=C1C([H])([H])N(c2c([H])c([H])c([H])c(N([H])C(=O)N3C([H])([H])C([H])([H])C([H])([H])C([H])(n4nc(-c5c([H])c([H])c(Oc6c([H])c([H])c(F)c([H])c6F)c([H])c5[H])c(C(=O)N([H])[H])c4N([H])[H])C3([H])[H])c2F)C([H])([H])C1([H])[H]

>  <smiles>  (40) 
[H]C(Oc1c([H])c([H])c2c(c1[H])C([H])([H])N(C(=O)C([H])(N([H])C(=O)C([H])(N([H])C([H])([H])[H])C([H])([H])[H])C(C([H])([H])[H])(C([H])([H])[H])C([H])([H])[H])C([H])(C(=O)N([H])C1([H])c3c([H])c([H])c([H])c([H])c3C([H])([H])C([H])([H])C1([H])[H])C2([H])[H])=C1C([H])([H])N(c2c([H])c([H])c([H])c(N([H])C(=O)N3C([H])([H])C([H])([H])C([H])([H])C([H])(n4nc(-c5c([H])c([H])c(Oc6c([H])c([H])c(F)c([H])c6F)c([H])c5[H])c(C(=O)N([H])[H])c4N([H])[H])C3([H])[H])c2F)C([H])([H])C1([H])[H]

$$$$
40:0:0
     RDKit          3D

 98107  0  0  1  0  0  0  0  0999 V2000
  -29.7630  -20.8540   21.3890 C   0  0  0  0  0  3  0  0  0  0  0  0
  -29.0500  -24.5070   21.6460 C   0  0  0  0  0  2  0  0  0  0  0  0
  -29.2540  -23.1310   22.3050 C   0  0  0  0  0  2  0  0  0  0  0  0
  -28.9010  -22.8790   19.9490 C   0  0  0  0  0  2  0  0  0  0  0  0
  -28.1930  -24.2240   20.3990 C   0  0  1  0  0  0  0  0  0  0  0  0
  -29.3190  -22.1480   21.1940 N   0  0  0  0  0  0  0  0  0  0  0  0
  -30.0490  -20.5250   22.6480 N   0  0  0  0  0  0  0  0  0  0  0  0
  -30.4570  -19.6210   22.8330 H   0  0  0  0  0  0  0  0  0  0  0  0
  -29.9090  -21.1530   23.4180 H   0  0  0  0  0  0  0  0  0  0  0  0
  -30.9640  -19.0490   18.2430 C   0  0  0  0  0  3  0  0  0  0  0  0
  -30.5790  -20.0800   19.1240 C   0  0  0  0  0  3  0  0  0  0  0  0
  -30.8340  -17.6920   18.6120 C   0  0  0  0  0  3  0  0  0  0  0  0
  -29.8510  -18.3890   20.7210 C   0  0  0  0  0  3  0  0  0  0  0  0
  -30.0190  -19.7750   20.3820 C   0  0  0  0  0  0  0  0  0  0  0  0
  -30.2910  -17.3280   19.8690 C   0  0  0  0  0  0  0  0  0  0  0  0
  -30.8950  -14.8580   19.9140 C   0  0  0  0  0  0  0  0  0  0  0  0
  -30.6200  -12.6010   18.9510 C   0  0  0  0  0  2  0  0  0  0  0  0
  -29.6270  -12.7140   17.7730 C   0  0  0  0  0  2  0  0  0  0  0  0
  -28.1760  -12.5650   18.2740 C   0  0  0  0  0  2  0  0  0  0  0  0
  -27.8710  -13.4630   19.5030 C   0  0  0  0  0  3  0  0  0  0  0  0
  -28.9790  -13.3420   20.5740 C   0  0  0  0  0  2  0  0  0  0  0  0
  -30.2650  -13.6450   19.9280 N   0  0  0  0  0  0  0  0  0  0  0  0
  -32.0340  -14.9870   19.4590 O   0  0  0  0  0  0  0  0  0  0  0  0
  -30.1410  -15.9380   20.2690 N   0  0  0  0  0  0  0  0  0  0  0  0
  -29.2940  -15.7140   20.7680 H   0  0  0  0  0  0  0  0  0  0  0  0
  -25.5330  -14.0710   20.3770 C   0  0  0  0  0  0  0  0  0  0  0  0
  -24.4790  -13.3010   20.7880 C   0  0  0  0  0  0  0  0  0  0  0  0
  -24.9200  -11.9460   20.6920 C   0  0  0  0  0  0  0  0  0  0  0  0
  -26.5490  -13.1860   20.0570 N   0  0  0  0  0  0  0  0  0  0  0  0
  -26.1890  -11.9000   20.3060 N   0  0  0  0  0  0  0  0  0  0  0  0
  -24.1890  -10.6870   20.8900 C   0  0  0  0  0  0  0  0  0  0  0  0
  -24.6000   -9.7390   21.8530 C   0  0  0  0  0  3  0  0  0  0  0  0
  -23.8700   -8.5450   22.0370 C   0  0  0  0  0  3  0  0  0  0  0  0
  -22.7170   -8.2910   21.2590 C   0  0  0  0  0  0  0  0  0  0  0  0
  -22.3260   -9.2270   20.2860 C   0  0  0  0  0  3  0  0  0  0  0  0
  -23.0560  -10.4130   20.1000 C   0  0  0  0  0  3  0  0  0  0  0  0
  -21.9600   -7.1470   21.3500 O   0  0  0  0  0  0  0  0  0  0  0  0
  -21.8210   -6.4700   22.5350 C   0  0  0  0  0  0  0  0  0  0  0  0
  -21.2320   -7.0670   23.6710 C   0  0  0  0  0  3  0  0  0  0  0  0
  -21.0460   -6.3130   24.8470 C   0  0  0  0  0  3  0  0  0  0  0  0
  -21.4390   -4.9610   24.8870 C   0  0  0  0  0  0  0  0  0  0  0  0
  -22.0210   -4.3630   23.7550 C   0  0  0  0  0  3  0  0  0  0  0  0
  -22.2090   -5.1150   22.5820 C   0  0  0  0  0  0  0  0  0  0  0  0
  -22.7520   -4.5290   21.4880 F   0  0  0  0  0  0  0  0  0  0  0  0
  -21.2530   -4.2340   26.0120 F   0  0  0  0  0  0  0  0  0  0  0  0
  -23.1070  -13.7870   21.1540 C   0  0  0  0  0  0  0  0  0  0  0  0
  -22.4200  -13.0740   22.0410 N   0  0  0  0  0  0  0  0  0  0  0  0
  -22.6540  -14.8330   20.6900 O   0  0  0  0  0  0  0  0  0  0  0  0
  -22.7990  -12.2260   22.4370 H   0  0  0  0  0  0  0  0  0  0  0  0
  -21.5020  -13.3810   22.3300 H   0  0  0  0  0  0  0  0  0  0  0  0
  -25.7050  -15.4450   20.2280 N   0  0  0  0  0  0  0  0  0  0  0  0
  -24.9480  -16.1000   20.3910 H   0  0  0  0  0  0  0  0  0  0  0  0
  -26.5300  -15.8820   19.8360 H   0  0  0  0  0  0  0  0  0  0  0  0
  -26.7130  -23.9210   20.7510 C   0  0  0  0  0  0  0  0  0  0  0  0
  -26.0960  -24.5540   21.9960 C   0  0  0  0  0  1  0  0  0  0  0  0
  -26.0110  -23.2110   20.0270 O   0  0  0  0  0  0  0  0  0  0  0  0
  -28.2530  -25.3950   19.3300 C   0  0  0  0  0  2  0  0  0  0  0  0
  -28.2030  -26.7880   19.7720 O   0  0  0  0  0  0  0  0  0  0  0  0
  -24.5540  -31.9020   23.1600 C   0  0  0  0  0  0  0  0  0  0  0  0
  -27.0380  -27.5480   19.7770 C   0  0  0  0  0  0  0  0  0  0  0  0
  -23.2750  -30.5740   21.5130 C   0  0  0  0  0  3  0  0  0  0  0  0
  -24.6590  -29.1030   19.9470 C   0  0  0  0  0  0  0  0  0  0  0  0
  -25.7940  -30.9270   21.2230 C   0  0  0  0  0  2  0  0  0  0  0  0
  -25.8450  -29.5820   20.5170 C   0  0  0  0  0  0  0  0  0  0  0  0
  -27.0320  -28.8080   20.4340 C   0  0  0  0  0  3  0  0  0  0  0  0
  -25.8390  -27.1190   19.1670 C   0  0  0  0  0  3  0  0  0  0  0  0
  -24.6550  -27.8750   19.2660 C   0  0  0  0  0  3  0  0  0  0  0  0
  -23.4190  -29.9580   20.0950 C   0  0  0  0  0  2  0  0  0  0  0  0
  -24.5620  -31.1480   22.0230 N   0  0  0  0  0  0  0  0  0  0  0  0
  -23.4970  -32.1530   23.7560 O   0  0  0  0  0  0  0  0  0  0  0  0
  -22.6620  -29.5140   22.4570 C   0  0  0  0  0  0  0  0  0  0  0  0
  -21.3380  -29.3120   22.3520 N   0  0  0  0  0  0  0  0  0  0  0  0
  -23.3740  -28.8790   23.2380 O   0  0  0  0  0  0  0  0  0  0  0  0
  -20.8240  -29.8820   21.6950 H   0  0  0  0  0  0  0  0  0  0  0  0
  -17.9970  -28.0360   22.8740 C   0  0  0  0  0  0  0  0  0  0  0  0
  -20.5540  -28.3340   23.1060 C   0  0  0  0  0  3  0  0  0  0  0  0
  -20.6720  -26.9250   22.4810 C   0  0  0  0  0  2  0  0  0  0  0  0
  -19.5570  -26.6140   21.4780 C   0  0  0  0  0  2  0  0  0  0  0  0
  -18.1840  -26.7120   22.1510 C   0  0  0  0  0  2  0  0  0  0  0  0
  -19.1080  -28.8050   23.3060 C   0  0  0  0  0  0  0  0  0  0  0  0
  -18.8780  -30.0450   23.9410 C   0  0  0  0  0  3  0  0  0  0  0  0
  -17.5690  -30.5180   24.1460 C   0  0  0  0  0  3  0  0  0  0  0  0
  -16.4700  -29.7430   23.7320 C   0  0  0  0  0  3  0  0  0  0  0  0
  -16.6850  -28.5040   23.1030 C   0  0  0  0  0  3  0  0  0  0  0  0
  -25.8660  -32.5060   23.7510 C   0  0  0  0  0  3  0  0  0  0  0  0
  -26.3950  -31.7240   25.0160 C   0  0  1  0  0  0  0  0  0  0  0  0
  -25.3230  -31.5020   26.1070 C   0  0  0  0  0  1  0  0  0  0  0  0
  -26.9490  -30.3390   24.6070 C   0  0  0  0  0  1  0  0  0  0  0  0
  -27.5750  -32.4980   25.6520 C   0  0  0  0  0  1  0  0  0  0  0  0
  -25.5940  -33.9100   24.0910 N   0  0  0  0  0  0  0  0  0  0  0  0
  -25.9290  -34.9570   23.3250 C   0  0  0  0  0  0  0  0  0  0  0  0
  -26.5680  -34.8390   22.2760 O   0  0  0  0  0  0  0  0  0  0  0  0
  -25.0240  -34.0750   24.9080 H   0  0  0  0  0  0  0  0  0  0  0  0
  -24.2340  -36.7880   23.0100 C   0  0  0  0  0  1  0  0  0  0  0  0
  -25.4830  -36.3550   23.7950 C   0  0  0  0  0  3  0  0  0  0  0  0
  -27.6490  -37.2010   24.5870 C   0  0  0  0  0  1  0  0  0  0  0  0
  -26.5370  -37.3850   23.6580 N   0  0  0  0  0  0  0  0  0  0  0  0
  -26.1560  -38.3160   23.7980 H   0  0  0  0  0  0  0  0  0  0  0  0
  1  7  1  0
  2  3  1  0
  4  5  1  0
  4  6  1  0
  5 57  1  6
  5 54  1  0
  5  2  1  0
  6  1  1  0
  6  3  1  0
  7  8  1  0
  7  9  1  0
 10 12  2  0
 10 11  1  0
 11 14  2  0
 12 15  1  0
 14 13  1  0
 14  1  1  0
 15 24  1  0
 15 13  2  0
 16 22  1  0
 16 24  1  0
 17 22  1  0
 18 19  1  0
 18 17  1  0
 20 19  1  0
 20 29  1  0
 20 21  1  0
 22 21  1  0
 23 16  2  0
 24 25  1  0
 26 27  2  0
 27 46  1  0
 28 27  1  0
 28 31  1  0
 29 30  1  0
 29 26  1  0
 30 28  2  0
 31 32  1  0
 32 33  2  0
 34 37  1  0
 34 33  1  0
 35 34  2  0
 36 35  1  0
 36 31  2  0
 37 38  1  0
 38 43  2  0
 38 39  1  0
 39 40  2  0
 40 41  1  0
 41 45  1  0
 42 41  2  0
 43 42  1  0
 44 43  1  0
 46 47  1  0
 47 50  1  0
 47 49  1  0
 48 46  2  0
 51 26  1  0
 51 52  1  0
 53 51  1  0
 54 55  1  0
 56 54  2  0
 57 58  1  0
 58 60  1  0
 59 70  2  0
 60 65  1  0
 61 69  1  0
 61 71  1  0
 62 68  1  0
 62 64  1  0
 63 69  1  0
 64 63  1  0
 65 64  2  0
 66 67  1  0
 66 60  2  0
 67 62  2  0
 68 61  1  0
 69 59  1  0
 71 73  2  0
 72 71  1  0
 74 72  1  0
 75 84  2  0
 75 80  1  0
 76 72  1  0
 76 80  1  0
 77 76  1  0
 78 79  1  0
 78 77  1  0
 79 75  1  0
 80 81  2  0
 81 82  1  0
 83 82  2  0
 84 83  1  0
 85 59  1  0
 85 90  1  0
 85 86  1  0
 86 89  1  1
 86 87  1  0
 88 86  1  0
 90 93  1  0
 91 95  1  0
 91 90  1  0
 92 91  2  0
 95 94  1  0
 97 95  1  0
 97 98  1  0
 97 96  1  0
M  ISO  4  16 100  24 100  57 101  58 101
M  END
>  <TORSDO>  (41) 
F 19

>  <SCORE>  (41) 
-14.255

>  <name>  (41) 
40

>  <ligand_id>  (41) 
40

>  <original_smiles>  (41) 
[H]c1c([H])c(C(N2C([H])([H])C([H])([H])C(C(=O)C([H])([H])[H])(C([H])([H])Oc3c([H])c([H])c4c(c3[H])C([H])([H])N(C(=O)C([H])(N([H])C(=O)C([H])(N([H])C([H])([H])[H])C([H])([H])[H])C(C([H])([H])[H])(C([H])([H])[H])C([H])([H])[H])C([H])(C(=O)N([H])C3([H])c5c([H])c([H])c([H])c([H])c5C([H])([H])C([H])([H])C3([H])[H])C4([H])[H])C2([H])[H])=[N+]([H])[H])c([H])c(N([H])C(=O)N2C([H])([H])C([H])([H])C([H])([H])C([H])(n3nc(-c4c([H])c([H])c(Oc5c([H])c([H])c(F)c([H])c5F)c([H])c4[H])c(C(=O)N([H])[H])c3N([H])[H])C2([H])[H])c1[H]

>  <smiles>  (41) 
[H]c1c([H])c(C(N2C([H])([H])C([H])([H])C(C(=O)C([H])([H])[H])(C([H])([H])Oc3c([H])c([H])c4c(c3[H])C([H])([H])N(C(=O)C([H])(N([H])C(=O)C([H])(N([H])C([H])([H])[H])C([H])([H])[H])C(C([H])([H])[H])(C([H])([H])[H])C([H])([H])[H])C([H])(C(=O)N([H])C3([H])c5c([H])c([H])c([H])c([H])c5C([H])([H])C([H])([H])C3([H])[H])C4([H])[H])C2([H])[H])=[N+]([H])[H])c([H])c(N([H])C(=O)N2C([H])([H])C([H])([H])C([H])([H])C([H])(n3nc(-c4c([H])c([H])c(Oc5c([H])c([H])c(F)c([H])c5F)c([H])c4[H])c(C(=O)N([H])[H])c3N([H])[H])C2([H])[H])c1[H]

$$$$
41:0:0
     RDKit          3D

106115  0  0  1  0  0  0  0  0999 V2000
  -28.9570  -19.5760   19.5010 C   0  0  0  0  0  3  0  0  0  0  0  0
  -30.5970  -18.3170   20.8180 C   0  0  0  0  0  3  0  0  0  0  0  0
  -28.7010  -17.1860   19.7950 C   0  0  0  0  0  3  0  0  0  0  0  0
  -30.1160  -19.5720   20.2990 C   0  0  0  0  0  0  0  0  0  0  0  0
  -28.2360  -18.4000   19.2600 C   0  0  0  0  0  0  0  0  0  0  0  0
  -29.8870  -17.0930   20.5600 C   0  0  0  0  0  0  0  0  0  0  0  0
  -30.6010  -23.4330   20.4870 C   0  0  0  0  0  0  0  0  0  0  0  0
  -30.8040  -20.8910   20.4140 C   0  0  0  0  0  3  0  0  0  0  0  0
  -28.6540  -23.6140   21.8690 C   0  0  0  0  0  2  0  0  0  0  0  0
  -28.8280  -22.1640   21.3720 C   0  0  0  0  0  2  0  0  0  0  0  0
  -29.6470  -24.5050   21.0910 C   0  0  1  0  0  0  0  0  0  0  0  0
  -30.4760  -25.3800   22.0600 C   0  0  0  0  0  1  0  0  0  0  0  0
  -30.1530  -22.0700   20.7320 N   0  0  0  0  0  0  0  0  0  0  0  0
  -32.1000  -20.9010   20.0960 N   0  0  0  0  0  0  0  0  0  0  0  0
  -31.6580  -23.7010   19.9050 O   0  0  0  0  0  0  0  0  0  0  0  0
  -32.5560  -20.0540   19.7960 H   0  0  0  0  0  0  0  0  0  0  0  0
  -32.5830  -21.7860   20.0150 H   0  0  0  0  0  0  0  0  0  0  0  0
  -28.9340  -25.4330   20.0180 C   0  0  0  0  0  2  0  0  0  0  0  0
  -28.7380  -26.8210   20.4320 O   0  0  0  0  0  0  0  0  0  0  0  0
  -24.5880  -31.8840   23.2800 C   0  0  0  0  0  0  0  0  0  0  0  0
  -27.5240  -27.5000   20.3200 C   0  0  0  0  0  0  0  0  0  0  0  0
  -23.5080  -30.4610   21.5700 C   0  0  0  0  0  3  0  0  0  0  0  0
  -25.0800  -28.9700   20.2100 C   0  0  0  0  0  0  0  0  0  0  0  0
  -26.0340  -30.8810   21.5070 C   0  0  0  0  0  2  0  0  0  0  0  0
  -26.1910  -29.5130   20.8640 C   0  0  0  0  0  0  0  0  0  0  0  0
  -27.4070  -28.7860   20.9140 C   0  0  0  0  0  3  0  0  0  0  0  0
  -26.3890  -26.9860   19.6460 C   0  0  0  0  0  3  0  0  0  0  0  0
  -25.1780  -27.7080   19.5980 C   0  0  0  0  0  3  0  0  0  0  0  0
  -23.8100  -29.7950   20.1980 C   0  0  0  0  0  2  0  0  0  0  0  0
  -24.7250  -31.0920   22.1780 N   0  0  0  0  0  0  0  0  0  0  0  0
  -23.4730  -32.1220   23.7660 O   0  0  0  0  0  0  0  0  0  0  0  0
  -22.8350  -29.4170   22.4910 C   0  0  0  0  0  0  0  0  0  0  0  0
  -21.5200  -29.2140   22.3080 N   0  0  0  0  0  0  0  0  0  0  0  0
  -23.4960  -28.7920   23.3240 O   0  0  0  0  0  0  0  0  0  0  0  0
  -21.0480  -29.7700   21.6100 H   0  0  0  0  0  0  0  0  0  0  0  0
  -18.1440  -27.9780   22.6810 C   0  0  0  0  0  0  0  0  0  0  0  0
  -20.6900  -28.2510   23.0320 C   0  0  0  0  0  3  0  0  0  0  0  0
  -20.8230  -26.8350   22.4240 C   0  0  0  0  0  2  0  0  0  0  0  0
  -19.7540  -26.5300   21.3700 C   0  0  0  0  0  2  0  0  0  0  0  0
  -18.3530  -26.6480   21.9770 C   0  0  0  0  0  2  0  0  0  0  0  0
  -19.2430  -28.7380   23.1620 C   0  0  0  0  0  0  0  0  0  0  0  0
  -18.9960  -29.9840   23.7780 C   0  0  0  0  0  3  0  0  0  0  0  0
  -17.6830  -30.4700   23.9190 C   0  0  0  0  0  3  0  0  0  0  0  0
  -16.5980  -29.7060   23.4550 C   0  0  0  0  0  3  0  0  0  0  0  0
  -16.8290  -28.4620   22.8420 C   0  0  0  0  0  3  0  0  0  0  0  0
  -25.8210  -32.5470   23.9700 C   0  0  0  0  0  3  0  0  0  0  0  0
  -25.4720  -33.9440   24.2560 N   0  0  0  0  0  0  0  0  0  0  0  0
  -25.8390  -34.9900   23.5020 C   0  0  0  0  0  0  0  0  0  0  0  0
  -26.5770  -34.8800   22.5200 O   0  0  0  0  0  0  0  0  0  0  0  0
  -24.8230  -34.1040   25.0130 H   0  0  0  0  0  0  0  0  0  0  0  0
  -24.1080  -36.7460   23.0100 C   0  0  0  0  0  1  0  0  0  0  0  0
  -25.3030  -36.3780   23.9020 C   0  0  0  0  0  3  0  0  0  0  0  0
  -27.3720  -37.3110   24.8390 C   0  0  0  0  0  1  0  0  0  0  0  0
  -26.3230  -37.4460   23.8310 N   0  0  0  0  0  0  0  0  0  0  0  0
  -25.8950  -38.3620   23.9410 H   0  0  0  0  0  0  0  0  0  0  0  0
  -26.2710  -31.8050   25.2890 C   0  0  1  0  0  0  0  0  0  0  0  0
  -25.1170  -31.5680   26.2920 C   0  0  0  0  0  1  0  0  0  0  0  0
  -26.8960  -30.4300   24.9550 C   0  0  0  0  0  1  0  0  0  0  0  0
  -27.3670  -32.6260   26.0060 C   0  0  0  0  0  1  0  0  0  0  0  0
  -30.8870  -14.7590   20.6130 C   0  0  0  0  0  0  0  0  0  0  0  0
  -30.6500  -12.5370   19.5290 C   0  0  0  0  0  2  0  0  0  0  0  0
  -29.7570  -12.6830   18.2770 C   0  0  0  0  0  2  0  0  0  0  0  0
  -28.2680  -12.5300   18.6450 C   0  0  0  0  0  2  0  0  0  0  0  0
  -27.8740  -13.4050   19.8590 C   0  0  0  0  0  3  0  0  0  0  0  0
  -28.8820  -13.2570   21.0230 C   0  0  0  0  0  2  0  0  0  0  0  0
  -30.2300  -13.5570   20.5100 N   0  0  0  0  0  0  0  0  0  0  0  0
  -32.0330  -14.9100   20.1830 O   0  0  0  0  0  0  0  0  0  0  0  0
  -30.1790  -15.7930   21.1490 N   0  0  0  0  0  0  0  0  0  0  0  0
  -29.3800  -15.4100   21.6300 H   0  0  0  0  0  0  0  0  0  0  0  0
  -25.4650  -14.0890   20.4690 C   0  0  0  0  0  0  0  0  0  0  0  0
  -24.3640  -13.3510   20.7970 C   0  0  0  0  0  0  0  0  0  0  0  0
  -24.7970  -11.9900   20.8080 C   0  0  0  0  0  0  0  0  0  0  0  0
  -26.4980  -13.1790   20.2880 N   0  0  0  0  0  0  0  0  0  0  0  0
  -26.0970  -11.9130   20.5570 N   0  0  0  0  0  0  0  0  0  0  0  0
  -24.0360  -10.7520   20.9870 C   0  0  0  0  0  0  0  0  0  0  0  0
  -24.4290   -9.7780   21.9310 C   0  0  0  0  0  3  0  0  0  0  0  0
  -23.6720   -8.6000   22.0960 C   0  0  0  0  0  3  0  0  0  0  0  0
  -22.5090   -8.3900   21.3180 C   0  0  0  0  0  0  0  0  0  0  0  0
  -22.1350   -9.3530   20.3630 C   0  0  0  0  0  3  0  0  0  0  0  0
  -22.8940  -10.5230   20.1970 C   0  0  0  0  0  3  0  0  0  0  0  0
  -21.7270   -7.2630   21.3910 O   0  0  0  0  0  0  0  0  0  0  0  0
  -21.6690   -6.5020   22.5310 C   0  0  0  0  0  0  0  0  0  0  0  0
  -21.2950   -7.0510   23.7760 C   0  0  0  0  0  3  0  0  0  0  0  0
  -21.1800   -6.2170   24.9060 C   0  0  0  0  0  3  0  0  0  0  0  0
  -21.4320   -4.8380   24.7940 C   0  0  0  0  0  0  0  0  0  0  0  0
  -21.8020   -4.2870   23.5530 C   0  0  0  0  0  3  0  0  0  0  0  0
  -21.9160   -5.1180   22.4250 C   0  0  0  0  0  0  0  0  0  0  0  0
  -22.2520   -4.5810   21.2260 F   0  0  0  0  0  0  0  0  0  0  0  0
  -21.3150   -4.0360   25.8770 F   0  0  0  0  0  0  0  0  0  0  0  0
  -22.9690  -13.8670   20.9970 C   0  0  0  0  0  0  0  0  0  0  0  0
  -22.1950  -13.2240   21.8620 N   0  0  0  0  0  0  0  0  0  0  0  0
  -22.5710  -14.8790   20.4220 O   0  0  0  0  0  0  0  0  0  0  0  0
  -22.5280  -12.4100   22.3580 H   0  0  0  0  0  0  0  0  0  0  0  0
  -21.2570  -13.5560   22.0380 H   0  0  0  0  0  0  0  0  0  0  0  0
  -25.6550  -15.4530   20.2930 N   0  0  0  0  0  0  0  0  0  0  0  0
  -24.8760  -16.0960   20.3680 H   0  0  0  0  0  0  0  0  0  0  0  0
  -26.5070  -15.8910   19.9910 H   0  0  0  0  0  0  0  0  0  0  0  0
  -26.9580  -18.4790   18.4320 C   0  0  0  0  0  2  0  0  0  0  0  0
  -26.0790  -19.6840   18.8430 C   0  0  0  0  0  2  0  0  0  0  0  0
  -25.8380  -20.8010   17.7800 C   0  0  2  0  0  0  0  0  0  0  0  0
  -28.0820  -22.0780   18.3400 C   0  0  0  0  0  1  0  0  0  0  0  0
  -27.1840  -21.4120   17.2820 C   0  0  0  0  0  2  0  0  0  0  0  0
  -24.8070  -23.2280   17.7220 C   0  0  0  0  0  1  0  0  0  0  0  0
  -24.9740  -21.8970   18.4760 C   0  0  0  0  0  2  0  0  0  0  0  0
  -23.7450  -19.5670   16.7750 C   0  0  0  0  0  1  0  0  0  0  0  0
  -25.1100  -20.2300   16.5300 C   0  0  0  0  0  2  0  0  0  0  0  0
  1  4  1  0
  3  6  2  0
  4  8  1  0
  4  2  2  0
  5  1  2  0
  5  3  1  0
  6  2  1  0
  6 68  1  0
  7 13  1  0
  7 11  1  0
  8 14  1  0
  8 13  1  0
 10  9  1  0
 11  9  1  0
 11 12  1  1
 13 10  1  0
 15  7  2  0
 16 14  1  0
 17 14  1  0
 18 19  1  0
 18 11  1  0
 20 31  2  0
 21 19  1  0
 21 26  1  0
 22 30  1  0
 22 32  1  0
 23 25  1  0
 24 30  1  0
 25 26  2  0
 25 24  1  0
 27 21  2  0
 28 27  1  0
 28 23  2  0
 29 23  1  0
 29 22  1  0
 30 20  1  0
 32 34  2  0
 33 32  1  0
 35 33  1  0
 36 45  2  0
 36 41  1  0
 37 33  1  0
 37 41  1  0
 38 37  1  0
 39 40  1  0
 39 38  1  0
 40 36  1  0
 41 42  2  0
 42 43  1  0
 44 43  2  0
 45 44  1  0
 46 20  1  0
 46 47  1  0
 46 56  1  0
 47 50  1  0
 48 52  1  0
 48 47  1  0
 49 48  2  0
 52 51  1  0
 54 52  1  0
 54 55  1  0
 54 53  1  0
 56 59  1  1
 56 57  1  0
 58 56  1  0
 60 68  1  0
 61 66  1  0
 62 63  1  0
 62 61  1  0
 64 63  1  0
 64 73  1  0
 64 65  1  0
 66 60  1  0
 66 65  1  0
 67 60  2  0
 68 69  1  0
 70 71  2  0
 71 72  1  0
 71 90  1  0
 72 75  1  0
 73 70  1  0
 73 74  1  0
 74 72  2  0
 75 76  1  0
 76 77  2  0
 78 81  1  0
 78 77  1  0
 79 78  2  0
 80 79  1  0
 80 75  2  0
 81 82  1  0
 82 83  1  0
 83 84  2  0
 85 84  1  0
 85 89  1  0
 86 85  2  0
 87 82  2  0
 87 86  1  0
 88 87  1  0
 90 91  1  0
 91 94  1  0
 91 93  1  0
 92 90  2  0
 95 96  1  0
 95 70  1  0
 97 95  1  0
 98 99  1  0
 98  5  1  0
100104  1  1
100 99  1  0
102100  1  0
102101  1  0
103104  1  0
106105  1  0
106100  1  0
M  ISO  4  18 101  19 101  60 100  68 100
M  END
>  <TORSDO>  (42) 
F 24

>  <SCORE>  (42) 
-11.309

>  <name>  (42) 
41

>  <ligand_id>  (42) 
41

>  <original_smiles>  (42) 
[H]c1c([H])c([H])c2c(c1[H])C([H])([H])C([H])([H])C([H])([H])C2([H])N([H])C(=O)C1([H])N(C(=O)C([H])(N([H])C(=O)C([H])(N([H])C([H])([H])[H])C([H])([H])[H])C(C([H])([H])[H])(C([H])([H])[H])C([H])([H])[H])C([H])([H])c2c([H])c(OC([H])([H])C3(C([H])([H])[H])C(=O)N(C(c4c([H])c(N([H])C(=O)N5C([H])([H])C([H])([H])C([H])([H])C([H])(n6nc(-c7c([H])c([H])c(Oc8c([H])c([H])c(F)c([H])c8F)c([H])c7[H])c(C(=O)N([H])[H])c6N([H])[H])C5([H])[H])c([H])c(C([H])([H])C([H])([H])C(C([H])([H])C([H])([H])[H])(C([H])([H])C([H])([H])[H])C([H])([H])C([H])([H])[H])c4[H])=[N+]([H])[H])C([H])([H])C3([H])[H])c([H])c([H])c2C1([H])[H]

>  <smiles>  (42) 
[H]c1c([H])c([H])c2c(c1[H])C([H])([H])C([H])([H])C([H])([H])C2([H])N([H])C(=O)C1([H])N(C(=O)C([H])(N([H])C(=O)C([H])(N([H])C([H])([H])[H])C([H])([H])[H])C(C([H])([H])[H])(C([H])([H])[H])C([H])([H])[H])C([H])([H])c2c([H])c(OC([H])([H])C3(C([H])([H])[H])C(=O)N(C(c4c([H])c(N([H])C(=O)N5C([H])([H])C([H])([H])C([H])([H])C([H])(n6nc(-c7c([H])c([H])c(Oc8c([H])c([H])c(F)c([H])c8F)c([H])c7[H])c(C(=O)N([H])[H])c6N([H])[H])C5([H])[H])c([H])c(C([H])([H])C([H])([H])C(C([H])([H])C([H])([H])[H])(C([H])([H])C([H])([H])[H])C([H])([H])C([H])([H])[H])c4[H])=[N+]([H])[H])C([H])([H])C3([H])[H])c([H])c([H])c2C1([H])[H]

$$$$
42:0:0
     RDKit          3D

 91 99  0  0  1  0  0  0  0  0999 V2000
  -29.1360  -22.3730   21.0430 C   0  0  0  0  0  2  0  0  0  0  0  0
  -30.0600  -23.9320   19.1470 C   0  0  0  0  0  1  0  0  0  0  0  0
  -30.2570  -24.5770   21.5400 C   0  0  0  0  0  1  0  0  0  0  0  0
  -29.3250  -23.9150   20.5000 C   0  0  2  0  0  0  0  0  0  0  0  0
  -28.0610  -24.9210   20.3760 C   0  0  0  0  0  2  0  0  0  0  0  0
  -28.2910  -26.4050   20.2390 O   0  0  0  0  0  0  0  0  0  0  0  0
  -24.6120  -31.8990   23.2230 C   0  0  0  0  0  0  0  0  0  0  0  0
  -27.1860  -27.2840   20.1890 C   0  0  0  0  0  0  0  0  0  0  0  0
  -23.3950  -30.5000   21.5940 C   0  0  0  0  0  3  0  0  0  0  0  0
  -24.8340  -28.9380   20.1650 C   0  0  0  0  0  0  0  0  0  0  0  0
  -25.9370  -30.8020   21.3960 C   0  0  0  0  0  2  0  0  0  0  0  0
  -26.0110  -29.4180   20.7550 C   0  0  0  0  0  0  0  0  0  0  0  0
  -27.1900  -28.6050   20.7520 C   0  0  0  0  0  3  0  0  0  0  0  0
  -25.9850  -26.8710   19.5700 C   0  0  0  0  0  3  0  0  0  0  0  0
  -24.8270  -27.6710   19.5610 C   0  0  0  0  0  3  0  0  0  0  0  0
  -23.6020  -29.8200   20.2140 C   0  0  0  0  0  2  0  0  0  0  0  0
  -24.6680  -31.0850   22.1270 N   0  0  0  0  0  0  0  0  0  0  0  0
  -23.5330  -32.1820   23.7610 O   0  0  0  0  0  0  0  0  0  0  0  0
  -22.7330  -29.4880   22.5620 C   0  0  0  0  0  0  0  0  0  0  0  0
  -21.4070  -29.3150   22.4420 N   0  0  0  0  0  0  0  0  0  0  0  0
  -23.4130  -28.8640   23.3790 O   0  0  0  0  0  0  0  0  0  0  0  0
  -20.9160  -29.8670   21.7530 H   0  0  0  0  0  0  0  0  0  0  0  0
  -18.0290  -28.1250   22.9590 C   0  0  0  0  0  0  0  0  0  0  0  0
  -20.5880  -28.3850   23.2230 C   0  0  0  0  0  3  0  0  0  0  0  0
  -20.6890  -26.9500   22.6560 C   0  0  0  0  0  2  0  0  0  0  0  0
  -19.5840  -26.6200   21.6480 C   0  0  0  0  0  2  0  0  0  0  0  0
  -18.2040  -26.7700   22.2920 C   0  0  0  0  0  2  0  0  0  0  0  0
  -19.1480  -28.8880   23.3820 C   0  0  0  0  0  0  0  0  0  0  0  0
  -18.9290  -30.1560   23.9650 C   0  0  0  0  0  3  0  0  0  0  0  0
  -17.6240  -30.6570   24.1310 C   0  0  0  0  0  3  0  0  0  0  0  0
  -16.5190  -29.8890   23.7240 C   0  0  0  0  0  3  0  0  0  0  0  0
  -16.7230  -28.6250   23.1420 C   0  0  0  0  0  3  0  0  0  0  0  0
  -25.9000  -32.5300   23.8350 C   0  0  0  0  0  3  0  0  0  0  0  0
  -26.4290  -31.7530   25.1030 C   0  0  1  0  0  0  0  0  0  0  0  0
  -25.3460  -31.5130   26.1800 C   0  0  0  0  0  1  0  0  0  0  0  0
  -27.0080  -30.3780   24.7000 C   0  0  0  0  0  1  0  0  0  0  0  0
  -27.5890  -32.5410   25.7540 C   0  0  0  0  0  1  0  0  0  0  0  0
  -25.5920  -33.9260   24.1770 N   0  0  0  0  0  0  0  0  0  0  0  0
  -25.9150  -34.9840   23.4220 C   0  0  0  0  0  0  0  0  0  0  0  0
  -26.5710  -34.8880   22.3820 O   0  0  0  0  0  0  0  0  0  0  0  0
  -25.0060  -34.0730   24.9860 H   0  0  0  0  0  0  0  0  0  0  0  0
  -24.1780  -36.7760   23.1090 C   0  0  0  0  0  1  0  0  0  0  0  0
  -25.4320  -36.3680   23.8980 C   0  0  0  0  0  3  0  0  0  0  0  0
  -27.5790  -37.2480   24.6990 C   0  0  0  0  0  1  0  0  0  0  0  0
  -26.4600  -37.4230   23.7770 N   0  0  0  0  0  0  0  0  0  0  0  0
  -26.0540  -38.3410   23.9430 H   0  0  0  0  0  0  0  0  0  0  0  0
  -28.9630  -21.0460   20.1620 C   0  0  0  0  0  0  0  0  0  0  0  0
  -28.2210  -21.1360   19.1820 O   0  0  0  0  0  0  0  0  0  0  0  0
  -29.1650  -18.3480   20.1820 C   0  0  0  0  0  3  0  0  0  0  0  0
  -30.7600  -19.5960   21.2900 C   0  0  0  0  0  3  0  0  0  0  0  0
  -29.6010  -19.7080   20.5570 C   0  0  0  0  0  0  0  0  0  0  0  0
  -29.9510  -17.2570   20.6060 C   0  0  0  0  0  0  0  0  0  0  0  0
  -31.3120  -17.9290   21.4820 S   0  0  0  0  0  0  0  0  0  0  0  0
  -30.5450  -14.7690   20.3570 C   0  0  0  0  0  0  0  0  0  0  0  0
  -30.3580  -12.4910   19.3300 C   0  0  0  0  0  2  0  0  0  0  0  0
  -29.4040  -12.5590   18.1160 C   0  0  0  0  0  2  0  0  0  0  0  0
  -27.9410  -12.3740   18.5600 C   0  0  0  0  0  2  0  0  0  0  0  0
  -27.5710  -13.2650   19.7770 C   0  0  0  0  0  3  0  0  0  0  0  0
  -28.6390  -13.1820   20.8890 C   0  0  0  0  0  2  0  0  0  0  0  0
  -29.9300  -13.5400   20.2840 N   0  0  0  0  0  0  0  0  0  0  0  0
  -31.7400  -14.8830   20.0610 O   0  0  0  0  0  0  0  0  0  0  0  0
  -29.7160  -15.8770   20.4820 N   0  0  0  0  0  0  0  0  0  0  0  0
  -28.7410  -15.6240   20.4880 H   0  0  0  0  0  0  0  0  0  0  0  0
  -25.1870  -13.8590   20.5210 C   0  0  0  0  0  0  0  0  0  0  0  0
  -24.1250  -13.0860   20.9000 C   0  0  0  0  0  0  0  0  0  0  0  0
  -24.5890  -11.7350   20.8690 C   0  0  0  0  0  0  0  0  0  0  0  0
  -26.2300  -12.9800   20.2790 N   0  0  0  0  0  0  0  0  0  0  0  0
  -25.8770  -11.6970   20.5530 N   0  0  0  0  0  0  0  0  0  0  0  0
  -23.8640  -10.4730   21.0670 C   0  0  0  0  0  0  0  0  0  0  0  0
  -24.3140   -9.4970   21.9840 C   0  0  0  0  0  3  0  0  0  0  0  0
  -23.5890   -8.3010   22.1680 C   0  0  0  0  0  3  0  0  0  0  0  0
  -22.3990   -8.0710   21.4360 C   0  0  0  0  0  0  0  0  0  0  0  0
  -21.9680   -9.0360   20.5070 C   0  0  0  0  0  3  0  0  0  0  0  0
  -22.6950  -10.2240   20.3210 C   0  0  0  0  0  3  0  0  0  0  0  0
  -21.6440   -6.9280   21.5320 O   0  0  0  0  0  0  0  0  0  0  0  0
  -21.6340   -6.1650   22.6720 C   0  0  0  0  0  0  0  0  0  0  0  0
  -21.2660   -6.7030   23.9250 C   0  0  0  0  0  3  0  0  0  0  0  0
  -21.1990   -5.8680   25.0580 C   0  0  0  0  0  3  0  0  0  0  0  0
  -21.4930   -4.4970   24.9400 C   0  0  0  0  0  0  0  0  0  0  0  0
  -21.8540   -3.9570   23.6930 C   0  0  0  0  0  3  0  0  0  0  0  0
  -21.9210   -4.7900   22.5620 C   0  0  0  0  0  0  0  0  0  0  0  0
  -22.2500   -4.2610   21.3590 F   0  0  0  0  0  0  0  0  0  0  0  0
  -21.4220   -3.6920   26.0280 F   0  0  0  0  0  0  0  0  0  0  0  0
  -22.7280  -13.5650   21.1770 C   0  0  0  0  0  0  0  0  0  0  0  0
  -22.0040  -12.8720   22.0480 N   0  0  0  0  0  0  0  0  0  0  0  0
  -22.2880  -14.5880   20.6550 O   0  0  0  0  0  0  0  0  0  0  0  0
  -22.3740  -12.0460   22.4960 H   0  0  0  0  0  0  0  0  0  0  0  0
  -21.0670  -13.1750   22.2740 H   0  0  0  0  0  0  0  0  0  0  0  0
  -25.3470  -15.2320   20.3390 N   0  0  0  0  0  0  0  0  0  0  0  0
  -24.5710  -15.8760   20.4420 H   0  0  0  0  0  0  0  0  0  0  0  0
  -26.1780  -15.6740   19.9660 H   0  0  0  0  0  0  0  0  0  0  0  0
  4  2  1  6
  4  1  1  0
  4  3  1  0
  5  4  1  0
  6  5  1  0
  7 18  2  0
  8  6  1  0
  8 13  1  0
  9 17  1  0
  9 19  1  0
 10 16  1  0
 10 12  1  0
 11 17  1  0
 12 11  1  0
 13 12  2  0
 14  8  2  0
 15 14  1  0
 15 10  2  0
 16  9  1  0
 17  7  1  0
 19 21  2  0
 20 19  1  0
 22 20  1  0
 23 32  2  0
 23 28  1  0
 24 20  1  0
 24 28  1  0
 25 24  1  0
 26 27  1  0
 26 25  1  0
 27 23  1  0
 28 29  2  0
 29 30  1  0
 31 30  2  0
 32 31  1  0
 33  7  1  0
 33 38  1  0
 33 34  1  0
 34 37  1  1
 34 35  1  0
 36 34  1  0
 38 41  1  0
 39 43  1  0
 39 38  1  0
 40 39  2  0
 43 42  1  0
 45 43  1  0
 45 46  1  0
 45 44  1  0
 47 51  1  0
 47  1  1  0
 48 47  2  0
 49 51  1  0
 49 52  2  0
 50 53  1  0
 51 50  2  0
 52 53  1  0
 54 62  1  0
 55 60  1  0
 56 57  1  0
 56 55  1  0
 58 57  1  0
 58 67  1  0
 58 59  1  0
 60 54  1  0
 60 59  1  0
 61 54  2  0
 62 63  1  0
 62 52  1  0
 64 65  2  0
 65 84  1  0
 66 65  1  0
 66 69  1  0
 67 64  1  0
 67 68  1  0
 68 66  2  0
 69 70  1  0
 70 71  2  0
 72 75  1  0
 72 71  1  0
 73 72  2  0
 74 73  1  0
 74 69  2  0
 75 76  1  0
 76 77  1  0
 77 78  2  0
 79 78  1  0
 79 83  1  0
 80 79  2  0
 81 76  2  0
 81 80  1  0
 82 81  1  0
 84 85  1  0
 85 88  1  0
 85 87  1  0
 86 84  2  0
 89 90  1  0
 89 64  1  0
 91 89  1  0
M  ISO  4   5 101   6 101  54 100  62 100
M  END
>  <TORSDO>  (43) 
F 20

>  <SCORE>  (43) 
-14.075

>  <name>  (43) 
42

>  <ligand_id>  (43) 
42

>  <original_smiles>  (43) 
[H]c1sc(N([H])C(=O)N2C([H])([H])C([H])([H])C([H])([H])C([H])(n3nc(-c4c([H])c([H])c(Oc5c([H])c([H])c(F)c([H])c5F)c([H])c4[H])c(C(=O)N([H])[H])c3N([H])[H])C2([H])[H])c([H])c1C(=O)C([H])([H])C(C([H])([H])[H])(C([H])([H])[H])C([H])([H])Oc1c([H])c([H])c2c(c1[H])C([H])([H])N(C(=O)C([H])(N([H])C(=O)C([H])(N([H])C([H])([H])[H])C([H])([H])[H])C(C([H])([H])[H])(C([H])([H])[H])C([H])([H])[H])C([H])(C(=O)N([H])C1([H])c3c([H])c([H])c([H])c([H])c3C([H])([H])C([H])([H])C1([H])[H])C2([H])[H]

>  <smiles>  (43) 
[H]c1sc(N([H])C(=O)N2C([H])([H])C([H])([H])C([H])([H])C([H])(n3nc(-c4c([H])c([H])c(Oc5c([H])c([H])c(F)c([H])c5F)c([H])c4[H])c(C(=O)N([H])[H])c3N([H])[H])C2([H])[H])c([H])c1C(=O)C([H])([H])C(C([H])([H])[H])(C([H])([H])[H])C([H])([H])Oc1c([H])c([H])c2c(c1[H])C([H])([H])N(C(=O)C([H])(N([H])C(=O)C([H])(N([H])C([H])([H])[H])C([H])([H])[H])C(C([H])([H])[H])(C([H])([H])[H])C([H])([H])[H])C([H])(C(=O)N([H])C1([H])c3c([H])c([H])c([H])c([H])c3C([H])([H])C([H])([H])C1([H])[H])C2([H])[H]

$$$$
43:0:0
     RDKit          3D

 93102  0  0  1  0  0  0  0  0999 V2000
  -28.6810  -22.7760   21.6070 C   0  0  0  0  0  2  0  0  0  0  0  0
  -29.0640  -23.3510   19.2080 C   0  0  0  0  0  2  0  0  0  0  0  0
  -29.3560  -21.3890   21.2850 C   0  0  0  0  0  2  0  0  0  0  0  0
  -28.4600  -21.9150   19.0380 C   0  0  0  0  0  2  0  0  0  0  0  0
  -29.0340  -23.9680   20.6410 C   0  0  2  0  0  0  0  0  0  0  0  0
  -30.4320  -24.5060   21.0090 C   0  0  0  0  0  1  0  0  0  0  0  0
  -29.0230  -20.8780   19.9450 N   0  0  0  0  0  0  0  0  0  0  0  0
  -28.8290  -17.7980   17.7650 C   0  0  0  0  0  3  0  0  0  0  0  0
  -28.7540  -19.1150   18.2400 C   0  0  0  0  0  3  0  0  0  0  0  0
  -29.2250  -16.7550   18.6080 C   0  0  0  0  0  3  0  0  0  0  0  0
  -29.4840  -18.3670   20.4260 C   0  0  0  0  0  3  0  0  0  0  0  0
  -29.0970  -19.4750   19.5700 C   0  0  0  0  0  0  0  0  0  0  0  0
  -29.5530  -16.9950   19.9570 C   0  0  0  0  0  0  0  0  0  0  0  0
  -30.5630  -14.7230   20.4260 C   0  0  0  0  0  0  0  0  0  0  0  0
  -30.3590  -12.4790   19.3890 C   0  0  0  0  0  2  0  0  0  0  0  0
  -29.4280  -12.5920   18.1610 C   0  0  0  0  0  2  0  0  0  0  0  0
  -27.9520  -12.4440   18.5770 C   0  0  0  0  0  2  0  0  0  0  0  0
  -27.5810  -13.3000   19.8180 C   0  0  0  0  0  3  0  0  0  0  0  0
  -28.6320  -13.1660   20.9420 C   0  0  0  0  0  2  0  0  0  0  0  0
  -29.9430  -13.5030   20.3720 N   0  0  0  0  0  0  0  0  0  0  0  0
  -31.7180  -14.8700   20.0190 O   0  0  0  0  0  0  0  0  0  0  0  0
  -29.8080  -15.8150   20.7840 N   0  0  0  0  0  0  0  0  0  0  0  0
  -29.0330  -15.5760   21.3860 H   0  0  0  0  0  0  0  0  0  0  0  0
  -25.1760  -13.8690   20.5220 C   0  0  0  0  0  0  0  0  0  0  0  0
  -24.1170  -13.0850   20.8870 C   0  0  0  0  0  0  0  0  0  0  0  0
  -24.5940  -11.7380   20.8630 C   0  0  0  0  0  0  0  0  0  0  0  0
  -26.2320  -13.0010   20.2940 N   0  0  0  0  0  0  0  0  0  0  0  0
  -25.8870  -11.7140   20.5590 N   0  0  0  0  0  0  0  0  0  0  0  0
  -23.8810  -10.4680   21.0520 C   0  0  0  0  0  0  0  0  0  0  0  0
  -24.3220   -9.5060   21.9870 C   0  0  0  0  0  3  0  0  0  0  0  0
  -23.6090   -8.3010   22.1670 C   0  0  0  0  0  3  0  0  0  0  0  0
  -22.4410   -8.0500   21.4080 C   0  0  0  0  0  0  0  0  0  0  0  0
  -22.0180   -8.9990   20.4620 C   0  0  0  0  0  3  0  0  0  0  0  0
  -22.7330  -10.1960   20.2820 C   0  0  0  0  0  3  0  0  0  0  0  0
  -21.7010   -6.8940   21.4930 O   0  0  0  0  0  0  0  0  0  0  0  0
  -21.6600   -6.1510   22.6450 C   0  0  0  0  0  0  0  0  0  0  0  0
  -21.2130   -6.6950   23.8690 C   0  0  0  0  0  3  0  0  0  0  0  0
  -21.1170   -5.8760   25.0120 C   0  0  0  0  0  3  0  0  0  0  0  0
  -21.4600   -4.5140   24.9320 C   0  0  0  0  0  0  0  0  0  0  0  0
  -21.9020   -3.9680   23.7140 C   0  0  0  0  0  3  0  0  0  0  0  0
  -21.9960   -4.7840   22.5740 C   0  0  0  0  0  0  0  0  0  0  0  0
  -22.4010   -4.2480   21.3960 F   0  0  0  0  0  0  0  0  0  0  0  0
  -21.3630   -3.7240   26.0280 F   0  0  0  0  0  0  0  0  0  0  0  0
  -22.7110  -13.5450   21.1500 C   0  0  0  0  0  0  0  0  0  0  0  0
  -21.9870  -12.8420   22.0120 N   0  0  0  0  0  0  0  0  0  0  0  0
  -22.2650  -14.5670   20.6300 O   0  0  0  0  0  0  0  0  0  0  0  0
  -22.3610  -12.0170   22.4590 H   0  0  0  0  0  0  0  0  0  0  0  0
  -21.0440  -13.1320   22.2290 H   0  0  0  0  0  0  0  0  0  0  0  0
  -25.3270  -15.2410   20.3420 N   0  0  0  0  0  0  0  0  0  0  0  0
  -24.5540  -15.8910   20.4440 H   0  0  0  0  0  0  0  0  0  0  0  0
  -26.1700  -15.6830   19.9990 H   0  0  0  0  0  0  0  0  0  0  0  0
  -27.9990  -25.1750   20.7970 C   0  0  0  0  0  2  0  0  0  0  0  0
  -28.2940  -26.5340   20.2830 O   0  0  0  0  0  0  0  0  0  0  0  0
  -24.6100  -31.9770   23.2600 C   0  0  0  0  0  0  0  0  0  0  0  0
  -27.1980  -27.4040   20.2280 C   0  0  0  0  0  0  0  0  0  0  0  0
  -23.4000  -30.5720   21.6280 C   0  0  0  0  0  3  0  0  0  0  0  0
  -24.8450  -29.0160   20.2070 C   0  0  0  0  0  0  0  0  0  0  0  0
  -25.9370  -30.8860   21.4420 C   0  0  0  0  0  2  0  0  0  0  0  0
  -26.0150  -29.5050   20.8040 C   0  0  0  0  0  0  0  0  0  0  0  0
  -27.1990  -28.7100   20.8060 C   0  0  0  0  0  3  0  0  0  0  0  0
  -26.0150  -26.9760   19.5880 C   0  0  0  0  0  3  0  0  0  0  0  0
  -24.8460  -27.7570   19.5890 C   0  0  0  0  0  3  0  0  0  0  0  0
  -23.6110  -29.8920   20.2510 C   0  0  0  0  0  2  0  0  0  0  0  0
  -24.6680  -31.1630   22.1670 N   0  0  0  0  0  0  0  0  0  0  0  0
  -23.5280  -32.2620   23.7950 O   0  0  0  0  0  0  0  0  0  0  0  0
  -22.7370  -29.5610   22.5940 C   0  0  0  0  0  0  0  0  0  0  0  0
  -21.4110  -29.3840   22.4670 N   0  0  0  0  0  0  0  0  0  0  0  0
  -23.4140  -28.9400   23.4160 O   0  0  0  0  0  0  0  0  0  0  0  0
  -20.9220  -29.9400   21.7790 H   0  0  0  0  0  0  0  0  0  0  0  0
  -18.0330  -28.1960   22.9690 C   0  0  0  0  0  0  0  0  0  0  0  0
  -20.5900  -28.4530   23.2430 C   0  0  0  0  0  3  0  0  0  0  0  0
  -20.6900  -27.0170   22.6780 C   0  0  0  0  0  2  0  0  0  0  0  0
  -19.5910  -26.6880   21.6630 C   0  0  0  0  0  2  0  0  0  0  0  0
  -18.2090  -26.8400   22.3040 C   0  0  0  0  0  2  0  0  0  0  0  0
  -19.1510  -28.9590   23.3950 C   0  0  0  0  0  0  0  0  0  0  0  0
  -18.9330  -30.2280   23.9760 C   0  0  0  0  0  3  0  0  0  0  0  0
  -17.6280  -30.7320   24.1360 C   0  0  0  0  0  3  0  0  0  0  0  0
  -16.5240  -29.9640   23.7280 C   0  0  0  0  0  3  0  0  0  0  0  0
  -16.7260  -28.6980   23.1490 C   0  0  0  0  0  3  0  0  0  0  0  0
  -25.8960  -32.6100   23.8770 C   0  0  0  0  0  3  0  0  0  0  0  0
  -25.5910  -34.0100   24.2050 N   0  0  0  0  0  0  0  0  0  0  0  0
  -25.9200  -35.0590   23.4400 C   0  0  0  0  0  0  0  0  0  0  0  0
  -26.5820  -34.9500   22.4050 O   0  0  0  0  0  0  0  0  0  0  0  0
  -25.0060  -34.1700   25.0130 H   0  0  0  0  0  0  0  0  0  0  0  0
  -24.1980  -36.8560   23.0860 C   0  0  0  0  0  1  0  0  0  0  0  0
  -25.4390  -36.4500   23.8960 C   0  0  0  0  0  3  0  0  0  0  0  0
  -27.5750  -37.3290   24.7270 C   0  0  0  0  0  1  0  0  0  0  0  0
  -26.4740  -37.4990   23.7820 N   0  0  0  0  0  0  0  0  0  0  0  0
  -26.0710  -38.4200   23.9300 H   0  0  0  0  0  0  0  0  0  0  0  0
  -26.4160  -31.8410   25.1540 C   0  0  1  0  0  0  0  0  0  0  0  0
  -25.3250  -31.6050   26.2250 C   0  0  0  0  0  1  0  0  0  0  0  0
  -26.9970  -30.4640   24.7610 C   0  0  0  0  0  1  0  0  0  0  0  0
  -27.5710  -32.6340   25.8090 C   0  0  0  0  0  1  0  0  0  0  0  0
  2  5  1  0
  3  1  1  0
  4  2  1  0
  4  7  1  0
  5 52  1  0
  5  6  1  1
  5  1  1  0
  7  3  1  0
  8  9  2  0
  8 10  1  0
  9 12  1  0
 10 13  2  0
 12  7  1  0
 12 11  2  0
 13 11  1  0
 13 22  1  0
 14 22  1  0
 15 20  1  0
 16 17  1  0
 16 15  1  0
 18 17  1  0
 18 27  1  0
 18 19  1  0
 20 14  1  0
 20 19  1  0
 21 14  2  0
 22 23  1  0
 24 25  2  0
 25 44  1  0
 26 25  1  0
 26 29  1  0
 27 24  1  0
 27 28  1  0
 28 26  2  0
 29 30  1  0
 30 31  2  0
 32 35  1  0
 32 31  1  0
 33 32  2  0
 34 33  1  0
 34 29  2  0
 35 36  1  0
 36 37  1  0
 37 38  2  0
 39 38  1  0
 39 43  1  0
 40 39  2  0
 41 36  2  0
 41 40  1  0
 42 41  1  0
 44 45  1  0
 45 48  1  0
 45 47  1  0
 46 44  2  0
 49 50  1  0
 49 24  1  0
 51 49  1  0
 53 52  1  0
 54 65  2  0
 55 53  1  0
 55 60  1  0
 56 64  1  0
 56 66  1  0
 57 63  1  0
 57 59  1  0
 58 64  1  0
 59 60  2  0
 59 58  1  0
 61 62  1  0
 61 55  2  0
 62 57  2  0
 63 56  1  0
 64 54  1  0
 66 68  2  0
 67 66  1  0
 69 67  1  0
 70 79  2  0
 70 75  1  0
 71 67  1  0
 71 75  1  0
 72 71  1  0
 73 74  1  0
 73 72  1  0
 74 70  1  0
 75 76  2  0
 76 77  1  0
 78 77  2  0
 79 78  1  0
 80 54  1  0
 80 81  1  0
 80 90  1  0
 81 84  1  0
 82 86  1  0
 82 81  1  0
 83 82  2  0
 86 85  1  0
 88 86  1  0
 88 89  1  0
 88 87  1  0
 90 93  1  1
 90 91  1  0
 92 90  1  0
M  ISO  4  14 100  22 100  52 101  53 101
M  END
>  <TORSDO>  (44) 
F 18

>  <SCORE>  (44) 
-14.670

>  <name>  (44) 
43

>  <ligand_id>  (44) 
43

>  <original_smiles>  (44) 
[H]c1c([H])c(N([H])C(=O)N2C([H])([H])C([H])([H])C([H])([H])C([H])(n3nc(-c4c([H])c([H])c(Oc5c([H])c([H])c(F)c([H])c5F)c([H])c4[H])c(C(=O)N([H])[H])c3N([H])[H])C2([H])[H])c([H])c(N2C([H])([H])C([H])([H])C(C([H])([H])[H])(C([H])([H])Oc3c([H])c([H])c4c(c3[H])C([H])([H])N(C(=O)C([H])(N([H])C(=O)C([H])(N([H])C([H])([H])[H])C([H])([H])[H])C(C([H])([H])[H])(C([H])([H])[H])C([H])([H])[H])C([H])(C(=O)N([H])C3([H])c5c([H])c([H])c([H])c([H])c5C([H])([H])C([H])([H])C3([H])[H])C4([H])[H])C([H])([H])C2([H])[H])c1[H]

>  <smiles>  (44) 
[H]c1c([H])c(N([H])C(=O)N2C([H])([H])C([H])([H])C([H])([H])C([H])(n3nc(-c4c([H])c([H])c(Oc5c([H])c([H])c(F)c([H])c5F)c([H])c4[H])c(C(=O)N([H])[H])c3N([H])[H])C2([H])[H])c([H])c(N2C([H])([H])C([H])([H])C(C([H])([H])[H])(C([H])([H])Oc3c([H])c([H])c4c(c3[H])C([H])([H])N(C(=O)C([H])(N([H])C(=O)C([H])(N([H])C([H])([H])[H])C([H])([H])[H])C(C([H])([H])[H])(C([H])([H])[H])C([H])([H])[H])C([H])(C(=O)N([H])C3([H])c5c([H])c([H])c([H])c([H])c5C([H])([H])C([H])([H])C3([H])[H])C4([H])[H])C([H])([H])C2([H])[H])c1[H]

$$$$
44:0:0
     RDKit          3D

 91100  0  0  1  0  0  0  0  0999 V2000
  -29.6100  -21.8110   18.8140 C   0  0  0  0  0  2  0  0  0  0  0  0
  -29.0930  -23.2740   18.8420 C   0  0  0  0  0  2  0  0  0  0  0  0
  -28.9230  -22.3330   21.0510 C   0  0  0  0  0  2  0  0  0  0  0  0
  -29.0120  -21.0980   20.0390 C   0  0  0  0  0  3  0  0  0  0  0  0
  -29.1250  -23.7540   20.3100 C   0  0  1  0  0  0  0  0  0  0  0  0
  -30.5290  -24.2830   20.6610 C   0  0  0  0  0  1  0  0  0  0  0  0
  -29.1690  -18.3510   20.3240 C   0  0  0  0  0  3  0  0  0  0  0  0
  -31.0560  -19.6180   20.7000 C   0  0  0  0  0  3  0  0  0  0  0  0
  -29.7230  -19.7170   20.3830 C   0  0  0  0  0  0  0  0  0  0  0  0
  -30.0440  -17.2640   20.5360 C   0  0  0  0  0  0  0  0  0  0  0  0
  -31.6230  -17.9570   20.8540 S   0  0  0  0  0  0  0  0  0  0  0  0
  -30.5960  -14.7650   20.3820 C   0  0  0  0  0  0  0  0  0  0  0  0
  -30.4130  -12.4840   19.3740 C   0  0  0  0  0  2  0  0  0  0  0  0
  -29.4790  -12.5510   18.1460 C   0  0  0  0  0  2  0  0  0  0  0  0
  -28.0090  -12.3730   18.5720 C   0  0  0  0  0  2  0  0  0  0  0  0
  -27.6240  -13.2660   19.7820 C   0  0  0  0  0  3  0  0  0  0  0  0
  -28.6780  -13.1840   20.9060 C   0  0  0  0  0  2  0  0  0  0  0  0
  -29.9780  -13.5370   20.3190 N   0  0  0  0  0  0  0  0  0  0  0  0
  -31.7900  -14.8650   20.0830 O   0  0  0  0  0  0  0  0  0  0  0  0
  -29.7830  -15.8810   20.5430 N   0  0  0  0  0  0  0  0  0  0  0  0
  -28.8080  -15.6400   20.6370 H   0  0  0  0  0  0  0  0  0  0  0  0
  -25.2360  -13.8520   20.5100 C   0  0  0  0  0  0  0  0  0  0  0  0
  -24.1730  -13.0720   20.8770 C   0  0  0  0  0  0  0  0  0  0  0  0
  -24.6400  -11.7230   20.8440 C   0  0  0  0  0  0  0  0  0  0  0  0
  -26.2810  -12.9740   20.2700 N   0  0  0  0  0  0  0  0  0  0  0  0
  -25.9330  -11.6900   20.5390 N   0  0  0  0  0  0  0  0  0  0  0  0
  -23.9180  -10.4570   21.0260 C   0  0  0  0  0  0  0  0  0  0  0  0
  -24.3430   -9.4940   21.9660 C   0  0  0  0  0  3  0  0  0  0  0  0
  -23.6200   -8.2920   22.1370 C   0  0  0  0  0  3  0  0  0  0  0  0
  -22.4600   -8.0460   21.3660 C   0  0  0  0  0  0  0  0  0  0  0  0
  -22.0550   -9.0000   20.4140 C   0  0  0  0  0  3  0  0  0  0  0  0
  -22.7770  -10.1920   20.2420 C   0  0  0  0  0  3  0  0  0  0  0  0
  -21.7100   -6.8970   21.4460 O   0  0  0  0  0  0  0  0  0  0  0  0
  -21.6410   -6.1620   22.6030 C   0  0  0  0  0  0  0  0  0  0  0  0
  -21.1650   -6.7180   23.8110 C   0  0  0  0  0  3  0  0  0  0  0  0
  -21.0430   -5.9080   24.9580 C   0  0  0  0  0  3  0  0  0  0  0  0
  -21.3880   -4.5440   24.8970 C   0  0  0  0  0  0  0  0  0  0  0  0
  -21.8570   -3.9880   23.6940 C   0  0  0  0  0  3  0  0  0  0  0  0
  -21.9800   -4.7960   22.5500 C   0  0  0  0  0  0  0  0  0  0  0  0
  -22.4120   -4.2490   21.3870 F   0  0  0  0  0  0  0  0  0  0  0  0
  -21.2650   -3.7650   25.9960 F   0  0  0  0  0  0  0  0  0  0  0  0
  -22.7710  -13.5420   21.1450 C   0  0  0  0  0  0  0  0  0  0  0  0
  -22.0410  -12.8400   22.0040 N   0  0  0  0  0  0  0  0  0  0  0  0
  -22.3320  -14.5670   20.6250 O   0  0  0  0  0  0  0  0  0  0  0  0
  -22.4080  -12.0100   22.4470 H   0  0  0  0  0  0  0  0  0  0  0  0
  -21.1030  -13.1410   22.2290 H   0  0  0  0  0  0  0  0  0  0  0  0
  -25.3950  -15.2230   20.3340 N   0  0  0  0  0  0  0  0  0  0  0  0
  -24.6190  -15.8700   20.4230 H   0  0  0  0  0  0  0  0  0  0  0  0
  -26.2230  -15.6570   19.9480 H   0  0  0  0  0  0  0  0  0  0  0  0
  -28.0710  -24.9570   20.6110 C   0  0  0  0  0  2  0  0  0  0  0  0
  -28.3220  -26.3970   20.2410 O   0  0  0  0  0  0  0  0  0  0  0  0
  -24.6230  -31.8960   23.2480 C   0  0  0  0  0  0  0  0  0  0  0  0
  -27.2250  -27.2900   20.2100 C   0  0  0  0  0  0  0  0  0  0  0  0
  -23.4210  -30.4980   21.6100 C   0  0  0  0  0  3  0  0  0  0  0  0
  -24.8720  -28.9390   20.1870 C   0  0  0  0  0  0  0  0  0  0  0  0
  -25.9650  -30.8000   21.4330 C   0  0  0  0  0  2  0  0  0  0  0  0
  -26.0430  -29.4150   20.7890 C   0  0  0  0  0  0  0  0  0  0  0  0
  -27.2230  -28.6040   20.7880 C   0  0  0  0  0  3  0  0  0  0  0  0
  -26.0330  -26.8880   19.5660 C   0  0  0  0  0  3  0  0  0  0  0  0
  -24.8720  -27.6830   19.5630 C   0  0  0  0  0  3  0  0  0  0  0  0
  -23.6380  -29.8210   20.2310 C   0  0  0  0  0  2  0  0  0  0  0  0
  -24.6880  -31.0830   22.1530 N   0  0  0  0  0  0  0  0  0  0  0  0
  -23.5390  -32.1780   23.7800 O   0  0  0  0  0  0  0  0  0  0  0  0
  -22.7530  -29.4840   22.5710 C   0  0  0  0  0  0  0  0  0  0  0  0
  -21.4270  -29.3110   22.4410 N   0  0  0  0  0  0  0  0  0  0  0  0
  -23.4280  -28.8580   23.3910 O   0  0  0  0  0  0  0  0  0  0  0  0
  -20.9410  -29.8680   21.7510 H   0  0  0  0  0  0  0  0  0  0  0  0
  -18.0420  -28.1320   22.9490 C   0  0  0  0  0  0  0  0  0  0  0  0
  -20.6030  -28.3770   23.2140 C   0  0  0  0  0  3  0  0  0  0  0  0
  -20.6950  -26.9460   22.6330 C   0  0  0  0  0  2  0  0  0  0  0  0
  -19.5890  -26.6320   21.6220 C   0  0  0  0  0  2  0  0  0  0  0  0
  -18.2100  -26.7830   22.2700 C   0  0  0  0  0  2  0  0  0  0  0  0
  -19.1660  -28.8870   23.3770 C   0  0  0  0  0  0  0  0  0  0  0  0
  -18.9560  -30.1510   23.9720 C   0  0  0  0  0  3  0  0  0  0  0  0
  -17.6540  -30.6570   24.1440 C   0  0  0  0  0  3  0  0  0  0  0  0
  -16.5440  -29.8990   23.7330 C   0  0  0  0  0  3  0  0  0  0  0  0
  -16.7400  -28.6390   23.1400 C   0  0  0  0  0  3  0  0  0  0  0  0
  -25.9050  -32.5280   23.8730 C   0  0  0  0  0  3  0  0  0  0  0  0
  -25.5990  -33.9300   24.1930 N   0  0  0  0  0  0  0  0  0  0  0  0
  -25.9340  -34.9780   23.4280 C   0  0  0  0  0  0  0  0  0  0  0  0
  -26.6010  -34.8660   22.3970 O   0  0  0  0  0  0  0  0  0  0  0  0
  -25.0060  -34.0910   24.9930 H   0  0  0  0  0  0  0  0  0  0  0  0
  -24.2150  -36.7790   23.0630 C   0  0  0  0  0  1  0  0  0  0  0  0
  -25.4520  -36.3710   23.8780 C   0  0  0  0  0  3  0  0  0  0  0  0
  -27.5880  -37.2520   24.7110 C   0  0  0  0  0  1  0  0  0  0  0  0
  -26.4910  -37.4190   23.7630 N   0  0  0  0  0  0  0  0  0  0  0  0
  -26.0870  -38.3420   23.9030 H   0  0  0  0  0  0  0  0  0  0  0  0
  -26.4120  -31.7640   25.1580 C   0  0  1  0  0  0  0  0  0  0  0  0
  -25.3120  -31.5390   26.2210 C   0  0  0  0  0  1  0  0  0  0  0  0
  -26.9910  -30.3820   24.7790 C   0  0  0  0  0  1  0  0  0  0  0  0
  -27.5620  -32.5600   25.8190 C   0  0  0  0  0  1  0  0  0  0  0  0
  1  2  1  0
  1  4  1  0
  2  5  1  0
  4  9  1  0
  4  3  1  0
  5 50  1  0
  5  6  1  1
  5  3  1  0
  7  9  1  0
  7 10  2  0
  8 11  1  0
  9  8  2  0
 10 20  1  0
 10 11  1  0
 12 20  1  0
 13 18  1  0
 14 15  1  0
 14 13  1  0
 16 15  1  0
 16 25  1  0
 16 17  1  0
 18 12  1  0
 18 17  1  0
 19 12  2  0
 20 21  1  0
 22 23  2  0
 23 42  1  0
 24 23  1  0
 24 27  1  0
 25 22  1  0
 25 26  1  0
 26 24  2  0
 27 28  1  0
 28 29  2  0
 30 33  1  0
 30 29  1  0
 31 30  2  0
 32 31  1  0
 32 27  2  0
 33 34  1  0
 34 35  1  0
 35 36  2  0
 37 36  1  0
 37 41  1  0
 38 37  2  0
 39 34  2  0
 39 38  1  0
 40 39  1  0
 42 43  1  0
 43 46  1  0
 43 45  1  0
 44 42  2  0
 47 48  1  0
 47 22  1  0
 49 47  1  0
 51 50  1  0
 52 63  2  0
 53 51  1  0
 53 58  1  0
 54 62  1  0
 54 64  1  0
 55 61  1  0
 55 57  1  0
 56 62  1  0
 57 56  1  0
 58 57  2  0
 59 53  2  0
 60 59  1  0
 60 55  2  0
 61 54  1  0
 62 52  1  0
 64 66  2  0
 65 64  1  0
 67 65  1  0
 68 77  2  0
 68 73  1  0
 69 65  1  0
 69 73  1  0
 70 69  1  0
 71 72  1  0
 71 70  1  0
 72 68  1  0
 73 74  2  0
 74 75  1  0
 76 75  2  0
 77 76  1  0
 78 52  1  0
 78 79  1  0
 78 88  1  0
 79 82  1  0
 80 84  1  0
 80 79  1  0
 81 80  2  0
 84 83  1  0
 86 84  1  0
 86 87  1  0
 86 85  1  0
 88 91  1  1
 88 89  1  0
 90 88  1  0
M  ISO  4  12 100  20 100  50 101  51 101
M  END
>  <TORSDO>  (45) 
F 18

>  <SCORE>  (45) 
-14.806

>  <name>  (45) 
44

>  <ligand_id>  (45) 
44

>  <original_smiles>  (45) 
[H]c1sc(N([H])C(=O)N2C([H])([H])C([H])([H])C([H])([H])C([H])(n3nc(-c4c([H])c([H])c(Oc5c([H])c([H])c(F)c([H])c5F)c([H])c4[H])c(C(=O)N([H])[H])c3N([H])[H])C2([H])[H])c([H])c1C1([H])C([H])([H])C([H])([H])C(C([H])([H])[H])(C([H])([H])Oc2c([H])c([H])c3c(c2[H])C([H])([H])N(C(=O)C([H])(N([H])C(=O)C([H])(N([H])C([H])([H])[H])C([H])([H])[H])C(C([H])([H])[H])(C([H])([H])[H])C([H])([H])[H])C([H])(C(=O)N([H])C2([H])c4c([H])c([H])c([H])c([H])c4C([H])([H])C([H])([H])C2([H])[H])C3([H])[H])C1([H])[H]

>  <smiles>  (45) 
[H]c1sc(N([H])C(=O)N2C([H])([H])C([H])([H])C([H])([H])C([H])(n3nc(-c4c([H])c([H])c(Oc5c([H])c([H])c(F)c([H])c5F)c([H])c4[H])c(C(=O)N([H])[H])c3N([H])[H])C2([H])[H])c([H])c1C1([H])C([H])([H])C([H])([H])C(C([H])([H])[H])(C([H])([H])Oc2c([H])c([H])c3c(c2[H])C([H])([H])N(C(=O)C([H])(N([H])C(=O)C([H])(N([H])C([H])([H])[H])C([H])([H])[H])C(C([H])([H])[H])(C([H])([H])[H])C([H])([H])[H])C([H])(C(=O)N([H])C2([H])c4c([H])c([H])c([H])c([H])c4C([H])([H])C([H])([H])C2([H])[H])C3([H])[H])C1([H])[H]

$$$$
45:0:0
     RDKit          3D

 92101  0  0  1  0  0  0  0  0999 V2000
  -30.7450  -22.2810   19.5870 C   0  0  0  0  0  2  0  0  0  0  0  0
  -30.2940  -23.7540   19.4890 C   0  0  0  0  0  2  0  0  0  0  0  0
  -28.4650  -22.4170   20.3630 C   0  0  0  0  0  2  0  0  0  0  0  0
  -29.4490  -21.4600   19.6010 C   0  0  0  0  0  3  0  0  0  0  0  0
  -29.0480  -23.8990   20.3860 C   0  0  1  0  0  0  0  0  0  0  0  0
  -29.4570  -24.2470   21.8290 C   0  0  0  0  0  1  0  0  0  0  0  0
  -28.6580  -19.2180   20.7530 C   0  0  0  0  0  3  0  0  0  0  0  0
  -30.6950  -19.1780   19.4780 C   0  0  0  0  0  3  0  0  0  0  0  0
  -28.7860  -17.8160   20.9760 C   0  0  0  0  0  3  0  0  0  0  0  0
  -30.8250  -17.7760   19.6990 C   0  0  0  0  0  3  0  0  0  0  0  0
  -29.6090  -19.9410   19.9870 C   0  0  0  0  0  0  0  0  0  0  0  0
  -29.8590  -17.0510   20.4430 C   0  0  0  0  0  0  0  0  0  0  0  0
  -30.6140  -14.5940   20.1160 C   0  0  0  0  0  0  0  0  0  0  0  0
  -30.3240  -12.3960   18.9910 C   0  0  0  0  0  2  0  0  0  0  0  0
  -29.3270  -12.5950   17.8280 C   0  0  0  0  0  2  0  0  0  0  0  0
  -27.8720  -12.4480   18.3200 C   0  0  0  0  0  2  0  0  0  0  0  0
  -27.5900  -13.2660   19.6100 C   0  0  0  0  0  3  0  0  0  0  0  0
  -28.6970  -13.0380   20.6640 C   0  0  0  0  0  2  0  0  0  0  0  0
  -29.9870  -13.3780   20.0410 N   0  0  0  0  0  0  0  0  0  0  0  0
  -31.7350  -14.7710   19.6310 O   0  0  0  0  0  0  0  0  0  0  0  0
  -29.8670  -15.6060   20.6530 N   0  0  0  0  0  0  0  0  0  0  0  0
  -29.0520  -15.2560   21.1350 H   0  0  0  0  0  0  0  0  0  0  0  0
  -25.2400  -13.8760   20.4570 C   0  0  0  0  0  0  0  0  0  0  0  0
  -24.1840  -13.1060   20.8610 C   0  0  0  0  0  0  0  0  0  0  0  0
  -24.6280  -11.7510   20.7740 C   0  0  0  0  0  0  0  0  0  0  0  0
  -26.2620  -12.9900   20.1490 N   0  0  0  0  0  0  0  0  0  0  0  0
  -25.9000  -11.7050   20.4000 N   0  0  0  0  0  0  0  0  0  0  0  0
  -23.8970  -10.4910   20.9720 C   0  0  0  0  0  0  0  0  0  0  0  0
  -24.3350   -9.5200   21.8990 C   0  0  0  0  0  3  0  0  0  0  0  0
  -23.6040   -8.3260   22.0840 C   0  0  0  0  0  3  0  0  0  0  0  0
  -22.4220   -8.0960   21.3400 C   0  0  0  0  0  0  0  0  0  0  0  0
  -22.0030   -9.0560   20.4020 C   0  0  0  0  0  3  0  0  0  0  0  0
  -22.7340  -10.2410   20.2150 C   0  0  0  0  0  3  0  0  0  0  0  0
  -21.6650   -6.9520   21.4310 O   0  0  0  0  0  0  0  0  0  0  0  0
  -21.5870   -6.2320   22.5960 C   0  0  0  0  0  0  0  0  0  0  0  0
  -21.1130   -6.8060   23.7960 C   0  0  0  0  0  3  0  0  0  0  0  0
  -20.9830   -6.0120   24.9530 C   0  0  0  0  0  3  0  0  0  0  0  0
  -21.3170   -4.6450   24.9120 C   0  0  0  0  0  0  0  0  0  0  0  0
  -21.7860   -4.0700   23.7170 C   0  0  0  0  0  3  0  0  0  0  0  0
  -21.9180   -4.8610   22.5610 C   0  0  0  0  0  0  0  0  0  0  0  0
  -22.3480   -4.2980   21.4060 F   0  0  0  0  0  0  0  0  0  0  0  0
  -21.1850   -3.8820   26.0200 F   0  0  0  0  0  0  0  0  0  0  0  0
  -22.8080  -13.5910   21.2150 C   0  0  0  0  0  0  0  0  0  0  0  0
  -22.1120  -12.8830   22.0960 N   0  0  0  0  0  0  0  0  0  0  0  0
  -22.3580  -14.6350   20.7450 O   0  0  0  0  0  0  0  0  0  0  0  0
  -22.4860  -12.0360   22.5000 H   0  0  0  0  0  0  0  0  0  0  0  0
  -21.1930  -13.1930   22.3750 H   0  0  0  0  0  0  0  0  0  0  0  0
  -25.4120  -15.2500   20.3050 N   0  0  0  0  0  0  0  0  0  0  0  0
  -24.6550  -15.9080   20.4540 H   0  0  0  0  0  0  0  0  0  0  0  0
  -26.2430  -15.6850   19.9220 H   0  0  0  0  0  0  0  0  0  0  0  0
  -28.0470  -25.0250   19.8820 C   0  0  0  0  0  2  0  0  0  0  0  0
  -28.3190  -26.4630   20.1080 O   0  0  0  0  0  0  0  0  0  0  0  0
  -24.6130  -31.8430   23.1820 C   0  0  0  0  0  0  0  0  0  0  0  0
  -27.2100  -27.3240   20.0640 C   0  0  0  0  0  0  0  0  0  0  0  0
  -23.4050  -30.4600   21.5350 C   0  0  0  0  0  3  0  0  0  0  0  0
  -24.8470  -28.9340   20.0870 C   0  0  0  0  0  0  0  0  0  0  0  0
  -25.9430  -30.7800   21.3500 C   0  0  0  0  0  2  0  0  0  0  0  0
  -26.0200  -29.4120   20.6870 C   0  0  0  0  0  0  0  0  0  0  0  0
  -27.2040  -28.6160   20.6730 C   0  0  0  0  0  3  0  0  0  0  0  0
  -26.0140  -26.9090   19.4300 C   0  0  0  0  0  3  0  0  0  0  0  0
  -24.8450  -27.6870   19.4510 C   0  0  0  0  0  3  0  0  0  0  0  0
  -23.6120  -29.8070   20.1460 C   0  0  0  0  0  2  0  0  0  0  0  0
  -24.6730  -31.0440   22.0790 N   0  0  0  0  0  0  0  0  0  0  0  0
  -23.5320  -32.1160   23.7230 O   0  0  0  0  0  0  0  0  0  0  0  0
  -22.7470  -29.4300   22.4840 C   0  0  0  0  0  0  0  0  0  0  0  0
  -21.4200  -29.2620   22.3680 N   0  0  0  0  0  0  0  0  0  0  0  0
  -23.4310  -28.7860   23.2850 O   0  0  0  0  0  0  0  0  0  0  0  0
  -20.9270  -29.8320   21.6950 H   0  0  0  0  0  0  0  0  0  0  0  0
  -18.0370  -28.1030   22.9050 C   0  0  0  0  0  0  0  0  0  0  0  0
  -20.6020  -28.3210   23.1370 C   0  0  0  0  0  3  0  0  0  0  0  0
  -20.6750  -26.8990   22.5330 C   0  0  0  0  0  2  0  0  0  0  0  0
  -19.5520  -26.6100   21.5330 C   0  0  0  0  0  2  0  0  0  0  0  0
  -18.1830  -26.7640   22.2030 C   0  0  0  0  0  2  0  0  0  0  0  0
  -19.1740  -28.8420   23.3300 C   0  0  0  0  0  0  0  0  0  0  0  0
  -18.9820  -30.0970   23.9460 C   0  0  0  0  0  3  0  0  0  0  0  0
  -17.6870  -30.6120   24.1450 C   0  0  0  0  0  3  0  0  0  0  0  0
  -16.5660  -29.8700   23.7350 C   0  0  0  0  0  3  0  0  0  0  0  0
  -16.7410  -28.6170   23.1220 C   0  0  0  0  0  3  0  0  0  0  0  0
  -25.8990  -32.4710   23.8020 C   0  0  0  0  0  3  0  0  0  0  0  0
  -25.5880  -33.8630   24.1510 N   0  0  0  0  0  0  0  0  0  0  0  0
  -25.9050  -34.9260   23.4000 C   0  0  0  0  0  0  0  0  0  0  0  0
  -26.5600  -34.8380   22.3600 O   0  0  0  0  0  0  0  0  0  0  0  0
  -25.0020  -34.0060   24.9630 H   0  0  0  0  0  0  0  0  0  0  0  0
  -24.1650  -36.7170   23.0850 C   0  0  0  0  0  1  0  0  0  0  0  0
  -25.4150  -36.3070   23.8790 C   0  0  0  0  0  3  0  0  0  0  0  0
  -27.5540  -37.1940   24.7000 C   0  0  0  0  0  1  0  0  0  0  0  0
  -26.4420  -37.3660   23.7680 N   0  0  0  0  0  0  0  0  0  0  0  0
  -26.0330  -38.2810   23.9290 H   0  0  0  0  0  0  0  0  0  0  0  0
  -26.4240  -31.6840   25.0660 C   0  0  1  0  0  0  0  0  0  0  0  0
  -25.3380  -31.4330   26.1370 C   0  0  0  0  0  1  0  0  0  0  0  0
  -27.0060  -30.3100   24.6550 C   0  0  0  0  0  1  0  0  0  0  0  0
  -27.5750  -32.4730   25.7320 C   0  0  0  0  0  1  0  0  0  0  0  0
  1  4  1  0
  2  1  1  0
  2  5  1  0
  3  5  1  0
  4 11  1  0
  4  3  1  0
  5  6  1  1
  7  9  1  0
  8 10  2  0
  8 11  1  0
 10 12  1  0
 11  7  2  0
 12 21  1  0
 12  9  2  0
 13 21  1  0
 14 19  1  0
 15 16  1  0
 15 14  1  0
 17 16  1  0
 17 26  1  0
 17 18  1  0
 19 13  1  0
 19 18  1  0
 20 13  2  0
 21 22  1  0
 23 24  2  0
 24 43  1  0
 25 24  1  0
 25 28  1  0
 26 27  1  0
 26 23  1  0
 27 25  2  0
 28 29  1  0
 29 30  2  0
 31 34  1  0
 31 30  1  0
 32 31  2  0
 33 32  1  0
 33 28  2  0
 34 35  1  0
 35 36  1  0
 36 37  2  0
 38 37  1  0
 38 42  1  0
 39 38  2  0
 40 35  2  0
 40 39  1  0
 41 40  1  0
 43 44  1  0
 44 47  1  0
 44 46  1  0
 45 43  2  0
 48 49  1  0
 48 23  1  0
 50 48  1  0
 51 52  1  0
 51  5  1  0
 53 64  2  0
 54 52  1  0
 54 59  1  0
 55 63  1  0
 55 65  1  0
 56 62  1  0
 56 58  1  0
 57 63  1  0
 58 57  1  0
 59 58  2  0
 60 61  1  0
 60 54  2  0
 61 56  2  0
 62 55  1  0
 63 53  1  0
 65 67  2  0
 66 65  1  0
 68 66  1  0
 69 78  2  0
 69 74  1  0
 70 66  1  0
 70 74  1  0
 71 70  1  0
 72 73  1  0
 72 71  1  0
 73 69  1  0
 74 75  2  0
 75 76  1  0
 77 76  2  0
 78 77  1  0
 79 53  1  0
 79 80  1  0
 79 89  1  0
 80 83  1  0
 81 85  1  0
 81 80  1  0
 82 81  2  0
 85 84  1  0
 87 85  1  0
 87 88  1  0
 87 86  1  0
 89 92  1  1
 89 90  1  0
 91 89  1  0
M  ISO  4  13 100  21 100  51 101  52 101
M  END
>  <TORSDO>  (46) 
F 18

>  <SCORE>  (46) 
-14.345

>  <name>  (46) 
45

>  <ligand_id>  (46) 
45

>  <original_smiles>  (46) 
[H]c1c([H])c([H])c2c(c1[H])C([H])([H])C([H])([H])C([H])([H])C2([H])N([H])C(=O)C1([H])N(C(=O)C([H])(N([H])C(=O)C([H])(N([H])C([H])([H])[H])C([H])([H])[H])C(C([H])([H])[H])(C([H])([H])[H])C([H])([H])[H])C([H])([H])c2c([H])c(OC([H])([H])C3(C([H])([H])[H])C([H])([H])C([H])([H])C([H])(c4c([H])c([H])c(N([H])C(=O)N5C([H])([H])C([H])([H])C([H])([H])C([H])(n6nc(-c7c([H])c([H])c(Oc8c([H])c([H])c(F)c([H])c8F)c([H])c7[H])c(C(=O)N([H])[H])c6N([H])[H])C5([H])[H])c([H])c4[H])C3([H])[H])c([H])c([H])c2C1([H])[H]

>  <smiles>  (46) 
[H]c1c([H])c([H])c2c(c1[H])C([H])([H])C([H])([H])C([H])([H])C2([H])N([H])C(=O)C1([H])N(C(=O)C([H])(N([H])C(=O)C([H])(N([H])C([H])([H])[H])C([H])([H])[H])C(C([H])([H])[H])(C([H])([H])[H])C([H])([H])[H])C([H])([H])c2c([H])c(OC([H])([H])C3(C([H])([H])[H])C([H])([H])C([H])([H])C([H])(c4c([H])c([H])c(N([H])C(=O)N5C([H])([H])C([H])([H])C([H])([H])C([H])(n6nc(-c7c([H])c([H])c(Oc8c([H])c([H])c(F)c([H])c8F)c([H])c7[H])c(C(=O)N([H])[H])c6N([H])[H])C5([H])[H])c([H])c4[H])C3([H])[H])c([H])c([H])c2C1([H])[H]

$$$$
46:0:0
     RDKit          3D

 94103  0  0  1  0  0  0  0  0999 V2000
  -27.5300  -18.6630   20.6180 C   0  0  0  0  0  3  0  0  0  0  0  0
  -26.9510  -19.9400   20.3760 C   0  0  0  0  0  3  0  0  0  0  0  0
  -28.8570  -18.6040   20.2850 C   0  0  0  0  0  0  0  0  0  0  0  0
  -27.8310  -20.8350   19.8360 C   0  0  0  0  0  0  0  0  0  0  0  0
  -29.3850  -20.0950   19.5430 S   0  0  0  0  0  0  0  0  0  0  0  0
  -30.8380  -14.3230   19.6950 C   0  0  0  0  0  0  0  0  0  0  0  0
  -30.3270  -12.2550   18.4590 C   0  0  0  0  0  2  0  0  0  0  0  0
  -29.2530  -12.5010   17.3840 C   0  0  0  0  0  2  0  0  0  0  0  0
  -27.8390  -12.3620   17.9760 C   0  0  0  0  0  2  0  0  0  0  0  0
  -27.6640  -13.1720   19.2880 C   0  0  0  0  0  3  0  0  0  0  0  0
  -28.8290  -12.8860   20.2610 C   0  0  0  0  0  2  0  0  0  0  0  0
  -30.0920  -13.1940   19.5650 N   0  0  0  0  0  0  0  0  0  0  0  0
  -31.8160  -14.5600   18.9750 O   0  0  0  0  0  0  0  0  0  0  0  0
  -31.2150  -16.6750   22.6100 C   0  0  0  0  0  2  0  0  0  0  0  0
  -30.4060  -17.8300   22.0090 C   0  0  0  0  0  2  0  0  0  0  0  0
  -31.6410  -15.6320   21.5610 C   0  0  0  0  0  2  0  0  0  0  0  0
  -29.3840  -16.0880   20.5300 C   0  0  0  0  0  2  0  0  0  0  0  0
  -29.8590  -17.5480   20.6100 C   0  0  0  0  0  3  0  0  0  0  0  0
  -30.5190  -15.1490   20.7190 N   0  0  0  0  0  0  0  0  0  0  0  0
  -25.3540  -13.8160   20.2280 C   0  0  0  0  0  0  0  0  0  0  0  0
  -24.3180  -13.0550   20.7060 C   0  0  0  0  0  0  0  0  0  0  0  0
  -24.7610  -11.6990   20.6320 C   0  0  0  0  0  0  0  0  0  0  0  0
  -26.3630  -12.9190   19.9010 N   0  0  0  0  0  0  0  0  0  0  0  0
  -26.0130  -11.6430   20.1930 N   0  0  0  0  0  0  0  0  0  0  0  0
  -24.0460  -10.4410   20.8950 C   0  0  0  0  0  0  0  0  0  0  0  0
  -24.4980   -9.5150   21.8620 C   0  0  0  0  0  3  0  0  0  0  0  0
  -23.7830   -8.3220   22.0960 C   0  0  0  0  0  3  0  0  0  0  0  0
  -22.6010   -8.0460   21.3730 C   0  0  0  0  0  0  0  0  0  0  0  0
  -22.1650   -8.9610   20.3980 C   0  0  0  0  0  3  0  0  0  0  0  0
  -22.8810  -10.1450   20.1600 C   0  0  0  0  0  3  0  0  0  0  0  0
  -21.8520   -6.9040   21.5320 O   0  0  0  0  0  0  0  0  0  0  0  0
  -21.7650   -6.2650   22.7440 C   0  0  0  0  0  0  0  0  0  0  0  0
  -21.2740   -6.9160   23.8980 C   0  0  0  0  0  3  0  0  0  0  0  0
  -21.1450   -6.2040   25.1100 C   0  0  0  0  0  3  0  0  0  0  0  0
  -21.4820   -4.8380   25.1620 C   0  0  0  0  0  0  0  0  0  0  0  0
  -21.9600   -4.1860   24.0130 C   0  0  0  0  0  3  0  0  0  0  0  0
  -22.0960   -4.8980   22.8060 C   0  0  0  0  0  0  0  0  0  0  0  0
  -22.5450   -4.2610   21.6980 F   0  0  0  0  0  0  0  0  0  0  0  0
  -21.3420   -4.1490   26.3170 F   0  0  0  0  0  0  0  0  0  0  0  0
  -22.9560  -13.5500   21.0970 C   0  0  0  0  0  0  0  0  0  0  0  0
  -22.3070  -12.8720   22.0400 N   0  0  0  0  0  0  0  0  0  0  0  0
  -22.4790  -14.5690   20.6030 O   0  0  0  0  0  0  0  0  0  0  0  0
  -22.7000  -12.0480   22.4710 H   0  0  0  0  0  0  0  0  0  0  0  0
  -21.4030  -13.1970   22.3480 H   0  0  0  0  0  0  0  0  0  0  0  0
  -25.5090  -15.1820   20.0200 N   0  0  0  0  0  0  0  0  0  0  0  0
  -24.7350  -15.8270   20.1410 H   0  0  0  0  0  0  0  0  0  0  0  0
  -26.2940  -15.5900   19.5320 H   0  0  0  0  0  0  0  0  0  0  0  0
  -27.5510  -22.1720   19.5990 N   0  0  0  0  0  0  0  0  0  0  0  0
  -26.9720  -22.6300   20.3020 H   0  0  0  0  0  0  0  0  0  0  0  0
  -28.5440  -23.0880   19.0550 C   0  0  0  0  0  2  0  0  0  0  0  0
  -28.4230  -24.4470   19.7320 C   0  0  0  0  0  0  0  0  0  0  0  0
  -28.0120  -24.5360   20.8970 O   0  0  0  0  0  0  0  0  0  0  0  0
  -28.8010  -25.6790   18.9040 C   0  0  0  0  0  2  0  0  0  0  0  0
  -28.5970  -26.8640   19.6530 O   0  0  0  0  0  0  0  0  0  0  0  0
  -24.6530  -31.6070   23.0670 C   0  0  0  0  0  0  0  0  0  0  0  0
  -27.3530  -27.4480   19.6850 C   0  0  0  0  0  0  0  0  0  0  0  0
  -23.4480  -30.2760   21.3600 C   0  0  0  0  0  3  0  0  0  0  0  0
  -24.9060  -28.8520   19.8220 C   0  0  0  0  0  0  0  0  0  0  0  0
  -25.9520  -30.6930   21.1530 C   0  0  0  0  0  2  0  0  0  0  0  0
  -26.0500  -29.3650   20.4430 C   0  0  0  0  0  0  0  0  0  0  0  0
  -27.2630  -28.6560   20.3970 C   0  0  0  0  0  3  0  0  0  0  0  0
  -26.1990  -26.9400   19.0420 C   0  0  0  0  0  3  0  0  0  0  0  0
  -24.9720  -27.6360   19.1200 C   0  0  0  0  0  3  0  0  0  0  0  0
  -23.6400  -29.6730   19.9430 C   0  0  0  0  0  2  0  0  0  0  0  0
  -24.7020  -30.8720   21.9160 N   0  0  0  0  0  0  0  0  0  0  0  0
  -23.5770  -31.8370   23.6350 O   0  0  0  0  0  0  0  0  0  0  0  0
  -22.8330  -29.1890   22.2700 C   0  0  0  0  0  0  0  0  0  0  0  0
  -21.5130  -28.9840   22.1390 N   0  0  0  0  0  0  0  0  0  0  0  0
  -23.5390  -28.5460   23.0540 O   0  0  0  0  0  0  0  0  0  0  0  0
  -21.0160  -29.5500   21.4670 H   0  0  0  0  0  0  0  0  0  0  0  0
  -18.1660  -27.7080   22.5780 C   0  0  0  0  0  0  0  0  0  0  0  0
  -20.7200  -27.9890   22.8580 C   0  0  0  0  0  3  0  0  0  0  0  0
  -20.8480  -26.5950   22.2030 C   0  0  0  0  0  2  0  0  0  0  0  0
  -19.7460  -26.3100   21.1730 C   0  0  0  0  0  2  0  0  0  0  0  0
  -18.3650  -26.3960   21.8350 C   0  0  0  0  0  2  0  0  0  0  0  0
  -19.2760  -28.4630   23.0400 C   0  0  0  0  0  0  0  0  0  0  0  0
  -19.0390  -29.6960   23.6920 C   0  0  0  0  0  3  0  0  0  0  0  0
  -17.7320  -30.1720   23.8870 C   0  0  0  0  0  3  0  0  0  0  0  0
  -16.6360  -29.4040   23.4500 C   0  0  0  0  0  3  0  0  0  0  0  0
  -16.8530  -28.1750   22.8030 C   0  0  0  0  0  3  0  0  0  0  0  0
  -25.9430  -32.2160   23.6990 C   0  0  0  0  0  3  0  0  0  0  0  0
  -26.4950  -31.3800   24.9190 C   0  0  1  0  0  0  0  0  0  0  0  0
  -25.4320  -31.0560   25.9960 C   0  0  0  0  0  1  0  0  0  0  0  0
  -27.0890  -30.0380   24.4310 C   0  0  0  0  0  1  0  0  0  0  0  0
  -27.6440  -32.1510   25.6090 C   0  0  0  0  0  1  0  0  0  0  0  0
  -25.6210  -33.5880   24.1130 N   0  0  0  0  0  0  0  0  0  0  0  0
  -25.9290  -34.6870   23.4130 C   0  0  0  0  0  0  0  0  0  0  0  0
  -26.5930  -34.6540   22.3720 O   0  0  0  0  0  0  0  0  0  0  0  0
  -25.0180  -33.6890   24.9180 H   0  0  0  0  0  0  0  0  0  0  0  0
  -24.1660  -36.4670   23.1730 C   0  0  0  0  0  1  0  0  0  0  0  0
  -25.4220  -36.0390   23.9520 C   0  0  0  0  0  3  0  0  0  0  0  0
  -27.5510  -36.9100   24.8170 C   0  0  0  0  0  1  0  0  0  0  0  0
  -26.4370  -37.1140   23.8920 N   0  0  0  0  0  0  0  0  0  0  0  0
  -26.0170  -38.0180   24.0940 H   0  0  0  0  0  0  0  0  0  0  0  0
  2  1  1  0
  3  1  2  0
  4  2  2  0
  5  4  1  0
  5  3  1  0
  6 19  1  0
  7 12  1  0
  8  9  1  0
  8  7  1  0
 10  9  1  0
 10 23  1  0
 10 11  1  0
 12  6  1  0
 12 11  1  0
 13  6  2  0
 15 14  1  0
 16 14  1  0
 17 18  1  0
 17 19  1  0
 18  3  1  0
 18 15  1  0
 19 16  1  0
 20 21  2  0
 21 40  1  0
 22 21  1  0
 22 25  1  0
 23 24  1  0
 23 20  1  0
 24 22  2  0
 25 26  1  0
 26 27  2  0
 28 31  1  0
 28 27  1  0
 29 28  2  0
 30 29  1  0
 30 25  2  0
 31 32  1  0
 32 37  2  0
 32 33  1  0
 33 34  2  0
 34 35  1  0
 35 39  1  0
 36 35  2  0
 37 36  1  0
 38 37  1  0
 40 41  1  0
 41 44  1  0
 41 43  1  0
 42 40  2  0
 45 46  1  0
 45 20  1  0
 47 45  1  0
 48  4  1  0
 48 49  1  0
 50 48  1  0
 50 51  1  0
 51 52  2  0
 53 54  1  0
 53 51  1  0
 54 56  1  0
 55 66  2  0
 56 61  1  0
 57 65  1  0
 57 67  1  0
 58 64  1  0
 58 60  1  0
 59 65  1  0
 60 59  1  0
 61 60  2  0
 62 63  1  0
 62 56  2  0
 63 58  2  0
 64 57  1  0
 65 55  1  0
 67 69  2  0
 68 67  1  0
 70 68  1  0
 71 80  2  0
 71 76  1  0
 72 68  1  0
 72 76  1  0
 73 72  1  0
 74 75  1  0
 74 73  1  0
 75 71  1  0
 76 77  2  0
 77 78  1  0
 79 78  2  0
 80 79  1  0
 81 55  1  0
 81 86  1  0
 81 82  1  0
 82 85  1  1
 82 83  1  0
 84 82  1  0
 86 89  1  0
 87 91  1  0
 87 86  1  0
 88 87  2  0
 91 90  1  0
 93 91  1  0
 93 94  1  0
 93 92  1  0
M  ISO  4   6 100  19 100  53 101  54 101
M  END
>  <TORSDO>  (47) 
F 20

>  <SCORE>  (47) 
-10.791

>  <name>  (47) 
46

>  <ligand_id>  (47) 
46

>  <original_smiles>  (47) 
[H]c1c(N([H])C([H])([H])C(=O)C([H])([H])Oc2c([H])c([H])c3c(c2[H])C([H])([H])N(C(=O)C([H])(N([H])C(=O)C([H])(N([H])C([H])([H])[H])C([H])([H])[H])C(C([H])([H])[H])(C([H])([H])[H])C([H])([H])[H])C([H])(C(=O)N([H])C2([H])c4c([H])c([H])c([H])c([H])c4C([H])([H])C([H])([H])C2([H])[H])C3([H])[H])sc(C2([H])C([H])([H])N(C(=O)N3C([H])([H])C([H])([H])C([H])([H])C([H])(n4nc(-c5c([H])c([H])c(Oc6c([H])c([H])c(F)c([H])c6F)c([H])c5[H])c(C(=O)N([H])[H])c4N([H])[H])C3([H])[H])C([H])([H])C([H])([H])C2([H])[H])c1[H]

>  <smiles>  (47) 
[H]c1c(N([H])C([H])([H])C(=O)C([H])([H])Oc2c([H])c([H])c3c(c2[H])C([H])([H])N(C(=O)C([H])(N([H])C(=O)C([H])(N([H])C([H])([H])[H])C([H])([H])[H])C(C([H])([H])[H])(C([H])([H])[H])C([H])([H])[H])C([H])(C(=O)N([H])C2([H])c4c([H])c([H])c([H])c([H])c4C([H])([H])C([H])([H])C2([H])[H])C3([H])[H])sc(C2([H])C([H])([H])N(C(=O)N3C([H])([H])C([H])([H])C([H])([H])C([H])(n4nc(-c5c([H])c([H])c(Oc6c([H])c([H])c(F)c([H])c6F)c([H])c5[H])c(C(=O)N([H])[H])c4N([H])[H])C3([H])[H])C([H])([H])C([H])([H])C2([H])[H])c1[H]

$$$$
47:0:0
     RDKit          3D

 94103  0  0  1  0  0  0  0  0999 V2000
  -30.3310  -23.5530   19.6130 C   0  0  0  0  0  2  0  0  0  0  0  0
  -30.9230  -22.1520   19.9150 C   0  0  0  0  0  2  0  0  0  0  0  0
  -28.5560  -22.0030   20.0540 C   0  0  0  0  0  3  0  0  0  0  0  0
  -28.9410  -23.5920   20.2660 C   0  0  1  0  0  0  0  0  0  0  0  0
  -29.0760  -23.8280   21.7850 C   0  0  0  0  0  1  0  0  0  0  0  0
  -29.8270  -21.1820   20.0170 N   0  0  0  0  0  0  0  0  0  0  0  0
  -31.4230  -19.3090   20.4100 C   0  0  0  0  0  3  0  0  0  0  0  0
  -31.4410  -17.8760   20.4580 C   0  0  0  0  0  3  0  0  0  0  0  0
  -30.1360  -19.7460   20.2080 C   0  0  0  0  0  0  0  0  0  0  0  0
  -30.1610  -17.4220   20.2730 C   0  0  0  0  0  0  0  0  0  0  0  0
  -29.3130  -18.5830   20.1360 O   0  0  0  0  0  0  0  0  0  0  0  0
  -30.5360  -14.8790   20.0220 C   0  0  0  0  0  0  0  0  0  0  0  0
  -30.2780  -12.6070   18.9840 C   0  0  0  0  0  2  0  0  0  0  0  0
  -29.2690  -12.6610   17.8150 C   0  0  0  0  0  2  0  0  0  0  0  0
  -27.8300  -12.4710   18.3300 C   0  0  0  0  0  2  0  0  0  0  0  0
  -27.5190  -13.3500   19.5710 C   0  0  0  0  0  3  0  0  0  0  0  0
  -28.6410  -13.2750   20.6290 C   0  0  0  0  0  2  0  0  0  0  0  0
  -29.8910  -13.6570   19.9600 N   0  0  0  0  0  0  0  0  0  0  0  0
  -31.7160  -14.9300   19.6630 O   0  0  0  0  0  0  0  0  0  0  0  0
  -29.7920  -16.0490   20.2610 N   0  0  0  0  0  0  0  0  0  0  0  0
  -28.8110  -15.8760   20.4190 H   0  0  0  0  0  0  0  0  0  0  0  0
  -25.1860  -13.9250   20.4630 C   0  0  0  0  0  0  0  0  0  0  0  0
  -24.1400  -13.1440   20.8710 C   0  0  0  0  0  0  0  0  0  0  0  0
  -24.5930  -11.7930   20.7730 C   0  0  0  0  0  0  0  0  0  0  0  0
  -26.2080  -13.0500   20.1380 N   0  0  0  0  0  0  0  0  0  0  0  0
  -25.8630  -11.7600   20.3890 N   0  0  0  0  0  0  0  0  0  0  0  0
  -23.8710  -10.5290   20.9660 C   0  0  0  0  0  0  0  0  0  0  0  0
  -24.3300   -9.5460   21.8710 C   0  0  0  0  0  3  0  0  0  0  0  0
  -23.6080   -8.3460   22.0520 C   0  0  0  0  0  3  0  0  0  0  0  0
  -22.4110   -8.1220   21.3320 C   0  0  0  0  0  0  0  0  0  0  0  0
  -21.9710   -9.0940   20.4150 C   0  0  0  0  0  3  0  0  0  0  0  0
  -22.6930  -10.2850   20.2320 C   0  0  0  0  0  3  0  0  0  0  0  0
  -21.6570   -6.9780   21.4250 O   0  0  0  0  0  0  0  0  0  0  0  0
  -21.6240   -6.2300   22.5750 C   0  0  0  0  0  0  0  0  0  0  0  0
  -21.1890   -6.7730   23.8040 C   0  0  0  0  0  3  0  0  0  0  0  0
  -21.1050   -5.9500   24.9450 C   0  0  0  0  0  3  0  0  0  0  0  0
  -21.4430   -4.5860   24.8580 C   0  0  0  0  0  0  0  0  0  0  0  0
  -21.8700   -4.0440   23.6340 C   0  0  0  0  0  3  0  0  0  0  0  0
  -21.9580   -4.8630   22.4950 C   0  0  0  0  0  0  0  0  0  0  0  0
  -22.3490   -4.3300   21.3130 F   0  0  0  0  0  0  0  0  0  0  0  0
  -21.3550   -3.7950   25.9530 F   0  0  0  0  0  0  0  0  0  0  0  0
  -22.7630  -13.6200   21.2340 C   0  0  0  0  0  0  0  0  0  0  0  0
  -22.0810  -12.9000   22.1180 N   0  0  0  0  0  0  0  0  0  0  0  0
  -22.3040  -14.6620   20.7710 O   0  0  0  0  0  0  0  0  0  0  0  0
  -22.4670  -12.0570   22.5140 H   0  0  0  0  0  0  0  0  0  0  0  0
  -21.1580  -13.1990   22.4030 H   0  0  0  0  0  0  0  0  0  0  0  0
  -25.3460  -15.3000   20.3170 N   0  0  0  0  0  0  0  0  0  0  0  0
  -24.5860  -15.9480   20.4890 H   0  0  0  0  0  0  0  0  0  0  0  0
  -26.1590  -15.7460   19.9110 H   0  0  0  0  0  0  0  0  0  0  0  0
  -27.7230  -21.7620   18.7800 C   0  0  0  0  0  0  0  0  0  0  0  0
  -26.4950  -20.8740   18.9190 C   0  0  0  0  0  1  0  0  0  0  0  0
  -28.0200  -22.2180   17.6730 O   0  0  0  0  0  0  0  0  0  0  0  0
  -28.0110  -24.8400   19.7120 C   0  0  0  0  0  2  0  0  0  0  0  0
  -28.2610  -26.3240   19.9770 O   0  0  0  0  0  0  0  0  0  0  0  0
  -24.5220  -31.7610   23.1050 C   0  0  0  0  0  0  0  0  0  0  0  0
  -27.1730  -27.2450   19.9280 C   0  0  0  0  0  0  0  0  0  0  0  0
  -23.3370  -30.3940   21.4300 C   0  0  0  0  0  3  0  0  0  0  0  0
  -24.8070  -28.8990   19.9540 C   0  0  0  0  0  0  0  0  0  0  0  0
  -25.8800  -30.7270   21.2600 C   0  0  0  0  0  2  0  0  0  0  0  0
  -25.9770  -29.3640   20.5690 C   0  0  0  0  0  0  0  0  0  0  0  0
  -27.1630  -28.5510   20.5420 C   0  0  0  0  0  3  0  0  0  0  0  0
  -25.9760  -26.8670   19.2780 C   0  0  0  0  0  3  0  0  0  0  0  0
  -24.8150  -27.6620   19.2950 C   0  0  0  0  0  3  0  0  0  0  0  0
  -23.5620  -29.7650   20.0300 C   0  0  0  0  0  2  0  0  0  0  0  0
  -24.5990  -30.9800   21.9870 N   0  0  0  0  0  0  0  0  0  0  0  0
  -23.4340  -32.0100   23.6460 O   0  0  0  0  0  0  0  0  0  0  0  0
  -22.6860  -29.3440   22.3600 C   0  0  0  0  0  0  0  0  0  0  0  0
  -21.3560  -29.1740   22.2510 N   0  0  0  0  0  0  0  0  0  0  0  0
  -23.3760  -28.6860   23.1440 O   0  0  0  0  0  0  0  0  0  0  0  0
  -20.8580  -29.7570   21.5940 H   0  0  0  0  0  0  0  0  0  0  0  0
  -17.9790  -27.9930   22.8060 C   0  0  0  0  0  0  0  0  0  0  0  0
  -20.5480  -28.2080   23.0000 C   0  0  0  0  0  3  0  0  0  0  0  0
  -20.6110  -26.8060   22.3490 C   0  0  0  0  0  2  0  0  0  0  0  0
  -19.4710  -26.5500   21.3580 C   0  0  0  0  0  2  0  0  0  0  0  0
  -18.1140  -26.6790   22.0550 C   0  0  0  0  0  2  0  0  0  0  0  0
  -19.1210  -28.7180   23.2360 C   0  0  0  0  0  0  0  0  0  0  0  0
  -18.9390  -29.9500   23.9010 C   0  0  0  0  0  3  0  0  0  0  0  0
  -17.6470  -30.4550   24.1390 C   0  0  0  0  0  3  0  0  0  0  0  0
  -16.5200  -29.7260   23.7240 C   0  0  0  0  0  3  0  0  0  0  0  0
  -16.6860  -28.4960   23.0640 C   0  0  0  0  0  3  0  0  0  0  0  0
  -25.7950  -32.3980   23.7440 C   0  0  0  0  0  3  0  0  0  0  0  0
  -26.3010  -31.6200   25.0210 C   0  0  1  0  0  0  0  0  0  0  0  0
  -25.1980  -31.3690   26.0760 C   0  0  0  0  0  1  0  0  0  0  0  0
  -26.8980  -30.2490   24.6290 C   0  0  0  0  0  1  0  0  0  0  0  0
  -27.4400  -32.4160   25.7010 C   0  0  0  0  0  1  0  0  0  0  0  0
  -25.4720  -33.7910   24.0860 N   0  0  0  0  0  0  0  0  0  0  0  0
  -25.7790  -34.8530   23.3290 C   0  0  0  0  0  0  0  0  0  0  0  0
  -26.4320  -34.7640   22.2860 O   0  0  0  0  0  0  0  0  0  0  0  0
  -24.8900  -33.9330   24.8980 H   0  0  0  0  0  0  0  0  0  0  0  0
  -24.0240  -36.6290   23.0210 C   0  0  0  0  0  1  0  0  0  0  0  0
  -25.2850  -36.2340   23.8050 C   0  0  0  0  0  3  0  0  0  0  0  0
  -27.4210  -37.1450   24.6050 C   0  0  0  0  0  1  0  0  0  0  0  0
  -26.3030  -37.2990   23.6780 N   0  0  0  0  0  0  0  0  0  0  0  0
  -25.8890  -38.2140   23.8310 H   0  0  0  0  0  0  0  0  0  0  0  0
  1  2  1  0
  1  4  1  0
  2  6  1  0
  3 50  1  0
  3  4  1  0
  4  5  1  1
  6  3  1  0
  6  9  1  0
  7  8  1  0
  9  7  2  0
 10  8  2  0
 11  9  1  0
 11 10  1  0
 12 20  1  0
 13 18  1  0
 14 15  1  0
 14 13  1  0
 16 15  1  0
 16 25  1  0
 16 17  1  0
 18 12  1  0
 18 17  1  0
 19 12  2  0
 20 10  1  0
 20 21  1  0
 22 23  2  0
 23 42  1  0
 24 23  1  0
 24 27  1  0
 25 26  1  0
 25 22  1  0
 26 24  2  0
 27 28  1  0
 28 29  2  0
 30 33  1  0
 30 29  1  0
 31 30  2  0
 32 31  1  0
 32 27  2  0
 33 34  1  0
 34 35  1  0
 35 36  2  0
 37 36  1  0
 37 41  1  0
 38 37  2  0
 39 34  2  0
 39 38  1  0
 40 39  1  0
 42 43  1  0
 43 46  1  0
 43 45  1  0
 44 42  2  0
 47 22  1  0
 47 48  1  0
 49 47  1  0
 50 51  1  0
 52 50  2  0
 53 54  1  0
 53  4  1  0
 55 66  2  0
 56 54  1  0
 56 61  1  0
 57 65  1  0
 57 67  1  0
 58 64  1  0
 58 60  1  0
 59 65  1  0
 60 59  1  0
 61 60  2  0
 62 63  1  0
 62 56  2  0
 63 58  2  0
 64 57  1  0
 65 55  1  0
 67 69  2  0
 68 67  1  0
 70 68  1  0
 71 80  2  0
 71 76  1  0
 72 68  1  0
 72 76  1  0
 73 72  1  0
 74 75  1  0
 74 73  1  0
 75 71  1  0
 76 77  2  0
 77 78  1  0
 79 78  2  0
 80 79  1  0
 81 55  1  0
 81 86  1  0
 81 82  1  0
 82 85  1  1
 82 83  1  0
 84 82  1  0
 86 89  1  0
 87 91  1  0
 87 86  1  0
 88 87  2  0
 91 90  1  0
 93 91  1  0
 93 94  1  0
 93 92  1  0
M  ISO  4  12 100  20 100  53 101  54 101
M  END
>  <TORSDO>  (48) 
F 19

>  <SCORE>  (48) 
-14.283

>  <name>  (48) 
47

>  <ligand_id>  (48) 
47

>  <original_smiles>  (48) 
[H]c1c(N([H])C(=O)N2C([H])([H])C([H])([H])C([H])([H])C([H])(n3nc(-c4c([H])c([H])c(Oc5c([H])c([H])c(F)c([H])c5F)c([H])c4[H])c(C(=O)N([H])[H])c3N([H])[H])C2([H])[H])oc(N2C([H])([H])C([H])([H])C(C([H])([H])[H])(C([H])([H])Oc3c([H])c([H])c4c(c3[H])C([H])([H])N(C(=O)C([H])(N([H])C(=O)C([H])(N([H])C([H])([H])[H])C([H])([H])[H])C(C([H])([H])[H])(C([H])([H])[H])C([H])([H])[H])C([H])(C(=O)N([H])C3([H])c5c([H])c([H])c([H])c([H])c5C([H])([H])C([H])([H])C3([H])[H])C4([H])[H])C2([H])C(=O)C([H])([H])[H])c1[H]

>  <smiles>  (48) 
[H]c1c(N([H])C(=O)N2C([H])([H])C([H])([H])C([H])([H])C([H])(n3nc(-c4c([H])c([H])c(Oc5c([H])c([H])c(F)c([H])c5F)c([H])c4[H])c(C(=O)N([H])[H])c3N([H])[H])C2([H])[H])oc(N2C([H])([H])C([H])([H])C(C([H])([H])[H])(C([H])([H])Oc3c([H])c([H])c4c(c3[H])C([H])([H])N(C(=O)C([H])(N([H])C(=O)C([H])(N([H])C([H])([H])[H])C([H])([H])[H])C(C([H])([H])[H])(C([H])([H])[H])C([H])([H])[H])C([H])(C(=O)N([H])C3([H])c5c([H])c([H])c([H])c([H])c5C([H])([H])C([H])([H])C3([H])[H])C4([H])[H])C2([H])C(=O)C([H])([H])[H])c1[H]

$$$$
48:0:0
     RDKit          3D

 98107  0  0  1  0  0  0  0  0999 V2000
  -30.8410  -21.1330   21.9480 C   0  0  0  0  0  3  0  0  0  0  0  0
  -29.6690  -24.6730   21.8730 C   0  0  0  0  0  2  0  0  0  0  0  0
  -30.5000  -23.5440   22.4850 C   0  0  0  0  0  2  0  0  0  0  0  0
  -29.4690  -22.7690   20.4550 C   0  0  0  0  0  2  0  0  0  0  0  0
  -29.5910  -24.3380   20.3820 C   0  0  2  0  0  0  0  0  0  0  0  0
  -30.9010  -24.7300   19.6630 C   0  0  0  0  0  1  0  0  0  0  0  0
  -30.3050  -22.3550   21.6190 N   0  0  0  0  0  0  0  0  0  0  0  0
  -31.5970  -21.1070   23.0480 N   0  0  0  0  0  0  0  0  0  0  0  0
  -32.0000  -20.2360   23.3570 H   0  0  0  0  0  0  0  0  0  0  0  0
  -31.7890  -21.9330   23.5870 H   0  0  0  0  0  0  0  0  0  0  0  0
  -29.3780  -19.2480   21.1450 C   0  0  0  0  0  3  0  0  0  0  0  0
  -31.6210  -17.5780   20.8140 C   0  0  0  0  0  3  0  0  0  0  0  0
  -30.6660  -19.8100   21.2920 C   0  0  0  0  0  0  0  0  0  0  0  0
  -30.3320  -16.9920   20.7690 C   0  0  0  0  0  0  0  0  0  0  0  0
  -29.2180  -17.8600   20.8980 C   0  0  0  0  0  0  0  0  0  0  0  0
  -31.7850  -18.9620   21.0780 C   0  0  0  0  0  0  0  0  0  0  0  0
  -27.9700  -17.3350   20.8360 F   0  0  0  0  0  0  0  0  0  0  0  0
  -33.0430  -19.4530   21.1980 F   0  0  0  0  0  0  0  0  0  0  0  0
  -30.7750  -14.5600   20.1030 C   0  0  0  0  0  0  0  0  0  0  0  0
  -30.4080  -12.4240   18.9070 C   0  0  0  0  0  2  0  0  0  0  0  0
  -29.3900  -12.6590   17.7700 C   0  0  0  0  0  2  0  0  0  0  0  0
  -27.9440  -12.5210   18.2860 C   0  0  0  0  0  2  0  0  0  0  0  0
  -27.6940  -13.3190   19.5950 C   0  0  0  0  0  3  0  0  0  0  0  0
  -28.8150  -13.0540   20.6260 C   0  0  0  0  0  2  0  0  0  0  0  0
  -30.1000  -13.3790   19.9850 N   0  0  0  0  0  0  0  0  0  0  0  0
  -31.8950  -14.7240   19.6110 O   0  0  0  0  0  0  0  0  0  0  0  0
  -30.0580  -15.5780   20.6390 N   0  0  0  0  0  0  0  0  0  0  0  0
  -29.1450  -15.3110   20.9710 H   0  0  0  0  0  0  0  0  0  0  0  0
  -25.3540  -13.9310   20.4690 C   0  0  0  0  0  0  0  0  0  0  0  0
  -24.2980  -13.1600   20.8750 C   0  0  0  0  0  0  0  0  0  0  0  0
  -24.7370  -11.8060   20.7730 C   0  0  0  0  0  0  0  0  0  0  0  0
  -26.3700  -13.0450   20.1480 N   0  0  0  0  0  0  0  0  0  0  0  0
  -26.0060  -11.7590   20.3880 N   0  0  0  0  0  0  0  0  0  0  0  0
  -24.0050  -10.5470   20.9650 C   0  0  0  0  0  0  0  0  0  0  0  0
  -24.4600   -9.5580   21.8650 C   0  0  0  0  0  3  0  0  0  0  0  0
  -23.7290   -8.3630   22.0440 C   0  0  0  0  0  3  0  0  0  0  0  0
  -22.5280   -8.1510   21.3260 C   0  0  0  0  0  0  0  0  0  0  0  0
  -22.0930   -9.1290   20.4150 C   0  0  0  0  0  3  0  0  0  0  0  0
  -22.8230  -10.3140   20.2330 C   0  0  0  0  0  3  0  0  0  0  0  0
  -21.7660   -7.0120   21.4180 O   0  0  0  0  0  0  0  0  0  0  0  0
  -21.7160   -6.2710   22.5710 C   0  0  0  0  0  0  0  0  0  0  0  0
  -21.2840   -6.8250   23.7950 C   0  0  0  0  0  3  0  0  0  0  0  0
  -21.1810   -6.0100   24.9410 C   0  0  0  0  0  3  0  0  0  0  0  0
  -21.5000   -4.6420   24.8630 C   0  0  0  0  0  0  0  0  0  0  0  0
  -21.9250   -4.0860   23.6420 C   0  0  0  0  0  3  0  0  0  0  0  0
  -22.0290   -4.8990   22.5000 C   0  0  0  0  0  0  0  0  0  0  0  0
  -22.4190   -4.3540   21.3220 F   0  0  0  0  0  0  0  0  0  0  0  0
  -21.3940   -3.8570   25.9600 F   0  0  0  0  0  0  0  0  0  0  0  0
  -22.9260  -13.6460   21.2460 C   0  0  0  0  0  0  0  0  0  0  0  0
  -22.2520  -12.9450   22.1500 N   0  0  0  0  0  0  0  0  0  0  0  0
  -22.4640  -14.6830   20.7700 O   0  0  0  0  0  0  0  0  0  0  0  0
  -22.6390  -12.1070   22.5560 H   0  0  0  0  0  0  0  0  0  0  0  0
  -21.3330  -13.2500   22.4400 H   0  0  0  0  0  0  0  0  0  0  0  0
  -25.5270  -15.3050   20.3270 N   0  0  0  0  0  0  0  0  0  0  0  0
  -24.7850  -15.9650   20.5310 H   0  0  0  0  0  0  0  0  0  0  0  0
  -26.3740  -15.7530   20.0020 H   0  0  0  0  0  0  0  0  0  0  0  0
  -28.3970  -25.1010   19.7110 C   0  0  0  0  0  2  0  0  0  0  0  0
  -28.4870  -26.5520   19.8260 O   0  0  0  0  0  0  0  0  0  0  0  0
  -24.5510  -31.6230   22.9860 C   0  0  0  0  0  0  0  0  0  0  0  0
  -27.3050  -27.2870   19.8060 C   0  0  0  0  0  0  0  0  0  0  0  0
  -23.3820  -30.2290   21.3130 C   0  0  0  0  0  3  0  0  0  0  0  0
  -24.8740  -28.7640   19.8490 C   0  0  0  0  0  0  0  0  0  0  0  0
  -25.9020  -30.6490   21.1270 C   0  0  0  0  0  2  0  0  0  0  0  0
  -26.0240  -29.2940   20.4500 C   0  0  0  0  0  0  0  0  0  0  0  0
  -27.2400  -28.5650   20.4200 C   0  0  0  0  0  3  0  0  0  0  0  0
  -26.1330  -26.7870   19.1920 C   0  0  0  0  0  3  0  0  0  0  0  0
  -24.9280  -27.5120   19.2150 C   0  0  0  0  0  3  0  0  0  0  0  0
  -23.6090  -29.5900   19.9170 C   0  0  0  0  0  2  0  0  0  0  0  0
  -24.6290  -30.8490   21.8660 N   0  0  0  0  0  0  0  0  0  0  0  0
  -23.4630  -31.8530   23.5340 O   0  0  0  0  0  0  0  0  0  0  0  0
  -22.7580  -29.1700   22.2500 C   0  0  0  0  0  0  0  0  0  0  0  0
  -21.4320  -28.9790   22.1460 N   0  0  0  0  0  0  0  0  0  0  0  0
  -23.4640  -28.5220   23.0280 O   0  0  0  0  0  0  0  0  0  0  0  0
  -20.9230  -29.5540   21.4900 H   0  0  0  0  0  0  0  0  0  0  0  0
  -18.0760  -27.7570   22.6990 C   0  0  0  0  0  0  0  0  0  0  0  0
  -20.6410  -28.0060   22.9000 C   0  0  0  0  0  3  0  0  0  0  0  0
  -20.7260  -26.6030   22.2570 C   0  0  0  0  0  2  0  0  0  0  0  0
  -19.5930  -26.3240   21.2650 C   0  0  0  0  0  2  0  0  0  0  0  0
  -18.2320  -26.4380   21.9590 C   0  0  0  0  0  2  0  0  0  0  0  0
  -19.2080  -28.5000   23.1270 C   0  0  0  0  0  0  0  0  0  0  0  0
  -19.0080  -29.7350   23.7800 C   0  0  0  0  0  3  0  0  0  0  0  0
  -17.7100  -30.2270   24.0080 C   0  0  0  0  0  3  0  0  0  0  0  0
  -16.5930  -29.4790   23.5970 C   0  0  0  0  0  3  0  0  0  0  0  0
  -16.7770  -28.2450   22.9480 C   0  0  0  0  0  3  0  0  0  0  0  0
  -25.8200  -32.2770   23.6200 C   0  0  0  0  0  3  0  0  0  0  0  0
  -25.4620  -33.6450   24.0170 N   0  0  0  0  0  0  0  0  0  0  0  0
  -25.7550  -34.7430   23.3080 C   0  0  0  0  0  0  0  0  0  0  0  0
  -26.4250  -34.7130   22.2710 O   0  0  0  0  0  0  0  0  0  0  0  0
  -24.8670  -33.7420   24.8270 H   0  0  0  0  0  0  0  0  0  0  0  0
  -23.9630  -36.4860   23.0420 C   0  0  0  0  0  1  0  0  0  0  0  0
  -25.2200  -36.0890   23.8320 C   0  0  0  0  0  3  0  0  0  0  0  0
  -27.3220  -37.0140   24.7030 C   0  0  0  0  0  1  0  0  0  0  0  0
  -26.2150  -37.1830   23.7650 N   0  0  0  0  0  0  0  0  0  0  0  0
  -25.7750  -38.0800   23.9510 H   0  0  0  0  0  0  0  0  0  0  0  0
  -26.3840  -31.4690   24.8530 C   0  0  1  0  0  0  0  0  0  0  0  0
  -25.3170  -31.1440   25.9230 C   0  0  0  0  0  1  0  0  0  0  0  0
  -27.0120  -30.1350   24.3890 C   0  0  0  0  0  1  0  0  0  0  0  0
  -27.5150  -32.2760   25.5340 C   0  0  0  0  0  1  0  0  0  0  0  0
  1  8  1  0
  2  3  1  0
  4  7  1  0
  5  6  1  6
  5  4  1  0
  5  2  1  0
  7  1  1  0
  7  3  1  0
  8  9  1  0
  8 10  1  0
 11 13  1  0
 12 16  1  0
 13  1  1  0
 14 12  2  0
 14 15  1  0
 15 11  2  0
 16 18  1  0
 16 13  2  0
 17 15  1  0
 19 27  1  0
 20 25  1  0
 21 22  1  0
 21 20  1  0
 23 22  1  0
 23 32  1  0
 23 24  1  0
 25 19  1  0
 25 24  1  0
 26 19  2  0
 27 14  1  0
 27 28  1  0
 29 30  2  0
 30 49  1  0
 31 30  1  0
 31 34  1  0
 32 33  1  0
 32 29  1  0
 33 31  2  0
 34 35  1  0
 35 36  2  0
 37 40  1  0
 37 36  1  0
 38 37  2  0
 39 38  1  0
 39 34  2  0
 40 41  1  0
 41 42  1  0
 42 43  2  0
 44 43  1  0
 44 48  1  0
 45 44  2  0
 46 41  2  0
 46 45  1  0
 47 46  1  0
 49 50  1  0
 50 53  1  0
 50 52  1  0
 51 49  2  0
 54 29  1  0
 54 55  1  0
 56 54  1  0
 57 58  1  0
 57  5  1  0
 59 70  2  0
 60 58  1  0
 60 65  1  0
 61 69  1  0
 61 71  1  0
 62 68  1  0
 62 64  1  0
 63 69  1  0
 64 63  1  0
 65 64  2  0
 66 67  1  0
 66 60  2  0
 67 62  2  0
 68 61  1  0
 69 59  1  0
 71 73  2  0
 72 71  1  0
 74 72  1  0
 75 84  2  0
 75 80  1  0
 76 72  1  0
 76 80  1  0
 77 76  1  0
 78 79  1  0
 78 77  1  0
 79 75  1  0
 80 81  2  0
 81 82  1  0
 83 82  2  0
 84 83  1  0
 85 59  1  0
 85 86  1  0
 85 95  1  0
 86 89  1  0
 87 91  1  0
 87 86  1  0
 88 87  2  0
 91 90  1  0
 93 91  1  0
 93 94  1  0
 93 92  1  0
 95 98  1  1
 95 96  1  0
 97 95  1  0
M  ISO  4  19 100  27 100  57 101  58 101
M  END
>  <TORSDO>  (49) 
F 18

>  <SCORE>  (49) 
-14.289

>  <name>  (49) 
48

>  <ligand_id>  (49) 
48

>  <original_smiles>  (49) 
[H]c1c([H])c([H])c2c(c1[H])C([H])([H])C([H])([H])C([H])([H])C2([H])N([H])C(=O)C1([H])N(C(=O)C([H])(N([H])C(=O)C([H])(N([H])C([H])([H])[H])C([H])([H])[H])C(C([H])([H])[H])(C([H])([H])[H])C([H])([H])[H])C([H])([H])c2c([H])c(OC([H])([H])C3(C([H])([H])[H])C([H])([H])N(C(c4c([H])c(F)c(N([H])C(=O)N5C([H])([H])C([H])([H])C([H])([H])C([H])(n6nc(-c7c([H])c([H])c(Oc8c([H])c([H])c(F)c([H])c8F)c([H])c7[H])c(C(=O)N([H])[H])c6N([H])[H])C5([H])[H])c([H])c4F)=[N+]([H])[H])C([H])([H])C3([H])[H])c([H])c([H])c2C1([H])[H]

>  <smiles>  (49) 
[H]c1c([H])c([H])c2c(c1[H])C([H])([H])C([H])([H])C([H])([H])C2([H])N([H])C(=O)C1([H])N(C(=O)C([H])(N([H])C(=O)C([H])(N([H])C([H])([H])[H])C([H])([H])[H])C(C([H])([H])[H])(C([H])([H])[H])C([H])([H])[H])C([H])([H])c2c([H])c(OC([H])([H])C3(C([H])([H])[H])C([H])([H])N(C(c4c([H])c(F)c(N([H])C(=O)N5C([H])([H])C([H])([H])C([H])([H])C([H])(n6nc(-c7c([H])c([H])c(Oc8c([H])c([H])c(F)c([H])c8F)c([H])c7[H])c(C(=O)N([H])[H])c6N([H])[H])C5([H])[H])c([H])c4F)=[N+]([H])[H])C([H])([H])C3([H])[H])c([H])c([H])c2C1([H])[H]

$$$$
49:0:0
     RDKit          3D

 92101  0  0  1  0  0  0  0  0999 V2000
  -30.1440  -22.4500   20.3780 C   0  0  0  0  0  0  0  0  0  0  0  0
  -30.1460  -21.3470   19.6100 N   0  0  0  0  0  0  0  0  0  0  0  0
  -30.0400  -22.4280   21.6060 O   0  0  0  0  0  0  0  0  0  0  0  0
  -30.1320  -21.5140   18.6130 H   0  0  0  0  0  0  0  0  0  0  0  0
  -30.6970  -14.5050   20.4920 C   0  0  0  0  0  0  0  0  0  0  0  0
  -30.3680  -12.3370   19.3570 C   0  0  0  0  0  2  0  0  0  0  0  0
  -29.4270  -12.5150   18.1490 C   0  0  0  0  0  2  0  0  0  0  0  0
  -27.9580  -12.3450   18.5840 C   0  0  0  0  0  2  0  0  0  0  0  0
  -27.6030  -13.2060   19.8230 C   0  0  0  0  0  3  0  0  0  0  0  0
  -28.6660  -13.0590   20.9390 C   0  0  0  0  0  2  0  0  0  0  0  0
  -29.9890  -13.3450   20.3620 N   0  0  0  0  0  0  0  0  0  0  0  0
  -31.8630  -14.6090   20.0970 O   0  0  0  0  0  0  0  0  0  0  0  0
  -30.6850  -19.3450   20.9850 C   0  0  0  0  0  3  0  0  0  0  0  0
  -30.3390  -17.9550   20.9780 C   0  0  0  0  0  0  0  0  0  0  0  0
  -29.4160  -17.6530   20.0630 C   0  0  0  0  0  0  0  0  0  0  0  0
  -30.0150  -20.0520   19.9960 C   0  0  0  0  0  0  0  0  0  0  0  0
  -30.7320  -16.6940   21.6880 C   0  0  0  0  0  2  0  0  0  0  0  0
  -29.0530  -16.2320   20.0430 C   0  0  0  0  0  2  0  0  0  0  0  0
  -30.0280  -15.5910   20.9590 N   0  0  0  0  0  0  0  0  0  0  0  0
  -28.9310  -19.0000   19.0930 S   0  0  0  0  0  0  0  0  0  0  0  0
  -25.2170  -13.8340   20.5400 C   0  0  0  0  0  0  0  0  0  0  0  0
  -24.1480  -13.0670   20.9140 C   0  0  0  0  0  0  0  0  0  0  0  0
  -24.6060  -11.7150   20.8900 C   0  0  0  0  0  0  0  0  0  0  0  0
  -26.2570  -12.9440   20.3120 N   0  0  0  0  0  0  0  0  0  0  0  0
  -25.8960  -11.6680   20.5840 N   0  0  0  0  0  0  0  0  0  0  0  0
  -23.8800  -10.4560   21.0810 C   0  0  0  0  0  0  0  0  0  0  0  0
  -24.3240   -9.4830   22.0020 C   0  0  0  0  0  3  0  0  0  0  0  0
  -23.6010   -8.2850   22.1810 C   0  0  0  0  0  3  0  0  0  0  0  0
  -22.4190   -8.0520   21.4390 C   0  0  0  0  0  0  0  0  0  0  0  0
  -21.9960   -9.0130   20.5050 C   0  0  0  0  0  3  0  0  0  0  0  0
  -22.7200  -10.2040   20.3230 C   0  0  0  0  0  3  0  0  0  0  0  0
  -21.6650   -6.9080   21.5280 O   0  0  0  0  0  0  0  0  0  0  0  0
  -21.6420   -6.1490   22.6710 C   0  0  0  0  0  0  0  0  0  0  0  0
  -21.2560   -6.6890   23.9170 C   0  0  0  0  0  3  0  0  0  0  0  0
  -21.1810   -5.8580   25.0520 C   0  0  0  0  0  3  0  0  0  0  0  0
  -21.4810   -4.4860   24.9420 C   0  0  0  0  0  0  0  0  0  0  0  0
  -21.8620   -3.9460   23.7010 C   0  0  0  0  0  3  0  0  0  0  0  0
  -21.9390   -4.7760   22.5680 C   0  0  0  0  0  0  0  0  0  0  0  0
  -22.2850   -4.2470   21.3700 F   0  0  0  0  0  0  0  0  0  0  0  0
  -21.4020   -3.6840   26.0290 F   0  0  0  0  0  0  0  0  0  0  0  0
  -22.7500  -13.5480   21.1800 C   0  0  0  0  0  0  0  0  0  0  0  0
  -22.0180  -12.8570   22.0470 N   0  0  0  0  0  0  0  0  0  0  0  0
  -22.3180  -14.5730   20.6560 O   0  0  0  0  0  0  0  0  0  0  0  0
  -22.3790  -12.0300   22.4960 H   0  0  0  0  0  0  0  0  0  0  0  0
  -21.0800  -13.1630   22.2660 H   0  0  0  0  0  0  0  0  0  0  0  0
  -25.3780  -15.2020   20.3460 N   0  0  0  0  0  0  0  0  0  0  0  0
  -24.5950  -15.8420   20.4320 H   0  0  0  0  0  0  0  0  0  0  0  0
  -26.2020  -15.6380   19.9600 H   0  0  0  0  0  0  0  0  0  0  0  0
  -30.3000  -23.7900   19.6420 C   0  0  0  0  0  2  0  0  0  0  0  0
  -28.9620  -24.4920   19.2990 C   0  0  0  0  0  2  0  0  0  0  0  0
  -28.3430  -25.3260   20.4420 C   0  0  0  0  0  2  0  0  0  0  0  0
  -28.4130  -26.7340   20.1600 O   0  0  0  0  0  0  0  0  0  0  0  0
  -24.5930  -31.8850   23.2380 C   0  0  0  0  0  0  0  0  0  0  0  0
  -27.2290  -27.4440   20.1560 C   0  0  0  0  0  0  0  0  0  0  0  0
  -23.3790  -30.4820   21.6000 C   0  0  0  0  0  3  0  0  0  0  0  0
  -24.8280  -28.9430   20.1700 C   0  0  0  0  0  0  0  0  0  0  0  0
  -25.9030  -30.8450   21.3890 C   0  0  0  0  0  2  0  0  0  0  0  0
  -25.9880  -29.4720   20.7510 C   0  0  0  0  0  0  0  0  0  0  0  0
  -27.1920  -28.7320   20.7360 C   0  0  0  0  0  3  0  0  0  0  0  0
  -26.0540  -26.9310   19.5600 C   0  0  0  0  0  3  0  0  0  0  0  0
  -24.8560  -27.6720   19.5700 C   0  0  0  0  0  3  0  0  0  0  0  0
  -23.5820  -29.7990   20.2210 C   0  0  0  0  0  2  0  0  0  0  0  0
  -24.6440  -31.0850   22.1340 N   0  0  0  0  0  0  0  0  0  0  0  0
  -23.5150  -32.1560   23.7830 O   0  0  0  0  0  0  0  0  0  0  0  0
  -22.7330  -29.4630   22.5650 C   0  0  0  0  0  0  0  0  0  0  0  0
  -21.4080  -29.2820   22.4430 N   0  0  0  0  0  0  0  0  0  0  0  0
  -23.4200  -28.8360   23.3750 O   0  0  0  0  0  0  0  0  0  0  0  0
  -20.9170  -29.8380   21.7580 H   0  0  0  0  0  0  0  0  0  0  0  0
  -18.0350  -28.0930   22.9550 C   0  0  0  0  0  0  0  0  0  0  0  0
  -20.5930  -28.3460   23.2160 C   0  0  0  0  0  3  0  0  0  0  0  0
  -20.6920  -26.9150   22.6380 C   0  0  0  0  0  2  0  0  0  0  0  0
  -19.5860  -26.5950   21.6280 C   0  0  0  0  0  2  0  0  0  0  0  0
  -18.2070  -26.7430   22.2790 C   0  0  0  0  0  2  0  0  0  0  0  0
  -19.1570  -28.8520   23.3800 C   0  0  0  0  0  0  0  0  0  0  0  0
  -18.9430  -30.1160   23.9710 C   0  0  0  0  0  3  0  0  0  0  0  0
  -17.6410  -30.6210   24.1400 C   0  0  0  0  0  3  0  0  0  0  0  0
  -16.5330  -29.8580   23.7320 C   0  0  0  0  0  3  0  0  0  0  0  0
  -16.7310  -28.5970   23.1430 C   0  0  0  0  0  3  0  0  0  0  0  0
  -25.8830  -32.5150   23.8510 C   0  0  0  0  0  3  0  0  0  0  0  0
  -26.4090  -31.7410   25.1220 C   0  0  1  0  0  0  0  0  0  0  0  0
  -25.3260  -31.5020   26.1980 C   0  0  0  0  0  1  0  0  0  0  0  0
  -26.9880  -30.3650   24.7200 C   0  0  0  0  0  1  0  0  0  0  0  0
  -27.5670  -32.5330   25.7760 C   0  0  0  0  0  1  0  0  0  0  0  0
  -25.5760  -33.9130   24.1840 N   0  0  0  0  0  0  0  0  0  0  0  0
  -25.9100  -34.9660   23.4250 C   0  0  0  0  0  0  0  0  0  0  0  0
  -26.5800  -34.8620   22.3940 O   0  0  0  0  0  0  0  0  0  0  0  0
  -24.9830  -34.0660   24.9860 H   0  0  0  0  0  0  0  0  0  0  0  0
  -24.1850  -36.7580   23.0680 C   0  0  0  0  0  1  0  0  0  0  0  0
  -25.4230  -36.3530   23.8830 C   0  0  0  0  0  3  0  0  0  0  0  0
  -27.5580  -37.2320   24.7190 C   0  0  0  0  0  1  0  0  0  0  0  0
  -26.4590  -37.4040   23.7730 N   0  0  0  0  0  0  0  0  0  0  0  0
  -26.0550  -38.3240   23.9210 H   0  0  0  0  0  0  0  0  0  0  0  0
  1  3  2  0
  2 16  1  0
  2  1  1  0
  4  2  1  0
  5 19  1  0
  6 11  1  0
  7  8  1  0
  7  6  1  0
  9  8  1  0
  9 24  1  0
  9 10  1  0
 11  5  1  0
 11 10  1  0
 12  5  2  0
 14 13  1  0
 14 17  1  0
 15 14  2  0
 16 13  2  0
 18 15  1  0
 18 19  1  0
 19 17  1  0
 20 16  1  0
 20 15  1  0
 21 22  2  0
 22 41  1  0
 23 22  1  0
 23 26  1  0
 24 21  1  0
 24 25  1  0
 25 23  2  0
 26 27  1  0
 27 28  2  0
 29 32  1  0
 29 28  1  0
 30 29  2  0
 31 30  1  0
 31 26  2  0
 32 33  1  0
 33 34  1  0
 34 35  2  0
 36 35  1  0
 36 40  1  0
 37 36  2  0
 38 33  2  0
 38 37  1  0
 39 38  1  0
 41 42  1  0
 42 45  1  0
 42 44  1  0
 43 41  2  0
 46 47  1  0
 46 21  1  0
 48 46  1  0
 49  1  1  0
 50 49  1  0
 50 51  1  0
 52 51  1  0
 53 64  2  0
 54 52  1  0
 54 59  1  0
 55 63  1  0
 55 65  1  0
 56 62  1  0
 56 58  1  0
 57 63  1  0
 58 57  1  0
 59 58  2  0
 60 61  1  0
 60 54  2  0
 61 56  2  0
 62 55  1  0
 63 53  1  0
 65 67  2  0
 66 65  1  0
 68 66  1  0
 69 78  2  0
 69 74  1  0
 70 66  1  0
 70 74  1  0
 71 70  1  0
 72 73  1  0
 72 71  1  0
 73 69  1  0
 74 75  2  0
 75 76  1  0
 77 76  2  0
 78 77  1  0
 79 53  1  0
 79 84  1  0
 79 80  1  0
 80 83  1  1
 80 81  1  0
 82 80  1  0
 84 87  1  0
 85 89  1  0
 85 84  1  0
 86 85  2  0
 89 88  1  0
 91 89  1  0
 91 92  1  0
 91 90  1  0
M  ISO  4   5 100  19 100  51 101  52 101
M  END
>  <TORSDO>  (50) 
F 19

>  <SCORE>  (50) 
-14.512

>  <name>  (50) 
49

>  <ligand_id>  (50) 
49

>  <original_smiles>  (50) 
[H]c1c([H])c([H])c2c(c1[H])C([H])([H])C([H])([H])C([H])([H])C2([H])N([H])C(=O)C1([H])N(C(=O)C([H])(N([H])C(=O)C([H])(N([H])C([H])([H])[H])C([H])([H])[H])C(C([H])([H])[H])(C([H])([H])[H])C([H])([H])[H])C([H])([H])c2c([H])c(OC([H])([H])C([H])([H])C([H])([H])C(=O)N([H])c3sc4c(c3[H])C([H])([H])N(C(=O)N3C([H])([H])C([H])([H])C([H])([H])C([H])(n5nc(-c6c([H])c([H])c(Oc7c([H])c([H])c(F)c([H])c7F)c([H])c6[H])c(C(=O)N([H])[H])c5N([H])[H])C3([H])[H])C4([H])[H])c([H])c([H])c2C1([H])[H]

>  <smiles>  (50) 
[H]c1c([H])c([H])c2c(c1[H])C([H])([H])C([H])([H])C([H])([H])C2([H])N([H])C(=O)C1([H])N(C(=O)C([H])(N([H])C(=O)C([H])(N([H])C([H])([H])[H])C([H])([H])[H])C(C([H])([H])[H])(C([H])([H])[H])C([H])([H])[H])C([H])([H])c2c([H])c(OC([H])([H])C([H])([H])C([H])([H])C(=O)N([H])c3sc4c(c3[H])C([H])([H])N(C(=O)N3C([H])([H])C([H])([H])C([H])([H])C([H])(n5nc(-c6c([H])c([H])c(Oc7c([H])c([H])c(F)c([H])c7F)c([H])c6[H])c(C(=O)N([H])[H])c5N([H])[H])C3([H])[H])C4([H])[H])c([H])c([H])c2C1([H])[H]

$$$$
50:0:0
     RDKit          3D

 88 97  0  0  1  0  0  0  0  0999 V2000
  -28.6970  -22.3020   19.0420 C   0  0  0  0  0  2  0  0  0  0  0  0
  -28.5590  -21.4860   20.3010 C   0  0  0  0  0  3  0  0  0  0  0  0
  -28.8690  -23.1670   20.2730 C   0  0  0  0  0  3  0  0  0  0  0  0
  -30.7870  -19.7850   20.4160 C   0  0  0  0  0  3  0  0  0  0  0  0
  -31.0420  -18.3500   20.4400 C   0  0  0  0  0  3  0  0  0  0  0  0
  -29.4350  -20.0700   20.3820 C   0  0  0  0  0  0  0  0  0  0  0  0
  -29.8510  -17.6660   20.4220 C   0  0  0  0  0  0  0  0  0  0  0  0
  -28.8540  -18.7300   20.3920 O   0  0  0  0  0  0  0  0  0  0  0  0
  -30.4600  -15.0490   20.2980 C   0  0  0  0  0  0  0  0  0  0  0  0
  -30.3610  -12.6850   19.3440 C   0  0  0  0  0  2  0  0  0  0  0  0
  -29.4080  -12.6240   18.1260 C   0  0  0  0  0  2  0  0  0  0  0  0
  -27.9540  -12.3930   18.5800 C   0  0  0  0  0  2  0  0  0  0  0  0
  -27.5560  -13.3080   19.7680 C   0  0  0  0  0  3  0  0  0  0  0  0
  -28.6290  -13.3330   20.8770 C   0  0  0  0  0  2  0  0  0  0  0  0
  -29.8810  -13.7750   20.2470 N   0  0  0  0  0  0  0  0  0  0  0  0
  -31.6630  -15.1110   20.0060 O   0  0  0  0  0  0  0  0  0  0  0  0
  -29.6530  -16.2250   20.4640 N   0  0  0  0  0  0  0  0  0  0  0  0
  -28.6890  -15.9780   20.6210 H   0  0  0  0  0  0  0  0  0  0  0  0
  -25.1880  -13.8650   20.5550 C   0  0  0  0  0  0  0  0  0  0  0  0
  -24.1340  -13.0820   20.9360 C   0  0  0  0  0  0  0  0  0  0  0  0
  -24.6030  -11.7340   20.8840 C   0  0  0  0  0  0  0  0  0  0  0  0
  -26.2300  -12.9950   20.2870 N   0  0  0  0  0  0  0  0  0  0  0  0
  -25.8900  -11.7070   20.5510 N   0  0  0  0  0  0  0  0  0  0  0  0
  -23.8850  -10.4660   21.0740 C   0  0  0  0  0  0  0  0  0  0  0  0
  -24.3380   -9.4880   21.9870 C   0  0  0  0  0  3  0  0  0  0  0  0
  -23.6180   -8.2870   22.1660 C   0  0  0  0  0  3  0  0  0  0  0  0
  -22.4300   -8.0550   21.4320 C   0  0  0  0  0  0  0  0  0  0  0  0
  -21.9960   -9.0220   20.5090 C   0  0  0  0  0  3  0  0  0  0  0  0
  -22.7170  -10.2140   20.3280 C   0  0  0  0  0  3  0  0  0  0  0  0
  -21.6800   -6.9080   21.5200 O   0  0  0  0  0  0  0  0  0  0  0  0
  -21.6570   -6.1500   22.6630 C   0  0  0  0  0  0  0  0  0  0  0  0
  -21.2470   -6.6840   23.9050 C   0  0  0  0  0  3  0  0  0  0  0  0
  -21.1730   -5.8520   25.0390 C   0  0  0  0  0  3  0  0  0  0  0  0
  -21.5000   -4.4870   24.9340 C   0  0  0  0  0  0  0  0  0  0  0  0
  -21.9040   -3.9510   23.6980 C   0  0  0  0  0  3  0  0  0  0  0  0
  -21.9800   -4.7810   22.5660 C   0  0  0  0  0  0  0  0  0  0  0  0
  -22.3500   -4.2570   21.3720 F   0  0  0  0  0  0  0  0  0  0  0  0
  -21.4200   -3.6850   26.0220 F   0  0  0  0  0  0  0  0  0  0  0  0
  -22.7400  -13.5510   21.2320 C   0  0  0  0  0  0  0  0  0  0  0  0
  -22.0300  -12.8500   22.1080 N   0  0  0  0  0  0  0  0  0  0  0  0
  -22.2910  -14.5760   20.7210 O   0  0  0  0  0  0  0  0  0  0  0  0
  -22.4090  -12.0230   22.5440 H   0  0  0  0  0  0  0  0  0  0  0  0
  -21.0960  -13.1490   22.3500 H   0  0  0  0  0  0  0  0  0  0  0  0
  -25.3410  -15.2380   20.3870 N   0  0  0  0  0  0  0  0  0  0  0  0
  -24.5650  -15.8800   20.5050 H   0  0  0  0  0  0  0  0  0  0  0  0
  -26.1630  -15.6810   19.9980 H   0  0  0  0  0  0  0  0  0  0  0  0
  -27.8950  -24.5550   20.3600 C   0  0  0  0  0  2  0  0  0  0  0  0
  -28.2150  -26.1050   20.2640 O   0  0  0  0  0  0  0  0  0  0  0  0
  -24.6570  -31.8990   23.2470 C   0  0  0  0  0  0  0  0  0  0  0  0
  -27.1770  -27.1240   20.2190 C   0  0  0  0  0  0  0  0  0  0  0  0
  -23.4400  -30.5100   21.6160 C   0  0  0  0  0  3  0  0  0  0  0  0
  -24.8700  -28.9210   20.1860 C   0  0  0  0  0  0  0  0  0  0  0  0
  -25.9980  -30.7460   21.4430 C   0  0  0  0  0  2  0  0  0  0  0  0
  -26.0580  -29.3480   20.7930 C   0  0  0  0  0  0  0  0  0  0  0  0
  -27.2120  -28.4680   20.7890 C   0  0  0  0  0  3  0  0  0  0  0  0
  -25.9630  -26.8170   19.5640 C   0  0  0  0  0  3  0  0  0  0  0  0
  -24.8380  -27.6710   19.5550 C   0  0  0  0  0  3  0  0  0  0  0  0
  -23.6520  -29.8320   20.2370 C   0  0  0  0  0  2  0  0  0  0  0  0
  -24.7190  -31.0740   22.1560 N   0  0  0  0  0  0  0  0  0  0  0  0
  -23.5740  -32.1920   23.7800 O   0  0  0  0  0  0  0  0  0  0  0  0
  -22.7570  -29.5090   22.5830 C   0  0  0  0  0  0  0  0  0  0  0  0
  -21.4270  -29.3450   22.4600 N   0  0  0  0  0  0  0  0  0  0  0  0
  -23.4270  -28.8830   23.4090 O   0  0  0  0  0  0  0  0  0  0  0  0
  -20.9410  -29.9010   21.7700 H   0  0  0  0  0  0  0  0  0  0  0  0
  -18.0450  -28.1470   22.9670 C   0  0  0  0  0  0  0  0  0  0  0  0
  -20.6030  -28.4130   23.2360 C   0  0  0  0  0  3  0  0  0  0  0  0
  -20.7060  -26.9760   22.6730 C   0  0  0  0  0  2  0  0  0  0  0  0
  -19.6060  -26.6440   21.6600 C   0  0  0  0  0  2  0  0  0  0  0  0
  -18.2230  -26.7930   22.3010 C   0  0  0  0  0  2  0  0  0  0  0  0
  -19.1630  -28.9140   23.3930 C   0  0  0  0  0  0  0  0  0  0  0  0
  -18.9410  -30.1780   23.9800 C   0  0  0  0  0  3  0  0  0  0  0  0
  -17.6350  -30.6780   24.1440 C   0  0  0  0  0  3  0  0  0  0  0  0
  -16.5320  -29.9090   23.7340 C   0  0  0  0  0  3  0  0  0  0  0  0
  -16.7390  -28.6450   23.1510 C   0  0  0  0  0  3  0  0  0  0  0  0
  -25.9400  -32.5280   23.8680 C   0  0  0  0  0  3  0  0  0  0  0  0
  -25.6350  -33.9270   24.2080 N   0  0  0  0  0  0  0  0  0  0  0  0
  -25.9460  -34.9860   23.4490 C   0  0  0  0  0  0  0  0  0  0  0  0
  -26.5860  -34.8880   22.3990 O   0  0  0  0  0  0  0  0  0  0  0  0
  -25.0610  -34.0770   25.0250 H   0  0  0  0  0  0  0  0  0  0  0  0
  -24.2010  -36.7780   23.1680 C   0  0  0  0  0  1  0  0  0  0  0  0
  -25.4740  -36.3730   23.9280 C   0  0  0  0  0  3  0  0  0  0  0  0
  -27.6350  -37.2680   24.6750 C   0  0  0  0  0  1  0  0  0  0  0  0
  -26.4970  -37.4300   23.7740 N   0  0  0  0  0  0  0  0  0  0  0  0
  -26.0940  -38.3480   23.9370 H   0  0  0  0  0  0  0  0  0  0  0  0
  -26.4560  -31.7540   25.1440 C   0  0  1  0  0  0  0  0  0  0  0  0
  -25.3660  -31.5240   26.2150 C   0  0  0  0  0  1  0  0  0  0  0  0
  -27.0290  -30.3720   24.7560 C   0  0  0  0  0  1  0  0  0  0  0  0
  -27.6130  -32.5420   25.8020 C   0  0  0  0  0  1  0  0  0  0  0  0
  1  3  1  0
  1  2  1  0
  2  6  1  0
  3  2  1  0
  3 47  1  0
  4  5  1  0
  6  8  1  0
  6  4  2  0
  7  5  2  0
  7 17  1  0
  8  7  1  0
  9 17  1  0
 10 15  1  0
 11 12  1  0
 11 10  1  0
 13 12  1  0
 13 22  1  0
 13 14  1  0
 15  9  1  0
 15 14  1  0
 16  9  2  0
 17 18  1  0
 19 20  2  0
 20 39  1  0
 21 20  1  0
 21 24  1  0
 22 23  1  0
 22 19  1  0
 23 21  2  0
 24 25  1  0
 25 26  2  0
 27 30  1  0
 27 26  1  0
 28 27  2  0
 29 28  1  0
 29 24  2  0
 30 31  1  0
 31 32  1  0
 32 33  2  0
 34 33  1  0
 34 38  1  0
 35 34  2  0
 36 31  2  0
 36 35  1  0
 37 36  1  0
 39 40  1  0
 40 43  1  0
 40 42  1  0
 41 39  2  0
 44 45  1  0
 44 19  1  0
 46 44  1  0
 48 47  1  0
 49 60  2  0
 50 48  1  0
 50 55  1  0
 51 59  1  0
 51 61  1  0
 52 58  1  0
 52 54  1  0
 53 59  1  0
 54 53  1  0
 55 54  2  0
 56 50  2  0
 57 56  1  0
 57 52  2  0
 58 51  1  0
 59 49  1  0
 61 63  2  0
 62 61  1  0
 64 62  1  0
 65 74  2  0
 65 70  1  0
 66 62  1  0
 66 70  1  0
 67 66  1  0
 68 69  1  0
 68 67  1  0
 69 65  1  0
 70 71  2  0
 71 72  1  0
 73 72  2  0
 74 73  1  0
 75 49  1  0
 75 76  1  0
 75 85  1  0
 76 79  1  0
 77 81  1  0
 77 76  1  0
 78 77  2  0
 81 80  1  0
 83 81  1  0
 83 84  1  0
 83 82  1  0
 85 88  1  1
 85 86  1  0
 87 85  1  0
M  ISO  4   9 100  17 100  47 101  48 101
M  END
>  <TORSDO>  (51) 
F 18

>  <SCORE>  (51) 
-15.280

>  <name>  (51) 
50

>  <ligand_id>  (51) 
50

>  <original_smiles>  (51) 
[H]c1c(N([H])C(=O)N2C([H])([H])C([H])([H])C([H])([H])C([H])(n3nc(-c4c([H])c([H])c(Oc5c([H])c([H])c(F)c([H])c5F)c([H])c4[H])c(C(=O)N([H])[H])c3N([H])[H])C2([H])[H])oc(C2([H])C([H])([H])C2([H])C([H])([H])Oc2c([H])c([H])c3c(c2[H])C([H])([H])N(C(=O)C([H])(N([H])C(=O)C([H])(N([H])C([H])([H])[H])C([H])([H])[H])C(C([H])([H])[H])(C([H])([H])[H])C([H])([H])[H])C([H])(C(=O)N([H])C2([H])c4c([H])c([H])c([H])c([H])c4C([H])([H])C([H])([H])C2([H])[H])C3([H])[H])c1[H]

>  <smiles>  (51) 
[H]c1c(N([H])C(=O)N2C([H])([H])C([H])([H])C([H])([H])C([H])(n3nc(-c4c([H])c([H])c(Oc5c([H])c([H])c(F)c([H])c5F)c([H])c4[H])c(C(=O)N([H])[H])c3N([H])[H])C2([H])[H])oc(C2([H])C([H])([H])C2([H])C([H])([H])Oc2c([H])c([H])c3c(c2[H])C([H])([H])N(C(=O)C([H])(N([H])C(=O)C([H])(N([H])C([H])([H])[H])C([H])([H])[H])C(C([H])([H])[H])(C([H])([H])[H])C([H])([H])[H])C([H])(C(=O)N([H])C2([H])c4c([H])c([H])c([H])c([H])c4C([H])([H])C([H])([H])C2([H])[H])C3([H])[H])c1[H]

$$$$
51:0:0
     RDKit          3D

 93102  0  0  1  0  0  0  0  0999 V2000
  -30.3490  -23.7900   20.2530 C   0  0  0  0  0  2  0  0  0  0  0  0
  -30.7740  -22.3060   20.1210 C   0  0  0  0  0  2  0  0  0  0  0  0
  -28.4540  -22.4070   20.6850 C   0  0  0  0  0  3  0  0  0  0  0  0
  -28.8200  -23.8330   20.0670 C   0  0  2  0  0  0  0  0  0  0  0  0
  -28.2050  -22.4630   22.2050 C   0  0  0  0  0  1  0  0  0  0  0  0
  -28.4640  -23.8280   18.5670 C   0  0  0  0  0  1  0  0  0  0  0  0
  -29.5890  -21.4940   20.3860 N   0  0  0  0  0  0  0  0  0  0  0  0
  -30.8470  -19.3190   20.2420 C   0  0  0  0  0  3  0  0  0  0  0  0
  -28.5390  -19.2630   20.8870 C   0  0  0  0  0  3  0  0  0  0  0  0
  -30.9290  -17.8950   20.3550 C   0  0  0  0  0  3  0  0  0  0  0  0
  -28.6200  -17.8450   21.0110 C   0  0  0  0  0  3  0  0  0  0  0  0
  -29.6530  -20.0560   20.5060 C   0  0  0  0  0  0  0  0  0  0  0  0
  -29.8100  -17.1140   20.7450 C   0  0  0  0  0  0  0  0  0  0  0  0
  -30.6100  -14.6380   20.5120 C   0  0  0  0  0  0  0  0  0  0  0  0
  -30.4420  -12.3930   19.4500 C   0  0  0  0  0  2  0  0  0  0  0  0
  -29.5080  -12.5120   18.2240 C   0  0  0  0  0  2  0  0  0  0  0  0
  -28.0300  -12.3490   18.6330 C   0  0  0  0  0  2  0  0  0  0  0  0
  -27.6550  -13.2130   19.8660 C   0  0  0  0  0  3  0  0  0  0  0  0
  -28.6990  -13.0520   20.9940 C   0  0  0  0  0  2  0  0  0  0  0  0
  -30.0160  -13.4050   20.4370 N   0  0  0  0  0  0  0  0  0  0  0  0
  -31.7660  -14.8190   20.1180 O   0  0  0  0  0  0  0  0  0  0  0  0
  -29.7810  -15.6580   20.9000 N   0  0  0  0  0  0  0  0  0  0  0  0
  -28.8980  -15.3020   21.2300 H   0  0  0  0  0  0  0  0  0  0  0  0
  -25.2570  -13.8160   20.5670 C   0  0  0  0  0  0  0  0  0  0  0  0
  -24.1830  -13.0430   20.9190 C   0  0  0  0  0  0  0  0  0  0  0  0
  -24.6400  -11.6900   20.8740 C   0  0  0  0  0  0  0  0  0  0  0  0
  -26.2990  -12.9330   20.3320 N   0  0  0  0  0  0  0  0  0  0  0  0
  -25.9320  -11.6490   20.5760 N   0  0  0  0  0  0  0  0  0  0  0  0
  -23.9060  -10.4290   21.0410 C   0  0  0  0  0  0  0  0  0  0  0  0
  -24.3610   -9.4210   21.9180 C   0  0  0  0  0  3  0  0  0  0  0  0
  -23.6290   -8.2240   22.0750 C   0  0  0  0  0  3  0  0  0  0  0  0
  -22.4270   -8.0280   21.3540 C   0  0  0  0  0  0  0  0  0  0  0  0
  -21.9910   -9.0260   20.4650 C   0  0  0  0  0  3  0  0  0  0  0  0
  -22.7230  -10.2140   20.3060 C   0  0  0  0  0  3  0  0  0  0  0  0
  -21.6640   -6.8880   21.4240 O   0  0  0  0  0  0  0  0  0  0  0  0
  -21.6860   -6.0730   22.5280 C   0  0  0  0  0  0  0  0  0  0  0  0
  -21.4020   -6.5640   23.8210 C   0  0  0  0  0  3  0  0  0  0  0  0
  -21.3660   -5.6790   24.9170 C   0  0  0  0  0  3  0  0  0  0  0  0
  -21.6040   -4.3060   24.7220 C   0  0  0  0  0  0  0  0  0  0  0  0
  -21.8820   -3.8140   23.4350 C   0  0  0  0  0  3  0  0  0  0  0  0
  -21.9190   -4.6960   22.3400 C   0  0  0  0  0  0  0  0  0  0  0  0
  -22.1660   -4.2150   21.0980 F   0  0  0  0  0  0  0  0  0  0  0  0
  -21.5630   -3.4540   25.7740 F   0  0  0  0  0  0  0  0  0  0  0  0
  -22.7860  -13.5230   21.1850 C   0  0  0  0  0  0  0  0  0  0  0  0
  -22.0500  -12.8230   22.0410 N   0  0  0  0  0  0  0  0  0  0  0  0
  -22.3540  -14.5540   20.6690 O   0  0  0  0  0  0  0  0  0  0  0  0
  -22.4120  -11.9900   22.4810 H   0  0  0  0  0  0  0  0  0  0  0  0
  -21.1120  -13.1260   22.2610 H   0  0  0  0  0  0  0  0  0  0  0  0
  -25.4280  -15.1880   20.4050 N   0  0  0  0  0  0  0  0  0  0  0  0
  -24.6550  -15.8380   20.4950 H   0  0  0  0  0  0  0  0  0  0  0  0
  -26.2630  -15.6180   20.0290 H   0  0  0  0  0  0  0  0  0  0  0  0
  -28.1260  -25.1240   20.7170 C   0  0  0  0  0  2  0  0  0  0  0  0
  -28.3370  -26.4780   20.1520 O   0  0  0  0  0  0  0  0  0  0  0  0
  -24.6250  -31.8600   23.2030 C   0  0  0  0  0  0  0  0  0  0  0  0
  -27.2270  -27.3300   20.1270 C   0  0  0  0  0  0  0  0  0  0  0  0
  -23.4190  -30.4820   21.5440 C   0  0  0  0  0  3  0  0  0  0  0  0
  -24.8680  -28.9370   20.1120 C   0  0  0  0  0  0  0  0  0  0  0  0
  -25.9580  -30.7950   21.3720 C   0  0  0  0  0  2  0  0  0  0  0  0
  -26.0350  -29.4220   20.7170 C   0  0  0  0  0  0  0  0  0  0  0  0
  -27.2210  -28.6310   20.7120 C   0  0  0  0  0  3  0  0  0  0  0  0
  -26.0440  -26.8940   19.4940 C   0  0  0  0  0  3  0  0  0  0  0  0
  -24.8730  -27.6770   19.4910 C   0  0  0  0  0  3  0  0  0  0  0  0
  -23.6350  -29.8150   20.1600 C   0  0  0  0  0  2  0  0  0  0  0  0
  -24.6860  -31.0620   22.0970 N   0  0  0  0  0  0  0  0  0  0  0  0
  -23.5410  -32.1390   23.7360 O   0  0  0  0  0  0  0  0  0  0  0  0
  -22.7470  -29.4620   22.4940 C   0  0  0  0  0  0  0  0  0  0  0  0
  -21.4190  -29.3040   22.3680 N   0  0  0  0  0  0  0  0  0  0  0  0
  -23.4200  -28.8170   23.3020 O   0  0  0  0  0  0  0  0  0  0  0  0
  -20.9370  -29.8760   21.6890 H   0  0  0  0  0  0  0  0  0  0  0  0
  -18.0290  -28.1380   22.8490 C   0  0  0  0  0  0  0  0  0  0  0  0
  -20.5890  -28.3690   23.1290 C   0  0  0  0  0  3  0  0  0  0  0  0
  -20.6770  -26.9410   22.5410 C   0  0  0  0  0  2  0  0  0  0  0  0
  -19.5750  -26.6390   21.5210 C   0  0  0  0  0  2  0  0  0  0  0  0
  -18.1930  -26.7930   22.1630 C   0  0  0  0  0  2  0  0  0  0  0  0
  -19.1540  -28.8850   23.2880 C   0  0  0  0  0  0  0  0  0  0  0  0
  -18.9460  -30.1450   23.8900 C   0  0  0  0  0  3  0  0  0  0  0  0
  -17.6460  -30.6590   24.0560 C   0  0  0  0  0  3  0  0  0  0  0  0
  -16.5350  -29.9090   23.6330 C   0  0  0  0  0  3  0  0  0  0  0  0
  -16.7280  -28.6500   23.0350 C   0  0  0  0  0  3  0  0  0  0  0  0
  -25.9100  -32.4780   23.8350 C   0  0  0  0  0  3  0  0  0  0  0  0
  -25.5910  -33.8580   24.2280 N   0  0  0  0  0  0  0  0  0  0  0  0
  -25.9050  -34.9460   23.5110 C   0  0  0  0  0  0  0  0  0  0  0  0
  -26.5620  -34.8920   22.4670 O   0  0  0  0  0  0  0  0  0  0  0  0
  -25.0060  -33.9730   25.0420 H   0  0  0  0  0  0  0  0  0  0  0  0
  -24.1490  -36.7300   23.2640 C   0  0  0  0  0  1  0  0  0  0  0  0
  -25.4110  -36.3090   24.0330 C   0  0  0  0  0  3  0  0  0  0  0  0
  -27.5580  -37.1810   24.8470 C   0  0  0  0  0  1  0  0  0  0  0  0
  -26.4300  -37.3780   23.9400 N   0  0  0  0  0  0  0  0  0  0  0  0
  -26.0180  -38.2860   24.1390 H   0  0  0  0  0  0  0  0  0  0  0  0
  -26.4490  -31.6590   25.0720 C   0  0  1  0  0  0  0  0  0  0  0  0
  -25.3730  -31.3730   26.1450 C   0  0  0  0  0  1  0  0  0  0  0  0
  -27.0330  -30.3020   24.6160 C   0  0  0  0  0  1  0  0  0  0  0  0
  -27.6050  -32.4320   25.7480 C   0  0  0  0  0  1  0  0  0  0  0  0
  2  1  1  0
  2  7  1  0
  3  5  1  0
  4  6  1  6
  4  1  1  0
  4  3  1  0
  4 52  1  0
  7 12  1  0
  7  3  1  0
  8 10  2  0
  8 12  1  0
  9 11  1  0
 10 13  1  0
 12  9  2  0
 13 22  1  0
 13 11  2  0
 14 22  1  0
 15 20  1  0
 16 17  1  0
 16 15  1  0
 18 17  1  0
 18 27  1  0
 18 19  1  0
 20 14  1  0
 20 19  1  0
 21 14  2  0
 22 23  1  0
 24 25  2  0
 25 44  1  0
 26 25  1  0
 26 29  1  0
 27 24  1  0
 27 28  1  0
 28 26  2  0
 29 30  1  0
 30 31  2  0
 32 35  1  0
 32 31  1  0
 33 32  2  0
 34 33  1  0
 34 29  2  0
 35 36  1  0
 36 37  1  0
 37 38  2  0
 39 38  1  0
 39 43  1  0
 40 39  2  0
 41 36  2  0
 41 40  1  0
 42 41  1  0
 44 45  1  0
 45 48  1  0
 45 47  1  0
 46 44  2  0
 49 50  1  0
 49 24  1  0
 51 49  1  0
 53 52  1  0
 54 65  2  0
 55 53  1  0
 55 60  1  0
 56 64  1  0
 56 66  1  0
 57 63  1  0
 57 59  1  0
 58 64  1  0
 59 58  1  0
 60 59  2  0
 61 55  2  0
 62 61  1  0
 62 57  2  0
 63 56  1  0
 64 54  1  0
 66 68  2  0
 67 66  1  0
 69 67  1  0
 70 79  2  0
 70 75  1  0
 71 67  1  0
 71 75  1  0
 72 71  1  0
 73 74  1  0
 73 72  1  0
 74 70  1  0
 75 76  2  0
 76 77  1  0
 78 77  2  0
 79 78  1  0
 80 54  1  0
 80 81  1  0
 80 90  1  0
 81 84  1  0
 82 86  1  0
 82 81  1  0
 83 82  2  0
 86 85  1  0
 88 86  1  0
 88 89  1  0
 88 87  1  0
 90 93  1  1
 90 91  1  0
 92 90  1  0
M  ISO  4  14 100  22 100  52 101  53 101
M  END
>  <TORSDO>  (52) 
F 18

>  <SCORE>  (52) 
-14.001

>  <name>  (52) 
51

>  <ligand_id>  (52) 
51

>  <original_smiles>  (52) 
[H]c1c([H])c([H])c2c(c1[H])C([H])([H])C([H])([H])C([H])([H])C2([H])N([H])C(=O)C1([H])N(C(=O)C([H])(N([H])C(=O)C([H])(N([H])C([H])([H])[H])C([H])([H])[H])C(C([H])([H])[H])(C([H])([H])[H])C([H])([H])[H])C([H])([H])c2c([H])c(OC([H])([H])C3(C([H])([H])[H])C([H])([H])C([H])([H])N(c4c([H])c([H])c(N([H])C(=O)N5C([H])([H])C([H])([H])C([H])([H])C([H])(n6nc(-c7c([H])c([H])c(Oc8c([H])c([H])c(F)c([H])c8F)c([H])c7[H])c(C(=O)N([H])[H])c6N([H])[H])C5([H])[H])c([H])c4[H])C3([H])C([H])([H])[H])c([H])c([H])c2C1([H])[H]

>  <smiles>  (52) 
[H]c1c([H])c([H])c2c(c1[H])C([H])([H])C([H])([H])C([H])([H])C2([H])N([H])C(=O)C1([H])N(C(=O)C([H])(N([H])C(=O)C([H])(N([H])C([H])([H])[H])C([H])([H])[H])C(C([H])([H])[H])(C([H])([H])[H])C([H])([H])[H])C([H])([H])c2c([H])c(OC([H])([H])C3(C([H])([H])[H])C([H])([H])C([H])([H])N(c4c([H])c([H])c(N([H])C(=O)N5C([H])([H])C([H])([H])C([H])([H])C([H])(n6nc(-c7c([H])c([H])c(Oc8c([H])c([H])c(F)c([H])c8F)c([H])c7[H])c(C(=O)N([H])[H])c6N([H])[H])C5([H])[H])c([H])c4[H])C3([H])C([H])([H])[H])c([H])c([H])c2C1([H])[H]

$$$$
52:0:0
     RDKit          3D

 93101  0  0  1  0  0  0  0  0999 V2000
  -28.9660  -22.1200   19.7870 N   0  0  0  0  0  0  0  0  0  0  0  0
  -28.3220  -22.4470   19.0670 H   0  0  0  0  0  0  0  0  0  0  0  0
  -29.7650  -19.8450   20.7040 C   0  0  0  0  0  3  0  0  0  0  0  0
  -29.6290  -18.4520   20.3200 C   0  0  0  0  0  0  0  0  0  0  0  0
  -28.7970  -18.2810   19.2310 C   0  0  0  0  0  0  0  0  0  0  0  0
  -29.0560  -20.7140   19.8830 C   0  0  0  0  0  0  0  0  0  0  0  0
  -28.1810  -19.8170   18.6750 S   0  0  0  0  0  0  0  0  0  0  0  0
  -30.3990  -17.3010   20.9110 C   0  0  0  0  0  3  0  0  0  0  0  0
  -29.9320  -16.0390   21.1120 C   0  0  0  0  0  3  0  0  0  0  0  0
  -30.8070  -14.8650   21.3170 C   0  0  0  0  0  0  0  0  0  0  0  0
  -30.7430  -12.5780   20.4000 C   0  0  0  0  0  2  0  0  0  0  0  0
  -29.9810  -12.6230   19.0560 C   0  0  0  0  0  2  0  0  0  0  0  0
  -28.4680  -12.4250   19.2810 C   0  0  0  0  0  2  0  0  0  0  0  0
  -27.9130  -13.3530   20.3900 C   0  0  0  0  0  3  0  0  0  0  0  0
  -28.8080  -13.3410   21.6520 C   0  0  0  0  0  2  0  0  0  0  0  0
  -30.1920  -13.6450   21.2550 N   0  0  0  0  0  0  0  0  0  0  0  0
  -32.0330  -14.9680   21.2230 O   0  0  0  0  0  0  0  0  0  0  0  0
  -25.4400  -13.9400   20.7900 C   0  0  0  0  0  0  0  0  0  0  0  0
  -24.3450  -13.1560   21.0340 C   0  0  0  0  0  0  0  0  0  0  0  0
  -24.8260  -11.8120   21.0910 C   0  0  0  0  0  0  0  0  0  0  0  0
  -26.5160  -13.0680   20.7080 N   0  0  0  0  0  0  0  0  0  0  0  0
  -26.1450  -11.7880   20.9520 N   0  0  0  0  0  0  0  0  0  0  0  0
  -24.1030  -10.5430   21.2120 C   0  0  0  0  0  0  0  0  0  0  0  0
  -24.4530   -9.5820   22.1850 C   0  0  0  0  0  3  0  0  0  0  0  0
  -23.7320   -8.3740   22.2910 C   0  0  0  0  0  3  0  0  0  0  0  0
  -22.6450   -8.1190   21.4210 C   0  0  0  0  0  0  0  0  0  0  0  0
  -22.3150   -9.0700   20.4390 C   0  0  0  0  0  3  0  0  0  0  0  0
  -23.0370  -10.2690   20.3320 C   0  0  0  0  0  3  0  0  0  0  0  0
  -21.9030   -6.9640   21.4350 O   0  0  0  0  0  0  0  0  0  0  0  0
  -21.7630   -6.2090   22.5710 C   0  0  0  0  0  0  0  0  0  0  0  0
  -21.2270   -6.7490   23.7610 C   0  0  0  0  0  3  0  0  0  0  0  0
  -21.0350   -5.9200   24.8850 C   0  0  0  0  0  3  0  0  0  0  0  0
  -21.3710   -4.5550   24.8200 C   0  0  0  0  0  0  0  0  0  0  0  0
  -21.9010   -4.0160   23.6360 C   0  0  0  0  0  3  0  0  0  0  0  0
  -22.0930   -4.8400   22.5140 C   0  0  0  0  0  0  0  0  0  0  0  0
  -22.5830   -4.3090   21.3660 F   0  0  0  0  0  0  0  0  0  0  0  0
  -21.1810   -3.7580   25.8980 F   0  0  0  0  0  0  0  0  0  0  0  0
  -22.9160  -13.6160   21.1090 C   0  0  0  0  0  0  0  0  0  0  0  0
  -22.0950  -12.9320   21.8960 N   0  0  0  0  0  0  0  0  0  0  0  0
  -22.5320  -14.6160   20.5050 O   0  0  0  0  0  0  0  0  0  0  0  0
  -22.4100  -12.1240   22.4100 H   0  0  0  0  0  0  0  0  0  0  0  0
  -21.1310  -13.2260   21.9860 H   0  0  0  0  0  0  0  0  0  0  0  0
  -25.6110  -15.3100   20.6130 N   0  0  0  0  0  0  0  0  0  0  0  0
  -24.8380  -15.9650   20.6310 H   0  0  0  0  0  0  0  0  0  0  0  0
  -26.5010  -15.7570   20.4340 H   0  0  0  0  0  0  0  0  0  0  0  0
  -29.6190  -16.6340   17.4810 C   0  0  0  0  0  1  0  0  0  0  0  0
  -28.4790  -17.0610   18.4140 C   0  0  0  0  0  2  0  0  0  0  0  0
  -29.0760  -23.0160   20.9430 C   0  0  0  0  0  2  0  0  0  0  0  0
  -29.6850  -25.2050   21.9630 C   0  0  0  0  0  1  0  0  0  0  0  0
  -30.5600  -24.6670   19.6660 C   0  0  0  0  0  1  0  0  0  0  0  0
  -29.3520  -24.5390   20.6160 C   0  0  1  0  0  0  0  0  0  0  0  0
  -28.1400  -25.3270   20.0130 C   0  0  0  0  0  2  0  0  0  0  0  0
  -28.3090  -26.7780   20.0360 O   0  0  0  0  0  0  0  0  0  0  0  0
  -24.5650  -31.9770   23.2410 C   0  0  0  0  0  0  0  0  0  0  0  0
  -27.1580  -27.5530   20.0430 C   0  0  0  0  0  0  0  0  0  0  0  0
  -23.3370  -30.5900   21.6100 C   0  0  0  0  0  3  0  0  0  0  0  0
  -24.7680  -29.0900   20.1240 C   0  0  0  0  0  0  0  0  0  0  0  0
  -25.8610  -30.9600   21.3640 C   0  0  0  0  0  2  0  0  0  0  0  0
  -25.9410  -29.5960   20.6980 C   0  0  0  0  0  0  0  0  0  0  0  0
  -27.1400  -28.8360   20.6540 C   0  0  0  0  0  3  0  0  0  0  0  0
  -25.9620  -27.0820   19.4510 C   0  0  0  0  0  3  0  0  0  0  0  0
  -24.7770  -27.8360   19.4950 C   0  0  0  0  0  3  0  0  0  0  0  0
  -23.5230  -29.9450   20.2120 C   0  0  0  0  0  2  0  0  0  0  0  0
  -24.6070  -31.1890   22.1300 N   0  0  0  0  0  0  0  0  0  0  0  0
  -23.4910  -32.2320   23.8060 O   0  0  0  0  0  0  0  0  0  0  0  0
  -22.7170  -29.5450   22.5640 C   0  0  0  0  0  0  0  0  0  0  0  0
  -21.3950  -29.3330   22.4460 N   0  0  0  0  0  0  0  0  0  0  0  0
  -23.4200  -28.9280   23.3700 O   0  0  0  0  0  0  0  0  0  0  0  0
  -20.8890  -29.8840   21.7670 H   0  0  0  0  0  0  0  0  0  0  0  0
  -18.0560  -28.0390   22.9300 C   0  0  0  0  0  0  0  0  0  0  0  0
  -20.6030  -28.3750   23.2150 C   0  0  0  0  0  3  0  0  0  0  0  0
  -20.7530  -26.9470   22.6420 C   0  0  0  0  0  2  0  0  0  0  0  0
  -19.6670  -26.5870   21.6240 C   0  0  0  0  0  2  0  0  0  0  0  0
  -18.2760  -26.6930   22.2610 C   0  0  0  0  0  2  0  0  0  0  0  0
  -19.1480  -28.8350   23.3640 C   0  0  0  0  0  0  0  0  0  0  0  0
  -18.8880  -30.0930   23.9490 C   0  0  0  0  0  3  0  0  0  0  0  0
  -17.5690  -30.5560   24.1060 C   0  0  0  0  0  3  0  0  0  0  0  0
  -16.4900  -29.7570   23.6900 C   0  0  0  0  0  3  0  0  0  0  0  0
  -16.7330  -28.5000   23.1080 C   0  0  0  0  0  3  0  0  0  0  0  0
  -25.8560  -32.6120   23.8430 C   0  0  0  0  0  3  0  0  0  0  0  0
  -25.5490  -34.0090   24.1750 N   0  0  0  0  0  0  0  0  0  0  0  0
  -25.8830  -35.0610   23.4160 C   0  0  0  0  0  0  0  0  0  0  0  0
  -26.5550  -34.9580   22.3850 O   0  0  0  0  0  0  0  0  0  0  0  0
  -24.9500  -34.1650   24.9740 H   0  0  0  0  0  0  0  0  0  0  0  0
  -24.1590  -36.8570   23.0560 C   0  0  0  0  0  1  0  0  0  0  0  0
  -25.3950  -36.4490   23.8740 C   0  0  0  0  0  3  0  0  0  0  0  0
  -27.5280  -37.3250   24.7150 C   0  0  0  0  0  1  0  0  0  0  0  0
  -26.4270  -37.5010   23.7700 N   0  0  0  0  0  0  0  0  0  0  0  0
  -26.0220  -38.4200   23.9260 H   0  0  0  0  0  0  0  0  0  0  0  0
  -26.3930  -31.8420   25.1120 C   0  0  1  0  0  0  0  0  0  0  0  0
  -25.3160  -31.6040   26.1970 C   0  0  0  0  0  1  0  0  0  0  0  0
  -26.9710  -30.4660   24.7080 C   0  0  0  0  0  1  0  0  0  0  0  0
  -27.5560  -32.6360   25.7530 C   0  0  0  0  0  1  0  0  0  0  0  0
  1  6  1  0
  1 48  1  0
  2  1  1  0
  4  3  1  0
  4  8  1  0
  5  4  2  0
  6  3  2  0
  7  5  1  0
  7  6  1  0
  8  9  2  0
  9 10  1  0
 11 16  1  0
 12 13  1  0
 12 11  1  0
 14 13  1  0
 14 21  1  0
 14 15  1  0
 16 10  1  0
 16 15  1  0
 17 10  2  0
 18 19  2  0
 19 20  1  0
 19 38  1  0
 20 23  1  0
 21 18  1  0
 21 22  1  0
 22 20  2  0
 23 24  1  0
 24 25  2  0
 26 29  1  0
 26 25  1  0
 27 26  2  0
 28 27  1  0
 28 23  2  0
 29 30  1  0
 30 31  1  0
 31 32  2  0
 33 32  1  0
 33 37  1  0
 34 33  2  0
 35 30  2  0
 35 34  1  0
 36 35  1  0
 38 39  1  0
 39 42  1  0
 39 41  1  0
 40 38  2  0
 43 44  1  0
 43 18  1  0
 45 43  1  0
 46 47  1  0
 47  5  1  0
 51 50  1  6
 51 48  1  0
 51 49  1  0
 52 53  1  0
 52 51  1  0
 53 55  1  0
 54 65  2  0
 55 60  1  0
 56 64  1  0
 56 66  1  0
 57 63  1  0
 57 59  1  0
 58 64  1  0
 59 58  1  0
 60 59  2  0
 61 62  1  0
 61 55  2  0
 62 57  2  0
 63 56  1  0
 64 54  1  0
 66 68  2  0
 67 66  1  0
 69 67  1  0
 70 79  2  0
 70 75  1  0
 71 67  1  0
 71 75  1  0
 72 71  1  0
 73 74  1  0
 73 72  1  0
 74 70  1  0
 75 76  2  0
 76 77  1  0
 78 77  2  0
 79 78  1  0
 80 54  1  0
 80 81  1  0
 80 90  1  0
 81 84  1  0
 82 86  1  0
 82 81  1  0
 83 82  2  0
 86 85  1  0
 88 86  1  0
 88 89  1  0
 88 87  1  0
 90 93  1  1
 90 91  1  0
 92 90  1  0
M  ISO  4   9 100  10 100  52 101  53 101
M  END
>  <TORSDO>  (53) 
F 22

>  <SCORE>  (53) 
-11.417

>  <name>  (53) 
52

>  <ligand_id>  (53) 
52

>  <original_smiles>  (53) 
[H]C(C(=O)N1C([H])([H])C([H])([H])C([H])([H])C([H])(n2nc(-c3c([H])c([H])c(Oc4c([H])c([H])c(F)c([H])c4F)c([H])c3[H])c(C(=O)N([H])[H])c2N([H])[H])C1([H])[H])=C([H])c1c(C([H])([H])C([H])([H])[H])sc(N([H])C([H])([H])C(C([H])([H])[H])(C([H])([H])[H])C([H])([H])Oc2c([H])c([H])c3c(c2[H])C([H])([H])N(C(=O)C([H])(N([H])C(=O)C([H])(N([H])C([H])([H])[H])C([H])([H])[H])C(C([H])([H])[H])(C([H])([H])[H])C([H])([H])[H])C([H])(C(=O)N([H])C2([H])c4c([H])c([H])c([H])c([H])c4C([H])([H])C([H])([H])C2([H])[H])C3([H])[H])c1[H]

>  <smiles>  (53) 
[H]C(C(=O)N1C([H])([H])C([H])([H])C([H])([H])C([H])(n2nc(-c3c([H])c([H])c(Oc4c([H])c([H])c(F)c([H])c4F)c([H])c3[H])c(C(=O)N([H])[H])c2N([H])[H])C1([H])[H])=C([H])c1c(C([H])([H])C([H])([H])[H])sc(N([H])C([H])([H])C(C([H])([H])[H])(C([H])([H])[H])C([H])([H])Oc2c([H])c([H])c3c(c2[H])C([H])([H])N(C(=O)C([H])(N([H])C(=O)C([H])(N([H])C([H])([H])[H])C([H])([H])[H])C(C([H])([H])[H])(C([H])([H])[H])C([H])([H])[H])C([H])(C(=O)N([H])C2([H])c4c([H])c([H])c([H])c([H])c4C([H])([H])C([H])([H])C2([H])[H])C3([H])[H])c1[H]

$$$$
53:0:0
     RDKit          3D

 90100  0  0  1  0  0  0  0  0999 V2000
  -28.8060  -22.3300   20.4120 C   0  0  0  0  0  2  0  0  0  0  0  0
  -29.0400  -23.8540   19.9760 C   0  0  0  0  0  0  0  0  0  0  0  0
  -29.9380  -24.1120   19.1660 O   0  0  0  0  0  0  0  0  0  0  0  0
  -28.1210  -25.0210   20.5570 C   0  0  0  0  0  2  0  0  0  0  0  0
  -28.4300  -26.4470   20.2010 O   0  0  0  0  0  0  0  0  0  0  0  0
  -24.7380  -31.9010   23.2540 C   0  0  0  0  0  0  0  0  0  0  0  0
  -27.3370  -27.3350   20.1760 C   0  0  0  0  0  0  0  0  0  0  0  0
  -23.5300  -30.5010   21.6220 C   0  0  0  0  0  3  0  0  0  0  0  0
  -24.9750  -28.9580   20.1810 C   0  0  0  0  0  0  0  0  0  0  0  0
  -26.0690  -30.8230   21.4230 C   0  0  0  0  0  2  0  0  0  0  0  0
  -26.1490  -29.4450   20.7720 C   0  0  0  0  0  0  0  0  0  0  0  0
  -27.3360  -28.6450   20.7580 C   0  0  0  0  0  3  0  0  0  0  0  0
  -26.1440  -26.9180   19.5470 C   0  0  0  0  0  3  0  0  0  0  0  0
  -24.9770  -27.7020   19.5560 C   0  0  0  0  0  3  0  0  0  0  0  0
  -23.7370  -29.8300   20.2380 C   0  0  0  0  0  2  0  0  0  0  0  0
  -24.7990  -31.0930   22.1550 N   0  0  0  0  0  0  0  0  0  0  0  0
  -23.6570  -32.1740   23.7970 O   0  0  0  0  0  0  0  0  0  0  0  0
  -22.8760  -29.4800   22.5850 C   0  0  0  0  0  0  0  0  0  0  0  0
  -21.5500  -29.2930   22.4650 N   0  0  0  0  0  0  0  0  0  0  0  0
  -23.5610  -28.8590   23.4020 O   0  0  0  0  0  0  0  0  0  0  0  0
  -21.0540  -29.8450   21.7780 H   0  0  0  0  0  0  0  0  0  0  0  0
  -18.1870  -28.0630   22.9690 C   0  0  0  0  0  0  0  0  0  0  0  0
  -20.7420  -28.3520   23.2410 C   0  0  0  0  0  3  0  0  0  0  0  0
  -20.8600  -26.9180   22.6750 C   0  0  0  0  0  2  0  0  0  0  0  0
  -19.7630  -26.5790   21.6590 C   0  0  0  0  0  2  0  0  0  0  0  0
  -18.3780  -26.7130   22.2990 C   0  0  0  0  0  2  0  0  0  0  0  0
  -19.2960  -28.8390   23.3970 C   0  0  0  0  0  0  0  0  0  0  0  0
  -19.0620  -30.1030   23.9830 C   0  0  0  0  0  3  0  0  0  0  0  0
  -17.7520  -30.5890   24.1460 C   0  0  0  0  0  3  0  0  0  0  0  0
  -16.6570  -29.8100   23.7360 C   0  0  0  0  0  3  0  0  0  0  0  0
  -16.8750  -28.5480   23.1530 C   0  0  0  0  0  3  0  0  0  0  0  0
  -26.0220  -32.5390   23.8680 C   0  0  0  0  0  3  0  0  0  0  0  0
  -26.5440  -31.7770   25.1480 C   0  0  1  0  0  0  0  0  0  0  0  0
  -25.4540  -31.5450   26.2200 C   0  0  0  0  0  1  0  0  0  0  0  0
  -27.1280  -30.3980   24.7640 C   0  0  0  0  0  1  0  0  0  0  0  0
  -27.6940  -32.5770   25.8020 C   0  0  0  0  0  1  0  0  0  0  0  0
  -25.7110  -33.9400   24.1930 N   0  0  0  0  0  0  0  0  0  0  0  0
  -26.0460  -34.9910   23.4320 C   0  0  0  0  0  0  0  0  0  0  0  0
  -26.7190  -34.8830   22.4040 O   0  0  0  0  0  0  0  0  0  0  0  0
  -25.1150  -34.0960   24.9920 H   0  0  0  0  0  0  0  0  0  0  0  0
  -24.3260  -36.7900   23.0640 C   0  0  0  0  0  1  0  0  0  0  0  0
  -25.5580  -36.3810   23.8860 C   0  0  0  0  0  3  0  0  0  0  0  0
  -27.6880  -37.2590   24.7370 C   0  0  0  0  0  1  0  0  0  0  0  0
  -26.5950  -37.4300   23.7830 N   0  0  0  0  0  0  0  0  0  0  0  0
  -26.1910  -38.3510   23.9260 H   0  0  0  0  0  0  0  0  0  0  0  0
  -29.6450  -21.2550   19.7560 N   0  0  0  0  0  0  0  0  0  0  0  0
  -30.2680  -21.6320   19.0430 H   0  0  0  0  0  0  0  0  0  0  0  0
  -30.7820  -14.7850   19.8500 C   0  0  0  0  0  0  0  0  0  0  0  0
  -30.4860  -12.5590   18.7500 C   0  0  0  0  0  2  0  0  0  0  0  0
  -29.4450  -12.6720   17.6140 C   0  0  0  0  0  2  0  0  0  0  0  0
  -28.0170  -12.4760   18.1580 C   0  0  0  0  0  2  0  0  0  0  0  0
  -27.7500  -13.3090   19.4410 C   0  0  0  0  0  3  0  0  0  0  0  0
  -28.9000  -13.1440   20.4580 C   0  0  0  0  0  2  0  0  0  0  0  0
  -30.1330  -13.5660   19.7800 N   0  0  0  0  0  0  0  0  0  0  0  0
  -31.9170  -14.8830   19.3710 O   0  0  0  0  0  0  0  0  0  0  0  0
  -30.3550  -18.8160   19.3660 C   0  0  0  0  0  3  0  0  0  0  0  0
  -30.3450  -17.3430   19.6310 C   0  0  0  0  0  3  0  0  0  0  0  0
  -29.3760  -17.5470   20.7810 C   0  0  0  0  0  0  0  0  0  0  0  0
  -29.6370  -19.8300   20.0210 C   0  0  0  0  0  0  0  0  0  0  0  0
  -29.1800  -16.2060   21.2610 C   0  0  0  0  0  2  0  0  0  0  0  0
  -30.0790  -15.9510   20.1600 N   0  0  1  0  0  4  0  0  0  0  0  0
  -28.7070  -19.0920   21.2680 S   0  0  0  0  0  0  0  0  0  0  0  0
  -25.4260  -13.8680   20.3790 C   0  0  0  0  0  0  0  0  0  0  0  0
  -24.3980  -13.0750   20.8100 C   0  0  0  0  0  0  0  0  0  0  0  0
  -24.8580  -11.7270   20.6880 C   0  0  0  0  0  0  0  0  0  0  0  0
  -26.4500  -13.0010   20.0280 N   0  0  0  0  0  0  0  0  0  0  0  0
  -26.1180  -11.7080   20.2720 N   0  0  0  0  0  0  0  0  0  0  0  0
  -24.1500  -10.4560   20.8860 C   0  0  0  0  0  0  0  0  0  0  0  0
  -24.6020   -9.4970   21.8190 C   0  0  0  0  0  3  0  0  0  0  0  0
  -23.8950   -8.2900   22.0070 C   0  0  0  0  0  3  0  0  0  0  0  0
  -22.7200   -8.0330   21.2590 C   0  0  0  0  0  0  0  0  0  0  0  0
  -22.2890   -8.9810   20.3140 C   0  0  0  0  0  3  0  0  0  0  0  0
  -22.9970  -10.1790   20.1250 C   0  0  0  0  0  3  0  0  0  0  0  0
  -21.9820   -6.8780   21.3560 O   0  0  0  0  0  0  0  0  0  0  0  0
  -21.8720   -6.1920   22.5390 C   0  0  0  0  0  0  0  0  0  0  0  0
  -21.3570   -6.7960   23.7070 C   0  0  0  0  0  3  0  0  0  0  0  0
  -21.1960   -6.0350   24.8810 C   0  0  0  0  0  3  0  0  0  0  0  0
  -21.5410   -4.6700   24.8890 C   0  0  0  0  0  0  0  0  0  0  0  0
  -22.0490   -4.0650   23.7250 C   0  0  0  0  0  3  0  0  0  0  0  0
  -22.2110   -4.8240   22.5530 C   0  0  0  0  0  0  0  0  0  0  0  0
  -22.6820   -4.2320   21.4290 F   0  0  0  0  0  0  0  0  0  0  0  0
  -21.3790   -3.9350   26.0140 F   0  0  0  0  0  0  0  0  0  0  0  0
  -23.0290  -13.5350   21.2160 C   0  0  0  0  0  0  0  0  0  0  0  0
  -22.3780  -12.8020   22.1130 N   0  0  0  0  0  0  0  0  0  0  0  0
  -22.5470  -14.5770   20.7730 O   0  0  0  0  0  0  0  0  0  0  0  0
  -22.7850  -11.9590   22.4910 H   0  0  0  0  0  0  0  0  0  0  0  0
  -21.4620  -13.0910   22.4280 H   0  0  0  0  0  0  0  0  0  0  0  0
  -25.5700  -15.2440   20.2280 N   0  0  0  0  0  0  0  0  0  0  0  0
  -24.8020  -15.8870   20.3930 H   0  0  0  0  0  0  0  0  0  0  0  0
  -26.3560  -15.6840   19.7690 H   0  0  0  0  0  0  0  0  0  0  0  0
  2  1  1  0
  2  4  1  0
  3  2  2  0
  5  4  1  0
  6 17  2  0
  7  5  1  0
  7 12  1  0
  8 16  1  0
  8 18  1  0
  9 15  1  0
  9 11  1  0
 10 16  1  0
 11 10  1  0
 12 11  2  0
 13 14  1  0
 13  7  2  0
 14  9  2  0
 15  8  1  0
 16  6  1  0
 18 20  2  0
 19 18  1  0
 21 19  1  0
 22 31  2  0
 22 27  1  0
 23 19  1  0
 23 27  1  0
 24 23  1  0
 25 26  1  0
 25 24  1  0
 26 22  1  0
 27 28  2  0
 28 29  1  0
 30 29  2  0
 31 30  1  0
 32  6  1  0
 32 37  1  0
 32 33  1  0
 33 36  1  1
 33 34  1  0
 35 33  1  0
 37 40  1  0
 38 42  1  0
 38 37  1  0
 39 38  2  0
 42 41  1  0
 44 42  1  0
 44 45  1  0
 44 43  1  0
 46 59  1  0
 46  1  1  0
 47 46  1  0
 61 48  1  1
 49 54  1  0
 50 51  1  0
 50 49  1  0
 52 51  1  0
 52 66  1  0
 52 53  1  0
 54 48  1  0
 54 53  1  0
 55 48  2  0
 56 59  2  0
 57 56  1  0
 57 61  1  0
 57 58  1  0
 58 60  1  0
 58 62  1  0
 59 62  1  0
 61 58  1  0
 61 60  1  0
 63 64  2  0
 64 83  1  0
 65 64  1  0
 65 68  1  0
 66 67  1  0
 66 63  1  0
 67 65  2  0
 68 69  1  0
 69 70  2  0
 71 74  1  0
 71 70  1  0
 72 71  2  0
 73 72  1  0
 73 68  2  0
 74 75  1  0
 75 80  2  0
 75 76  1  0
 76 77  2  0
 77 78  1  0
 78 82  1  0
 79 78  2  0
 80 79  1  0
 81 80  1  0
 83 84  1  0
 84 87  1  0
 84 86  1  0
 85 83  2  0
 88 63  1  0
 88 89  1  0
 90 88  1  0
M  ISO  4   4 101   5 101  48 100  61 100
M  END
>  <TORSDO>  (54) 
F 19

>  <SCORE>  (54) 
-12.734

>  <name>  (54) 
53

>  <ligand_id>  (54) 
53

>  <original_smiles>  (54) 
[H]c1c([H])c([H])c2c(c1[H])C([H])([H])C([H])([H])C([H])([H])C2([H])N([H])C(=O)C1([H])N(C(=O)C([H])(N([H])C(=O)C([H])(N([H])C([H])([H])[H])C([H])([H])[H])C(C([H])([H])[H])(C([H])([H])[H])C([H])([H])[H])C([H])([H])c2c([H])c(OC([H])([H])C(=O)C([H])([H])N([H])c3sc4c(c3[H])N(C(=O)N3C([H])([H])C([H])([H])C([H])([H])C([H])(n5nc(-c6c([H])c([H])c(Oc7c([H])c([H])c(F)c([H])c7F)c([H])c6[H])c(C(=O)N([H])[H])c5N([H])[H])C3([H])[H])C4([H])[H])c([H])c([H])c2C1([H])[H]

>  <smiles>  (54) 
[H]c1c([H])c([H])c2c(c1[H])C([H])([H])C([H])([H])C([H])([H])C2([H])N([H])C(=O)C1([H])N(C(=O)C([H])(N([H])C(=O)C([H])(N([H])C([H])([H])[H])C([H])([H])[H])C(C([H])([H])[H])(C([H])([H])[H])C([H])([H])[H])C([H])([H])c2c([H])c(OC([H])([H])C(=O)C([H])([H])N([H])c3sc4c(c3[H])N(C(=O)N3C([H])([H])C([H])([H])C([H])([H])C([H])(n5nc(-c6c([H])c([H])c(Oc7c([H])c([H])c(F)c([H])c7F)c([H])c6[H])c(C(=O)N([H])[H])c5N([H])[H])C3([H])[H])C4([H])[H])c([H])c([H])c2C1([H])[H]

$$$$
54:0:0
     RDKit          3D

 97106  0  0  1  0  0  0  0  0999 V2000
  -30.0280  -20.7280   20.5730 C   0  0  0  0  0  3  0  0  0  0  0  0
  -27.4540  -23.1310   19.3860 C   0  0  0  0  0  2  0  0  0  0  0  0
  -28.1490  -21.7510   19.2670 C   0  0  0  0  0  2  0  0  0  0  0  0
  -29.7240  -23.2720   20.1280 C   0  0  0  0  0  3  0  0  0  0  0  0
  -28.3960  -24.0820   20.1850 C   0  0  2  0  0  0  0  0  0  0  0  0
  -30.8520  -23.7210   21.0790 C   0  0  0  0  0  1  0  0  0  0  0  0
  -27.8680  -24.1750   21.6370 C   0  0  0  0  0  1  0  0  0  0  0  0
  -29.3450  -21.8300   20.1240 N   0  0  0  0  0  0  0  0  0  0  0  0
  -30.8730  -20.8520   21.5920 N   0  0  0  0  0  0  0  0  0  0  0  0
  -31.4410  -20.0650   21.8650 H   0  0  0  0  0  0  0  0  0  0  0  0
  -30.9600  -21.7150   22.0990 H   0  0  0  0  0  0  0  0  0  0  0  0
  -30.3340  -18.1290   17.8650 C   0  0  0  0  0  3  0  0  0  0  0  0
  -30.1800  -19.3580   18.5280 C   0  0  0  0  0  3  0  0  0  0  0  0
  -30.2590  -16.9200   18.5830 C   0  0  0  0  0  3  0  0  0  0  0  0
  -29.8480  -18.1710   20.6420 C   0  0  0  0  0  3  0  0  0  0  0  0
  -29.9570  -19.4000   19.9210 C   0  0  0  0  0  0  0  0  0  0  0  0
  -30.0160  -16.9170   19.9810 C   0  0  0  0  0  0  0  0  0  0  0  0
  -30.6540  -14.5600   20.4420 C   0  0  0  0  0  0  0  0  0  0  0  0
  -30.3900  -12.3620   19.3820 C   0  0  0  0  0  2  0  0  0  0  0  0
  -29.4660  -12.5390   18.1590 C   0  0  0  0  0  2  0  0  0  0  0  0
  -27.9830  -12.4170   18.5650 C   0  0  0  0  0  2  0  0  0  0  0  0
  -27.6220  -13.2750   19.8030 C   0  0  0  0  0  3  0  0  0  0  0  0
  -28.6620  -13.0880   20.9340 C   0  0  0  0  0  2  0  0  0  0  0  0
  -29.9930  -13.3720   20.3790 N   0  0  0  0  0  0  0  0  0  0  0  0
  -31.8350  -14.6800   20.1010 O   0  0  0  0  0  0  0  0  0  0  0  0
  -29.8960  -15.6590   20.6790 N   0  0  0  0  0  0  0  0  0  0  0  0
  -29.0030  -15.4850   21.1110 H   0  0  0  0  0  0  0  0  0  0  0  0
  -25.2140  -13.9000   20.4600 C   0  0  0  0  0  0  0  0  0  0  0  0
  -24.1330  -13.1390   20.8200 C   0  0  0  0  0  0  0  0  0  0  0  0
  -24.5880  -11.7840   20.8200 C   0  0  0  0  0  0  0  0  0  0  0  0
  -26.2560  -13.0130   20.2610 N   0  0  0  0  0  0  0  0  0  0  0  0
  -25.8840  -11.7350   20.5380 N   0  0  0  0  0  0  0  0  0  0  0  0
  -23.8520  -10.5250   21.0150 C   0  0  0  0  0  0  0  0  0  0  0  0
  -24.2680   -9.5650   21.9650 C   0  0  0  0  0  3  0  0  0  0  0  0
  -23.5370   -8.3710   22.1470 C   0  0  0  0  0  3  0  0  0  0  0  0
  -22.3740   -8.1270   21.3790 C   0  0  0  0  0  0  0  0  0  0  0  0
  -21.9740   -9.0780   20.4230 C   0  0  0  0  0  3  0  0  0  0  0  0
  -22.7050  -10.2620   20.2400 C   0  0  0  0  0  3  0  0  0  0  0  0
  -21.6150   -6.9860   21.4680 O   0  0  0  0  0  0  0  0  0  0  0  0
  -21.5610   -6.2470   22.6240 C   0  0  0  0  0  0  0  0  0  0  0  0
  -21.1420   -6.8120   23.8470 C   0  0  0  0  0  3  0  0  0  0  0  0
  -21.0340   -6.0020   24.9950 C   0  0  0  0  0  3  0  0  0  0  0  0
  -21.3340   -4.6290   24.9200 C   0  0  0  0  0  0  0  0  0  0  0  0
  -21.7460   -4.0640   23.7000 C   0  0  0  0  0  3  0  0  0  0  0  0
  -21.8580   -4.8720   22.5540 C   0  0  0  0  0  0  0  0  0  0  0  0
  -22.2370   -4.3200   21.3760 F   0  0  0  0  0  0  0  0  0  0  0  0
  -21.2210   -3.8500   26.0200 F   0  0  0  0  0  0  0  0  0  0  0  0
  -22.7300  -13.6260   21.0450 C   0  0  0  0  0  0  0  0  0  0  0  0
  -21.9710  -12.9560   21.9030 N   0  0  0  0  0  0  0  0  0  0  0  0
  -22.3120  -14.6430   20.4910 O   0  0  0  0  0  0  0  0  0  0  0  0
  -22.3150  -12.1400   22.3870 H   0  0  0  0  0  0  0  0  0  0  0  0
  -21.0270  -13.2710   22.0810 H   0  0  0  0  0  0  0  0  0  0  0  0
  -25.3940  -15.2650   20.2550 N   0  0  0  0  0  0  0  0  0  0  0  0
  -24.6220  -15.9230   20.3130 H   0  0  0  0  0  0  0  0  0  0  0  0
  -26.2360  -15.6770   19.8730 H   0  0  0  0  0  0  0  0  0  0  0  0
  -28.5560  -25.4930   19.4830 C   0  0  0  0  0  2  0  0  0  0  0  0
  -28.3820  -26.6980   20.2530 O   0  0  0  0  0  0  0  0  0  0  0  0
  -24.5830  -31.9000   23.2500 C   0  0  0  0  0  0  0  0  0  0  0  0
  -27.2020  -27.4240   20.1890 C   0  0  0  0  0  0  0  0  0  0  0  0
  -23.3690  -30.4970   21.6160 C   0  0  0  0  0  3  0  0  0  0  0  0
  -24.8120  -28.9610   20.1790 C   0  0  0  0  0  0  0  0  0  0  0  0
  -25.8930  -30.8530   21.4020 C   0  0  0  0  0  2  0  0  0  0  0  0
  -25.9710  -29.4760   20.7710 C   0  0  0  0  0  0  0  0  0  0  0  0
  -27.1620  -28.7140   20.7730 C   0  0  0  0  0  3  0  0  0  0  0  0
  -26.0200  -26.9250   19.5930 C   0  0  0  0  0  3  0  0  0  0  0  0
  -24.8340  -27.6880   19.5820 C   0  0  0  0  0  3  0  0  0  0  0  0
  -23.5670  -29.8190   20.2320 C   0  0  0  0  0  2  0  0  0  0  0  0
  -24.6330  -31.0990   22.1470 N   0  0  0  0  0  0  0  0  0  0  0  0
  -23.5040  -32.1740   23.7960 O   0  0  0  0  0  0  0  0  0  0  0  0
  -22.7230  -29.4750   22.5800 C   0  0  0  0  0  0  0  0  0  0  0  0
  -21.4010  -29.2900   22.4570 N   0  0  0  0  0  0  0  0  0  0  0  0
  -23.4110  -28.8550   23.3950 O   0  0  0  0  0  0  0  0  0  0  0  0
  -20.9070  -29.8370   21.7680 H   0  0  0  0  0  0  0  0  0  0  0  0
  -18.0300  -28.0850   22.9560 C   0  0  0  0  0  0  0  0  0  0  0  0
  -20.5860  -28.3520   23.2320 C   0  0  0  0  0  3  0  0  0  0  0  0
  -20.6940  -26.9200   22.6620 C   0  0  0  0  0  2  0  0  0  0  0  0
  -19.5940  -26.5900   21.6460 C   0  0  0  0  0  2  0  0  0  0  0  0
  -18.2100  -26.7320   22.2870 C   0  0  0  0  0  2  0  0  0  0  0  0
  -19.1450  -28.8510   23.3840 C   0  0  0  0  0  0  0  0  0  0  0  0
  -18.9220  -30.1160   23.9690 C   0  0  0  0  0  3  0  0  0  0  0  0
  -17.6150  -30.6130   24.1330 C   0  0  0  0  0  3  0  0  0  0  0  0
  -16.5140  -29.8410   23.7240 C   0  0  0  0  0  3  0  0  0  0  0  0
  -16.7220  -28.5810   23.1380 C   0  0  0  0  0  3  0  0  0  0  0  0
  -25.8700  -32.5310   23.8630 C   0  0  0  0  0  3  0  0  0  0  0  0
  -25.5650  -33.9300   24.1910 N   0  0  0  0  0  0  0  0  0  0  0  0
  -25.9000  -34.9800   23.4290 C   0  0  0  0  0  0  0  0  0  0  0  0
  -26.5730  -34.8710   22.4000 O   0  0  0  0  0  0  0  0  0  0  0  0
  -24.9710  -34.0850   24.9910 H   0  0  0  0  0  0  0  0  0  0  0  0
  -24.1810  -36.7750   23.0610 C   0  0  0  0  0  1  0  0  0  0  0  0
  -25.4150  -36.3720   23.8810 C   0  0  0  0  0  3  0  0  0  0  0  0
  -27.5490  -37.2480   24.7210 C   0  0  0  0  0  1  0  0  0  0  0  0
  -26.4510  -37.4230   23.7730 N   0  0  0  0  0  0  0  0  0  0  0  0
  -26.0480  -38.3450   23.9190 H   0  0  0  0  0  0  0  0  0  0  0  0
  -26.3920  -31.7630   25.1390 C   0  0  1  0  0  0  0  0  0  0  0  0
  -25.3050  -31.5300   26.2140 C   0  0  0  0  0  1  0  0  0  0  0  0
  -26.9710  -30.3840   24.7420 C   0  0  0  0  0  1  0  0  0  0  0  0
  -27.5530  -32.5550   25.7880 C   0  0  0  0  0  1  0  0  0  0  0  0
  1  9  1  0
  2  5  1  0
  3  2  1  0
  3  8  1  0
  4  5  1  0
  4  6  1  0
  5  7  1  1
  8  4  1  0
  8  1  1  0
  9 10  1  0
  9 11  1  0
 12 13  2  0
 12 14  1  0
 13 16  1  0
 14 17  2  0
 16  1  1  0
 16 15  2  0
 17 15  1  0
 17 26  1  0
 18 26  1  0
 19 24  1  0
 20 21  1  0
 20 19  1  0
 22 21  1  0
 22 31  1  0
 22 23  1  0
 24 18  1  0
 24 23  1  0
 25 18  2  0
 26 27  1  0
 28 29  2  0
 29 48  1  0
 30 29  1  0
 30 33  1  0
 31 28  1  0
 31 32  1  0
 32 30  2  0
 33 34  1  0
 34 35  2  0
 36 39  1  0
 36 35  1  0
 37 36  2  0
 38 37  1  0
 38 33  2  0
 39 40  1  0
 40 41  1  0
 41 42  2  0
 43 42  1  0
 43 47  1  0
 44 43  2  0
 45 40  2  0
 45 44  1  0
 46 45  1  0
 48 49  1  0
 49 52  1  0
 49 51  1  0
 50 48  2  0
 53 54  1  0
 53 28  1  0
 55 53  1  0
 56  5  1  0
 56 57  1  0
 58 69  2  0
 59 57  1  0
 59 64  1  0
 60 68  1  0
 60 70  1  0
 61 67  1  0
 61 63  1  0
 62 68  1  0
 63 64  2  0
 63 62  1  0
 65 59  2  0
 66 65  1  0
 66 61  2  0
 67 60  1  0
 68 58  1  0
 70 72  2  0
 71 70  1  0
 73 71  1  0
 74 83  2  0
 74 79  1  0
 75 71  1  0
 75 79  1  0
 76 75  1  0
 77 78  1  0
 77 76  1  0
 78 74  1  0
 79 80  2  0
 80 81  1  0
 82 81  2  0
 83 82  1  0
 84 58  1  0
 84 85  1  0
 84 94  1  0
 85 88  1  0
 86 90  1  0
 86 85  1  0
 87 86  2  0
 90 89  1  0
 92 90  1  0
 92 93  1  0
 92 91  1  0
 94 97  1  1
 94 95  1  0
 96 94  1  0
M  ISO  4  18 100  26 100  56 101  57 101
M  END
>  <TORSDO>  (55) 
F 18

>  <SCORE>  (55) 
-14.809

>  <name>  (55) 
54

>  <ligand_id>  (55) 
54

>  <original_smiles>  (55) 
[H]c1c([H])c(C(N2C([H])([H])C([H])([H])C(C([H])([H])[H])(C([H])([H])Oc3c([H])c([H])c4c(c3[H])C([H])([H])N(C(=O)C([H])(N([H])C(=O)C([H])(N([H])C([H])([H])[H])C([H])([H])[H])C(C([H])([H])[H])(C([H])([H])[H])C([H])([H])[H])C([H])(C(=O)N([H])C3([H])c5c([H])c([H])c([H])c([H])c5C([H])([H])C([H])([H])C3([H])[H])C4([H])[H])C2([H])C([H])([H])[H])=[N+]([H])[H])c([H])c(N([H])C(=O)N2C([H])([H])C([H])([H])C([H])([H])C([H])(n3nc(-c4c([H])c([H])c(Oc5c([H])c([H])c(F)c([H])c5F)c([H])c4[H])c(C(=O)N([H])[H])c3N([H])[H])C2([H])[H])c1[H]

>  <smiles>  (55) 
[H]c1c([H])c(C(N2C([H])([H])C([H])([H])C(C([H])([H])[H])(C([H])([H])Oc3c([H])c([H])c4c(c3[H])C([H])([H])N(C(=O)C([H])(N([H])C(=O)C([H])(N([H])C([H])([H])[H])C([H])([H])[H])C(C([H])([H])[H])(C([H])([H])[H])C([H])([H])[H])C([H])(C(=O)N([H])C3([H])c5c([H])c([H])c([H])c([H])c5C([H])([H])C([H])([H])C3([H])[H])C4([H])[H])C2([H])C([H])([H])[H])=[N+]([H])[H])c([H])c(N([H])C(=O)N2C([H])([H])C([H])([H])C([H])([H])C([H])(n3nc(-c4c([H])c([H])c(Oc5c([H])c([H])c(F)c([H])c5F)c([H])c4[H])c(C(=O)N([H])[H])c3N([H])[H])C2([H])[H])c1[H]

$$$$
55:0:0
     RDKit          3D

 91100  0  0  1  0  0  0  0  0999 V2000
  -28.5800  -23.0340   21.8010 C   0  0  0  0  0  2  0  0  0  0  0  0
  -29.0210  -21.5340   21.8920 C   0  0  0  0  0  2  0  0  0  0  0  0
  -29.1270  -22.2650   19.6280 C   0  0  0  0  0  2  0  0  0  0  0  0
  -29.1120  -23.6460   20.4750 C   0  0  2  0  0  0  0  0  0  0  0  0
  -30.5800  -24.1170   20.6560 C   0  0  0  0  0  1  0  0  0  0  0  0
  -29.2340  -21.0590   20.5300 N   0  0  0  0  0  0  0  0  0  0  0  0
  -29.5350  -19.1600   18.8730 C   0  0  0  0  0  3  0  0  0  0  0  0
  -29.7820  -17.7360   18.9440 C   0  0  0  0  0  3  0  0  0  0  0  0
  -29.4620  -19.6530   20.1530 C   0  0  0  0  0  0  0  0  0  0  0  0
  -29.8450  -17.3640   20.2700 C   0  0  0  0  0  0  0  0  0  0  0  0
  -29.6040  -18.5450   21.0370 O   0  0  0  0  0  0  0  0  0  0  0  0
  -30.6370  -14.9070   20.3240 C   0  0  0  0  0  0  0  0  0  0  0  0
  -30.4940  -12.5930   19.3580 C   0  0  0  0  0  2  0  0  0  0  0  0
  -29.5700  -12.6660   18.1190 C   0  0  0  0  0  2  0  0  0  0  0  0
  -28.0940  -12.4790   18.5260 C   0  0  0  0  0  2  0  0  0  0  0  0
  -27.7070  -13.3430   19.7580 C   0  0  0  0  0  3  0  0  0  0  0  0
  -28.7610  -13.2650   20.8880 C   0  0  0  0  0  2  0  0  0  0  0  0
  -30.0550  -13.6480   20.3100 N   0  0  0  0  0  0  0  0  0  0  0  0
  -31.7920  -15.0260   19.8940 O   0  0  0  0  0  0  0  0  0  0  0  0
  -29.8920  -16.0210   20.7330 N   0  0  0  0  0  0  0  0  0  0  0  0
  -29.1340  -15.7800   21.3520 H   0  0  0  0  0  0  0  0  0  0  0  0
  -25.3180  -13.9150   20.4840 C   0  0  0  0  0  0  0  0  0  0  0  0
  -24.2540  -13.1390   20.8550 C   0  0  0  0  0  0  0  0  0  0  0  0
  -24.7200  -11.7900   20.8180 C   0  0  0  0  0  0  0  0  0  0  0  0
  -26.3640  -13.0400   20.2410 N   0  0  0  0  0  0  0  0  0  0  0  0
  -26.0100  -11.7560   20.5020 N   0  0  0  0  0  0  0  0  0  0  0  0
  -23.9940  -10.5270   21.0100 C   0  0  0  0  0  0  0  0  0  0  0  0
  -24.4240   -9.5610   21.9500 C   0  0  0  0  0  3  0  0  0  0  0  0
  -23.7030   -8.3610   22.1250 C   0  0  0  0  0  3  0  0  0  0  0  0
  -22.5370   -8.1180   21.3630 C   0  0  0  0  0  0  0  0  0  0  0  0
  -22.1220   -9.0700   20.4160 C   0  0  0  0  0  3  0  0  0  0  0  0
  -22.8450  -10.2630   20.2380 C   0  0  0  0  0  3  0  0  0  0  0  0
  -21.7820   -6.9720   21.4540 O   0  0  0  0  0  0  0  0  0  0  0  0
  -21.7170   -6.2400   22.6110 C   0  0  0  0  0  0  0  0  0  0  0  0
  -21.2600   -6.8010   23.8250 C   0  0  0  0  0  3  0  0  0  0  0  0
  -21.1470   -5.9930   24.9750 C   0  0  0  0  0  3  0  0  0  0  0  0
  -21.4790   -4.6260   24.9110 C   0  0  0  0  0  0  0  0  0  0  0  0
  -21.9280   -4.0650   23.7030 C   0  0  0  0  0  3  0  0  0  0  0  0
  -22.0450   -4.8700   22.5570 C   0  0  0  0  0  0  0  0  0  0  0  0
  -22.4610   -4.3190   21.3910 F   0  0  0  0  0  0  0  0  0  0  0  0
  -21.3580   -3.8500   26.0130 F   0  0  0  0  0  0  0  0  0  0  0  0
  -22.8590  -13.6150   21.1340 C   0  0  0  0  0  0  0  0  0  0  0  0
  -22.1260  -12.9180   21.9970 N   0  0  0  0  0  0  0  0  0  0  0  0
  -22.4240  -14.6470   20.6210 O   0  0  0  0  0  0  0  0  0  0  0  0
  -22.4800  -12.0840   22.4420 H   0  0  0  0  0  0  0  0  0  0  0  0
  -21.1930  -13.2280   22.2230 H   0  0  0  0  0  0  0  0  0  0  0  0
  -25.4740  -15.2870   20.3140 N   0  0  0  0  0  0  0  0  0  0  0  0
  -24.7090  -15.9380   20.4480 H   0  0  0  0  0  0  0  0  0  0  0  0
  -26.3030  -15.7280   19.9340 H   0  0  0  0  0  0  0  0  0  0  0  0
  -28.1890  -24.9030   19.9170 C   0  0  0  0  0  2  0  0  0  0  0  0
  -28.3230  -26.3790   20.2770 O   0  0  0  0  0  0  0  0  0  0  0  0
  -24.6060  -31.9130   23.2180 C   0  0  0  0  0  0  0  0  0  0  0  0
  -27.2190  -27.2830   20.1760 C   0  0  0  0  0  0  0  0  0  0  0  0
  -23.3990  -30.5040   21.5890 C   0  0  0  0  0  3  0  0  0  0  0  0
  -24.8480  -28.9450   20.1500 C   0  0  0  0  0  0  0  0  0  0  0  0
  -25.9390  -30.8120   21.3880 C   0  0  0  0  0  2  0  0  0  0  0  0
  -26.0210  -29.4220   20.7520 C   0  0  0  0  0  0  0  0  0  0  0  0
  -27.2030  -28.6040   20.7550 C   0  0  0  0  0  3  0  0  0  0  0  0
  -26.0240  -26.8930   19.5220 C   0  0  0  0  0  3  0  0  0  0  0  0
  -24.8620  -27.6910   19.5180 C   0  0  0  0  0  3  0  0  0  0  0  0
  -23.6030  -29.8110   20.2140 C   0  0  0  0  0  2  0  0  0  0  0  0
  -24.6700  -31.0970   22.1220 N   0  0  0  0  0  0  0  0  0  0  0  0
  -23.5230  -32.1890   23.7580 O   0  0  0  0  0  0  0  0  0  0  0  0
  -22.7400  -29.4960   22.5630 C   0  0  0  0  0  0  0  0  0  0  0  0
  -21.4140  -29.3140   22.4400 N   0  0  0  0  0  0  0  0  0  0  0  0
  -23.4210  -28.8830   23.3880 O   0  0  0  0  0  0  0  0  0  0  0  0
  -20.9250  -29.8580   21.7420 H   0  0  0  0  0  0  0  0  0  0  0  0
  -18.0390  -28.1030   22.9550 C   0  0  0  0  0  0  0  0  0  0  0  0
  -20.5970  -28.3760   23.2150 C   0  0  0  0  0  3  0  0  0  0  0  0
  -20.7040  -26.9420   22.6450 C   0  0  0  0  0  2  0  0  0  0  0  0
  -19.6020  -26.6110   21.6360 C   0  0  0  0  0  2  0  0  0  0  0  0
  -18.2210  -26.7530   22.2830 C   0  0  0  0  0  2  0  0  0  0  0  0
  -19.1550  -28.8740   23.3750 C   0  0  0  0  0  0  0  0  0  0  0  0
  -18.9310  -30.1360   23.9640 C   0  0  0  0  0  3  0  0  0  0  0  0
  -17.6240  -30.6280   24.1400 C   0  0  0  0  0  3  0  0  0  0  0  0
  -16.5220  -29.8570   23.7320 C   0  0  0  0  0  3  0  0  0  0  0  0
  -16.7300  -28.5970   23.1440 C   0  0  0  0  0  3  0  0  0  0  0  0
  -25.8860  -32.5530   23.8330 C   0  0  0  0  0  3  0  0  0  0  0  0
  -25.5670  -33.9470   24.1730 N   0  0  0  0  0  0  0  0  0  0  0  0
  -25.8880  -35.0110   23.4240 C   0  0  0  0  0  0  0  0  0  0  0  0
  -26.5520  -34.9190   22.3880 O   0  0  0  0  0  0  0  0  0  0  0  0
  -24.9770  -34.0890   24.9790 H   0  0  0  0  0  0  0  0  0  0  0  0
  -24.1530  -36.8040   23.0860 C   0  0  0  0  0  1  0  0  0  0  0  0
  -25.3950  -36.3930   23.8940 C   0  0  0  0  0  3  0  0  0  0  0  0
  -27.5260  -37.2810   24.7300 C   0  0  0  0  0  1  0  0  0  0  0  0
  -26.4220  -37.4520   23.7880 N   0  0  0  0  0  0  0  0  0  0  0  0
  -26.0140  -38.3700   23.9360 H   0  0  0  0  0  0  0  0  0  0  0  0
  -26.4100  -31.7840   25.1060 C   0  0  1  0  0  0  0  0  0  0  0  0
  -25.3260  -31.5360   26.1810 C   0  0  0  0  0  1  0  0  0  0  0  0
  -26.9990  -30.4120   24.7050 C   0  0  0  0  0  1  0  0  0  0  0  0
  -27.5600  -32.5830   25.7620 C   0  0  0  0  0  1  0  0  0  0  0  0
  1  2  1  0
  3  4  1  0
  3  6  1  0
  4  5  1  1
  4  1  1  0
  6  2  1  0
  7  8  1  0
  7  9  2  0
  8 10  2  0
  9  6  1  0
  9 11  1  0
 10 20  1  0
 10 11  1  0
 12 20  1  0
 13 18  1  0
 14 15  1  0
 14 13  1  0
 16 15  1  0
 16 25  1  0
 16 17  1  0
 18 12  1  0
 18 17  1  0
 19 12  2  0
 20 21  1  0
 22 23  2  0
 23 42  1  0
 24 23  1  0
 24 27  1  0
 25 22  1  0
 25 26  1  0
 26 24  2  0
 27 28  1  0
 28 29  2  0
 30 33  1  0
 30 29  1  0
 31 30  2  0
 32 31  1  0
 32 27  2  0
 33 34  1  0
 34 35  1  0
 35 36  2  0
 37 36  1  0
 37 41  1  0
 38 37  2  0
 39 34  2  0
 39 38  1  0
 40 39  1  0
 42 43  1  0
 43 46  1  0
 43 45  1  0
 44 42  2  0
 47 48  1  0
 47 22  1  0
 49 47  1  0
 50 51  1  0
 50  4  1  0
 52 63  2  0
 53 51  1  0
 53 58  1  0
 54 62  1  0
 54 64  1  0
 55 61  1  0
 55 57  1  0
 56 62  1  0
 57 58  2  0
 57 56  1  0
 59 53  2  0
 60 59  1  0
 60 55  2  0
 61 54  1  0
 62 52  1  0
 64 66  2  0
 65 64  1  0
 67 65  1  0
 68 77  2  0
 68 73  1  0
 69 65  1  0
 69 73  1  0
 70 69  1  0
 71 72  1  0
 71 70  1  0
 72 68  1  0
 73 74  2  0
 74 75  1  0
 76 75  2  0
 77 76  1  0
 78 52  1  0
 78 79  1  0
 78 88  1  0
 79 82  1  0
 80 84  1  0
 80 79  1  0
 81 80  2  0
 84 83  1  0
 86 84  1  0
 86 87  1  0
 86 85  1  0
 88 91  1  1
 88 89  1  0
 90 88  1  0
M  ISO  4  12 100  20 100  50 101  51 101
M  END
>  <TORSDO>  (56) 
F 18

>  <SCORE>  (56) 
-14.844

>  <name>  (56) 
55

>  <ligand_id>  (56) 
55

>  <original_smiles>  (56) 
[H]c1c(N([H])C(=O)N2C([H])([H])C([H])([H])C([H])([H])C([H])(n3nc(-c4c([H])c([H])c(Oc5c([H])c([H])c(F)c([H])c5F)c([H])c4[H])c(C(=O)N([H])[H])c3N([H])[H])C2([H])[H])oc(N2C([H])([H])C([H])([H])C(C([H])([H])[H])(C([H])([H])Oc3c([H])c([H])c4c(c3[H])C([H])([H])N(C(=O)C([H])(N([H])C(=O)C([H])(N([H])C([H])([H])[H])C([H])([H])[H])C(C([H])([H])[H])(C([H])([H])[H])C([H])([H])[H])C([H])(C(=O)N([H])C3([H])c5c([H])c([H])c([H])c([H])c5C([H])([H])C([H])([H])C3([H])[H])C4([H])[H])C2([H])[H])c1[H]

>  <smiles>  (56) 
[H]c1c(N([H])C(=O)N2C([H])([H])C([H])([H])C([H])([H])C([H])(n3nc(-c4c([H])c([H])c(Oc5c([H])c([H])c(F)c([H])c5F)c([H])c4[H])c(C(=O)N([H])[H])c3N([H])[H])C2([H])[H])oc(N2C([H])([H])C([H])([H])C(C([H])([H])[H])(C([H])([H])Oc3c([H])c([H])c4c(c3[H])C([H])([H])N(C(=O)C([H])(N([H])C(=O)C([H])(N([H])C([H])([H])[H])C([H])([H])[H])C(C([H])([H])[H])(C([H])([H])[H])C([H])([H])[H])C([H])(C(=O)N([H])C3([H])c5c([H])c([H])c([H])c([H])c5C([H])([H])C([H])([H])C3([H])[H])C4([H])[H])C2([H])[H])c1[H]

$$$$
56:0:0
     RDKit          3D

 93102  0  0  1  0  0  0  0  0999 V2000
  -28.8080  -21.0860   21.6640 C   0  0  0  0  0  0  0  0  0  0  0  0
  -28.9480  -20.5480   20.4440 N   0  0  0  0  0  0  0  0  0  0  0  0
  -29.0860  -20.4820   22.7010 O   0  0  0  0  0  0  0  0  0  0  0  0
  -28.6740  -21.1750   19.7010 H   0  0  0  0  0  0  0  0  0  0  0  0
  -31.2960  -15.0740   20.0930 C   0  0  0  0  0  0  0  0  0  0  0  0
  -31.0690  -12.7630   19.3140 C   0  0  0  0  0  2  0  0  0  0  0  0
  -30.1330  -12.7210   18.0870 C   0  0  0  0  0  2  0  0  0  0  0  0
  -28.6560  -12.6620   18.5160 C   0  0  0  0  0  2  0  0  0  0  0  0
  -28.2770  -13.6520   19.6530 C   0  0  0  0  0  3  0  0  0  0  0  0
  -29.3310  -13.6640   20.7820 C   0  0  0  0  0  2  0  0  0  0  0  0
  -30.6420  -13.8850   20.1620 N   0  0  0  0  0  0  0  0  0  0  0  0
  -32.5250  -15.1390   20.1340 O   0  0  0  0  0  0  0  0  0  0  0  0
  -29.7050  -18.1290   20.4330 C   0  0  0  0  0  3  0  0  0  0  0  0
  -30.4850  -17.3520   19.5060 C   0  0  0  0  0  0  0  0  0  0  0  0
  -31.0210  -18.0750   18.5070 C   0  0  0  0  0  0  0  0  0  0  0  0
  -29.6540  -19.4650   20.0220 C   0  0  0  0  0  0  0  0  0  0  0  0
  -31.7050  -17.3060   17.4750 C   0  0  0  0  0  2  0  0  0  0  0  0
  -31.1810  -15.9050   17.8390 C   0  0  0  0  0  2  0  0  0  0  0  0
  -30.6810  -15.9550   19.2510 N   0  0  0  0  0  0  0  0  0  0  0  0
  -30.6160  -19.7430   18.5770 S   0  0  0  0  0  0  0  0  0  0  0  0
  -25.9040  -14.2750   20.4300 C   0  0  0  0  0  0  0  0  0  0  0  0
  -24.8240  -13.5080   20.7760 C   0  0  0  0  0  0  0  0  0  0  0  0
  -25.2610  -12.1510   20.7010 C   0  0  0  0  0  0  0  0  0  0  0  0
  -26.9310  -13.3840   20.1600 N   0  0  0  0  0  0  0  0  0  0  0  0
  -26.5490  -12.1010   20.3920 N   0  0  0  0  0  0  0  0  0  0  0  0
  -24.5130  -10.8940   20.8440 C   0  0  0  0  0  0  0  0  0  0  0  0
  -24.8860   -9.9220   21.7970 C   0  0  0  0  0  3  0  0  0  0  0  0
  -24.1390   -8.7300   21.9320 C   0  0  0  0  0  3  0  0  0  0  0  0
  -23.0070   -8.5050   21.1130 C   0  0  0  0  0  0  0  0  0  0  0  0
  -22.6550   -9.4680   20.1500 C   0  0  0  0  0  3  0  0  0  0  0  0
  -23.4020  -10.6500   20.0140 C   0  0  0  0  0  3  0  0  0  0  0  0
  -22.2340   -7.3690   21.1570 O   0  0  0  0  0  0  0  0  0  0  0  0
  -22.0200   -6.6920   22.3310 C   0  0  0  0  0  0  0  0  0  0  0  0
  -21.3900   -7.3010   23.4400 C   0  0  0  0  0  3  0  0  0  0  0  0
  -21.1260   -6.5470   24.6010 C   0  0  0  0  0  3  0  0  0  0  0  0
  -21.4790   -5.1850   24.6510 C   0  0  0  0  0  0  0  0  0  0  0  0
  -22.1010   -4.5760   23.5470 C   0  0  0  0  0  3  0  0  0  0  0  0
  -22.3670   -5.3270   22.3900 C   0  0  0  0  0  0  0  0  0  0  0  0
  -22.9480   -4.7290   21.3220 F   0  0  0  0  0  0  0  0  0  0  0  0
  -21.2180   -4.4600   25.7640 F   0  0  0  0  0  0  0  0  0  0  0  0
  -23.4350  -14.0020   21.0640 C   0  0  0  0  0  0  0  0  0  0  0  0
  -22.7040  -13.3020   21.9240 N   0  0  0  0  0  0  0  0  0  0  0  0
  -23.0070  -15.0390   20.5600 O   0  0  0  0  0  0  0  0  0  0  0  0
  -23.0630  -12.4620   22.3530 H   0  0  0  0  0  0  0  0  0  0  0  0
  -21.7730  -13.6170   22.1590 H   0  0  0  0  0  0  0  0  0  0  0  0
  -26.0870  -15.6480   20.2960 N   0  0  0  0  0  0  0  0  0  0  0  0
  -25.3250  -16.3020   20.4360 H   0  0  0  0  0  0  0  0  0  0  0  0
  -26.9400  -16.0960   19.9820 H   0  0  0  0  0  0  0  0  0  0  0  0
  -28.2180  -22.5210   21.7180 C   0  0  0  0  0  2  0  0  0  0  0  0
  -28.8180  -23.4900   20.6450 C   0  0  0  0  0  2  0  0  0  0  0  0
  -28.4360  -25.0070   20.7100 C   0  0  0  0  0  2  0  0  0  0  0  0
  -28.7960  -25.7320   19.3740 C   0  0  0  0  0  2  0  0  0  0  0  0
  -28.6520  -27.1630   19.3220 O   0  0  0  0  0  0  0  0  0  0  0  0
  -24.5440  -31.6270   22.9520 C   0  0  0  0  0  0  0  0  0  0  0  0
  -27.4090  -27.7640   19.3580 C   0  0  0  0  0  0  0  0  0  0  0  0
  -23.3810  -30.2970   21.2160 C   0  0  0  0  0  3  0  0  0  0  0  0
  -24.8970  -29.0620   19.5680 C   0  0  0  0  0  0  0  0  0  0  0  0
  -25.8530  -30.9110   20.9540 C   0  0  0  0  0  2  0  0  0  0  0  0
  -26.0300  -29.6290   20.1670 C   0  0  0  0  0  0  0  0  0  0  0  0
  -27.2830  -28.9890   20.0540 C   0  0  0  0  0  3  0  0  0  0  0  0
  -26.2620  -27.2190   18.7360 C   0  0  0  0  0  3  0  0  0  0  0  0
  -25.0130  -27.8630   18.8420 C   0  0  0  0  0  3  0  0  0  0  0  0
  -23.5790  -29.7810   19.7670 C   0  0  0  0  0  2  0  0  0  0  0  0
  -24.6120  -30.9590   21.7650 N   0  0  0  0  0  0  0  0  0  0  0  0
  -23.4720  -31.7470   23.5600 O   0  0  0  0  0  0  0  0  0  0  0  0
  -22.8750  -29.1290   22.0910 C   0  0  0  0  0  0  0  0  0  0  0  0
  -21.5770  -28.8100   21.9700 N   0  0  0  0  0  0  0  0  0  0  0  0
  -23.6460  -28.5140   22.8330 O   0  0  0  0  0  0  0  0  0  0  0  0
  -21.0090  -29.3670   21.3490 H   0  0  0  0  0  0  0  0  0  0  0  0
  -18.3750  -27.1880   22.3780 C   0  0  0  0  0  0  0  0  0  0  0  0
  -20.8900  -27.7170   22.6570 C   0  0  0  0  0  3  0  0  0  0  0  0
  -21.1440  -26.3650   21.9520 C   0  0  0  0  0  2  0  0  0  0  0  0
  -20.0700  -26.0050   20.9200 C   0  0  0  0  0  2  0  0  0  0  0  0
  -18.6930  -25.9330   21.5840 C   0  0  0  0  0  2  0  0  0  0  0  0
  -19.4050  -28.0330   22.8670 C   0  0  0  0  0  0  0  0  0  0  0  0
  -19.0530  -29.2050   23.5710 C   0  0  0  0  0  3  0  0  0  0  0  0
  -17.7030  -29.5400   23.7810 C   0  0  0  0  0  3  0  0  0  0  0  0
  -16.6870  -28.6870   23.3140 C   0  0  0  0  0  3  0  0  0  0  0  0
  -17.0240  -27.5140   22.6190 C   0  0  0  0  0  3  0  0  0  0  0  0
  -25.8030  -32.2990   23.5860 C   0  0  0  0  0  3  0  0  0  0  0  0
  -26.3980  -31.4920   24.8040 C   0  0  1  0  0  0  0  0  0  0  0  0
  -25.3530  -31.1350   25.8870 C   0  0  0  0  0  1  0  0  0  0  0  0
  -27.0450  -30.1750   24.3200 C   0  0  0  0  0  1  0  0  0  0  0  0
  -27.5250  -32.3180   25.4740 C   0  0  0  0  0  1  0  0  0  0  0  0
  -25.4190  -33.6550   23.9970 N   0  0  0  0  0  0  0  0  0  0  0  0
  -25.6900  -34.7680   23.3040 C   0  0  0  0  0  0  0  0  0  0  0  0
  -26.3640  -34.7650   22.2710 O   0  0  0  0  0  0  0  0  0  0  0  0
  -24.7960  -33.7290   24.7890 H   0  0  0  0  0  0  0  0  0  0  0  0
  -23.8620  -36.4820   23.0550 C   0  0  0  0  0  1  0  0  0  0  0  0
  -25.1250  -36.0980   23.8420 C   0  0  0  0  0  3  0  0  0  0  0  0
  -27.1990  -37.0570   24.7380 C   0  0  0  0  0  1  0  0  0  0  0  0
  -26.0950  -37.2130   23.7930 N   0  0  0  0  0  0  0  0  0  0  0  0
  -25.6340  -38.1000   23.9820 H   0  0  0  0  0  0  0  0  0  0  0  0
  1 49  1  0
  1  3  2  0
  2  1  1  0
  4  2  1  0
  5 12  2  0
  5 11  1  0
  6 11  1  0
  7  8  1  0
  7  6  1  0
  9  8  1  0
  9 24  1  0
  9 10  1  0
 11 10  1  0
 14 13  1  0
 15 20  1  0
 15 14  2  0
 16 13  2  0
 16  2  1  0
 17 18  1  0
 17 15  1  0
 18 19  1  0
 19 14  1  0
 19  5  1  0
 20 16  1  0
 21 22  2  0
 22 41  1  0
 23 22  1  0
 23 26  1  0
 24 25  1  0
 24 21  1  0
 25 23  2  0
 26 27  1  0
 27 28  2  0
 29 32  1  0
 29 28  1  0
 30 29  2  0
 31 30  1  0
 31 26  2  0
 32 33  1  0
 33 38  2  0
 33 34  1  0
 34 35  2  0
 35 36  1  0
 36 40  1  0
 37 36  2  0
 38 37  1  0
 39 38  1  0
 41 42  1  0
 42 45  1  0
 42 44  1  0
 43 41  2  0
 46 21  1  0
 46 47  1  0
 48 46  1  0
 50 51  1  0
 50 49  1  0
 52 51  1  0
 53 55  1  0
 53 52  1  0
 54 65  2  0
 55 60  1  0
 56 64  1  0
 56 66  1  0
 57 63  1  0
 57 59  1  0
 58 64  1  0
 59 58  1  0
 60 59  2  0
 61 62  1  0
 61 55  2  0
 62 57  2  0
 63 56  1  0
 64 54  1  0
 66 68  2  0
 67 66  1  0
 69 67  1  0
 70 79  2  0
 70 75  1  0
 71 67  1  0
 71 75  1  0
 72 71  1  0
 73 74  1  0
 73 72  1  0
 74 70  1  0
 75 76  2  0
 76 77  1  0
 78 77  2  0
 79 78  1  0
 80 54  1  0
 80 85  1  0
 80 81  1  0
 81 84  1  1
 81 82  1  0
 83 81  1  0
 85 88  1  0
 86 90  1  0
 86 85  1  0
 87 86  2  0
 90 89  1  0
 92 90  1  0
 92 93  1  0
 92 91  1  0
M  ISO  4   5 100  19 100  52 101  53 101
M  END
>  <TORSDO>  (57) 
F 20

>  <SCORE>  (57) 
-10.659

>  <name>  (57) 
56

>  <ligand_id>  (57) 
56

>  <original_smiles>  (57) 
[H]c1c([H])c([H])c2c(c1[H])C([H])([H])C([H])([H])C([H])([H])C2([H])N([H])C(=O)C1([H])N(C(=O)C([H])(N([H])C(=O)C([H])(N([H])C([H])([H])[H])C([H])([H])[H])C(C([H])([H])[H])(C([H])([H])[H])C([H])([H])[H])C([H])([H])c2c([H])c(OC([H])([H])C([H])([H])C([H])([H])C([H])([H])C(=O)N([H])c3sc4c(c3[H])N(C(=O)N3C([H])([H])C([H])([H])C([H])([H])C([H])(n5nc(-c6c([H])c([H])c(Oc7c([H])c([H])c(F)c([H])c7F)c([H])c6[H])c(C(=O)N([H])[H])c5N([H])[H])C3([H])[H])C([H])([H])C4([H])[H])c([H])c([H])c2C1([H])[H]

>  <smiles>  (57) 
[H]c1c([H])c([H])c2c(c1[H])C([H])([H])C([H])([H])C([H])([H])C2([H])N([H])C(=O)C1([H])N(C(=O)C([H])(N([H])C(=O)C([H])(N([H])C([H])([H])[H])C([H])([H])[H])C(C([H])([H])[H])(C([H])([H])[H])C([H])([H])[H])C([H])([H])c2c([H])c(OC([H])([H])C([H])([H])C([H])([H])C([H])([H])C(=O)N([H])c3sc4c(c3[H])N(C(=O)N3C([H])([H])C([H])([H])C([H])([H])C([H])(n5nc(-c6c([H])c([H])c(Oc7c([H])c([H])c(F)c([H])c7F)c([H])c6[H])c(C(=O)N([H])[H])c5N([H])[H])C3([H])[H])C([H])([H])C4([H])[H])c([H])c([H])c2C1([H])[H]

$$$$
57:0:0
     RDKit          3D

 96105  0  0  1  0  0  0  0  0999 V2000
  -30.8250  -21.1640   21.8970 C   0  0  0  0  0  3  0  0  0  0  0  0
  -29.7210  -24.7210   21.8670 C   0  0  0  0  0  2  0  0  0  0  0  0
  -30.5780  -23.5850   22.4270 C   0  0  0  0  0  2  0  0  0  0  0  0
  -29.3800  -22.8060   20.4900 C   0  0  0  0  0  2  0  0  0  0  0  0
  -29.5210  -24.3720   20.3890 C   0  0  2  0  0  0  0  0  0  0  0  0
  -30.7780  -24.7360   19.5680 C   0  0  0  0  0  1  0  0  0  0  0  0
  -30.2940  -22.3910   21.5910 N   0  0  0  0  0  0  0  0  0  0  0  0
  -31.6800  -21.1240   22.9190 N   0  0  0  0  0  0  0  0  0  0  0  0
  -32.0440  -20.2270   23.2030 H   0  0  0  0  0  0  0  0  0  0  0  0
  -31.9390  -21.9370   23.4480 H   0  0  0  0  0  0  0  0  0  0  0  0
  -31.6830  -18.9530   21.0980 C   0  0  0  0  0  3  0  0  0  0  0  0
  -29.2860  -19.2990   21.1100 C   0  0  0  0  0  3  0  0  0  0  0  0
  -31.4990  -17.5730   20.8410 C   0  0  0  0  0  3  0  0  0  0  0  0
  -29.1030  -17.9110   20.8620 C   0  0  0  0  0  3  0  0  0  0  0  0
  -30.5840  -19.8330   21.2790 C   0  0  0  0  0  0  0  0  0  0  0  0
  -30.1980  -17.0130   20.7600 C   0  0  0  0  0  0  0  0  0  0  0  0
  -30.6510  -14.5770   20.1070 C   0  0  0  0  0  0  0  0  0  0  0  0
  -30.2930  -12.4290   18.9260 C   0  0  0  0  0  2  0  0  0  0  0  0
  -29.2750  -12.6510   17.7850 C   0  0  0  0  0  2  0  0  0  0  0  0
  -27.8280  -12.5140   18.3000 C   0  0  0  0  0  2  0  0  0  0  0  0
  -27.5740  -13.3210   19.6010 C   0  0  0  0  0  3  0  0  0  0  0  0
  -28.6940  -13.0680   20.6370 C   0  0  0  0  0  2  0  0  0  0  0  0
  -29.9790  -13.3930   19.9950 N   0  0  0  0  0  0  0  0  0  0  0  0
  -31.7710  -14.7360   19.6160 O   0  0  0  0  0  0  0  0  0  0  0  0
  -29.9240  -15.5990   20.6300 N   0  0  0  0  0  0  0  0  0  0  0  0
  -29.0080  -15.3140   20.9350 H   0  0  0  0  0  0  0  0  0  0  0  0
  -25.2300  -13.9340   20.4600 C   0  0  0  0  0  0  0  0  0  0  0  0
  -24.1770  -13.1640   20.8770 C   0  0  0  0  0  0  0  0  0  0  0  0
  -24.6230  -11.8080   20.7940 C   0  0  0  0  0  0  0  0  0  0  0  0
  -26.2510  -13.0480   20.1530 N   0  0  0  0  0  0  0  0  0  0  0  0
  -25.8930  -11.7650   20.4120 N   0  0  0  0  0  0  0  0  0  0  0  0
  -23.8970  -10.5490   21.0000 C   0  0  0  0  0  0  0  0  0  0  0  0
  -24.3600   -9.5690   21.9070 C   0  0  0  0  0  3  0  0  0  0  0  0
  -23.6350   -8.3750   22.1010 C   0  0  0  0  0  3  0  0  0  0  0  0
  -22.4320   -8.1500   21.3900 C   0  0  0  0  0  0  0  0  0  0  0  0
  -21.9890   -9.1170   20.4720 C   0  0  0  0  0  3  0  0  0  0  0  0
  -22.7140  -10.3040   20.2750 C   0  0  0  0  0  3  0  0  0  0  0  0
  -21.6760   -7.0090   21.4960 O   0  0  0  0  0  0  0  0  0  0  0  0
  -21.6440   -6.2710   22.6520 C   0  0  0  0  0  0  0  0  0  0  0  0
  -21.2120   -6.8240   23.8770 C   0  0  0  0  0  3  0  0  0  0  0  0
  -21.1300   -6.0120   25.0260 C   0  0  0  0  0  3  0  0  0  0  0  0
  -21.4670   -4.6480   24.9500 C   0  0  0  0  0  0  0  0  0  0  0  0
  -21.8920   -4.0940   23.7300 C   0  0  0  0  0  3  0  0  0  0  0  0
  -21.9770   -4.9030   22.5830 C   0  0  0  0  0  0  0  0  0  0  0  0
  -22.3660   -4.3590   21.4050 F   0  0  0  0  0  0  0  0  0  0  0  0
  -21.3800   -3.8650   26.0510 F   0  0  0  0  0  0  0  0  0  0  0  0
  -22.8010  -13.6470   21.2370 C   0  0  0  0  0  0  0  0  0  0  0  0
  -22.1200  -12.9440   22.1350 N   0  0  0  0  0  0  0  0  0  0  0  0
  -22.3410  -14.6820   20.7580 O   0  0  0  0  0  0  0  0  0  0  0  0
  -22.5060  -12.1060   22.5430 H   0  0  0  0  0  0  0  0  0  0  0  0
  -21.1990  -13.2480   22.4160 H   0  0  0  0  0  0  0  0  0  0  0  0
  -25.3960  -15.3050   20.2950 N   0  0  0  0  0  0  0  0  0  0  0  0
  -24.6330  -15.9580   20.4430 H   0  0  0  0  0  0  0  0  0  0  0  0
  -26.2020  -15.7340   19.8580 H   0  0  0  0  0  0  0  0  0  0  0  0
  -28.2920  -25.1500   19.8000 C   0  0  0  0  0  2  0  0  0  0  0  0
  -28.3960  -26.5980   19.9240 O   0  0  0  0  0  0  0  0  0  0  0  0
  -24.5120  -31.6930   23.1120 C   0  0  0  0  0  0  0  0  0  0  0  0
  -27.2200  -27.3420   19.9120 C   0  0  0  0  0  0  0  0  0  0  0  0
  -23.3250  -30.3120   21.4410 C   0  0  0  0  0  3  0  0  0  0  0  0
  -24.8010  -28.8390   19.9670 C   0  0  0  0  0  0  0  0  0  0  0  0
  -25.8480  -30.7130   21.2440 C   0  0  0  0  0  2  0  0  0  0  0  0
  -25.9560  -29.3590   20.5640 C   0  0  0  0  0  0  0  0  0  0  0  0
  -27.1680  -28.6210   20.5280 C   0  0  0  0  0  3  0  0  0  0  0  0
  -26.0410  -26.8520   19.3030 C   0  0  0  0  0  3  0  0  0  0  0  0
  -24.8410  -27.5870   19.3320 C   0  0  0  0  0  3  0  0  0  0  0  0
  -23.5420  -29.6740   20.0430 C   0  0  0  0  0  2  0  0  0  0  0  0
  -24.5800  -30.9210   21.9900 N   0  0  0  0  0  0  0  0  0  0  0  0
  -23.4290  -31.9290   23.6650 O   0  0  0  0  0  0  0  0  0  0  0  0
  -22.6980  -29.2540   22.3790 C   0  0  0  0  0  0  0  0  0  0  0  0
  -21.3790  -29.0390   22.2460 N   0  0  0  0  0  0  0  0  0  0  0  0
  -23.3980  -28.6300   23.1820 O   0  0  0  0  0  0  0  0  0  0  0  0
  -20.8750  -29.5960   21.5720 H   0  0  0  0  0  0  0  0  0  0  0  0
  -18.0390  -27.7390   22.7110 C   0  0  0  0  0  0  0  0  0  0  0  0
  -20.5870  -28.0630   22.9950 C   0  0  0  0  0  3  0  0  0  0  0  0
  -20.7320  -26.6480   22.3900 C   0  0  0  0  0  2  0  0  0  0  0  0
  -19.6430  -26.3140   21.3670 C   0  0  0  0  0  2  0  0  0  0  0  0
  -18.2560  -26.4080   22.0090 C   0  0  0  0  0  2  0  0  0  0  0  0
  -19.1340  -28.5220   23.1600 C   0  0  0  0  0  0  0  0  0  0  0  0
  -18.8790  -29.7670   23.7750 C   0  0  0  0  0  3  0  0  0  0  0  0
  -17.5610  -30.2280   23.9460 C   0  0  0  0  0  3  0  0  0  0  0  0
  -16.4800  -29.4410   23.5130 C   0  0  0  0  0  3  0  0  0  0  0  0
  -16.7190  -28.1980   22.9010 C   0  0  0  0  0  3  0  0  0  0  0  0
  -25.7890  -32.3340   23.7420 C   0  0  0  0  0  3  0  0  0  0  0  0
  -25.4600  -33.7240   24.0890 N   0  0  0  0  0  0  0  0  0  0  0  0
  -25.7850  -34.7910   23.3470 C   0  0  0  0  0  0  0  0  0  0  0  0
  -26.4640  -34.7100   22.3190 O   0  0  0  0  0  0  0  0  0  0  0  0
  -24.8600  -33.8610   24.8900 H   0  0  0  0  0  0  0  0  0  0  0  0
  -24.0440  -36.5720   22.9970 C   0  0  0  0  0  1  0  0  0  0  0  0
  -25.2780  -36.1660   23.8200 C   0  0  0  0  0  3  0  0  0  0  0  0
  -27.3850  -37.0630   24.7040 C   0  0  0  0  0  1  0  0  0  0  0  0
  -26.3020  -37.2300   23.7400 N   0  0  0  0  0  0  0  0  0  0  0  0
  -25.8840  -38.1450   23.8900 H   0  0  0  0  0  0  0  0  0  0  0  0
  -26.3170  -31.5560   25.0080 C   0  0  1  0  0  0  0  0  0  0  0  0
  -25.2270  -31.2860   26.0720 C   0  0  0  0  0  1  0  0  0  0  0  0
  -26.9230  -30.1940   24.5950 C   0  0  0  0  0  1  0  0  0  0  0  0
  -27.4550  -32.3580   25.6820 C   0  0  0  0  0  1  0  0  0  0  0  0
  1  8  1  0
  2  3  1  0
  4  7  1  0
  5  6  1  6
  5  4  1  0
  5  2  1  0
  7  1  1  0
  7  3  1  0
  8  9  1  0
  8 10  1  0
 11 15  1  0
 12 15  2  0
 13 11  2  0
 14 12  1  0
 15  1  1  0
 16 13  1  0
 16 14  2  0
 17 25  1  0
 18 23  1  0
 19 20  1  0
 19 18  1  0
 21 20  1  0
 21 30  1  0
 21 22  1  0
 23 17  1  0
 23 22  1  0
 24 17  2  0
 25 16  1  0
 25 26  1  0
 27 28  2  0
 28 47  1  0
 29 28  1  0
 29 32  1  0
 30 31  1  0
 30 27  1  0
 31 29  2  0
 32 33  1  0
 33 34  2  0
 35 38  1  0
 35 34  1  0
 36 35  2  0
 37 36  1  0
 37 32  2  0
 38 39  1  0
 39 40  1  0
 40 41  2  0
 42 41  1  0
 42 46  1  0
 43 42  2  0
 44 39  2  0
 44 43  1  0
 45 44  1  0
 47 48  1  0
 48 51  1  0
 48 50  1  0
 49 47  2  0
 52 53  1  0
 52 27  1  0
 54 52  1  0
 55 56  1  0
 55  5  1  0
 57 68  2  0
 58 56  1  0
 58 63  1  0
 59 67  1  0
 59 69  1  0
 60 66  1  0
 60 62  1  0
 61 67  1  0
 62 61  1  0
 63 62  2  0
 64 65  1  0
 64 58  2  0
 65 60  2  0
 66 59  1  0
 67 57  1  0
 69 71  2  0
 70 69  1  0
 72 70  1  0
 73 82  2  0
 73 78  1  0
 74 70  1  0
 74 78  1  0
 75 74  1  0
 76 77  1  0
 76 75  1  0
 77 73  1  0
 78 79  2  0
 79 80  1  0
 81 80  2  0
 82 81  1  0
 83 57  1  0
 83 84  1  0
 83 93  1  0
 84 87  1  0
 85 89  1  0
 85 84  1  0
 86 85  2  0
 89 88  1  0
 91 89  1  0
 91 92  1  0
 91 90  1  0
 93 96  1  1
 93 94  1  0
 95 93  1  0
M  ISO  4  17 100  25 100  55 101  56 101
M  END
>  <TORSDO>  (58) 
F 18

>  <SCORE>  (58) 
-14.269

>  <name>  (58) 
57

>  <ligand_id>  (58) 
57

>  <original_smiles>  (58) 
[H]c1c([H])c([H])c2c(c1[H])C([H])([H])C([H])([H])C([H])([H])C2([H])N([H])C(=O)C1([H])N(C(=O)C([H])(N([H])C(=O)C([H])(N([H])C([H])([H])[H])C([H])([H])[H])C(C([H])([H])[H])(C([H])([H])[H])C([H])([H])[H])C([H])([H])c2c([H])c(OC([H])([H])C3(C([H])([H])[H])C([H])([H])N(C(c4c([H])c([H])c(N([H])C(=O)N5C([H])([H])C([H])([H])C([H])([H])C([H])(n6nc(-c7c([H])c([H])c(Oc8c([H])c([H])c(F)c([H])c8F)c([H])c7[H])c(C(=O)N([H])[H])c6N([H])[H])C5([H])[H])c([H])c4[H])=[N+]([H])[H])C([H])([H])C3([H])[H])c([H])c([H])c2C1([H])[H]

>  <smiles>  (58) 
[H]c1c([H])c([H])c2c(c1[H])C([H])([H])C([H])([H])C([H])([H])C2([H])N([H])C(=O)C1([H])N(C(=O)C([H])(N([H])C(=O)C([H])(N([H])C([H])([H])[H])C([H])([H])[H])C(C([H])([H])[H])(C([H])([H])[H])C([H])([H])[H])C([H])([H])c2c([H])c(OC([H])([H])C3(C([H])([H])[H])C([H])([H])N(C(c4c([H])c([H])c(N([H])C(=O)N5C([H])([H])C([H])([H])C([H])([H])C([H])(n6nc(-c7c([H])c([H])c(Oc8c([H])c([H])c(F)c([H])c8F)c([H])c7[H])c(C(=O)N([H])[H])c6N([H])[H])C5([H])[H])c([H])c4[H])=[N+]([H])[H])C([H])([H])C3([H])[H])c([H])c([H])c2C1([H])[H]

$$$$
58:0:0
     RDKit          3D

 98107  0  0  1  0  0  0  0  0999 V2000
  -30.7280  -23.9320   20.4570 C   0  0  0  0  0  2  0  0  0  0  0  0
  -30.9820  -22.4530   20.8650 C   0  0  0  0  0  2  0  0  0  0  0  0
  -29.5770  -23.9440   19.4200 C   0  0  1  0  0  0  0  0  0  0  0  0
  -29.7700  -22.4580   18.8330 C   0  0  2  0  0  0  0  0  0  0  0  0
  -28.2320  -24.0750   20.1690 C   0  0  0  0  0  1  0  0  0  0  0  0
  -30.9170  -22.4150   17.7950 C   0  0  0  0  0  1  0  0  0  0  0  0
  -28.5020  -21.9080   18.1470 C   0  0  0  0  0  1  0  0  0  0  0  0
  -30.1500  -21.6220   20.0040 N   0  0  0  0  0  0  0  0  0  0  0  0
  -31.5280  -19.5290   20.2420 C   0  0  0  0  0  3  0  0  0  0  0  0
  -31.6580  -18.1100   20.4040 C   0  0  0  0  0  3  0  0  0  0  0  0
  -29.2730  -17.9050   20.2560 C   0  0  0  0  0  3  0  0  0  0  0  0
  -29.1300  -19.3180   20.1070 C   0  0  0  0  0  0  0  0  0  0  0  0
  -30.2690  -20.1840   20.0870 C   0  0  0  0  0  0  0  0  0  0  0  0
  -30.5220  -17.2570   20.4150 C   0  0  0  0  0  0  0  0  0  0  0  0
  -31.2680  -14.7780   20.0010 C   0  0  0  0  0  0  0  0  0  0  0  0
  -30.9960  -12.5410   18.9440 C   0  0  0  0  0  2  0  0  0  0  0  0
  -29.9840  -12.6810   17.7840 C   0  0  0  0  0  2  0  0  0  0  0  0
  -28.5350  -12.5360   18.2910 C   0  0  0  0  0  2  0  0  0  0  0  0
  -28.2550  -13.4000   19.5500 C   0  0  0  0  0  3  0  0  0  0  0  0
  -29.3700  -13.2150   20.6050 C   0  0  0  0  0  2  0  0  0  0  0  0
  -30.6540  -13.5530   19.9650 N   0  0  0  0  0  0  0  0  0  0  0  0
  -32.3840  -14.9570   19.5030 O   0  0  0  0  0  0  0  0  0  0  0  0
  -30.5100  -15.7950   20.5190 N   0  0  0  0  0  0  0  0  0  0  0  0
  -29.7040  -15.4310   21.0030 H   0  0  0  0  0  0  0  0  0  0  0  0
  -25.9370  -14.0400   20.4620 C   0  0  0  0  0  0  0  0  0  0  0  0
  -24.8650  -13.2840   20.8500 C   0  0  0  0  0  0  0  0  0  0  0  0
  -25.2670  -11.9220   20.7000 C   0  0  0  0  0  0  0  0  0  0  0  0
  -26.9270  -13.1390   20.1020 N   0  0  0  0  0  0  0  0  0  0  0  0
  -26.5320  -11.8550   20.3030 N   0  0  0  0  0  0  0  0  0  0  0  0
  -24.5030  -10.6780   20.8570 C   0  0  0  0  0  0  0  0  0  0  0  0
  -24.8880   -9.6850   21.7850 C   0  0  0  0  0  3  0  0  0  0  0  0
  -24.1280   -8.5050   21.9290 C   0  0  0  0  0  3  0  0  0  0  0  0
  -22.9660   -8.3090   21.1460 C   0  0  0  0  0  0  0  0  0  0  0  0
  -22.5980   -9.2910   20.2070 C   0  0  0  0  0  3  0  0  0  0  0  0
  -23.3600  -10.4620   20.0600 C   0  0  0  0  0  3  0  0  0  0  0  0
  -22.1790   -7.1840   21.2000 O   0  0  0  0  0  0  0  0  0  0  0  0
  -21.9580   -6.5170   22.3780 C   0  0  0  0  0  0  0  0  0  0  0  0
  -21.4370   -7.1670   23.5180 C   0  0  0  0  0  3  0  0  0  0  0  0
  -21.1620   -6.4280   24.6860 C   0  0  0  0  0  3  0  0  0  0  0  0
  -21.3970   -5.0400   24.7130 C   0  0  0  0  0  0  0  0  0  0  0  0
  -21.9100   -4.3900   23.5770 C   0  0  0  0  0  3  0  0  0  0  0  0
  -22.1870   -5.1260   22.4120 C   0  0  0  0  0  0  0  0  0  0  0  0
  -22.6620   -4.4910   21.3140 F   0  0  0  0  0  0  0  0  0  0  0  0
  -21.1250   -4.3270   25.8310 F   0  0  0  0  0  0  0  0  0  0  0  0
  -23.5090  -13.7940   21.2470 C   0  0  0  0  0  0  0  0  0  0  0  0
  -22.8240  -13.0880   22.1400 N   0  0  0  0  0  0  0  0  0  0  0  0
  -23.0680  -14.8520   20.8000 O   0  0  0  0  0  0  0  0  0  0  0  0
  -23.1940  -12.2300   22.5210 H   0  0  0  0  0  0  0  0  0  0  0  0
  -21.9170  -13.4100   22.4450 H   0  0  0  0  0  0  0  0  0  0  0  0
  -26.1480  -15.4130   20.3660 N   0  0  0  0  0  0  0  0  0  0  0  0
  -25.4140  -16.0840   20.5650 H   0  0  0  0  0  0  0  0  0  0  0  0
  -26.9870  -15.8420   19.9940 H   0  0  0  0  0  0  0  0  0  0  0  0
  -27.7350  -19.8360   20.0790 C   0  0  0  0  0  0  0  0  0  0  0  0
  -27.2490  -20.5540   20.9590 O   0  0  0  0  0  0  0  0  0  0  0  0
  -25.7230  -20.3500   18.5600 C   0  0  0  0  0  1  0  0  0  0  0  0
  -26.8810  -19.3910   18.8840 C   0  0  0  0  0  2  0  0  0  0  0  0
  -29.6520  -25.1780   18.3920 C   0  0  0  0  0  2  0  0  0  0  0  0
  -29.4400  -26.5770   18.8570 O   0  0  0  0  0  0  0  0  0  0  0  0
  -24.9660  -30.8220   22.6170 C   0  0  0  0  0  0  0  0  0  0  0  0
  -28.1760  -27.1980   18.9200 C   0  0  0  0  0  0  0  0  0  0  0  0
  -23.9520  -29.5160   20.7840 C   0  0  0  0  0  3  0  0  0  0  0  0
  -25.5900  -28.4230   19.1540 C   0  0  0  0  0  0  0  0  0  0  0  0
  -26.4160  -30.2290   20.6610 C   0  0  0  0  0  2  0  0  0  0  0  0
  -26.6840  -28.9870   19.8170 C   0  0  0  0  0  0  0  0  0  0  0  0
  -27.9730  -28.3860   19.6950 C   0  0  0  0  0  3  0  0  0  0  0  0
  -27.0380  -26.6800   18.2560 C   0  0  0  0  0  3  0  0  0  0  0  0
  -25.7680  -27.2740   18.3690 C   0  0  0  0  0  3  0  0  0  0  0  0
  -24.2390  -29.0880   19.3220 C   0  0  0  0  0  2  0  0  0  0  0  0
  -25.1290  -30.2000   21.4130 N   0  0  0  0  0  0  0  0  0  0  0  0
  -23.8620  -30.8560   23.1810 O   0  0  0  0  0  0  0  0  0  0  0  0
  -23.4630  -28.2820   21.5820 C   0  0  0  0  0  0  0  0  0  0  0  0
  -22.1790  -27.9250   21.4140 N   0  0  0  0  0  0  0  0  0  0  0  0
  -24.2370  -27.6570   22.3100 O   0  0  0  0  0  0  0  0  0  0  0  0
  -21.6030  -28.4930   20.8080 H   0  0  0  0  0  0  0  0  0  0  0  0
  -19.0250  -26.1760   21.7060 C   0  0  0  0  0  0  0  0  0  0  0  0
  -21.5190  -26.7740   22.0340 C   0  0  0  0  0  3  0  0  0  0  0  0
  -21.8270  -25.4720   21.2600 C   0  0  0  0  0  2  0  0  0  0  0  0
  -20.7730  -25.1370   20.1990 C   0  0  0  0  0  2  0  0  0  0  0  0
  -19.3920  -24.9810   20.8440 C   0  0  0  0  0  2  0  0  0  0  0  0
  -20.0220  -27.0260   22.2520 C   0  0  0  0  0  0  0  0  0  0  0  0
  -19.6250  -28.1430   23.0180 C   0  0  0  0  0  3  0  0  0  0  0  0
  -18.2630  -28.4150   23.2430 C   0  0  0  0  0  3  0  0  0  0  0  0
  -17.2790  -27.5610   22.7130 C   0  0  0  0  0  3  0  0  0  0  0  0
  -17.6620  -26.4430   21.9510 C   0  0  0  0  0  3  0  0  0  0  0  0
  -26.1510  -31.5400   23.3320 C   0  0  0  0  0  3  0  0  0  0  0  0
  -26.8490  -30.6440   24.4280 C   0  0  1  0  0  0  0  0  0  0  0  0
  -25.8640  -30.0300   25.4510 C   0  0  0  0  0  1  0  0  0  0  0  0
  -27.6290  -29.4820   23.7690 C   0  0  0  0  0  1  0  0  0  0  0  0
  -27.8870  -31.4840   25.2070 C   0  0  0  0  0  1  0  0  0  0  0  0
  -25.6260  -32.7740   23.9330 N   0  0  0  0  0  0  0  0  0  0  0  0
  -25.7810  -34.0000   23.4160 C   0  0  0  0  0  0  0  0  0  0  0  0
  -26.4510  -34.2180   22.4030 O   0  0  0  0  0  0  0  0  0  0  0  0
  -25.0190  -32.6650   24.7330 H   0  0  0  0  0  0  0  0  0  0  0  0
  -23.7900  -35.5370   23.3910 C   0  0  0  0  0  1  0  0  0  0  0  0
  -25.0830  -35.1690   24.1370 C   0  0  0  0  0  3  0  0  0  0  0  0
  -27.0550  -36.1800   25.1920 C   0  0  0  0  0  1  0  0  0  0  0  0
  -25.9360  -36.3710   24.2740 N   0  0  0  0  0  0  0  0  0  0  0  0
  -25.3910  -37.1640   24.5970 H   0  0  0  0  0  0  0  0  0  0  0  0
  1  2  1  0
  3  5  1  1
  3  1  1  0
  4  3  1  0
  4  8  1  0
  4  6  1  6
  7  4  1  0
  8 13  1  0
  8  2  1  0
  9 10  1  0
 10 14  2  0
 11 14  1  0
 12 11  2  0
 13 12  1  0
 13  9  2  0
 14 23  1  0
 15 23  1  0
 16 21  1  0
 17 18  1  0
 17 16  1  0
 19 18  1  0
 19 28  1  0
 19 20  1  0
 21 15  1  0
 21 20  1  0
 22 15  2  0
 23 24  1  0
 25 26  2  0
 26 45  1  0
 27 26  1  0
 27 30  1  0
 28 29  1  0
 28 25  1  0
 29 27  2  0
 30 31  1  0
 31 32  2  0
 33 36  1  0
 33 32  1  0
 34 33  2  0
 35 34  1  0
 35 30  2  0
 36 37  1  0
 37 42  2  0
 37 38  1  0
 38 39  2  0
 39 40  1  0
 40 44  1  0
 41 40  2  0
 42 41  1  0
 43 42  1  0
 45 46  1  0
 46 49  1  0
 46 48  1  0
 47 45  2  0
 50 25  1  0
 50 51  1  0
 52 50  1  0
 53 12  1  0
 53 54  2  0
 55 56  1  0
 56 53  1  0
 57 58  1  0
 57  3  1  0
 58 60  1  0
 59 70  2  0
 60 65  1  0
 61 69  1  0
 61 71  1  0
 62 68  1  0
 62 64  1  0
 63 69  1  0
 64 63  1  0
 65 64  2  0
 66 67  1  0
 66 60  2  0
 67 62  2  0
 68 61  1  0
 69 59  1  0
 71 73  2  0
 72 71  1  0
 74 72  1  0
 75 84  2  0
 75 80  1  0
 76 72  1  0
 76 80  1  0
 77 76  1  0
 78 79  1  0
 78 77  1  0
 79 75  1  0
 80 81  2  0
 81 82  1  0
 83 82  2  0
 84 83  1  0
 85 59  1  0
 85 90  1  0
 85 86  1  0
 86 89  1  1
 86 87  1  0
 88 86  1  0
 90 93  1  0
 91 90  1  0
 91 95  1  0
 92 91  2  0
 95 94  1  0
 95 97  1  0
 97 98  1  0
 97 96  1  0
M  ISO  4  15 100  23 100  57 101  58 101
M  END
>  <TORSDO>  (59) 
F 20

>  <SCORE>  (59) 
-9.013

>  <name>  (59) 
58

>  <ligand_id>  (59) 
58

>  <original_smiles>  (59) 
[H]c1c([H])c([H])c2c(c1[H])C([H])([H])C([H])([H])C([H])([H])C2([H])N([H])C(=O)C1([H])N(C(=O)C([H])(N([H])C(=O)C([H])(N([H])C([H])([H])[H])C([H])([H])[H])C(C([H])([H])[H])(C([H])([H])[H])C([H])([H])[H])C([H])([H])c2c([H])c(OC([H])([H])C3(C([H])([H])[H])C([H])([H])C([H])([H])N(c4c([H])c([H])c(N([H])C(=O)N5C([H])([H])C([H])([H])C([H])([H])C([H])(n6nc(-c7c([H])c([H])c(Oc8c([H])c([H])c(F)c([H])c8F)c([H])c7[H])c(C(=O)N([H])[H])c6N([H])[H])C5([H])[H])c([H])c4C(=O)C([H])([H])C([H])([H])[H])C3(C([H])([H])[H])C([H])([H])[H])c([H])c([H])c2C1([H])[H]

>  <smiles>  (59) 
[H]c1c([H])c([H])c2c(c1[H])C([H])([H])C([H])([H])C([H])([H])C2([H])N([H])C(=O)C1([H])N(C(=O)C([H])(N([H])C(=O)C([H])(N([H])C([H])([H])[H])C([H])([H])[H])C(C([H])([H])[H])(C([H])([H])[H])C([H])([H])[H])C([H])([H])c2c([H])c(OC([H])([H])C3(C([H])([H])[H])C([H])([H])C([H])([H])N(c4c([H])c([H])c(N([H])C(=O)N5C([H])([H])C([H])([H])C([H])([H])C([H])(n6nc(-c7c([H])c([H])c(Oc8c([H])c([H])c(F)c([H])c8F)c([H])c7[H])c(C(=O)N([H])[H])c6N([H])[H])C5([H])[H])c([H])c4C(=O)C([H])([H])C([H])([H])[H])C3(C([H])([H])[H])C([H])([H])[H])c([H])c([H])c2C1([H])[H]

$$$$
59:0:0
     RDKit          3D

 94103  0  0  1  0  0  0  0  0999 V2000
  -27.9190  -22.8610   18.7930 C   0  0  0  0  0  2  0  0  0  0  0  0
  -28.2880  -21.3760   18.5040 C   0  0  0  0  0  2  0  0  0  0  0  0
  -29.0500  -23.4280   19.6730 C   0  0  1  0  0  0  0  0  0  0  0  0
  -29.2950  -22.0500   20.5260 C   0  0  2  0  0  0  0  0  0  0  0  0
  -30.2560  -23.7600   18.7690 C   0  0  0  0  0  1  0  0  0  0  0  0
  -28.3670  -22.0700   21.7630 C   0  0  0  0  0  1  0  0  0  0  0  0
  -30.7250  -21.9770   21.0920 C   0  0  0  0  0  1  0  0  0  0  0  0
  -29.0430  -20.8330   19.6370 N   0  0  0  0  0  0  0  0  0  0  0  0
  -29.8910  -18.2790   19.9330 C   0  0  0  0  0  3  0  0  0  0  0  0
  -28.8610  -19.3780   19.9350 C   0  0  0  0  0  0  0  0  0  0  0  0
  -27.6210  -18.7940   20.1040 C   0  0  0  0  0  0  0  0  0  0  0  0
  -29.4200  -16.9510   20.1440 C   0  0  0  0  0  0  0  0  0  0  0  0
  -26.2450  -19.3740   20.0090 C   0  0  0  0  0  1  0  0  0  0  0  0
  -27.7070  -17.0790   20.4120 S   0  0  0  0  0  0  0  0  0  0  0  0
  -30.6500  -14.6300   19.6390 C   0  0  0  0  0  0  0  0  0  0  0  0
  -30.5480  -12.2610   18.7630 C   0  0  0  0  0  2  0  0  0  0  0  0
  -29.4900  -12.2060   17.6330 C   0  0  0  0  0  2  0  0  0  0  0  0
  -28.0650  -12.0200   18.1970 C   0  0  0  0  0  2  0  0  0  0  0  0
  -27.7760  -12.9630   19.3950 C   0  0  0  0  0  3  0  0  0  0  0  0
  -28.9340  -12.9260   20.4170 C   0  0  0  0  0  2  0  0  0  0  0  0
  -30.1590  -13.3360   19.7080 N   0  0  0  0  0  0  0  0  0  0  0  0
  -31.7260  -14.8560   19.0750 O   0  0  0  0  0  0  0  0  0  0  0  0
  -29.8240  -15.5920   20.2070 N   0  0  0  0  0  0  0  0  0  0  0  0
  -29.1490  -15.0750   20.7490 H   0  0  0  0  0  0  0  0  0  0  0  0
  -25.5160  -13.5730   20.4420 C   0  0  0  0  0  0  0  0  0  0  0  0
  -24.4720  -12.8080   20.8870 C   0  0  0  0  0  0  0  0  0  0  0  0
  -24.8740  -11.4510   20.6990 C   0  0  0  0  0  0  0  0  0  0  0  0
  -26.4860  -12.6810   20.0150 N   0  0  0  0  0  0  0  0  0  0  0  0
  -26.1140  -11.3930   20.2300 N   0  0  0  0  0  0  0  0  0  0  0  0
  -24.1230  -10.2030   20.8840 C   0  0  0  0  0  0  0  0  0  0  0  0
  -24.5410   -9.2220   21.8100 C   0  0  0  0  0  3  0  0  0  0  0  0
  -23.7920   -8.0380   21.9830 C   0  0  0  0  0  3  0  0  0  0  0  0
  -22.6120   -7.8260   21.2300 C   0  0  0  0  0  0  0  0  0  0  0  0
  -22.2170   -8.7960   20.2930 C   0  0  0  0  0  3  0  0  0  0  0  0
  -22.9640   -9.9720   20.1170 C   0  0  0  0  0  3  0  0  0  0  0  0
  -21.8330   -6.6970   21.3160 O   0  0  0  0  0  0  0  0  0  0  0  0
  -21.6450   -6.0430   22.5070 C   0  0  0  0  0  0  0  0  0  0  0  0
  -21.0920   -6.6880   23.6330 C   0  0  0  0  0  3  0  0  0  0  0  0
  -20.8490   -5.9600   24.8150 C   0  0  0  0  0  3  0  0  0  0  0  0
  -21.1490   -4.5860   24.8690 C   0  0  0  0  0  0  0  0  0  0  0  0
  -21.6980   -3.9390   23.7470 C   0  0  0  0  0  3  0  0  0  0  0  0
  -21.9420   -4.6650   22.5680 C   0  0  0  0  0  0  0  0  0  0  0  0
  -22.4490   -4.0310   21.4830 F   0  0  0  0  0  0  0  0  0  0  0  0
  -20.9090   -3.8840   26.0010 F   0  0  0  0  0  0  0  0  0  0  0  0
  -23.1410  -13.3080   21.3630 C   0  0  0  0  0  0  0  0  0  0  0  0
  -22.5030  -12.5790   22.2720 N   0  0  0  0  0  0  0  0  0  0  0  0
  -22.6810  -14.3780   20.9670 O   0  0  0  0  0  0  0  0  0  0  0  0
  -22.8900  -11.7110   22.6070 H   0  0  0  0  0  0  0  0  0  0  0  0
  -21.6130  -12.8940   22.6310 H   0  0  0  0  0  0  0  0  0  0  0  0
  -25.7090  -14.9470   20.3430 N   0  0  0  0  0  0  0  0  0  0  0  0
  -24.9990  -15.6100   20.6290 H   0  0  0  0  0  0  0  0  0  0  0  0
  -26.5110  -15.3910   19.9150 H   0  0  0  0  0  0  0  0  0  0  0  0
  -28.6720  -24.8360   20.4420 C   0  0  0  0  0  2  0  0  0  0  0  0
  -28.7630  -26.2200   19.8390 O   0  0  0  0  0  0  0  0  0  0  0  0
  -24.6570  -31.3480   22.9770 C   0  0  0  0  0  0  0  0  0  0  0  0
  -27.6200  -27.0480   19.8330 C   0  0  0  0  0  0  0  0  0  0  0  0
  -23.5880  -29.9430   21.2520 C   0  0  0  0  0  3  0  0  0  0  0  0
  -25.1710  -28.5450   19.8020 C   0  0  0  0  0  0  0  0  0  0  0  0
  -26.1080  -30.4240   21.1460 C   0  0  0  0  0  2  0  0  0  0  0  0
  -26.2940  -29.0760   20.4490 C   0  0  0  0  0  0  0  0  0  0  0  0
  -27.5240  -28.3420   20.4510 C   0  0  0  0  0  3  0  0  0  0  0  0
  -26.4750  -26.5820   19.1580 C   0  0  0  0  0  3  0  0  0  0  0  0
  -25.2660  -27.3080   19.1440 C   0  0  0  0  0  3  0  0  0  0  0  0
  -23.8790  -29.3420   19.8520 C   0  0  0  0  0  2  0  0  0  0  0  0
  -24.8010  -30.5910   21.8500 N   0  0  0  0  0  0  0  0  0  0  0  0
  -23.5460  -31.5280   23.4960 O   0  0  0  0  0  0  0  0  0  0  0  0
  -22.9720  -28.8470   22.1540 C   0  0  0  0  0  0  0  0  0  0  0  0
  -21.6580  -28.6050   22.0040 N   0  0  0  0  0  0  0  0  0  0  0  0
  -23.6760  -28.2180   22.9490 O   0  0  0  0  0  0  0  0  0  0  0  0
  -21.1460  -29.1650   21.3370 H   0  0  0  0  0  0  0  0  0  0  0  0
  -18.3430  -27.2180   22.4280 C   0  0  0  0  0  0  0  0  0  0  0  0
  -20.8860  -27.5860   22.7170 C   0  0  0  0  0  3  0  0  0  0  0  0
  -21.0580  -26.1970   22.0600 C   0  0  0  0  0  2  0  0  0  0  0  0
  -19.9720  -25.8810   21.0260 C   0  0  0  0  0  2  0  0  0  0  0  0
  -18.5850  -25.9200   21.6760 C   0  0  0  0  0  2  0  0  0  0  0  0
  -19.4240  -28.0080   22.9040 C   0  0  0  0  0  0  0  0  0  0  0  0
  -19.1430  -29.2210   23.5680 C   0  0  0  0  0  3  0  0  0  0  0  0
  -17.8160  -29.6470   23.7630 C   0  0  0  0  0  3  0  0  0  0  0  0
  -16.7490  -28.8540   23.3040 C   0  0  0  0  0  3  0  0  0  0  0  0
  -17.0150  -27.6410   22.6420 C   0  0  0  0  0  3  0  0  0  0  0  0
  -25.8780  -32.0400   23.6580 C   0  0  0  0  0  3  0  0  0  0  0  0
  -25.4540  -33.3880   24.0680 N   0  0  0  0  0  0  0  0  0  0  0  0
  -25.6840  -34.5050   23.3660 C   0  0  0  0  0  0  0  0  0  0  0  0
  -26.3430  -34.5160   22.3240 O   0  0  0  0  0  0  0  0  0  0  0  0
  -24.8590  -33.4460   24.8810 H   0  0  0  0  0  0  0  0  0  0  0  0
  -23.7940  -36.1530   23.1510 C   0  0  0  0  0  1  0  0  0  0  0  0
  -25.0900  -35.8210   23.9070 C   0  0  0  0  0  3  0  0  0  0  0  0
  -27.1610  -36.8550   24.7290 C   0  0  0  0  0  1  0  0  0  0  0  0
  -26.0210  -36.9670   23.8220 N   0  0  0  0  0  0  0  0  0  0  0  0
  -25.5400  -37.8390   24.0240 H   0  0  0  0  0  0  0  0  0  0  0  0
  -26.4360  -31.2360   24.8960 C   0  0  1  0  0  0  0  0  0  0  0  0
  -25.3530  -30.8600   25.9350 C   0  0  0  0  0  1  0  0  0  0  0  0
  -27.1210  -29.9280   24.4360 C   0  0  0  0  0  1  0  0  0  0  0  0
  -27.5180  -32.0710   25.6190 C   0  0  0  0  0  1  0  0  0  0  0  0
  1  3  1  0
  2  1  1  0
  2  8  1  0
  3  5  1  6
  3 53  1  0
  3  4  1  0
  4  7  1  1
  4  6  1  0
  8 10  1  0
  8  4  1  0
  9 10  1  0
  9 12  2  0
 10 11  2  0
 11 14  1  0
 12 23  1  0
 12 14  1  0
 13 11  1  0
 15 21  1  0
 15 23  1  0
 16 21  1  0
 17 18  1  0
 17 16  1  0
 19 18  1  0
 19 28  1  0
 19 20  1  0
 21 20  1  0
 22 15  2  0
 23 24  1  0
 25 26  2  0
 26 45  1  0
 27 30  1  0
 27 26  1  0
 28 29  1  0
 28 25  1  0
 29 27  2  0
 30 31  1  0
 31 32  2  0
 33 36  1  0
 33 32  1  0
 34 33  2  0
 35 34  1  0
 35 30  2  0
 36 37  1  0
 37 42  2  0
 37 38  1  0
 38 39  2  0
 39 40  1  0
 40 44  1  0
 41 40  2  0
 42 41  1  0
 43 42  1  0
 45 46  1  0
 46 48  1  0
 46 49  1  0
 47 45  2  0
 50 25  1  0
 50 51  1  0
 52 50  1  0
 54 53  1  0
 55 66  2  0
 56 54  1  0
 56 61  1  0
 57 65  1  0
 57 67  1  0
 58 64  1  0
 58 60  1  0
 59 65  1  0
 60 61  2  0
 60 59  1  0
 62 56  2  0
 63 62  1  0
 63 58  2  0
 64 57  1  0
 65 55  1  0
 67 69  2  0
 68 67  1  0
 70 68  1  0
 71 80  2  0
 71 76  1  0
 72 68  1  0
 72 76  1  0
 73 72  1  0
 74 75  1  0
 74 73  1  0
 75 71  1  0
 76 77  2  0
 77 78  1  0
 79 78  2  0
 80 79  1  0
 81 55  1  0
 81 82  1  0
 81 91  1  0
 82 85  1  0
 83 87  1  0
 83 82  1  0
 84 83  2  0
 87 86  1  0
 89 87  1  0
 89 90  1  0
 89 88  1  0
 91 94  1  1
 91 92  1  0
 93 91  1  0
M  ISO  4  15 100  23 100  53 101  54 101
M  END
>  <TORSDO>  (60) 
F 18

>  <SCORE>  (60) 
-11.497

>  <name>  (60) 
59

>  <ligand_id>  (60) 
59

>  <original_smiles>  (60) 
[H]c1c([H])c([H])c2c(c1[H])C([H])([H])C([H])([H])C([H])([H])C2([H])N([H])C(=O)C1([H])N(C(=O)C([H])(N([H])C(=O)C([H])(N([H])C([H])([H])[H])C([H])([H])[H])C(C([H])([H])[H])(C([H])([H])[H])C([H])([H])[H])C([H])([H])c2c([H])c(OC([H])([H])C3(C([H])([H])[H])C([H])([H])C([H])([H])N(c4c(C([H])([H])[H])sc(N([H])C(=O)N5C([H])([H])C([H])([H])C([H])([H])C([H])(n6nc(-c7c([H])c([H])c(Oc8c([H])c([H])c(F)c([H])c8F)c([H])c7[H])c(C(=O)N([H])[H])c6N([H])[H])C5([H])[H])c4[H])C3(C([H])([H])[H])C([H])([H])[H])c([H])c([H])c2C1([H])[H]

>  <smiles>  (60) 
[H]c1c([H])c([H])c2c(c1[H])C([H])([H])C([H])([H])C([H])([H])C2([H])N([H])C(=O)C1([H])N(C(=O)C([H])(N([H])C(=O)C([H])(N([H])C([H])([H])[H])C([H])([H])[H])C(C([H])([H])[H])(C([H])([H])[H])C([H])([H])[H])C([H])([H])c2c([H])c(OC([H])([H])C3(C([H])([H])[H])C([H])([H])C([H])([H])N(c4c(C([H])([H])[H])sc(N([H])C(=O)N5C([H])([H])C([H])([H])C([H])([H])C([H])(n6nc(-c7c([H])c([H])c(Oc8c([H])c([H])c(F)c([H])c8F)c([H])c7[H])c(C(=O)N([H])[H])c6N([H])[H])C5([H])[H])c4[H])C3(C([H])([H])[H])C([H])([H])[H])c([H])c([H])c2C1([H])[H]

$$$$
60:0:0
     RDKit          3D

 91100  0  0  1  0  0  0  0  0999 V2000
  -29.2780  -22.7910   19.9040 C   0  0  0  0  0  0  0  0  0  0  0  0
  -30.1170  -21.9790   20.5960 N   0  0  0  0  0  0  0  0  0  0  0  0
  -28.3610  -22.3480   19.2070 O   0  0  0  0  0  0  0  0  0  0  0  0
  -30.7870  -22.4680   21.1750 H   0  0  0  0  0  0  0  0  0  0  0  0
  -29.5730  -19.6210   19.8780 C   0  0  0  0  0  3  0  0  0  0  0  0
  -29.8760  -18.2750   20.2990 C   0  0  0  0  0  0  0  0  0  0  0  0
  -30.6930  -18.2270   21.3620 C   0  0  0  0  0  0  0  0  0  0  0  0
  -30.1720  -20.6020   20.6640 C   0  0  0  0  0  0  0  0  0  0  0  0
  -29.4940  -16.8730   19.8890 C   0  0  0  0  0  2  0  0  0  0  0  0
  -30.9870  -16.8510   21.8650 C   0  0  0  0  0  2  0  0  0  0  0  0
  -30.0250  -15.9180   21.0320 C   0  0  0  0  0  3  0  0  0  0  0  0
  -31.1530  -19.8190   21.9140 S   0  0  0  0  0  0  0  0  0  0  0  0
  -30.6690  -14.5850   20.4930 C   0  0  0  0  0  0  0  0  0  0  0  0
  -30.3660  -12.4010   19.3610 C   0  0  0  0  0  2  0  0  0  0  0  0
  -29.4310  -12.5910   18.1490 C   0  0  0  0  0  2  0  0  0  0  0  0
  -27.9470  -12.4830   18.5520 C   0  0  0  0  0  2  0  0  0  0  0  0
  -27.6010  -13.2920   19.8290 C   0  0  0  0  0  3  0  0  0  0  0  0
  -28.6580  -13.0880   20.9370 C   0  0  0  0  0  2  0  0  0  0  0  0
  -29.9830  -13.4010   20.3790 N   0  0  0  0  0  0  0  0  0  0  0  0
  -31.8150  -14.6800   20.0470 O   0  0  0  0  0  0  0  0  0  0  0  0
  -25.1870  -13.8710   20.5140 C   0  0  0  0  0  0  0  0  0  0  0  0
  -24.1220  -13.0960   20.8740 C   0  0  0  0  0  0  0  0  0  0  0  0
  -24.5880  -11.7450   20.8480 C   0  0  0  0  0  0  0  0  0  0  0  0
  -26.2450  -13.0000   20.2990 N   0  0  0  0  0  0  0  0  0  0  0  0
  -25.8850  -11.7140   20.5530 N   0  0  0  0  0  0  0  0  0  0  0  0
  -23.8580  -10.4840   21.0360 C   0  0  0  0  0  0  0  0  0  0  0  0
  -24.2820   -9.5180   21.9750 C   0  0  0  0  0  3  0  0  0  0  0  0
  -23.5540   -8.3210   22.1520 C   0  0  0  0  0  3  0  0  0  0  0  0
  -22.3850   -8.0830   21.3910 C   0  0  0  0  0  0  0  0  0  0  0  0
  -21.9800   -9.0360   20.4410 C   0  0  0  0  0  3  0  0  0  0  0  0
  -22.7100  -10.2240   20.2630 C   0  0  0  0  0  3  0  0  0  0  0  0
  -21.6250   -6.9410   21.4770 O   0  0  0  0  0  0  0  0  0  0  0  0
  -21.5670   -6.2010   22.6310 C   0  0  0  0  0  0  0  0  0  0  0  0
  -21.1280   -6.7570   23.8520 C   0  0  0  0  0  3  0  0  0  0  0  0
  -21.0190   -5.9420   24.9980 C   0  0  0  0  0  3  0  0  0  0  0  0
  -21.3390   -4.5730   24.9230 C   0  0  0  0  0  0  0  0  0  0  0  0
  -21.7710   -4.0160   23.7040 C   0  0  0  0  0  3  0  0  0  0  0  0
  -21.8830   -4.8290   22.5630 C   0  0  0  0  0  0  0  0  0  0  0  0
  -22.2810   -4.2830   21.3890 F   0  0  0  0  0  0  0  0  0  0  0  0
  -21.2260   -3.7890   26.0200 F   0  0  0  0  0  0  0  0  0  0  0  0
  -22.7200  -13.5660   21.1340 C   0  0  0  0  0  0  0  0  0  0  0  0
  -21.9830  -12.8750   21.9990 N   0  0  0  0  0  0  0  0  0  0  0  0
  -22.2850  -14.5890   20.6060 O   0  0  0  0  0  0  0  0  0  0  0  0
  -22.3490  -12.0530   22.4600 H   0  0  0  0  0  0  0  0  0  0  0  0
  -21.0420  -13.1730   22.2100 H   0  0  0  0  0  0  0  0  0  0  0  0
  -25.3360  -15.2440   20.3310 N   0  0  0  0  0  0  0  0  0  0  0  0
  -24.5410  -15.8730   20.3890 H   0  0  0  0  0  0  0  0  0  0  0  0
  -26.1810  -15.7040   20.0220 H   0  0  0  0  0  0  0  0  0  0  0  0
  -29.5010  -24.3350   19.9630 C   0  0  0  0  0  3  0  0  0  0  0  0
  -28.2380  -25.1860   20.3140 C   0  0  0  0  0  3  0  0  0  0  0  0
  -28.3710  -26.6290   20.1280 O   0  0  0  0  0  0  0  0  0  0  0  0
  -24.5830  -31.8790   23.2310 C   0  0  0  0  0  0  0  0  0  0  0  0
  -27.2070  -27.3930   20.1320 C   0  0  0  0  0  0  0  0  0  0  0  0
  -23.3700  -30.4810   21.5950 C   0  0  0  0  0  3  0  0  0  0  0  0
  -24.8180  -28.9440   20.1610 C   0  0  0  0  0  0  0  0  0  0  0  0
  -25.9070  -30.8190   21.3980 C   0  0  0  0  0  2  0  0  0  0  0  0
  -25.9860  -29.4500   20.7440 C   0  0  0  0  0  0  0  0  0  0  0  0
  -27.1850  -28.6880   20.7180 C   0  0  0  0  0  3  0  0  0  0  0  0
  -26.0160  -26.9240   19.5310 C   0  0  0  0  0  3  0  0  0  0  0  0
  -24.8330  -27.6840   19.5440 C   0  0  0  0  0  3  0  0  0  0  0  0
  -23.5750  -29.8030   20.2140 C   0  0  0  0  0  2  0  0  0  0  0  0
  -24.6370  -31.0760   22.1300 N   0  0  0  0  0  0  0  0  0  0  0  0
  -23.5020  -32.1520   23.7750 O   0  0  0  0  0  0  0  0  0  0  0  0
  -22.7150  -29.4590   22.5560 C   0  0  0  0  0  0  0  0  0  0  0  0
  -21.3910  -29.2740   22.4270 N   0  0  0  0  0  0  0  0  0  0  0  0
  -23.3980  -28.8380   23.3750 O   0  0  0  0  0  0  0  0  0  0  0  0
  -20.8970  -29.8300   21.7440 H   0  0  0  0  0  0  0  0  0  0  0  0
  -18.0180  -28.0680   22.9240 C   0  0  0  0  0  0  0  0  0  0  0  0
  -20.5750  -28.3360   23.1980 C   0  0  0  0  0  3  0  0  0  0  0  0
  -20.6820  -26.9010   22.6290 C   0  0  0  0  0  2  0  0  0  0  0  0
  -19.5850  -26.5730   21.6120 C   0  0  0  0  0  2  0  0  0  0  0  0
  -18.2000  -26.7160   22.2530 C   0  0  0  0  0  2  0  0  0  0  0  0
  -19.1330  -28.8360   23.3540 C   0  0  0  0  0  0  0  0  0  0  0  0
  -18.9090  -30.1020   23.9370 C   0  0  0  0  0  3  0  0  0  0  0  0
  -17.6020  -30.6000   24.0950 C   0  0  0  0  0  3  0  0  0  0  0  0
  -16.5020  -29.8280   23.6860 C   0  0  0  0  0  3  0  0  0  0  0  0
  -16.7110  -28.5640   23.1070 C   0  0  0  0  0  3  0  0  0  0  0  0
  -25.8700  -32.5110   23.8470 C   0  0  0  0  0  3  0  0  0  0  0  0
  -26.4010  -31.7340   25.1120 C   0  0  1  0  0  0  0  0  0  0  0  0
  -25.3220  -31.4790   26.1900 C   0  0  0  0  0  1  0  0  0  0  0  0
  -26.9870  -30.3620   24.7080 C   0  0  0  0  0  1  0  0  0  0  0  0
  -27.5540  -32.5270   25.7710 C   0  0  0  0  0  1  0  0  0  0  0  0
  -25.5580  -33.9060   24.1870 N   0  0  0  0  0  0  0  0  0  0  0  0
  -25.8730  -34.9650   23.4270 C   0  0  0  0  0  0  0  0  0  0  0  0
  -26.5270  -34.8700   22.3850 O   0  0  0  0  0  0  0  0  0  0  0  0
  -24.9710  -34.0530   24.9960 H   0  0  0  0  0  0  0  0  0  0  0  0
  -24.1250  -36.7490   23.1130 C   0  0  0  0  0  1  0  0  0  0  0  0
  -25.3830  -36.3490   23.8990 C   0  0  0  0  0  3  0  0  0  0  0  0
  -27.5320  -37.2370   24.6860 C   0  0  0  0  0  1  0  0  0  0  0  0
  -26.4030  -37.4130   23.7770 N   0  0  0  0  0  0  0  0  0  0  0  0
  -25.9910  -38.3240   23.9600 H   0  0  0  0  0  0  0  0  0  0  0  0
  1 49  1  0
  1  2  1  0
  2  8  1  0
  2  4  1  0
  3  1  2  0
  5  6  1  0
  5  8  2  0
  6  7  2  0
  7 10  1  0
  7 12  1  0
  8 12  1  0
  9  6  1  0
  9 11  1  0
 11 13  1  0
 11 10  1  0
 14 19  1  0
 15 16  1  0
 15 14  1  0
 17 16  1  0
 17 24  1  0
 17 18  1  0
 19 13  1  0
 19 18  1  0
 20 13  2  0
 21 22  2  0
 22 41  1  0
 23 22  1  0
 23 26  1  0
 24 21  1  0
 24 25  1  0
 25 23  2  0
 26 27  1  0
 27 28  2  0
 29 32  1  0
 29 28  1  0
 30 29  2  0
 31 30  1  0
 31 26  2  0
 32 33  1  0
 33 34  1  0
 34 35  2  0
 36 35  1  0
 36 40  1  0
 37 36  2  0
 38 33  2  0
 38 37  1  0
 39 38  1  0
 41 42  1  0
 42 45  1  0
 42 44  1  0
 43 41  2  0
 46 47  1  0
 46 21  1  0
 48 46  1  0
 49 50  2  0
 51 53  1  0
 51 50  1  0
 52 63  2  0
 53 58  1  0
 54 62  1  0
 54 64  1  0
 55 61  1  0
 55 57  1  0
 56 62  1  0
 57 56  1  0
 58 57  2  0
 59 60  1  0
 59 53  2  0
 60 55  2  0
 61 54  1  0
 62 52  1  0
 64 66  2  0
 65 64  1  0
 67 65  1  0
 68 77  2  0
 68 73  1  0
 69 65  1  0
 69 73  1  0
 70 69  1  0
 71 72  1  0
 71 70  1  0
 72 68  1  0
 73 74  2  0
 74 75  1  0
 76 75  2  0
 77 76  1  0
 78 52  1  0
 78 83  1  0
 78 79  1  0
 79 82  1  1
 79 80  1  0
 81 79  1  0
 83 86  1  0
 84 88  1  0
 84 83  1  0
 85 84  2  0
 88 87  1  0
 90 88  1  0
 90 91  1  0
 90 89  1  0
M  ISO  4  11 100  13 100  50 101  51 101
M  END
>  <TORSDO>  (61) 
F 19

>  <SCORE>  (61) 
-14.449

>  <name>  (61) 
60

>  <ligand_id>  (61) 
60

>  <original_smiles>  (61) 
[H]c1c([H])c([H])c2c(c1[H])C([H])([H])C([H])([H])C([H])([H])C2([H])N([H])C(=O)C1([H])N(C(=O)C([H])(N([H])C(=O)C([H])(N([H])C([H])([H])[H])C([H])([H])[H])C(C([H])([H])[H])(C([H])([H])[H])C([H])([H])[H])C([H])([H])c2c([H])c(OC([H])([H])C([H])([H])C(=O)N([H])c3sc4c(c3[H])C([H])([H])C([H])(C(=O)N3C([H])([H])C([H])([H])C([H])([H])C([H])(n5nc(-c6c([H])c([H])c(Oc7c([H])c([H])c(F)c([H])c7F)c([H])c6[H])c(C(=O)N([H])[H])c5N([H])[H])C3([H])[H])C4([H])[H])c([H])c([H])c2C1([H])[H]

>  <smiles>  (61) 
[H]c1c([H])c([H])c2c(c1[H])C([H])([H])C([H])([H])C([H])([H])C2([H])N([H])C(=O)C1([H])N(C(=O)C([H])(N([H])C(=O)C([H])(N([H])C([H])([H])[H])C([H])([H])[H])C(C([H])([H])[H])(C([H])([H])[H])C([H])([H])[H])C([H])([H])c2c([H])c(OC([H])([H])C([H])([H])C(=O)N([H])c3sc4c(c3[H])C([H])([H])C([H])(C(=O)N3C([H])([H])C([H])([H])C([H])([H])C([H])(n5nc(-c6c([H])c([H])c(Oc7c([H])c([H])c(F)c([H])c7F)c([H])c6[H])c(C(=O)N([H])[H])c5N([H])[H])C3([H])[H])C4([H])[H])c([H])c([H])c2C1([H])[H]

$$$$
61:0:0
     RDKit          3D

 92101  0  0  1  0  0  0  0  0999 V2000
  -29.5360  -23.0930   21.6840 C   0  0  0  0  0  2  0  0  0  0  0  0
  -28.6610  -23.0710   19.3460 C   0  0  0  0  0  2  0  0  0  0  0  0
  -28.9820  -21.6220   21.6710 C   0  0  0  0  0  2  0  0  0  0  0  0
  -29.4100  -21.6950   19.2440 C   0  0  0  0  0  2  0  0  0  0  0  0
  -29.2020  -24.0300   20.4540 C   0  0  2  0  0  0  0  0  0  0  0  0
  -30.5160  -24.6860   19.9710 C   0  0  0  0  0  1  0  0  0  0  0  0
  -29.2890  -20.8540   20.4510 N   0  0  0  0  0  0  0  0  0  0  0  0
  -29.3330  -18.2630   20.6110 C   0  0  0  0  0  3  0  0  0  0  0  0
  -31.3280  -19.4380   20.4570 C   0  0  0  0  0  3  0  0  0  0  0  0
  -29.9690  -19.5760   20.5110 C   0  0  0  0  0  0  0  0  0  0  0  0
  -30.1900  -17.1530   20.5940 C   0  0  0  0  0  0  0  0  0  0  0  0
  -31.8360  -17.7650   20.5060 S   0  0  0  0  0  0  0  0  0  0  0  0
  -30.6250  -14.6830   20.3530 C   0  0  0  0  0  0  0  0  0  0  0  0
  -30.3640  -12.4560   19.2830 C   0  0  0  0  0  2  0  0  0  0  0  0
  -29.4130  -12.5870   18.0750 C   0  0  0  0  0  2  0  0  0  0  0  0
  -27.9450  -12.4280   18.5170 C   0  0  0  0  0  2  0  0  0  0  0  0
  -27.5960  -13.2880   19.7600 C   0  0  0  0  0  3  0  0  0  0  0  0
  -28.6670  -13.1510   20.8670 C   0  0  0  0  0  2  0  0  0  0  0  0
  -29.9690  -13.4830   20.2700 N   0  0  0  0  0  0  0  0  0  0  0  0
  -31.7990  -14.7710   19.9840 O   0  0  0  0  0  0  0  0  0  0  0  0
  -29.8710  -15.7960   20.6480 N   0  0  0  0  0  0  0  0  0  0  0  0
  -28.9080  -15.5840   20.8560 H   0  0  0  0  0  0  0  0  0  0  0  0
  -25.2080  -13.8770   20.4990 C   0  0  0  0  0  0  0  0  0  0  0  0
  -24.1440  -13.1010   20.8700 C   0  0  0  0  0  0  0  0  0  0  0  0
  -24.6090  -11.7500   20.8340 C   0  0  0  0  0  0  0  0  0  0  0  0
  -26.2520  -13.0000   20.2550 N   0  0  0  0  0  0  0  0  0  0  0  0
  -25.8990  -11.7160   20.5190 N   0  0  0  0  0  0  0  0  0  0  0  0
  -23.8850  -10.4850   21.0240 C   0  0  0  0  0  0  0  0  0  0  0  0
  -24.3210   -9.5170   21.9550 C   0  0  0  0  0  3  0  0  0  0  0  0
  -23.5980   -8.3180   22.1330 C   0  0  0  0  0  3  0  0  0  0  0  0
  -22.4240   -8.0790   21.3800 C   0  0  0  0  0  0  0  0  0  0  0  0
  -22.0070   -9.0360   20.4390 C   0  0  0  0  0  3  0  0  0  0  0  0
  -22.7310  -10.2260   20.2580 C   0  0  0  0  0  3  0  0  0  0  0  0
  -21.6710   -6.9330   21.4690 O   0  0  0  0  0  0  0  0  0  0  0  0
  -21.6220   -6.1910   22.6220 C   0  0  0  0  0  0  0  0  0  0  0  0
  -21.1810   -6.7430   23.8460 C   0  0  0  0  0  3  0  0  0  0  0  0
  -21.0810   -5.9280   24.9900 C   0  0  0  0  0  3  0  0  0  0  0  0
  -21.4100   -4.5610   24.9130 C   0  0  0  0  0  0  0  0  0  0  0  0
  -21.8440   -4.0080   23.6940 C   0  0  0  0  0  3  0  0  0  0  0  0
  -21.9460   -4.8220   22.5520 C   0  0  0  0  0  0  0  0  0  0  0  0
  -22.3440   -4.2790   21.3750 F   0  0  0  0  0  0  0  0  0  0  0  0
  -21.3070   -3.7740   26.0090 F   0  0  0  0  0  0  0  0  0  0  0  0
  -22.7470  -13.5740   21.1500 C   0  0  0  0  0  0  0  0  0  0  0  0
  -22.0210  -12.8720   22.0130 N   0  0  0  0  0  0  0  0  0  0  0  0
  -22.3060  -14.6030   20.6370 O   0  0  0  0  0  0  0  0  0  0  0  0
  -22.3880  -12.0400   22.4500 H   0  0  0  0  0  0  0  0  0  0  0  0
  -21.0850  -13.1730   22.2430 H   0  0  0  0  0  0  0  0  0  0  0  0
  -25.3690  -15.2490   20.3270 N   0  0  0  0  0  0  0  0  0  0  0  0
  -24.6060  -15.9050   20.4630 H   0  0  0  0  0  0  0  0  0  0  0  0
  -26.2120  -15.6930   19.9870 H   0  0  0  0  0  0  0  0  0  0  0  0
  -28.1840  -25.2170   20.8120 C   0  0  0  0  0  2  0  0  0  0  0  0
  -28.3480  -26.5520   20.2050 O   0  0  0  0  0  0  0  0  0  0  0  0
  -24.5840  -31.8970   23.2470 C   0  0  0  0  0  0  0  0  0  0  0  0
  -27.2200  -27.3770   20.1930 C   0  0  0  0  0  0  0  0  0  0  0  0
  -23.3850  -30.4930   21.6060 C   0  0  0  0  0  3  0  0  0  0  0  0
  -24.8430  -28.9510   20.1790 C   0  0  0  0  0  0  0  0  0  0  0  0
  -25.9180  -30.8320   21.4170 C   0  0  0  0  0  2  0  0  0  0  0  0
  -26.0070  -29.4560   20.7740 C   0  0  0  0  0  0  0  0  0  0  0  0
  -27.2010  -28.6790   20.7730 C   0  0  0  0  0  3  0  0  0  0  0  0
  -26.0390  -26.9180   19.5720 C   0  0  0  0  0  3  0  0  0  0  0  0
  -24.8610  -27.6870   19.5690 C   0  0  0  0  0  3  0  0  0  0  0  0
  -23.6010  -29.8190   20.2260 C   0  0  0  0  0  2  0  0  0  0  0  0
  -24.6480  -31.0910   22.1480 N   0  0  0  0  0  0  0  0  0  0  0  0
  -23.5010  -32.1720   23.7830 O   0  0  0  0  0  0  0  0  0  0  0  0
  -22.7300  -29.4720   22.5660 C   0  0  0  0  0  0  0  0  0  0  0  0
  -21.4050  -29.2910   22.4430 N   0  0  0  0  0  0  0  0  0  0  0  0
  -23.4120  -28.8450   23.3800 O   0  0  0  0  0  0  0  0  0  0  0  0
  -20.9130  -29.8520   21.7630 H   0  0  0  0  0  0  0  0  0  0  0  0
  -18.0310  -28.0910   22.9430 C   0  0  0  0  0  0  0  0  0  0  0  0
  -20.5880  -28.3500   23.2110 C   0  0  0  0  0  3  0  0  0  0  0  0
  -20.6910  -26.9190   22.6320 C   0  0  0  0  0  2  0  0  0  0  0  0
  -19.5880  -26.5990   21.6190 C   0  0  0  0  0  2  0  0  0  0  0  0
  -18.2060  -26.7420   22.2650 C   0  0  0  0  0  2  0  0  0  0  0  0
  -19.1500  -28.8520   23.3740 C   0  0  0  0  0  0  0  0  0  0  0  0
  -18.9330  -30.1150   23.9670 C   0  0  0  0  0  3  0  0  0  0  0  0
  -17.6280  -30.6160   24.1360 C   0  0  0  0  0  3  0  0  0  0  0  0
  -16.5230  -29.8520   23.7220 C   0  0  0  0  0  3  0  0  0  0  0  0
  -16.7240  -28.5910   23.1320 C   0  0  0  0  0  3  0  0  0  0  0  0
  -25.8670  -32.5330   23.8680 C   0  0  0  0  0  3  0  0  0  0  0  0
  -25.5580  -33.9330   24.1890 N   0  0  0  0  0  0  0  0  0  0  0  0
  -25.8970  -34.9820   23.4270 C   0  0  0  0  0  0  0  0  0  0  0  0
  -26.5720  -34.8710   22.4000 O   0  0  0  0  0  0  0  0  0  0  0  0
  -24.9600  -34.0930   24.9870 H   0  0  0  0  0  0  0  0  0  0  0  0
  -24.1790  -36.7770   23.0510 C   0  0  0  0  0  1  0  0  0  0  0  0
  -25.4090  -36.3720   23.8760 C   0  0  0  0  0  3  0  0  0  0  0  0
  -27.5390  -37.2520   24.7250 C   0  0  0  0  0  1  0  0  0  0  0  0
  -26.4470  -37.4210   23.7710 N   0  0  0  0  0  0  0  0  0  0  0  0
  -26.0420  -38.3430   23.9120 H   0  0  0  0  0  0  0  0  0  0  0  0
  -26.3810  -31.7690   25.1480 C   0  0  1  0  0  0  0  0  0  0  0  0
  -25.2850  -31.5370   26.2150 C   0  0  0  0  0  1  0  0  0  0  0  0
  -26.9650  -30.3900   24.7620 C   0  0  0  0  0  1  0  0  0  0  0  0
  -27.5310  -32.5670   25.8090 C   0  0  0  0  0  1  0  0  0  0  0  0
  2  5  1  0
  3  1  1  0
  4  2  1  0
  4  7  1  0
  5  6  1  6
  5 51  1  0
  5  1  1  0
  7 10  1  0
  7  3  1  0
  9 12  1  0
  9 10  2  0
 10  8  1  0
 11  8  2  0
 11 21  1  0
 12 11  1  0
 13 21  1  0
 14 19  1  0
 15 16  1  0
 15 14  1  0
 17 16  1  0
 17 26  1  0
 17 18  1  0
 19 13  1  0
 19 18  1  0
 20 13  2  0
 21 22  1  0
 23 24  2  0
 24 43  1  0
 25 24  1  0
 25 28  1  0
 26 23  1  0
 26 27  1  0
 27 25  2  0
 28 29  1  0
 29 30  2  0
 31 34  1  0
 31 30  1  0
 32 31  2  0
 33 32  1  0
 33 28  2  0
 34 35  1  0
 35 36  1  0
 36 37  2  0
 38 37  1  0
 38 42  1  0
 39 38  2  0
 40 35  2  0
 40 39  1  0
 41 40  1  0
 43 44  1  0
 44 47  1  0
 44 46  1  0
 45 43  2  0
 48 49  1  0
 48 23  1  0
 50 48  1  0
 52 51  1  0
 53 64  2  0
 54 52  1  0
 54 59  1  0
 55 63  1  0
 55 65  1  0
 56 62  1  0
 56 58  1  0
 57 63  1  0
 58 57  1  0
 59 58  2  0
 60 54  2  0
 61 60  1  0
 61 56  2  0
 62 55  1  0
 63 53  1  0
 65 67  2  0
 66 65  1  0
 68 66  1  0
 69 78  2  0
 69 74  1  0
 70 66  1  0
 70 74  1  0
 71 70  1  0
 72 73  1  0
 72 71  1  0
 73 69  1  0
 74 75  2  0
 75 76  1  0
 77 76  2  0
 78 77  1  0
 79 53  1  0
 79 80  1  0
 79 89  1  0
 80 83  1  0
 81 85  1  0
 81 80  1  0
 82 81  2  0
 85 84  1  0
 87 85  1  0
 87 88  1  0
 87 86  1  0
 89 92  1  1
 89 90  1  0
 91 89  1  0
M  ISO  4  13 100  21 100  51 101  52 101
M  END
>  <TORSDO>  (62) 
F 18

>  <SCORE>  (62) 
-14.932

>  <name>  (62) 
61

>  <ligand_id>  (62) 
61

>  <original_smiles>  (62) 
[H]c1sc(N([H])C(=O)N2C([H])([H])C([H])([H])C([H])([H])C([H])(n3nc(-c4c([H])c([H])c(Oc5c([H])c([H])c(F)c([H])c5F)c([H])c4[H])c(C(=O)N([H])[H])c3N([H])[H])C2([H])[H])c([H])c1N1C([H])([H])C([H])([H])C(C([H])([H])[H])(C([H])([H])Oc2c([H])c([H])c3c(c2[H])C([H])([H])N(C(=O)C([H])(N([H])C(=O)C([H])(N([H])C([H])([H])[H])C([H])([H])[H])C(C([H])([H])[H])(C([H])([H])[H])C([H])([H])[H])C([H])(C(=O)N([H])C2([H])c4c([H])c([H])c([H])c([H])c4C([H])([H])C([H])([H])C2([H])[H])C3([H])[H])C([H])([H])C1([H])[H]

>  <smiles>  (62) 
[H]c1sc(N([H])C(=O)N2C([H])([H])C([H])([H])C([H])([H])C([H])(n3nc(-c4c([H])c([H])c(Oc5c([H])c([H])c(F)c([H])c5F)c([H])c4[H])c(C(=O)N([H])[H])c3N([H])[H])C2([H])[H])c([H])c1N1C([H])([H])C([H])([H])C(C([H])([H])[H])(C([H])([H])Oc2c([H])c([H])c3c(c2[H])C([H])([H])N(C(=O)C([H])(N([H])C(=O)C([H])(N([H])C([H])([H])[H])C([H])([H])[H])C(C([H])([H])[H])(C([H])([H])[H])C([H])([H])[H])C([H])(C(=O)N([H])C2([H])c4c([H])c([H])c([H])c([H])c4C([H])([H])C([H])([H])C2([H])[H])C3([H])[H])C([H])([H])C1([H])[H]

$$$$
62:0:0
     RDKit          3D

 97106  0  0  1  0  0  0  0  0999 V2000
  -31.2180  -21.2090   20.0540 C   0  0  0  0  0  3  0  0  0  0  0  0
  -29.9030  -23.2360   22.9490 C   0  0  0  0  0  2  0  0  0  0  0  0
  -28.8200  -24.0570   22.1950 C   0  0  0  0  0  2  0  0  0  0  0  0
  -30.3010  -21.9400   22.2170 C   0  0  0  0  0  2  0  0  0  0  0  0
  -30.4230  -23.6100   20.2990 C   0  0  0  0  0  2  0  0  0  0  0  0
  -28.9340  -23.9740   20.6430 C   0  0  1  0  0  0  0  0  0  0  0  0
  -28.0420  -22.8040   20.1040 C   0  0  0  0  0  1  0  0  0  0  0  0
  -30.7620  -22.2330   20.8330 N   0  0  0  0  0  0  0  0  0  0  0  0
  -31.8790  -21.5170   18.9410 N   0  0  0  0  0  0  0  0  0  0  0  0
  -32.0600  -20.7990   18.2560 H   0  0  0  0  0  0  0  0  0  0  0  0
  -32.3460  -22.4080   18.8460 H   0  0  0  0  0  0  0  0  0  0  0  0
  -29.6800  -19.2280   20.0230 C   0  0  0  0  0  3  0  0  0  0  0  0
  -31.9100  -18.9040   20.9140 C   0  0  0  0  0  3  0  0  0  0  0  0
  -29.3800  -17.8640   20.2670 C   0  0  0  0  0  3  0  0  0  0  0  0
  -31.6130  -17.5340   21.1500 C   0  0  0  0  0  3  0  0  0  0  0  0
  -30.9430  -19.7740   20.3510 C   0  0  0  0  0  0  0  0  0  0  0  0
  -30.3430  -16.9860   20.8150 C   0  0  0  0  0  0  0  0  0  0  0  0
  -30.6610  -14.5370   20.5080 C   0  0  0  0  0  0  0  0  0  0  0  0
  -30.3340  -12.3660   19.3690 C   0  0  0  0  0  2  0  0  0  0  0  0
  -29.4180  -12.5520   18.1460 C   0  0  0  0  0  2  0  0  0  0  0  0
  -27.9390  -12.4260   18.5630 C   0  0  0  0  0  2  0  0  0  0  0  0
  -27.5850  -13.2710   19.8210 C   0  0  0  0  0  3  0  0  0  0  0  0
  -28.6330  -13.0730   20.9390 C   0  0  0  0  0  2  0  0  0  0  0  0
  -29.9610  -13.3720   20.3780 N   0  0  0  0  0  0  0  0  0  0  0  0
  -31.8040  -14.6650   20.0610 O   0  0  0  0  0  0  0  0  0  0  0  0
  -29.9940  -15.5990   21.0120 N   0  0  0  0  0  0  0  0  0  0  0  0
  -29.0420  -15.4000   21.2860 H   0  0  0  0  0  0  0  0  0  0  0  0
  -25.1800  -13.8790   20.5030 C   0  0  0  0  0  0  0  0  0  0  0  0
  -24.1120  -13.1110   20.8700 C   0  0  0  0  0  0  0  0  0  0  0  0
  -24.5700  -11.7550   20.8460 C   0  0  0  0  0  0  0  0  0  0  0  0
  -26.2270  -12.9980   20.2870 N   0  0  0  0  0  0  0  0  0  0  0  0
  -25.8640  -11.7160   20.5550 N   0  0  0  0  0  0  0  0  0  0  0  0
  -23.8410  -10.4950   21.0320 C   0  0  0  0  0  0  0  0  0  0  0  0
  -24.2590   -9.5320   21.9780 C   0  0  0  0  0  3  0  0  0  0  0  0
  -23.5270   -8.3400   22.1590 C   0  0  0  0  0  3  0  0  0  0  0  0
  -22.3610   -8.0990   21.3930 C   0  0  0  0  0  0  0  0  0  0  0  0
  -21.9630   -9.0460   20.4350 C   0  0  0  0  0  3  0  0  0  0  0  0
  -22.6960  -10.2320   20.2530 C   0  0  0  0  0  3  0  0  0  0  0  0
  -21.6060   -6.9520   21.4760 O   0  0  0  0  0  0  0  0  0  0  0  0
  -21.5390   -6.2180   22.6320 C   0  0  0  0  0  0  0  0  0  0  0  0
  -21.0870   -6.7760   23.8470 C   0  0  0  0  0  3  0  0  0  0  0  0
  -20.9750   -5.9650   24.9950 C   0  0  0  0  0  3  0  0  0  0  0  0
  -21.3020   -4.5970   24.9270 C   0  0  0  0  0  0  0  0  0  0  0  0
  -21.7430   -4.0400   23.7140 C   0  0  0  0  0  3  0  0  0  0  0  0
  -21.8610   -4.8480   22.5700 C   0  0  0  0  0  0  0  0  0  0  0  0
  -22.2690   -4.2990   21.4000 F   0  0  0  0  0  0  0  0  0  0  0  0
  -21.1830   -3.8170   26.0260 F   0  0  0  0  0  0  0  0  0  0  0  0
  -22.7120  -13.5890   21.1290 C   0  0  0  0  0  0  0  0  0  0  0  0
  -21.9750  -12.8960   21.9880 N   0  0  0  0  0  0  0  0  0  0  0  0
  -22.2850  -14.6160   20.6010 O   0  0  0  0  0  0  0  0  0  0  0  0
  -22.3370  -12.0640   22.4300 H   0  0  0  0  0  0  0  0  0  0  0  0
  -21.0350  -13.2000   22.2040 H   0  0  0  0  0  0  0  0  0  0  0  0
  -25.3510  -15.2500   20.3200 N   0  0  0  0  0  0  0  0  0  0  0  0
  -24.5760  -15.8970   20.4270 H   0  0  0  0  0  0  0  0  0  0  0  0
  -26.1960  -15.6890   19.9810 H   0  0  0  0  0  0  0  0  0  0  0  0
  -28.2690  -25.2280   19.9350 C   0  0  0  0  0  2  0  0  0  0  0  0
  -28.4020  -26.6350   20.2840 O   0  0  0  0  0  0  0  0  0  0  0  0
  -24.5940  -31.8900   23.2420 C   0  0  0  0  0  0  0  0  0  0  0  0
  -27.2490  -27.4280   20.1660 C   0  0  0  0  0  0  0  0  0  0  0  0
  -23.3840  -30.4800   21.6040 C   0  0  0  0  0  3  0  0  0  0  0  0
  -24.8420  -28.9620   20.1520 C   0  0  0  0  0  0  0  0  0  0  0  0
  -25.9060  -30.8420   21.4000 C   0  0  0  0  0  2  0  0  0  0  0  0
  -25.9990  -29.4730   20.7530 C   0  0  0  0  0  0  0  0  0  0  0  0
  -27.2020  -28.7180   20.7560 C   0  0  0  0  0  3  0  0  0  0  0  0
  -26.0810  -26.9860   19.4840 C   0  0  0  0  0  3  0  0  0  0  0  0
  -24.8830  -27.7240   19.4970 C   0  0  0  0  0  3  0  0  0  0  0  0
  -23.5910  -29.8090   20.2160 C   0  0  0  0  0  2  0  0  0  0  0  0
  -24.6440  -31.0860   22.1410 N   0  0  0  0  0  0  0  0  0  0  0  0
  -23.5130  -32.1630   23.7850 O   0  0  0  0  0  0  0  0  0  0  0  0
  -22.7380  -29.4600   22.5680 C   0  0  0  0  0  0  0  0  0  0  0  0
  -21.4120  -29.2800   22.4460 N   0  0  0  0  0  0  0  0  0  0  0  0
  -23.4260  -28.8380   23.3830 O   0  0  0  0  0  0  0  0  0  0  0  0
  -20.9240  -29.8320   21.7530 H   0  0  0  0  0  0  0  0  0  0  0  0
  -18.0370  -28.0840   22.9450 C   0  0  0  0  0  0  0  0  0  0  0  0
  -20.5950  -28.3410   23.2120 C   0  0  0  0  0  3  0  0  0  0  0  0
  -20.7020  -26.9130   22.6270 C   0  0  0  0  0  2  0  0  0  0  0  0
  -19.5980  -26.5940   21.6160 C   0  0  0  0  0  2  0  0  0  0  0  0
  -18.2160  -26.7400   22.2600 C   0  0  0  0  0  2  0  0  0  0  0  0
  -19.1580  -28.8470   23.3720 C   0  0  0  0  0  0  0  0  0  0  0  0
  -18.9420  -30.1080   23.9650 C   0  0  0  0  0  3  0  0  0  0  0  0
  -17.6390  -30.6080   24.1460 C   0  0  0  0  0  3  0  0  0  0  0  0
  -16.5320  -29.8420   23.7400 C   0  0  0  0  0  3  0  0  0  0  0  0
  -16.7340  -28.5820   23.1450 C   0  0  0  0  0  3  0  0  0  0  0  0
  -25.8830  -32.5230   23.8580 C   0  0  0  0  0  3  0  0  0  0  0  0
  -25.5820  -33.9220   24.1910 N   0  0  0  0  0  0  0  0  0  0  0  0
  -25.9020  -34.9720   23.4250 C   0  0  0  0  0  0  0  0  0  0  0  0
  -26.5550  -34.8710   22.3820 O   0  0  0  0  0  0  0  0  0  0  0  0
  -25.0410  -34.0880   25.0280 H   0  0  0  0  0  0  0  0  0  0  0  0
  -24.1650  -36.7600   23.0830 C   0  0  0  0  0  1  0  0  0  0  0  0
  -25.4150  -36.3610   23.8840 C   0  0  0  0  0  3  0  0  0  0  0  0
  -27.5480  -37.2430   24.7160 C   0  0  0  0  0  1  0  0  0  0  0  0
  -26.4460  -37.4160   23.7720 N   0  0  0  0  0  0  0  0  0  0  0  0
  -26.0370  -38.3310   23.9390 H   0  0  0  0  0  0  0  0  0  0  0  0
  -26.4140  -31.7510   25.1270 C   0  0  1  0  0  0  0  0  0  0  0  0
  -25.3290  -31.5010   26.1980 C   0  0  0  0  0  1  0  0  0  0  0  0
  -26.9970  -30.3760   24.7260 C   0  0  0  0  0  1  0  0  0  0  0  0
  -27.5690  -32.5470   25.7850 C   0  0  0  0  0  1  0  0  0  0  0  0
  1  9  1  0
  1 16  1  0
  1  8  1  0
  3  2  1  0
  4  2  1  0
  5  6  1  0
  5  8  1  0
  6  7  1  6
  6  3  1  0
  8  4  1  0
 10  9  1  0
 11  9  1  0
 12 14  2  0
 12 16  1  0
 13 15  1  0
 14 17  1  0
 16 13  2  0
 17 26  1  0
 17 15  2  0
 18 26  1  0
 19 24  1  0
 20 21  1  0
 20 19  1  0
 22 21  1  0
 22 31  1  0
 22 23  1  0
 24 18  1  0
 24 23  1  0
 25 18  2  0
 26 27  1  0
 28 29  2  0
 29 48  1  0
 30 29  1  0
 30 33  1  0
 31 28  1  0
 31 32  1  0
 32 30  2  0
 33 34  1  0
 34 35  2  0
 36 39  1  0
 36 35  1  0
 37 36  2  0
 38 37  1  0
 38 33  2  0
 39 40  1  0
 40 41  1  0
 41 42  2  0
 43 42  1  0
 43 47  1  0
 44 43  2  0
 45 40  2  0
 45 44  1  0
 46 45  1  0
 48 49  1  0
 49 52  1  0
 49 51  1  0
 50 48  2  0
 53 54  1  0
 53 28  1  0
 55 53  1  0
 56 57  1  0
 56  6  1  0
 58 69  2  0
 59 57  1  0
 59 64  1  0
 60 68  1  0
 60 70  1  0
 61 67  1  0
 61 63  1  0
 62 68  1  0
 63 64  2  0
 63 62  1  0
 65 66  1  0
 65 59  2  0
 66 61  2  0
 67 60  1  0
 68 58  1  0
 70 72  2  0
 71 70  1  0
 73 71  1  0
 74 83  2  0
 74 79  1  0
 75 71  1  0
 75 79  1  0
 76 75  1  0
 77 78  1  0
 77 76  1  0
 78 74  1  0
 79 80  2  0
 80 81  1  0
 82 81  2  0
 83 82  1  0
 84 58  1  0
 84 85  1  0
 84 94  1  0
 85 88  1  0
 86 90  1  0
 86 85  1  0
 87 86  2  0
 90 89  1  0
 92 90  1  0
 92 93  1  0
 92 91  1  0
 94 97  1  1
 94 95  1  0
 96 94  1  0
M  ISO  4  18 100  26 100  56 101  57 101
M  END
>  <TORSDO>  (63) 
F 18

>  <SCORE>  (63) 
-15.119

>  <name>  (63) 
62

>  <ligand_id>  (63) 
62

>  <original_smiles>  (63) 
[H]c1c([H])c([H])c2c(c1[H])C([H])([H])C([H])([H])C([H])([H])C2([H])N([H])C(=O)C1([H])N(C(=O)C([H])(N([H])C(=O)C([H])(N([H])C([H])([H])[H])C([H])([H])[H])C(C([H])([H])[H])(C([H])([H])[H])C([H])([H])[H])C([H])([H])c2c([H])c(OC([H])([H])C3(C([H])([H])[H])C([H])([H])N(C(c4c([H])c([H])c(N([H])C(=O)N5C([H])([H])C([H])([H])C([H])([H])C([H])(n6nc(-c7c([H])c([H])c(Oc8c([H])c([H])c(F)c([H])c8F)c([H])c7[H])c(C(=O)N([H])[H])c6N([H])[H])C5([H])[H])c([H])c4[H])=[N+]([H])[H])C([H])([H])C([H])([H])C3([H])[H])c([H])c([H])c2C1([H])[H]

>  <smiles>  (63) 
[H]c1c([H])c([H])c2c(c1[H])C([H])([H])C([H])([H])C([H])([H])C2([H])N([H])C(=O)C1([H])N(C(=O)C([H])(N([H])C(=O)C([H])(N([H])C([H])([H])[H])C([H])([H])[H])C(C([H])([H])[H])(C([H])([H])[H])C([H])([H])[H])C([H])([H])c2c([H])c(OC([H])([H])C3(C([H])([H])[H])C([H])([H])N(C(c4c([H])c([H])c(N([H])C(=O)N5C([H])([H])C([H])([H])C([H])([H])C([H])(n6nc(-c7c([H])c([H])c(Oc8c([H])c([H])c(F)c([H])c8F)c([H])c7[H])c(C(=O)N([H])[H])c6N([H])[H])C5([H])[H])c([H])c4[H])=[N+]([H])[H])C([H])([H])C([H])([H])C3([H])[H])c([H])c([H])c2C1([H])[H]

$$$$
63:0:0
     RDKit          3D

 94103  0  0  1  0  0  0  0  0999 V2000
  -31.0560  -17.9040   19.9660 C   0  0  0  0  0  3  0  0  0  0  0  0
  -30.9710  -19.3210   19.8290 C   0  0  0  0  0  3  0  0  0  0  0  0
  -28.8590  -17.9820   20.8830 C   0  0  0  0  0  3  0  0  0  0  0  0
  -29.9670  -17.1780   20.5040 C   0  0  0  0  0  0  0  0  0  0  0  0
  -29.8110  -20.0440   20.2190 C   0  0  0  0  0  0  0  0  0  0  0  0
  -30.0870  -23.5690   18.8580 C   0  0  0  0  0  2  0  0  0  0  0  0
  -30.5940  -22.1270   19.0840 C   0  0  0  0  0  2  0  0  0  0  0  0
  -29.1490  -23.9080   20.0320 C   0  0  1  0  0  0  0  0  0  0  0  0
  -28.5900  -22.4240   20.3450 C   0  0  2  0  0  0  0  0  0  0  0  0
  -29.9940  -24.4590   21.2060 C   0  0  0  0  0  1  0  0  0  0  0  0
  -27.4020  -22.0810   19.4100 C   0  0  0  0  0  1  0  0  0  0  0  0
  -28.0890  -22.2950   21.8050 C   0  0  0  0  0  1  0  0  0  0  0  0
  -28.7810  -19.3410   20.7500 N   0  0  0  0  0  0  0  0  0  0  0  0
  -29.7170  -21.4820   20.0610 N   0  0  0  0  0  0  0  0  0  0  0  0
  -30.6560  -14.6870   20.1940 C   0  0  0  0  0  0  0  0  0  0  0  0
  -30.4210  -12.4300   19.1650 C   0  0  0  0  0  2  0  0  0  0  0  0
  -29.4460  -12.5370   17.9710 C   0  0  0  0  0  2  0  0  0  0  0  0
  -27.9820  -12.3960   18.4360 C   0  0  0  0  0  2  0  0  0  0  0  0
  -27.6580  -13.2800   19.6710 C   0  0  0  0  0  3  0  0  0  0  0  0
  -28.7430  -13.1320   20.7630 C   0  0  0  0  0  2  0  0  0  0  0  0
  -30.0410  -13.4610   20.1520 N   0  0  0  0  0  0  0  0  0  0  0  0
  -31.7830  -14.8570   19.7220 O   0  0  0  0  0  0  0  0  0  0  0  0
  -29.8910  -15.7220   20.6640 N   0  0  0  0  0  0  0  0  0  0  0  0
  -29.0390  -15.3960   21.0970 H   0  0  0  0  0  0  0  0  0  0  0  0
  -25.3000  -13.9100   20.4810 C   0  0  0  0  0  0  0  0  0  0  0  0
  -24.2300  -13.1510   20.8730 C   0  0  0  0  0  0  0  0  0  0  0  0
  -24.6630  -11.7900   20.7920 C   0  0  0  0  0  0  0  0  0  0  0  0
  -26.3190  -13.0160   20.1920 N   0  0  0  0  0  0  0  0  0  0  0  0
  -25.9410  -11.7340   20.4380 N   0  0  0  0  0  0  0  0  0  0  0  0
  -23.9170  -10.5390   20.9790 C   0  0  0  0  0  0  0  0  0  0  0  0
  -24.3450   -9.5550   21.8960 C   0  0  0  0  0  3  0  0  0  0  0  0
  -23.6010   -8.3680   22.0720 C   0  0  0  0  0  3  0  0  0  0  0  0
  -22.4160   -8.1570   21.3310 C   0  0  0  0  0  0  0  0  0  0  0  0
  -22.0060   -9.1300   20.4030 C   0  0  0  0  0  3  0  0  0  0  0  0
  -22.7490  -10.3100   20.2240 C   0  0  0  0  0  3  0  0  0  0  0  0
  -21.6410   -7.0240   21.4180 O   0  0  0  0  0  0  0  0  0  0  0  0
  -21.5750   -6.2870   22.5730 C   0  0  0  0  0  0  0  0  0  0  0  0
  -21.1160   -6.8420   23.7870 C   0  0  0  0  0  3  0  0  0  0  0  0
  -20.9960   -6.0290   24.9320 C   0  0  0  0  0  3  0  0  0  0  0  0
  -21.3230   -4.6610   24.8630 C   0  0  0  0  0  0  0  0  0  0  0  0
  -21.7750   -4.1060   23.6530 C   0  0  0  0  0  3  0  0  0  0  0  0
  -21.8980   -4.9170   22.5110 C   0  0  0  0  0  0  0  0  0  0  0  0
  -22.3130   -4.3710   21.3430 F   0  0  0  0  0  0  0  0  0  0  0  0
  -21.2020   -3.8770   25.9610 F   0  0  0  0  0  0  0  0  0  0  0  0
  -22.8540  -13.6500   21.2030 C   0  0  0  0  0  0  0  0  0  0  0  0
  -22.1400  -12.9500   22.0790 N   0  0  0  0  0  0  0  0  0  0  0  0
  -22.4190  -14.6940   20.7200 O   0  0  0  0  0  0  0  0  0  0  0  0
  -22.5010  -12.1020   22.4890 H   0  0  0  0  0  0  0  0  0  0  0  0
  -21.2180  -13.2670   22.3420 H   0  0  0  0  0  0  0  0  0  0  0  0
  -25.4830  -15.2810   20.3250 N   0  0  0  0  0  0  0  0  0  0  0  0
  -24.7210  -15.9360   20.4620 H   0  0  0  0  0  0  0  0  0  0  0  0
  -26.3050  -15.7110   19.9210 H   0  0  0  0  0  0  0  0  0  0  0  0
  -28.0680  -25.0260   19.6400 C   0  0  0  0  0  2  0  0  0  0  0  0
  -28.3610  -26.4840   19.6340 O   0  0  0  0  0  0  0  0  0  0  0  0
  -24.5780  -31.5900   23.0430 C   0  0  0  0  0  0  0  0  0  0  0  0
  -27.2450  -27.3410   19.6300 C   0  0  0  0  0  0  0  0  0  0  0  0
  -23.3910  -30.3230   21.2890 C   0  0  0  0  0  3  0  0  0  0  0  0
  -24.8630  -28.9240   19.7390 C   0  0  0  0  0  0  0  0  0  0  0  0
  -25.9260  -30.6930   21.1330 C   0  0  0  0  0  2  0  0  0  0  0  0
  -26.0250  -29.3740   20.3770 C   0  0  0  0  0  0  0  0  0  0  0  0
  -27.2210  -28.5960   20.3130 C   0  0  0  0  0  3  0  0  0  0  0  0
  -26.0570  -26.9550   18.9600 C   0  0  0  0  0  3  0  0  0  0  0  0
  -24.8820  -27.7220   19.0200 C   0  0  0  0  0  3  0  0  0  0  0  0
  -23.6140  -29.7720   19.8570 C   0  0  0  0  0  2  0  0  0  0  0  0
  -24.6500  -30.8810   21.8800 N   0  0  0  0  0  0  0  0  0  0  0  0
  -23.4900  -31.8050   23.6000 O   0  0  0  0  0  0  0  0  0  0  0  0
  -22.7420  -29.2170   22.1570 C   0  0  0  0  0  0  0  0  0  0  0  0
  -21.4120  -29.0610   22.0460 N   0  0  0  0  0  0  0  0  0  0  0  0
  -23.4350  -28.5070   22.8910 O   0  0  0  0  0  0  0  0  0  0  0  0
  -20.9140  -29.6890   21.4300 H   0  0  0  0  0  0  0  0  0  0  0  0
  -18.0250  -27.9080   22.5790 C   0  0  0  0  0  0  0  0  0  0  0  0
  -20.6010  -28.0590   22.7390 C   0  0  0  0  0  3  0  0  0  0  0  0
  -20.6230  -26.7080   21.9870 C   0  0  0  0  0  2  0  0  0  0  0  0
  -19.4620  -26.5460   21.0010 C   0  0  0  0  0  2  0  0  0  0  0  0
  -18.1200  -26.6490   21.7330 C   0  0  0  0  0  2  0  0  0  0  0  0
  -19.1900  -28.5770   23.0380 C   0  0  0  0  0  0  0  0  0  0  0  0
  -19.0470  -29.7620   23.7910 C   0  0  0  0  0  3  0  0  0  0  0  0
  -17.7700  -30.2770   24.0870 C   0  0  0  0  0  3  0  0  0  0  0  0
  -16.6200  -29.6020   23.6440 C   0  0  0  0  0  3  0  0  0  0  0  0
  -16.7480  -28.4180   22.8970 C   0  0  0  0  0  3  0  0  0  0  0  0
  -25.8530  -32.1830   23.7180 C   0  0  0  0  0  3  0  0  0  0  0  0
  -25.5390  -33.5590   24.1270 N   0  0  0  0  0  0  0  0  0  0  0  0
  -25.8440  -34.6520   23.4130 C   0  0  0  0  0  0  0  0  0  0  0  0
  -26.4900  -34.6080   22.3630 O   0  0  0  0  0  0  0  0  0  0  0  0
  -24.9670  -33.6670   24.9500 H   0  0  0  0  0  0  0  0  0  0  0  0
  -24.0780  -36.4320   23.2030 C   0  0  0  0  0  1  0  0  0  0  0  0
  -25.3550  -36.0120   23.9500 C   0  0  0  0  0  3  0  0  0  0  0  0
  -27.5030  -36.9000   24.7440 C   0  0  0  0  0  1  0  0  0  0  0  0
  -26.3660  -37.0860   23.8450 N   0  0  0  0  0  0  0  0  0  0  0  0
  -25.9510  -37.9930   24.0400 H   0  0  0  0  0  0  0  0  0  0  0  0
  -26.3500  -31.3350   24.9530 C   0  0  1  0  0  0  0  0  0  0  0  0
  -25.2430  -31.0400   25.9920 C   0  0  0  0  0  1  0  0  0  0  0  0
  -26.9320  -29.9800   24.4880 C   0  0  0  0  0  1  0  0  0  0  0  0
  -27.4950  -32.0850   25.6760 C   0  0  0  0  0  1  0  0  0  0  0  0
  1  4  1  0
  2  1  2  0
  2  5  1  0
  4 23  1  0
  4  3  2  0
  5 13  2  0
  6  7  1  0
  6  8  1  0
  7 14  1  0
  8  9  1  0
  8 10  1  1
  9 12  1  1
 11  9  1  0
 13  3  1  0
 14  5  1  0
 14  9  1  0
 15 23  1  0
 16 21  1  0
 17 18  1  0
 17 16  1  0
 19 18  1  0
 19 28  1  0
 19 20  1  0
 21 15  1  0
 21 20  1  0
 22 15  2  0
 23 24  1  0
 25 26  2  0
 26 45  1  0
 27 26  1  0
 27 30  1  0
 28 29  1  0
 28 25  1  0
 29 27  2  0
 30 31  1  0
 31 32  2  0
 33 36  1  0
 33 32  1  0
 34 33  2  0
 35 34  1  0
 35 30  2  0
 36 37  1  0
 37 38  1  0
 38 39  2  0
 40 39  1  0
 40 44  1  0
 41 40  2  0
 42 37  2  0
 42 41  1  0
 43 42  1  0
 45 46  1  0
 46 49  1  0
 46 48  1  0
 47 45  2  0
 50 51  1  0
 50 25  1  0
 52 50  1  0
 53  8  1  0
 54 53  1  0
 55 66  2  0
 56 54  1  0
 56 61  1  0
 57 65  1  0
 57 67  1  0
 58 64  1  0
 58 60  1  0
 59 65  1  0
 60 59  1  0
 61 60  2  0
 62 63  1  0
 62 56  2  0
 63 58  2  0
 64 57  1  0
 65 55  1  0
 67 69  2  0
 68 67  1  0
 70 68  1  0
 71 80  2  0
 71 76  1  0
 72 68  1  0
 72 76  1  0
 73 72  1  0
 74 75  1  0
 74 73  1  0
 75 71  1  0
 76 77  2  0
 77 78  1  0
 79 78  2  0
 80 79  1  0
 81 55  1  0
 81 82  1  0
 81 91  1  0
 82 85  1  0
 83 87  1  0
 83 82  1  0
 84 83  2  0
 87 86  1  0
 89 87  1  0
 89 90  1  0
 89 88  1  0
 91 94  1  1
 91 92  1  0
 93 91  1  0
M  ISO  4  15 100  23 100  53 101  54 101
M  END
>  <TORSDO>  (64) 
F 17

>  <SCORE>  (64) 
-14.660

>  <name>  (64) 
63

>  <ligand_id>  (64) 
63

>  <original_smiles>  (64) 
[H]c1nc(N2C([H])([H])C([H])([H])C(C([H])([H])[H])(C([H])([H])Oc3c([H])c([H])c4c(c3[H])C([H])([H])N(C(=O)C([H])(N([H])C(=O)C([H])(N([H])C([H])([H])[H])C([H])([H])[H])C(C([H])([H])[H])(C([H])([H])[H])C([H])([H])[H])C([H])(C(=O)N([H])C3([H])c5c([H])c([H])c([H])c([H])c5C([H])([H])C([H])([H])C3([H])[H])C4([H])[H])C2(C([H])([H])[H])C([H])([H])[H])c([H])c([H])c1N([H])C(=O)N1C([H])([H])C([H])([H])C([H])([H])C([H])(n2nc(-c3c([H])c([H])c(Oc4c([H])c([H])c(F)c([H])c4F)c([H])c3[H])c(C(=O)N([H])[H])c2N([H])[H])C1([H])[H]

>  <smiles>  (64) 
[H]c1nc(N2C([H])([H])C([H])([H])C(C([H])([H])[H])(C([H])([H])Oc3c([H])c([H])c4c(c3[H])C([H])([H])N(C(=O)C([H])(N([H])C(=O)C([H])(N([H])C([H])([H])[H])C([H])([H])[H])C(C([H])([H])[H])(C([H])([H])[H])C([H])([H])[H])C([H])(C(=O)N([H])C3([H])c5c([H])c([H])c([H])c([H])c5C([H])([H])C([H])([H])C3([H])[H])C4([H])[H])C2(C([H])([H])[H])C([H])([H])[H])c([H])c([H])c1N([H])C(=O)N1C([H])([H])C([H])([H])C([H])([H])C([H])(n2nc(-c3c([H])c([H])c(Oc4c([H])c([H])c(F)c([H])c4F)c([H])c3[H])c(C(=O)N([H])[H])c2N([H])[H])C1([H])[H]

$$$$
64:0:0
     RDKit          3D

 92101  0  0  1  0  0  0  0  0999 V2000
  -29.5620  -22.8280   20.0200 C   0  0  0  0  0  2  0  0  0  0  0  0
  -30.3400  -24.8590   18.7910 C   0  0  0  0  0  1  0  0  0  0  0  0
  -28.0830  -23.9510   18.2460 C   0  0  0  0  0  1  0  0  0  0  0  0
  -29.0750  -24.2120   19.3950 C   0  0  1  0  0  0  0  0  0  0  0  0
  -28.4670  -25.2610   20.4160 C   0  0  0  0  0  2  0  0  0  0  0  0
  -28.5110  -26.6740   20.0250 O   0  0  0  0  0  0  0  0  0  0  0  0
  -24.5170  -31.7430   23.1690 C   0  0  0  0  0  0  0  0  0  0  0  0
  -27.3320  -27.4110   20.0350 C   0  0  0  0  0  0  0  0  0  0  0  0
  -23.3820  -30.3440   21.4780 C   0  0  0  0  0  3  0  0  0  0  0  0
  -24.9020  -28.8860   20.0350 C   0  0  0  0  0  0  0  0  0  0  0  0
  -25.9010  -30.7790   21.3230 C   0  0  0  0  0  2  0  0  0  0  0  0
  -26.0410  -29.4220   20.6500 C   0  0  0  0  0  0  0  0  0  0  0  0
  -27.2630  -28.6980   20.6350 C   0  0  0  0  0  3  0  0  0  0  0  0
  -26.1730  -26.9020   19.4130 C   0  0  0  0  0  3  0  0  0  0  0  0
  -24.9680  -27.6290   19.4090 C   0  0  0  0  0  3  0  0  0  0  0  0
  -23.6320  -29.7080   20.0850 C   0  0  0  0  0  2  0  0  0  0  0  0
  -24.6180  -30.9700   22.0490 N   0  0  0  0  0  0  0  0  0  0  0  0
  -23.4200  -31.9650   23.7000 O   0  0  0  0  0  0  0  0  0  0  0  0
  -22.7500  -29.2780   22.4050 C   0  0  0  0  0  0  0  0  0  0  0  0
  -21.4350  -29.0500   22.2510 N   0  0  0  0  0  0  0  0  0  0  0  0
  -23.4420  -28.6610   23.2190 O   0  0  0  0  0  0  0  0  0  0  0  0
  -20.9360  -29.6030   21.5690 H   0  0  0  0  0  0  0  0  0  0  0  0
  -18.0930  -27.7420   22.6890 C   0  0  0  0  0  0  0  0  0  0  0  0
  -20.6410  -28.0650   22.9860 C   0  0  0  0  0  3  0  0  0  0  0  0
  -20.7890  -26.6580   22.3640 C   0  0  0  0  0  2  0  0  0  0  0  0
  -19.7030  -26.3370   21.3320 C   0  0  0  0  0  2  0  0  0  0  0  0
  -18.3130  -26.4210   21.9710 C   0  0  0  0  0  2  0  0  0  0  0  0
  -19.1870  -28.5210   23.1510 C   0  0  0  0  0  0  0  0  0  0  0  0
  -18.9280  -29.7580   23.7810 C   0  0  0  0  0  3  0  0  0  0  0  0
  -17.6080  -30.2160   23.9540 C   0  0  0  0  0  3  0  0  0  0  0  0
  -16.5300  -29.4340   23.5090 C   0  0  0  0  0  3  0  0  0  0  0  0
  -16.7720  -28.1990   22.8820 C   0  0  0  0  0  3  0  0  0  0  0  0
  -25.7710  -32.4030   23.8220 C   0  0  0  0  0  3  0  0  0  0  0  0
  -26.2690  -31.6480   25.1160 C   0  0  1  0  0  0  0  0  0  0  0  0
  -25.1520  -31.3870   26.1520 C   0  0  0  0  0  1  0  0  0  0  0  0
  -26.8940  -30.2820   24.7420 C   0  0  0  0  0  1  0  0  0  0  0  0
  -27.3820  -32.4680   25.8070 C   0  0  0  0  0  1  0  0  0  0  0  0
  -25.4260  -33.7960   24.1370 N   0  0  0  0  0  0  0  0  0  0  0  0
  -25.7620  -34.8520   23.3860 C   0  0  0  0  0  0  0  0  0  0  0  0
  -26.4660  -34.7580   22.3760 O   0  0  0  0  0  0  0  0  0  0  0  0
  -24.8040  -33.9420   24.9190 H   0  0  0  0  0  0  0  0  0  0  0  0
  -24.0200  -36.6160   22.9610 C   0  0  0  0  0  1  0  0  0  0  0  0
  -25.2350  -36.2320   23.8210 C   0  0  0  0  0  3  0  0  0  0  0  0
  -27.3150  -37.1570   24.7420 C   0  0  0  0  0  1  0  0  0  0  0  0
  -26.2540  -37.3030   23.7490 N   0  0  0  0  0  0  0  0  0  0  0  0
  -25.8260  -38.2160   23.8720 H   0  0  0  0  0  0  0  0  0  0  0  0
  -28.5880  -21.7220   20.1690 N   0  0  0  0  0  0  0  0  0  0  0  0
  -27.7460  -21.9570   20.6900 H   0  0  0  0  0  0  0  0  0  0  0  0
  -30.8790  -14.6830   19.9840 C   0  0  0  0  0  0  0  0  0  0  0  0
  -30.5420  -12.4570   18.9510 C   0  0  0  0  0  2  0  0  0  0  0  0
  -29.5620  -12.5810   17.7670 C   0  0  0  0  0  2  0  0  0  0  0  0
  -28.1100  -12.4290   18.2580 C   0  0  0  0  0  2  0  0  0  0  0  0
  -27.8000  -13.3060   19.5010 C   0  0  0  0  0  3  0  0  0  0  0  0
  -28.9050  -13.1790   20.5750 C   0  0  0  0  0  2  0  0  0  0  0  0
  -30.1770  -13.5090   19.9230 N   0  0  0  0  0  0  0  0  0  0  0  0
  -32.0580  -14.7060   19.6130 O   0  0  0  0  0  0  0  0  0  0  0  0
  -29.9240  -19.6770   19.4090 C   0  0  0  0  0  3  0  0  0  0  0  0
  -29.9730  -18.2640   19.6960 C   0  0  0  0  0  0  0  0  0  0  0  0
  -29.1260  -17.8730   20.6540 C   0  0  0  0  0  0  0  0  0  0  0  0
  -28.9810  -20.3530   20.1720 C   0  0  0  0  0  0  0  0  0  0  0  0
  -30.7240  -17.0570   19.2100 C   0  0  0  0  0  3  0  0  0  0  0  0
  -29.1880  -16.4010   20.9420 C   0  0  0  0  0  3  0  0  0  0  0  0
  -30.1870  -15.8760   19.9680 N   0  0  0  0  0  0  0  0  0  0  0  0
  -28.1670  -19.2060   21.2590 S   0  0  0  0  0  0  0  0  0  0  0  0
  -25.4480  -13.9020   20.3420 C   0  0  0  0  0  0  0  0  0  0  0  0
  -24.3960  -13.1270   20.7470 C   0  0  0  0  0  0  0  0  0  0  0  0
  -24.8470  -11.7740   20.6650 C   0  0  0  0  0  0  0  0  0  0  0  0
  -26.4750  -13.0210   20.0440 N   0  0  0  0  0  0  0  0  0  0  0  0
  -26.1210  -11.7350   20.2990 N   0  0  0  0  0  0  0  0  0  0  0  0
  -24.1210  -10.5130   20.8580 C   0  0  0  0  0  0  0  0  0  0  0  0
  -24.5040   -9.5840   21.8500 C   0  0  0  0  0  3  0  0  0  0  0  0
  -23.7780   -8.3870   22.0290 C   0  0  0  0  0  3  0  0  0  0  0  0
  -22.6530   -8.1110   21.2160 C   0  0  0  0  0  0  0  0  0  0  0  0
  -22.2900   -9.0280   20.2140 C   0  0  0  0  0  3  0  0  0  0  0  0
  -23.0170  -10.2160   20.0340 C   0  0  0  0  0  3  0  0  0  0  0  0
  -21.9020   -6.9630   21.3020 O   0  0  0  0  0  0  0  0  0  0  0  0
  -21.6980   -6.3250   22.4980 C   0  0  0  0  0  0  0  0  0  0  0  0
  -21.0800   -6.9700   23.5910 C   0  0  0  0  0  3  0  0  0  0  0  0
  -20.8270   -6.2570   24.7790 C   0  0  0  0  0  3  0  0  0  0  0  0
  -21.1800   -4.8970   24.8730 C   0  0  0  0  0  0  0  0  0  0  0  0
  -21.7910   -4.2510   23.7840 C   0  0  0  0  0  3  0  0  0  0  0  0
  -22.0460   -4.9630   22.5990 C   0  0  0  0  0  0  0  0  0  0  0  0
  -22.6150   -4.3290   21.5450 F   0  0  0  0  0  0  0  0  0  0  0  0
  -20.9300   -4.2080   26.0120 F   0  0  0  0  0  0  0  0  0  0  0  0
  -23.0150  -13.6070   21.0900 C   0  0  0  0  0  0  0  0  0  0  0  0
  -22.3260  -12.9050   21.9820 N   0  0  0  0  0  0  0  0  0  0  0  0
  -22.5580  -14.6400   20.6020 O   0  0  0  0  0  0  0  0  0  0  0  0
  -22.7100  -12.0690   22.3970 H   0  0  0  0  0  0  0  0  0  0  0  0
  -21.4020  -13.2080   22.2550 H   0  0  0  0  0  0  0  0  0  0  0  0
  -25.6080  -15.2750   20.1810 N   0  0  0  0  0  0  0  0  0  0  0  0
  -24.8410  -15.9220   20.3270 H   0  0  0  0  0  0  0  0  0  0  0  0
  -26.4240  -15.7150   19.7770 H   0  0  0  0  0  0  0  0  0  0  0  0
  1 47  1  0
  4  2  1  6
  3  4  1  0
  4  1  1  0
  4  5  1  0
  6  8  1  0
  6  5  1  0
  7 18  2  0
  8 13  1  0
  9 17  1  0
  9 19  1  0
 10 16  1  0
 10 12  1  0
 11 17  1  0
 12 11  1  0
 13 12  2  0
 14  8  2  0
 15 14  1  0
 15 10  2  0
 16  9  1  0
 17  7  1  0
 19 21  2  0
 20 19  1  0
 22 20  1  0
 23 32  2  0
 23 28  1  0
 24 20  1  0
 24 28  1  0
 25 24  1  0
 26 27  1  0
 26 25  1  0
 27 23  1  0
 28 29  2  0
 29 30  1  0
 31 30  2  0
 32 31  1  0
 33  7  1  0
 33 38  1  0
 33 34  1  0
 34 37  1  1
 34 35  1  0
 36 34  1  0
 38 41  1  0
 39 43  1  0
 39 38  1  0
 40 39  2  0
 43 42  1  0
 45 43  1  0
 45 46  1  0
 45 44  1  0
 47 60  1  0
 47 48  1  0
 50 55  1  0
 51 52  1  0
 51 50  1  0
 53 52  1  0
 53 68  1  0
 53 54  1  0
 55 49  1  0
 55 54  1  0
 56 49  2  0
 57 58  1  0
 57 60  2  0
 58 59  1  0
 59 62  2  0
 59 64  1  0
 60 64  1  0
 61 58  2  0
 61 63  1  0
 63 49  1  0
 63 62  1  0
 65 66  2  0
 66 85  1  0
 67 66  1  0
 67 70  1  0
 68 69  1  0
 68 65  1  0
 69 67  2  0
 70 71  1  0
 71 72  2  0
 73 76  1  0
 73 72  1  0
 74 73  2  0
 75 74  1  0
 75 70  2  0
 76 77  1  0
 77 82  2  0
 77 78  1  0
 78 79  2  0
 79 80  1  0
 80 84  1  0
 81 80  2  0
 82 81  1  0
 83 82  1  0
 85 86  1  0
 86 89  1  0
 86 88  1  0
 87 85  2  0
 90 91  1  0
 90 65  1  0
 92 90  1  0
M  ISO  4   5 101   6 101  49 100  63 100
M  END
>  <TORSDO>  (65) 
F 19

>  <SCORE>  (65) 
-12.542

>  <name>  (65) 
64

>  <ligand_id>  (65) 
64

>  <original_smiles>  (65) 
[H]c1c([H])c([H])c2c(c1[H])C([H])([H])C([H])([H])C([H])([H])C2([H])N([H])C(=O)C1([H])N(C(=O)C([H])(N([H])C(=O)C([H])(N([H])C([H])([H])[H])C([H])([H])[H])C(C([H])([H])[H])(C([H])([H])[H])C([H])([H])[H])C([H])([H])c2c([H])c(OC([H])([H])C(C([H])([H])[H])(C([H])([H])[H])C([H])([H])N([H])c3sc4c(c3[H])C([H])([H])N(C(=O)N3C([H])([H])C([H])([H])C([H])([H])C([H])(n5nc(-c6c([H])c([H])c(Oc7c([H])c([H])c(F)c([H])c7F)c([H])c6[H])c(C(=O)N([H])[H])c5N([H])[H])C3([H])[H])C4([H])[H])c([H])c([H])c2C1([H])[H]

>  <smiles>  (65) 
[H]c1c([H])c([H])c2c(c1[H])C([H])([H])C([H])([H])C([H])([H])C2([H])N([H])C(=O)C1([H])N(C(=O)C([H])(N([H])C(=O)C([H])(N([H])C([H])([H])[H])C([H])([H])[H])C(C([H])([H])[H])(C([H])([H])[H])C([H])([H])[H])C([H])([H])c2c([H])c(OC([H])([H])C(C([H])([H])[H])(C([H])([H])[H])C([H])([H])N([H])c3sc4c(c3[H])C([H])([H])N(C(=O)N3C([H])([H])C([H])([H])C([H])([H])C([H])(n5nc(-c6c([H])c([H])c(Oc7c([H])c([H])c(F)c([H])c7F)c([H])c6[H])c(C(=O)N([H])[H])c5N([H])[H])C3([H])[H])C4([H])[H])c([H])c([H])c2C1([H])[H]

$$$$
65:0:0
     RDKit          3D

 93102  0  0  1  0  0  0  0  0999 V2000
  -27.1890  -22.8260   21.0600 C   0  0  0  0  0  2  0  0  0  0  0  0
  -27.4670  -21.3380   20.7700 C   0  0  0  0  0  2  0  0  0  0  0  0
  -28.1700  -23.6840   20.2130 C   0  0  1  0  0  0  0  0  0  0  0  0
  -29.4220  -22.6360   20.2580 C   0  0  2  0  0  0  0  0  0  0  0  0
  -27.5740  -23.7730   18.7870 C   0  0  0  0  0  1  0  0  0  0  0  0
  -30.2700  -22.8650   21.5290 C   0  0  0  0  0  1  0  0  0  0  0  0
  -30.3470  -22.8050   19.0290 C   0  0  0  0  0  1  0  0  0  0  0  0
  -28.8440  -21.2390   20.3040 N   0  0  0  0  0  0  0  0  0  0  0  0
  -30.8110  -19.5610   20.0370 C   0  0  0  0  0  3  0  0  0  0  0  0
  -31.0820  -18.1320   20.0460 C   0  0  0  0  0  3  0  0  0  0  0  0
  -29.4980  -19.9340   20.2540 C   0  0  0  0  0  0  0  0  0  0  0  0
  -29.9960  -17.3080   20.2850 C   0  0  0  0  0  0  0  0  0  0  0  0
  -28.5980  -18.4030   20.4830 S   0  0  0  0  0  0  0  0  0  0  0  0
  -30.7050  -14.8560   20.0430 C   0  0  0  0  0  0  0  0  0  0  0  0
  -30.4730  -12.6180   18.9610 C   0  0  0  0  0  2  0  0  0  0  0  0
  -29.4600  -12.7420   17.8020 C   0  0  0  0  0  2  0  0  0  0  0  0
  -28.0180  -12.5550   18.3120 C   0  0  0  0  0  2  0  0  0  0  0  0
  -27.7190  -13.3970   19.5810 C   0  0  0  0  0  3  0  0  0  0  0  0
  -28.8410  -13.2460   20.6310 C   0  0  0  0  0  2  0  0  0  0  0  0
  -30.1060  -13.6200   19.9830 N   0  0  0  0  0  0  0  0  0  0  0  0
  -31.8620  -15.0120   19.6390 O   0  0  0  0  0  0  0  0  0  0  0  0
  -29.8810  -15.9140   20.3810 N   0  0  0  0  0  0  0  0  0  0  0  0
  -28.9660  -15.5960   20.6700 H   0  0  0  0  0  0  0  0  0  0  0  0
  -25.3790  -13.9730   20.4650 C   0  0  0  0  0  0  0  0  0  0  0  0
  -24.3350  -13.1910   20.8740 C   0  0  0  0  0  0  0  0  0  0  0  0
  -24.7900  -11.8390   20.7760 C   0  0  0  0  0  0  0  0  0  0  0  0
  -26.4030  -13.0990   20.1390 N   0  0  0  0  0  0  0  0  0  0  0  0
  -26.0600  -11.8090   20.3900 N   0  0  0  0  0  0  0  0  0  0  0  0
  -24.0730  -10.5710   20.9710 C   0  0  0  0  0  0  0  0  0  0  0  0
  -24.5240   -9.6020   21.8960 C   0  0  0  0  0  3  0  0  0  0  0  0
  -23.8060   -8.4010   22.0760 C   0  0  0  0  0  3  0  0  0  0  0  0
  -22.6270   -8.1570   21.3340 C   0  0  0  0  0  0  0  0  0  0  0  0
  -22.1940   -9.1150   20.4010 C   0  0  0  0  0  3  0  0  0  0  0  0
  -22.9120  -10.3090   20.2150 C   0  0  0  0  0  3  0  0  0  0  0  0
  -21.8810   -7.0070   21.4280 O   0  0  0  0  0  0  0  0  0  0  0  0
  -21.8060   -6.2890   22.5950 C   0  0  0  0  0  0  0  0  0  0  0  0
  -21.3050   -6.8580   23.7860 C   0  0  0  0  0  3  0  0  0  0  0  0
  -21.1730   -6.0660   24.9450 C   0  0  0  0  0  3  0  0  0  0  0  0
  -21.5410   -4.7070   24.9140 C   0  0  0  0  0  0  0  0  0  0  0  0
  -22.0410   -4.1380   23.7290 C   0  0  0  0  0  3  0  0  0  0  0  0
  -22.1690   -4.9270   22.5720 C   0  0  0  0  0  0  0  0  0  0  0  0
  -22.6290   -4.3680   21.4260 F   0  0  0  0  0  0  0  0  0  0  0  0
  -21.4100   -3.9460   26.0240 F   0  0  0  0  0  0  0  0  0  0  0  0
  -22.9580  -13.6600   21.2410 C   0  0  0  0  0  0  0  0  0  0  0  0
  -22.2760  -12.9400   22.1250 N   0  0  0  0  0  0  0  0  0  0  0  0
  -22.4960  -14.7020   20.7780 O   0  0  0  0  0  0  0  0  0  0  0  0
  -22.6640  -12.0990   22.5240 H   0  0  0  0  0  0  0  0  0  0  0  0
  -21.3540  -13.2390   22.4080 H   0  0  0  0  0  0  0  0  0  0  0  0
  -25.5380  -15.3490   20.3200 N   0  0  0  0  0  0  0  0  0  0  0  0
  -24.7830  -16.0010   20.5010 H   0  0  0  0  0  0  0  0  0  0  0  0
  -26.3470  -15.7910   19.9010 H   0  0  0  0  0  0  0  0  0  0  0  0
  -28.2070  -25.1880   20.8840 C   0  0  0  0  0  2  0  0  0  0  0  0
  -28.4140  -26.5170   20.2190 O   0  0  0  0  0  0  0  0  0  0  0  0
  -24.6420  -31.9440   23.2550 C   0  0  0  0  0  0  0  0  0  0  0  0
  -27.3220  -27.4090   20.2020 C   0  0  0  0  0  0  0  0  0  0  0  0
  -23.4710  -30.5380   21.6020 C   0  0  0  0  0  3  0  0  0  0  0  0
  -24.9500  -29.0130   20.1800 C   0  0  0  0  0  0  0  0  0  0  0  0
  -26.0110  -30.8830   21.4410 C   0  0  0  0  0  2  0  0  0  0  0  0
  -26.1130  -29.5070   20.7850 C   0  0  0  0  0  0  0  0  0  0  0  0
  -27.3070  -28.7190   20.7850 C   0  0  0  0  0  3  0  0  0  0  0  0
  -26.1400  -26.9790   19.5730 C   0  0  0  0  0  3  0  0  0  0  0  0
  -24.9660  -27.7510   19.5650 C   0  0  0  0  0  3  0  0  0  0  0  0
  -23.7050  -29.8770   20.2200 C   0  0  0  0  0  2  0  0  0  0  0  0
  -24.7270  -31.1390   22.1560 N   0  0  0  0  0  0  0  0  0  0  0  0
  -23.5500  -32.2060   23.7820 O   0  0  0  0  0  0  0  0  0  0  0  0
  -22.8140  -29.5070   22.5500 C   0  0  0  0  0  0  0  0  0  0  0  0
  -21.4900  -29.3170   22.4180 N   0  0  0  0  0  0  0  0  0  0  0  0
  -23.4940  -28.8820   23.3690 O   0  0  0  0  0  0  0  0  0  0  0  0
  -21.0000  -29.8710   21.7310 H   0  0  0  0  0  0  0  0  0  0  0  0
  -18.1190  -28.1060   22.9240 C   0  0  0  0  0  0  0  0  0  0  0  0
  -20.6780  -28.3680   23.1820 C   0  0  0  0  0  3  0  0  0  0  0  0
  -20.7780  -26.9440   22.5880 C   0  0  0  0  0  2  0  0  0  0  0  0
  -19.6720  -26.6330   21.5760 C   0  0  0  0  0  2  0  0  0  0  0  0
  -18.2930  -26.7680   22.2270 C   0  0  0  0  0  2  0  0  0  0  0  0
  -19.2380  -28.8660   23.3580 C   0  0  0  0  0  0  0  0  0  0  0  0
  -19.0200  -30.1190   23.9700 C   0  0  0  0  0  3  0  0  0  0  0  0
  -17.7140  -30.6150   24.1500 C   0  0  0  0  0  3  0  0  0  0  0  0
  -16.6090  -29.8530   23.7310 C   0  0  0  0  0  3  0  0  0  0  0  0
  -16.8120  -28.6000   23.1260 C   0  0  0  0  0  3  0  0  0  0  0  0
  -25.9110  -32.5920   23.8890 C   0  0  0  0  0  3  0  0  0  0  0  0
  -25.5870  -33.9890   24.2060 N   0  0  0  0  0  0  0  0  0  0  0  0
  -25.9170  -35.0410   23.4430 C   0  0  0  0  0  0  0  0  0  0  0  0
  -26.5980  -34.9360   22.4210 O   0  0  0  0  0  0  0  0  0  0  0  0
  -24.9780  -34.1430   24.9970 H   0  0  0  0  0  0  0  0  0  0  0  0
  -24.1800  -36.8170   23.0520 C   0  0  0  0  0  1  0  0  0  0  0  0
  -25.4120  -36.4280   23.8840 C   0  0  0  0  0  3  0  0  0  0  0  0
  -27.5270  -37.3320   24.7430 C   0  0  0  0  0  1  0  0  0  0  0  0
  -26.4370  -37.4900   23.7820 N   0  0  0  0  0  0  0  0  0  0  0  0
  -26.0210  -38.4050   23.9250 H   0  0  0  0  0  0  0  0  0  0  0  0
  -26.4130  -31.8340   25.1770 C   0  0  1  0  0  0  0  0  0  0  0  0
  -25.3070  -31.5950   26.2300 C   0  0  0  0  0  1  0  0  0  0  0  0
  -27.0150  -30.4600   24.8050 C   0  0  0  0  0  1  0  0  0  0  0  0
  -27.5510  -32.6410   25.8470 C   0  0  0  0  0  1  0  0  0  0  0  0
  2  1  1  0
  3  5  1  6
  3  4  1  0
  3 52  1  0
  3  1  1  0
  4  8  1  0
  4  6  1  1
  7  4  1  0
  8  2  1  0
  9 10  1  0
  9 11  2  0
 10 12  2  0
 11  8  1  0
 11 13  1  0
 12 22  1  0
 12 13  1  0
 14 22  1  0
 15 20  1  0
 16 17  1  0
 16 15  1  0
 18 17  1  0
 18 27  1  0
 18 19  1  0
 20 14  1  0
 20 19  1  0
 21 14  2  0
 22 23  1  0
 24 25  2  0
 25 44  1  0
 26 25  1  0
 26 29  1  0
 27 28  1  0
 27 24  1  0
 28 26  2  0
 29 30  1  0
 30 31  2  0
 32 35  1  0
 32 31  1  0
 33 32  2  0
 34 33  1  0
 34 29  2  0
 35 36  1  0
 36 37  1  0
 37 38  2  0
 39 38  1  0
 39 43  1  0
 40 39  2  0
 41 36  2  0
 41 40  1  0
 42 41  1  0
 44 45  1  0
 45 48  1  0
 45 47  1  0
 46 44  2  0
 49 24  1  0
 49 50  1  0
 51 49  1  0
 53 52  1  0
 54 65  2  0
 55 53  1  0
 55 60  1  0
 56 64  1  0
 56 66  1  0
 57 63  1  0
 57 59  1  0
 58 64  1  0
 59 58  1  0
 60 59  2  0
 61 55  2  0
 62 61  1  0
 62 57  2  0
 63 56  1  0
 64 54  1  0
 66 68  2  0
 67 66  1  0
 69 67  1  0
 70 79  2  0
 70 75  1  0
 71 67  1  0
 71 75  1  0
 72 71  1  0
 73 74  1  0
 73 72  1  0
 74 70  1  0
 75 76  2  0
 76 77  1  0
 78 77  2  0
 79 78  1  0
 80 54  1  0
 80 81  1  0
 80 90  1  0
 81 84  1  0
 82 86  1  0
 82 81  1  0
 83 82  2  0
 86 85  1  0
 88 86  1  0
 88 89  1  0
 88 87  1  0
 90 93  1  1
 90 91  1  0
 92 90  1  0
M  ISO  4  14 100  22 100  52 101  53 101
M  END
>  <TORSDO>  (66) 
F 18

>  <SCORE>  (66) 
-14.432

>  <name>  (66) 
65

>  <ligand_id>  (66) 
65

>  <original_smiles>  (66) 
[H]c1c(N([H])C(=O)N2C([H])([H])C([H])([H])C([H])([H])C([H])(n3nc(-c4c([H])c([H])c(Oc5c([H])c([H])c(F)c([H])c5F)c([H])c4[H])c(C(=O)N([H])[H])c3N([H])[H])C2([H])[H])sc(N2C([H])([H])C([H])([H])C(C([H])([H])[H])(C([H])([H])Oc3c([H])c([H])c4c(c3[H])C([H])([H])N(C(=O)C([H])(N([H])C(=O)C([H])(N([H])C([H])([H])[H])C([H])([H])[H])C(C([H])([H])[H])(C([H])([H])[H])C([H])([H])[H])C([H])(C(=O)N([H])C3([H])c5c([H])c([H])c([H])c([H])c5C([H])([H])C([H])([H])C3([H])[H])C4([H])[H])C2(C([H])([H])[H])C([H])([H])[H])c1[H]

>  <smiles>  (66) 
[H]c1c(N([H])C(=O)N2C([H])([H])C([H])([H])C([H])([H])C([H])(n3nc(-c4c([H])c([H])c(Oc5c([H])c([H])c(F)c([H])c5F)c([H])c4[H])c(C(=O)N([H])[H])c3N([H])[H])C2([H])[H])sc(N2C([H])([H])C([H])([H])C(C([H])([H])[H])(C([H])([H])Oc3c([H])c([H])c4c(c3[H])C([H])([H])N(C(=O)C([H])(N([H])C(=O)C([H])(N([H])C([H])([H])[H])C([H])([H])[H])C(C([H])([H])[H])(C([H])([H])[H])C([H])([H])[H])C([H])(C(=O)N([H])C3([H])c5c([H])c([H])c([H])c([H])c5C([H])([H])C([H])([H])C3([H])[H])C4([H])[H])C2(C([H])([H])[H])C([H])([H])[H])c1[H]

$$$$
66:0:0
     RDKit          3D

 96105  0  0  1  0  0  0  0  0999 V2000
  -29.7550  -20.2440   19.8050 C   0  0  0  0  0  3  0  0  0  0  0  0
  -31.7380  -19.3120   20.8690 C   0  0  0  0  0  3  0  0  0  0  0  0
  -31.7090  -21.6570   20.2110 C   0  0  0  0  0  3  0  0  0  0  0  0
  -30.4040  -19.1560   20.4360 C   0  0  0  0  0  0  0  0  0  0  0  0
  -30.3960  -21.5040   19.7000 C   0  0  0  0  0  0  0  0  0  0  0  0
  -32.3810  -20.5580   20.7770 C   0  0  0  0  0  0  0  0  0  0  0  0
  -33.6450  -20.6970   21.2430 F   0  0  0  0  0  0  0  0  0  0  0  0
  -30.7320  -14.4320   20.1350 C   0  0  0  0  0  0  0  0  0  0  0  0
  -30.4020  -12.3430   18.8830 C   0  0  0  0  0  2  0  0  0  0  0  0
  -29.3940  -12.6530   17.7540 C   0  0  0  0  0  2  0  0  0  0  0  0
  -27.9430  -12.4970   18.2530 C   0  0  0  0  0  2  0  0  0  0  0  0
  -27.6970  -13.2370   19.5950 C   0  0  0  0  0  3  0  0  0  0  0  0
  -28.8010  -12.8790   20.6110 C   0  0  0  0  0  2  0  0  0  0  0  0
  -30.0890  -13.2420   20.0010 N   0  0  0  0  0  0  0  0  0  0  0  0
  -31.8500  -14.6410   19.6420 O   0  0  0  0  0  0  0  0  0  0  0  0
  -29.9460  -17.1950   22.0560 C   0  0  0  0  0  2  0  0  0  0  0  0
  -29.5050  -15.7530   21.8330 C   0  0  0  0  0  2  0  0  0  0  0  0
  -29.9480  -16.7260   19.6980 C   0  0  0  0  0  2  0  0  0  0  0  0
  -29.6570  -17.8490   20.6990 C   0  0  0  0  0  3  0  0  0  0  0  0
  -29.9160  -15.4620   20.4550 N   0  0  0  0  0  0  0  0  0  0  0  0
  -25.3360  -13.8380   20.4120 C   0  0  0  0  0  0  0  0  0  0  0  0
  -24.2940  -13.0580   20.8230 C   0  0  0  0  0  0  0  0  0  0  0  0
  -24.7580  -11.7070   20.7530 C   0  0  0  0  0  0  0  0  0  0  0  0
  -26.3700  -12.9610   20.1250 N   0  0  0  0  0  0  0  0  0  0  0  0
  -26.0290  -11.6760   20.3840 N   0  0  0  0  0  0  0  0  0  0  0  0
  -24.0510  -10.4390   20.9630 C   0  0  0  0  0  0  0  0  0  0  0  0
  -24.5090   -9.4860   21.9010 C   0  0  0  0  0  3  0  0  0  0  0  0
  -23.8060   -8.2790   22.0930 C   0  0  0  0  0  3  0  0  0  0  0  0
  -22.6300   -8.0160   21.3490 C   0  0  0  0  0  0  0  0  0  0  0  0
  -22.1930   -8.9570   20.3990 C   0  0  0  0  0  3  0  0  0  0  0  0
  -22.8980  -10.1570   20.2040 C   0  0  0  0  0  3  0  0  0  0  0  0
  -21.8940   -6.8610   21.4510 O   0  0  0  0  0  0  0  0  0  0  0  0
  -21.8180   -6.1620   22.6290 C   0  0  0  0  0  0  0  0  0  0  0  0
  -21.3420   -6.7540   23.8180 C   0  0  0  0  0  3  0  0  0  0  0  0
  -21.2170   -5.9790   24.9880 C   0  0  0  0  0  3  0  0  0  0  0  0
  -21.5580   -4.6120   24.9710 C   0  0  0  0  0  0  0  0  0  0  0  0
  -22.0290   -4.0210   23.7860 C   0  0  0  0  0  3  0  0  0  0  0  0
  -22.1560   -4.7930   22.6180 C   0  0  0  0  0  0  0  0  0  0  0  0
  -22.5890   -4.2160   21.4720 F   0  0  0  0  0  0  0  0  0  0  0  0
  -21.4270   -3.8640   26.0910 F   0  0  0  0  0  0  0  0  0  0  0  0
  -22.9080  -13.5170   21.1730 C   0  0  0  0  0  0  0  0  0  0  0  0
  -22.2500  -12.8090   22.0820 N   0  0  0  0  0  0  0  0  0  0  0  0
  -22.4290  -14.5430   20.6870 O   0  0  0  0  0  0  0  0  0  0  0  0
  -22.6600  -11.9790   22.4840 H   0  0  0  0  0  0  0  0  0  0  0  0
  -21.3260  -13.0890   22.3730 H   0  0  0  0  0  0  0  0  0  0  0  0
  -25.4910  -15.2120   20.2460 N   0  0  0  0  0  0  0  0  0  0  0  0
  -24.7400  -15.8680   20.4290 H   0  0  0  0  0  0  0  0  0  0  0  0
  -26.3290  -15.6550   19.8950 H   0  0  0  0  0  0  0  0  0  0  0  0
  -29.6760  -23.8730   19.4080 C   0  0  0  0  0  0  0  0  0  0  0  0
  -29.6940  -22.5690   19.0620 N   0  0  0  0  0  0  0  0  0  0  0  0
  -30.4050  -24.3490   20.2780 O   0  0  0  0  0  0  0  0  0  0  0  0
  -29.0440  -22.3000   18.3370 H   0  0  0  0  0  0  0  0  0  0  0  0
  -28.6500  -24.7510   18.6700 C   0  0  0  0  0  2  0  0  0  0  0  0
  -30.1850  -26.8280   18.2780 C   0  0  0  0  0  1  0  0  0  0  0  0
  -28.8130  -26.2980   18.7510 C   0  0  0  0  0  3  0  0  0  0  0  0
  -28.4710  -26.8330   20.0470 O   0  0  0  0  0  0  0  0  0  0  0  0
  -24.5770  -31.9100   23.2460 C   0  0  0  0  0  0  0  0  0  0  0  0
  -27.2640  -27.4970   20.1390 C   0  0  0  0  0  0  0  0  0  0  0  0
  -23.3830  -30.4970   21.6060 C   0  0  0  0  0  3  0  0  0  0  0  0
  -24.8440  -28.9560   20.1980 C   0  0  0  0  0  0  0  0  0  0  0  0
  -25.9090  -30.8590   21.4290 C   0  0  0  0  0  2  0  0  0  0  0  0
  -25.9980  -29.4870   20.7910 C   0  0  0  0  0  0  0  0  0  0  0  0
  -27.2050  -28.7530   20.7800 C   0  0  0  0  0  3  0  0  0  0  0  0
  -26.0820  -26.9600   19.5780 C   0  0  0  0  0  3  0  0  0  0  0  0
  -24.8780  -27.6850   19.6030 C   0  0  0  0  0  3  0  0  0  0  0  0
  -23.5980  -29.8120   20.2320 C   0  0  0  0  0  2  0  0  0  0  0  0
  -24.6370  -31.1070   22.1490 N   0  0  0  0  0  0  0  0  0  0  0  0
  -23.4920  -32.1830   23.7810 O   0  0  0  0  0  0  0  0  0  0  0  0
  -22.7280  -29.4800   22.5670 C   0  0  0  0  0  0  0  0  0  0  0  0
  -21.4080  -29.2820   22.4180 N   0  0  0  0  0  0  0  0  0  0  0  0
  -23.4040  -28.8730   23.4020 O   0  0  0  0  0  0  0  0  0  0  0  0
  -20.9290  -29.8150   21.7080 H   0  0  0  0  0  0  0  0  0  0  0  0
  -18.0400  -28.0420   22.8450 C   0  0  0  0  0  0  0  0  0  0  0  0
  -20.5850  -28.3430   23.1810 C   0  0  0  0  0  3  0  0  0  0  0  0
  -20.7260  -26.9050   22.6280 C   0  0  0  0  0  2  0  0  0  0  0  0
  -19.6550  -26.5500   21.5930 C   0  0  0  0  0  2  0  0  0  0  0  0
  -18.2540  -26.6860   22.1970 C   0  0  0  0  0  2  0  0  0  0  0  0
  -19.1350  -28.8300   23.2910 C   0  0  0  0  0  0  0  0  0  0  0  0
  -18.8830  -30.1020   23.8480 C   0  0  0  0  0  3  0  0  0  0  0  0
  -17.5660  -30.5870   23.9690 C   0  0  0  0  0  3  0  0  0  0  0  0
  -16.4860  -29.7940   23.5440 C   0  0  0  0  0  3  0  0  0  0  0  0
  -16.7210  -28.5250   22.9860 C   0  0  0  0  0  3  0  0  0  0  0  0
  -25.8650  -32.5430   23.8680 C   0  0  0  0  0  3  0  0  0  0  0  0
  -26.3820  -31.7690   25.1430 C   0  0  1  0  0  0  0  0  0  0  0  0
  -25.2870  -31.5210   26.2060 C   0  0  0  0  0  1  0  0  0  0  0  0
  -26.9720  -30.3950   24.7450 C   0  0  0  0  0  1  0  0  0  0  0  0
  -27.5270  -32.5660   25.8090 C   0  0  0  0  0  1  0  0  0  0  0  0
  -25.5590  -33.9390   24.2020 N   0  0  0  0  0  0  0  0  0  0  0  0
  -25.8970  -34.9910   23.4480 C   0  0  0  0  0  0  0  0  0  0  0  0
  -26.5720  -34.8880   22.4190 O   0  0  0  0  0  0  0  0  0  0  0  0
  -24.9690  -34.0910   25.0070 H   0  0  0  0  0  0  0  0  0  0  0  0
  -24.1760  -36.7810   23.0640 C   0  0  0  0  0  1  0  0  0  0  0  0
  -25.4030  -36.3790   23.8990 C   0  0  0  0  0  3  0  0  0  0  0  0
  -27.5240  -37.2500   24.7730 C   0  0  0  0  0  1  0  0  0  0  0  0
  -26.4390  -37.4310   23.8110 N   0  0  0  0  0  0  0  0  0  0  0  0
  -26.0320  -38.3500   23.9590 H   0  0  0  0  0  0  0  0  0  0  0  0
  1  4  1  0
  3  6  2  0
  4  2  2  0
  5  1  2  0
  5  3  1  0
  6  2  1  0
  6  7  1  0
  8 20  1  0
  9 14  1  0
 10 11  1  0
 10  9  1  0
 12 11  1  0
 12 24  1  0
 12 13  1  0
 14  8  1  0
 14 13  1  0
 15  8  2  0
 17 16  1  0
 18 20  1  0
 18 19  1  0
 19  4  1  0
 19 16  1  0
 20 17  1  0
 21 22  2  0
 22 41  1  0
 23 22  1  0
 23 26  1  0
 24 25  1  0
 24 21  1  0
 25 23  2  0
 26 27  1  0
 27 28  2  0
 29 32  1  0
 29 28  1  0
 30 29  2  0
 31 30  1  0
 31 26  2  0
 32 33  1  0
 33 34  1  0
 34 35  2  0
 36 35  1  0
 36 40  1  0
 37 36  2  0
 38 33  2  0
 38 37  1  0
 39 38  1  0
 41 42  1  0
 42 45  1  0
 42 44  1  0
 43 41  2  0
 46 21  1  0
 46 47  1  0
 48 46  1  0
 49 51  2  0
 50 49  1  0
 50  5  1  0
 52 50  1  0
 53 55  1  0
 53 49  1  0
 55 54  1  0
 55 56  1  0
 56 58  1  0
 57 68  2  0
 58 63  1  0
 59 67  1  0
 59 69  1  0
 60 66  1  0
 60 62  1  0
 61 67  1  0
 62 61  1  0
 63 62  2  0
 64 65  1  0
 64 58  2  0
 65 60  2  0
 66 59  1  0
 67 57  1  0
 69 71  2  0
 70 69  1  0
 72 70  1  0
 73 82  2  0
 73 78  1  0
 74 70  1  0
 74 78  1  0
 75 74  1  0
 76 77  1  0
 76 75  1  0
 77 73  1  0
 78 79  2  0
 79 80  1  0
 81 80  2  0
 82 81  1  0
 83 57  1  0
 83 88  1  0
 83 84  1  0
 84 87  1  1
 84 85  1  0
 86 84  1  0
 88 91  1  0
 89 93  1  0
 89 88  1  0
 90 89  2  0
 93 92  1  0
 95 93  1  0
 95 96  1  0
 95 94  1  0
M  ISO  4   8 100  20 100  55 101  56 101
M  END
>  <TORSDO>  (67) 
F 19

>  <SCORE>  (67) 
-13.735

>  <name>  (67) 
66

>  <ligand_id>  (67) 
66

>  <original_smiles>  (67) 
[H]c1c([H])c([H])c2c(c1[H])C([H])([H])C([H])([H])C([H])([H])C2([H])N([H])C(=O)C1([H])N(C(=O)C([H])(N([H])C(=O)C([H])(N([H])C([H])([H])[H])C([H])([H])[H])C(C([H])([H])[H])(C([H])([H])[H])C([H])([H])[H])C([H])([H])c2c([H])c(OC([H])(C([H])([H])[H])C([H])([H])C(=O)N([H])c3c([H])c(F)c([H])c(C4([H])C([H])([H])N(C(=O)N5C([H])([H])C([H])([H])C([H])([H])C([H])(n6nc(-c7c([H])c([H])c(Oc8c([H])c([H])c(F)c([H])c8F)c([H])c7[H])c(C(=O)N([H])[H])c6N([H])[H])C5([H])[H])C([H])([H])C4([H])[H])c3[H])c([H])c([H])c2C1([H])[H]

>  <smiles>  (67) 
[H]c1c([H])c([H])c2c(c1[H])C([H])([H])C([H])([H])C([H])([H])C2([H])N([H])C(=O)C1([H])N(C(=O)C([H])(N([H])C(=O)C([H])(N([H])C([H])([H])[H])C([H])([H])[H])C(C([H])([H])[H])(C([H])([H])[H])C([H])([H])[H])C([H])([H])c2c([H])c(OC([H])(C([H])([H])[H])C([H])([H])C(=O)N([H])c3c([H])c(F)c([H])c(C4([H])C([H])([H])N(C(=O)N5C([H])([H])C([H])([H])C([H])([H])C([H])(n6nc(-c7c([H])c([H])c(Oc8c([H])c([H])c(F)c([H])c8F)c([H])c7[H])c(C(=O)N([H])[H])c6N([H])[H])C5([H])[H])C([H])([H])C4([H])[H])c3[H])c([H])c([H])c2C1([H])[H]

$$$$
67:0:0
     RDKit          3D

 93102  0  0  1  0  0  0  0  0999 V2000
  -28.6920  -21.6660   19.3180 C   0  0  0  0  0  2  0  0  0  0  0  0
  -28.0440  -23.0630   19.6080 C   0  0  0  0  0  2  0  0  0  0  0  0
  -29.2930  -23.0950   21.7760 C   0  0  0  0  0  2  0  0  0  0  0  0
  -29.0630  -20.8730   20.6070 C   0  0  0  0  0  3  0  0  0  0  0  0
  -28.9000  -23.9700   20.5410 C   0  0  0  0  0  3  0  0  0  0  0  0
  -29.9050  -21.7700   21.4400 N   0  0  0  0  0  4  0  0  0  0  0  0
  -30.1170  -21.2920   22.3000 H   0  0  0  0  0  0  0  0  0  0  0  0
  -30.7800  -21.9280   20.9680 H   0  0  0  0  0  0  0  0  0  0  0  0
  -29.2740  -18.2100   20.7470 C   0  0  0  0  0  3  0  0  0  0  0  0
  -31.2930  -17.6120   19.7400 C   0  0  0  0  0  3  0  0  0  0  0  0
  -30.1770  -17.1320   20.3820 C   0  0  0  0  0  0  0  0  0  0  0  0
  -29.7070  -19.4830   20.3790 C   0  0  0  0  0  0  0  0  0  0  0  0
  -31.2510  -19.3520   19.5640 S   0  0  0  0  0  0  0  0  0  0  0  0
  -30.6490  -14.6130   20.2950 C   0  0  0  0  0  0  0  0  0  0  0  0
  -30.3540  -12.4090   19.2150 C   0  0  0  0  0  2  0  0  0  0  0  0
  -29.3950  -12.5800   18.0170 C   0  0  0  0  0  2  0  0  0  0  0  0
  -27.9290  -12.4360   18.4700 C   0  0  0  0  0  2  0  0  0  0  0  0
  -27.6040  -13.2780   19.7340 C   0  0  0  0  0  3  0  0  0  0  0  0
  -28.6830  -13.1060   20.8270 C   0  0  0  0  0  2  0  0  0  0  0  0
  -29.9840  -13.4200   20.2230 N   0  0  0  0  0  0  0  0  0  0  0  0
  -31.8140  -14.7090   19.9010 O   0  0  0  0  0  0  0  0  0  0  0  0
  -29.9140  -15.7170   20.6400 N   0  0  0  0  0  0  0  0  0  0  0  0
  -29.0010  -15.5040   21.0130 H   0  0  0  0  0  0  0  0  0  0  0  0
  -25.2270  -13.8720   20.5070 C   0  0  0  0  0  0  0  0  0  0  0  0
  -24.1640  -13.0970   20.8860 C   0  0  0  0  0  0  0  0  0  0  0  0
  -24.6210  -11.7450   20.8260 C   0  0  0  0  0  0  0  0  0  0  0  0
  -26.2640  -12.9920   20.2400 N   0  0  0  0  0  0  0  0  0  0  0  0
  -25.9070  -11.7060   20.4940 N   0  0  0  0  0  0  0  0  0  0  0  0
  -23.8960  -10.4820   21.0140 C   0  0  0  0  0  0  0  0  0  0  0  0
  -24.3200   -9.5180   21.9550 C   0  0  0  0  0  3  0  0  0  0  0  0
  -23.5940   -8.3190   22.1300 C   0  0  0  0  0  3  0  0  0  0  0  0
  -22.4310   -8.0760   21.3620 C   0  0  0  0  0  0  0  0  0  0  0  0
  -22.0250   -9.0290   20.4110 C   0  0  0  0  0  3  0  0  0  0  0  0
  -22.7500  -10.2190   20.2350 C   0  0  0  0  0  3  0  0  0  0  0  0
  -21.6780   -6.9300   21.4440 O   0  0  0  0  0  0  0  0  0  0  0  0
  -21.5940   -6.2070   22.6070 C   0  0  0  0  0  0  0  0  0  0  0  0
  -21.0880   -6.7680   23.7990 C   0  0  0  0  0  3  0  0  0  0  0  0
  -20.9540   -5.9700   24.9530 C   0  0  0  0  0  3  0  0  0  0  0  0
  -21.3140   -4.6100   24.9140 C   0  0  0  0  0  0  0  0  0  0  0  0
  -21.8140   -4.0470   23.7250 C   0  0  0  0  0  3  0  0  0  0  0  0
  -21.9500   -4.8420   22.5750 C   0  0  0  0  0  0  0  0  0  0  0  0
  -22.4110   -4.2900   21.4270 F   0  0  0  0  0  0  0  0  0  0  0  0
  -21.1800   -3.8400   26.0190 F   0  0  0  0  0  0  0  0  0  0  0  0
  -22.7730  -13.5750   21.1910 C   0  0  0  0  0  0  0  0  0  0  0  0
  -22.0550  -12.8610   22.0490 N   0  0  0  0  0  0  0  0  0  0  0  0
  -22.3330  -14.6160   20.7030 O   0  0  0  0  0  0  0  0  0  0  0  0
  -22.4200  -12.0170   22.4620 H   0  0  0  0  0  0  0  0  0  0  0  0
  -21.1230  -13.1640   22.2980 H   0  0  0  0  0  0  0  0  0  0  0  0
  -25.3940  -15.2450   20.3420 N   0  0  0  0  0  0  0  0  0  0  0  0
  -24.6330  -15.9000   20.4790 H   0  0  0  0  0  0  0  0  0  0  0  0
  -26.2210  -15.6750   19.9490 H   0  0  0  0  0  0  0  0  0  0  0  0
  -28.1790  -25.3110   20.9950 C   0  0  0  0  0  2  0  0  0  0  0  0
  -28.3610  -26.5540   20.2420 O   0  0  0  0  0  0  0  0  0  0  0  0
  -24.5690  -31.8810   23.2350 C   0  0  0  0  0  0  0  0  0  0  0  0
  -27.2440  -27.3820   20.2090 C   0  0  0  0  0  0  0  0  0  0  0  0
  -23.3880  -30.4720   21.5850 C   0  0  0  0  0  3  0  0  0  0  0  0
  -24.8630  -28.9340   20.1760 C   0  0  0  0  0  0  0  0  0  0  0  0
  -25.9210  -30.8230   21.4180 C   0  0  0  0  0  2  0  0  0  0  0  0
  -26.0180  -29.4470   20.7780 C   0  0  0  0  0  0  0  0  0  0  0  0
  -27.2170  -28.6830   20.7840 C   0  0  0  0  0  3  0  0  0  0  0  0
  -26.0720  -26.9040   19.5870 C   0  0  0  0  0  3  0  0  0  0  0  0
  -24.8880  -27.6650   19.5720 C   0  0  0  0  0  3  0  0  0  0  0  0
  -23.6170  -29.7950   20.2090 C   0  0  0  0  0  2  0  0  0  0  0  0
  -24.6440  -31.0740   22.1370 N   0  0  0  0  0  0  0  0  0  0  0  0
  -23.4810  -32.1510   23.7620 O   0  0  0  0  0  0  0  0  0  0  0  0
  -22.7260  -29.4530   22.5410 C   0  0  0  0  0  0  0  0  0  0  0  0
  -21.4000  -29.2770   22.4110 N   0  0  0  0  0  0  0  0  0  0  0  0
  -23.4030  -28.8210   23.3560 O   0  0  0  0  0  0  0  0  0  0  0  0
  -20.9130  -29.8390   21.7260 H   0  0  0  0  0  0  0  0  0  0  0  0
  -18.0130  -28.1200   22.9260 C   0  0  0  0  0  0  0  0  0  0  0  0
  -20.5760  -28.3400   23.1770 C   0  0  0  0  0  3  0  0  0  0  0  0
  -20.6540  -26.9160   22.5820 C   0  0  0  0  0  2  0  0  0  0  0  0
  -19.5390  -26.6220   21.5730 C   0  0  0  0  0  2  0  0  0  0  0  0
  -18.1640  -26.7770   22.2320 C   0  0  0  0  0  2  0  0  0  0  0  0
  -19.1460  -28.8610   23.3570 C   0  0  0  0  0  0  0  0  0  0  0  0
  -18.9490  -30.1190   23.9660 C   0  0  0  0  0  3  0  0  0  0  0  0
  -17.6530  -30.6360   24.1520 C   0  0  0  0  0  3  0  0  0  0  0  0
  -16.5360  -29.8920   23.7380 C   0  0  0  0  0  3  0  0  0  0  0  0
  -16.7160  -28.6360   23.1310 C   0  0  0  0  0  3  0  0  0  0  0  0
  -25.8440  -32.5190   23.8690 C   0  0  0  0  0  3  0  0  0  0  0  0
  -25.5290  -33.9190   24.1850 N   0  0  0  0  0  0  0  0  0  0  0  0
  -25.8700  -34.9660   23.4210 C   0  0  0  0  0  0  0  0  0  0  0  0
  -26.5540  -34.8560   22.4010 O   0  0  0  0  0  0  0  0  0  0  0  0
  -24.9240  -34.0790   24.9770 H   0  0  0  0  0  0  0  0  0  0  0  0
  -24.1570  -36.7630   23.0150 C   0  0  0  0  0  1  0  0  0  0  0  0
  -25.3740  -36.3570   23.8610 C   0  0  0  0  0  3  0  0  0  0  0  0
  -27.4840  -37.2430   24.7510 C   0  0  0  0  0  1  0  0  0  0  0  0
  -26.4120  -37.4070   23.7730 N   0  0  0  0  0  0  0  0  0  0  0  0
  -26.0040  -38.3290   23.9020 H   0  0  0  0  0  0  0  0  0  0  0  0
  -26.3450  -31.7590   25.1580 C   0  0  1  0  0  0  0  0  0  0  0  0
  -25.2380  -31.5220   26.2110 C   0  0  0  0  0  1  0  0  0  0  0  0
  -26.9390  -30.3810   24.7820 C   0  0  0  0  0  1  0  0  0  0  0  0
  -27.4830  -32.5620   25.8310 C   0  0  0  0  0  1  0  0  0  0  0  0
  1  2  1  0
  1  4  1  0
  2  5  1  0
  4 12  1  0
  4  6  1  0
  5 52  1  0
  5  3  1  0
  6  3  1  0
  6  7  1  0
  8  6  1  0
 10 11  2  0
 11 22  1  0
 11  9  1  0
 12  9  2  0
 13 10  1  0
 13 12  1  0
 14 22  1  0
 15 20  1  0
 16 17  1  0
 16 15  1  0
 18 17  1  0
 18 27  1  0
 18 19  1  0
 20 14  1  0
 20 19  1  0
 21 14  2  0
 22 23  1  0
 24 25  2  0
 25 44  1  0
 26 25  1  0
 26 29  1  0
 27 28  1  0
 27 24  1  0
 28 26  2  0
 29 30  1  0
 30 31  2  0
 32 35  1  0
 32 31  1  0
 33 32  2  0
 34 33  1  0
 34 29  2  0
 35 36  1  0
 36 37  1  0
 37 38  2  0
 39 38  1  0
 39 43  1  0
 40 39  2  0
 41 36  2  0
 41 40  1  0
 42 41  1  0
 44 45  1  0
 45 48  1  0
 45 47  1  0
 46 44  2  0
 49 50  1  0
 49 24  1  0
 51 49  1  0
 53 52  1  0
 54 65  2  0
 55 53  1  0
 55 60  1  0
 56 64  1  0
 56 66  1  0
 57 63  1  0
 57 59  1  0
 58 64  1  0
 59 60  2  0
 59 58  1  0
 61 55  2  0
 62 61  1  0
 62 57  2  0
 63 56  1  0
 64 54  1  0
 66 68  2  0
 67 66  1  0
 69 67  1  0
 70 79  2  0
 70 75  1  0
 71 67  1  0
 71 75  1  0
 72 71  1  0
 73 74  1  0
 73 72  1  0
 74 70  1  0
 75 76  2  0
 76 77  1  0
 78 77  2  0
 79 78  1  0
 80 54  1  0
 80 81  1  0
 80 90  1  0
 81 84  1  0
 82 86  1  0
 82 81  1  0
 83 82  2  0
 86 85  1  0
 88 86  1  0
 88 89  1  0
 88 87  1  0
 90 93  1  1
 90 91  1  0
 92 90  1  0
M  ISO  4  14 100  22 100  52 101  53 101
M  END
>  <TORSDO>  (68) 
F 18

>  <SCORE>  (68) 
-14.801

>  <name>  (68) 
67

>  <ligand_id>  (68) 
67

>  <original_smiles>  (68) 
[H]c1sc(C2([H])C([H])([H])C([H])([H])C([H])(C([H])([H])Oc3c([H])c([H])c4c(c3[H])C([H])([H])N(C(=O)C([H])(N([H])C(=O)C([H])(N([H])C([H])([H])[H])C([H])([H])[H])C(C([H])([H])[H])(C([H])([H])[H])C([H])([H])[H])C([H])(C(=O)N([H])C3([H])c5c([H])c([H])c([H])c([H])c5C([H])([H])C([H])([H])C3([H])[H])C4([H])[H])C([H])([H])[N+]2([H])[H])c([H])c1N([H])C(=O)N1C([H])([H])C([H])([H])C([H])([H])C([H])(n2nc(-c3c([H])c([H])c(Oc4c([H])c([H])c(F)c([H])c4F)c([H])c3[H])c(C(=O)N([H])[H])c2N([H])[H])C1([H])[H]

>  <smiles>  (68) 
[H]c1sc(C2([H])C([H])([H])C([H])([H])C([H])(C([H])([H])Oc3c([H])c([H])c4c(c3[H])C([H])([H])N(C(=O)C([H])(N([H])C(=O)C([H])(N([H])C([H])([H])[H])C([H])([H])[H])C(C([H])([H])[H])(C([H])([H])[H])C([H])([H])[H])C([H])(C(=O)N([H])C3([H])c5c([H])c([H])c([H])c([H])c5C([H])([H])C([H])([H])C3([H])[H])C4([H])[H])C([H])([H])[N+]2([H])[H])c([H])c1N([H])C(=O)N1C([H])([H])C([H])([H])C([H])([H])C([H])(n2nc(-c3c([H])c([H])c(Oc4c([H])c([H])c(F)c([H])c4F)c([H])c3[H])c(C(=O)N([H])[H])c2N([H])[H])C1([H])[H]

$$$$
68:0:0
     RDKit          3D

 92100  0  0  1  0  0  0  0  0999 V2000
  -30.5470  -21.9550   19.3570 C   0  0  0  0  0  1  0  0  0  0  0  0
  -29.5540  -21.6820   20.5040 C   0  0  0  0  0  3  0  0  0  0  0  0
  -28.9860  -20.3060   20.5070 N   0  0  0  0  0  0  0  0  0  0  0  0
  -28.1860  -20.2010   21.1270 H   0  0  0  0  0  0  0  0  0  0  0  0
  -30.9770  -17.4310   19.5450 C   0  0  0  0  0  3  0  0  0  0  0  0
  -30.7110  -18.8270   19.4380 C   0  0  0  0  0  3  0  0  0  0  0  0
  -30.0860  -16.9260   20.4590 C   0  0  0  0  0  0  0  0  0  0  0  0
  -29.6950  -19.0940   20.3170 C   0  0  0  0  0  0  0  0  0  0  0  0
  -29.2750  -17.9360   20.9360 O   0  0  0  0  0  0  0  0  0  0  0  0
  -30.6540  -14.5290   20.4360 C   0  0  0  0  0  0  0  0  0  0  0  0
  -30.3850  -12.3420   19.3420 C   0  0  0  0  0  2  0  0  0  0  0  0
  -29.4640  -12.5450   18.1210 C   0  0  0  0  0  2  0  0  0  0  0  0
  -27.9820  -12.4120   18.5320 C   0  0  0  0  0  2  0  0  0  0  0  0
  -27.6250  -13.2460   19.7930 C   0  0  0  0  0  3  0  0  0  0  0  0
  -28.6710  -13.0420   20.9140 C   0  0  0  0  0  2  0  0  0  0  0  0
  -29.9970  -13.3400   20.3530 N   0  0  0  0  0  0  0  0  0  0  0  0
  -31.8240  -14.6490   20.0560 O   0  0  0  0  0  0  0  0  0  0  0  0
  -29.9040  -15.6030   20.7940 N   0  0  0  0  0  0  0  0  0  0  0  0
  -29.0060  -15.3750   21.1930 H   0  0  0  0  0  0  0  0  0  0  0  0
  -25.2190  -13.8480   20.4780 C   0  0  0  0  0  0  0  0  0  0  0  0
  -24.1480  -13.0740   20.8380 C   0  0  0  0  0  0  0  0  0  0  0  0
  -24.6120  -11.7230   20.8170 C   0  0  0  0  0  0  0  0  0  0  0  0
  -26.2680  -12.9680   20.2590 N   0  0  0  0  0  0  0  0  0  0  0  0
  -25.9060  -11.6850   20.5200 N   0  0  0  0  0  0  0  0  0  0  0  0
  -23.8820  -10.4620   21.0080 C   0  0  0  0  0  0  0  0  0  0  0  0
  -24.2970   -9.5070   21.9640 C   0  0  0  0  0  3  0  0  0  0  0  0
  -23.5730   -8.3090   22.1400 C   0  0  0  0  0  3  0  0  0  0  0  0
  -22.4190   -8.0570   21.3620 C   0  0  0  0  0  0  0  0  0  0  0  0
  -22.0210   -9.0010   20.3980 C   0  0  0  0  0  3  0  0  0  0  0  0
  -22.7470  -10.1900   20.2200 C   0  0  0  0  0  3  0  0  0  0  0  0
  -21.6680   -6.9100   21.4460 O   0  0  0  0  0  0  0  0  0  0  0  0
  -21.5850   -6.1870   22.6090 C   0  0  0  0  0  0  0  0  0  0  0  0
  -21.1030   -6.7560   23.8080 C   0  0  0  0  0  3  0  0  0  0  0  0
  -20.9700   -5.9580   24.9620 C   0  0  0  0  0  3  0  0  0  0  0  0
  -21.3100   -4.5920   24.9180 C   0  0  0  0  0  0  0  0  0  0  0  0
  -21.7840   -4.0220   23.7240 C   0  0  0  0  0  3  0  0  0  0  0  0
  -21.9190   -4.8170   22.5720 C   0  0  0  0  0  0  0  0  0  0  0  0
  -22.3580   -4.2580   21.4180 F   0  0  0  0  0  0  0  0  0  0  0  0
  -21.1740   -3.8240   26.0240 F   0  0  0  0  0  0  0  0  0  0  0  0
  -22.7490  -13.5520   21.0960 C   0  0  0  0  0  0  0  0  0  0  0  0
  -22.0100  -12.8560   21.9530 N   0  0  0  0  0  0  0  0  0  0  0  0
  -22.3200  -14.5810   20.5750 O   0  0  0  0  0  0  0  0  0  0  0  0
  -22.3640  -12.0210   22.3960 H   0  0  0  0  0  0  0  0  0  0  0  0
  -21.0730  -13.1640   22.1710 H   0  0  0  0  0  0  0  0  0  0  0  0
  -25.3780  -15.2190   20.3030 N   0  0  0  0  0  0  0  0  0  0  0  0
  -24.5950  -15.8570   20.4030 H   0  0  0  0  0  0  0  0  0  0  0  0
  -26.2250  -15.6800   19.9930 H   0  0  0  0  0  0  0  0  0  0  0  0
  -28.4100  -22.7560   20.4810 C   0  0  0  0  0  2  0  0  0  0  0  0
  -28.7950  -24.2320   20.7930 C   0  0  0  0  0  0  0  0  0  0  0  0
  -29.3060  -24.5320   21.8780 O   0  0  0  0  0  0  0  0  0  0  0  0
  -28.5170  -25.3060   19.7120 C   0  0  0  0  0  2  0  0  0  0  0  0
  -28.4420  -26.6600   20.2450 O   0  0  0  0  0  0  0  0  0  0  0  0
  -24.6090  -31.8860   23.2570 C   0  0  0  0  0  0  0  0  0  0  0  0
  -27.2580  -27.3910   20.2040 C   0  0  0  0  0  0  0  0  0  0  0  0
  -23.4140  -30.4810   21.6140 C   0  0  0  0  0  3  0  0  0  0  0  0
  -24.8720  -28.9430   20.1950 C   0  0  0  0  0  0  0  0  0  0  0  0
  -25.9450  -30.8260   21.4330 C   0  0  0  0  0  2  0  0  0  0  0  0
  -26.0300  -29.4510   20.7940 C   0  0  0  0  0  0  0  0  0  0  0  0
  -27.2210  -28.6820   20.7980 C   0  0  0  0  0  3  0  0  0  0  0  0
  -26.0700  -26.9110   19.5980 C   0  0  0  0  0  3  0  0  0  0  0  0
  -24.8910  -27.6780   19.5910 C   0  0  0  0  0  3  0  0  0  0  0  0
  -23.6310  -29.8060   20.2340 C   0  0  0  0  0  2  0  0  0  0  0  0
  -24.6740  -31.0800   22.1600 N   0  0  0  0  0  0  0  0  0  0  0  0
  -23.5240  -32.1590   23.7900 O   0  0  0  0  0  0  0  0  0  0  0  0
  -22.7570  -29.4580   22.5730 C   0  0  0  0  0  0  0  0  0  0  0  0
  -21.4320  -29.2760   22.4430 N   0  0  0  0  0  0  0  0  0  0  0  0
  -23.4390  -28.8340   23.3900 O   0  0  0  0  0  0  0  0  0  0  0  0
  -20.9460  -29.8330   21.7540 H   0  0  0  0  0  0  0  0  0  0  0  0
  -18.0540  -28.0920   22.9370 C   0  0  0  0  0  0  0  0  0  0  0  0
  -20.6130  -28.3400   23.2120 C   0  0  0  0  0  3  0  0  0  0  0  0
  -20.7100  -26.9100   22.6330 C   0  0  0  0  0  2  0  0  0  0  0  0
  -19.6080  -26.5930   21.6190 C   0  0  0  0  0  2  0  0  0  0  0  0
  -18.2260  -26.7430   22.2620 C   0  0  0  0  0  2  0  0  0  0  0  0
  -19.1740  -28.8490   23.3690 C   0  0  0  0  0  0  0  0  0  0  0  0
  -18.9590  -30.1130   23.9610 C   0  0  0  0  0  3  0  0  0  0  0  0
  -17.6550  -30.6180   24.1240 C   0  0  0  0  0  3  0  0  0  0  0  0
  -16.5490  -29.8570   23.7090 C   0  0  0  0  0  3  0  0  0  0  0  0
  -16.7490  -28.5970   23.1200 C   0  0  0  0  0  3  0  0  0  0  0  0
  -25.8910  -32.5210   23.8810 C   0  0  0  0  0  3  0  0  0  0  0  0
  -25.5840  -33.9240   24.1910 N   0  0  0  0  0  0  0  0  0  0  0  0
  -25.9270  -34.9650   23.4210 C   0  0  0  0  0  0  0  0  0  0  0  0
  -26.6030  -34.8460   22.3960 O   0  0  0  0  0  0  0  0  0  0  0  0
  -24.9850  -34.0900   24.9860 H   0  0  0  0  0  0  0  0  0  0  0  0
  -24.2110  -36.7610   23.0230 C   0  0  0  0  0  1  0  0  0  0  0  0
  -25.4380  -36.3600   23.8570 C   0  0  0  0  0  3  0  0  0  0  0  0
  -27.5620  -37.2450   24.7120 C   0  0  0  0  0  1  0  0  0  0  0  0
  -26.4760  -37.4070   23.7470 N   0  0  0  0  0  0  0  0  0  0  0  0
  -26.0720  -38.3300   23.8780 H   0  0  0  0  0  0  0  0  0  0  0  0
  -26.3950  -31.7640   25.1700 C   0  0  1  0  0  0  0  0  0  0  0  0
  -25.2930  -31.5420   26.2320 C   0  0  0  0  0  1  0  0  0  0  0  0
  -26.9750  -30.3810   24.7960 C   0  0  0  0  0  1  0  0  0  0  0  0
  -27.5430  -32.5620   25.8330 C   0  0  0  0  0  1  0  0  0  0  0  0
  2  1  1  0
  2  3  1  0
  3  4  1  0
  5  7  2  0
  6  5  1  0
  6  8  2  0
  7 18  1  0
  7  9  1  0
  8  3  1  0
  8  9  1  0
 10 18  1  0
 11 16  1  0
 12 13  1  0
 12 11  1  0
 14 13  1  0
 14 23  1  0
 14 15  1  0
 16 10  1  0
 16 15  1  0
 17 10  2  0
 18 19  1  0
 20 21  2  0
 21 40  1  0
 22 21  1  0
 22 25  1  0
 23 20  1  0
 23 24  1  0
 24 22  2  0
 25 26  1  0
 26 27  2  0
 28 31  1  0
 28 27  1  0
 29 28  2  0
 30 29  1  0
 30 25  2  0
 31 32  1  0
 32 33  1  0
 33 34  2  0
 35 34  1  0
 35 39  1  0
 36 35  2  0
 37 32  2  0
 37 36  1  0
 38 37  1  0
 40 41  1  0
 41 44  1  0
 41 43  1  0
 42 40  2  0
 45 46  1  0
 45 20  1  0
 47 45  1  0
 48  2  1  0
 48 49  1  0
 49 50  2  0
 51 52  1  0
 51 49  1  0
 53 64  2  0
 54 52  1  0
 54 59  1  0
 55 63  1  0
 55 65  1  0
 56 62  1  0
 56 58  1  0
 57 63  1  0
 58 59  2  0
 58 57  1  0
 60 54  2  0
 61 60  1  0
 61 56  2  0
 62 55  1  0
 63 53  1  0
 65 67  2  0
 66 65  1  0
 68 66  1  0
 69 78  2  0
 69 74  1  0
 70 66  1  0
 70 74  1  0
 71 70  1  0
 72 73  1  0
 72 71  1  0
 73 69  1  0
 74 75  2  0
 75 76  1  0
 77 76  2  0
 78 77  1  0
 79 53  1  0
 79 80  1  0
 79 89  1  0
 80 83  1  0
 81 85  1  0
 81 80  1  0
 82 81  2  0
 85 84  1  0
 87 85  1  0
 87 88  1  0
 87 86  1  0
 89 92  1  1
 89 90  1  0
 91 89  1  0
M  ISO  4  10 100  18 100  51 101  52 101
M  END
>  <TORSDO>  (69) 
F 21

>  <SCORE>  (69) 
-13.556

>  <name>  (69) 
68

>  <ligand_id>  (69) 
68

>  <original_smiles>  (69) 
[H]c1c(N([H])C(=O)N2C([H])([H])C([H])([H])C([H])([H])C([H])(n3nc(-c4c([H])c([H])c(Oc5c([H])c([H])c(F)c([H])c5F)c([H])c4[H])c(C(=O)N([H])[H])c3N([H])[H])C2([H])[H])oc(N([H])C([H])(C([H])([H])[H])C([H])([H])C(=O)C([H])([H])Oc2c([H])c([H])c3c(c2[H])C([H])([H])N(C(=O)C([H])(N([H])C(=O)C([H])(N([H])C([H])([H])[H])C([H])([H])[H])C(C([H])([H])[H])(C([H])([H])[H])C([H])([H])[H])C([H])(C(=O)N([H])C2([H])c4c([H])c([H])c([H])c([H])c4C([H])([H])C([H])([H])C2([H])[H])C3([H])[H])c1[H]

>  <smiles>  (69) 
[H]c1c(N([H])C(=O)N2C([H])([H])C([H])([H])C([H])([H])C([H])(n3nc(-c4c([H])c([H])c(Oc5c([H])c([H])c(F)c([H])c5F)c([H])c4[H])c(C(=O)N([H])[H])c3N([H])[H])C2([H])[H])oc(N([H])C([H])(C([H])([H])[H])C([H])([H])C(=O)C([H])([H])Oc2c([H])c([H])c3c(c2[H])C([H])([H])N(C(=O)C([H])(N([H])C(=O)C([H])(N([H])C([H])([H])[H])C([H])([H])[H])C(C([H])([H])[H])(C([H])([H])[H])C([H])([H])[H])C([H])(C(=O)N([H])C2([H])c4c([H])c([H])c([H])c([H])c4C([H])([H])C([H])([H])C2([H])[H])C3([H])[H])c1[H]

$$$$
69:0:0
     RDKit          3D

 97106  0  0  1  0  0  0  0  0999 V2000
  -29.4820  -21.7130   19.1260 C   0  0  0  0  0  2  0  0  0  0  0  0
  -29.1640  -21.9200   21.5280 C   0  0  0  0  0  2  0  0  0  0  0  0
  -29.8080  -23.2270   18.9460 C   0  0  0  0  0  2  0  0  0  0  0  0
  -29.4250  -23.4670   21.5120 C   0  0  0  0  0  2  0  0  0  0  0  0
  -30.0110  -21.1870   20.4680 C   0  0  0  0  0  3  0  0  0  0  0  0
  -29.4820  -24.2330   20.1260 C   0  0  1  0  0  0  0  0  0  0  0  0
  -31.4630  -17.6260   20.7510 C   0  0  0  0  0  3  0  0  0  0  0  0
  -31.5060  -19.0590   20.6910 C   0  0  0  0  0  0  0  0  0  0  0  0
  -30.2640  -19.6610   20.5940 C   0  0  0  0  0  0  0  0  0  0  0  0
  -30.2130  -17.0570   20.7010 C   0  0  0  0  0  0  0  0  0  0  0  0
  -29.0320  -18.3850   20.6000 S   0  0  0  0  0  0  0  0  0  0  0  0
  -30.6160  -14.6220   20.3810 C   0  0  0  0  0  0  0  0  0  0  0  0
  -30.3310  -12.4250   19.2700 C   0  0  0  0  0  2  0  0  0  0  0  0
  -29.3710  -12.6000   18.0760 C   0  0  0  0  0  2  0  0  0  0  0  0
  -27.9080  -12.4360   18.5320 C   0  0  0  0  0  2  0  0  0  0  0  0
  -27.5780  -13.2700   19.8010 C   0  0  0  0  0  3  0  0  0  0  0  0
  -28.6590  -13.0970   20.8910 C   0  0  0  0  0  2  0  0  0  0  0  0
  -29.9570  -13.4260   20.2870 N   0  0  0  0  0  0  0  0  0  0  0  0
  -31.7770  -14.7360   19.9780 O   0  0  0  0  0  0  0  0  0  0  0  0
  -29.8680  -15.7140   20.7330 N   0  0  0  0  0  0  0  0  0  0  0  0
  -28.9050  -15.5110   20.9510 H   0  0  0  0  0  0  0  0  0  0  0  0
  -25.1960  -13.8440   20.5750 C   0  0  0  0  0  0  0  0  0  0  0  0
  -24.1410  -13.0590   20.9540 C   0  0  0  0  0  0  0  0  0  0  0  0
  -24.6090  -11.7120   20.8940 C   0  0  0  0  0  0  0  0  0  0  0  0
  -26.2410  -12.9730   20.3070 N   0  0  0  0  0  0  0  0  0  0  0  0
  -25.8930  -11.6850   20.5590 N   0  0  0  0  0  0  0  0  0  0  0  0
  -23.8930  -10.4430   21.0800 C   0  0  0  0  0  0  0  0  0  0  0  0
  -24.3420   -9.4700   22.0000 C   0  0  0  0  0  3  0  0  0  0  0  0
  -23.6260   -8.2640   22.1740 C   0  0  0  0  0  3  0  0  0  0  0  0
  -22.4480   -8.0250   21.4280 C   0  0  0  0  0  0  0  0  0  0  0  0
  -22.0170   -8.9880   20.4970 C   0  0  0  0  0  3  0  0  0  0  0  0
  -22.7340  -10.1840   20.3210 C   0  0  0  0  0  3  0  0  0  0  0  0
  -21.7010   -6.8740   21.5120 O   0  0  0  0  0  0  0  0  0  0  0  0
  -21.6570   -6.1280   22.6620 C   0  0  0  0  0  0  0  0  0  0  0  0
  -21.1890   -6.6660   23.8810 C   0  0  0  0  0  3  0  0  0  0  0  0
  -21.0940   -5.8440   25.0230 C   0  0  0  0  0  3  0  0  0  0  0  0
  -21.4570   -4.4870   24.9460 C   0  0  0  0  0  0  0  0  0  0  0  0
  -21.9190   -3.9470   23.7320 C   0  0  0  0  0  3  0  0  0  0  0  0
  -22.0150   -4.7650   22.5920 C   0  0  0  0  0  0  0  0  0  0  0  0
  -22.4410   -4.2380   21.4190 F   0  0  0  0  0  0  0  0  0  0  0  0
  -21.3580   -3.6950   26.0390 F   0  0  0  0  0  0  0  0  0  0  0  0
  -22.7460  -13.5250   21.2600 C   0  0  0  0  0  0  0  0  0  0  0  0
  -22.0410  -12.8140   22.1320 N   0  0  0  0  0  0  0  0  0  0  0  0
  -22.2940  -14.5550   20.7610 O   0  0  0  0  0  0  0  0  0  0  0  0
  -22.4210  -11.9820   22.5570 H   0  0  0  0  0  0  0  0  0  0  0  0
  -21.1050  -13.1080   22.3790 H   0  0  0  0  0  0  0  0  0  0  0  0
  -25.3490  -15.2190   20.4140 N   0  0  0  0  0  0  0  0  0  0  0  0
  -24.5770  -15.8620   20.5520 H   0  0  0  0  0  0  0  0  0  0  0  0
  -26.1760  -15.6690   20.0450 H   0  0  0  0  0  0  0  0  0  0  0  0
  -33.2700  -20.2450   19.3280 C   0  0  0  0  0  1  0  0  0  0  0  0
  -32.8230  -19.7870   20.7220 C   0  0  0  0  0  2  0  0  0  0  0  0
  -30.6060  -25.2010   20.1890 N   0  0  0  0  0  4  0  0  0  0  0  0
  -31.4760  -24.7650   20.4400 H   0  0  0  0  0  0  0  0  0  0  0  0
  -30.3960  -25.9170   20.8660 H   0  0  0  0  0  0  0  0  0  0  0  0
  -30.7260  -25.6660   19.3040 H   0  0  0  0  0  0  0  0  0  0  0  0
  -28.2090  -25.1390   19.8400 C   0  0  0  0  0  2  0  0  0  0  0  0
  -28.3270  -26.5600   20.2090 O   0  0  0  0  0  0  0  0  0  0  0  0
  -24.5750  -31.8790   23.2540 C   0  0  0  0  0  0  0  0  0  0  0  0
  -27.1850  -27.3640   20.1650 C   0  0  0  0  0  0  0  0  0  0  0  0
  -23.3660  -30.4880   21.6090 C   0  0  0  0  0  3  0  0  0  0  0  0
  -24.8130  -28.9490   20.1730 C   0  0  0  0  0  0  0  0  0  0  0  0
  -25.9030  -30.8170   21.4180 C   0  0  0  0  0  2  0  0  0  0  0  0
  -25.9800  -29.4440   20.7680 C   0  0  0  0  0  0  0  0  0  0  0  0
  -27.1680  -28.6620   20.7550 C   0  0  0  0  0  3  0  0  0  0  0  0
  -25.9900  -26.9130   19.5530 C   0  0  0  0  0  3  0  0  0  0  0  0
  -24.8170  -27.6890   19.5600 C   0  0  0  0  0  3  0  0  0  0  0  0
  -23.5760  -29.8200   20.2260 C   0  0  0  0  0  2  0  0  0  0  0  0
  -24.6330  -31.0780   22.1510 N   0  0  0  0  0  0  0  0  0  0  0  0
  -23.4930  -32.1520   23.7930 O   0  0  0  0  0  0  0  0  0  0  0  0
  -22.7090  -29.4650   22.5650 C   0  0  0  0  0  0  0  0  0  0  0  0
  -21.3850  -29.2800   22.4310 N   0  0  0  0  0  0  0  0  0  0  0  0
  -23.3890  -28.8410   23.3850 O   0  0  0  0  0  0  0  0  0  0  0  0
  -20.8980  -29.8350   21.7430 H   0  0  0  0  0  0  0  0  0  0  0  0
  -18.0080  -28.0810   22.9210 C   0  0  0  0  0  0  0  0  0  0  0  0
  -20.5660  -28.3390   23.1980 C   0  0  0  0  0  3  0  0  0  0  0  0
  -20.6690  -26.9100   22.6160 C   0  0  0  0  0  2  0  0  0  0  0  0
  -19.5690  -26.5910   21.5990 C   0  0  0  0  0  2  0  0  0  0  0  0
  -18.1860  -26.7340   22.2410 C   0  0  0  0  0  2  0  0  0  0  0  0
  -19.1260  -28.8420   23.3550 C   0  0  0  0  0  0  0  0  0  0  0  0
  -18.9050  -30.1030   23.9510 C   0  0  0  0  0  3  0  0  0  0  0  0
  -17.6000  -30.6040   24.1140 C   0  0  0  0  0  3  0  0  0  0  0  0
  -16.4970  -29.8400   23.6960 C   0  0  0  0  0  3  0  0  0  0  0  0
  -16.7020  -28.5800   23.1050 C   0  0  0  0  0  3  0  0  0  0  0  0
  -25.8600  -32.5070   23.8760 C   0  0  0  0  0  3  0  0  0  0  0  0
  -26.3720  -31.7350   25.1540 C   0  0  1  0  0  0  0  0  0  0  0  0
  -25.2750  -31.5010   26.2200 C   0  0  0  0  0  1  0  0  0  0  0  0
  -26.9520  -30.3560   24.7630 C   0  0  0  0  0  1  0  0  0  0  0  0
  -27.5220  -32.5280   25.8180 C   0  0  0  0  0  1  0  0  0  0  0  0
  -25.5550  -33.9070   24.2040 N   0  0  0  0  0  0  0  0  0  0  0  0
  -25.8820  -34.9570   23.4370 C   0  0  0  0  0  0  0  0  0  0  0  0
  -26.5430  -34.8470   22.4010 O   0  0  0  0  0  0  0  0  0  0  0  0
  -24.9680  -34.0650   25.0090 H   0  0  0  0  0  0  0  0  0  0  0  0
  -24.1570  -36.7530   23.0890 C   0  0  0  0  0  1  0  0  0  0  0  0
  -25.4010  -36.3470   23.8940 C   0  0  0  0  0  3  0  0  0  0  0  0
  -27.5380  -37.2350   24.7180 C   0  0  0  0  0  1  0  0  0  0  0  0
  -26.4370  -37.3970   23.7730 N   0  0  0  0  0  0  0  0  0  0  0  0
  -26.0330  -38.3190   23.9100 H   0  0  0  0  0  0  0  0  0  0  0  0
  1  5  1  0
  3  1  1  0
  3  6  1  0
  4  2  1  0
  5  9  1  0
  5  2  1  0
  6 56  1  6
  6 52  1  0
  6  4  1  0
  8 51  1  0
  8  7  1  0
  9 11  1  0
  9  8  2  0
 10 20  1  0
 10  7  2  0
 11 10  1  0
 12 20  1  0
 13 18  1  0
 14 15  1  0
 14 13  1  0
 16 15  1  0
 16 25  1  0
 16 17  1  0
 18 12  1  0
 18 17  1  0
 19 12  2  0
 20 21  1  0
 22 23  2  0
 23 42  1  0
 24 23  1  0
 24 27  1  0
 25 26  1  0
 25 22  1  0
 26 24  2  0
 27 28  1  0
 28 29  2  0
 30 33  1  0
 30 29  1  0
 31 30  2  0
 32 31  1  0
 32 27  2  0
 33 34  1  0
 34 35  1  0
 35 36  2  0
 37 36  1  0
 37 41  1  0
 38 37  2  0
 39 34  2  0
 39 38  1  0
 40 39  1  0
 42 43  1  0
 43 46  1  0
 43 45  1  0
 44 42  2  0
 47 48  1  0
 47 22  1  0
 49 47  1  0
 50 51  1  0
 52 53  1  0
 52 54  1  0
 55 52  1  0
 56 57  1  0
 58 69  2  0
 59 57  1  0
 59 64  1  0
 60 68  1  0
 60 70  1  0
 61 67  1  0
 61 63  1  0
 62 68  1  0
 63 62  1  0
 64 63  2  0
 65 66  1  0
 65 59  2  0
 66 61  2  0
 67 60  1  0
 68 58  1  0
 70 72  2  0
 71 70  1  0
 73 71  1  0
 74 83  2  0
 74 79  1  0
 75 71  1  0
 75 79  1  0
 76 75  1  0
 77 78  1  0
 77 76  1  0
 78 74  1  0
 79 80  2  0
 80 81  1  0
 82 81  2  0
 83 82  1  0
 84 58  1  0
 84 89  1  0
 84 85  1  0
 85 88  1  1
 85 86  1  0
 87 85  1  0
 89 92  1  0
 90 94  1  0
 90 89  1  0
 91 90  2  0
 94 93  1  0
 96 94  1  0
 96 97  1  0
 96 95  1  0
M  ISO  4  12 100  20 100  56 101  57 101
M  END
>  <TORSDO>  (70) 
F 20

>  <SCORE>  (70) 
-14.363

>  <name>  (70) 
69

>  <ligand_id>  (70) 
69

>  <original_smiles>  (70) 
[H]c1c([H])c([H])c2c(c1[H])C([H])([H])C([H])([H])C([H])([H])C2([H])N([H])C(=O)C1([H])N(C(=O)C([H])(N([H])C(=O)C([H])(N([H])C([H])([H])[H])C([H])([H])[H])C(C([H])([H])[H])(C([H])([H])[H])C([H])([H])[H])C([H])([H])c2c([H])c(OC([H])([H])C3([N+]([H])([H])[H])C([H])([H])C([H])([H])C([H])(c4sc(N([H])C(=O)N5C([H])([H])C([H])([H])C([H])([H])C([H])(n6nc(-c7c([H])c([H])c(Oc8c([H])c([H])c(F)c([H])c8F)c([H])c7[H])c(C(=O)N([H])[H])c6N([H])[H])C5([H])[H])c([H])c4C([H])([H])C([H])([H])[H])C([H])([H])C3([H])[H])c([H])c([H])c2C1([H])[H]

>  <smiles>  (70) 
[H]c1c([H])c([H])c2c(c1[H])C([H])([H])C([H])([H])C([H])([H])C2([H])N([H])C(=O)C1([H])N(C(=O)C([H])(N([H])C(=O)C([H])(N([H])C([H])([H])[H])C([H])([H])[H])C(C([H])([H])[H])(C([H])([H])[H])C([H])([H])[H])C([H])([H])c2c([H])c(OC([H])([H])C3([N+]([H])([H])[H])C([H])([H])C([H])([H])C([H])(c4sc(N([H])C(=O)N5C([H])([H])C([H])([H])C([H])([H])C([H])(n6nc(-c7c([H])c([H])c(Oc8c([H])c([H])c(F)c([H])c8F)c([H])c7[H])c(C(=O)N([H])[H])c6N([H])[H])C5([H])[H])c([H])c4C([H])([H])C([H])([H])[H])C([H])([H])C3([H])[H])c([H])c([H])c2C1([H])[H]

$$$$
70:0:0
     RDKit          3D

 92101  0  0  1  0  0  0  0  0999 V2000
  -29.0270  -21.9940   19.6200 C   0  0  0  0  0  2  0  0  0  0  0  0
  -29.8900  -22.0370   21.9700 C   0  0  0  0  0  2  0  0  0  0  0  0
  -28.3950  -23.4080   19.8060 C   0  0  0  0  0  2  0  0  0  0  0  0
  -29.2830  -23.4510   22.1740 C   0  0  0  0  0  2  0  0  0  0  0  0
  -29.0730  -21.2100   20.9520 C   0  0  0  0  0  3  0  0  0  0  0  0
  -29.1140  -24.2800   20.8690 C   0  0  0  0  0  3  0  0  0  0  0  0
  -28.4310  -18.7800   20.5180 C   0  0  0  0  0  3  0  0  0  0  0  0
  -30.7420  -19.1850   21.1080 C   0  0  0  0  0  3  0  0  0  0  0  0
  -28.6730  -17.3890   20.5190 C   0  0  0  0  0  3  0  0  0  0  0  0
  -30.9930  -17.7820   21.0920 C   0  0  0  0  0  3  0  0  0  0  0  0
  -29.4490  -19.7060   20.8390 C   0  0  0  0  0  0  0  0  0  0  0  0
  -29.9520  -16.8640   20.8080 C   0  0  0  0  0  0  0  0  0  0  0  0
  -30.7050  -14.5480   20.1470 C   0  0  0  0  0  0  0  0  0  0  0  0
  -30.3700  -12.4200   18.9100 C   0  0  0  0  0  2  0  0  0  0  0  0
  -29.3520  -12.6470   17.7700 C   0  0  0  0  0  2  0  0  0  0  0  0
  -27.9040  -12.5000   18.2770 C   0  0  0  0  0  2  0  0  0  0  0  0
  -27.6450  -13.2890   19.5880 C   0  0  0  0  0  3  0  0  0  0  0  0
  -28.7610  -13.0040   20.6190 C   0  0  0  0  0  2  0  0  0  0  0  0
  -30.0540  -13.3540   20.0030 N   0  0  0  0  0  0  0  0  0  0  0  0
  -31.7660  -14.8060   19.5690 O   0  0  0  0  0  0  0  0  0  0  0  0
  -30.0650  -15.4380   20.9380 N   0  0  0  0  0  0  0  0  0  0  0  0
  -29.2730  -15.0100   21.3890 H   0  0  0  0  0  0  0  0  0  0  0  0
  -25.2930  -13.8960   20.4490 C   0  0  0  0  0  0  0  0  0  0  0  0
  -24.2430  -13.1220   20.8670 C   0  0  0  0  0  0  0  0  0  0  0  0
  -24.6910  -11.7680   20.7730 C   0  0  0  0  0  0  0  0  0  0  0  0
  -26.3160  -13.0120   20.1330 N   0  0  0  0  0  0  0  0  0  0  0  0
  -25.9580  -11.7260   20.3820 N   0  0  0  0  0  0  0  0  0  0  0  0
  -23.9660  -10.5060   20.9750 C   0  0  0  0  0  0  0  0  0  0  0  0
  -24.4200   -9.5330   21.8920 C   0  0  0  0  0  3  0  0  0  0  0  0
  -23.6970   -8.3360   22.0800 C   0  0  0  0  0  3  0  0  0  0  0  0
  -22.5080   -8.1040   21.3490 C   0  0  0  0  0  0  0  0  0  0  0  0
  -22.0710   -9.0660   20.4210 C   0  0  0  0  0  3  0  0  0  0  0  0
  -22.7950  -10.2550   20.2310 C   0  0  0  0  0  3  0  0  0  0  0  0
  -21.7580   -6.9550   21.4430 O   0  0  0  0  0  0  0  0  0  0  0  0
  -21.7030   -6.2250   22.6030 C   0  0  0  0  0  0  0  0  0  0  0  0
  -21.2440   -6.7880   23.8150 C   0  0  0  0  0  3  0  0  0  0  0  0
  -21.1360   -5.9840   24.9670 C   0  0  0  0  0  3  0  0  0  0  0  0
  -21.4790   -4.6200   24.9100 C   0  0  0  0  0  0  0  0  0  0  0  0
  -21.9330   -4.0570   23.7030 C   0  0  0  0  0  3  0  0  0  0  0  0
  -22.0400   -4.8560   22.5520 C   0  0  0  0  0  0  0  0  0  0  0  0
  -22.4580   -4.3050   21.3870 F   0  0  0  0  0  0  0  0  0  0  0  0
  -21.3660   -3.8470   26.0140 F   0  0  0  0  0  0  0  0  0  0  0  0
  -22.8690  -13.6010   21.2340 C   0  0  0  0  0  0  0  0  0  0  0  0
  -22.1830  -12.8870   22.1190 N   0  0  0  0  0  0  0  0  0  0  0  0
  -22.4120  -14.6460   20.7720 O   0  0  0  0  0  0  0  0  0  0  0  0
  -22.5620  -12.0410   22.5180 H   0  0  0  0  0  0  0  0  0  0  0  0
  -21.2650  -13.1990   22.4050 H   0  0  0  0  0  0  0  0  0  0  0  0
  -25.4540  -15.2680   20.2890 N   0  0  0  0  0  0  0  0  0  0  0  0
  -24.6820  -15.9160   20.4180 H   0  0  0  0  0  0  0  0  0  0  0  0
  -26.2290  -15.6780   19.7880 H   0  0  0  0  0  0  0  0  0  0  0  0
  -28.3800  -25.6290   21.1840 C   0  0  0  0  0  2  0  0  0  0  0  0
  -28.4430  -26.6710   20.1860 O   0  0  0  0  0  0  0  0  0  0  0  0
  -24.5930  -31.8880   23.2000 C   0  0  0  0  0  0  0  0  0  0  0  0
  -27.3070  -27.4580   20.1550 C   0  0  0  0  0  0  0  0  0  0  0  0
  -23.4190  -30.4840   21.5360 C   0  0  0  0  0  3  0  0  0  0  0  0
  -24.9050  -28.9580   20.1260 C   0  0  0  0  0  0  0  0  0  0  0  0
  -25.9460  -30.8560   21.3780 C   0  0  0  0  0  2  0  0  0  0  0  0
  -26.0520  -29.4850   20.7350 C   0  0  0  0  0  0  0  0  0  0  0  0
  -27.2570  -28.7420   20.7500 C   0  0  0  0  0  3  0  0  0  0  0  0
  -26.1500  -26.9500   19.5330 C   0  0  0  0  0  3  0  0  0  0  0  0
  -24.9490  -27.6900   19.5220 C   0  0  0  0  0  3  0  0  0  0  0  0
  -23.6530  -29.8090   20.1570 C   0  0  0  0  0  2  0  0  0  0  0  0
  -24.6690  -31.0920   22.0950 N   0  0  0  0  0  0  0  0  0  0  0  0
  -23.5030  -32.1520   23.7270 O   0  0  0  0  0  0  0  0  0  0  0  0
  -22.7610  -29.4550   22.4840 C   0  0  0  0  0  0  0  0  0  0  0  0
  -21.4380  -29.2770   22.3490 N   0  0  0  0  0  0  0  0  0  0  0  0
  -23.4410  -28.8200   23.2940 O   0  0  0  0  0  0  0  0  0  0  0  0
  -20.9500  -29.8450   21.6700 H   0  0  0  0  0  0  0  0  0  0  0  0
  -18.0570  -28.1020   22.8380 C   0  0  0  0  0  0  0  0  0  0  0  0
  -20.6160  -28.3350   23.1080 C   0  0  0  0  0  3  0  0  0  0  0  0
  -20.7070  -26.9100   22.5110 C   0  0  0  0  0  2  0  0  0  0  0  0
  -19.6010  -26.6140   21.4930 C   0  0  0  0  0  2  0  0  0  0  0  0
  -18.2210  -26.7600   22.1410 C   0  0  0  0  0  2  0  0  0  0  0  0
  -19.1830  -28.8470   23.2770 C   0  0  0  0  0  0  0  0  0  0  0  0
  -18.9760  -30.1040   23.8840 C   0  0  0  0  0  3  0  0  0  0  0  0
  -17.6760  -30.6140   24.0610 C   0  0  0  0  0  3  0  0  0  0  0  0
  -16.5650  -29.8640   23.6380 C   0  0  0  0  0  3  0  0  0  0  0  0
  -16.7550  -28.6100   23.0310 C   0  0  0  0  0  3  0  0  0  0  0  0
  -25.8680  -32.5240   23.8390 C   0  0  0  0  0  3  0  0  0  0  0  0
  -25.5490  -33.9200   24.1700 N   0  0  0  0  0  0  0  0  0  0  0  0
  -25.8830  -34.9750   23.4140 C   0  0  0  0  0  0  0  0  0  0  0  0
  -26.5620  -34.8760   22.3880 O   0  0  0  0  0  0  0  0  0  0  0  0
  -24.9490  -34.0700   24.9660 H   0  0  0  0  0  0  0  0  0  0  0  0
  -24.1490  -36.7560   23.0330 C   0  0  0  0  0  1  0  0  0  0  0  0
  -25.3790  -36.3580   23.8650 C   0  0  0  0  0  3  0  0  0  0  0  0
  -27.4960  -37.2530   24.7310 C   0  0  0  0  0  1  0  0  0  0  0  0
  -26.4040  -37.4190   23.7730 N   0  0  0  0  0  0  0  0  0  0  0  0
  -25.9890  -38.3340   23.9220 H   0  0  0  0  0  0  0  0  0  0  0  0
  -26.3750  -31.7490   25.1170 C   0  0  1  0  0  0  0  0  0  0  0  0
  -25.2740  -31.5030   26.1730 C   0  0  0  0  0  1  0  0  0  0  0  0
  -26.9680  -30.3750   24.7240 C   0  0  0  0  0  1  0  0  0  0  0  0
  -27.5120  -32.5470   25.7980 C   0  0  0  0  0  1  0  0  0  0  0  0
  1  3  1  0
  1  5  1  0
  2  4  1  0
  3  6  1  0
  5 11  1  0
  5  2  1  0
  6 51  1  0
  6  4  1  0
  7  9  2  0
  7 11  1  0
  9 12  1  0
 10  8  1  0
 11  8  2  0
 12 21  1  0
 12 10  2  0
 13 21  1  0
 14 19  1  0
 15 16  1  0
 15 14  1  0
 17 16  1  0
 17 26  1  0
 17 18  1  0
 19 13  1  0
 19 18  1  0
 20 13  2  0
 21 22  1  0
 23 24  2  0
 24 43  1  0
 25 24  1  0
 25 28  1  0
 26 27  1  0
 26 23  1  0
 27 25  2  0
 28 29  1  0
 29 30  2  0
 31 34  1  0
 31 30  1  0
 32 31  2  0
 33 32  1  0
 33 28  2  0
 34 35  1  0
 35 36  1  0
 36 37  2  0
 38 37  1  0
 38 42  1  0
 39 38  2  0
 40 35  2  0
 40 39  1  0
 41 40  1  0
 43 44  1  0
 44 47  1  0
 44 46  1  0
 45 43  2  0
 48 49  1  0
 48 23  1  0
 50 48  1  0
 52 51  1  0
 53 64  2  0
 54 52  1  0
 54 59  1  0
 55 63  1  0
 55 65  1  0
 56 62  1  0
 56 58  1  0
 57 63  1  0
 58 59  2  0
 58 57  1  0
 60 54  2  0
 61 60  1  0
 61 56  2  0
 62 55  1  0
 63 53  1  0
 65 67  2  0
 66 65  1  0
 68 66  1  0
 69 78  2  0
 69 74  1  0
 70 66  1  0
 70 74  1  0
 71 70  1  0
 72 73  1  0
 72 71  1  0
 73 69  1  0
 74 75  2  0
 75 76  1  0
 77 76  2  0
 78 77  1  0
 79 53  1  0
 79 80  1  0
 79 89  1  0
 80 83  1  0
 81 85  1  0
 81 80  1  0
 82 81  2  0
 85 84  1  0
 87 85  1  0
 87 88  1  0
 87 86  1  0
 89 92  1  1
 89 90  1  0
 91 89  1  0
M  ISO  4  13 100  21 100  51 101  52 101
M  END
>  <TORSDO>  (71) 
F 18

>  <SCORE>  (71) 
-14.977

>  <name>  (71) 
70

>  <ligand_id>  (71) 
70

>  <original_smiles>  (71) 
[H]c1c([H])c([H])c2c(c1[H])C([H])([H])C([H])([H])C([H])([H])C2([H])N([H])C(=O)C1([H])N(C(=O)C([H])(N([H])C(=O)C([H])(N([H])C([H])([H])[H])C([H])([H])[H])C(C([H])([H])[H])(C([H])([H])[H])C([H])([H])[H])C([H])([H])c2c([H])c(OC([H])([H])C3([H])C([H])([H])C([H])([H])C([H])(c4c([H])c([H])c(N([H])C(=O)N5C([H])([H])C([H])([H])C([H])([H])C([H])(n6nc(-c7c([H])c([H])c(Oc8c([H])c([H])c(F)c([H])c8F)c([H])c7[H])c(C(=O)N([H])[H])c6N([H])[H])C5([H])[H])c([H])c4[H])C([H])([H])C3([H])[H])c([H])c([H])c2C1([H])[H]

>  <smiles>  (71) 
[H]c1c([H])c([H])c2c(c1[H])C([H])([H])C([H])([H])C([H])([H])C2([H])N([H])C(=O)C1([H])N(C(=O)C([H])(N([H])C(=O)C([H])(N([H])C([H])([H])[H])C([H])([H])[H])C(C([H])([H])[H])(C([H])([H])[H])C([H])([H])[H])C([H])([H])c2c([H])c(OC([H])([H])C3([H])C([H])([H])C([H])([H])C([H])(c4c([H])c([H])c(N([H])C(=O)N5C([H])([H])C([H])([H])C([H])([H])C([H])(n6nc(-c7c([H])c([H])c(Oc8c([H])c([H])c(F)c([H])c8F)c([H])c7[H])c(C(=O)N([H])[H])c6N([H])[H])C5([H])[H])c([H])c4[H])C([H])([H])C3([H])[H])c([H])c([H])c2C1([H])[H]

$$$$
71:0:0
     RDKit          3D

 93102  0  0  1  0  0  0  0  0999 V2000
  -28.6030  -22.4720   19.8740 C   0  0  0  0  0  0  0  0  0  0  0  0
  -29.2430  -21.3690   20.4600 N   0  0  0  0  0  0  0  0  0  0  0  0
  -27.8520  -22.2980   18.9130 O   0  0  0  0  0  0  0  0  0  0  0  0
  -29.6980  -21.5820   21.3380 H   0  0  0  0  0  0  0  0  0  0  0  0
  -30.5690  -14.8960   20.6210 C   0  0  0  0  0  0  0  0  0  0  0  0
  -30.4920  -12.5360   19.7860 C   0  0  0  0  0  2  0  0  0  0  0  0
  -29.6250  -12.4850   18.5050 C   0  0  0  0  0  2  0  0  0  0  0  0
  -28.1260  -12.3520   18.8490 C   0  0  0  0  0  2  0  0  0  0  0  0
  -27.6670  -13.2890   20.0000 C   0  0  0  0  0  3  0  0  0  0  0  0
  -28.6670  -13.2960   21.1760 C   0  0  0  0  0  2  0  0  0  0  0  0
  -29.9830  -13.6440   20.6260 N   0  0  0  0  0  0  0  0  0  0  0  0
  -31.8000  -14.9830   20.5380 O   0  0  0  0  0  0  0  0  0  0  0  0
  -29.4600  -18.5340   17.8600 C   0  0  0  0  0  3  0  0  0  0  0  0
  -29.3740  -19.7840   18.5230 C   0  0  0  0  0  3  0  0  0  0  0  0
  -29.6100  -18.7390   20.7740 C   0  0  0  0  0  3  0  0  0  0  0  0
  -29.6310  -17.4260   18.6830 C   0  0  0  0  0  0  0  0  0  0  0  0
  -29.7450  -17.4490   20.1080 C   0  0  0  0  0  0  0  0  0  0  0  0
  -29.4000  -19.9580   19.9520 C   0  0  0  0  0  0  0  0  0  0  0  0
  -29.6640  -15.9370   18.6300 C   0  0  0  0  0  2  0  0  0  0  0  0
  -29.7570  -15.9370   20.1420 N   0  0  0  0  0  0  0  0  0  0  0  0
  -25.2490  -13.8950   20.5860 C   0  0  0  0  0  0  0  0  0  0  0  0
  -24.1630  -13.1280   20.9060 C   0  0  0  0  0  0  0  0  0  0  0  0
  -24.6280  -11.7780   20.9340 C   0  0  0  0  0  0  0  0  0  0  0  0
  -26.3030  -13.0100   20.4280 N   0  0  0  0  0  0  0  0  0  0  0  0
  -25.9340  -11.7330   20.7040 N   0  0  0  0  0  0  0  0  0  0  0  0
  -23.8930  -10.5190   21.1070 C   0  0  0  0  0  0  0  0  0  0  0  0
  -24.2910   -9.5590   22.0640 C   0  0  0  0  0  3  0  0  0  0  0  0
  -23.5570   -8.3650   22.2250 C   0  0  0  0  0  3  0  0  0  0  0  0
  -22.4130   -8.1210   21.4290 C   0  0  0  0  0  0  0  0  0  0  0  0
  -22.0360   -9.0680   20.4610 C   0  0  0  0  0  3  0  0  0  0  0  0
  -22.7700  -10.2550   20.2970 C   0  0  0  0  0  3  0  0  0  0  0  0
  -21.6540   -6.9790   21.5000 O   0  0  0  0  0  0  0  0  0  0  0  0
  -21.5740   -6.2370   22.6510 C   0  0  0  0  0  0  0  0  0  0  0  0
  -21.1230   -6.7960   23.8670 C   0  0  0  0  0  3  0  0  0  0  0  0
  -20.9900   -5.9810   25.0090 C   0  0  0  0  0  3  0  0  0  0  0  0
  -21.2980   -4.6100   24.9360 C   0  0  0  0  0  0  0  0  0  0  0  0
  -21.7430   -4.0510   23.7250 C   0  0  0  0  0  3  0  0  0  0  0  0
  -21.8770   -4.8620   22.5840 C   0  0  0  0  0  0  0  0  0  0  0  0
  -22.2860   -4.3150   21.4140 F   0  0  0  0  0  0  0  0  0  0  0  0
  -21.1630   -3.8240   26.0290 F   0  0  0  0  0  0  0  0  0  0  0  0
  -22.7510  -13.6090   21.0820 C   0  0  0  0  0  0  0  0  0  0  0  0
  -21.9720  -12.9280   21.9150 N   0  0  0  0  0  0  0  0  0  0  0  0
  -22.3460  -14.6230   20.5140 O   0  0  0  0  0  0  0  0  0  0  0  0
  -22.3100  -12.1090   22.3970 H   0  0  0  0  0  0  0  0  0  0  0  0
  -21.0220  -13.2320   22.0740 H   0  0  0  0  0  0  0  0  0  0  0  0
  -25.4230  -15.2630   20.3910 N   0  0  0  0  0  0  0  0  0  0  0  0
  -24.6560  -15.9220   20.4610 H   0  0  0  0  0  0  0  0  0  0  0  0
  -26.3030  -15.7020   20.1500 H   0  0  0  0  0  0  0  0  0  0  0  0
  -28.2190  -25.0000   19.8440 C   0  0  0  0  0  3  0  0  0  0  0  0
  -28.7860  -23.8720   20.4420 C   0  0  0  0  0  0  0  0  0  0  0  0
  -29.5220  -24.0180   21.5530 O   0  0  0  0  0  0  0  0  0  0  0  0
  -29.5310  -24.9450   21.7580 H   0  0  0  0  0  0  0  0  0  0  0  0
  -28.2940  -26.3890   20.2060 O   0  0  0  0  0  0  0  0  0  0  0  0
  -24.5270  -31.8840   23.1490 C   0  0  0  0  0  0  0  0  0  0  0  0
  -27.1840  -27.2770   20.1200 C   0  0  0  0  0  0  0  0  0  0  0  0
  -23.3430  -30.4690   21.5120 C   0  0  0  0  0  3  0  0  0  0  0  0
  -24.8110  -28.9230   20.0910 C   0  0  0  0  0  0  0  0  0  0  0  0
  -25.8850  -30.7920   21.3380 C   0  0  0  0  0  2  0  0  0  0  0  0
  -25.9780  -29.4080   20.6920 C   0  0  0  0  0  0  0  0  0  0  0  0
  -27.1630  -28.5970   20.6980 C   0  0  0  0  0  3  0  0  0  0  0  0
  -25.9810  -26.8650   19.4970 C   0  0  0  0  0  3  0  0  0  0  0  0
  -24.8190  -27.6600   19.4850 C   0  0  0  0  0  3  0  0  0  0  0  0
  -23.5680  -29.7920   20.1340 C   0  0  0  0  0  2  0  0  0  0  0  0
  -24.6050  -31.0680   22.0550 N   0  0  0  0  0  0  0  0  0  0  0  0
  -23.4390  -32.1540   23.6780 O   0  0  0  0  0  0  0  0  0  0  0  0
  -22.6840  -29.4500   22.4750 C   0  0  0  0  0  0  0  0  0  0  0  0
  -21.3550  -29.2810   22.3650 N   0  0  0  0  0  0  0  0  0  0  0  0
  -23.3690  -28.8150   23.2800 O   0  0  0  0  0  0  0  0  0  0  0  0
  -20.8590  -29.8460   21.6890 H   0  0  0  0  0  0  0  0  0  0  0  0
  -17.9760  -28.1100   22.9210 C   0  0  0  0  0  0  0  0  0  0  0  0
  -20.5410  -28.3420   23.1410 C   0  0  0  0  0  3  0  0  0  0  0  0
  -20.6170  -26.9160   22.5470 C   0  0  0  0  0  2  0  0  0  0  0  0
  -19.4910  -26.6170   21.5530 C   0  0  0  0  0  2  0  0  0  0  0  0
  -18.1250  -26.7670   22.2270 C   0  0  0  0  0  2  0  0  0  0  0  0
  -19.1100  -28.8570   23.3360 C   0  0  0  0  0  0  0  0  0  0  0  0
  -18.9150  -30.1140   23.9480 C   0  0  0  0  0  3  0  0  0  0  0  0
  -17.6190  -30.6250   24.1480 C   0  0  0  0  0  3  0  0  0  0  0  0
  -16.4990  -29.8750   23.7480 C   0  0  0  0  0  3  0  0  0  0  0  0
  -16.6780  -28.6190   23.1400 C   0  0  0  0  0  3  0  0  0  0  0  0
  -25.8010  -32.5330   23.7720 C   0  0  0  0  0  3  0  0  0  0  0  0
  -25.4680  -33.9230   24.1150 N   0  0  0  0  0  0  0  0  0  0  0  0
  -25.7950  -34.9910   23.3740 C   0  0  0  0  0  0  0  0  0  0  0  0
  -26.4750  -34.9110   22.3480 O   0  0  0  0  0  0  0  0  0  0  0  0
  -24.8640  -34.0610   24.9120 H   0  0  0  0  0  0  0  0  0  0  0  0
  -24.0590  -36.7770   23.0140 C   0  0  0  0  0  1  0  0  0  0  0  0
  -25.2860  -36.3680   23.8450 C   0  0  0  0  0  3  0  0  0  0  0  0
  -27.3960  -37.2550   24.7350 C   0  0  0  0  0  1  0  0  0  0  0  0
  -26.3120  -37.4310   23.7720 N   0  0  0  0  0  0  0  0  0  0  0  0
  -25.8960  -38.3450   23.9260 H   0  0  0  0  0  0  0  0  0  0  0  0
  -26.3320  -31.7610   25.0420 C   0  0  1  0  0  0  0  0  0  0  0  0
  -25.2460  -31.5050   26.1130 C   0  0  0  0  0  1  0  0  0  0  0  0
  -26.9330  -30.3930   24.6420 C   0  0  0  0  0  1  0  0  0  0  0  0
  -27.4720  -32.5690   25.7060 C   0  0  0  0  0  1  0  0  0  0  0  0
  1 50  1  0
  1  2  1  0
  2  4  1  0
  3  1  2  0
  5 11  1  0
  6 11  1  0
  7  8  1  0
  7  6  1  0
  9  8  1  0
  9 24  1  0
  9 10  1  0
 11 10  1  0
 12  5  2  0
 13 14  2  0
 13 16  1  0
 14 18  1  0
 16 17  2  0
 17 20  1  0
 17 15  1  0
 18  2  1  0
 18 15  2  0
 19 16  1  0
 19 20  1  0
 20  5  1  0
 21 22  2  0
 22 23  1  0
 22 41  1  0
 23 26  1  0
 24 21  1  0
 24 25  1  0
 25 23  2  0
 26 27  1  0
 27 28  2  0
 29 32  1  0
 29 28  1  0
 30 29  2  0
 31 30  1  0
 31 26  2  0
 32 33  1  0
 33 34  1  0
 34 35  2  0
 36 35  1  0
 36 40  1  0
 37 36  2  0
 38 33  2  0
 38 37  1  0
 39 38  1  0
 41 42  1  0
 42 45  1  0
 42 44  1  0
 43 41  2  0
 46 47  1  0
 46 21  1  0
 48 46  1  0
 49 53  1  0
 49 50  2  0
 50 51  1  0
 51 52  1  0
 54 65  2  0
 55 53  1  0
 55 60  1  0
 56 64  1  0
 56 66  1  0
 57 63  1  0
 57 59  1  0
 58 64  1  0
 59 60  2  0
 59 58  1  0
 61 55  2  0
 62 61  1  0
 62 57  2  0
 63 56  1  0
 64 54  1  0
 66 68  2  0
 67 66  1  0
 69 67  1  0
 70 79  2  0
 70 75  1  0
 71 67  1  0
 71 75  1  0
 72 71  1  0
 73 74  1  0
 73 72  1  0
 74 70  1  0
 75 76  2  0
 76 77  1  0
 78 77  2  0
 79 78  1  0
 80 54  1  0
 80 81  1  0
 80 90  1  0
 81 84  1  0
 82 86  1  0
 82 81  1  0
 83 82  2  0
 86 85  1  0
 88 86  1  0
 88 89  1  0
 88 87  1  0
 90 93  1  1
 90 91  1  0
 92 90  1  0
M  ISO  4   5 100  20 100  49 101  53 101
M  END
>  <TORSDO>  (72) 
F 18

>  <SCORE>  (72) 
-14.436

>  <name>  (72) 
71

>  <ligand_id>  (72) 
71

>  <original_smiles>  (72) 
[H]OC(C(=O)N([H])c1c([H])c([H])c2c(c1[H])N(C(=O)N1C([H])([H])C([H])([H])C([H])([H])C([H])(n3nc(-c4c([H])c([H])c(Oc5c([H])c([H])c(F)c([H])c5F)c([H])c4[H])c(C(=O)N([H])[H])c3N([H])[H])C1([H])[H])C2([H])[H])=C([H])Oc1c([H])c([H])c2c(c1[H])C([H])([H])N(C(=O)C([H])(N([H])C(=O)C([H])(N([H])C([H])([H])[H])C([H])([H])[H])C(C([H])([H])[H])(C([H])([H])[H])C([H])([H])[H])C([H])(C(=O)N([H])C1([H])c3c([H])c([H])c([H])c([H])c3C([H])([H])C([H])([H])C1([H])[H])C2([H])[H]

>  <smiles>  (72) 
[H]OC(C(=O)N([H])c1c([H])c([H])c2c(c1[H])N(C(=O)N1C([H])([H])C([H])([H])C([H])([H])C([H])(n3nc(-c4c([H])c([H])c(Oc5c([H])c([H])c(F)c([H])c5F)c([H])c4[H])c(C(=O)N([H])[H])c3N([H])[H])C1([H])[H])C2([H])[H])=C([H])Oc1c([H])c([H])c2c(c1[H])C([H])([H])N(C(=O)C([H])(N([H])C(=O)C([H])(N([H])C([H])([H])[H])C([H])([H])[H])C(C([H])([H])[H])(C([H])([H])[H])C([H])([H])[H])C([H])(C(=O)N([H])C1([H])c3c([H])c([H])c([H])c([H])c3C([H])([H])C([H])([H])C1([H])[H])C2([H])[H]

$$$$
72:0:0
     RDKit          3D

 96104  0  0  1  0  0  0  0  0999 V2000
  -29.9860  -21.3540   19.0810 C   0  0  0  0  0  2  0  0  0  0  0  0
  -31.4990  -21.5420   21.1580 C   0  0  0  0  0  1  0  0  0  0  0  0
  -30.1940  -22.0050   20.4810 C   0  0  0  0  0  3  0  0  0  0  0  0
  -30.2000  -23.5670   20.4610 C   0  0  0  0  0  2  0  0  0  0  0  0
  -28.9400  -24.3140   19.9800 C   0  0  0  0  0  0  0  0  0  0  0  0
  -28.3830  -24.0180   18.9180 O   0  0  0  0  0  0  0  0  0  0  0  0
  -28.4250  -25.4750   20.8480 C   0  0  0  0  0  2  0  0  0  0  0  0
  -28.4440  -26.7130   20.1230 O   0  0  0  0  0  0  0  0  0  0  0  0
  -24.6220  -31.8620   23.2320 C   0  0  0  0  0  0  0  0  0  0  0  0
  -27.2700  -27.4280   20.1590 C   0  0  0  0  0  0  0  0  0  0  0  0
  -23.4140  -30.4590   21.5880 C   0  0  0  0  0  3  0  0  0  0  0  0
  -24.8700  -28.9160   20.1690 C   0  0  0  0  0  0  0  0  0  0  0  0
  -25.9380  -30.8230   21.3880 C   0  0  0  0  0  2  0  0  0  0  0  0
  -26.0270  -29.4500   20.7530 C   0  0  0  0  0  0  0  0  0  0  0  0
  -27.2330  -28.7140   20.7420 C   0  0  0  0  0  3  0  0  0  0  0  0
  -26.0990  -26.9010   19.5770 C   0  0  0  0  0  3  0  0  0  0  0  0
  -24.9000  -27.6400   19.5800 C   0  0  0  0  0  3  0  0  0  0  0  0
  -23.6250  -29.7750   20.2100 C   0  0  0  0  0  2  0  0  0  0  0  0
  -24.6770  -31.0630   22.1280 N   0  0  0  0  0  0  0  0  0  0  0  0
  -23.5410  -32.1340   23.7730 O   0  0  0  0  0  0  0  0  0  0  0  0
  -22.7630  -29.4400   22.5500 C   0  0  0  0  0  0  0  0  0  0  0  0
  -21.4370  -29.2660   22.4290 N   0  0  0  0  0  0  0  0  0  0  0  0
  -23.4470  -28.8080   23.3600 O   0  0  0  0  0  0  0  0  0  0  0  0
  -20.9480  -29.8260   21.7450 H   0  0  0  0  0  0  0  0  0  0  0  0
  -18.0570  -28.0990   22.9420 C   0  0  0  0  0  0  0  0  0  0  0  0
  -20.6180  -28.3320   23.2010 C   0  0  0  0  0  3  0  0  0  0  0  0
  -20.7050  -26.9030   22.6150 C   0  0  0  0  0  2  0  0  0  0  0  0
  -19.5940  -26.5960   21.6070 C   0  0  0  0  0  2  0  0  0  0  0  0
  -18.2180  -26.7510   22.2600 C   0  0  0  0  0  2  0  0  0  0  0  0
  -19.1850  -28.8480   23.3700 C   0  0  0  0  0  0  0  0  0  0  0  0
  -18.9810  -30.1110   23.9680 C   0  0  0  0  0  3  0  0  0  0  0  0
  -17.6820  -30.6230   24.1430 C   0  0  0  0  0  3  0  0  0  0  0  0
  -16.5680  -29.8710   23.7310 C   0  0  0  0  0  3  0  0  0  0  0  0
  -16.7570  -28.6110   23.1360 C   0  0  0  0  0  3  0  0  0  0  0  0
  -25.9080  -32.4900   23.8520 C   0  0  0  0  0  3  0  0  0  0  0  0
  -26.4350  -31.7110   25.1180 C   0  0  1  0  0  0  0  0  0  0  0  0
  -25.3490  -31.4590   26.1900 C   0  0  0  0  0  1  0  0  0  0  0  0
  -27.0200  -30.3390   24.7090 C   0  0  0  0  0  1  0  0  0  0  0  0
  -27.5870  -32.5020   25.7800 C   0  0  0  0  0  1  0  0  0  0  0  0
  -25.5990  -33.8860   24.1910 N   0  0  0  0  0  0  0  0  0  0  0  0
  -25.9290  -34.9430   23.4370 C   0  0  0  0  0  0  0  0  0  0  0  0
  -26.5970  -34.8460   22.4040 O   0  0  0  0  0  0  0  0  0  0  0  0
  -25.0030  -34.0350   24.9920 H   0  0  0  0  0  0  0  0  0  0  0  0
  -24.1990  -36.7340   23.0920 C   0  0  0  0  0  1  0  0  0  0  0  0
  -25.4400  -36.3270   23.9020 C   0  0  0  0  0  3  0  0  0  0  0  0
  -27.5720  -37.2110   24.7420 C   0  0  0  0  0  1  0  0  0  0  0  0
  -26.4720  -37.3820   23.7970 N   0  0  0  0  0  0  0  0  0  0  0  0
  -26.0630  -38.3000   23.9500 H   0  0  0  0  0  0  0  0  0  0  0  0
  -30.4980  -19.9000   18.8130 C   0  0  0  0  0  3  0  0  0  0  0  0
  -30.5640  -17.5330   19.8850 C   0  0  0  0  0  3  0  0  0  0  0  0
  -28.6580  -18.8070   20.2330 C   0  0  0  0  0  3  0  0  0  0  0  0
  -29.9010  -18.7870   19.6520 C   0  0  0  0  0  0  0  0  0  0  0  0
  -29.8150  -16.6080   20.5820 C   0  0  0  0  0  0  0  0  0  0  0  0
  -28.2940  -17.3170   21.0560 S   0  0  0  0  0  0  0  0  0  0  0  0
  -30.7090  -14.3980   20.1430 C   0  0  0  0  0  0  0  0  0  0  0  0
  -30.4020  -12.2540   18.9620 C   0  0  0  0  0  2  0  0  0  0  0  0
  -29.4050  -12.4770   17.8050 C   0  0  0  0  0  2  0  0  0  0  0  0
  -27.9490  -12.3250   18.2910 C   0  0  0  0  0  2  0  0  0  0  0  0
  -27.6640  -13.1420   19.5780 C   0  0  0  0  0  3  0  0  0  0  0  0
  -28.7600  -12.8800   20.6370 C   0  0  0  0  0  2  0  0  0  0  0  0
  -30.0680  -13.2040   20.0350 N   0  0  0  0  0  0  0  0  0  0  0  0
  -31.7700  -14.6530   19.5600 O   0  0  0  0  0  0  0  0  0  0  0  0
  -30.0640  -15.3070   20.8950 N   0  0  0  0  0  0  0  0  0  0  0  0
  -29.3650  -14.8900   21.4920 H   0  0  0  0  0  0  0  0  0  0  0  0
  -25.2880  -13.7450   20.3730 C   0  0  0  0  0  0  0  0  0  0  0  0
  -24.2380  -12.9670   20.7800 C   0  0  0  0  0  0  0  0  0  0  0  0
  -24.7030  -11.6180   20.7290 C   0  0  0  0  0  0  0  0  0  0  0  0
  -26.3290  -12.8670   20.1030 N   0  0  0  0  0  0  0  0  0  0  0  0
  -25.9790  -11.5820   20.3720 N   0  0  0  0  0  0  0  0  0  0  0  0
  -23.9890  -10.3520   20.9470 C   0  0  0  0  0  0  0  0  0  0  0  0
  -24.4140   -9.4230   21.9230 C   0  0  0  0  0  3  0  0  0  0  0  0
  -23.7020   -8.2210   22.1240 C   0  0  0  0  0  3  0  0  0  0  0  0
  -22.5520   -7.9390   21.3500 C   0  0  0  0  0  0  0  0  0  0  0  0
  -22.1470   -8.8570   20.3650 C   0  0  0  0  0  3  0  0  0  0  0  0
  -22.8590  -10.0510   20.1610 C   0  0  0  0  0  3  0  0  0  0  0  0
  -21.8140   -6.7860   21.4590 O   0  0  0  0  0  0  0  0  0  0  0  0
  -21.6900   -6.1200   22.6520 C   0  0  0  0  0  0  0  0  0  0  0  0
  -21.1540   -6.7430   23.8000 C   0  0  0  0  0  3  0  0  0  0  0  0
  -20.9790   -6.0010   24.9860 C   0  0  0  0  0  3  0  0  0  0  0  0
  -21.3300   -4.6390   25.0240 C   0  0  0  0  0  0  0  0  0  0  0  0
  -21.8600   -4.0150   23.8790 C   0  0  0  0  0  3  0  0  0  0  0  0
  -22.0350   -4.7540   22.6960 C   0  0  0  0  0  0  0  0  0  0  0  0
  -22.5260   -4.1430   21.5910 F   0  0  0  0  0  0  0  0  0  0  0  0
  -21.1550   -3.9250   26.1600 F   0  0  0  0  0  0  0  0  0  0  0  0
  -22.8500  -13.4380   21.1100 C   0  0  0  0  0  0  0  0  0  0  0  0
  -22.1620  -12.7370   22.0050 N   0  0  0  0  0  0  0  0  0  0  0  0
  -22.3860  -14.4620   20.6090 O   0  0  0  0  0  0  0  0  0  0  0  0
  -22.5520  -11.9090   22.4310 H   0  0  0  0  0  0  0  0  0  0  0  0
  -21.2340  -13.0350   22.2690 H   0  0  0  0  0  0  0  0  0  0  0  0
  -25.4420  -15.1160   20.1940 N   0  0  0  0  0  0  0  0  0  0  0  0
  -24.6820  -15.7700   20.3420 H   0  0  0  0  0  0  0  0  0  0  0  0
  -26.2890  -15.5600   19.8620 H   0  0  0  0  0  0  0  0  0  0  0  0
  -30.2730  -19.5540   17.4020 N   0  0  0  0  0  4  0  0  0  0  0  0
  -29.2890  -19.5010   17.2100 H   0  0  0  0  0  0  0  0  0  0  0  0
  -30.6850  -18.6630   17.1960 H   0  0  0  0  0  0  0  0  0  0  0  0
  -30.6870  -20.2400   16.7980 H   0  0  0  0  0  0  0  0  0  0  0  0
  1  3  1  0
  3  2  1  0
  4  3  1  0
  5  4  1  0
  5  7  1  0
  6  5  2  0
  8 10  1  0
  8  7  1  0
  9 20  2  0
 10 15  1  0
 11 19  1  0
 11 21  1  0
 12 18  1  0
 12 14  1  0
 13 19  1  0
 14 13  1  0
 15 14  2  0
 16 17  1  0
 16 10  2  0
 17 12  2  0
 18 11  1  0
 19  9  1  0
 21 23  2  0
 22 21  1  0
 24 22  1  0
 25 34  2  0
 25 30  1  0
 26 22  1  0
 26 30  1  0
 27 26  1  0
 28 29  1  0
 28 27  1  0
 29 25  1  0
 30 31  2  0
 31 32  1  0
 33 32  2  0
 34 33  1  0
 35  9  1  0
 35 40  1  0
 35 36  1  0
 36 39  1  1
 36 37  1  0
 38 36  1  0
 40 43  1  0
 41 45  1  0
 41 40  1  0
 42 41  2  0
 45 44  1  0
 47 45  1  0
 47 48  1  0
 47 46  1  0
 49  1  1  0
 49 52  1  0
 50 53  2  0
 51 54  1  0
 52 50  1  0
 52 51  2  0
 53 63  1  0
 53 54  1  0
 55 63  1  0
 56 61  1  0
 57 58  1  0
 57 56  1  0
 59 58  1  0
 59 68  1  0
 59 60  1  0
 61 55  1  0
 61 60  1  0
 62 55  2  0
 63 64  1  0
 65 66  2  0
 66 85  1  0
 67 66  1  0
 67 70  1  0
 68 69  1  0
 68 65  1  0
 69 67  2  0
 70 71  1  0
 71 72  2  0
 73 76  1  0
 73 72  1  0
 74 73  2  0
 75 74  1  0
 75 70  2  0
 76 77  1  0
 77 82  2  0
 77 78  1  0
 78 79  2  0
 79 80  1  0
 80 84  1  0
 81 80  2  0
 82 81  1  0
 83 82  1  0
 85 86  1  0
 86 89  1  0
 86 88  1  0
 87 85  2  0
 90 91  1  0
 90 65  1  0
 92 90  1  0
 93 49  1  0
 94 93  1  0
 95 93  1  0
 96 93  1  0
M  ISO  4   7 101   8 101  55 100  63 100
M  END
>  <TORSDO>  (73) 
F 23

>  <SCORE>  (73) 
-12.299

>  <name>  (73) 
72

>  <ligand_id>  (73) 
72

>  <original_smiles>  (73) 
[H]c1sc(N([H])C(=O)N2C([H])([H])C([H])([H])C([H])([H])C([H])(n3nc(-c4c([H])c([H])c(Oc5c([H])c([H])c(F)c([H])c5F)c([H])c4[H])c(C(=O)N([H])[H])c3N([H])[H])C2([H])[H])c([H])c1C([H])(C([H])([H])C([H])(C([H])([H])[H])C([H])([H])C(=O)C([H])([H])Oc1c([H])c([H])c2c(c1[H])C([H])([H])N(C(=O)C([H])(N([H])C(=O)C([H])(N([H])C([H])([H])[H])C([H])([H])[H])C(C([H])([H])[H])(C([H])([H])[H])C([H])([H])[H])C([H])(C(=O)N([H])C1([H])c3c([H])c([H])c([H])c([H])c3C([H])([H])C([H])([H])C1([H])[H])C2([H])[H])[N+]([H])([H])[H]

>  <smiles>  (73) 
[H]c1sc(N([H])C(=O)N2C([H])([H])C([H])([H])C([H])([H])C([H])(n3nc(-c4c([H])c([H])c(Oc5c([H])c([H])c(F)c([H])c5F)c([H])c4[H])c(C(=O)N([H])[H])c3N([H])[H])C2([H])[H])c([H])c1C([H])(C([H])([H])C([H])(C([H])([H])[H])C([H])([H])C(=O)C([H])([H])Oc1c([H])c([H])c2c(c1[H])C([H])([H])N(C(=O)C([H])(N([H])C(=O)C([H])(N([H])C([H])([H])[H])C([H])([H])[H])C(C([H])([H])[H])(C([H])([H])[H])C([H])([H])[H])C([H])(C(=O)N([H])C1([H])c3c([H])c([H])c([H])c([H])c3C([H])([H])C([H])([H])C1([H])[H])C2([H])[H])[N+]([H])([H])[H]

$$$$
73:0:0
     RDKit          3D

 93101  0  0  1  0  0  0  0  0999 V2000
  -29.4320  -22.8300   20.4540 C   0  0  0  0  0  0  0  0  0  0  0  0
  -29.5340  -22.6710   21.6750 O   0  0  0  0  0  0  0  0  0  0  0  0
  -29.1700  -24.3060   18.3480 C   0  0  0  0  0  1  0  0  0  0  0  0
  -30.8930  -24.8400   20.1080 C   0  0  0  0  0  1  0  0  0  0  0  0
  -29.4650  -24.2950   19.8630 C   0  0  2  0  0  0  0  0  0  0  0  0
  -28.4360  -25.2570   20.5730 C   0  0  0  0  0  2  0  0  0  0  0  0
  -28.5070  -26.6590   20.1730 O   0  0  0  0  0  0  0  0  0  0  0  0
  -24.6240  -31.8580   23.2370 C   0  0  0  0  0  0  0  0  0  0  0  0
  -27.3340  -27.4020   20.1840 C   0  0  0  0  0  0  0  0  0  0  0  0
  -23.4430  -30.4470   21.5850 C   0  0  0  0  0  3  0  0  0  0  0  0
  -24.9220  -28.9130   20.1780 C   0  0  0  0  0  0  0  0  0  0  0  0
  -25.9710  -30.8160   21.4090 C   0  0  0  0  0  2  0  0  0  0  0  0
  -26.0750  -29.4440   20.7690 C   0  0  0  0  0  0  0  0  0  0  0  0
  -27.2840  -28.7010   20.7600 C   0  0  0  0  0  3  0  0  0  0  0  0
  -26.1590  -26.8990   19.5820 C   0  0  0  0  0  3  0  0  0  0  0  0
  -24.9610  -27.6390   19.5820 C   0  0  0  0  0  3  0  0  0  0  0  0
  -23.6700  -29.7630   20.2120 C   0  0  0  0  0  2  0  0  0  0  0  0
  -24.6980  -31.0580   22.1350 N   0  0  0  0  0  0  0  0  0  0  0  0
  -23.5360  -32.1230   23.7690 O   0  0  0  0  0  0  0  0  0  0  0  0
  -22.7880  -29.4260   22.5410 C   0  0  0  0  0  0  0  0  0  0  0  0
  -21.4680  -29.2320   22.4000 N   0  0  0  0  0  0  0  0  0  0  0  0
  -23.4680  -28.8100   23.3650 O   0  0  0  0  0  0  0  0  0  0  0  0
  -20.9810  -29.7770   21.7040 H   0  0  0  0  0  0  0  0  0  0  0  0
  -18.1010  -28.0020   22.8600 C   0  0  0  0  0  0  0  0  0  0  0  0
  -20.6530  -28.2850   23.1610 C   0  0  0  0  0  3  0  0  0  0  0  0
  -20.7770  -26.8570   22.5850 C   0  0  0  0  0  2  0  0  0  0  0  0
  -19.6900  -26.5250   21.5580 C   0  0  0  0  0  2  0  0  0  0  0  0
  -18.3000  -26.6550   22.1860 C   0  0  0  0  0  2  0  0  0  0  0  0
  -19.2070  -28.7750   23.3030 C   0  0  0  0  0  0  0  0  0  0  0  0
  -18.9700  -30.0370   23.8900 C   0  0  0  0  0  3  0  0  0  0  0  0
  -17.6580  -30.5260   24.0430 C   0  0  0  0  0  3  0  0  0  0  0  0
  -16.5660  -29.7490   23.6170 C   0  0  0  0  0  3  0  0  0  0  0  0
  -16.7880  -28.4900   23.0300 C   0  0  0  0  0  3  0  0  0  0  0  0
  -25.9010  -32.4990   23.8680 C   0  0  0  0  0  3  0  0  0  0  0  0
  -25.5820  -33.8980   24.1820 N   0  0  0  0  0  0  0  0  0  0  0  0
  -25.9260  -34.9470   23.4240 C   0  0  0  0  0  0  0  0  0  0  0  0
  -26.6140  -34.8390   22.4050 O   0  0  0  0  0  0  0  0  0  0  0  0
  -24.9710  -34.0560   24.9710 H   0  0  0  0  0  0  0  0  0  0  0  0
  -24.1960  -36.7310   23.0280 C   0  0  0  0  0  1  0  0  0  0  0  0
  -25.4250  -36.3350   23.8640 C   0  0  0  0  0  3  0  0  0  0  0  0
  -27.5400  -37.2320   24.7280 C   0  0  0  0  0  1  0  0  0  0  0  0
  -26.4530  -37.3930   23.7650 N   0  0  0  0  0  0  0  0  0  0  0  0
  -26.0400  -38.3100   23.9040 H   0  0  0  0  0  0  0  0  0  0  0  0
  -26.4060  -31.7370   25.1560 C   0  0  1  0  0  0  0  0  0  0  0  0
  -25.3040  -31.5020   26.2120 C   0  0  0  0  0  1  0  0  0  0  0  0
  -26.9960  -30.3580   24.7770 C   0  0  0  0  0  1  0  0  0  0  0  0
  -27.5430  -32.5410   25.8290 C   0  0  0  0  0  1  0  0  0  0  0  0
  -29.3280  -21.5540   19.5470 C   0  0  0  0  0  2  0  0  0  0  0  0
  -30.2170  -20.4150   19.9100 N   0  0  0  0  0  0  0  0  0  0  0  0
  -31.2140  -20.6050   19.8480 H   0  0  0  0  0  0  0  0  0  0  0  0
  -30.4830  -17.9110   20.2380 C   0  0  0  0  0  3  0  0  0  0  0  0
  -28.3330  -17.1070   20.7170 C   0  0  0  0  0  3  0  0  0  0  0  0
  -29.6580  -16.7740   20.5810 C   0  0  0  0  0  0  0  0  0  0  0  0
  -29.7560  -19.0940   20.1290 C   0  0  0  0  0  0  0  0  0  0  0  0
  -28.0510  -18.7910   20.3890 S   0  0  0  0  0  0  0  0  0  0  0  0
  -30.7490  -14.5090   20.1410 C   0  0  0  0  0  0  0  0  0  0  0  0
  -30.5260  -12.2750   19.0770 C   0  0  0  0  0  2  0  0  0  0  0  0
  -29.5500  -12.4050   17.8850 C   0  0  0  0  0  2  0  0  0  0  0  0
  -28.0800  -12.2790   18.3390 C   0  0  0  0  0  2  0  0  0  0  0  0
  -27.7600  -13.1700   19.5670 C   0  0  0  0  0  3  0  0  0  0  0  0
  -28.8270  -12.9630   20.6650 C   0  0  0  0  0  2  0  0  0  0  0  0
  -30.1480  -13.2830   20.0820 N   0  0  0  0  0  0  0  0  0  0  0  0
  -31.8220  -14.7600   19.5780 O   0  0  0  0  0  0  0  0  0  0  0  0
  -30.0480  -15.4160   20.8590 N   0  0  0  0  0  0  0  0  0  0  0  0
  -29.3730  -14.9280   21.4260 H   0  0  0  0  0  0  0  0  0  0  0  0
  -25.3820  -13.8420   20.2970 C   0  0  0  0  0  0  0  0  0  0  0  0
  -24.3070  -13.0960   20.7060 C   0  0  0  0  0  0  0  0  0  0  0  0
  -24.7450  -11.7380   20.6990 C   0  0  0  0  0  0  0  0  0  0  0  0
  -26.4070  -12.9350   20.0700 N   0  0  0  0  0  0  0  0  0  0  0  0
  -26.0280  -11.6670   20.3680 N   0  0  0  0  0  0  0  0  0  0  0  0
  -24.0050  -10.4930   20.9340 C   0  0  0  0  0  0  0  0  0  0  0  0
  -24.4200   -9.5550   21.9060 C   0  0  0  0  0  3  0  0  0  0  0  0
  -23.6810   -8.3730   22.1220 C   0  0  0  0  0  3  0  0  0  0  0  0
  -22.5110   -8.1190   21.3680 C   0  0  0  0  0  0  0  0  0  0  0  0
  -22.1160   -9.0440   20.3840 C   0  0  0  0  0  3  0  0  0  0  0  0
  -22.8570  -10.2180   20.1660 C   0  0  0  0  0  3  0  0  0  0  0  0
  -21.7420   -6.9860   21.4920 O   0  0  0  0  0  0  0  0  0  0  0  0
  -21.6510   -6.3070   22.6800 C   0  0  0  0  0  0  0  0  0  0  0  0
  -21.2010   -6.9300   23.8640 C   0  0  0  0  0  3  0  0  0  0  0  0
  -21.0570   -6.1760   25.0450 C   0  0  0  0  0  3  0  0  0  0  0  0
  -21.3540   -4.8000   25.0440 C   0  0  0  0  0  0  0  0  0  0  0  0
  -21.7990   -4.1770   23.8640 C   0  0  0  0  0  3  0  0  0  0  0  0
  -21.9440   -4.9280   22.6850 C   0  0  0  0  0  0  0  0  0  0  0  0
  -22.3520   -4.3180   21.5460 F   0  0  0  0  0  0  0  0  0  0  0  0
  -21.2080   -4.0740   26.1770 F   0  0  0  0  0  0  0  0  0  0  0  0
  -22.9220  -13.6030   20.9940 C   0  0  0  0  0  0  0  0  0  0  0  0
  -22.2020  -12.9420   21.8930 N   0  0  0  0  0  0  0  0  0  0  0  0
  -22.4870  -14.6190   20.4520 O   0  0  0  0  0  0  0  0  0  0  0  0
  -22.5640  -12.1170   22.3490 H   0  0  0  0  0  0  0  0  0  0  0  0
  -21.2750  -13.2650   22.1300 H   0  0  0  0  0  0  0  0  0  0  0  0
  -25.5720  -15.2040   20.0810 N   0  0  0  0  0  0  0  0  0  0  0  0
  -24.8260  -15.8820   20.1830 H   0  0  0  0  0  0  0  0  0  0  0  0
  -26.4140  -15.6020   19.6800 H   0  0  0  0  0  0  0  0  0  0  0  0
  1  2  2  0
  5  3  1  6
  5  4  1  0
  5  1  1  0
  5  6  1  0
  7  9  1  0
  7  6  1  0
  8 19  2  0
  9 14  1  0
 10 18  1  0
 10 20  1  0
 11 17  1  0
 11 13  1  0
 12 18  1  0
 13 12  1  0
 14 13  2  0
 15 16  1  0
 15  9  2  0
 16 11  2  0
 17 10  1  0
 18  8  1  0
 20 22  2  0
 21 20  1  0
 23 21  1  0
 24 33  2  0
 24 29  1  0
 25 21  1  0
 25 29  1  0
 26 25  1  0
 27 28  1  0
 27 26  1  0
 28 24  1  0
 29 30  2  0
 30 31  1  0
 32 31  2  0
 33 32  1  0
 34  8  1  0
 34 35  1  0
 34 44  1  0
 35 38  1  0
 36 40  1  0
 36 35  1  0
 37 36  2  0
 40 39  1  0
 42 40  1  0
 42 43  1  0
 42 41  1  0
 44 47  1  1
 44 45  1  0
 46 44  1  0
 48 49  1  0
 48  1  1  0
 49 54  1  0
 50 49  1  0
 51 53  1  0
 53 52  2  0
 53 64  1  0
 54 51  2  0
 54 55  1  0
 55 52  1  0
 56 64  1  0
 57 62  1  0
 58 59  1  0
 58 57  1  0
 60 59  1  0
 60 69  1  0
 60 61  1  0
 62 56  1  0
 62 61  1  0
 63 56  2  0
 64 65  1  0
 66 67  2  0
 67 86  1  0
 68 67  1  0
 68 71  1  0
 69 66  1  0
 69 70  1  0
 70 68  2  0
 71 72  1  0
 72 73  2  0
 74 77  1  0
 74 73  1  0
 75 74  2  0
 76 75  1  0
 76 71  2  0
 77 78  1  0
 78 83  2  0
 78 79  1  0
 79 80  2  0
 81 80  1  0
 81 85  1  0
 82 81  2  0
 83 82  1  0
 84 83  1  0
 86 87  1  0
 87 90  1  0
 87 89  1  0
 88 86  2  0
 91 92  1  0
 91 66  1  0
 93 91  1  0
M  ISO  4   6 101   7 101  56 100  64 100
M  END
>  <TORSDO>  (74) 
F 21

>  <SCORE>  (74) 
-13.304

>  <name>  (74) 
73

>  <ligand_id>  (74) 
73

>  <original_smiles>  (74) 
[H]c1sc(N([H])C([H])([H])C(=O)C(C([H])([H])[H])(C([H])([H])[H])C([H])([H])Oc2c([H])c([H])c3c(c2[H])C([H])([H])N(C(=O)C([H])(N([H])C(=O)C([H])(N([H])C([H])([H])[H])C([H])([H])[H])C(C([H])([H])[H])(C([H])([H])[H])C([H])([H])[H])C([H])(C(=O)N([H])C2([H])c4c([H])c([H])c([H])c([H])c4C([H])([H])C([H])([H])C2([H])[H])C3([H])[H])c([H])c1N([H])C(=O)N1C([H])([H])C([H])([H])C([H])([H])C([H])(n2nc(-c3c([H])c([H])c(Oc4c([H])c([H])c(F)c([H])c4F)c([H])c3[H])c(C(=O)N([H])[H])c2N([H])[H])C1([H])[H]

>  <smiles>  (74) 
[H]c1sc(N([H])C([H])([H])C(=O)C(C([H])([H])[H])(C([H])([H])[H])C([H])([H])Oc2c([H])c([H])c3c(c2[H])C([H])([H])N(C(=O)C([H])(N([H])C(=O)C([H])(N([H])C([H])([H])[H])C([H])([H])[H])C(C([H])([H])[H])(C([H])([H])[H])C([H])([H])[H])C([H])(C(=O)N([H])C2([H])c4c([H])c([H])c([H])c([H])c4C([H])([H])C([H])([H])C2([H])[H])C3([H])[H])c([H])c1N([H])C(=O)N1C([H])([H])C([H])([H])C([H])([H])C([H])(n2nc(-c3c([H])c([H])c(Oc4c([H])c([H])c(F)c([H])c4F)c([H])c3[H])c(C(=O)N([H])[H])c2N([H])[H])C1([H])[H]

$$$$
74:0:0
     RDKit          3D

 98106  0  0  1  0  0  0  0  0999 V2000
  -29.4280  -18.3970   20.3480 C   0  0  0  0  0  3  0  0  0  0  0  0
  -30.4820  -17.3980   20.4880 C   0  0  0  0  0  0  0  0  0  0  0  0
  -29.8380  -19.6940   20.0520 C   0  0  0  0  0  0  0  0  0  0  0  0
  -31.7030  -17.9890   20.2280 C   0  0  0  0  0  0  0  0  0  0  0  0
  -31.5730  -19.6930   19.8440 S   0  0  0  0  0  0  0  0  0  0  0  0
  -32.9700  -17.4290   20.2990 N   0  0  0  0  0  0  0  0  0  0  0  0
  -33.7080  -18.0090   19.9010 H   0  0  0  0  0  0  0  0  0  0  0  0
  -33.0200  -16.5070   19.8600 H   0  0  0  0  0  0  0  0  0  0  0  0
  -29.2310  -21.9270   20.5410 C   0  0  0  0  0  3  0  0  0  0  0  0
  -29.1140  -20.8650   19.8040 N   0  0  0  0  0  0  0  0  0  0  0  0
  -28.6650  -23.3620   20.2710 C   0  0  0  0  0  0  0  0  0  0  0  0
  -28.2740  -23.6510   19.1340 O   0  0  0  0  0  0  0  0  0  0  0  0
  -27.0340  -24.4630   21.9100 C   0  0  0  0  0  1  0  0  0  0  0  0
  -29.4020  -24.1140   22.6200 C   0  0  0  0  0  1  0  0  0  0  0  0
  -28.4960  -24.4540   21.4100 C   0  0  1  0  0  0  0  0  0  0  0  0
  -28.8990  -25.9420   21.0130 C   0  0  0  0  0  2  0  0  0  0  0  0
  -28.2890  -26.6250   19.8940 O   0  0  0  0  0  0  0  0  0  0  0  0
  -24.5940  -31.9080   23.2060 C   0  0  0  0  0  0  0  0  0  0  0  0
  -27.1660  -27.4170   20.0710 C   0  0  0  0  0  0  0  0  0  0  0  0
  -23.3600  -30.5180   21.5770 C   0  0  0  0  0  3  0  0  0  0  0  0
  -24.7910  -28.9730   20.1280 C   0  0  0  0  0  0  0  0  0  0  0  0
  -25.8910  -30.8460   21.3520 C   0  0  0  0  0  2  0  0  0  0  0  0
  -25.9630  -29.4680   20.7180 C   0  0  0  0  0  0  0  0  0  0  0  0
  -27.1570  -28.6930   20.6970 C   0  0  0  0  0  3  0  0  0  0  0  0
  -25.9820  -26.9620   19.4610 C   0  0  0  0  0  3  0  0  0  0  0  0
  -24.7940  -27.7160   19.5020 C   0  0  0  0  0  3  0  0  0  0  0  0
  -23.5520  -29.8450   20.1910 C   0  0  0  0  0  2  0  0  0  0  0  0
  -24.6350  -31.1080   22.1010 N   0  0  0  0  0  0  0  0  0  0  0  0
  -23.5230  -32.1850   23.7620 O   0  0  0  0  0  0  0  0  0  0  0  0
  -22.7160  -29.4960   22.5410 C   0  0  0  0  0  0  0  0  0  0  0  0
  -21.3930  -29.3000   22.4140 N   0  0  0  0  0  0  0  0  0  0  0  0
  -23.4030  -28.8840   23.3630 O   0  0  0  0  0  0  0  0  0  0  0  0
  -20.9030  -29.8410   21.7160 H   0  0  0  0  0  0  0  0  0  0  0  0
  -18.0420  -28.0260   22.8780 C   0  0  0  0  0  0  0  0  0  0  0  0
  -20.5860  -28.3590   23.1910 C   0  0  0  0  0  3  0  0  0  0  0  0
  -20.7340  -26.9180   22.6530 C   0  0  0  0  0  2  0  0  0  0  0  0
  -19.6660  -26.5480   21.6180 C   0  0  0  0  0  2  0  0  0  0  0  0
  -18.2690  -26.6690   22.2350 C   0  0  0  0  0  2  0  0  0  0  0  0
  -19.1330  -28.8260   23.3120 C   0  0  0  0  0  0  0  0  0  0  0  0
  -18.8710  -30.0940   23.8730 C   0  0  0  0  0  3  0  0  0  0  0  0
  -17.5510  -30.5650   24.0060 C   0  0  0  0  0  3  0  0  0  0  0  0
  -16.4740  -29.7630   23.5940 C   0  0  0  0  0  3  0  0  0  0  0  0
  -16.7210  -28.4930   23.0390 C   0  0  0  0  0  3  0  0  0  0  0  0
  -25.8920  -32.5300   23.8080 C   0  0  0  0  0  3  0  0  0  0  0  0
  -26.4330  -31.7430   25.0640 C   0  0  1  0  0  0  0  0  0  0  0  0
  -25.3590  -31.4950   26.1500 C   0  0  0  0  0  1  0  0  0  0  0  0
  -27.0050  -30.3700   24.6430 C   0  0  0  0  0  1  0  0  0  0  0  0
  -27.6000  -32.5280   25.7100 C   0  0  0  0  0  1  0  0  0  0  0  0
  -25.5910  -33.9240   24.1590 N   0  0  0  0  0  0  0  0  0  0  0  0
  -25.9150  -34.9850   23.4060 C   0  0  0  0  0  0  0  0  0  0  0  0
  -26.5670  -34.8900   22.3630 O   0  0  0  0  0  0  0  0  0  0  0  0
  -25.0120  -34.0690   24.9740 H   0  0  0  0  0  0  0  0  0  0  0  0
  -24.1850  -36.7850   23.0930 C   0  0  0  0  0  1  0  0  0  0  0  0
  -25.4360  -36.3700   23.8850 C   0  0  0  0  0  3  0  0  0  0  0  0
  -27.5830  -37.2380   24.6990 C   0  0  0  0  0  1  0  0  0  0  0  0
  -26.4710  -37.4200   23.7700 N   0  0  0  0  0  0  0  0  0  0  0  0
  -26.0720  -38.3400   23.9350 H   0  0  0  0  0  0  0  0  0  0  0  0
  -30.2810  -15.9550   21.0580 C   0  0  0  0  0  3  0  0  0  0  0  0
  -30.8550  -14.7700   20.1620 C   0  0  0  0  0  0  0  0  0  0  0  0
  -30.5060  -12.6140   18.9370 C   0  0  0  0  0  2  0  0  0  0  0  0
  -29.5100  -12.8190   17.7740 C   0  0  0  0  0  2  0  0  0  0  0  0
  -28.0580  -12.6510   18.2620 C   0  0  0  0  0  2  0  0  0  0  0  0
  -27.7680  -13.4660   19.5480 C   0  0  0  0  0  3  0  0  0  0  0  0
  -28.8720  -13.2440   20.6070 C   0  0  0  0  0  2  0  0  0  0  0  0
  -30.1650  -13.5940   19.9930 N   0  0  0  0  0  0  0  0  0  0  0  0
  -31.9470  -14.9110   19.6000 O   0  0  0  0  0  0  0  0  0  0  0  0
  -25.4050  -14.0680   20.3610 C   0  0  0  0  0  0  0  0  0  0  0  0
  -24.3470  -13.2950   20.7620 C   0  0  0  0  0  0  0  0  0  0  0  0
  -24.8030  -11.9430   20.7050 C   0  0  0  0  0  0  0  0  0  0  0  0
  -26.4350  -13.1850   20.0760 N   0  0  0  0  0  0  0  0  0  0  0  0
  -26.0820  -11.9030   20.3470 N   0  0  0  0  0  0  0  0  0  0  0  0
  -24.0780  -10.6820   20.9130 C   0  0  0  0  0  0  0  0  0  0  0  0
  -24.5230   -9.7200   21.8490 C   0  0  0  0  0  3  0  0  0  0  0  0
  -23.7970   -8.5260   22.0470 C   0  0  0  0  0  3  0  0  0  0  0  0
  -22.6140   -8.2830   21.3100 C   0  0  0  0  0  0  0  0  0  0  0  0
  -22.1870   -9.2340   20.3650 C   0  0  0  0  0  3  0  0  0  0  0  0
  -22.9120  -10.4190   20.1650 C   0  0  0  0  0  3  0  0  0  0  0  0
  -21.8630   -7.1360   21.4130 O   0  0  0  0  0  0  0  0  0  0  0  0
  -21.8010   -6.4200   22.5800 C   0  0  0  0  0  0  0  0  0  0  0  0
  -21.3620   -7.0010   23.7910 C   0  0  0  0  0  3  0  0  0  0  0  0
  -21.2460   -6.2090   24.9500 C   0  0  0  0  0  3  0  0  0  0  0  0
  -21.5630   -4.8380   24.9020 C   0  0  0  0  0  0  0  0  0  0  0  0
  -22.0010   -4.2580   23.6990 C   0  0  0  0  0  3  0  0  0  0  0  0
  -22.1180   -5.0470   22.5420 C   0  0  0  0  0  0  0  0  0  0  0  0
  -22.5170   -4.4780   21.3790 F   0  0  0  0  0  0  0  0  0  0  0  0
  -21.4480   -4.0770   26.0150 F   0  0  0  0  0  0  0  0  0  0  0  0
  -22.9650  -13.7790   21.0910 C   0  0  0  0  0  0  0  0  0  0  0  0
  -22.2670  -13.0860   21.9840 N   0  0  0  0  0  0  0  0  0  0  0  0
  -22.5130  -14.8070   20.5890 O   0  0  0  0  0  0  0  0  0  0  0  0
  -22.6460  -12.2560   22.4130 H   0  0  0  0  0  0  0  0  0  0  0  0
  -21.3430  -13.3990   22.2460 H   0  0  0  0  0  0  0  0  0  0  0  0
  -25.5690  -15.4380   20.2030 N   0  0  0  0  0  0  0  0  0  0  0  0
  -24.8050  -16.0870   20.3660 H   0  0  0  0  0  0  0  0  0  0  0  0
  -26.3970  -15.8820   19.8320 H   0  0  0  0  0  0  0  0  0  0  0  0
  -30.9360  -15.9430   22.3740 N   0  0  0  0  0  4  0  0  0  0  0  0
  -31.8920  -16.2300   22.2390 H   0  0  0  0  0  0  0  0  0  0  0  0
  -30.9110  -15.0300   22.7880 H   0  0  0  0  0  0  0  0  0  0  0  0
  -30.4900  -16.6010   22.9840 H   0  0  0  0  0  0  0  0  0  0  0  0
  1  2  1  0
  2 58  1  0
  3  1  2  0
  4  6  1  0
  4  2  2  0
  5  3  1  0
  5  4  1  0
  7  6  1  0
  8  6  1  0
 10  3  1  0
 10  9  2  0
 11  9  1  0
 11 15  1  0
 12 11  2  0
 15 13  1  1
 15 14  1  0
 16 15  1  0
 17 19  1  0
 17 16  1  0
 18 29  2  0
 19 24  1  0
 20 28  1  0
 20 30  1  0
 21 27  1  0
 21 23  1  0
 22 28  1  0
 23 22  1  0
 24 23  2  0
 25 26  1  0
 25 19  2  0
 26 21  2  0
 27 20  1  0
 28 18  1  0
 30 32  2  0
 31 30  1  0
 33 31  1  0
 34 43  2  0
 34 39  1  0
 35 31  1  0
 35 39  1  0
 36 35  1  0
 37 38  1  0
 37 36  1  0
 38 34  1  0
 39 40  2  0
 40 41  1  0
 42 41  2  0
 43 42  1  0
 44 18  1  0
 44 49  1  0
 44 45  1  0
 45 48  1  1
 45 46  1  0
 47 45  1  0
 49 52  1  0
 50 54  1  0
 50 49  1  0
 51 50  2  0
 54 53  1  0
 56 54  1  0
 56 57  1  0
 56 55  1  0
 58 59  1  0
 58 95  1  0
 60 65  1  0
 61 62  1  0
 61 60  1  0
 63 62  1  0
 63 70  1  0
 63 64  1  0
 65 59  1  0
 65 64  1  0
 66 59  2  0
 67 68  2  0
 68 87  1  0
 69 68  1  0
 69 72  1  0
 70 71  1  0
 70 67  1  0
 71 69  2  0
 72 73  1  0
 73 74  2  0
 75 78  1  0
 75 74  1  0
 76 75  2  0
 77 76  1  0
 77 72  2  0
 78 79  1  0
 79 80  1  0
 80 81  2  0
 82 81  1  0
 82 86  1  0
 83 82  2  0
 84 79  2  0
 84 83  1  0
 85 84  1  0
 87 88  1  0
 88 91  1  0
 88 90  1  0
 89 87  2  0
 92 67  1  0
 92 93  1  0
 94 92  1  0
 95 97  1  0
 95 98  1  0
 96 95  1  0
M  ISO  4  16 101  17 101  58 100  59 100
M  END
>  <TORSDO>  (75) 
F 23

>  <SCORE>  (75) 
-12.979

>  <name>  (75) 
74

>  <ligand_id>  (75) 
74

>  <original_smiles>  (75) 
[H]C(=Nc1sc(N([H])[H])c(C([H])(C(=O)N2C([H])([H])C([H])([H])C([H])([H])C([H])(n3nc(-c4c([H])c([H])c(Oc5c([H])c([H])c(F)c([H])c5F)c([H])c4[H])c(C(=O)N([H])[H])c3N([H])[H])C2([H])[H])[N+]([H])([H])[H])c1[H])C(=O)C(C([H])([H])[H])(C([H])([H])[H])C([H])([H])Oc1c([H])c([H])c2c(c1[H])C([H])([H])N(C(=O)C([H])(N([H])C(=O)C([H])(N([H])C([H])([H])[H])C([H])([H])[H])C(C([H])([H])[H])(C([H])([H])[H])C([H])([H])[H])C([H])(C(=O)N([H])C1([H])c3c([H])c([H])c([H])c([H])c3C([H])([H])C([H])([H])C1([H])[H])C2([H])[H]

>  <smiles>  (75) 
[H]C(=Nc1sc(N([H])[H])c(C([H])(C(=O)N2C([H])([H])C([H])([H])C([H])([H])C([H])(n3nc(-c4c([H])c([H])c(Oc5c([H])c([H])c(F)c([H])c5F)c([H])c4[H])c(C(=O)N([H])[H])c3N([H])[H])C2([H])[H])[N+]([H])([H])[H])c1[H])C(=O)C(C([H])([H])[H])(C([H])([H])[H])C([H])([H])Oc1c([H])c([H])c2c(c1[H])C([H])([H])N(C(=O)C([H])(N([H])C(=O)C([H])(N([H])C([H])([H])[H])C([H])([H])[H])C(C([H])([H])[H])(C([H])([H])[H])C([H])([H])[H])C([H])(C(=O)N([H])C1([H])c3c([H])c([H])c([H])c([H])c3C([H])([H])C([H])([H])C1([H])[H])C2([H])[H]

$$$$
76:0:0
     RDKit          3D

 98107  0  0  1  0  0  0  0  0999 V2000
  -29.6840  -23.4630   21.9770 C   0  0  0  0  0  2  0  0  0  0  0  0
  -29.7310  -21.9820   21.5330 C   0  0  0  0  0  2  0  0  0  0  0  0
  -29.1780  -24.2680   20.7560 C   0  0  2  0  0  0  0  0  0  0  0  0
  -28.2380  -23.1830   20.1150 C   0  0  2  0  0  0  0  0  0  0  0  0
  -27.8940  -23.5270   18.6500 C   0  0  0  0  0  1  0  0  0  0  0  0
  -26.9030  -23.0320   20.9040 C   0  0  0  0  0  1  0  0  0  0  0  0
  -29.0670  -21.9210   20.2100 N   0  0  2  0  0  4  0  0  0  0  0  0
  -29.8170  -22.0800   19.5510 H   0  0  0  0  0  0  0  0  0  0  0  0
  -31.3270  -25.2930   20.0860 C   0  0  0  0  0  1  0  0  0  0  0  0
  -30.2440  -24.4110   19.7990 O   0  0  0  0  0  0  0  0  0  0  0  0
  -28.4370  -20.6060   19.8140 C   0  0  0  0  0  2  0  0  0  0  0  0
  -29.1040  -18.1150   20.4190 C   0  0  0  0  0  3  0  0  0  0  0  0
  -29.3360  -19.3540   19.6970 C   0  0  0  0  0  0  0  0  0  0  0  0
  -30.3590  -19.1940   18.7850 C   0  0  0  0  0  0  0  0  0  0  0  0
  -29.9340  -17.0440   20.1080 C   0  0  0  0  0  0  0  0  0  0  0  0
  -31.0980  -17.6050   18.9200 S   0  0  0  0  0  0  0  0  0  0  0  0
  -30.6440  -14.6650   20.3210 C   0  0  0  0  0  0  0  0  0  0  0  0
  -30.4430  -12.4400   19.2820 C   0  0  0  0  0  2  0  0  0  0  0  0
  -29.5050  -12.5800   18.0650 C   0  0  0  0  0  2  0  0  0  0  0  0
  -28.0260  -12.4370   18.4770 C   0  0  0  0  0  2  0  0  0  0  0  0
  -27.6620  -13.2780   19.7310 C   0  0  0  0  0  3  0  0  0  0  0  0
  -28.7140  -13.1160   20.8480 C   0  0  0  0  0  2  0  0  0  0  0  0
  -30.0260  -13.4470   20.2760 N   0  0  0  0  0  0  0  0  0  0  0  0
  -31.8240  -14.7960   19.9930 O   0  0  0  0  0  0  0  0  0  0  0  0
  -29.8350  -15.7420   20.5670 N   0  0  0  0  0  0  0  0  0  0  0  0
  -28.9410  -15.4980   20.9640 H   0  0  0  0  0  0  0  0  0  0  0  0
  -25.2540  -13.8680   20.4120 C   0  0  0  0  0  0  0  0  0  0  0  0
  -24.1900  -13.0890   20.7820 C   0  0  0  0  0  0  0  0  0  0  0  0
  -24.6640  -11.7420   20.7690 C   0  0  0  0  0  0  0  0  0  0  0  0
  -26.3100  -12.9930   20.2040 N   0  0  0  0  0  0  0  0  0  0  0  0
  -25.9580  -11.7110   20.4780 N   0  0  0  0  0  0  0  0  0  0  0  0
  -23.9430  -10.4750   20.9650 C   0  0  0  0  0  0  0  0  0  0  0  0
  -24.3650   -9.5270   21.9220 C   0  0  0  0  0  3  0  0  0  0  0  0
  -23.6490   -8.3230   22.1050 C   0  0  0  0  0  3  0  0  0  0  0  0
  -22.4930   -8.0650   21.3320 C   0  0  0  0  0  0  0  0  0  0  0  0
  -22.0890   -9.0000   20.3630 C   0  0  0  0  0  3  0  0  0  0  0  0
  -22.8070  -10.1940   20.1780 C   0  0  0  0  0  3  0  0  0  0  0  0
  -21.7450   -6.9150   21.4250 O   0  0  0  0  0  0  0  0  0  0  0  0
  -21.6770   -6.1910   22.5880 C   0  0  0  0  0  0  0  0  0  0  0  0
  -21.2000   -6.7600   23.7900 C   0  0  0  0  0  3  0  0  0  0  0  0
  -21.0800   -5.9630   24.9460 C   0  0  0  0  0  3  0  0  0  0  0  0
  -21.4260   -4.5990   24.9010 C   0  0  0  0  0  0  0  0  0  0  0  0
  -21.8970   -4.0300   23.7030 C   0  0  0  0  0  3  0  0  0  0  0  0
  -22.0160   -4.8230   22.5480 C   0  0  0  0  0  0  0  0  0  0  0  0
  -22.4500   -4.2650   21.3930 F   0  0  0  0  0  0  0  0  0  0  0  0
  -21.2990   -3.8320   26.0090 F   0  0  0  0  0  0  0  0  0  0  0  0
  -22.7850  -13.5560   21.0330 C   0  0  0  0  0  0  0  0  0  0  0  0
  -22.0450  -12.8610   21.8920 N   0  0  0  0  0  0  0  0  0  0  0  0
  -22.3480  -14.5760   20.5000 O   0  0  0  0  0  0  0  0  0  0  0  0
  -22.4090  -12.0390   22.3510 H   0  0  0  0  0  0  0  0  0  0  0  0
  -21.1020  -13.1610   22.0970 H   0  0  0  0  0  0  0  0  0  0  0  0
  -25.4100  -15.2370   20.2180 N   0  0  0  0  0  0  0  0  0  0  0  0
  -24.6350  -15.8840   20.3130 H   0  0  0  0  0  0  0  0  0  0  0  0
  -26.2530  -15.6800   19.8690 H   0  0  0  0  0  0  0  0  0  0  0  0
  -31.9200  -21.1110   18.0800 C   0  0  0  0  0  1  0  0  0  0  0  0
  -30.8100  -20.1230   17.6910 C   0  0  0  0  0  2  0  0  0  0  0  0
  -28.5660  -25.6800   21.1560 C   0  0  0  0  0  2  0  0  0  0  0  0
  -28.4110  -26.6660   20.1080 O   0  0  0  0  0  0  0  0  0  0  0  0
  -24.5980  -31.8920   23.2370 C   0  0  0  0  0  0  0  0  0  0  0  0
  -27.2660  -27.4380   20.1640 C   0  0  0  0  0  0  0  0  0  0  0  0
  -23.4100  -30.4900   21.5850 C   0  0  0  0  0  3  0  0  0  0  0  0
  -24.8770  -28.9590   20.1690 C   0  0  0  0  0  0  0  0  0  0  0  0
  -25.9390  -30.8510   21.4020 C   0  0  0  0  0  2  0  0  0  0  0  0
  -26.0340  -29.4780   20.7650 C   0  0  0  0  0  0  0  0  0  0  0  0
  -27.2380  -28.7270   20.7560 C   0  0  0  0  0  3  0  0  0  0  0  0
  -26.0890  -26.9420   19.5670 C   0  0  0  0  0  3  0  0  0  0  0  0
  -24.9010  -27.6920   19.5660 C   0  0  0  0  0  3  0  0  0  0  0  0
  -23.6310  -29.8140   20.2070 C   0  0  0  0  0  2  0  0  0  0  0  0
  -24.6680  -31.0950   22.1330 N   0  0  0  0  0  0  0  0  0  0  0  0
  -23.5130  -32.1550   23.7720 O   0  0  0  0  0  0  0  0  0  0  0  0
  -22.7550  -29.4640   22.5410 C   0  0  0  0  0  0  0  0  0  0  0  0
  -21.4310  -29.2800   22.4090 N   0  0  0  0  0  0  0  0  0  0  0  0
  -23.4380  -28.8360   23.3540 O   0  0  0  0  0  0  0  0  0  0  0  0
  -20.9440  -29.8390   21.7240 H   0  0  0  0  0  0  0  0  0  0  0  0
  -18.0520  -28.0900   22.9090 C   0  0  0  0  0  0  0  0  0  0  0  0
  -20.6120  -28.3380   23.1730 C   0  0  0  0  0  3  0  0  0  0  0  0
  -20.7080  -26.9120   22.5830 C   0  0  0  0  0  2  0  0  0  0  0  0
  -19.6010  -26.6030   21.5690 C   0  0  0  0  0  2  0  0  0  0  0  0
  -18.2230  -26.7460   22.2200 C   0  0  0  0  0  2  0  0  0  0  0  0
  -19.1750  -28.8440   23.3420 C   0  0  0  0  0  0  0  0  0  0  0  0
  -18.9610  -30.1010   23.9480 C   0  0  0  0  0  3  0  0  0  0  0  0
  -17.6580  -30.6040   24.1230 C   0  0  0  0  0  3  0  0  0  0  0  0
  -16.5500  -29.8480   23.7050 C   0  0  0  0  0  3  0  0  0  0  0  0
  -16.7490  -28.5920   23.1030 C   0  0  0  0  0  3  0  0  0  0  0  0
  -25.8740  -32.5280   23.8700 C   0  0  0  0  0  3  0  0  0  0  0  0
  -25.5600  -33.9270   24.1870 N   0  0  0  0  0  0  0  0  0  0  0  0
  -25.9050  -34.9760   23.4270 C   0  0  0  0  0  0  0  0  0  0  0  0
  -26.5890  -34.8650   22.4060 O   0  0  0  0  0  0  0  0  0  0  0  0
  -24.9540  -34.0850   24.9790 H   0  0  0  0  0  0  0  0  0  0  0  0
  -24.1890  -36.7730   23.0300 C   0  0  0  0  0  1  0  0  0  0  0  0
  -25.4120  -36.3660   23.8690 C   0  0  0  0  0  3  0  0  0  0  0  0
  -27.5310  -37.2510   24.7420 C   0  0  0  0  0  1  0  0  0  0  0  0
  -26.4500  -37.4160   23.7720 N   0  0  0  0  0  0  0  0  0  0  0  0
  -26.0450  -38.3390   23.9010 H   0  0  0  0  0  0  0  0  0  0  0  0
  -26.3790  -31.7640   25.1550 C   0  0  1  0  0  0  0  0  0  0  0  0
  -25.2790  -31.5300   26.2170 C   0  0  0  0  0  1  0  0  0  0  0  0
  -26.9670  -30.3870   24.7700 C   0  0  0  0  0  1  0  0  0  0  0  0
  -27.5230  -32.5640   25.8220 C   0  0  0  0  0  1  0  0  0  0  0  0
  2  1  1  0
  3 57  1  1
  3  1  1  0
  4  7  1  0
  4  3  1  0
  4  6  1  1
  5  4  1  0
  7  2  1  0
  7  8  1  6
 10  9  1  0
 10  3  1  0
 11  7  1  0
 13 11  1  0
 13 12  1  0
 14 16  1  0
 14 13  2  0
 15 12  2  0
 15 25  1  0
 16 15  1  0
 17 25  1  0
 18 23  1  0
 19 20  1  0
 19 18  1  0
 21 20  1  0
 21 30  1  0
 21 22  1  0
 23 17  1  0
 23 22  1  0
 24 17  2  0
 25 26  1  0
 27 28  2  0
 28 47  1  0
 29 28  1  0
 29 32  1  0
 30 27  1  0
 30 31  1  0
 31 29  2  0
 32 33  1  0
 33 34  2  0
 35 38  1  0
 35 34  1  0
 36 35  2  0
 37 36  1  0
 37 32  2  0
 38 39  1  0
 39 40  1  0
 40 41  2  0
 42 41  1  0
 42 46  1  0
 43 42  2  0
 44 39  2  0
 44 43  1  0
 45 44  1  0
 47 48  1  0
 48 51  1  0
 48 50  1  0
 49 47  2  0
 52 53  1  0
 52 27  1  0
 54 52  1  0
 56 55  1  0
 56 14  1  0
 58 60  1  0
 58 57  1  0
 59 70  2  0
 60 65  1  0
 61 69  1  0
 61 71  1  0
 62 68  1  0
 62 64  1  0
 63 69  1  0
 64 63  1  0
 65 64  2  0
 66 60  2  0
 67 66  1  0
 67 62  2  0
 68 61  1  0
 69 59  1  0
 71 73  2  0
 72 71  1  0
 74 72  1  0
 75 84  2  0
 75 80  1  0
 76 72  1  0
 76 80  1  0
 77 76  1  0
 78 79  1  0
 78 77  1  0
 79 75  1  0
 80 81  2  0
 81 82  1  0
 83 82  2  0
 84 83  1  0
 85 59  1  0
 85 86  1  0
 85 95  1  0
 86 89  1  0
 87 91  1  0
 87 86  1  0
 88 87  2  0
 91 90  1  0
 93 91  1  0
 93 94  1  0
 93 92  1  0
 95 98  1  1
 95 96  1  0
 97 95  1  0
M  ISO  4  17 100  25 100  57 101  58 101
M  END
>  <TORSDO>  (76) 
F 21

>  <SCORE>  (76) 
-13.911

>  <name>  (76) 
76

>  <ligand_id>  (76) 
76

>  <original_smiles>  (76) 
[H]c1c([H])c([H])c2c(c1[H])C([H])([H])C([H])([H])C([H])([H])C2([H])N([H])C(=O)C1([H])N(C(=O)C([H])(N([H])C(=O)C([H])(N([H])C([H])([H])[H])C([H])([H])[H])C(C([H])([H])[H])(C([H])([H])[H])C([H])([H])[H])C([H])([H])c2c([H])c(OC([H])([H])C3(OC([H])([H])[H])C([H])([H])C([H])([H])[N+]([H])(C([H])([H])c4c(C([H])([H])C([H])([H])[H])sc(N([H])C(=O)N5C([H])([H])C([H])([H])C([H])([H])C([H])(n6nc(-c7c([H])c([H])c(Oc8c([H])c([H])c(F)c([H])c8F)c([H])c7[H])c(C(=O)N([H])[H])c6N([H])[H])C5([H])[H])c4[H])C3(C([H])([H])[H])C([H])([H])[H])c([H])c([H])c2C1([H])[H]

>  <smiles>  (76) 
[H]c1c([H])c([H])c2c(c1[H])C([H])([H])C([H])([H])C([H])([H])C2([H])N([H])C(=O)C1([H])N(C(=O)C([H])(N([H])C(=O)C([H])(N([H])C([H])([H])[H])C([H])([H])[H])C(C([H])([H])[H])(C([H])([H])[H])C([H])([H])[H])C([H])([H])c2c([H])c(OC([H])([H])C3(OC([H])([H])[H])C([H])([H])C([H])([H])[N+]([H])(C([H])([H])c4c(C([H])([H])C([H])([H])[H])sc(N([H])C(=O)N5C([H])([H])C([H])([H])C([H])([H])C([H])(n6nc(-c7c([H])c([H])c(Oc8c([H])c([H])c(F)c([H])c8F)c([H])c7[H])c(C(=O)N([H])[H])c6N([H])[H])C5([H])[H])c4[H])C3(C([H])([H])[H])C([H])([H])[H])c([H])c([H])c2C1([H])[H]

$$$$
77:0:0
     RDKit          3D

 91100  0  0  1  0  0  0  0  0999 V2000
  -28.8450  -22.7110   20.4480 C   0  0  0  0  0  0  0  0  0  0  0  0
  -29.1380  -21.6590   19.6370 N   0  0  0  0  0  0  0  0  0  0  0  0
  -28.6490  -22.5850   21.6590 O   0  0  0  0  0  0  0  0  0  0  0  0
  -29.2480  -21.9160   18.6660 H   0  0  0  0  0  0  0  0  0  0  0  0
  -30.7590  -14.6160   20.0150 C   0  0  0  0  0  0  0  0  0  0  0  0
  -30.4240  -12.4250   18.9290 C   0  0  0  0  0  2  0  0  0  0  0  0
  -29.4140  -12.6130   17.7780 C   0  0  0  0  0  2  0  0  0  0  0  0
  -27.9680  -12.4670   18.2930 C   0  0  0  0  0  2  0  0  0  0  0  0
  -27.6960  -13.3040   19.5720 C   0  0  0  0  0  3  0  0  0  0  0  0
  -28.8190  -13.1210   20.6180 C   0  0  0  0  0  2  0  0  0  0  0  0
  -30.0940  -13.4260   19.9580 N   0  0  0  0  0  0  0  0  0  0  0  0
  -31.9260  -14.7270   19.6200 O   0  0  0  0  0  0  0  0  0  0  0  0
  -29.4580  -19.3380   18.9240 C   0  0  0  0  0  3  0  0  0  0  0  0
  -29.6500  -18.0170   19.4490 C   0  0  0  0  0  0  0  0  0  0  0  0
  -29.6660  -17.9660   20.7830 C   0  0  0  0  0  0  0  0  0  0  0  0
  -29.3170  -20.3170   19.9000 C   0  0  0  0  0  0  0  0  0  0  0  0
  -29.8530  -16.6330   18.9060 C   0  0  0  0  0  3  0  0  0  0  0  0
  -29.8780  -16.5820   21.3100 C   0  0  0  0  0  3  0  0  0  0  0  0
  -29.9660  -15.7260   20.0930 N   0  0  0  0  0  0  0  0  0  0  0  0
  -29.4300  -19.5460   21.5030 S   0  0  0  0  0  0  0  0  0  0  0  0
  -25.3590  -13.9000   20.4590 C   0  0  0  0  0  0  0  0  0  0  0  0
  -24.3070  -13.1240   20.8650 C   0  0  0  0  0  0  0  0  0  0  0  0
  -24.7530  -11.7710   20.7600 C   0  0  0  0  0  0  0  0  0  0  0  0
  -26.3790  -13.0200   20.1330 N   0  0  0  0  0  0  0  0  0  0  0  0
  -26.0220  -11.7310   20.3740 N   0  0  0  0  0  0  0  0  0  0  0  0
  -24.0270  -10.5080   20.9510 C   0  0  0  0  0  0  0  0  0  0  0  0
  -24.4610   -9.5400   21.8830 C   0  0  0  0  0  3  0  0  0  0  0  0
  -23.7350   -8.3420   22.0620 C   0  0  0  0  0  3  0  0  0  0  0  0
  -22.5610   -8.1050   21.3080 C   0  0  0  0  0  0  0  0  0  0  0  0
  -22.1460   -9.0630   20.3650 C   0  0  0  0  0  3  0  0  0  0  0  0
  -22.8730  -10.2510   20.1850 C   0  0  0  0  0  3  0  0  0  0  0  0
  -21.8070   -6.9600   21.3950 O   0  0  0  0  0  0  0  0  0  0  0  0
  -21.6960   -6.2600   22.5700 C   0  0  0  0  0  0  0  0  0  0  0  0
  -21.1810   -6.8510   23.7450 C   0  0  0  0  0  3  0  0  0  0  0  0
  -21.0200   -6.0750   24.9100 C   0  0  0  0  0  3  0  0  0  0  0  0
  -21.3620   -4.7100   24.9010 C   0  0  0  0  0  0  0  0  0  0  0  0
  -21.8710   -4.1190   23.7310 C   0  0  0  0  0  3  0  0  0  0  0  0
  -22.0340   -4.8910   22.5690 C   0  0  0  0  0  0  0  0  0  0  0  0
  -22.5030   -4.3120   21.4380 F   0  0  0  0  0  0  0  0  0  0  0  0
  -21.2010   -3.9630   26.0180 F   0  0  0  0  0  0  0  0  0  0  0  0
  -22.9350  -13.6030   21.2380 C   0  0  0  0  0  0  0  0  0  0  0  0
  -22.2540  -12.8840   22.1240 N   0  0  0  0  0  0  0  0  0  0  0  0
  -22.4750  -14.6490   20.7810 O   0  0  0  0  0  0  0  0  0  0  0  0
  -22.6390  -12.0370   22.5160 H   0  0  0  0  0  0  0  0  0  0  0  0
  -21.3360  -13.1870   22.4170 H   0  0  0  0  0  0  0  0  0  0  0  0
  -25.5290  -15.2750   20.3230 N   0  0  0  0  0  0  0  0  0  0  0  0
  -24.7840  -15.9350   20.5170 H   0  0  0  0  0  0  0  0  0  0  0  0
  -26.3810  -15.7210   20.0050 H   0  0  0  0  0  0  0  0  0  0  0  0
  -28.7570  -24.1290   19.7920 C   0  0  0  0  0  3  0  0  0  0  0  0
  -28.3270  -25.3130   20.7290 C   0  0  0  0  0  3  0  0  0  0  0  0
  -28.4420  -26.6550   20.1700 O   0  0  0  0  0  0  0  0  0  0  0  0
  -24.6030  -31.8900   23.2010 C   0  0  0  0  0  0  0  0  0  0  0  0
  -27.2880  -27.4230   20.1590 C   0  0  0  0  0  0  0  0  0  0  0  0
  -23.4160  -30.4700   21.5610 C   0  0  0  0  0  3  0  0  0  0  0  0
  -24.8890  -28.9380   20.1450 C   0  0  0  0  0  0  0  0  0  0  0  0
  -25.9420  -30.8450   21.3690 C   0  0  0  0  0  2  0  0  0  0  0  0
  -26.0440  -29.4690   20.7330 C   0  0  0  0  0  0  0  0  0  0  0  0
  -27.2510  -28.7230   20.7280 C   0  0  0  0  0  3  0  0  0  0  0  0
  -26.1170  -26.9160   19.5600 C   0  0  0  0  0  3  0  0  0  0  0  0
  -24.9230  -27.6630   19.5520 C   0  0  0  0  0  3  0  0  0  0  0  0
  -23.6380  -29.7880   20.1850 C   0  0  0  0  0  2  0  0  0  0  0  0
  -24.6720  -31.0840   22.1030 N   0  0  0  0  0  0  0  0  0  0  0  0
  -23.5170  -32.1550   23.7360 O   0  0  0  0  0  0  0  0  0  0  0  0
  -22.7690  -29.4480   22.5250 C   0  0  0  0  0  0  0  0  0  0  0  0
  -21.4500  -29.2440   22.3880 N   0  0  0  0  0  0  0  0  0  0  0  0
  -23.4550  -28.8400   23.3520 O   0  0  0  0  0  0  0  0  0  0  0  0
  -20.9560  -29.7880   21.6930 H   0  0  0  0  0  0  0  0  0  0  0  0
  -18.0920  -27.9900   22.8570 C   0  0  0  0  0  0  0  0  0  0  0  0
  -20.6410  -28.2990   23.1580 C   0  0  0  0  0  3  0  0  0  0  0  0
  -20.7780  -26.8640   22.5970 C   0  0  0  0  0  2  0  0  0  0  0  0
  -19.6950  -26.5100   21.5730 C   0  0  0  0  0  2  0  0  0  0  0  0
  -18.3030  -26.6360   22.1980 C   0  0  0  0  0  2  0  0  0  0  0  0
  -19.1900  -28.7770   23.2940 C   0  0  0  0  0  0  0  0  0  0  0  0
  -18.9400  -30.0430   23.8680 C   0  0  0  0  0  3  0  0  0  0  0  0
  -17.6240  -30.5210   24.0110 C   0  0  0  0  0  3  0  0  0  0  0  0
  -16.5410  -29.7310   23.5910 C   0  0  0  0  0  3  0  0  0  0  0  0
  -16.7750  -28.4670   23.0210 C   0  0  0  0  0  3  0  0  0  0  0  0
  -25.8810  -32.5370   23.8210 C   0  0  0  0  0  3  0  0  0  0  0  0
  -25.5540  -33.9300   24.1570 N   0  0  0  0  0  0  0  0  0  0  0  0
  -25.8810  -34.9900   23.4050 C   0  0  0  0  0  0  0  0  0  0  0  0
  -26.5600  -34.8980   22.3780 O   0  0  0  0  0  0  0  0  0  0  0  0
  -24.9520  -34.0740   24.9540 H   0  0  0  0  0  0  0  0  0  0  0  0
  -24.1450  -36.7720   23.0340 C   0  0  0  0  0  1  0  0  0  0  0  0
  -25.3750  -36.3710   23.8650 C   0  0  0  0  0  3  0  0  0  0  0  0
  -27.4850  -37.2680   24.7430 C   0  0  0  0  0  1  0  0  0  0  0  0
  -26.4010  -37.4320   23.7780 N   0  0  0  0  0  0  0  0  0  0  0  0
  -25.9840  -38.3480   23.9220 H   0  0  0  0  0  0  0  0  0  0  0  0
  -26.4110  -31.7690   25.0940 C   0  0  1  0  0  0  0  0  0  0  0  0
  -25.3240  -31.5080   26.1620 C   0  0  0  0  0  1  0  0  0  0  0  0
  -27.0160  -30.4030   24.6930 C   0  0  0  0  0  1  0  0  0  0  0  0
  -27.5510  -32.5770   25.7580 C   0  0  0  0  0  1  0  0  0  0  0  0
  1  3  2  0
  2 16  1  0
  2  1  1  0
  4  2  1  0
  5 19  1  0
  6 11  1  0
  7  8  1  0
  7  6  1  0
  9  8  1  0
  9 24  1  0
  9 10  1  0
 11  5  1  0
 11 10  1  0
 12  5  2  0
 13 14  1  0
 13 16  2  0
 14 15  1  0
 15 18  2  0
 15 20  1  0
 16 20  1  0
 17 14  2  0
 17 19  1  0
 19 18  1  0
 21 22  2  0
 22 41  1  0
 23 22  1  0
 23 26  1  0
 24 25  1  0
 24 21  1  0
 25 23  2  0
 26 27  1  0
 27 28  2  0
 29 32  1  0
 29 28  1  0
 30 29  2  0
 31 30  1  0
 31 26  2  0
 32 33  1  0
 33 34  1  0
 34 35  2  0
 36 35  1  0
 36 40  1  0
 37 36  2  0
 38 33  2  0
 38 37  1  0
 39 38  1  0
 41 42  1  0
 42 45  1  0
 42 44  1  0
 43 41  2  0
 46 21  1  0
 46 47  1  0
 48 46  1  0
 49  1  1  0
 49 50  2  0
 51 50  1  0
 52 63  2  0
 53 51  1  0
 53 58  1  0
 54 62  1  0
 54 64  1  0
 55 61  1  0
 55 57  1  0
 56 62  1  0
 57 56  1  0
 58 57  2  0
 59 53  2  0
 60 59  1  0
 60 55  2  0
 61 54  1  0
 62 52  1  0
 64 66  2  0
 65 64  1  0
 67 65  1  0
 68 77  2  0
 68 73  1  0
 69 65  1  0
 69 73  1  0
 70 69  1  0
 71 72  1  0
 71 70  1  0
 72 68  1  0
 73 74  2  0
 74 75  1  0
 76 75  2  0
 77 76  1  0
 78 52  1  0
 78 79  1  0
 78 88  1  0
 79 82  1  0
 80 84  1  0
 80 79  1  0
 81 80  2  0
 84 83  1  0
 86 84  1  0
 86 87  1  0
 86 85  1  0
 88 91  1  1
 88 89  1  0
 90 88  1  0
M  ISO  4   5 100  19 100  50 101  51 101
M  END
>  <TORSDO>  (77) 
F 18

>  <SCORE>  (77) 
-13.996

>  <name>  (77) 
77

>  <ligand_id>  (77) 
77

>  <original_smiles>  (77) 
[H]c1c([H])c([H])c2c(c1[H])C([H])([H])C([H])([H])C([H])([H])C2([H])N([H])C(=O)C1([H])N(C(=O)C([H])(N([H])C(=O)C([H])(N([H])C([H])([H])[H])C([H])([H])[H])C(C([H])([H])[H])(C([H])([H])[H])C([H])([H])[H])C([H])([H])c2c([H])c(OC([H])([H])C([H])([H])C(=O)N([H])c3sc4c(c3[H])C([H])([H])N(C(=O)N3C([H])([H])C([H])([H])C([H])([H])C([H])(n5nc(-c6c([H])c([H])c(Oc7c([H])c([H])c(F)c([H])c7F)c([H])c6[H])c(C(=O)N([H])[H])c5N([H])[H])C3([H])[H])C4([H])[H])c([H])c([H])c2C1([H])[H]

>  <smiles>  (77) 
[H]c1c([H])c([H])c2c(c1[H])C([H])([H])C([H])([H])C([H])([H])C2([H])N([H])C(=O)C1([H])N(C(=O)C([H])(N([H])C(=O)C([H])(N([H])C([H])([H])[H])C([H])([H])[H])C(C([H])([H])[H])(C([H])([H])[H])C([H])([H])[H])C([H])([H])c2c([H])c(OC([H])([H])C([H])([H])C(=O)N([H])c3sc4c(c3[H])C([H])([H])N(C(=O)N3C([H])([H])C([H])([H])C([H])([H])C([H])(n5nc(-c6c([H])c([H])c(Oc7c([H])c([H])c(F)c([H])c7F)c([H])c6[H])c(C(=O)N([H])[H])c5N([H])[H])C3([H])[H])C4([H])[H])c([H])c([H])c2C1([H])[H]

$$$$
78:0:0
     RDKit          3D

 97105  0  0  1  0  0  0  0  0999 V2000
  -29.9530  -20.4740   21.2870 N   0  0  0  0  0  0  0  0  0  0  0  0
  -28.9860  -20.2350   21.4840 H   0  0  0  0  0  0  0  0  0  0  0  0
  -32.4760  -17.2240   20.2880 C   0  0  0  0  0  3  0  0  0  0  0  0
  -32.1700  -19.6100   20.6370 C   0  0  0  0  0  3  0  0  0  0  0  0
  -30.2900  -18.0930   20.9420 C   0  0  0  0  0  3  0  0  0  0  0  0
  -33.0140  -18.5280   20.3080 C   0  0  0  0  0  0  0  0  0  0  0  0
  -31.1110  -17.0030   20.5790 C   0  0  0  0  0  0  0  0  0  0  0  0
  -30.8080  -19.4070   20.9620 C   0  0  0  0  0  0  0  0  0  0  0  0
  -31.0810  -14.6860   19.7860 C   0  0  0  0  0  0  0  0  0  0  0  0
  -30.7650  -12.3890   18.9520 C   0  0  0  0  0  2  0  0  0  0  0  0
  -29.7680  -12.3670   17.7790 C   0  0  0  0  0  2  0  0  0  0  0  0
  -28.3230  -12.2490   18.2960 C   0  0  0  0  0  2  0  0  0  0  0  0
  -28.0030  -13.2740   19.4180 C   0  0  0  0  0  3  0  0  0  0  0  0
  -29.1080  -13.2770   20.4980 C   0  0  0  0  0  2  0  0  0  0  0  0
  -30.4030  -13.5100   19.8340 N   0  0  0  0  0  0  0  0  0  0  0  0
  -32.0940  -14.8440   19.0980 O   0  0  0  0  0  0  0  0  0  0  0  0
  -30.5630  -15.6940   20.5070 N   0  0  0  0  0  0  0  0  0  0  0  0
  -29.6650  -15.5290   20.9370 H   0  0  0  0  0  0  0  0  0  0  0  0
  -25.6930  -13.9450   20.3360 C   0  0  0  0  0  0  0  0  0  0  0  0
  -24.6280  -13.1990   20.7670 C   0  0  0  0  0  0  0  0  0  0  0  0
  -25.0340  -11.8340   20.6580 C   0  0  0  0  0  0  0  0  0  0  0  0
  -26.6830  -13.0350   19.9960 N   0  0  0  0  0  0  0  0  0  0  0  0
  -26.2930  -11.7580   20.2440 N   0  0  0  0  0  0  0  0  0  0  0  0
  -24.2770  -10.5930   20.8680 C   0  0  0  0  0  0  0  0  0  0  0  0
  -24.6900   -9.6270   21.8140 C   0  0  0  0  0  3  0  0  0  0  0  0
  -23.9360   -8.4500   22.0110 C   0  0  0  0  0  3  0  0  0  0  0  0
  -22.7550   -8.2300   21.2630 C   0  0  0  0  0  0  0  0  0  0  0  0
  -22.3620   -9.1830   20.3070 C   0  0  0  0  0  3  0  0  0  0  0  0
  -23.1160  -10.3510   20.1080 C   0  0  0  0  0  3  0  0  0  0  0  0
  -21.9740   -7.1060   21.3700 O   0  0  0  0  0  0  0  0  0  0  0  0
  -21.8170   -6.4480   22.5630 C   0  0  0  0  0  0  0  0  0  0  0  0
  -21.3110   -7.0970   23.7110 C   0  0  0  0  0  3  0  0  0  0  0  0
  -21.0990   -6.3660   24.8980 C   0  0  0  0  0  3  0  0  0  0  0  0
  -21.3860   -4.9880   24.9360 C   0  0  0  0  0  0  0  0  0  0  0  0
  -21.8840   -4.3400   23.7930 C   0  0  0  0  0  3  0  0  0  0  0  0
  -22.0980   -5.0680   22.6100 C   0  0  0  0  0  0  0  0  0  0  0  0
  -22.5580   -4.4330   21.5040 F   0  0  0  0  0  0  0  0  0  0  0  0
  -21.1770   -4.2850   26.0730 F   0  0  0  0  0  0  0  0  0  0  0  0
  -23.2790  -13.7170   21.1710 C   0  0  0  0  0  0  0  0  0  0  0  0
  -22.6070  -13.0300   22.0900 N   0  0  0  0  0  0  0  0  0  0  0  0
  -22.8300  -14.7650   20.7080 O   0  0  0  0  0  0  0  0  0  0  0  0
  -22.9830  -12.1810   22.4850 H   0  0  0  0  0  0  0  0  0  0  0  0
  -21.7040  -13.3580   22.4010 H   0  0  0  0  0  0  0  0  0  0  0  0
  -25.8950  -15.3140   20.1860 N   0  0  0  0  0  0  0  0  0  0  0  0
  -25.1680  -15.9940   20.3750 H   0  0  0  0  0  0  0  0  0  0  0  0
  -26.7380  -15.7300   19.8070 H   0  0  0  0  0  0  0  0  0  0  0  0
  -34.4330  -18.7890   19.9790 C   0  0  0  0  0  3  0  0  0  0  0  0
  -35.2990  -17.9030   19.7120 N   0  0  0  0  0  0  0  0  0  0  0  0
  -34.9050  -16.9690   19.7570 H   0  0  0  0  0  0  0  0  0  0  0  0
  -30.5010  -21.5840   22.0620 C   0  0  0  0  0  2  0  0  0  0  0  0
  -28.2000  -22.6800   22.3810 C   0  0  0  0  0  1  0  0  0  0  0  0
  -29.6680  -22.8770   21.9590 C   0  0  0  0  0  3  0  0  0  0  0  0
  -29.7960  -23.5610   20.5740 C   0  0  0  0  0  2  0  0  0  0  0  0
  -29.6150  -25.0850   20.6140 C   0  0  0  0  0  0  0  0  0  0  0  0
  -30.3140  -25.7830   21.3570 O   0  0  0  0  0  0  0  0  0  0  0  0
  -28.5510  -25.7020   19.6970 C   0  0  0  0  0  2  0  0  0  0  0  0
  -28.5690  -27.1320   19.8090 O   0  0  0  0  0  0  0  0  0  0  0  0
  -24.6710  -31.9360   23.2840 C   0  0  0  0  0  0  0  0  0  0  0  0
  -27.3570  -27.7800   19.8740 C   0  0  0  0  0  0  0  0  0  0  0  0
  -23.4530  -30.5780   21.6120 C   0  0  0  0  0  3  0  0  0  0  0  0
  -24.9050  -29.1800   20.0520 C   0  0  0  0  0  0  0  0  0  0  0  0
  -25.9520  -31.0480   21.3410 C   0  0  0  0  0  2  0  0  0  0  0  0
  -26.0630  -29.7180   20.6270 C   0  0  0  0  0  0  0  0  0  0  0  0
  -27.2900  -29.0260   20.5350 C   0  0  0  0  0  3  0  0  0  0  0  0
  -26.1800  -27.2550   19.2870 C   0  0  0  0  0  3  0  0  0  0  0  0
  -24.9590  -27.9470   19.3800 C   0  0  0  0  0  3  0  0  0  0  0  0
  -23.6300  -29.9810   20.1910 C   0  0  0  0  0  2  0  0  0  0  0  0
  -24.7110  -31.2010   22.1360 N   0  0  0  0  0  0  0  0  0  0  0  0
  -23.6040  -32.1360   23.8770 O   0  0  0  0  0  0  0  0  0  0  0  0
  -22.8810  -29.4820   22.5390 C   0  0  0  0  0  0  0  0  0  0  0  0
  -21.5700  -29.2180   22.4110 N   0  0  0  0  0  0  0  0  0  0  0  0
  -23.6100  -28.8740   23.3260 O   0  0  0  0  0  0  0  0  0  0  0  0
  -21.0390  -29.7660   21.7490 H   0  0  0  0  0  0  0  0  0  0  0  0
  -18.2940  -27.7550   22.8370 C   0  0  0  0  0  0  0  0  0  0  0  0
  -20.8220  -28.2000   23.1480 C   0  0  0  0  0  3  0  0  0  0  0  0
  -21.0420  -26.7960   22.5390 C   0  0  0  0  0  2  0  0  0  0  0  0
  -19.9780  -26.4150   21.5060 C   0  0  0  0  0  2  0  0  0  0  0  0
  -18.5820  -26.4400   22.1330 C   0  0  0  0  0  2  0  0  0  0  0  0
  -19.3460  -28.5890   23.2990 C   0  0  0  0  0  0  0  0  0  0  0  0
  -19.0250  -29.8200   23.9130 C   0  0  0  0  0  3  0  0  0  0  0  0
  -17.6840  -30.2170   24.0720 C   0  0  0  0  0  3  0  0  0  0  0  0
  -16.6460  -29.3790   23.6290 C   0  0  0  0  0  3  0  0  0  0  0  0
  -16.9520  -28.1510   23.0170 C   0  0  0  0  0  3  0  0  0  0  0  0
  -25.9580  -32.5820   23.8890 C   0  0  0  0  0  3  0  0  0  0  0  0
  -25.6330  -33.9700   24.2400 N   0  0  0  0  0  0  0  0  0  0  0  0
  -25.9330  -35.0360   23.4840 C   0  0  0  0  0  0  0  0  0  0  0  0
  -26.5890  -34.9540   22.4420 O   0  0  0  0  0  0  0  0  0  0  0  0
  -25.0520  -34.1070   25.0530 H   0  0  0  0  0  0  0  0  0  0  0  0
  -24.1670  -36.7980   23.1790 C   0  0  0  0  0  1  0  0  0  0  0  0
  -25.4300  -36.4100   23.9640 C   0  0  0  0  0  3  0  0  0  0  0  0
  -27.5650  -37.3250   24.7600 C   0  0  0  0  0  1  0  0  0  0  0  0
  -26.4400  -37.4840   23.8400 N   0  0  0  0  0  0  0  0  0  0  0  0
  -26.0230  -38.3950   24.0060 H   0  0  0  0  0  0  0  0  0  0  0  0
  -26.5110  -31.8040   25.1470 C   0  0  1  0  0  0  0  0  0  0  0  0
  -25.4360  -31.5140   26.2200 C   0  0  0  0  0  1  0  0  0  0  0  0
  -27.1320  -30.4530   24.7210 C   0  0  0  0  0  1  0  0  0  0  0  0
  -27.6420  -32.6220   25.8120 C   0  0  0  0  0  1  0  0  0  0  0  0
  1  2  1  0
  1 50  1  0
  3  6  2  0
  3  7  1  0
  4  8  2  0
  5  8  1  0
  6  4  1  0
  7  5  2  0
  8  1  1  0
  9 15  1  0
  9 17  1  0
 10 15  1  0
 11 12  1  0
 11 10  1  0
 13 12  1  0
 13 22  1  0
 13 14  1  0
 15 14  1  0
 16  9  2  0
 17  7  1  0
 17 18  1  0
 19 20  2  0
 20 39  1  0
 21 20  1  0
 21 24  1  0
 22 23  1  0
 22 19  1  0
 23 21  2  0
 24 25  1  0
 25 26  2  0
 27 30  1  0
 27 26  1  0
 28 27  2  0
 29 28  1  0
 29 24  2  0
 30 31  1  0
 31 36  2  0
 31 32  1  0
 32 33  2  0
 33 34  1  0
 34 38  1  0
 35 34  2  0
 36 35  1  0
 37 36  1  0
 39 40  1  0
 40 43  1  0
 40 42  1  0
 41 39  2  0
 44 19  1  0
 44 45  1  0
 46 44  1  0
 47  6  1  0
 48 49  1  0
 48 47  2  0
 52 50  1  0
 52 51  1  0
 53 54  1  0
 53 52  1  0
 54 55  2  0
 56 57  1  0
 56 54  1  0
 57 59  1  0
 58 69  2  0
 59 64  1  0
 60 68  1  0
 60 70  1  0
 61 67  1  0
 61 63  1  0
 62 68  1  0
 63 62  1  0
 64 63  2  0
 65 66  1  0
 65 59  2  0
 66 61  2  0
 67 60  1  0
 68 58  1  0
 70 72  2  0
 71 70  1  0
 73 71  1  0
 74 83  2  0
 74 79  1  0
 75 71  1  0
 75 79  1  0
 76 75  1  0
 77 78  1  0
 77 76  1  0
 78 74  1  0
 79 80  2  0
 80 81  1  0
 82 81  2  0
 83 82  1  0
 84 58  1  0
 84 85  1  0
 84 94  1  0
 85 88  1  0
 86 90  1  0
 86 85  1  0
 87 86  2  0
 90 89  1  0
 92 90  1  0
 92 93  1  0
 92 91  1  0
 94 97  1  1
 94 95  1  0
 96 94  1  0
M  ISO  4   9 100  17 100  56 101  57 101
M  END
>  <TORSDO>  (78) 
F 23

>  <SCORE>  (78) 
-12.371

>  <name>  (78) 
78

>  <ligand_id>  (78) 
78

>  <original_smiles>  (78) 
[H]N=C([H])c1c([H])c(N([H])C(=O)N2C([H])([H])C([H])([H])C([H])([H])C([H])(n3nc(-c4c([H])c([H])c(Oc5c([H])c([H])c(F)c([H])c5F)c([H])c4[H])c(C(=O)N([H])[H])c3N([H])[H])C2([H])[H])c([H])c(N([H])C([H])([H])C([H])(C([H])([H])[H])C([H])([H])C(=O)C([H])([H])Oc2c([H])c([H])c3c(c2[H])C([H])([H])N(C(=O)C([H])(N([H])C(=O)C([H])(N([H])C([H])([H])[H])C([H])([H])[H])C(C([H])([H])[H])(C([H])([H])[H])C([H])([H])[H])C([H])(C(=O)N([H])C2([H])c4c([H])c([H])c([H])c([H])c4C([H])([H])C([H])([H])C2([H])[H])C3([H])[H])c1[H]

>  <smiles>  (78) 
[H]N=C([H])c1c([H])c(N([H])C(=O)N2C([H])([H])C([H])([H])C([H])([H])C([H])(n3nc(-c4c([H])c([H])c(Oc5c([H])c([H])c(F)c([H])c5F)c([H])c4[H])c(C(=O)N([H])[H])c3N([H])[H])C2([H])[H])c([H])c(N([H])C([H])([H])C([H])(C([H])([H])[H])C([H])([H])C(=O)C([H])([H])Oc2c([H])c([H])c3c(c2[H])C([H])([H])N(C(=O)C([H])(N([H])C(=O)C([H])(N([H])C([H])([H])[H])C([H])([H])[H])C(C([H])([H])[H])(C([H])([H])[H])C([H])([H])[H])C([H])(C(=O)N([H])C2([H])c4c([H])c([H])c([H])c([H])c4C([H])([H])C([H])([H])C2([H])[H])C3([H])[H])c1[H]

$$$$
79:0:0
     RDKit          3D

 95104  0  0  1  0  0  0  0  0999 V2000
  -29.0000  -19.9580   21.1340 C   0  0  0  0  0  3  0  0  0  0  0  0
  -29.7530  -18.7350   21.2020 C   0  0  0  0  0  0  0  0  0  0  0  0
  -30.0180  -18.2080   19.9560 C   0  0  0  0  0  0  0  0  0  0  0  0
  -28.7100  -20.3700   19.8570 C   0  0  0  0  0  0  0  0  0  0  0  0
  -29.2990  -19.2030   18.7020 S   0  0  0  0  0  0  0  0  0  0  0  0
  -31.7140  -18.0700   24.0410 C   0  0  0  0  0  2  0  0  0  0  0  0
  -31.6590  -17.5720   22.5960 C   0  0  0  0  0  2  0  0  0  0  0  0
  -30.5930  -19.0440   23.6760 C   0  0  0  0  0  2  0  0  0  0  0  0
  -30.2270  -18.1280   22.4940 C   0  0  0  0  0  3  0  0  0  0  0  0
  -28.0480  -21.5230   19.4100 N   0  0  0  0  0  0  0  0  0  0  0  0
  -28.0030  -21.7220   18.4110 H   0  0  0  0  0  0  0  0  0  0  0  0
  -27.9880  -22.7330   20.2470 C   0  0  0  0  0  2  0  0  0  0  0  0
  -27.7380  -24.0430   19.4570 C   0  0  0  0  0  0  0  0  0  0  0  0
  -27.6460  -24.0300   18.2230 O   0  0  0  0  0  0  0  0  0  0  0  0
  -27.6290  -25.3530   20.2690 C   0  0  0  0  0  2  0  0  0  0  0  0
  -27.6800  -26.5390   19.4450 O   0  0  0  0  0  0  0  0  0  0  0  0
  -24.4440  -31.7380   23.0900 C   0  0  0  0  0  0  0  0  0  0  0  0
  -26.5760  -27.3510   19.5720 C   0  0  0  0  0  0  0  0  0  0  0  0
  -23.0290  -30.4840   21.4950 C   0  0  0  0  0  3  0  0  0  0  0  0
  -24.2730  -28.9630   19.8680 C   0  0  0  0  0  0  0  0  0  0  0  0
  -25.5410  -30.7420   21.0840 C   0  0  0  0  0  2  0  0  0  0  0  0
  -25.5040  -29.4040   20.3700 C   0  0  0  0  0  0  0  0  0  0  0  0
  -26.6630  -28.6080   20.2140 C   0  0  0  0  0  3  0  0  0  0  0  0
  -25.3310  -26.9250   19.0630 C   0  0  0  0  0  3  0  0  0  0  0  0
  -24.1820  -27.7230   19.2090 C   0  0  0  0  0  3  0  0  0  0  0  0
  -23.0810  -29.8710   20.0700 C   0  0  0  0  0  2  0  0  0  0  0  0
  -24.3630  -30.9990   21.9470 N   0  0  0  0  0  0  0  0  0  0  0  0
  -23.4310  -32.0280   23.7400 O   0  0  0  0  0  0  0  0  0  0  0  0
  -22.4150  -29.4430   22.4590 C   0  0  0  0  0  0  0  0  0  0  0  0
  -21.0890  -29.2530   22.3710 N   0  0  0  0  0  0  0  0  0  0  0  0
  -23.1290  -28.8090   23.2410 O   0  0  0  0  0  0  0  0  0  0  0  0
  -20.5720  -29.8180   21.7110 H   0  0  0  0  0  0  0  0  0  0  0  0
  -17.7580  -27.9420   22.8630 C   0  0  0  0  0  0  0  0  0  0  0  0
  -20.3030  -28.2980   23.1510 C   0  0  0  0  0  3  0  0  0  0  0  0
  -20.4620  -26.8630   22.5970 C   0  0  0  0  0  2  0  0  0  0  0  0
  -19.3820  -26.4860   21.5790 C   0  0  0  0  0  2  0  0  0  0  0  0
  -17.9900  -26.5900   22.2100 C   0  0  0  0  0  2  0  0  0  0  0  0
  -18.8450  -28.7500   23.2910 C   0  0  0  0  0  0  0  0  0  0  0  0
  -18.5750  -30.0140   23.8580 C   0  0  0  0  0  3  0  0  0  0  0  0
  -17.2520  -30.4700   24.0050 C   0  0  0  0  0  3  0  0  0  0  0  0
  -16.1790  -29.6580   23.5980 C   0  0  0  0  0  3  0  0  0  0  0  0
  -16.4340  -28.3960   23.0310 C   0  0  0  0  0  3  0  0  0  0  0  0
  -25.8110  -32.2750   23.6210 C   0  0  0  0  0  3  0  0  0  0  0  0
  -25.5990  -33.6550   24.0760 N   0  0  0  0  0  0  0  0  0  0  0  0
  -25.9140  -34.7470   23.3670 C   0  0  0  0  0  0  0  0  0  0  0  0
  -26.4870  -34.6950   22.2760 O   0  0  0  0  0  0  0  0  0  0  0  0
  -25.0820  -33.7710   24.9350 H   0  0  0  0  0  0  0  0  0  0  0  0
  -24.2450  -36.6250   23.2950 C   0  0  0  0  0  1  0  0  0  0  0  0
  -25.5290  -36.1150   23.9640 C   0  0  0  0  0  3  0  0  0  0  0  0
  -27.7650  -36.8510   24.6660 C   0  0  0  0  0  1  0  0  0  0  0  0
  -26.5950  -37.1320   23.8370 N   0  0  0  0  0  0  0  0  0  0  0  0
  -26.2450  -38.0550   24.0850 H   0  0  0  0  0  0  0  0  0  0  0  0
  -26.4190  -31.3920   24.7790 C   0  0  1  0  0  0  0  0  0  0  0  0
  -25.4310  -31.1190   25.9360 C   0  0  0  0  0  1  0  0  0  0  0  0
  -26.8930  -30.0260   24.2310 C   0  0  0  0  0  1  0  0  0  0  0  0
  -27.6680  -32.0880   25.3700 C   0  0  0  0  0  1  0  0  0  0  0  0
  -30.8860  -17.0320   19.5660 C   0  0  0  0  0  2  0  0  0  0  0  0
  -30.8990  -14.5710   19.2310 C   0  0  0  0  0  0  0  0  0  0  0  0
  -30.5550  -12.2250   18.5580 C   0  0  0  0  0  2  0  0  0  0  0  0
  -29.4930  -12.1590   17.4430 C   0  0  0  0  0  2  0  0  0  0  0  0
  -28.0820  -12.0620   18.0510 C   0  0  0  0  0  2  0  0  0  0  0  0
  -27.8290  -13.1250   19.1550 C   0  0  0  0  0  3  0  0  0  0  0  0
  -29.0010  -13.1820   20.1610 C   0  0  0  0  0  2  0  0  0  0  0  0
  -30.2400  -13.3910   19.3990 N   0  0  0  0  0  0  0  0  0  0  0  0
  -31.9660  -14.6430   18.6160 O   0  0  0  0  0  0  0  0  0  0  0  0
  -30.2840  -15.6880   19.6610 N   0  0  0  0  0  0  0  0  0  0  0  0
  -29.3930  -15.5900   20.1200 H   0  0  0  0  0  0  0  0  0  0  0  0
  -25.6200  -13.8330   20.2670 C   0  0  0  0  0  0  0  0  0  0  0  0
  -24.5650  -13.1070   20.7520 C   0  0  0  0  0  0  0  0  0  0  0  0
  -24.9140  -11.7330   20.5710 C   0  0  0  0  0  0  0  0  0  0  0  0
  -26.5480  -12.9030   19.8240 N   0  0  0  0  0  0  0  0  0  0  0  0
  -26.1370  -11.6320   20.0640 N   0  0  0  0  0  0  0  0  0  0  0  0
  -24.1320  -10.5090   20.7940 C   0  0  0  0  0  0  0  0  0  0  0  0
  -24.5690   -9.5080   21.6880 C   0  0  0  0  0  3  0  0  0  0  0  0
  -23.7900   -8.3490   21.9020 C   0  0  0  0  0  3  0  0  0  0  0  0
  -22.5600   -8.1860   21.2210 C   0  0  0  0  0  0  0  0  0  0  0  0
  -22.1410   -9.1750   20.3150 C   0  0  0  0  0  3  0  0  0  0  0  0
  -22.9210  -10.3240   20.0990 C   0  0  0  0  0  3  0  0  0  0  0  0
  -21.7510   -7.0830   21.3460 O   0  0  0  0  0  0  0  0  0  0  0  0
  -21.6410   -6.4000   22.5320 C   0  0  0  0  0  0  0  0  0  0  0  0
  -21.1970   -7.0280   23.7150 C   0  0  0  0  0  3  0  0  0  0  0  0
  -21.0340   -6.2720   24.8940 C   0  0  0  0  0  3  0  0  0  0  0  0
  -21.3050   -4.8910   24.8890 C   0  0  0  0  0  0  0  0  0  0  0  0
  -21.7430   -4.2630   23.7080 C   0  0  0  0  0  3  0  0  0  0  0  0
  -21.9080   -5.0160   22.5340 C   0  0  0  0  0  0  0  0  0  0  0  0
  -22.3090   -4.4020   21.3930 F   0  0  0  0  0  0  0  0  0  0  0  0
  -21.1420   -4.1620   26.0170 F   0  0  0  0  0  0  0  0  0  0  0  0
  -23.2650  -13.6510   21.2650 C   0  0  0  0  0  0  0  0  0  0  0  0
  -22.6390  -12.9610   22.2120 N   0  0  0  0  0  0  0  0  0  0  0  0
  -22.8170  -14.7240   20.8620 O   0  0  0  0  0  0  0  0  0  0  0  0
  -23.0150  -12.0900   22.5580 H   0  0  0  0  0  0  0  0  0  0  0  0
  -21.7720  -13.3070   22.5960 H   0  0  0  0  0  0  0  0  0  0  0  0
  -25.8600  -15.1980   20.1440 N   0  0  0  0  0  0  0  0  0  0  0  0
  -25.1660  -15.8930   20.3950 H   0  0  0  0  0  0  0  0  0  0  0  0
  -26.6720  -15.5940   19.6870 H   0  0  0  0  0  0  0  0  0  0  0  0
  1  2  1  0
  2  9  1  0
  3  2  2  0
  4  1  2  0
  5  4  1  0
  5  3  1  0
  7  6  1  0
  8  6  1  0
  9  7  1  0
  9  8  1  0
 10  4  1  0
 10 12  1  0
 11 10  1  0
 13 12  1  0
 13 15  1  0
 14 13  2  0
 16 18  1  0
 16 15  1  0
 17 28  2  0
 18 23  1  0
 19 27  1  0
 19 29  1  0
 20 26  1  0
 20 22  1  0
 21 27  1  0
 22 21  1  0
 23 22  2  0
 24 25  1  0
 24 18  2  0
 25 20  2  0
 26 19  1  0
 27 17  1  0
 29 31  2  0
 30 29  1  0
 32 30  1  0
 33 42  2  0
 33 38  1  0
 34 30  1  0
 34 38  1  0
 35 34  1  0
 36 37  1  0
 36 35  1  0
 37 33  1  0
 38 39  2  0
 39 40  1  0
 41 40  2  0
 42 41  1  0
 43 17  1  0
 43 44  1  0
 43 53  1  0
 44 47  1  0
 45 49  1  0
 45 44  1  0
 46 45  2  0
 49 48  1  0
 51 49  1  0
 51 52  1  0
 51 50  1  0
 53 56  1  1
 53 54  1  0
 55 53  1  0
 57 66  1  0
 57  3  1  0
 58 64  1  0
 58 66  1  0
 59 64  1  0
 60 61  1  0
 60 59  1  0
 62 61  1  0
 62 71  1  0
 62 63  1  0
 64 63  1  0
 65 58  2  0
 66 67  1  0
 68 69  2  0
 69 88  1  0
 70 69  1  0
 70 73  1  0
 71 72  1  0
 71 68  1  0
 72 70  2  0
 73 74  1  0
 74 75  2  0
 76 79  1  0
 76 75  1  0
 77 76  2  0
 78 77  1  0
 78 73  2  0
 79 80  1  0
 80 85  2  0
 80 81  1  0
 81 82  2  0
 83 82  1  0
 83 87  1  0
 84 83  2  0
 85 84  1  0
 86 85  1  0
 88 89  1  0
 89 91  1  0
 89 92  1  0
 90 88  2  0
 93 68  1  0
 93 94  1  0
 95 93  1  0
M  ISO  4  15 101  16 101  58 100  66 100
M  END
>  <TORSDO>  (79) 
F 22

>  <SCORE>  (79) 
-8.494

>  <name>  (79) 
79

>  <ligand_id>  (79) 
79

>  <original_smiles>  (79) 
[H]c1c([H])c([H])c2c(c1[H])C([H])([H])C([H])([H])C([H])([H])C2([H])N([H])C(=O)C1([H])N(C(=O)C([H])(N([H])C(=O)C([H])(N([H])C([H])([H])[H])C([H])([H])[H])C(C([H])([H])[H])(C([H])([H])[H])C([H])([H])[H])C([H])([H])c2c([H])c(OC([H])([H])C(=O)C([H])([H])N([H])c3sc(C([H])([H])N([H])C(=O)N4C([H])([H])C([H])([H])C([H])([H])C([H])(n5nc(-c6c([H])c([H])c(Oc7c([H])c([H])c(F)c([H])c7F)c([H])c6[H])c(C(=O)N([H])[H])c5N([H])[H])C4([H])[H])c(C4([H])C([H])([H])C([H])([H])C4([H])[H])c3[H])c([H])c([H])c2C1([H])[H]

>  <smiles>  (79) 
[H]c1c([H])c([H])c2c(c1[H])C([H])([H])C([H])([H])C([H])([H])C2([H])N([H])C(=O)C1([H])N(C(=O)C([H])(N([H])C(=O)C([H])(N([H])C([H])([H])[H])C([H])([H])[H])C(C([H])([H])[H])(C([H])([H])[H])C([H])([H])[H])C([H])([H])c2c([H])c(OC([H])([H])C(=O)C([H])([H])N([H])c3sc(C([H])([H])N([H])C(=O)N4C([H])([H])C([H])([H])C([H])([H])C([H])(n5nc(-c6c([H])c([H])c(Oc7c([H])c([H])c(F)c([H])c7F)c([H])c6[H])c(C(=O)N([H])[H])c5N([H])[H])C4([H])[H])c(C4([H])C([H])([H])C([H])([H])C4([H])[H])c3[H])c([H])c([H])c2C1([H])[H]

$$$$
80:0:0
     RDKit          3D

 96105  0  0  1  0  0  0  0  0999 V2000
  -30.5860  -18.9680   20.3530 C   0  0  0  0  0  3  0  0  0  0  0  0
  -30.9390  -17.6370   20.6830 C   0  0  0  0  0  3  0  0  0  0  0  0
  -28.6220  -16.9670   20.4140 C   0  0  0  0  0  3  0  0  0  0  0  0
  -29.2480  -19.3110   20.0180 C   0  0  0  0  0  0  0  0  0  0  0  0
  -29.9530  -16.6230   20.7070 C   0  0  0  0  0  0  0  0  0  0  0  0
  -28.2800  -18.2740   20.0160 C   0  0  0  0  0  0  0  0  0  0  0  0
  -29.3500  -21.7750   20.2190 C   0  0  0  0  0  0  0  0  0  0  0  0
  -27.5610  -20.7690   18.8920 C   0  0  0  0  0  2  0  0  0  0  0  0
  -26.9430  -19.4180   18.5110 C   0  0  0  0  0  2  0  0  0  0  0  0
  -28.8290  -20.6460   19.6470 N   0  0  0  0  0  0  0  0  0  0  0  0
  -30.0110  -21.7470   21.2640 O   0  0  0  0  0  0  0  0  0  0  0  0
  -26.9970  -18.5110   19.6000 O   0  0  0  0  0  0  0  0  0  0  0  0
  -30.7810  -14.3770   20.1860 C   0  0  0  0  0  0  0  0  0  0  0  0
  -30.3830  -12.2700   18.9600 C   0  0  0  0  0  2  0  0  0  0  0  0
  -29.3830  -12.5250   17.8130 C   0  0  0  0  0  2  0  0  0  0  0  0
  -27.9290  -12.4030   18.3070 C   0  0  0  0  0  2  0  0  0  0  0  0
  -27.6730  -13.2150   19.6040 C   0  0  0  0  0  3  0  0  0  0  0  0
  -28.7710  -12.9240   20.6530 C   0  0  0  0  0  2  0  0  0  0  0  0
  -30.0860  -13.2160   20.0480 N   0  0  0  0  0  0  0  0  0  0  0  0
  -31.8250  -14.6230   19.5700 O   0  0  0  0  0  0  0  0  0  0  0  0
  -30.2280  -15.2660   21.0310 N   0  0  0  0  0  0  0  0  0  0  0  0
  -29.5080  -14.8290   21.5870 H   0  0  0  0  0  0  0  0  0  0  0  0
  -25.3140  -13.8600   20.4160 C   0  0  0  0  0  0  0  0  0  0  0  0
  -24.2540  -13.1030   20.8360 C   0  0  0  0  0  0  0  0  0  0  0  0
  -24.6890  -11.7450   20.7700 C   0  0  0  0  0  0  0  0  0  0  0  0
  -26.3350  -12.9650   20.1360 N   0  0  0  0  0  0  0  0  0  0  0  0
  -25.9620  -11.6870   20.4020 N   0  0  0  0  0  0  0  0  0  0  0  0
  -23.9500  -10.4930   20.9780 C   0  0  0  0  0  0  0  0  0  0  0  0
  -24.4010   -9.5120   21.8890 C   0  0  0  0  0  3  0  0  0  0  0  0
  -23.6640   -8.3260   22.0860 C   0  0  0  0  0  3  0  0  0  0  0  0
  -22.4610   -8.1100   21.3710 C   0  0  0  0  0  0  0  0  0  0  0  0
  -22.0310   -9.0780   20.4470 C   0  0  0  0  0  3  0  0  0  0  0  0
  -22.7680  -10.2570   20.2490 C   0  0  0  0  0  3  0  0  0  0  0  0
  -21.6940   -6.9760   21.4780 O   0  0  0  0  0  0  0  0  0  0  0  0
  -21.6640   -6.2330   22.6300 C   0  0  0  0  0  0  0  0  0  0  0  0
  -21.2680   -6.7900   23.8660 C   0  0  0  0  0  3  0  0  0  0  0  0
  -21.1840   -5.9740   25.0120 C   0  0  0  0  0  3  0  0  0  0  0  0
  -21.4890   -4.6020   24.9240 C   0  0  0  0  0  0  0  0  0  0  0  0
  -21.8770   -4.0450   23.6930 C   0  0  0  0  0  3  0  0  0  0  0  0
  -21.9620   -4.8580   22.5500 C   0  0  0  0  0  0  0  0  0  0  0  0
  -22.3160   -4.3100   21.3620 F   0  0  0  0  0  0  0  0  0  0  0  0
  -21.4030   -3.8160   26.0230 F   0  0  0  0  0  0  0  0  0  0  0  0
  -22.8790  -13.6020   21.1780 C   0  0  0  0  0  0  0  0  0  0  0  0
  -22.1840  -12.9110   22.0750 N   0  0  0  0  0  0  0  0  0  0  0  0
  -22.4330  -14.6380   20.6880 O   0  0  0  0  0  0  0  0  0  0  0  0
  -22.5620  -12.0750   22.4960 H   0  0  0  0  0  0  0  0  0  0  0  0
  -21.2620  -13.2220   22.3460 H   0  0  0  0  0  0  0  0  0  0  0  0
  -25.4830  -15.2270   20.2250 N   0  0  0  0  0  0  0  0  0  0  0  0
  -24.7160  -15.8760   20.3480 H   0  0  0  0  0  0  0  0  0  0  0  0
  -26.2770  -15.6420   19.7540 H   0  0  0  0  0  0  0  0  0  0  0  0
  -29.0760  -23.0310   19.5080 C   0  0  0  0  0  3  0  0  0  0  0  0
  -28.9690  -24.2500   20.0990 C   0  0  0  0  0  0  0  0  0  0  0  0
  -29.0420  -24.4620   21.4260 O   0  0  0  0  0  0  0  0  0  0  0  0
  -29.2340  -23.6300   21.8440 H   0  0  0  0  0  0  0  0  0  0  0  0
  -28.7650  -25.5660   19.3370 C   0  0  0  0  0  2  0  0  0  0  0  0
  -28.5180  -26.7130   20.1740 O   0  0  0  0  0  0  0  0  0  0  0  0
  -24.6100  -31.8260   23.2170 C   0  0  0  0  0  0  0  0  0  0  0  0
  -27.3130  -27.3940   20.1430 C   0  0  0  0  0  0  0  0  0  0  0  0
  -23.4320  -30.4330   21.5500 C   0  0  0  0  0  3  0  0  0  0  0  0
  -24.9070  -28.9020   20.1400 C   0  0  0  0  0  0  0  0  0  0  0  0
  -25.9620  -30.7890   21.3960 C   0  0  0  0  0  2  0  0  0  0  0  0
  -26.0570  -29.4220   20.7470 C   0  0  0  0  0  0  0  0  0  0  0  0
  -27.2570  -28.6740   20.7460 C   0  0  0  0  0  3  0  0  0  0  0  0
  -26.1320  -26.8780   19.5560 C   0  0  0  0  0  3  0  0  0  0  0  0
  -24.9400  -27.6290   19.5480 C   0  0  0  0  0  3  0  0  0  0  0  0
  -23.6630  -29.7620   20.1700 C   0  0  0  0  0  2  0  0  0  0  0  0
  -24.6850  -31.0310   22.1120 N   0  0  0  0  0  0  0  0  0  0  0  0
  -23.5200  -32.0950   23.7400 O   0  0  0  0  0  0  0  0  0  0  0  0
  -22.7680  -29.4050   22.4930 C   0  0  0  0  0  0  0  0  0  0  0  0
  -21.4410  -29.2450   22.3610 N   0  0  0  0  0  0  0  0  0  0  0  0
  -23.4420  -28.7560   23.2970 O   0  0  0  0  0  0  0  0  0  0  0  0
  -20.9610  -29.8220   21.6850 H   0  0  0  0  0  0  0  0  0  0  0  0
  -18.0420  -28.1310   22.8800 C   0  0  0  0  0  0  0  0  0  0  0  0
  -20.6100  -28.3090   23.1180 C   0  0  0  0  0  3  0  0  0  0  0  0
  -20.6610  -26.8920   22.4990 C   0  0  0  0  0  2  0  0  0  0  0  0
  -19.5380  -26.6320   21.4930 C   0  0  0  0  0  2  0  0  0  0  0  0
  -18.1700  -26.7970   22.1620 C   0  0  0  0  0  2  0  0  0  0  0  0
  -19.1880  -28.8480   23.3140 C   0  0  0  0  0  0  0  0  0  0  0  0
  -19.0160  -30.0990   23.9450 C   0  0  0  0  0  3  0  0  0  0  0  0
  -17.7290  -30.6320   24.1460 C   0  0  0  0  0  3  0  0  0  0  0  0
  -16.5970  -29.9110   23.7270 C   0  0  0  0  0  3  0  0  0  0  0  0
  -16.7540  -28.6620   23.1010 C   0  0  0  0  0  3  0  0  0  0  0  0
  -25.8860  -32.4550   23.8600 C   0  0  0  0  0  3  0  0  0  0  0  0
  -26.3780  -31.6860   25.1470 C   0  0  1  0  0  0  0  0  0  0  0  0
  -25.2650  -31.4580   26.1970 C   0  0  0  0  0  1  0  0  0  0  0  0
  -26.9630  -30.3050   24.7700 C   0  0  0  0  0  1  0  0  0  0  0  0
  -27.5210  -32.4800   25.8240 C   0  0  0  0  0  1  0  0  0  0  0  0
  -25.5770  -33.8550   24.1780 N   0  0  0  0  0  0  0  0  0  0  0  0
  -25.9280  -34.9030   23.4210 C   0  0  0  0  0  0  0  0  0  0  0  0
  -26.6200  -34.7930   22.4050 O   0  0  0  0  0  0  0  0  0  0  0  0
  -24.9660  -34.0170   24.9660 H   0  0  0  0  0  0  0  0  0  0  0  0
  -24.2140  -36.6990   23.0220 C   0  0  0  0  0  1  0  0  0  0  0  0
  -25.4350  -36.2940   23.8620 C   0  0  0  0  0  3  0  0  0  0  0  0
  -27.5530  -37.1750   24.7380 C   0  0  0  0  0  1  0  0  0  0  0  0
  -26.4740  -37.3440   23.7690 N   0  0  0  0  0  0  0  0  0  0  0  0
  -26.0670  -38.2660   23.9060 H   0  0  0  0  0  0  0  0  0  0  0  0
  1  2  1  0
  2  5  2  0
  3  5  1  0
  4  1  2  0
  5 21  1  0
  6  4  1  0
  6  3  2  0
  7 11  2  0
  8 10  1  0
  9  8  1  0
  9 12  1  0
 10  4  1  0
 10  7  1  0
 12  6  1  0
 13 21  1  0
 14 19  1  0
 15 16  1  0
 15 14  1  0
 17 16  1  0
 17 26  1  0
 17 18  1  0
 19 13  1  0
 19 18  1  0
 20 13  2  0
 21 22  1  0
 23 24  2  0
 24 43  1  0
 25 24  1  0
 25 28  1  0
 26 27  1  0
 26 23  1  0
 27 25  2  0
 28 29  1  0
 29 30  2  0
 31 34  1  0
 31 30  1  0
 32 31  2  0
 33 32  1  0
 33 28  2  0
 34 35  1  0
 35 36  1  0
 36 37  2  0
 38 37  1  0
 38 42  1  0
 39 38  2  0
 40 35  2  0
 40 39  1  0
 41 40  1  0
 43 44  1  0
 44 47  1  0
 44 46  1  0
 45 43  2  0
 48 49  1  0
 48 23  1  0
 50 48  1  0
 51 52  2  0
 51  7  1  0
 52 53  1  0
 53 54  1  0
 55 52  1  0
 55 56  1  0
 57 68  2  0
 58 56  1  0
 58 63  1  0
 59 67  1  0
 59 69  1  0
 60 66  1  0
 60 62  1  0
 61 67  1  0
 62 61  1  0
 63 62  2  0
 64 58  2  0
 65 64  1  0
 65 60  2  0
 66 59  1  0
 67 57  1  0
 69 71  2  0
 70 69  1  0
 72 70  1  0
 73 82  2  0
 73 78  1  0
 74 70  1  0
 74 78  1  0
 75 74  1  0
 76 77  1  0
 76 75  1  0
 77 73  1  0
 78 79  2  0
 79 80  1  0
 81 80  2  0
 82 81  1  0
 83 57  1  0
 83 88  1  0
 83 84  1  0
 84 87  1  1
 84 85  1  0
 86 84  1  0
 88 91  1  0
 89 93  1  0
 89 88  1  0
 90 89  2  0
 93 92  1  0
 95 93  1  0
 95 96  1  0
 95 94  1  0
M  ISO  4  13 100  21 100  55 101  56 101
M  END
>  <TORSDO>  (80) 
F 19

>  <SCORE>  (80) 
-14.861

>  <name>  (80) 
80

>  <ligand_id>  (80) 
80

>  <original_smiles>  (80) 
[H]OC(=C([H])C(=O)N1c2c([H])c([H])c(N([H])C(=O)N3C([H])([H])C([H])([H])C([H])([H])C([H])(n4nc(-c5c([H])c([H])c(Oc6c([H])c([H])c(F)c([H])c6F)c([H])c5[H])c(C(=O)N([H])[H])c4N([H])[H])C3([H])[H])c([H])c2OC([H])([H])C1([H])[H])C([H])([H])Oc1c([H])c([H])c2c(c1[H])C([H])([H])N(C(=O)C([H])(N([H])C(=O)C([H])(N([H])C([H])([H])[H])C([H])([H])[H])C(C([H])([H])[H])(C([H])([H])[H])C([H])([H])[H])C([H])(C(=O)N([H])C1([H])c3c([H])c([H])c([H])c([H])c3C([H])([H])C([H])([H])C1([H])[H])C2([H])[H]

>  <smiles>  (80) 
[H]OC(=C([H])C(=O)N1c2c([H])c([H])c(N([H])C(=O)N3C([H])([H])C([H])([H])C([H])([H])C([H])(n4nc(-c5c([H])c([H])c(Oc6c([H])c([H])c(F)c([H])c6F)c([H])c5[H])c(C(=O)N([H])[H])c4N([H])[H])C3([H])[H])c([H])c2OC([H])([H])C1([H])[H])C([H])([H])Oc1c([H])c([H])c2c(c1[H])C([H])([H])N(C(=O)C([H])(N([H])C(=O)C([H])(N([H])C([H])([H])[H])C([H])([H])[H])C(C([H])([H])[H])(C([H])([H])[H])C([H])([H])[H])C([H])(C(=O)N([H])C1([H])c3c([H])c([H])c([H])c([H])c3C([H])([H])C([H])([H])C1([H])[H])C2([H])[H]

$$$$
81:0:0
     RDKit          3D

 93102  0  0  1  0  0  0  0  0999 V2000
  -28.5270  -17.6210   19.8570 C   0  0  0  0  0  3  0  0  0  0  0  0
  -28.2810  -19.0140   19.6920 C   0  0  0  0  0  3  0  0  0  0  0  0
  -30.5040  -18.1840   21.0560 C   0  0  0  0  0  3  0  0  0  0  0  0
  -29.6640  -17.1450   20.5530 C   0  0  0  0  0  0  0  0  0  0  0  0
  -29.1390  -19.9870   20.2650 C   0  0  0  0  0  0  0  0  0  0  0  0
  -28.0110  -23.4460   19.1130 C   0  0  0  0  0  2  0  0  0  0  0  0
  -28.0620  -21.8960   18.9880 C   0  0  0  0  0  2  0  0  0  0  0  0
  -29.2490  -22.5860   20.9530 C   0  0  0  0  0  3  0  0  0  0  0  0
  -28.1650  -23.7440   20.6310 C   0  0  2  0  0  0  0  0  0  0  0  0
  -30.7440  -22.9640   20.6800 C   0  0  0  0  0  1  0  0  0  0  0  0
  -26.8120  -23.4080   21.3650 C   0  0  0  0  0  1  0  0  0  0  0  0
  -30.2410  -19.5370   20.9400 N   0  0  0  0  0  0  0  0  0  0  0  0
  -28.8660  -21.4040   20.1150 N   0  0  0  0  0  0  0  0  0  0  0  0
  -30.5470  -14.6780   20.4380 C   0  0  0  0  0  0  0  0  0  0  0  0
  -30.3680  -12.4290   19.3640 C   0  0  0  0  0  2  0  0  0  0  0  0
  -29.4290  -12.5520   18.1440 C   0  0  0  0  0  2  0  0  0  0  0  0
  -27.9540  -12.3960   18.5650 C   0  0  0  0  0  2  0  0  0  0  0  0
  -27.5930  -13.2440   19.8100 C   0  0  0  0  0  3  0  0  0  0  0  0
  -28.6430  -13.0840   20.9300 C   0  0  0  0  0  2  0  0  0  0  0  0
  -29.9530  -13.4390   20.3600 N   0  0  0  0  0  0  0  0  0  0  0  0
  -31.7030  -14.8530   20.0260 O   0  0  0  0  0  0  0  0  0  0  0  0
  -29.7540  -15.7050   20.8790 N   0  0  0  0  0  0  0  0  0  0  0  0
  -28.8790  -15.3280   21.2170 H   0  0  0  0  0  0  0  0  0  0  0  0
  -25.1960  -13.8540   20.5050 C   0  0  0  0  0  0  0  0  0  0  0  0
  -24.1290  -13.0900   20.8870 C   0  0  0  0  0  0  0  0  0  0  0  0
  -24.5840  -11.7350   20.8600 C   0  0  0  0  0  0  0  0  0  0  0  0
  -26.2400  -12.9660   20.2820 N   0  0  0  0  0  0  0  0  0  0  0  0
  -25.8740  -11.6870   20.5490 N   0  0  0  0  0  0  0  0  0  0  0  0
  -23.8490  -10.4780   21.0430 C   0  0  0  0  0  0  0  0  0  0  0  0
  -24.2690   -9.5110   21.9810 C   0  0  0  0  0  3  0  0  0  0  0  0
  -23.5390   -8.3170   22.1550 C   0  0  0  0  0  3  0  0  0  0  0  0
  -22.3670   -8.0800   21.3950 C   0  0  0  0  0  0  0  0  0  0  0  0
  -21.9600   -9.0380   20.4480 C   0  0  0  0  0  3  0  0  0  0  0  0
  -22.6940  -10.2250   20.2720 C   0  0  0  0  0  3  0  0  0  0  0  0
  -21.6100   -6.9330   21.4770 O   0  0  0  0  0  0  0  0  0  0  0  0
  -21.5580   -6.1920   22.6300 C   0  0  0  0  0  0  0  0  0  0  0  0
  -21.1200   -6.7440   23.8530 C   0  0  0  0  0  3  0  0  0  0  0  0
  -21.0100   -5.9320   24.9960 C   0  0  0  0  0  3  0  0  0  0  0  0
  -21.3190   -4.5610   24.9210 C   0  0  0  0  0  0  0  0  0  0  0  0
  -21.7500   -4.0060   23.7050 C   0  0  0  0  0  3  0  0  0  0  0  0
  -21.8640   -4.8170   22.5620 C   0  0  0  0  0  0  0  0  0  0  0  0
  -22.2600   -4.2700   21.3870 F   0  0  0  0  0  0  0  0  0  0  0  0
  -21.2050   -3.7790   26.0220 F   0  0  0  0  0  0  0  0  0  0  0  0
  -22.7340  -13.5810   21.1480 C   0  0  0  0  0  0  0  0  0  0  0  0
  -21.9850  -12.8920   21.9990 N   0  0  0  0  0  0  0  0  0  0  0  0
  -22.3140  -14.6130   20.6260 O   0  0  0  0  0  0  0  0  0  0  0  0
  -22.3250  -12.0580   22.4500 H   0  0  0  0  0  0  0  0  0  0  0  0
  -21.0430  -13.2060   22.1980 H   0  0  0  0  0  0  0  0  0  0  0  0
  -25.3550  -15.2180   20.2970 N   0  0  0  0  0  0  0  0  0  0  0  0
  -24.5190  -15.7880   20.2680 H   0  0  0  0  0  0  0  0  0  0  0  0
  -26.0680  -15.5510   19.6600 H   0  0  0  0  0  0  0  0  0  0  0  0
  -28.5170  -25.2810   21.0640 C   0  0  0  0  0  2  0  0  0  0  0  0
  -28.4190  -26.4860   20.2150 O   0  0  0  0  0  0  0  0  0  0  0  0
  -24.6380  -31.8910   23.2530 C   0  0  0  0  0  0  0  0  0  0  0  0
  -27.2910  -27.3050   20.2820 C   0  0  0  0  0  0  0  0  0  0  0  0
  -23.4520  -30.4670   21.6210 C   0  0  0  0  0  3  0  0  0  0  0  0
  -24.9210  -28.8970   20.2350 C   0  0  0  0  0  0  0  0  0  0  0  0
  -25.9890  -30.8050   21.4350 C   0  0  0  0  0  2  0  0  0  0  0  0
  -26.0860  -29.4090   20.8280 C   0  0  0  0  0  0  0  0  0  0  0  0
  -27.2820  -28.6250   20.8410 C   0  0  0  0  0  3  0  0  0  0  0  0
  -26.1090  -26.8420   19.6800 C   0  0  0  0  0  3  0  0  0  0  0  0
  -24.9340  -27.6180   19.6530 C   0  0  0  0  0  3  0  0  0  0  0  0
  -23.6830  -29.7760   20.2530 C   0  0  0  0  0  2  0  0  0  0  0  0
  -24.7130  -31.0710   22.1640 N   0  0  0  0  0  0  0  0  0  0  0  0
  -23.5470  -32.1660   23.7720 O   0  0  0  0  0  0  0  0  0  0  0  0
  -22.7880  -29.4550   22.5840 C   0  0  0  0  0  0  0  0  0  0  0  0
  -21.4650  -29.2710   22.4420 N   0  0  0  0  0  0  0  0  0  0  0  0
  -23.4610  -28.8340   23.4140 O   0  0  0  0  0  0  0  0  0  0  0  0
  -20.9810  -29.8280   21.7510 H   0  0  0  0  0  0  0  0  0  0  0  0
  -18.0840  -28.0770   22.9210 C   0  0  0  0  0  0  0  0  0  0  0  0
  -20.6400  -28.3430   23.2150 C   0  0  0  0  0  3  0  0  0  0  0  0
  -20.7490  -26.9040   22.6540 C   0  0  0  0  0  2  0  0  0  0  0  0
  -19.6550  -26.5680   21.6350 C   0  0  0  0  0  2  0  0  0  0  0  0
  -18.2690  -26.7210   22.2610 C   0  0  0  0  0  2  0  0  0  0  0  0
  -19.1970  -28.8440   23.3530 C   0  0  0  0  0  0  0  0  0  0  0  0
  -18.9680  -30.1120   23.9300 C   0  0  0  0  0  3  0  0  0  0  0  0
  -17.6600  -30.6090   24.0820 C   0  0  0  0  0  3  0  0  0  0  0  0
  -16.5610  -29.8390   23.6560 C   0  0  0  0  0  3  0  0  0  0  0  0
  -16.7760  -28.5710   23.0840 C   0  0  0  0  0  3  0  0  0  0  0  0
  -25.9080  -32.5360   23.8820 C   0  0  0  0  0  3  0  0  0  0  0  0
  -25.5810  -33.9350   24.1940 N   0  0  0  0  0  0  0  0  0  0  0  0
  -25.9190  -34.9820   23.4290 C   0  0  0  0  0  0  0  0  0  0  0  0
  -26.6090  -34.8730   22.4100 O   0  0  0  0  0  0  0  0  0  0  0  0
  -24.9600  -34.0920   24.9730 H   0  0  0  0  0  0  0  0  0  0  0  0
  -24.1870  -36.7630   23.0150 C   0  0  0  0  0  1  0  0  0  0  0  0
  -25.4110  -36.3700   23.8580 C   0  0  0  0  0  3  0  0  0  0  0  0
  -27.5390  -37.2530   24.7180 C   0  0  0  0  0  1  0  0  0  0  0  0
  -26.4370  -37.4350   23.7750 N   0  0  0  0  0  0  0  0  0  0  0  0
  -26.0200  -38.3440   23.9530 H   0  0  0  0  0  0  0  0  0  0  0  0
  -26.4090  -31.7800   25.1750 C   0  0  1  0  0  0  0  0  0  0  0  0
  -25.3030  -31.5500   26.2330 C   0  0  0  0  0  1  0  0  0  0  0  0
  -26.9940  -30.3980   24.7990 C   0  0  0  0  0  1  0  0  0  0  0  0
  -27.5530  -32.5790   25.8400 C   0  0  0  0  0  1  0  0  0  0  0  0
  1  4  1  0
  2  1  2  0
  2  5  1  0
  4 22  1  0
  4  3  2  0
  5 12  2  0
  6  9  1  0
  7  6  1  0
  7 13  1  0
  8 10  1  0
  9  8  1  0
  9 52  1  0
  9 11  1  1
 12  3  1  0
 13  5  1  0
 13  8  1  0
 14 22  1  0
 15 20  1  0
 16 17  1  0
 16 15  1  0
 18 17  1  0
 18 27  1  0
 18 19  1  0
 20 14  1  0
 20 19  1  0
 21 14  2  0
 22 23  1  0
 24 25  2  0
 25 44  1  0
 26 25  1  0
 26 29  1  0
 27 24  1  0
 27 28  1  0
 28 26  2  0
 29 30  1  0
 30 31  2  0
 32 35  1  0
 32 31  1  0
 33 32  2  0
 34 33  1  0
 34 29  2  0
 35 36  1  0
 36 37  1  0
 37 38  2  0
 39 38  1  0
 39 43  1  0
 40 39  2  0
 41 36  2  0
 41 40  1  0
 42 41  1  0
 44 45  1  0
 45 48  1  0
 45 47  1  0
 46 44  2  0
 49 24  1  0
 50 49  1  0
 51 49  1  0
 53 55  1  0
 53 52  1  0
 54 65  2  0
 55 60  1  0
 56 64  1  0
 56 66  1  0
 57 63  1  0
 57 59  1  0
 58 64  1  0
 59 60  2  0
 59 58  1  0
 61 55  2  0
 62 61  1  0
 62 57  2  0
 63 56  1  0
 64 54  1  0
 66 68  2  0
 67 66  1  0
 69 67  1  0
 70 79  2  0
 70 75  1  0
 71 67  1  0
 71 75  1  0
 72 71  1  0
 73 74  1  0
 73 72  1  0
 74 70  1  0
 75 76  2  0
 76 77  1  0
 78 77  2  0
 79 78  1  0
 80 54  1  0
 80 81  1  0
 80 90  1  0
 81 84  1  0
 82 86  1  0
 82 81  1  0
 83 82  2  0
 86 85  1  0
 88 86  1  0
 88 89  1  0
 88 87  1  0
 90 93  1  1
 90 91  1  0
 92 90  1  0
M  ISO  4  14 100  22 100  52 101  53 101
M  END
>  <TORSDO>  (81) 
F 17

>  <SCORE>  (81) 
-15.570

>  <name>  (81) 
81

>  <ligand_id>  (81) 
81

>  <original_smiles>  (81) 
[H]c1nc(N2C([H])([H])C([H])([H])C(C([H])([H])[H])(C([H])([H])Oc3c([H])c([H])c4c(c3[H])C([H])([H])N(C(=O)C([H])(N([H])C(=O)C([H])(N([H])C([H])([H])[H])C([H])([H])[H])C(C([H])([H])[H])(C([H])([H])[H])C([H])([H])[H])C([H])(C(=O)N([H])C3([H])c5c([H])c([H])c([H])c([H])c5C([H])([H])C([H])([H])C3([H])[H])C4([H])[H])C2([H])C([H])([H])[H])c([H])c([H])c1N([H])C(=O)N1C([H])([H])C([H])([H])C([H])([H])C([H])(n2nc(-c3c([H])c([H])c(Oc4c([H])c([H])c(F)c([H])c4F)c([H])c3[H])c(C(=O)N([H])[H])c2N([H])[H])C1([H])[H]

>  <smiles>  (81) 
[H]c1nc(N2C([H])([H])C([H])([H])C(C([H])([H])[H])(C([H])([H])Oc3c([H])c([H])c4c(c3[H])C([H])([H])N(C(=O)C([H])(N([H])C(=O)C([H])(N([H])C([H])([H])[H])C([H])([H])[H])C(C([H])([H])[H])(C([H])([H])[H])C([H])([H])[H])C([H])(C(=O)N([H])C3([H])c5c([H])c([H])c([H])c([H])c5C([H])([H])C([H])([H])C3([H])[H])C4([H])[H])C2([H])C([H])([H])[H])c([H])c([H])c1N([H])C(=O)N1C([H])([H])C([H])([H])C([H])([H])C([H])(n2nc(-c3c([H])c([H])c(Oc4c([H])c([H])c(F)c([H])c4F)c([H])c3[H])c(C(=O)N([H])[H])c2N([H])[H])C1([H])[H]

$$$$
82:0:0
     RDKit          3D

 93102  0  0  1  0  0  0  0  0999 V2000
  -28.7790  -23.0600   21.6270 C   0  0  0  0  0  2  0  0  0  0  0  0
  -29.3030  -21.5860   21.5910 C   0  0  0  0  0  2  0  0  0  0  0  0
  -28.9470  -22.3760   19.3800 C   0  0  0  0  0  2  0  0  0  0  0  0
  -29.0770  -23.7090   20.2520 C   0  0  2  0  0  0  0  0  0  0  0  0
  -30.5340  -24.2010   20.1860 C   0  0  0  0  0  1  0  0  0  0  0  0
  -29.2420  -21.1520   20.2020 N   0  0  0  0  0  0  0  0  0  0  0  0
  -30.0630  -19.7100   18.3880 C   0  0  0  0  0  3  0  0  0  0  0  0
  -30.4940  -17.3030   18.5980 C   0  0  0  0  0  3  0  0  0  0  0  0
  -29.6390  -18.5760   20.4940 C   0  0  0  0  0  3  0  0  0  0  0  0
  -30.4900  -18.4850   17.8340 C   0  0  0  0  0  0  0  0  0  0  0  0
  -29.6370  -19.8260   19.7330 C   0  0  0  0  0  0  0  0  0  0  0  0
  -30.0620  -17.2870   19.9440 C   0  0  0  0  0  0  0  0  0  0  0  0
  -30.9360  -18.4280   16.3830 C   0  0  0  0  0  1  0  0  0  0  0  0
  -30.7200  -14.8080   20.3640 C   0  0  0  0  0  0  0  0  0  0  0  0
  -30.5100  -12.5280   19.3840 C   0  0  0  0  0  2  0  0  0  0  0  0
  -29.5980  -12.6240   18.1410 C   0  0  0  0  0  2  0  0  0  0  0  0
  -28.1210  -12.4590   18.5470 C   0  0  0  0  0  2  0  0  0  0  0  0
  -27.7330  -13.3410   19.7630 C   0  0  0  0  0  3  0  0  0  0  0  0
  -28.7740  -13.2510   20.9020 C   0  0  0  0  0  2  0  0  0  0  0  0
  -30.0860  -13.5860   20.3320 N   0  0  0  0  0  0  0  0  0  0  0  0
  -31.9040  -14.8860   20.0230 O   0  0  0  0  0  0  0  0  0  0  0  0
  -29.9820  -15.9590   20.6170 N   0  0  0  0  0  0  0  0  0  0  0  0
  -29.1320  -15.7990   21.1370 H   0  0  0  0  0  0  0  0  0  0  0  0
  -25.3300  -13.9280   20.4420 C   0  0  0  0  0  0  0  0  0  0  0  0
  -24.2610  -13.1530   20.8040 C   0  0  0  0  0  0  0  0  0  0  0  0
  -24.7310  -11.8050   20.8010 C   0  0  0  0  0  0  0  0  0  0  0  0
  -26.3830  -13.0520   20.2350 N   0  0  0  0  0  0  0  0  0  0  0  0
  -26.0280  -11.7700   20.5140 N   0  0  0  0  0  0  0  0  0  0  0  0
  -24.0070  -10.5410   20.9980 C   0  0  0  0  0  0  0  0  0  0  0  0
  -24.4310   -9.5860   21.9460 C   0  0  0  0  0  3  0  0  0  0  0  0
  -23.7060   -8.3890   22.1300 C   0  0  0  0  0  3  0  0  0  0  0  0
  -22.5440   -8.1390   21.3640 C   0  0  0  0  0  0  0  0  0  0  0  0
  -22.1380   -9.0830   20.4040 C   0  0  0  0  0  3  0  0  0  0  0  0
  -22.8640  -10.2710   20.2190 C   0  0  0  0  0  3  0  0  0  0  0  0
  -21.7920   -6.9920   21.4550 O   0  0  0  0  0  0  0  0  0  0  0  0
  -21.7310   -6.2600   22.6140 C   0  0  0  0  0  0  0  0  0  0  0  0
  -21.2910   -6.8260   23.8300 C   0  0  0  0  0  3  0  0  0  0  0  0
  -21.1780   -6.0210   24.9810 C   0  0  0  0  0  3  0  0  0  0  0  0
  -21.4970   -4.6510   24.9180 C   0  0  0  0  0  0  0  0  0  0  0  0
  -21.9320   -4.0840   23.7050 C   0  0  0  0  0  3  0  0  0  0  0  0
  -22.0450   -4.8860   22.5580 C   0  0  0  0  0  0  0  0  0  0  0  0
  -22.4440   -4.3320   21.3870 F   0  0  0  0  0  0  0  0  0  0  0  0
  -21.3810   -3.8750   26.0200 F   0  0  0  0  0  0  0  0  0  0  0  0
  -22.8570  -13.6290   21.0430 C   0  0  0  0  0  0  0  0  0  0  0  0
  -22.1170  -12.9420   21.9080 N   0  0  0  0  0  0  0  0  0  0  0  0
  -22.4250  -14.6440   20.5010 O   0  0  0  0  0  0  0  0  0  0  0  0
  -22.4790  -12.1220   22.3720 H   0  0  0  0  0  0  0  0  0  0  0  0
  -21.1740  -13.2440   22.1090 H   0  0  0  0  0  0  0  0  0  0  0  0
  -25.4900  -15.2970   20.2500 N   0  0  0  0  0  0  0  0  0  0  0  0
  -24.7170  -15.9480   20.3430 H   0  0  0  0  0  0  0  0  0  0  0  0
  -26.3410  -15.7370   19.9230 H   0  0  0  0  0  0  0  0  0  0  0  0
  -28.1090  -24.9560   19.8410 C   0  0  0  0  0  2  0  0  0  0  0  0
  -28.3160  -26.4010   20.2220 O   0  0  0  0  0  0  0  0  0  0  0  0
  -24.6110  -31.9070   23.2120 C   0  0  0  0  0  0  0  0  0  0  0  0
  -27.2230  -27.3050   20.1530 C   0  0  0  0  0  0  0  0  0  0  0  0
  -23.4120  -30.5050   21.5750 C   0  0  0  0  0  3  0  0  0  0  0  0
  -24.8650  -28.9580   20.1460 C   0  0  0  0  0  0  0  0  0  0  0  0
  -25.9560  -30.8130   21.3980 C   0  0  0  0  0  2  0  0  0  0  0  0
  -26.0380  -29.4320   20.7470 C   0  0  0  0  0  0  0  0  0  0  0  0
  -27.2180  -28.6180   20.7430 C   0  0  0  0  0  3  0  0  0  0  0  0
  -26.0240  -26.9130   19.5110 C   0  0  0  0  0  3  0  0  0  0  0  0
  -24.8640  -27.7060   19.5190 C   0  0  0  0  0  3  0  0  0  0  0  0
  -23.6290  -29.8330   20.1950 C   0  0  0  0  0  2  0  0  0  0  0  0
  -24.6780  -31.0940   22.1170 N   0  0  0  0  0  0  0  0  0  0  0  0
  -23.5250  -32.1820   23.7450 O   0  0  0  0  0  0  0  0  0  0  0  0
  -22.7500  -29.4860   22.5350 C   0  0  0  0  0  0  0  0  0  0  0  0
  -21.4240  -29.3050   22.4080 N   0  0  0  0  0  0  0  0  0  0  0  0
  -23.4290  -28.8640   23.3550 O   0  0  0  0  0  0  0  0  0  0  0  0
  -20.9340  -29.8600   21.7210 H   0  0  0  0  0  0  0  0  0  0  0  0
  -18.0490  -28.1010   22.9160 C   0  0  0  0  0  0  0  0  0  0  0  0
  -20.6070  -28.3670   23.1820 C   0  0  0  0  0  3  0  0  0  0  0  0
  -20.7110  -26.9340   22.6070 C   0  0  0  0  0  2  0  0  0  0  0  0
  -19.6080  -26.6080   21.5960 C   0  0  0  0  0  2  0  0  0  0  0  0
  -18.2270  -26.7510   22.2410 C   0  0  0  0  0  2  0  0  0  0  0  0
  -19.1660  -28.8660   23.3440 C   0  0  0  0  0  0  0  0  0  0  0  0
  -18.9440  -30.1280   23.9350 C   0  0  0  0  0  3  0  0  0  0  0  0
  -17.6380  -30.6240   24.1050 C   0  0  0  0  0  3  0  0  0  0  0  0
  -16.5360  -29.8570   23.6940 C   0  0  0  0  0  3  0  0  0  0  0  0
  -16.7410  -28.5970   23.1040 C   0  0  0  0  0  3  0  0  0  0  0  0
  -25.8900  -32.5460   23.8330 C   0  0  0  0  0  3  0  0  0  0  0  0
  -25.5720  -33.9430   24.1630 N   0  0  0  0  0  0  0  0  0  0  0  0
  -25.9050  -35.0000   23.4100 C   0  0  0  0  0  0  0  0  0  0  0  0
  -26.5820  -34.9020   22.3820 O   0  0  0  0  0  0  0  0  0  0  0  0
  -24.9720  -34.0930   24.9610 H   0  0  0  0  0  0  0  0  0  0  0  0
  -24.1840  -36.7980   23.0440 C   0  0  0  0  0  1  0  0  0  0  0  0
  -25.4130  -36.3870   23.8690 C   0  0  0  0  0  3  0  0  0  0  0  0
  -27.5370  -37.2690   24.7340 C   0  0  0  0  0  1  0  0  0  0  0  0
  -26.4480  -37.4390   23.7740 N   0  0  0  0  0  0  0  0  0  0  0  0
  -26.0420  -38.3590   23.9170 H   0  0  0  0  0  0  0  0  0  0  0  0
  -26.4070  -31.7790   25.1120 C   0  0  1  0  0  0  0  0  0  0  0  0
  -25.3150  -31.5430   26.1800 C   0  0  0  0  0  1  0  0  0  0  0  0
  -26.9960  -30.4020   24.7270 C   0  0  0  0  0  1  0  0  0  0  0  0
  -27.5540  -32.5800   25.7730 C   0  0  0  0  0  1  0  0  0  0  0  0
  2  1  1  0
  3  6  1  0
  3  4  1  0
  4  5  1  1
  4  1  1  0
  6  2  1  0
  7 11  1  0
  8 12  2  0
 10  7  2  0
 10  8  1  0
 11  6  1  0
 11  9  2  0
 12  9  1  0
 12 22  1  0
 13 10  1  0
 14 22  1  0
 15 20  1  0
 16 17  1  0
 16 15  1  0
 18 17  1  0
 18 27  1  0
 18 19  1  0
 20 14  1  0
 20 19  1  0
 21 14  2  0
 22 23  1  0
 24 25  2  0
 25 44  1  0
 26 25  1  0
 26 29  1  0
 27 24  1  0
 27 28  1  0
 28 26  2  0
 29 30  1  0
 30 31  2  0
 32 35  1  0
 32 31  1  0
 33 32  2  0
 34 33  1  0
 34 29  2  0
 35 36  1  0
 36 37  1  0
 37 38  2  0
 39 38  1  0
 39 43  1  0
 40 39  2  0
 41 36  2  0
 41 40  1  0
 42 41  1  0
 44 45  1  0
 45 48  1  0
 45 47  1  0
 46 44  2  0
 49 50  1  0
 49 24  1  0
 51 49  1  0
 52 53  1  0
 52  4  1  0
 54 65  2  0
 55 53  1  0
 55 60  1  0
 56 64  1  0
 56 66  1  0
 57 63  1  0
 57 59  1  0
 58 64  1  0
 59 58  1  0
 60 59  2  0
 61 62  1  0
 61 55  2  0
 62 57  2  0
 63 56  1  0
 64 54  1  0
 66 68  2  0
 67 66  1  0
 69 67  1  0
 70 79  2  0
 70 75  1  0
 71 67  1  0
 71 75  1  0
 72 71  1  0
 73 74  1  0
 73 72  1  0
 74 70  1  0
 75 76  2  0
 76 77  1  0
 78 77  2  0
 79 78  1  0
 80 54  1  0
 80 81  1  0
 80 90  1  0
 81 84  1  0
 82 86  1  0
 82 81  1  0
 83 82  2  0
 86 85  1  0
 88 86  1  0
 88 89  1  0
 88 87  1  0
 90 93  1  1
 90 91  1  0
 92 90  1  0
M  ISO  4  14 100  22 100  52 101  53 101
M  END
>  <TORSDO>  (82) 
F 18

>  <SCORE>  (82) 
-14.907

>  <name>  (82) 
82

>  <ligand_id>  (82) 
82

>  <original_smiles>  (82) 
[H]c1c([H])c([H])c2c(c1[H])C([H])([H])C([H])([H])C([H])([H])C2([H])N([H])C(=O)C1([H])N(C(=O)C([H])(N([H])C(=O)C([H])(N([H])C([H])([H])[H])C([H])([H])[H])C(C([H])([H])[H])(C([H])([H])[H])C([H])([H])[H])C([H])([H])c2c([H])c(OC([H])([H])C3(C([H])([H])[H])C([H])([H])N(c4c([H])c(N([H])C(=O)N5C([H])([H])C([H])([H])C([H])([H])C([H])(n6nc(-c7c([H])c([H])c(Oc8c([H])c([H])c(F)c([H])c8F)c([H])c7[H])c(C(=O)N([H])[H])c6N([H])[H])C5([H])[H])c([H])c(C([H])([H])[H])c4[H])C([H])([H])C3([H])[H])c([H])c([H])c2C1([H])[H]

>  <smiles>  (82) 
[H]c1c([H])c([H])c2c(c1[H])C([H])([H])C([H])([H])C([H])([H])C2([H])N([H])C(=O)C1([H])N(C(=O)C([H])(N([H])C(=O)C([H])(N([H])C([H])([H])[H])C([H])([H])[H])C(C([H])([H])[H])(C([H])([H])[H])C([H])([H])[H])C([H])([H])c2c([H])c(OC([H])([H])C3(C([H])([H])[H])C([H])([H])N(c4c([H])c(N([H])C(=O)N5C([H])([H])C([H])([H])C([H])([H])C([H])(n6nc(-c7c([H])c([H])c(Oc8c([H])c([H])c(F)c([H])c8F)c([H])c7[H])c(C(=O)N([H])[H])c6N([H])[H])C5([H])[H])c([H])c(C([H])([H])[H])c4[H])C([H])([H])C3([H])[H])c([H])c([H])c2C1([H])[H]

$$$$
83:0:0
     RDKit          3D

 93102  0  0  1  0  0  0  0  0999 V2000
  -28.7960  -23.8920   20.2630 C   0  0  0  0  0  0  0  0  0  0  0  0
  -28.5520  -25.1400   19.6700 C   0  0  0  0  0  3  0  0  0  0  0  0
  -28.9030  -23.5070   21.7330 C   0  0  0  0  0  3  0  0  0  0  0  0
  -29.0580  -22.5350   19.5310 C   0  0  0  0  0  3  0  0  0  0  0  0
  -29.1950  -21.9550   21.8360 C   0  0  0  0  0  3  0  0  0  0  0  0
  -28.5680  -25.2620   18.1540 C   0  0  0  0  0  1  0  0  0  0  0  0
  -29.2970  -21.3970   20.4860 N   0  0  0  0  0  0  0  0  0  0  0  0
  -30.3510  -18.6080   18.2100 C   0  0  0  0  0  3  0  0  0  0  0  0
  -30.0310  -19.8570   18.7550 C   0  0  0  0  0  3  0  0  0  0  0  0
  -29.6900  -18.7770   20.8980 C   0  0  0  0  0  3  0  0  0  0  0  0
  -30.3230  -17.4210   18.9670 C   0  0  0  0  0  0  0  0  0  0  0  0
  -29.6610  -20.0210   20.1050 C   0  0  0  0  0  0  0  0  0  0  0  0
  -30.0370  -17.4420   20.3650 C   0  0  0  0  0  0  0  0  0  0  0  0
  -30.5030  -16.1390   18.1760 C   0  0  0  0  0  1  0  0  0  0  0  0
  -30.7590  -14.9740   21.0670 C   0  0  0  0  0  0  0  0  0  0  0  0
  -30.7290  -12.6080   20.2340 C   0  0  0  0  0  2  0  0  0  0  0  0
  -29.9510  -12.5240   18.9000 C   0  0  0  0  0  2  0  0  0  0  0  0
  -28.4340  -12.3980   19.1440 C   0  0  0  0  0  2  0  0  0  0  0  0
  -27.9050  -13.3510   20.2500 C   0  0  0  0  0  3  0  0  0  0  0  0
  -28.8190  -13.3680   21.4940 C   0  0  0  0  0  2  0  0  0  0  0  0
  -30.1660  -13.7250   21.0360 N   0  0  0  0  0  0  0  0  0  0  0  0
  -31.9800  -15.0530   20.8990 O   0  0  0  0  0  0  0  0  0  0  0  0
  -29.9580  -16.1270   21.1100 N   0  0  0  0  0  0  0  0  0  0  0  0
  -29.0590  -15.9600   21.5360 H   0  0  0  0  0  0  0  0  0  0  0  0
  -25.4450  -13.9340   20.6840 C   0  0  0  0  0  0  0  0  0  0  0  0
  -24.3500  -13.1600   20.9530 C   0  0  0  0  0  0  0  0  0  0  0  0
  -24.8250  -11.8130   21.0220 C   0  0  0  0  0  0  0  0  0  0  0  0
  -26.5160  -13.0600   20.5960 N   0  0  0  0  0  0  0  0  0  0  0  0
  -26.1430  -11.7820   20.8670 N   0  0  0  0  0  0  0  0  0  0  0  0
  -24.0900  -10.5480   21.1660 C   0  0  0  0  0  0  0  0  0  0  0  0
  -24.4460   -9.5940   22.1460 C   0  0  0  0  0  3  0  0  0  0  0  0
  -23.7110   -8.3960   22.2770 C   0  0  0  0  0  3  0  0  0  0  0  0
  -22.6070   -8.1420   21.4300 C   0  0  0  0  0  0  0  0  0  0  0  0
  -22.2720   -9.0850   20.4400 C   0  0  0  0  0  3  0  0  0  0  0  0
  -23.0070  -10.2750   20.3070 C   0  0  0  0  0  3  0  0  0  0  0  0
  -21.8510   -6.9950   21.4690 O   0  0  0  0  0  0  0  0  0  0  0  0
  -21.7310   -6.2520   22.6150 C   0  0  0  0  0  0  0  0  0  0  0  0
  -21.2010   -6.7980   23.8050 C   0  0  0  0  0  3  0  0  0  0  0  0
  -21.0300   -5.9790   24.9400 C   0  0  0  0  0  3  0  0  0  0  0  0
  -21.3770   -4.6160   24.8850 C   0  0  0  0  0  0  0  0  0  0  0  0
  -21.9000   -4.0700   23.6990 C   0  0  0  0  0  3  0  0  0  0  0  0
  -22.0730   -4.8850   22.5660 C   0  0  0  0  0  0  0  0  0  0  0  0
  -22.5560   -4.3490   21.4200 F   0  0  0  0  0  0  0  0  0  0  0  0
  -21.2060   -3.8290   25.9720 F   0  0  0  0  0  0  0  0  0  0  0  0
  -22.9270  -13.6290   21.0450 C   0  0  0  0  0  0  0  0  0  0  0  0
  -22.1110  -12.9560   21.8480 N   0  0  0  0  0  0  0  0  0  0  0  0
  -22.5430  -14.6270   20.4370 O   0  0  0  0  0  0  0  0  0  0  0  0
  -22.4320  -12.1490   22.3630 H   0  0  0  0  0  0  0  0  0  0  0  0
  -21.1510  -13.2510   21.9510 H   0  0  0  0  0  0  0  0  0  0  0  0
  -25.6190  -15.3000   20.4800 N   0  0  0  0  0  0  0  0  0  0  0  0
  -24.8410  -15.9510   20.4850 H   0  0  0  0  0  0  0  0  0  0  0  0
  -26.4920  -15.7330   20.2080 H   0  0  0  0  0  0  0  0  0  0  0  0
  -28.4290  -26.4330   20.2850 O   0  0  0  0  0  0  0  0  0  0  0  0
  -24.5080  -31.8800   23.0840 C   0  0  0  0  0  0  0  0  0  0  0  0
  -27.3130  -27.3060   20.1370 C   0  0  0  0  0  0  0  0  0  0  0  0
  -23.3800  -30.4200   21.4450 C   0  0  0  0  0  3  0  0  0  0  0  0
  -24.9040  -28.8930   20.0600 C   0  0  0  0  0  0  0  0  0  0  0  0
  -25.9160  -30.8000   21.3050 C   0  0  0  0  0  2  0  0  0  0  0  0
  -26.0500  -29.4120   20.6730 C   0  0  0  0  0  0  0  0  0  0  0  0
  -27.2540  -28.6300   20.7010 C   0  0  0  0  0  3  0  0  0  0  0  0
  -26.1330  -26.8540   19.5040 C   0  0  0  0  0  3  0  0  0  0  0  0
  -24.9530  -27.6230   19.4630 C   0  0  0  0  0  3  0  0  0  0  0  0
  -23.6400  -29.7330   20.0780 C   0  0  0  0  0  2  0  0  0  0  0  0
  -24.6190  -31.0540   22.0010 N   0  0  0  0  0  0  0  0  0  0  0  0
  -23.4050  -32.1310   23.5960 O   0  0  0  0  0  0  0  0  0  0  0  0
  -22.7290  -29.4000   22.4100 C   0  0  0  0  0  0  0  0  0  0  0  0
  -21.4040  -29.2120   22.2940 N   0  0  0  0  0  0  0  0  0  0  0  0
  -23.4180  -28.7800   23.2250 O   0  0  0  0  0  0  0  0  0  0  0  0
  -20.9050  -29.7630   21.6090 H   0  0  0  0  0  0  0  0  0  0  0  0
  -18.0370  -27.9980   22.8390 C   0  0  0  0  0  0  0  0  0  0  0  0
  -20.5990  -28.2650   23.0690 C   0  0  0  0  0  3  0  0  0  0  0  0
  -20.6960  -26.8380   22.4800 C   0  0  0  0  0  2  0  0  0  0  0  0
  -19.5790  -26.5220   21.4810 C   0  0  0  0  0  2  0  0  0  0  0  0
  -18.2070  -26.6550   22.1470 C   0  0  0  0  0  2  0  0  0  0  0  0
  -19.1600  -28.7600   23.2580 C   0  0  0  0  0  0  0  0  0  0  0  0
  -18.9460  -30.0160   23.8660 C   0  0  0  0  0  3  0  0  0  0  0  0
  -17.6430  -30.5100   24.0580 C   0  0  0  0  0  3  0  0  0  0  0  0
  -16.5340  -29.7460   23.6550 C   0  0  0  0  0  3  0  0  0  0  0  0
  -16.7320  -28.4900   23.0510 C   0  0  0  0  0  3  0  0  0  0  0  0
  -25.7560  -32.5640   23.7220 C   0  0  0  0  0  3  0  0  0  0  0  0
  -25.3720  -33.9340   24.0920 N   0  0  0  0  0  0  0  0  0  0  0  0
  -25.7270  -35.0360   23.4160 C   0  0  0  0  0  0  0  0  0  0  0  0
  -26.4800  -35.0060   22.4390 O   0  0  0  0  0  0  0  0  0  0  0  0
  -24.7090  -34.0300   24.8470 H   0  0  0  0  0  0  0  0  0  0  0  0
  -24.0090  -36.8220   22.9830 C   0  0  0  0  0  1  0  0  0  0  0  0
  -25.1600  -36.3850   23.9020 C   0  0  0  0  0  3  0  0  0  0  0  0
  -27.1710  -37.2450   25.0190 C   0  0  0  0  0  1  0  0  0  0  0  0
  -26.1750  -37.4590   23.9740 N   0  0  0  0  0  0  0  0  0  0  0  0
  -25.7330  -38.3600   24.1360 H   0  0  0  0  0  0  0  0  0  0  0  0
  -26.3170  -31.7890   24.9770 C   0  0  1  0  0  0  0  0  0  0  0  0
  -25.2430  -31.4740   26.0440 C   0  0  0  0  0  1  0  0  0  0  0  0
  -26.9620  -30.4490   24.5520 C   0  0  0  0  0  1  0  0  0  0  0  0
  -27.4330  -32.6210   25.6520 C   0  0  0  0  0  1  0  0  0  0  0  0
  1  3  1  0
  2  6  1  0
  2  1  1  0
  2 53  1  0
  3  5  2  0
  4  1  2  0
  4  7  1  0
  7  5  1  0
  8  9  2  0
  8 11  1  0
  9 12  1  0
 11 13  2  0
 12  7  1  0
 12 10  2  0
 13 10  1  0
 13 23  1  0
 14 11  1  0
 15 23  1  0
 16 21  1  0
 17 18  1  0
 17 16  1  0
 19 18  1  0
 19 28  1  0
 19 20  1  0
 21 15  1  0
 21 20  1  0
 22 15  2  0
 23 24  1  0
 25 26  2  0
 26 27  1  0
 26 45  1  0
 27 30  1  0
 28 25  1  0
 28 29  1  0
 29 27  2  0
 30 31  1  0
 31 32  2  0
 33 36  1  0
 33 32  1  0
 34 33  2  0
 35 34  1  0
 35 30  2  0
 36 37  1  0
 37 38  1  0
 38 39  2  0
 40 39  1  0
 40 44  1  0
 41 40  2  0
 42 37  2  0
 42 41  1  0
 43 42  1  0
 45 46  1  0
 46 49  1  0
 46 48  1  0
 47 45  2  0
 50 51  1  0
 50 25  1  0
 52 50  1  0
 54 65  2  0
 55 53  1  0
 55 60  1  0
 56 64  1  0
 56 66  1  0
 57 63  1  0
 57 59  1  0
 58 64  1  0
 59 60  2  0
 59 58  1  0
 61 55  2  0
 62 61  1  0
 62 57  2  0
 63 56  1  0
 64 54  1  0
 66 68  2  0
 67 66  1  0
 69 67  1  0
 70 79  2  0
 70 75  1  0
 71 67  1  0
 71 75  1  0
 72 71  1  0
 73 74  1  0
 73 72  1  0
 74 70  1  0
 75 76  2  0
 76 77  1  0
 78 77  2  0
 79 78  1  0
 80 54  1  0
 80 81  1  0
 80 90  1  0
 81 84  1  0
 82 86  1  0
 82 81  1  0
 83 82  2  0
 86 85  1  0
 86 88  1  0
 88 89  1  0
 88 87  1  0
 90 93  1  1
 90 91  1  0
 92 90  1  0
M  ISO  4   2 101  15 100  23 100  53 101
M  END
>  <TORSDO>  (83) 
F 17

>  <SCORE>  (83) 
-14.525

>  <name>  (83) 
83

>  <ligand_id>  (83) 
83

>  <original_smiles>  (83) 
[H]c1c([H])c([H])c2c(c1[H])C([H])([H])C([H])([H])C([H])([H])C2([H])N([H])C(=O)C1([H])N(C(=O)C([H])(N([H])C(=O)C([H])(N([H])C([H])([H])[H])C([H])([H])[H])C(C([H])([H])[H])(C([H])([H])[H])C([H])([H])[H])C([H])([H])c2c([H])c(OC(=C3C([H])([H])N(c4c([H])c([H])c(C([H])([H])[H])c(N([H])C(=O)N5C([H])([H])C([H])([H])C([H])([H])C([H])(n6nc(-c7c([H])c([H])c(Oc8c([H])c([H])c(F)c([H])c8F)c([H])c7[H])c(C(=O)N([H])[H])c6N([H])[H])C5([H])[H])c4[H])C([H])([H])C3([H])[H])C([H])([H])[H])c([H])c([H])c2C1([H])[H]

>  <smiles>  (83) 
[H]c1c([H])c([H])c2c(c1[H])C([H])([H])C([H])([H])C([H])([H])C2([H])N([H])C(=O)C1([H])N(C(=O)C([H])(N([H])C(=O)C([H])(N([H])C([H])([H])[H])C([H])([H])[H])C(C([H])([H])[H])(C([H])([H])[H])C([H])([H])[H])C([H])([H])c2c([H])c(OC(=C3C([H])([H])N(c4c([H])c([H])c(C([H])([H])[H])c(N([H])C(=O)N5C([H])([H])C([H])([H])C([H])([H])C([H])(n6nc(-c7c([H])c([H])c(Oc8c([H])c([H])c(F)c([H])c8F)c([H])c7[H])c(C(=O)N([H])[H])c6N([H])[H])C5([H])[H])c4[H])C([H])([H])C3([H])[H])C([H])([H])[H])c([H])c([H])c2C1([H])[H]

$$$$
84:0:0
     RDKit          3D

 95 91  0  0  1  0  0  0  0  0999 V2000
  -22.0640  -29.3340   21.5200 C   0  0  0  0  0 15  0  0  0  0  0  0
  -22.2470  -29.1620   23.8450 C   0  0  0  0  0  2  0  0  0  0  0  0
  -22.2060  -30.1080   24.6200 O   0  0  0  0  0  0  0  0  0  0  0  0
  -24.4260  -27.8920   25.5040 C   0  0  0  0  0  1  0  0  0  0  0  0
  -22.5670  -26.3860   25.4600 C   0  0  0  0  0  1  0  0  0  0  0  0
  -23.3590  -27.3160   24.4750 C   0  0  0  0  0  2  0  0  0  0  0  0
  -24.3100  -25.7900   22.7880 C   0  0  0  0  0 15  0  0  0  0  0  0
  -24.5090  -25.2840   20.6960 O   0  0  0  0  0  1  0  0  0  0  0  0
  -24.8960  -31.7480   22.8710 C   0  0  0  0  0  0  0  0  0  0  0  0
  -25.5670  -25.7090   19.2940 C   0  0  0  0  0  2  0  0  0  0  0  0
  -24.0630  -30.0810   21.4380 C   0  0  0  0  0  3  0  0  0  0  0  0
  -25.0080  -29.3350   19.0180 C   0  0  0  0  0  3  0  0  0  0  0  0
  -26.3910  -30.5100   20.9780 C   0  0  0  0  0  2  0  0  0  0  0  0
  -26.3930  -29.2000   19.9800 C   0  0  0  0  0  3  0  0  0  0  0  0
  -27.1530  -27.5580   20.2630 C   0  0  0  0  0  2  0  0  0  0  0  0
  -24.3730  -26.4230   18.2980 C   0  0  0  0  0  3  0  0  0  0  0  0
  -24.1940  -28.1170   18.1100 C   0  0  0  0  0  3  0  0  0  0  0  0
  -24.0350  -30.2980   19.7810 C   0  0  0  0  0  2  0  0  0  0  0  0
  -25.1470  -30.8630   21.8260 N   0  0  0  0  0  0  0  0  0  0  0  0
  -23.7810  -31.9790   23.4030 O   0  0  0  0  0  0  0  0  0  0  0  0
  -23.9920  -28.5320   22.3530 C   0  0  0  0  0  0  0  0  0  0  0  0
  -22.7150  -27.2090   22.1150 N   0  0  0  0  0  0  0  0  0  0  0  0
  -24.8720  -28.5150   23.1340 O   0  0  0  0  0  0  0  0  0  0  0  0
  -22.8600  -27.1910   21.0800 H   0  0  0  0  0  0  0  0  0  0  0  0
  -18.2640  -27.0990   22.1000 C   0  0  0  0  0  0  0  0  0  0  0  0
  -20.9760  -26.9030   22.3710 C   0  0  0  0  0  3  0  0  0  0  0  0
  -20.8220  -25.6280   21.6960 C   0  0  0  0  0  2  0  0  0  0  0  0
  -19.7670  -25.7840   20.6540 C   0  0  0  0  0  2  0  0  0  0  0  0
  -18.4320  -25.7850   21.3900 C   0  0  0  0  0  2  0  0  0  0  0  0
  -19.4450  -27.7620   22.5700 C   0  0  0  0  0  0  0  0  0  0  0  0
  -18.9940  -28.9010   23.3930 C   0  0  0  0  0  3  0  0  0  0  0  0
  -17.6820  -29.4420   23.5030 C   0  0  0  0  0  3  0  0  0  0  0  0
  -16.6190  -28.7480   22.9270 C   0  0  0  0  0  3  0  0  0  0  0  0
  -16.9250  -27.5540   22.2630 C   0  0  0  0  0  3  0  0  0  0  0  0
  -26.0660  -32.5010   23.4640 C   0  0  0  0  0  3  0  0  0  0  0  0
  -25.6170  -33.8180   23.9350 N   0  0  0  0  0  0  0  0  0  0  0  0
  -25.7700  -34.9600   23.2590 C   0  0  0  0  0  0  0  0  0  0  0  0
  -26.3260  -34.9980   22.1580 O   0  0  0  0  0  0  0  0  0  0  0  0
  -25.1530  -33.8530   24.8270 H   0  0  0  0  0  0  0  0  0  0  0  0
  -23.9450  -36.7150   23.2010 C   0  0  0  0  0  1  0  0  0  0  0  0
  -25.2370  -36.2590   23.9050 C   0  0  0  0  0  3  0  0  0  0  0  0
  -27.3960  -37.1390   24.7070 C   0  0  0  0  0  1  0  0  0  0  0  0
  -26.2170  -37.3640   23.8770 N   0  0  0  0  0  0  0  0  0  0  0  0
  -25.7750  -38.2310   24.1630 H   0  0  0  0  0  0  0  0  0  0  0  0
  -26.7020  -31.6790   24.6410 C   0  0  1  0  0  0  0  0  0  0  0  0
  -25.7330  -31.2930   25.8040 C   0  0  0  0  0  1  0  0  0  0  0  0
  -27.4180  -30.4090   24.1360 C   0  0  0  0  0  1  0  0  0  0  0  0
  -27.8490  -32.5080   25.2440 C   0  0  0  0  0  1  0  0  0  0  0  0
  -23.3710  -28.1430   20.2940 N   0  0  0  0  0  1  0  0  0  0  0  0
  -23.3430  -28.4940   19.3460 H   0  0  0  0  0  0  0  0  0  0  0  0
  -27.7320  -26.1170   18.2400 C   0  0  0  0  0  3  0  0  0  0  0  0
  -28.1140  -24.8770   19.2210 C   0  0  0  0  0  3  0  0  0  0  0  0
  -26.5870  -27.2800   18.2820 C   0  0  0  0  0  1  0  0  0  0  0  0
  -26.8080  -25.8160   21.5230 C   0  0  0  0  0 15  0  0  0  0  0  0
  -27.6860  -24.2100   20.6210 C   0  0  0  0  0  1  0  0  0  0  0  0
  -25.2500  -27.5130   20.4740 C   0  0  0  0  0  1  0  0  0  0  0  0
  -28.4460  -21.7910   20.7850 C   0  0  0  0  0 15  0  0  0  0  0  0
  -29.7400  -17.6480   20.3270 C   0  0  0  0  0  2  0  0  0  0  0  0
  -30.4410  -14.7320   19.5210 C   0  0  0  0  0  2  0  0  0  0  0  0
  -29.9230  -13.5720   18.5050 C   0  0  0  0  0  2  0  0  0  0  0  0
  -28.6520  -12.8380   18.9400 C   0  0  0  0  0  2  0  0  0  0  0  0
  -27.8530  -13.8470   19.7670 C   0  0  0  0  0  3  0  0  0  0  0  0
  -28.6510  -14.8160   20.7720 C   0  0  0  0  0  2  0  0  0  0  0  0
  -29.4810  -15.9770   20.0950 N   0  0  0  0  0  0  0  0  0  0  0  0
  -30.9990  -17.3310   20.3770 O   0  0  0  0  0  1  0  0  0  0  0  0
  -28.9230  -19.4650   20.3610 N   0  0  0  0  0  1  0  0  0  0  0  0
  -28.0900  -19.2290   19.8250 H   0  0  0  0  0  0  0  0  0  0  0  0
  -25.4770  -14.1530   20.4810 C   0  0  0  0  0  0  0  0  0  0  0  0
  -24.4440  -13.3370   20.8200 C   0  0  0  0  0  0  0  0  0  0  0  0
  -24.9510  -12.0000   20.7750 C   0  0  0  0  0  0  0  0  0  0  0  0
  -26.5670  -13.3430   20.2660 N   0  0  0  0  0  0  0  0  0  0  0  0
  -26.2620  -12.0220   20.4760 N   0  0  0  0  0  0  0  0  0  0  0  0
  -24.2160  -10.7280   20.9500 C   0  0  0  0  0  0  0  0  0  0  0  0
  -24.5880   -9.7730   21.9220 C   0  0  0  0  0  3  0  0  0  0  0  0
  -23.8320   -8.5900   22.1000 C   0  0  0  0  0  3  0  0  0  0  0  0
  -22.6860   -8.3480   21.3050 C   0  0  0  0  0  0  0  0  0  0  0  0
  -22.3270   -9.2930   20.3260 C   0  0  0  0  0  3  0  0  0  0  0  0
  -23.0840  -10.4650   20.1480 C   0  0  0  0  0  3  0  0  0  0  0  0
  -21.9120   -7.2140   21.3850 O   0  0  0  0  0  0  0  0  0  0  0  0
  -21.7740   -6.5100   22.5560 C   0  0  0  0  0  0  0  0  0  0  0  0
  -21.2680   -7.1110   23.7290 C   0  0  0  0  0  3  0  0  0  0  0  0
  -21.0770   -6.3360   24.8900 C   0  0  0  0  0  3  0  0  0  0  0  0
  -21.3810   -4.9620   24.8810 C   0  0  0  0  0  0  0  0  0  0  0  0
  -21.8790   -4.3610   23.7110 C   0  0  0  0  0  3  0  0  0  0  0  0
  -22.0710   -5.1320   22.5510 C   0  0  0  0  0  0  0  0  0  0  0  0
  -22.5290   -4.5410   21.4220 F   0  0  0  0  0  0  0  0  0  0  0  0
  -21.1940   -4.2170   25.9950 F   0  0  0  0  0  0  0  0  0  0  0  0
  -23.0370  -13.7950   21.0690 C   0  0  0  0  0  0  0  0  0  0  0  0
  -22.3110  -13.1020   21.9370 N   0  0  0  0  0  0  0  0  0  0  0  0
  -22.5980  -14.8150   20.5400 O   0  0  0  0  0  0  0  0  0  0  0  0
  -22.6850  -12.2830   22.3940 H   0  0  0  0  0  0  0  0  0  0  0  0
  -21.3650  -13.3880   22.1480 H   0  0  0  0  0  0  0  0  0  0  0  0
  -25.5640  -15.5310   20.3010 N   0  0  0  0  0  0  0  0  0  0  0  0
  -24.7320  -16.1100   20.3670 H   0  0  0  0  0  0  0  0  0  0  0  0
  -26.3820  -16.0440   20.0080 H   0  0  0  0  0  0  0  0  0  0  0  0
  2  3  2  0
  6  5  1  0
  6  4  1  0
  9 20  2  0
 10  8  1  0
 11 19  1  0
 11 21  1  0
 12 17  1  0
 12 18  1  0
 12 14  1  0
 13 19  1  0
 14 15  1  0
 14 13  1  0
 15 56  1  0
 16 10  1  0
 17 16  2  0
 18 11  1  0
 19  9  1  0
 21 23  2  0
 22 21  1  0
 24 22  1  0
 25 34  2  0
 25 30  1  0
 26 22  1  0
 26 30  1  0
 27 26  1  0
 28 29  1  0
 28 27  1  0
 29 25  1  0
 30 31  2  0
 31 32  1  0
 33 32  2  0
 34 33  1  0
 35  9  1  0
 35 36  1  0
 35 45  1  0
 36 39  1  0
 37 41  1  0
 37 36  1  0
 38 37  2  0
 41 40  1  0
 43 41  1  0
 43 44  1  0
 43 42  1  0
 45 48  1  1
 45 46  1  0
 47 45  1  0
 50 49  1  0
 51 53  1  0
 51 52  2  0
 52 55  1  0
 58 65  1  0
 59 64  1  0
 60 61  1  0
 60 59  1  0
 62 61  1  0
 62 71  1  0
 62 63  1  0
 64 58  1  0
 64 63  1  0
 67 66  1  0
 68 69  2  0
 69 88  1  0
 70 69  1  0
 70 73  1  0
 71 72  1  0
 71 68  1  0
 72 70  2  0
 73 74  1  0
 74 75  2  0
 76 79  1  0
 76 75  1  0
 77 76  2  0
 78 77  1  0
 78 73  2  0
 79 80  1  0
 80 81  1  0
 81 82  2  0
 83 82  1  0
 83 87  1  0
 84 83  2  0
 85 80  2  0
 85 84  1  0
 86 85  1  0
 88 89  1  0
 89 92  1  0
 89 91  1  0
 90 88  2  0
 93 94  1  0
 93 68  1  0
 95 93  1  0
M  ISO  4   7 101   8 101  58 100  66 100
M  END
>  <TORSDO>  (84) 
F 22

>  <SCORE>  (84) 
-14.501

>  <name>  (84) 
84

>  <ligand_id>  (84) 
84

>  <original_smiles>  (84) 
[H]c1c([H])c(N([H])C([H])([H])C(=O)C(C([H])([H])[H])(C([H])([H])[H])C([H])([H])Oc2c([H])c([H])c3c(c2[H])C([H])([H])N(C(=O)C([H])(N([H])C(=O)C([H])(N([H])C([H])([H])[H])C([H])([H])[H])C(C([H])([H])[H])(C([H])([H])[H])C([H])([H])[H])C([H])(C(=O)N([H])C2([H])c4c([H])c([H])c([H])c([H])c4C([H])([H])C([H])([H])C2([H])[H])C3([H])[H])c([H])c(C([H])([H])N([H])C(=O)N2C([H])([H])C([H])([H])C([H])([H])C([H])(n3nc(-c4c([H])c([H])c(Oc5c([H])c([H])c(F)c([H])c5F)c([H])c4[H])c(C(=O)N([H])[H])c3N([H])[H])C2([H])[H])c1[H]

>  <smiles>  (84) 
[H]c1c([H])c(N([H])C([H])([H])C(=O)C(C([H])([H])[H])(C([H])([H])[H])C([H])([H])Oc2c([H])c([H])c3c(c2[H])C([H])([H])N(C(=O)C([H])(N([H])C(=O)C([H])(N([H])C([H])([H])[H])C([H])([H])[H])C(C([H])([H])[H])(C([H])([H])[H])C([H])([H])[H])C([H])(C(=O)N([H])C2([H])c4c([H])c([H])c([H])c([H])c4C([H])([H])C([H])([H])C2([H])[H])C3([H])[H])c([H])c(C([H])([H])N([H])C(=O)N2C([H])([H])C([H])([H])C([H])([H])C([H])(n3nc(-c4c([H])c([H])c(Oc5c([H])c([H])c(F)c([H])c5F)c([H])c4[H])c(C(=O)N([H])[H])c3N([H])[H])C2([H])[H])c1[H]

$$$$
85:0:0
     RDKit          3D

 93102  0  0  1  0  0  0  0  0999 V2000
  -29.4230  -21.4600   19.0210 C   0  0  0  0  0  2  0  0  0  0  0  0
  -28.1350  -21.1770   21.1480 C   0  0  0  0  0  2  0  0  0  0  0  0
  -28.4680  -22.5770   18.5500 C   0  0  0  0  0  2  0  0  0  0  0  0
  -27.1440  -22.2850   20.7280 C   0  0  0  0  0  2  0  0  0  0  0  0
  -28.6860  -20.4420   19.9140 C   0  0  0  0  0  3  0  0  0  0  0  0
  -27.7200  -23.2990   19.7030 C   0  0  0  0  0  3  0  0  0  0  0  0
  -30.8410  -19.0320   20.3090 C   0  0  0  0  0  3  0  0  0  0  0  0
  -31.2310  -17.6790   20.5550 C   0  0  0  0  0  3  0  0  0  0  0  0
  -29.4810  -19.2040   20.2390 C   0  0  0  0  0  0  0  0  0  0  0  0
  -30.1700  -16.8130   20.6820 C   0  0  0  0  0  0  0  0  0  0  0  0
  -28.6640  -17.6880   20.5370 S   0  0  0  0  0  0  0  0  0  0  0  0
  -30.8170  -14.5470   20.1790 C   0  0  0  0  0  0  0  0  0  0  0  0
  -30.4480  -12.4660   18.9120 C   0  0  0  0  0  2  0  0  0  0  0  0
  -29.4450  -12.7570   17.7750 C   0  0  0  0  0  2  0  0  0  0  0  0
  -27.9910  -12.6150   18.2710 C   0  0  0  0  0  2  0  0  0  0  0  0
  -27.7340  -13.3800   19.5970 C   0  0  0  0  0  3  0  0  0  0  0  0
  -28.8370  -13.0560   20.6300 C   0  0  0  0  0  2  0  0  0  0  0  0
  -30.1420  -13.3770   20.0230 N   0  0  0  0  0  0  0  0  0  0  0  0
  -31.9000  -14.7810   19.6310 O   0  0  0  0  0  0  0  0  0  0  0  0
  -30.1580  -15.4720   20.8990 N   0  0  0  0  0  0  0  0  0  0  0  0
  -29.3130  -15.1140   21.3180 H   0  0  0  0  0  0  0  0  0  0  0  0
  -25.3680  -13.9860   20.4150 C   0  0  0  0  0  0  0  0  0  0  0  0
  -24.3140  -13.2100   20.8180 C   0  0  0  0  0  0  0  0  0  0  0  0
  -24.7690  -11.8580   20.7440 C   0  0  0  0  0  0  0  0  0  0  0  0
  -26.4000  -13.1060   20.1250 N   0  0  0  0  0  0  0  0  0  0  0  0
  -26.0440  -11.8200   20.3780 N   0  0  0  0  0  0  0  0  0  0  0  0
  -24.0490  -10.5950   20.9460 C   0  0  0  0  0  0  0  0  0  0  0  0
  -24.4940   -9.6320   21.8770 C   0  0  0  0  0  3  0  0  0  0  0  0
  -23.7750   -8.4320   22.0660 C   0  0  0  0  0  3  0  0  0  0  0  0
  -22.5960   -8.1870   21.3230 C   0  0  0  0  0  0  0  0  0  0  0  0
  -22.1690   -9.1390   20.3800 C   0  0  0  0  0  3  0  0  0  0  0  0
  -22.8890  -10.3310   20.1910 C   0  0  0  0  0  3  0  0  0  0  0  0
  -21.8460   -7.0400   21.4220 O   0  0  0  0  0  0  0  0  0  0  0  0
  -21.7840   -6.3190   22.5870 C   0  0  0  0  0  0  0  0  0  0  0  0
  -21.2960   -6.8830   23.7870 C   0  0  0  0  0  3  0  0  0  0  0  0
  -21.1830   -6.0860   24.9440 C   0  0  0  0  0  3  0  0  0  0  0  0
  -21.5470   -4.7280   24.9030 C   0  0  0  0  0  0  0  0  0  0  0  0
  -22.0280   -4.1630   23.7080 C   0  0  0  0  0  3  0  0  0  0  0  0
  -22.1430   -4.9570   22.5520 C   0  0  0  0  0  0  0  0  0  0  0  0
  -22.5870   -4.4030   21.3990 F   0  0  0  0  0  0  0  0  0  0  0  0
  -21.4320   -3.9600   26.0110 F   0  0  0  0  0  0  0  0  0  0  0  0
  -22.9320  -13.6860   21.1610 C   0  0  0  0  0  0  0  0  0  0  0  0
  -22.2390  -12.9730   22.0420 N   0  0  0  0  0  0  0  0  0  0  0  0
  -22.4770  -14.7240   20.6840 O   0  0  0  0  0  0  0  0  0  0  0  0
  -22.6200  -12.1320   22.4500 H   0  0  0  0  0  0  0  0  0  0  0  0
  -21.3140  -13.2730   22.3140 H   0  0  0  0  0  0  0  0  0  0  0  0
  -25.5280  -15.3590   20.2530 N   0  0  0  0  0  0  0  0  0  0  0  0
  -24.7660  -16.0110   20.4040 H   0  0  0  0  0  0  0  0  0  0  0  0
  -26.3630  -15.8030   19.8920 H   0  0  0  0  0  0  0  0  0  0  0  0
  -28.5170  -24.4650   20.3280 C   0  0  0  0  0  0  0  0  0  0  0  0
  -28.8870  -24.4430   21.5070 O   0  0  0  0  0  0  0  0  0  0  0  0
  -28.8190  -25.6720   19.4210 C   0  0  0  0  0  2  0  0  0  0  0  0
  -28.6640  -26.9160   20.1190 O   0  0  0  0  0  0  0  0  0  0  0  0
  -24.6580  -31.9210   23.1910 C   0  0  0  0  0  0  0  0  0  0  0  0
  -27.4440  -27.5650   20.1020 C   0  0  0  0  0  0  0  0  0  0  0  0
  -23.5060  -30.5100   21.5170 C   0  0  0  0  0  3  0  0  0  0  0  0
  -25.0110  -29.0140   20.1030 C   0  0  0  0  0  0  0  0  0  0  0  0
  -26.0260  -30.9190   21.3640 C   0  0  0  0  0  2  0  0  0  0  0  0
  -26.1460  -29.5550   20.7160 C   0  0  0  0  0  0  0  0  0  0  0  0
  -27.3610  -28.8350   20.7180 C   0  0  0  0  0  3  0  0  0  0  0  0
  -26.2810  -27.0310   19.4970 C   0  0  0  0  0  3  0  0  0  0  0  0
  -25.0720  -27.7490   19.4970 C   0  0  0  0  0  3  0  0  0  0  0  0
  -23.7500  -29.8470   20.1350 C   0  0  0  0  0  2  0  0  0  0  0  0
  -24.7470  -31.1320   22.0830 N   0  0  0  0  0  0  0  0  0  0  0  0
  -23.5630  -32.1680   23.7150 O   0  0  0  0  0  0  0  0  0  0  0  0
  -22.8600  -29.4680   22.4570 C   0  0  0  0  0  0  0  0  0  0  0  0
  -21.5350  -29.2890   22.3310 N   0  0  0  0  0  0  0  0  0  0  0  0
  -23.5480  -28.8250   23.2550 O   0  0  0  0  0  0  0  0  0  0  0  0
  -21.0430  -29.8630   21.6600 H   0  0  0  0  0  0  0  0  0  0  0  0
  -18.1550  -28.1250   22.8500 C   0  0  0  0  0  0  0  0  0  0  0  0
  -20.7200  -28.3340   23.0810 C   0  0  0  0  0  3  0  0  0  0  0  0
  -20.7900  -26.9250   22.4490 C   0  0  0  0  0  2  0  0  0  0  0  0
  -19.6640  -26.6570   21.4460 C   0  0  0  0  0  2  0  0  0  0  0  0
  -18.2980  -26.8000   22.1220 C   0  0  0  0  0  2  0  0  0  0  0  0
  -19.2930  -28.8540   23.2860 C   0  0  0  0  0  0  0  0  0  0  0  0
  -19.1060  -30.0980   23.9270 C   0  0  0  0  0  3  0  0  0  0  0  0
  -17.8140  -30.6130   24.1360 C   0  0  0  0  0  3  0  0  0  0  0  0
  -16.6900  -29.8800   23.7160 C   0  0  0  0  0  3  0  0  0  0  0  0
  -16.8620  -28.6390   23.0790 C   0  0  0  0  0  3  0  0  0  0  0  0
  -25.9230  -32.5680   23.8380 C   0  0  0  0  0  3  0  0  0  0  0  0
  -26.4340  -31.7940   25.1150 C   0  0  1  0  0  0  0  0  0  0  0  0
  -25.3280  -31.5260   26.1620 C   0  0  0  0  0  1  0  0  0  0  0  0
  -27.0490  -30.4310   24.7200 C   0  0  0  0  0  1  0  0  0  0  0  0
  -27.5580  -32.6040   25.8040 C   0  0  0  0  0  1  0  0  0  0  0  0
  -25.5860  -33.9580   24.1700 N   0  0  0  0  0  0  0  0  0  0  0  0
  -25.9050  -35.0180   23.4180 C   0  0  0  0  0  0  0  0  0  0  0  0
  -26.5860  -34.9320   22.3920 O   0  0  0  0  0  0  0  0  0  0  0  0
  -24.9770  -34.1000   24.9640 H   0  0  0  0  0  0  0  0  0  0  0  0
  -24.1500  -36.7800   23.0480 C   0  0  0  0  0  1  0  0  0  0  0  0
  -25.3870  -36.3950   23.8750 C   0  0  0  0  0  3  0  0  0  0  0  0
  -27.4870  -37.3190   24.7460 C   0  0  0  0  0  1  0  0  0  0  0  0
  -26.4000  -37.4670   23.7820 N   0  0  0  0  0  0  0  0  0  0  0  0
  -25.9740  -38.3800   23.9220 H   0  0  0  0  0  0  0  0  0  0  0  0
  1  5  1  0
  3  1  1  0
  3  6  1  0
  4  2  1  0
  5  9  1  0
  5  2  1  0
  6 50  1  0
  6  4  1  0
  7  8  1  0
  8 10  2  0
  9  7  2  0
  9 11  1  0
 10 20  1  0
 11 10  1  0
 12 20  1  0
 13 18  1  0
 14 15  1  0
 14 13  1  0
 16 15  1  0
 16 25  1  0
 16 17  1  0
 18 12  1  0
 18 17  1  0
 19 12  2  0
 20 21  1  0
 22 23  2  0
 23 42  1  0
 24 23  1  0
 24 27  1  0
 25 26  1  0
 25 22  1  0
 26 24  2  0
 27 28  1  0
 28 29  2  0
 30 33  1  0
 30 29  1  0
 31 30  2  0
 32 31  1  0
 32 27  2  0
 33 34  1  0
 34 35  1  0
 35 36  2  0
 37 36  1  0
 37 41  1  0
 38 37  2  0
 39 34  2  0
 39 38  1  0
 40 39  1  0
 42 43  1  0
 43 46  1  0
 43 45  1  0
 44 42  2  0
 47 48  1  0
 47 22  1  0
 49 47  1  0
 50 51  2  0
 52 53  1  0
 52 50  1  0
 54 65  2  0
 55 53  1  0
 55 60  1  0
 56 64  1  0
 56 66  1  0
 57 63  1  0
 57 59  1  0
 58 64  1  0
 59 60  2  0
 59 58  1  0
 61 62  1  0
 61 55  2  0
 62 57  2  0
 63 56  1  0
 64 54  1  0
 66 68  2  0
 67 66  1  0
 69 67  1  0
 70 79  2  0
 70 75  1  0
 71 67  1  0
 71 75  1  0
 72 71  1  0
 73 74  1  0
 73 72  1  0
 74 70  1  0
 75 76  2  0
 76 77  1  0
 78 77  2  0
 79 78  1  0
 80 54  1  0
 80 85  1  0
 80 81  1  0
 81 84  1  1
 81 82  1  0
 83 81  1  0
 85 88  1  0
 86 90  1  0
 86 85  1  0
 87 86  2  0
 90 89  1  0
 92 90  1  0
 92 93  1  0
 92 91  1  0
M  ISO  4  12 100  20 100  52 101  53 101
M  END
>  <TORSDO>  (85) 
F 19

>  <SCORE>  (85) 
-14.198

>  <name>  (85) 
85

>  <ligand_id>  (85) 
85

>  <original_smiles>  (85) 
[H]c1c(N([H])C(=O)N2C([H])([H])C([H])([H])C([H])([H])C([H])(n3nc(-c4c([H])c([H])c(Oc5c([H])c([H])c(F)c([H])c5F)c([H])c4[H])c(C(=O)N([H])[H])c3N([H])[H])C2([H])[H])sc(C2([H])C([H])([H])C([H])([H])C([H])(C(=O)C([H])([H])Oc3c([H])c([H])c4c(c3[H])C([H])([H])N(C(=O)C([H])(N([H])C(=O)C([H])(N([H])C([H])([H])[H])C([H])([H])[H])C(C([H])([H])[H])(C([H])([H])[H])C([H])([H])[H])C([H])(C(=O)N([H])C3([H])c5c([H])c([H])c([H])c([H])c5C([H])([H])C([H])([H])C3([H])[H])C4([H])[H])C([H])([H])C2([H])[H])c1[H]

>  <smiles>  (85) 
[H]c1c(N([H])C(=O)N2C([H])([H])C([H])([H])C([H])([H])C([H])(n3nc(-c4c([H])c([H])c(Oc5c([H])c([H])c(F)c([H])c5F)c([H])c4[H])c(C(=O)N([H])[H])c3N([H])[H])C2([H])[H])sc(C2([H])C([H])([H])C([H])([H])C([H])(C(=O)C([H])([H])Oc3c([H])c([H])c4c(c3[H])C([H])([H])N(C(=O)C([H])(N([H])C(=O)C([H])(N([H])C([H])([H])[H])C([H])([H])[H])C(C([H])([H])[H])(C([H])([H])[H])C([H])([H])[H])C([H])(C(=O)N([H])C3([H])c5c([H])c([H])c([H])c([H])c5C([H])([H])C([H])([H])C3([H])[H])C4([H])[H])C([H])([H])C2([H])[H])c1[H]

$$$$
86:0:0
     RDKit          3D

 95103  0  0  1  0  0  0  0  0999 V2000
  -30.6830  -22.0120   20.7670 N   0  0  0  0  0  0  0  0  0  0  0  0
  -31.3660  -22.4650   20.1610 H   0  0  0  0  0  0  0  0  0  0  0  0
  -31.0280  -19.5930   20.2020 C   0  0  0  0  0  3  0  0  0  0  0  0
  -31.0730  -18.2770   20.8000 C   0  0  0  0  0  0  0  0  0  0  0  0
  -30.8020  -18.3530   22.1580 C   0  0  0  0  0  0  0  0  0  0  0  0
  -30.7510  -20.6340   21.0610 C   0  0  0  0  0  0  0  0  0  0  0  0
  -30.5030  -20.0100   22.6670 S   0  0  0  0  0  0  0  0  0  0  0  0
  -30.7440  -17.3260   23.2140 C   0  0  0  0  0  0  0  0  0  0  0  0
  -31.0030  -17.7170   24.6690 C   0  0  0  0  0  1  0  0  0  0  0  0
  -30.4890  -16.1460   22.9680 O   0  0  0  0  0  0  0  0  0  0  0  0
  -31.4870  -17.0700   19.9440 C   0  0  0  0  0  2  0  0  0  0  0  0
  -31.3140  -14.6250   19.5530 C   0  0  0  0  0  0  0  0  0  0  0  0
  -30.8350  -12.3760   18.6480 C   0  0  0  0  0  2  0  0  0  0  0  0
  -29.8070  -12.4850   17.5040 C   0  0  0  0  0  2  0  0  0  0  0  0
  -28.3780  -12.3950   18.0700 C   0  0  0  0  0  2  0  0  0  0  0  0
  -28.1500  -13.3510   19.2710 C   0  0  0  0  0  3  0  0  0  0  0  0
  -29.3000  -13.2610   20.3020 C   0  0  0  0  0  2  0  0  0  0  0  0
  -30.5710  -13.4790   19.5920 N   0  0  0  0  0  0  0  0  0  0  0  0
  -32.3880  -14.6760   18.9490 O   0  0  0  0  0  0  0  0  0  0  0  0
  -30.7980  -15.7620   20.0740 N   0  0  0  0  0  0  0  0  0  0  0  0
  -29.9400  -15.7250   20.6150 H   0  0  0  0  0  0  0  0  0  0  0  0
  -25.8880  -14.0520   20.2800 C   0  0  0  0  0  0  0  0  0  0  0  0
  -24.8190  -13.3260   20.7330 C   0  0  0  0  0  0  0  0  0  0  0  0
  -25.1890  -11.9530   20.5880 C   0  0  0  0  0  0  0  0  0  0  0  0
  -26.8440  -13.1260   19.8900 N   0  0  0  0  0  0  0  0  0  0  0  0
  -26.4320  -11.8540   20.1340 N   0  0  0  0  0  0  0  0  0  0  0  0
  -24.4090  -10.7270   20.7970 C   0  0  0  0  0  0  0  0  0  0  0  0
  -24.8120   -9.7430   21.7280 C   0  0  0  0  0  3  0  0  0  0  0  0
  -24.0330   -8.5830   21.9280 C   0  0  0  0  0  3  0  0  0  0  0  0
  -22.8340   -8.3980   21.1980 C   0  0  0  0  0  0  0  0  0  0  0  0
  -22.4500   -9.3700   20.2560 C   0  0  0  0  0  3  0  0  0  0  0  0
  -23.2300  -10.5200   20.0530 C   0  0  0  0  0  3  0  0  0  0  0  0
  -22.0290   -7.2900   21.3070 O   0  0  0  0  0  0  0  0  0  0  0  0
  -21.8660   -6.6330   22.5000 C   0  0  0  0  0  0  0  0  0  0  0  0
  -21.4040   -7.2940   23.6600 C   0  0  0  0  0  3  0  0  0  0  0  0
  -21.1840   -6.5640   24.8460 C   0  0  0  0  0  3  0  0  0  0  0  0
  -21.4170   -5.1770   24.8730 C   0  0  0  0  0  0  0  0  0  0  0  0
  -21.8700   -4.5160   23.7180 C   0  0  0  0  0  3  0  0  0  0  0  0
  -22.0930   -5.2420   22.5360 C   0  0  0  0  0  0  0  0  0  0  0  0
  -22.5090   -4.5940   21.4210 F   0  0  0  0  0  0  0  0  0  0  0  0
  -21.1980   -4.4760   26.0110 F   0  0  0  0  0  0  0  0  0  0  0  0
  -23.4940  -13.8720   21.1820 C   0  0  0  0  0  0  0  0  0  0  0  0
  -22.8290  -13.1900   22.1070 N   0  0  0  0  0  0  0  0  0  0  0  0
  -23.0610  -14.9390   20.7480 O   0  0  0  0  0  0  0  0  0  0  0  0
  -23.1970  -12.3310   22.4870 H   0  0  0  0  0  0  0  0  0  0  0  0
  -21.9450  -13.5340   22.4470 H   0  0  0  0  0  0  0  0  0  0  0  0
  -26.1250  -15.4170   20.1490 N   0  0  0  0  0  0  0  0  0  0  0  0
  -25.4360  -16.1230   20.3840 H   0  0  0  0  0  0  0  0  0  0  0  0
  -26.9780  -15.8100   19.7670 H   0  0  0  0  0  0  0  0  0  0  0  0
  -29.8050  -22.9410   21.5090 C   0  0  0  0  0  2  0  0  0  0  0  0
  -29.8850  -24.4270   21.0490 C   0  0  0  0  0  0  0  0  0  0  0  0
  -30.9800  -24.9780   20.8900 O   0  0  0  0  0  0  0  0  0  0  0  0
  -27.8610  -24.2670   19.6120 C   0  0  0  0  0  1  0  0  0  0  0  0
  -28.5500  -25.1390   20.6960 C   0  0  0  0  0  3  0  0  0  0  0  0
  -28.7150  -26.5590   20.3390 O   0  0  0  0  0  0  0  0  0  0  0  0
  -24.7760  -31.8110   23.2540 C   0  0  0  0  0  0  0  0  0  0  0  0
  -27.5600  -27.3400   20.2790 C   0  0  0  0  0  0  0  0  0  0  0  0
  -23.6280  -30.3570   21.6200 C   0  0  0  0  0  3  0  0  0  0  0  0
  -25.1430  -28.8490   20.2310 C   0  0  0  0  0  0  0  0  0  0  0  0
  -26.1580  -30.7580   21.4630 C   0  0  0  0  0  2  0  0  0  0  0  0
  -26.2860  -29.3800   20.8390 C   0  0  0  0  0  0  0  0  0  0  0  0
  -27.4970  -28.6360   20.8670 C   0  0  0  0  0  3  0  0  0  0  0  0
  -26.4010  -26.8770   19.6160 C   0  0  0  0  0  3  0  0  0  0  0  0
  -25.1980  -27.5960   19.6150 C   0  0  0  0  0  3  0  0  0  0  0  0
  -23.8820  -29.6790   20.2500 C   0  0  0  0  0  2  0  0  0  0  0  0
  -24.8690  -30.9940   22.1660 N   0  0  0  0  0  0  0  0  0  0  0  0
  -23.6800  -32.0640   23.7730 O   0  0  0  0  0  0  0  0  0  0  0  0
  -22.9980  -29.3220   22.5820 C   0  0  0  0  0  0  0  0  0  0  0  0
  -21.6910  -29.0610   22.4110 N   0  0  0  0  0  0  0  0  0  0  0  0
  -23.6820  -28.7590   23.4420 O   0  0  0  0  0  0  0  0  0  0  0  0
  -21.2010  -29.5750   21.6910 H   0  0  0  0  0  0  0  0  0  0  0  0
  -18.3890  -27.6350   22.7710 C   0  0  0  0  0  0  0  0  0  0  0  0
  -20.8970  -28.1010   23.1800 C   0  0  0  0  0  3  0  0  0  0  0  0
  -21.1370  -26.6530   22.6910 C   0  0  0  0  0  2  0  0  0  0  0  0
  -20.1300  -26.1990   21.6290 C   0  0  0  0  0  2  0  0  0  0  0  0
  -18.7050  -26.2690   22.1800 C   0  0  0  0  0  2  0  0  0  0  0  0
  -19.4190  -28.5000   23.2260 C   0  0  0  0  0  0  0  0  0  0  0  0
  -19.0730  -29.7700   23.7370 C   0  0  0  0  0  3  0  0  0  0  0  0
  -17.7260  -30.1780   23.7980 C   0  0  0  0  0  3  0  0  0  0  0  0
  -16.7090  -29.3120   23.3570 C   0  0  0  0  0  3  0  0  0  0  0  0
  -17.0410  -28.0410   22.8560 C   0  0  0  0  0  3  0  0  0  0  0  0
  -26.0350  -32.4870   23.8780 C   0  0  0  0  0  3  0  0  0  0  0  0
  -25.6770  -33.8750   24.2000 N   0  0  0  0  0  0  0  0  0  0  0  0
  -25.9840  -34.9330   23.4390 C   0  0  0  0  0  0  0  0  0  0  0  0
  -26.6750  -34.8470   22.4210 O   0  0  0  0  0  0  0  0  0  0  0  0
  -25.0750  -34.0140   24.9970 H   0  0  0  0  0  0  0  0  0  0  0  0
  -24.2010  -36.6600   23.0460 C   0  0  0  0  0  1  0  0  0  0  0  0
  -25.4430  -36.3050   23.8810 C   0  0  0  0  0  3  0  0  0  0  0  0
  -27.5380  -37.2630   24.7300 C   0  0  0  0  0  1  0  0  0  0  0  0
  -26.4400  -37.3930   23.7770 N   0  0  0  0  0  0  0  0  0  0  0  0
  -25.9990  -38.2980   23.9200 H   0  0  0  0  0  0  0  0  0  0  0  0
  -26.5740  -31.7390   25.1580 C   0  0  1  0  0  0  0  0  0  0  0  0
  -25.4790  -31.4630   26.2150 C   0  0  0  0  0  1  0  0  0  0  0  0
  -27.2220  -30.3860   24.7770 C   0  0  0  0  0  1  0  0  0  0  0  0
  -27.6810  -32.5860   25.8280 C   0  0  0  0  0  1  0  0  0  0  0  0
  1  6  1  0
  1 50  1  0
  2  1  1  0
  3  4  1  0
  3  6  2  0
  4  5  2  0
  5  7  1  0
  5  8  1  0
  6  7  1  0
  8  9  1  0
 10  8  2  0
 11 20  1  0
 11  4  1  0
 12 18  1  0
 12 20  1  0
 13 18  1  0
 14 15  1  0
 14 13  1  0
 16 15  1  0
 16 25  1  0
 16 17  1  0
 18 17  1  0
 19 12  2  0
 20 21  1  0
 22 23  2  0
 23 42  1  0
 24 23  1  0
 24 27  1  0
 25 26  1  0
 25 22  1  0
 26 24  2  0
 27 28  1  0
 28 29  2  0
 30 33  1  0
 30 29  1  0
 31 30  2  0
 32 31  1  0
 32 27  2  0
 33 34  1  0
 34 39  2  0
 34 35  1  0
 35 36  2  0
 36 37  1  0
 37 41  1  0
 38 37  2  0
 39 38  1  0
 40 39  1  0
 42 43  1  0
 43 46  1  0
 43 45  1  0
 44 42  2  0
 47 22  1  0
 47 48  1  0
 49 47  1  0
 51 50  1  0
 52 51  2  0
 54 53  1  0
 54 51  1  0
 55 54  1  0
 56 67  2  0
 57 55  1  0
 57 62  1  0
 58 66  1  0
 58 68  1  0
 59 65  1  0
 59 61  1  0
 60 66  1  0
 61 62  2  0
 61 60  1  0
 63 57  2  0
 64 63  1  0
 64 59  2  0
 65 58  1  0
 66 56  1  0
 68 70  2  0
 69 68  1  0
 71 69  1  0
 72 81  2  0
 72 77  1  0
 73 69  1  0
 73 77  1  0
 74 73  1  0
 75 76  1  0
 75 74  1  0
 76 72  1  0
 77 78  2  0
 78 79  1  0
 80 79  2  0
 81 80  1  0
 82 56  1  0
 82 83  1  0
 82 92  1  0
 83 86  1  0
 84 88  1  0
 84 83  1  0
 85 84  2  0
 88 87  1  0
 90 88  1  0
 90 91  1  0
 90 89  1  0
 92 95  1  1
 92 93  1  0
 94 92  1  0
M  ISO  4  12 100  20 100  54 101  55 101
M  END
>  <TORSDO>  (86) 
F 22

>  <SCORE>  (86) 
-9.665

>  <name>  (86) 
86

>  <ligand_id>  (86) 
86

>  <original_smiles>  (86) 
[H]c1c([H])c([H])c2c(c1[H])C([H])([H])C([H])([H])C([H])([H])C2([H])N([H])C(=O)C1([H])N(C(=O)C([H])(N([H])C(=O)C([H])(N([H])C([H])([H])[H])C([H])([H])[H])C(C([H])([H])[H])(C([H])([H])[H])C([H])([H])[H])C([H])([H])c2c([H])c(OC([H])(C(=O)C([H])([H])N([H])c3sc(C(=O)C([H])([H])[H])c(C([H])([H])N([H])C(=O)N4C([H])([H])C([H])([H])C([H])([H])C([H])(n5nc(-c6c([H])c([H])c(Oc7c([H])c([H])c(F)c([H])c7F)c([H])c6[H])c(C(=O)N([H])[H])c5N([H])[H])C4([H])[H])c3[H])C([H])([H])[H])c([H])c([H])c2C1([H])[H]

>  <smiles>  (86) 
[H]c1c([H])c([H])c2c(c1[H])C([H])([H])C([H])([H])C([H])([H])C2([H])N([H])C(=O)C1([H])N(C(=O)C([H])(N([H])C(=O)C([H])(N([H])C([H])([H])[H])C([H])([H])[H])C(C([H])([H])[H])(C([H])([H])[H])C([H])([H])[H])C([H])([H])c2c([H])c(OC([H])(C(=O)C([H])([H])N([H])c3sc(C(=O)C([H])([H])[H])c(C([H])([H])N([H])C(=O)N4C([H])([H])C([H])([H])C([H])([H])C([H])(n5nc(-c6c([H])c([H])c(Oc7c([H])c([H])c(F)c([H])c7F)c([H])c6[H])c(C(=O)N([H])[H])c5N([H])[H])C4([H])[H])c3[H])C([H])([H])[H])c([H])c([H])c2C1([H])[H]

$$$$
87:0:0
     RDKit          3D

 92101  0  0  1  0  0  0  0  0999 V2000
  -28.8590  -22.8570   21.2160 C   0  0  0  0  0  2  0  0  0  0  0  0
  -29.7890  -23.0540   19.3650 C   0  0  0  0  0  3  0  0  0  0  0  0
  -29.2940  -24.1200   20.4040 C   0  0  2  0  0  0  0  0  0  0  0  0
  -29.5500  -23.1970   17.8640 C   0  0  0  0  0  1  0  0  0  0  0  0
  -30.4020  -24.9410   21.0650 C   0  0  0  0  0  1  0  0  0  0  0  0
  -28.8920  -22.0770   19.9820 N   0  0  0  0  0  0  0  0  0  0  0  0
  -29.7270  -18.4830   19.2170 C   0  0  0  0  0  3  0  0  0  0  0  0
  -29.3290  -19.8330   18.9200 C   0  0  0  0  0  3  0  0  0  0  0  0
  -30.0340  -18.2660   20.5370 C   0  0  0  0  0  0  0  0  0  0  0  0
  -29.3080  -20.6850   20.0010 C   0  0  0  0  0  0  0  0  0  0  0  0
  -29.7810  -19.7700   21.4360 S   0  0  0  0  0  0  0  0  0  0  0  0
  -30.5970  -17.0110   21.2130 C   0  0  0  0  0  2  0  0  0  0  0  0
  -30.7820  -14.6090   20.3670 C   0  0  0  0  0  0  0  0  0  0  0  0
  -30.5000  -12.4050   19.2700 C   0  0  0  0  0  2  0  0  0  0  0  0
  -29.5510  -12.5480   18.0620 C   0  0  0  0  0  2  0  0  0  0  0  0
  -28.0810  -12.4080   18.5030 C   0  0  0  0  0  2  0  0  0  0  0  0
  -27.7400  -13.2790   19.7420 C   0  0  0  0  0  3  0  0  0  0  0  0
  -28.8020  -13.1140   20.8500 C   0  0  0  0  0  2  0  0  0  0  0  0
  -30.1120  -13.4240   20.2590 N   0  0  0  0  0  0  0  0  0  0  0  0
  -31.9370  -14.7450   19.9550 O   0  0  0  0  0  0  0  0  0  0  0  0
  -30.0720  -15.6740   20.8210 N   0  0  0  0  0  0  0  0  0  0  0  0
  -29.1110  -15.4870   21.0640 H   0  0  0  0  0  0  0  0  0  0  0  0
  -25.3550  -13.8990   20.4730 C   0  0  0  0  0  0  0  0  0  0  0  0
  -24.2840  -13.1340   20.8470 C   0  0  0  0  0  0  0  0  0  0  0  0
  -24.7360  -11.7790   20.8150 C   0  0  0  0  0  0  0  0  0  0  0  0
  -26.3920  -13.0110   20.2340 N   0  0  0  0  0  0  0  0  0  0  0  0
  -26.0240  -11.7310   20.4990 N   0  0  0  0  0  0  0  0  0  0  0  0
  -24.0010  -10.5220   21.0070 C   0  0  0  0  0  0  0  0  0  0  0  0
  -24.4240   -9.5550   21.9460 C   0  0  0  0  0  3  0  0  0  0  0  0
  -23.6900   -8.3630   22.1260 C   0  0  0  0  0  3  0  0  0  0  0  0
  -22.5180   -8.1300   21.3670 C   0  0  0  0  0  0  0  0  0  0  0  0
  -22.1140   -9.0860   20.4180 C   0  0  0  0  0  3  0  0  0  0  0  0
  -22.8500  -10.2680   20.2360 C   0  0  0  0  0  3  0  0  0  0  0  0
  -21.7570   -6.9890   21.4560 O   0  0  0  0  0  0  0  0  0  0  0  0
  -21.6850   -6.2610   22.6160 C   0  0  0  0  0  0  0  0  0  0  0  0
  -21.2280   -6.8270   23.8260 C   0  0  0  0  0  3  0  0  0  0  0  0
  -21.1050   -6.0240   24.9770 C   0  0  0  0  0  3  0  0  0  0  0  0
  -21.4280   -4.6560   24.9200 C   0  0  0  0  0  0  0  0  0  0  0  0
  -21.8780   -4.0880   23.7150 C   0  0  0  0  0  3  0  0  0  0  0  0
  -22.0030   -4.8880   22.5660 C   0  0  0  0  0  0  0  0  0  0  0  0
  -22.4170   -4.3310   21.4020 F   0  0  0  0  0  0  0  0  0  0  0  0
  -21.3030   -3.8820   26.0230 F   0  0  0  0  0  0  0  0  0  0  0  0
  -22.8910  -13.6210   21.1250 C   0  0  0  0  0  0  0  0  0  0  0  0
  -22.1620  -12.9290   21.9930 N   0  0  0  0  0  0  0  0  0  0  0  0
  -22.4600  -14.6510   20.6090 O   0  0  0  0  0  0  0  0  0  0  0  0
  -22.5250  -12.0950   22.4320 H   0  0  0  0  0  0  0  0  0  0  0  0
  -21.2280  -13.2380   22.2230 H   0  0  0  0  0  0  0  0  0  0  0  0
  -25.5280  -15.2690   20.2940 N   0  0  0  0  0  0  0  0  0  0  0  0
  -24.7620  -15.9250   20.4040 H   0  0  0  0  0  0  0  0  0  0  0  0
  -26.3730  -15.7040   19.9480 H   0  0  0  0  0  0  0  0  0  0  0  0
  -28.1620  -25.1410   19.9890 C   0  0  0  0  0  2  0  0  0  0  0  0
  -28.3490  -26.5810   20.2190 O   0  0  0  0  0  0  0  0  0  0  0  0
  -24.5850  -31.9070   23.2280 C   0  0  0  0  0  0  0  0  0  0  0  0
  -27.2130  -27.3940   20.1630 C   0  0  0  0  0  0  0  0  0  0  0  0
  -23.3850  -30.5120   21.5830 C   0  0  0  0  0  3  0  0  0  0  0  0
  -24.8380  -28.9740   20.1560 C   0  0  0  0  0  0  0  0  0  0  0  0
  -25.9220  -30.8420   21.4040 C   0  0  0  0  0  2  0  0  0  0  0  0
  -26.0030  -29.4690   20.7540 C   0  0  0  0  0  0  0  0  0  0  0  0
  -27.1930  -28.6900   20.7520 C   0  0  0  0  0  3  0  0  0  0  0  0
  -26.0220  -26.9420   19.5410 C   0  0  0  0  0  3  0  0  0  0  0  0
  -24.8480  -27.7130   19.5420 C   0  0  0  0  0  3  0  0  0  0  0  0
  -23.5990  -29.8410   20.2010 C   0  0  0  0  0  2  0  0  0  0  0  0
  -24.6490  -31.1030   22.1290 N   0  0  0  0  0  0  0  0  0  0  0  0
  -23.5010  -32.1820   23.7590 O   0  0  0  0  0  0  0  0  0  0  0  0
  -22.7240  -29.4890   22.5370 C   0  0  0  0  0  0  0  0  0  0  0  0
  -21.3980  -29.3150   22.4080 N   0  0  0  0  0  0  0  0  0  0  0  0
  -23.4020  -28.8570   23.3510 O   0  0  0  0  0  0  0  0  0  0  0  0
  -20.9100  -29.8760   21.7240 H   0  0  0  0  0  0  0  0  0  0  0  0
  -18.0120  -28.1540   22.9240 C   0  0  0  0  0  0  0  0  0  0  0  0
  -20.5760  -28.3790   23.1760 C   0  0  0  0  0  3  0  0  0  0  0  0
  -20.6560  -26.9530   22.5850 C   0  0  0  0  0  2  0  0  0  0  0  0
  -19.5420  -26.6540   21.5760 C   0  0  0  0  0  2  0  0  0  0  0  0
  -18.1680  -26.8100   22.2330 C   0  0  0  0  0  2  0  0  0  0  0  0
  -19.1440  -28.8980   23.3530 C   0  0  0  0  0  0  0  0  0  0  0  0
  -18.9450  -30.1580   23.9580 C   0  0  0  0  0  3  0  0  0  0  0  0
  -17.6480  -30.6740   24.1380 C   0  0  0  0  0  3  0  0  0  0  0  0
  -16.5310  -29.9260   23.7250 C   0  0  0  0  0  3  0  0  0  0  0  0
  -16.7140  -28.6690   23.1240 C   0  0  0  0  0  3  0  0  0  0  0  0
  -25.8680  -32.5370   23.8520 C   0  0  0  0  0  3  0  0  0  0  0  0
  -26.3820  -31.7630   25.1290 C   0  0  1  0  0  0  0  0  0  0  0  0
  -25.2850  -31.5180   26.1900 C   0  0  0  0  0  1  0  0  0  0  0  0
  -26.9720  -30.3900   24.7350 C   0  0  0  0  0  1  0  0  0  0  0  0
  -27.5270  -32.5600   25.7970 C   0  0  0  0  0  1  0  0  0  0  0  0
  -25.5570  -33.9340   24.1840 N   0  0  0  0  0  0  0  0  0  0  0  0
  -25.8860  -34.9870   23.4240 C   0  0  0  0  0  0  0  0  0  0  0  0
  -26.5530  -34.8860   22.3910 O   0  0  0  0  0  0  0  0  0  0  0  0
  -24.9630  -34.0860   24.9860 H   0  0  0  0  0  0  0  0  0  0  0  0
  -24.1530  -36.7780   23.0770 C   0  0  0  0  0  1  0  0  0  0  0  0
  -25.3970  -36.3750   23.8840 C   0  0  0  0  0  3  0  0  0  0  0  0
  -27.5300  -37.2630   24.7160 C   0  0  0  0  0  1  0  0  0  0  0  0
  -26.4290  -37.4290   23.7720 N   0  0  0  0  0  0  0  0  0  0  0  0
  -26.0210  -38.3480   23.9200 H   0  0  0  0  0  0  0  0  0  0  0  0
  2  4  1  0
  2  6  1  0
  2  3  1  0
  3  5  1  1
  3  1  1  0
  6 10  1  0
  6  1  1  0
  7  9  2  0
  8  7  1  0
  8 10  2  0
  9 12  1  0
  9 11  1  0
 10 11  1  0
 13 21  1  0
 14 19  1  0
 15 16  1  0
 15 14  1  0
 17 16  1  0
 17 26  1  0
 17 18  1  0
 19 13  1  0
 19 18  1  0
 20 13  2  0
 21 22  1  0
 21 12  1  0
 23 24  2  0
 24 43  1  0
 25 24  1  0
 25 28  1  0
 26 23  1  0
 26 27  1  0
 27 25  2  0
 28 29  1  0
 29 30  2  0
 31 34  1  0
 31 30  1  0
 32 31  2  0
 33 32  1  0
 33 28  2  0
 34 35  1  0
 35 36  1  0
 36 37  2  0
 38 37  1  0
 38 42  1  0
 39 38  2  0
 40 35  2  0
 40 39  1  0
 41 40  1  0
 43 44  1  0
 44 47  1  0
 44 46  1  0
 45 43  2  0
 48 49  1  0
 48 23  1  0
 50 48  1  0
 51 52  1  0
 51  3  1  0
 53 64  2  0
 54 52  1  0
 54 59  1  0
 55 63  1  0
 55 65  1  0
 56 62  1  0
 56 58  1  0
 57 63  1  0
 58 57  1  0
 59 58  2  0
 60 61  1  0
 60 54  2  0
 61 56  2  0
 62 55  1  0
 63 53  1  0
 65 67  2  0
 66 65  1  0
 68 66  1  0
 69 78  2  0
 69 74  1  0
 70 66  1  0
 70 74  1  0
 71 70  1  0
 72 73  1  0
 72 71  1  0
 73 69  1  0
 74 75  2  0
 75 76  1  0
 77 76  2  0
 78 77  1  0
 79 53  1  0
 79 84  1  0
 79 80  1  0
 80 83  1  1
 80 81  1  0
 82 80  1  0
 84 87  1  0
 85 89  1  0
 85 84  1  0
 86 85  2  0
 89 88  1  0
 91 89  1  0
 91 92  1  0
 91 90  1  0
M  ISO  4  13 100  21 100  51 101  52 101
M  END
>  <TORSDO>  (87) 
F 19

>  <SCORE>  (87) 
-14.192

>  <name>  (87) 
87

>  <ligand_id>  (87) 
87

>  <original_smiles>  (87) 
[H]c1c(N2C([H])([H])C(C([H])([H])[H])(C([H])([H])Oc3c([H])c([H])c4c(c3[H])C([H])([H])N(C(=O)C([H])(N([H])C(=O)C([H])(N([H])C([H])([H])[H])C([H])([H])[H])C(C([H])([H])[H])(C([H])([H])[H])C([H])([H])[H])C([H])(C(=O)N([H])C3([H])c5c([H])c([H])c([H])c([H])c5C([H])([H])C([H])([H])C3([H])[H])C4([H])[H])C2([H])C([H])([H])[H])sc(C([H])([H])N([H])C(=O)N2C([H])([H])C([H])([H])C([H])([H])C([H])(n3nc(-c4c([H])c([H])c(Oc5c([H])c([H])c(F)c([H])c5F)c([H])c4[H])c(C(=O)N([H])[H])c3N([H])[H])C2([H])[H])c1[H]

>  <smiles>  (87) 
[H]c1c(N2C([H])([H])C(C([H])([H])[H])(C([H])([H])Oc3c([H])c([H])c4c(c3[H])C([H])([H])N(C(=O)C([H])(N([H])C(=O)C([H])(N([H])C([H])([H])[H])C([H])([H])[H])C(C([H])([H])[H])(C([H])([H])[H])C([H])([H])[H])C([H])(C(=O)N([H])C3([H])c5c([H])c([H])c([H])c([H])c5C([H])([H])C([H])([H])C3([H])[H])C4([H])[H])C2([H])C([H])([H])[H])sc(C([H])([H])N([H])C(=O)N2C([H])([H])C([H])([H])C([H])([H])C([H])(n3nc(-c4c([H])c([H])c(Oc5c([H])c([H])c(F)c([H])c5F)c([H])c4[H])c(C(=O)N([H])[H])c3N([H])[H])C2([H])[H])c1[H]

$$$$
88:0:0
     RDKit          3D

 96105  0  0  1  0  0  0  0  0999 V2000
  -28.9830  -20.8080   21.1340 C   0  0  0  0  0  3  0  0  0  0  0  0
  -27.6660  -24.3270   21.0160 C   0  0  0  0  0  2  0  0  0  0  0  0
  -27.7770  -22.9270   21.6520 C   0  0  0  0  0  2  0  0  0  0  0  0
  -29.1610  -23.0220   19.7090 C   0  0  0  0  0  2  0  0  0  0  0  0
  -28.9590  -24.5010   20.2150 C   0  0  2  0  0  0  0  0  0  0  0  0
  -30.1310  -24.8950   21.1440 C   0  0  0  0  0  1  0  0  0  0  0  0
  -28.7060  -22.1310   20.8170 N   0  0  0  0  0  0  0  0  0  0  0  0
  -28.4280  -20.3190   22.2580 N   0  0  0  0  0  0  0  0  0  0  0  0
  -28.6680  -19.3790   22.5370 H   0  0  0  0  0  0  0  0  0  0  0  0
  -27.8300  -20.8630   22.8560 H   0  0  0  0  0  0  0  0  0  0  0  0
  -30.9670  -14.9200   19.8500 C   0  0  0  0  0  0  0  0  0  0  0  0
  -30.6480  -12.6870   18.8340 C   0  0  0  0  0  2  0  0  0  0  0  0
  -29.6540  -12.8280   17.6600 C   0  0  0  0  0  2  0  0  0  0  0  0
  -28.2020  -12.6910   18.1600 C   0  0  0  0  0  2  0  0  0  0  0  0
  -27.9120  -13.5680   19.4080 C   0  0  0  0  0  3  0  0  0  0  0  0
  -29.0220  -13.4240   20.4740 C   0  0  0  0  0  2  0  0  0  0  0  0
  -30.3060  -13.7230   19.8270 N   0  0  0  0  0  0  0  0  0  0  0  0
  -32.1140  -15.0070   19.4010 O   0  0  0  0  0  0  0  0  0  0  0  0
  -31.0290  -20.1840   19.7700 C   0  0  0  0  0  3  0  0  0  0  0  0
  -29.5970  -18.3980   20.5480 C   0  0  0  0  0  3  0  0  0  0  0  0
  -31.8590  -19.1840   19.2460 C   0  0  0  0  0  3  0  0  0  0  0  0
  -29.8500  -19.8070   20.4310 C   0  0  0  0  0  0  0  0  0  0  0  0
  -30.5110  -17.4280   20.0340 C   0  0  0  0  0  0  0  0  0  0  0  0
  -31.6110  -17.8650   19.3770 N   0  0  0  0  0  0  0  0  0  0  0  0
  -30.2380  -16.0140   20.2300 N   0  0  0  0  0  0  0  0  0  0  0  0
  -29.3380  -15.7970   20.6240 H   0  0  0  0  0  0  0  0  0  0  0  0
  -25.5730  -14.1840   20.2770 C   0  0  0  0  0  0  0  0  0  0  0  0
  -24.5180  -13.4160   20.6870 C   0  0  0  0  0  0  0  0  0  0  0  0
  -24.9550  -12.0600   20.5930 C   0  0  0  0  0  0  0  0  0  0  0  0
  -26.5880  -13.2950   19.9600 N   0  0  0  0  0  0  0  0  0  0  0  0
  -26.2250  -12.0110   20.2110 N   0  0  0  0  0  0  0  0  0  0  0  0
  -24.2200  -10.8030   20.7900 C   0  0  0  0  0  0  0  0  0  0  0  0
  -24.6530   -9.8320   21.7200 C   0  0  0  0  0  3  0  0  0  0  0  0
  -23.9190   -8.6410   21.9030 C   0  0  0  0  0  3  0  0  0  0  0  0
  -22.7370   -8.4120   21.1590 C   0  0  0  0  0  0  0  0  0  0  0  0
  -22.3230   -9.3720   20.2180 C   0  0  0  0  0  3  0  0  0  0  0  0
  -23.0580  -10.5560   20.0330 C   0  0  0  0  0  3  0  0  0  0  0  0
  -21.9740   -7.2740   21.2540 O   0  0  0  0  0  0  0  0  0  0  0  0
  -21.8860   -6.5600   22.4220 C   0  0  0  0  0  0  0  0  0  0  0  0
  -21.3950   -7.1390   23.6130 C   0  0  0  0  0  3  0  0  0  0  0  0
  -21.2570   -6.3510   24.7730 C   0  0  0  0  0  3  0  0  0  0  0  0
  -21.6000   -4.9860   24.7430 C   0  0  0  0  0  0  0  0  0  0  0  0
  -22.0840   -4.4070   23.5570 C   0  0  0  0  0  3  0  0  0  0  0  0
  -22.2240   -5.1920   22.3990 C   0  0  0  0  0  0  0  0  0  0  0  0
  -22.6710   -4.6240   21.2530 F   0  0  0  0  0  0  0  0  0  0  0  0
  -21.4590   -4.2270   25.8560 F   0  0  0  0  0  0  0  0  0  0  0  0
  -23.1460  -13.9070   21.0520 C   0  0  0  0  0  0  0  0  0  0  0  0
  -22.4610  -13.2030   21.9460 N   0  0  0  0  0  0  0  0  0  0  0  0
  -22.6920  -14.9490   20.5800 O   0  0  0  0  0  0  0  0  0  0  0  0
  -22.8410  -12.3580   22.3470 H   0  0  0  0  0  0  0  0  0  0  0  0
  -21.5430  -13.5110   22.2340 H   0  0  0  0  0  0  0  0  0  0  0  0
  -25.7510  -15.5560   20.1220 N   0  0  0  0  0  0  0  0  0  0  0  0
  -24.9970  -16.2160   20.2760 H   0  0  0  0  0  0  0  0  0  0  0  0
  -26.5670  -15.9840   19.7030 H   0  0  0  0  0  0  0  0  0  0  0  0
  -28.8320  -25.6070   19.0980 C   0  0  0  0  0  2  0  0  0  0  0  0
  -28.6900  -26.9830   19.5730 O   0  0  0  0  0  0  0  0  0  0  0  0
  -24.7060  -31.7980   23.0650 C   0  0  0  0  0  0  0  0  0  0  0  0
  -27.4710  -27.6540   19.6220 C   0  0  0  0  0  0  0  0  0  0  0  0
  -23.5260  -30.4540   21.3580 C   0  0  0  0  0  3  0  0  0  0  0  0
  -25.0120  -29.0860   19.7950 C   0  0  0  0  0  0  0  0  0  0  0  0
  -26.0330  -30.9330   21.1320 C   0  0  0  0  0  2  0  0  0  0  0  0
  -26.1630  -29.6100   20.3930 C   0  0  0  0  0  0  0  0  0  0  0  0
  -27.3910  -28.9030   20.3000 C   0  0  0  0  0  3  0  0  0  0  0  0
  -26.2870  -27.1550   19.0290 C   0  0  0  0  0  3  0  0  0  0  0  0
  -25.0720  -27.8620   19.1110 C   0  0  0  0  0  3  0  0  0  0  0  0
  -23.7330  -29.8840   19.9290 C   0  0  0  0  0  2  0  0  0  0  0  0
  -24.7750  -31.0740   21.9100 N   0  0  0  0  0  0  0  0  0  0  0  0
  -23.6260  -31.9780   23.6450 O   0  0  0  0  0  0  0  0  0  0  0  0
  -22.9460  -29.3390   22.2590 C   0  0  0  0  0  0  0  0  0  0  0  0
  -21.6270  -29.1070   22.1540 N   0  0  0  0  0  0  0  0  0  0  0  0
  -23.6780  -28.6910   23.0110 O   0  0  0  0  0  0  0  0  0  0  0  0
  -21.0920  -29.6880   21.5250 H   0  0  0  0  0  0  0  0  0  0  0  0
  -18.3200  -27.7400   22.6700 C   0  0  0  0  0  0  0  0  0  0  0  0
  -20.8750  -28.0790   22.8760 C   0  0  0  0  0  3  0  0  0  0  0  0
  -21.0100  -26.7030   22.1840 C   0  0  0  0  0  2  0  0  0  0  0  0
  -19.8850  -26.4160   21.1850 C   0  0  0  0  0  2  0  0  0  0  0  0
  -18.5230  -26.4550   21.8840 C   0  0  0  0  0  2  0  0  0  0  0  0
  -19.4240  -28.5100   23.1220 C   0  0  0  0  0  0  0  0  0  0  0  0
  -19.1810  -29.7140   23.8190 C   0  0  0  0  0  3  0  0  0  0  0  0
  -17.8660  -30.1470   24.0680 C   0  0  0  0  0  3  0  0  0  0  0  0
  -16.7770  -29.3720   23.6330 C   0  0  0  0  0  3  0  0  0  0  0  0
  -17.0040  -28.1710   22.9400 C   0  0  0  0  0  3  0  0  0  0  0  0
  -25.9740  -32.4490   23.7010 C   0  0  0  0  0  3  0  0  0  0  0  0
  -25.6200  -33.8210   24.0850 N   0  0  0  0  0  0  0  0  0  0  0  0
  -25.9140  -34.9140   23.3670 C   0  0  0  0  0  0  0  0  0  0  0  0
  -26.5830  -34.8720   22.3310 O   0  0  0  0  0  0  0  0  0  0  0  0
  -25.0270  -33.9280   24.8960 H   0  0  0  0  0  0  0  0  0  0  0  0
  -24.1210  -36.6560   23.0960 C   0  0  0  0  0  1  0  0  0  0  0  0
  -25.3840  -36.2660   23.8810 C   0  0  0  0  0  3  0  0  0  0  0  0
  -27.4910  -37.1980   24.7310 C   0  0  0  0  0  1  0  0  0  0  0  0
  -26.3780  -37.3580   23.7980 N   0  0  0  0  0  0  0  0  0  0  0  0
  -25.9410  -38.2580   23.9780 H   0  0  0  0  0  0  0  0  0  0  0  0
  -26.5290  -31.6490   24.9420 C   0  0  1  0  0  0  0  0  0  0  0  0
  -25.4570  -31.3360   26.0120 C   0  0  0  0  0  1  0  0  0  0  0  0
  -27.1530  -30.3080   24.4920 C   0  0  0  0  0  1  0  0  0  0  0  0
  -27.6620  -32.4550   25.6200 C   0  0  0  0  0  1  0  0  0  0  0  0
  1  8  1  0
  2  3  1  0
  4  5  1  0
  4  7  1  0
  5  2  1  0
  5  6  1  1
  7  1  1  0
  7  3  1  0
  8  9  1  0
  8 10  1  0
 11 25  1  0
 12 17  1  0
 13 14  1  0
 13 12  1  0
 15 14  1  0
 15 30  1  0
 15 16  1  0
 17 11  1  0
 17 16  1  0
 18 11  2  0
 19 22  1  0
 21 24  1  0
 21 19  2  0
 22 20  2  0
 22  1  1  0
 23 25  1  0
 23 20  1  0
 24 23  2  0
 25 26  1  0
 27 28  2  0
 28 47  1  0
 29 28  1  0
 29 32  1  0
 30 31  1  0
 30 27  1  0
 31 29  2  0
 32 33  1  0
 33 34  2  0
 35 38  1  0
 35 34  1  0
 36 35  2  0
 37 36  1  0
 37 32  2  0
 38 39  1  0
 39 40  1  0
 40 41  2  0
 42 41  1  0
 42 46  1  0
 43 42  2  0
 44 39  2  0
 44 43  1  0
 45 44  1  0
 47 48  1  0
 48 51  1  0
 48 50  1  0
 49 47  2  0
 52 53  1  0
 52 27  1  0
 54 52  1  0
 55 56  1  0
 55  5  1  0
 56 58  1  0
 57 68  2  0
 58 63  1  0
 59 67  1  0
 59 69  1  0
 60 66  1  0
 60 62  1  0
 61 67  1  0
 62 61  1  0
 63 62  2  0
 64 65  1  0
 64 58  2  0
 65 60  2  0
 66 59  1  0
 67 57  1  0
 69 71  2  0
 70 69  1  0
 72 70  1  0
 73 82  2  0
 73 78  1  0
 74 70  1  0
 74 78  1  0
 75 74  1  0
 76 77  1  0
 76 75  1  0
 77 73  1  0
 78 79  2  0
 79 80  1  0
 81 80  2  0
 82 81  1  0
 83 57  1  0
 83 84  1  0
 83 93  1  0
 84 87  1  0
 85 89  1  0
 85 84  1  0
 86 85  2  0
 89 88  1  0
 91 89  1  0
 91 92  1  0
 91 90  1  0
 93 96  1  1
 93 94  1  0
 95 93  1  0
M  ISO  4  11 100  25 100  55 101  56 101
M  END
>  <TORSDO>  (88) 
F 17

>  <SCORE>  (88) 
-12.602

>  <name>  (88) 
88

>  <ligand_id>  (88) 
88

>  <original_smiles>  (88) 
[H]c1nc(N([H])C(=O)N2C([H])([H])C([H])([H])C([H])([H])C([H])(n3nc(-c4c([H])c([H])c(Oc5c([H])c([H])c(F)c([H])c5F)c([H])c4[H])c(C(=O)N([H])[H])c3N([H])[H])C2([H])[H])c([H])c(C(N2C([H])([H])C([H])([H])C(C([H])([H])[H])(C([H])([H])Oc3c([H])c([H])c4c(c3[H])C([H])([H])N(C(=O)C([H])(N([H])C(=O)C([H])(N([H])C([H])([H])[H])C([H])([H])[H])C(C([H])([H])[H])(C([H])([H])[H])C([H])([H])[H])C([H])(C(=O)N([H])C3([H])c5c([H])c([H])c([H])c([H])c5C([H])([H])C([H])([H])C3([H])[H])C4([H])[H])C2([H])[H])=[N+]([H])[H])c1[H]

>  <smiles>  (88) 
[H]c1nc(N([H])C(=O)N2C([H])([H])C([H])([H])C([H])([H])C([H])(n3nc(-c4c([H])c([H])c(Oc5c([H])c([H])c(F)c([H])c5F)c([H])c4[H])c(C(=O)N([H])[H])c3N([H])[H])C2([H])[H])c([H])c(C(N2C([H])([H])C([H])([H])C(C([H])([H])[H])(C([H])([H])Oc3c([H])c([H])c4c(c3[H])C([H])([H])N(C(=O)C([H])(N([H])C(=O)C([H])(N([H])C([H])([H])[H])C([H])([H])[H])C(C([H])([H])[H])(C([H])([H])[H])C([H])([H])[H])C([H])(C(=O)N([H])C3([H])c5c([H])c([H])c([H])c([H])c5C([H])([H])C([H])([H])C3([H])[H])C4([H])[H])C2([H])[H])=[N+]([H])[H])c1[H]

$$$$
89:0:0
     RDKit          3D

 95104  0  0  1  0  0  0  0  0999 V2000
  -27.1380  -22.2090   18.9060 C   0  0  0  0  0  2  0  0  0  0  0  0
  -28.1260  -23.3760   18.6890 C   0  0  0  0  0  2  0  0  0  0  0  0
  -27.8590  -20.8950   19.2870 C   0  0  0  0  0  2  0  0  0  0  0  0
  -28.9570  -22.4600   20.9330 C   0  0  0  0  0  2  0  0  0  0  0  0
  -28.8230  -23.7960   20.0090 C   0  0  1  0  0  0  0  0  0  0  0  0
  -28.9510  -21.1070   20.2410 N   0  0  0  0  0  0  0  0  0  0  0  0
  -29.3840  -18.5470   20.3490 C   0  0  0  0  0  3  0  0  0  0  0  0
  -30.9600  -20.1270   21.3000 C   0  0  0  0  0  3  0  0  0  0  0  0
  -31.4360  -17.7150   21.3520 C   0  0  0  0  0  3  0  0  0  0  0  0
  -29.7310  -19.9390   20.6260 C   0  0  0  0  0  0  0  0  0  0  0  0
  -30.2270  -17.4090   20.6880 C   0  0  0  0  0  0  0  0  0  0  0  0
  -31.7900  -19.0450   21.6570 C   0  0  0  0  0  0  0  0  0  0  0  0
  -32.9570  -19.2870   22.3070 F   0  0  0  0  0  0  0  0  0  0  0  0
  -30.6490  -14.8570   20.2740 C   0  0  0  0  0  0  0  0  0  0  0  0
  -30.4590  -12.5870   19.2490 C   0  0  0  0  0  2  0  0  0  0  0  0
  -29.5020  -12.6280   18.0380 C   0  0  0  0  0  2  0  0  0  0  0  0
  -28.0430  -12.4260   18.4930 C   0  0  0  0  0  2  0  0  0  0  0  0
  -27.6640  -13.3350   19.6940 C   0  0  0  0  0  3  0  0  0  0  0  0
  -28.7320  -13.2830   20.8100 C   0  0  0  0  0  2  0  0  0  0  0  0
  -30.0180  -13.6380   20.1950 N   0  0  0  0  0  0  0  0  0  0  0  0
  -31.8350  -14.9550   19.9490 O   0  0  0  0  0  0  0  0  0  0  0  0
  -29.8620  -15.9880   20.4630 N   0  0  0  0  0  0  0  0  0  0  0  0
  -28.8720  -15.7990   20.4710 H   0  0  0  0  0  0  0  0  0  0  0  0
  -25.2850  -13.9150   20.4630 C   0  0  0  0  0  0  0  0  0  0  0  0
  -24.2280  -13.1360   20.8460 C   0  0  0  0  0  0  0  0  0  0  0  0
  -24.6970  -11.7860   20.8000 C   0  0  0  0  0  0  0  0  0  0  0  0
  -26.3290  -13.0420   20.2040 N   0  0  0  0  0  0  0  0  0  0  0  0
  -25.9820  -11.7560   20.4720 N   0  0  0  0  0  0  0  0  0  0  0  0
  -23.9780  -10.5210   20.9920 C   0  0  0  0  0  0  0  0  0  0  0  0
  -24.4110   -9.5610   21.9330 C   0  0  0  0  0  3  0  0  0  0  0  0
  -23.6950   -8.3590   22.1140 C   0  0  0  0  0  3  0  0  0  0  0  0
  -22.5290   -8.1070   21.3510 C   0  0  0  0  0  0  0  0  0  0  0  0
  -22.1150   -9.0540   20.3990 C   0  0  0  0  0  3  0  0  0  0  0  0
  -22.8320  -10.2480   20.2170 C   0  0  0  0  0  3  0  0  0  0  0  0
  -21.7810   -6.9590   21.4420 O   0  0  0  0  0  0  0  0  0  0  0  0
  -21.7090   -6.2360   22.6070 C   0  0  0  0  0  0  0  0  0  0  0  0
  -21.2290   -6.8020   23.8080 C   0  0  0  0  0  3  0  0  0  0  0  0
  -21.1080   -6.0060   24.9630 C   0  0  0  0  0  3  0  0  0  0  0  0
  -21.4540   -4.6420   24.9160 C   0  0  0  0  0  0  0  0  0  0  0  0
  -21.9280   -4.0750   23.7200 C   0  0  0  0  0  3  0  0  0  0  0  0
  -22.0530   -4.8700   22.5680 C   0  0  0  0  0  0  0  0  0  0  0  0
  -22.4910   -4.3150   21.4120 F   0  0  0  0  0  0  0  0  0  0  0  0
  -21.3310   -3.8730   26.0230 F   0  0  0  0  0  0  0  0  0  0  0  0
  -22.8310  -13.6060   21.1350 C   0  0  0  0  0  0  0  0  0  0  0  0
  -22.1090  -12.9010   22.0000 N   0  0  0  0  0  0  0  0  0  0  0  0
  -22.3860  -14.6360   20.6300 O   0  0  0  0  0  0  0  0  0  0  0  0
  -22.4810  -12.0730   22.4440 H   0  0  0  0  0  0  0  0  0  0  0  0
  -21.1700  -13.1980   22.2280 H   0  0  0  0  0  0  0  0  0  0  0  0
  -25.4340  -15.2870   20.2880 N   0  0  0  0  0  0  0  0  0  0  0  0
  -24.6500  -15.9200   20.4050 H   0  0  0  0  0  0  0  0  0  0  0  0
  -26.2560  -15.7390   19.9110 H   0  0  0  0  0  0  0  0  0  0  0  0
  -30.9910  -24.7600   20.5900 C   0  0  0  0  0  1  0  0  0  0  0  0
  -30.1440  -24.1720   19.6040 O   0  0  0  0  0  0  0  0  0  0  0  0
  -28.0710  -25.0880   20.6610 C   0  0  0  0  0  2  0  0  0  0  0  0
  -28.2760  -26.4940   20.1730 O   0  0  0  0  0  0  0  0  0  0  0  0
  -24.5790  -31.9380   23.2380 C   0  0  0  0  0  0  0  0  0  0  0  0
  -27.1770  -27.3740   20.1640 C   0  0  0  0  0  0  0  0  0  0  0  0
  -23.3750  -30.5520   21.5890 C   0  0  0  0  0  3  0  0  0  0  0  0
  -24.8250  -29.0110   20.1490 C   0  0  0  0  0  0  0  0  0  0  0  0
  -25.9140  -30.8690   21.4040 C   0  0  0  0  0  2  0  0  0  0  0  0
  -25.9950  -29.4890   20.7550 C   0  0  0  0  0  0  0  0  0  0  0  0
  -27.1760  -28.6820   20.7540 C   0  0  0  0  0  3  0  0  0  0  0  0
  -25.9900  -26.9620   19.5240 C   0  0  0  0  0  3  0  0  0  0  0  0
  -24.8260  -27.7560   19.5200 C   0  0  0  0  0  3  0  0  0  0  0  0
  -23.5940  -29.8960   20.1990 C   0  0  0  0  0  2  0  0  0  0  0  0
  -24.6430  -31.1370   22.1350 N   0  0  0  0  0  0  0  0  0  0  0  0
  -23.4960  -32.2100   23.7760 O   0  0  0  0  0  0  0  0  0  0  0  0
  -22.7150  -29.5250   22.5420 C   0  0  0  0  0  0  0  0  0  0  0  0
  -21.3870  -29.3520   22.4240 N   0  0  0  0  0  0  0  0  0  0  0  0
  -23.3970  -28.8870   23.3490 O   0  0  0  0  0  0  0  0  0  0  0  0
  -20.8940  -29.9240   21.7530 H   0  0  0  0  0  0  0  0  0  0  0  0
  -18.0110  -28.1530   22.9340 C   0  0  0  0  0  0  0  0  0  0  0  0
  -20.5710  -28.4080   23.1910 C   0  0  0  0  0  3  0  0  0  0  0  0
  -20.6680  -26.9800   22.6050 C   0  0  0  0  0  2  0  0  0  0  0  0
  -19.5610  -26.6660   21.5940 C   0  0  0  0  0  2  0  0  0  0  0  0
  -18.1820  -26.8090   22.2440 C   0  0  0  0  0  2  0  0  0  0  0  0
  -19.1330  -28.9100   23.3650 C   0  0  0  0  0  0  0  0  0  0  0  0
  -18.9170  -30.1660   23.9730 C   0  0  0  0  0  3  0  0  0  0  0  0
  -17.6140  -30.6670   24.1480 C   0  0  0  0  0  3  0  0  0  0  0  0
  -16.5070  -29.9080   23.7300 C   0  0  0  0  0  3  0  0  0  0  0  0
  -16.7070  -28.6520   23.1310 C   0  0  0  0  0  3  0  0  0  0  0  0
  -25.8610  -32.5690   23.8640 C   0  0  0  0  0  3  0  0  0  0  0  0
  -26.3720  -31.7980   25.1430 C   0  0  1  0  0  0  0  0  0  0  0  0
  -25.2770  -31.5660   26.2100 C   0  0  0  0  0  1  0  0  0  0  0  0
  -26.9520  -30.4180   24.7520 C   0  0  0  0  0  1  0  0  0  0  0  0
  -27.5250  -32.5880   25.8050 C   0  0  0  0  0  1  0  0  0  0  0  0
  -25.5570  -33.9710   24.1910 N   0  0  0  0  0  0  0  0  0  0  0  0
  -25.8940  -35.0190   23.4300 C   0  0  0  0  0  0  0  0  0  0  0  0
  -26.5650  -34.9110   22.4000 O   0  0  0  0  0  0  0  0  0  0  0  0
  -24.9710  -34.1300   24.9970 H   0  0  0  0  0  0  0  0  0  0  0  0
  -24.1840  -36.8280   23.0550 C   0  0  0  0  0  1  0  0  0  0  0  0
  -25.4110  -36.4120   23.8830 C   0  0  0  0  0  3  0  0  0  0  0  0
  -27.5410  -37.2820   24.7430 C   0  0  0  0  0  1  0  0  0  0  0  0
  -26.4530  -37.4570   23.7840 N   0  0  0  0  0  0  0  0  0  0  0  0
  -26.0520  -38.3800   23.9240 H   0  0  0  0  0  0  0  0  0  0  0  0
  1  3  1  0
  2  1  1  0
  2  5  1  0
  3  6  1  0
  5 54  1  1
  5  4  1  0
  6 10  1  0
  6  4  1  0
  7 10  2  0
  7 11  1  0
  8 12  2  0
  9 12  1  0
 10  8  1  0
 11  9  2  0
 12 13  1  0
 14 22  1  0
 15 20  1  0
 16 17  1  0
 16 15  1  0
 18 17  1  0
 18 27  1  0
 18 19  1  0
 20 14  1  0
 20 19  1  0
 21 14  2  0
 22 23  1  0
 22 11  1  0
 24 25  2  0
 25 44  1  0
 26 25  1  0
 26 29  1  0
 27 24  1  0
 27 28  1  0
 28 26  2  0
 29 30  1  0
 30 31  2  0
 32 35  1  0
 32 31  1  0
 33 32  2  0
 34 33  1  0
 34 29  2  0
 35 36  1  0
 36 37  1  0
 37 38  2  0
 39 38  1  0
 39 43  1  0
 40 39  2  0
 41 36  2  0
 41 40  1  0
 42 41  1  0
 44 45  1  0
 45 48  1  0
 45 47  1  0
 46 44  2  0
 49 50  1  0
 49 24  1  0
 51 49  1  0
 53  5  1  0
 53 52  1  0
 55 54  1  0
 56 67  2  0
 57 55  1  0
 57 62  1  0
 58 66  1  0
 58 68  1  0
 59 65  1  0
 59 61  1  0
 60 66  1  0
 61 60  1  0
 62 61  2  0
 63 57  2  0
 64 63  1  0
 64 59  2  0
 65 58  1  0
 66 56  1  0
 68 70  2  0
 69 68  1  0
 71 69  1  0
 72 81  2  0
 72 77  1  0
 73 69  1  0
 73 77  1  0
 74 73  1  0
 75 76  1  0
 75 74  1  0
 76 72  1  0
 77 78  2  0
 78 79  1  0
 80 79  2  0
 81 80  1  0
 82 56  1  0
 82 87  1  0
 82 83  1  0
 83 86  1  1
 83 84  1  0
 85 83  1  0
 87 90  1  0
 88 92  1  0
 88 87  1  0
 89 88  2  0
 92 91  1  0
 94 92  1  0
 94 95  1  0
 94 93  1  0
M  ISO  4  14 100  22 100  54 101  55 101
M  END
>  <TORSDO>  (89) 
F 19

>  <SCORE>  (89) 
-14.781

>  <name>  (89) 
89

>  <ligand_id>  (89) 
89

>  <original_smiles>  (89) 
[H]c1c([H])c([H])c2c(c1[H])C([H])([H])C([H])([H])C([H])([H])C2([H])N([H])C(=O)C1([H])N(C(=O)C([H])(N([H])C(=O)C([H])(N([H])C([H])([H])[H])C([H])([H])[H])C(C([H])([H])[H])(C([H])([H])[H])C([H])([H])[H])C([H])([H])c2c([H])c(OC([H])([H])C3(OC([H])([H])[H])C([H])([H])N(c4c([H])c(F)c([H])c(N([H])C(=O)N5C([H])([H])C([H])([H])C([H])([H])C([H])(n6nc(-c7c([H])c([H])c(Oc8c([H])c([H])c(F)c([H])c8F)c([H])c7[H])c(C(=O)N([H])[H])c6N([H])[H])C5([H])[H])c4[H])C([H])([H])C([H])([H])C3([H])[H])c([H])c([H])c2C1([H])[H]

>  <smiles>  (89) 
[H]c1c([H])c([H])c2c(c1[H])C([H])([H])C([H])([H])C([H])([H])C2([H])N([H])C(=O)C1([H])N(C(=O)C([H])(N([H])C(=O)C([H])(N([H])C([H])([H])[H])C([H])([H])[H])C(C([H])([H])[H])(C([H])([H])[H])C([H])([H])[H])C([H])([H])c2c([H])c(OC([H])([H])C3(OC([H])([H])[H])C([H])([H])N(c4c([H])c(F)c([H])c(N([H])C(=O)N5C([H])([H])C([H])([H])C([H])([H])C([H])(n6nc(-c7c([H])c([H])c(Oc8c([H])c([H])c(F)c([H])c8F)c([H])c7[H])c(C(=O)N([H])[H])c6N([H])[H])C5([H])[H])c4[H])C([H])([H])C([H])([H])C3([H])[H])c([H])c([H])c2C1([H])[H]

$$$$
90:0:0
     RDKit          3D

 95104  0  0  1  0  0  0  0  0999 V2000
  -27.4720  -22.2420   20.5630 C   0  0  0  0  0  0  0  0  0  0  0  0
  -26.9200  -21.0160   20.5510 N   0  0  0  0  0  0  0  0  0  0  0  0
  -28.6400  -22.4380   20.9370 O   0  0  0  0  0  0  0  0  0  0  0  0
  -25.9200  -20.9810   20.3820 H   0  0  0  0  0  0  0  0  0  0  0  0
  -31.0850  -14.7710   19.9480 C   0  0  0  0  0  0  0  0  0  0  0  0
  -30.7860  -12.5540   18.9270 C   0  0  0  0  0  2  0  0  0  0  0  0
  -29.7900  -12.6690   17.7510 C   0  0  0  0  0  2  0  0  0  0  0  0
  -28.3290  -12.5540   18.2470 C   0  0  0  0  0  2  0  0  0  0  0  0
  -28.0390  -13.4430   19.4790 C   0  0  0  0  0  3  0  0  0  0  0  0
  -29.1420  -13.2670   20.5490 C   0  0  0  0  0  2  0  0  0  0  0  0
  -30.4160  -13.5920   19.9000 N   0  0  0  0  0  0  0  0  0  0  0  0
  -32.2860  -14.8160   19.6510 O   0  0  0  0  0  0  0  0  0  0  0  0
  -27.8640  -18.7280   20.8920 C   0  0  0  0  0  3  0  0  0  0  0  0
  -28.6800  -17.7820   20.1700 C   0  0  0  0  0  0  0  0  0  0  0  0
  -28.8920  -18.1980   18.8850 C   0  0  0  0  0  0  0  0  0  0  0  0
  -27.5880  -19.8850   20.1870 C   0  0  0  0  0  0  0  0  0  0  0  0
  -29.3320  -16.4960   20.6610 C   0  0  0  0  0  2  0  0  0  0  0  0
  -29.7550  -17.4990   17.9130 C   0  0  0  0  0  2  0  0  0  0  0  0
  -30.8650  -16.8280   18.7040 C   0  0  0  0  0  2  0  0  0  0  0  0
  -30.3240  -15.8850   19.7130 N   0  0  0  0  0  0  0  0  0  0  0  0
  -28.1780  -19.7340   18.5520 S   0  0  0  0  0  0  0  0  0  0  0  0
  -25.7190  -14.1000   20.3560 C   0  0  0  0  0  0  0  0  0  0  0  0
  -24.6530  -13.3450   20.7670 C   0  0  0  0  0  0  0  0  0  0  0  0
  -25.0740  -11.9850   20.6600 C   0  0  0  0  0  0  0  0  0  0  0  0
  -26.7130  -13.1950   20.0300 N   0  0  0  0  0  0  0  0  0  0  0  0
  -26.3380  -11.9170   20.2720 N   0  0  0  0  0  0  0  0  0  0  0  0
  -24.3230  -10.7380   20.8500 C   0  0  0  0  0  0  0  0  0  0  0  0
  -24.6990   -9.7910   21.8280 C   0  0  0  0  0  3  0  0  0  0  0  0
  -23.9540   -8.6040   21.9980 C   0  0  0  0  0  3  0  0  0  0  0  0
  -22.8180   -8.3560   21.1910 C   0  0  0  0  0  0  0  0  0  0  0  0
  -22.4630   -9.2910   20.2000 C   0  0  0  0  0  3  0  0  0  0  0  0
  -23.2110  -10.4700   20.0290 C   0  0  0  0  0  3  0  0  0  0  0  0
  -22.0500   -7.2200   21.2680 O   0  0  0  0  0  0  0  0  0  0  0  0
  -21.7950   -6.6060   22.4690 C   0  0  0  0  0  0  0  0  0  0  0  0
  -21.1620   -7.2820   23.5330 C   0  0  0  0  0  3  0  0  0  0  0  0
  -20.8570   -6.5930   24.7230 C   0  0  0  0  0  3  0  0  0  0  0  0
  -21.1760   -5.2270   24.8480 C   0  0  0  0  0  0  0  0  0  0  0  0
  -21.8050   -4.5510   23.7860 C   0  0  0  0  0  3  0  0  0  0  0  0
  -22.1100   -5.2380   22.6000 C   0  0  0  0  0  0  0  0  0  0  0  0
  -22.6950   -4.5770   21.5720 F   0  0  0  0  0  0  0  0  0  0  0  0
  -20.8770   -4.5620   25.9870 F   0  0  0  0  0  0  0  0  0  0  0  0
  -23.2910  -13.8510   21.1400 C   0  0  0  0  0  0  0  0  0  0  0  0
  -22.6090  -13.1630   22.0460 N   0  0  0  0  0  0  0  0  0  0  0  0
  -22.8420  -14.8940   20.6650 O   0  0  0  0  0  0  0  0  0  0  0  0
  -22.9820  -12.3180   22.4520 H   0  0  0  0  0  0  0  0  0  0  0  0
  -21.6970  -13.4850   22.3400 H   0  0  0  0  0  0  0  0  0  0  0  0
  -25.9210  -15.4700   20.2040 N   0  0  0  0  0  0  0  0  0  0  0  0
  -25.1740  -16.1430   20.3310 H   0  0  0  0  0  0  0  0  0  0  0  0
  -26.7480  -15.8700   19.7820 H   0  0  0  0  0  0  0  0  0  0  0  0
  -26.5730  -23.4000   20.0730 C   0  0  0  0  0  2  0  0  0  0  0  0
  -25.1740  -25.4090   20.2960 C   0  0  0  0  0  1  0  0  0  0  0  0
  -26.1660  -24.5600   22.2830 C   0  0  0  0  0  1  0  0  0  0  0  0
  -26.5140  -24.8070   20.7900 C   0  0  1  0  0  0  0  0  0  0  0  0
  -27.8690  -25.7410   20.7520 C   0  0  0  0  0  2  0  0  0  0  0  0
  -28.3200  -26.7660   19.7640 O   0  0  0  0  0  0  0  0  0  0  0  0
  -24.5650  -31.7670   23.0690 C   0  0  0  0  0  0  0  0  0  0  0  0
  -27.4230  -27.7810   19.6240 C   0  0  0  0  0  0  0  0  0  0  0  0
  -23.4690  -30.4700   21.2630 C   0  0  0  0  0  3  0  0  0  0  0  0
  -25.0390  -29.2470   19.6540 C   0  0  0  0  0  0  0  0  0  0  0  0
  -25.9750  -30.9820   21.1780 C   0  0  0  0  0  2  0  0  0  0  0  0
  -26.1430  -29.7080   20.3910 C   0  0  0  0  0  0  0  0  0  0  0  0
  -27.3480  -28.9450   20.4310 C   0  0  0  0  0  3  0  0  0  0  0  0
  -26.4250  -27.5200   18.6850 C   0  0  0  0  0  3  0  0  0  0  0  0
  -25.1910  -28.1730   18.7690 C   0  0  0  0  0  3  0  0  0  0  0  0
  -23.7300  -29.9830   19.8100 C   0  0  0  0  0  2  0  0  0  0  0  0
  -24.6810  -31.0890   21.8920 N   0  0  0  0  0  0  0  0  0  0  0  0
  -23.4650  -31.9030   23.6230 O   0  0  0  0  0  0  0  0  0  0  0  0
  -22.8980  -29.3070   22.1130 C   0  0  0  0  0  0  0  0  0  0  0  0
  -21.5830  -29.0610   22.0050 N   0  0  0  0  0  0  0  0  0  0  0  0
  -23.6250  -28.6400   22.8540 O   0  0  0  0  0  0  0  0  0  0  0  0
  -21.0580  -29.6040   21.3360 H   0  0  0  0  0  0  0  0  0  0  0  0
  -18.2870  -27.6550   22.5170 C   0  0  0  0  0  0  0  0  0  0  0  0
  -20.8430  -28.0020   22.6930 C   0  0  0  0  0  3  0  0  0  0  0  0
  -20.9790  -26.6840   21.8780 C   0  0  0  0  0  2  0  0  0  0  0  0
  -19.8090  -26.4370   20.9240 C   0  0  0  0  0  2  0  0  0  0  0  0
  -18.4790  -26.3830   21.7060 C   0  0  0  0  0  2  0  0  0  0  0  0
  -19.3940  -28.4140   22.9790 C   0  0  0  0  0  0  0  0  0  0  0  0
  -19.1490  -29.5760   23.7400 C   0  0  0  0  0  3  0  0  0  0  0  0
  -17.8300  -29.9990   24.0130 C   0  0  0  0  0  3  0  0  0  0  0  0
  -16.7390  -29.2550   23.5340 C   0  0  0  0  0  3  0  0  0  0  0  0
  -16.9780  -28.0860   22.7910 C   0  0  0  0  0  3  0  0  0  0  0  0
  -25.8080  -32.4250   23.7430 C   0  0  0  0  0  3  0  0  0  0  0  0
  -26.3380  -31.6240   24.9990 C   0  0  1  0  0  0  0  0  0  0  0  0
  -25.2280  -31.2890   26.0230 C   0  0  0  0  0  1  0  0  0  0  0  0
  -27.0010  -30.2920   24.5750 C   0  0  0  0  0  1  0  0  0  0  0  0
  -27.4330  -32.4490   25.7290 C   0  0  0  0  0  1  0  0  0  0  0  0
  -25.4300  -33.7900   24.1230 N   0  0  0  0  0  0  0  0  0  0  0  0
  -25.6970  -34.8790   23.3900 C   0  0  0  0  0  0  0  0  0  0  0  0
  -26.3720  -34.8550   22.3630 O   0  0  0  0  0  0  0  0  0  0  0  0
  -24.8310  -33.8850   24.9290 H   0  0  0  0  0  0  0  0  0  0  0  0
  -23.8580  -36.5760   23.1150 C   0  0  0  0  0  1  0  0  0  0  0  0
  -25.1320  -36.2270   23.8970 C   0  0  0  0  0  3  0  0  0  0  0  0
  -27.2190  -37.2190   24.7360 C   0  0  0  0  0  1  0  0  0  0  0  0
  -26.1010  -37.3460   23.8020 N   0  0  0  0  0  0  0  0  0  0  0  0
  -25.6360  -38.2330   23.9890 H   0  0  0  0  0  0  0  0  0  0  0  0
  1  3  2  0
  2  1  1  0
  4  2  1  0
  6 11  1  0
  7  8  1  0
  7  6  1  0
  9  8  1  0
  9 25  1  0
  9 10  1  0
 11  5  1  0
 11 10  1  0
 12  5  2  0
 14 17  1  0
 14 13  1  0
 15 14  2  0
 16  2  1  0
 16 13  2  0
 18 19  1  0
 18 15  1  0
 19 20  1  0
 20  5  1  0
 20 17  1  0
 21 15  1  0
 21 16  1  0
 22 23  2  0
 23 42  1  0
 24 23  1  0
 24 27  1  0
 25 26  1  0
 25 22  1  0
 26 24  2  0
 27 28  1  0
 28 29  2  0
 30 33  1  0
 30 29  1  0
 31 30  2  0
 32 31  1  0
 32 27  2  0
 33 34  1  0
 34 39  2  0
 34 35  1  0
 35 36  2  0
 36 37  1  0
 37 41  1  0
 38 37  2  0
 39 38  1  0
 40 39  1  0
 42 43  1  0
 43 46  1  0
 43 45  1  0
 44 42  2  0
 47 48  1  0
 47 22  1  0
 49 47  1  0
 50  1  1  0
 50 53  1  0
 53 51  1  6
 53 52  1  0
 54 53  1  0
 55 54  1  0
 56 67  2  0
 57 55  1  0
 57 62  1  0
 58 66  1  0
 58 68  1  0
 59 65  1  0
 59 61  1  0
 60 66  1  0
 61 62  2  0
 61 60  1  0
 63 64  1  0
 63 57  2  0
 64 59  2  0
 65 58  1  0
 66 56  1  0
 68 70  2  0
 69 68  1  0
 71 69  1  0
 72 81  2  0
 72 77  1  0
 73 69  1  0
 73 77  1  0
 74 73  1  0
 75 76  1  0
 75 74  1  0
 76 72  1  0
 77 78  2  0
 78 79  1  0
 80 79  2  0
 81 80  1  0
 82 56  1  0
 82 87  1  0
 82 83  1  0
 83 86  1  1
 83 84  1  0
 85 83  1  0
 87 90  1  0
 88 92  1  0
 88 87  1  0
 89 88  2  0
 92 91  1  0
 94 92  1  0
 94 95  1  0
 94 93  1  0
M  ISO  4   5 100  20 100  54 101  55 101
M  END
>  <TORSDO>  (90) 
F 19

>  <SCORE>  (90) 
-11.820

>  <name>  (90) 
90

>  <ligand_id>  (90) 
90

>  <original_smiles>  (90) 
[H]c1c([H])c([H])c2c(c1[H])C([H])([H])C([H])([H])C([H])([H])C2([H])N([H])C(=O)C1([H])N(C(=O)C([H])(N([H])C(=O)C([H])(N([H])C([H])([H])[H])C([H])([H])[H])C(C([H])([H])[H])(C([H])([H])[H])C([H])([H])[H])C([H])([H])c2c([H])c(OC([H])([H])C(C([H])([H])[H])(C([H])([H])[H])C([H])([H])C(=O)N([H])c3sc4c(c3[H])C([H])([H])N(C(=O)N3C([H])([H])C([H])([H])C([H])([H])C([H])(n5nc(-c6c([H])c([H])c(Oc7c([H])c([H])c(F)c([H])c7F)c([H])c6[H])c(C(=O)N([H])[H])c5N([H])[H])C3([H])[H])C([H])([H])C4([H])[H])c([H])c([H])c2C1([H])[H]

>  <smiles>  (90) 
[H]c1c([H])c([H])c2c(c1[H])C([H])([H])C([H])([H])C([H])([H])C2([H])N([H])C(=O)C1([H])N(C(=O)C([H])(N([H])C(=O)C([H])(N([H])C([H])([H])[H])C([H])([H])[H])C(C([H])([H])[H])(C([H])([H])[H])C([H])([H])[H])C([H])([H])c2c([H])c(OC([H])([H])C(C([H])([H])[H])(C([H])([H])[H])C([H])([H])C(=O)N([H])c3sc4c(c3[H])C([H])([H])N(C(=O)N3C([H])([H])C([H])([H])C([H])([H])C([H])(n5nc(-c6c([H])c([H])c(Oc7c([H])c([H])c(F)c([H])c7F)c([H])c6[H])c(C(=O)N([H])[H])c5N([H])[H])C3([H])[H])C([H])([H])C4([H])[H])c([H])c([H])c2C1([H])[H]

$$$$
91:0:0
     RDKit          3D

 90 99  0  0  1  0  0  0  0  0999 V2000
  -28.8760  -21.5090   18.8030 C   0  0  0  0  0  2  0  0  0  0  0  0
  -28.5040  -23.0390   18.8250 C   0  0  0  0  0  2  0  0  0  0  0  0
  -29.0380  -22.3210   21.0530 C   0  0  0  0  0  2  0  0  0  0  0  0
  -29.6510  -21.2220   20.0960 C   0  0  0  0  0  3  0  0  0  0  0  0
  -28.9220  -23.6630   20.1870 C   0  0  0  0  0  3  0  0  0  0  0  0
  -30.5640  -14.7670   20.3540 C   0  0  0  0  0  0  0  0  0  0  0  0
  -30.3580  -12.4920   19.3310 C   0  0  0  0  0  2  0  0  0  0  0  0
  -29.4200  -12.5670   18.1070 C   0  0  0  0  0  2  0  0  0  0  0  0
  -27.9480  -12.3980   18.5360 C   0  0  0  0  0  2  0  0  0  0  0  0
  -27.5770  -13.2750   19.7610 C   0  0  0  0  0  3  0  0  0  0  0  0
  -28.6370  -13.1920   20.8800 C   0  0  0  0  0  2  0  0  0  0  0  0
  -29.9290  -13.5480   20.2770 N   0  0  0  0  0  0  0  0  0  0  0  0
  -31.7640  -14.8380   20.0660 O   0  0  0  0  0  0  0  0  0  0  0  0
  -31.2940  -19.5090   21.0940 C   0  0  0  0  0  3  0  0  0  0  0  0
  -30.0730  -19.7310   20.4980 C   0  0  0  0  0  0  0  0  0  0  0  0
  -30.1790  -17.3340   20.6100 C   0  0  0  0  0  0  0  0  0  0  0  0
  -29.4180  -18.4490   20.2930 N   0  0  0  0  0  0  0  0  0  0  0  0
  -29.7840  -15.9120   20.4810 N   0  0  0  0  0  0  0  0  0  0  0  0
  -31.7220  -17.8220   21.2980 S   0  0  0  0  0  0  0  0  0  0  0  0
  -28.7920  -15.7470   20.4990 H   0  0  0  0  0  0  0  0  0  0  0  0
  -25.1860  -13.8570   20.4810 C   0  0  0  0  0  0  0  0  0  0  0  0
  -24.1240  -13.0800   20.8540 C   0  0  0  0  0  0  0  0  0  0  0  0
  -24.5930  -11.7310   20.8330 C   0  0  0  0  0  0  0  0  0  0  0  0
  -26.2340  -12.9810   20.2520 N   0  0  0  0  0  0  0  0  0  0  0  0
  -25.8850  -11.6960   20.5260 N   0  0  0  0  0  0  0  0  0  0  0  0
  -23.8710  -10.4660   21.0260 C   0  0  0  0  0  0  0  0  0  0  0  0
  -24.3070   -9.5030   21.9620 C   0  0  0  0  0  3  0  0  0  0  0  0
  -23.5860   -8.3030   22.1430 C   0  0  0  0  0  3  0  0  0  0  0  0
  -22.4130   -8.0600   21.3900 C   0  0  0  0  0  0  0  0  0  0  0  0
  -21.9960   -9.0130   20.4420 C   0  0  0  0  0  3  0  0  0  0  0  0
  -22.7190  -10.2030   20.2590 C   0  0  0  0  0  3  0  0  0  0  0  0
  -21.6600   -6.9140   21.4820 O   0  0  0  0  0  0  0  0  0  0  0  0
  -21.6210   -6.1700   22.6330 C   0  0  0  0  0  0  0  0  0  0  0  0
  -21.2020   -6.7210   23.8640 C   0  0  0  0  0  3  0  0  0  0  0  0
  -21.1110   -5.9030   25.0090 C   0  0  0  0  0  3  0  0  0  0  0  0
  -21.4270   -4.5350   24.9230 C   0  0  0  0  0  0  0  0  0  0  0  0
  -21.8390   -3.9810   23.6970 C   0  0  0  0  0  3  0  0  0  0  0  0
  -21.9310   -4.7970   22.5550 C   0  0  0  0  0  0  0  0  0  0  0  0
  -22.3100   -4.2550   21.3720 F   0  0  0  0  0  0  0  0  0  0  0  0
  -21.3320   -3.7460   26.0190 F   0  0  0  0  0  0  0  0  0  0  0  0
  -22.7240  -13.5550   21.1170 C   0  0  0  0  0  0  0  0  0  0  0  0
  -21.9910  -12.8620   21.9820 N   0  0  0  0  0  0  0  0  0  0  0  0
  -22.2880  -14.5770   20.5900 O   0  0  0  0  0  0  0  0  0  0  0  0
  -22.3530  -12.0360   22.4350 H   0  0  0  0  0  0  0  0  0  0  0  0
  -21.0520  -13.1660   22.1960 H   0  0  0  0  0  0  0  0  0  0  0  0
  -25.3440  -15.2280   20.2940 N   0  0  0  0  0  0  0  0  0  0  0  0
  -24.5690  -15.8750   20.3980 H   0  0  0  0  0  0  0  0  0  0  0  0
  -26.1770  -15.6700   19.9310 H   0  0  0  0  0  0  0  0  0  0  0  0
  -28.0580  -24.9490   20.6990 C   0  0  0  0  0  2  0  0  0  0  0  0
  -28.2880  -26.3680   20.2320 O   0  0  0  0  0  0  0  0  0  0  0  0
  -24.6020  -31.8810   23.2370 C   0  0  0  0  0  0  0  0  0  0  0  0
  -27.1950  -27.2650   20.2090 C   0  0  0  0  0  0  0  0  0  0  0  0
  -23.3950  -30.4800   21.6010 C   0  0  0  0  0  3  0  0  0  0  0  0
  -24.8430  -28.9180   20.1770 C   0  0  0  0  0  0  0  0  0  0  0  0
  -25.9380  -30.7850   21.4160 C   0  0  0  0  0  2  0  0  0  0  0  0
  -26.0160  -29.3990   20.7740 C   0  0  0  0  0  0  0  0  0  0  0  0
  -27.1990  -28.5890   20.7720 C   0  0  0  0  0  3  0  0  0  0  0  0
  -26.0020  -26.8550   19.5780 C   0  0  0  0  0  3  0  0  0  0  0  0
  -24.8430  -27.6550   19.5630 C   0  0  0  0  0  3  0  0  0  0  0  0
  -23.6070  -29.7960   20.2230 C   0  0  0  0  0  2  0  0  0  0  0  0
  -24.6640  -31.0680   22.1410 N   0  0  0  0  0  0  0  0  0  0  0  0
  -23.5190  -32.1620   23.7720 O   0  0  0  0  0  0  0  0  0  0  0  0
  -22.7290  -29.4700   22.5660 C   0  0  0  0  0  0  0  0  0  0  0  0
  -21.4020  -29.2960   22.4440 N   0  0  0  0  0  0  0  0  0  0  0  0
  -23.4070  -28.8440   23.3860 O   0  0  0  0  0  0  0  0  0  0  0  0
  -20.9130  -29.8540   21.7580 H   0  0  0  0  0  0  0  0  0  0  0  0
  -18.0260  -28.0990   22.9540 C   0  0  0  0  0  0  0  0  0  0  0  0
  -20.5840  -28.3610   23.2180 C   0  0  0  0  0  3  0  0  0  0  0  0
  -20.6870  -26.9280   22.6470 C   0  0  0  0  0  2  0  0  0  0  0  0
  -19.5840  -26.5990   21.6360 C   0  0  0  0  0  2  0  0  0  0  0  0
  -18.2020  -26.7470   22.2810 C   0  0  0  0  0  2  0  0  0  0  0  0
  -19.1440  -28.8630   23.3780 C   0  0  0  0  0  0  0  0  0  0  0  0
  -18.9260  -30.1280   23.9680 C   0  0  0  0  0  3  0  0  0  0  0  0
  -17.6200  -30.6290   24.1350 C   0  0  0  0  0  3  0  0  0  0  0  0
  -16.5160  -29.8620   23.7270 C   0  0  0  0  0  3  0  0  0  0  0  0
  -16.7190  -28.5980   23.1420 C   0  0  0  0  0  3  0  0  0  0  0  0
  -25.8860  -32.5160   23.8570 C   0  0  0  0  0  3  0  0  0  0  0  0
  -25.5760  -33.9150   24.1850 N   0  0  0  0  0  0  0  0  0  0  0  0
  -25.9060  -34.9690   23.4260 C   0  0  0  0  0  0  0  0  0  0  0  0
  -26.5710  -34.8640   22.3910 O   0  0  0  0  0  0  0  0  0  0  0  0
  -24.9860  -34.0690   24.9900 H   0  0  0  0  0  0  0  0  0  0  0  0
  -24.1800  -36.7670   23.0740 C   0  0  0  0  0  1  0  0  0  0  0  0
  -25.4220  -36.3580   23.8840 C   0  0  0  0  0  3  0  0  0  0  0  0
  -27.5590  -37.2400   24.7110 C   0  0  0  0  0  1  0  0  0  0  0  0
  -26.4560  -37.4090   23.7700 N   0  0  0  0  0  0  0  0  0  0  0  0
  -26.0510  -38.3300   23.9170 H   0  0  0  0  0  0  0  0  0  0  0  0
  -26.4010  -31.7490   25.1360 C   0  0  1  0  0  0  0  0  0  0  0  0
  -25.3070  -31.5200   26.2060 C   0  0  0  0  0  1  0  0  0  0  0  0
  -26.9810  -30.3670   24.7530 C   0  0  0  0  0  1  0  0  0  0  0  0
  -27.5530  -32.5430   25.7960 C   0  0  0  0  0  1  0  0  0  0  0  0
  1  2  1  0
  1  4  1  0
  2  5  1  0
  4 15  1  0
  4  3  1  0
  5 49  1  0
  5  3  1  0
  6 18  1  0
  7 12  1  0
  8  9  1  0
  8  7  1  0
 10  9  1  0
 10 24  1  0
 10 11  1  0
 12  6  1  0
 12 11  1  0
 13  6  2  0
 14 19  1  0
 15 14  2  0
 16 19  1  0
 17 15  1  0
 17 16  2  0
 18 20  1  0
 18 16  1  0
 21 22  2  0
 22 41  1  0
 23 22  1  0
 23 26  1  0
 24 21  1  0
 24 25  1  0
 25 23  2  0
 26 27  1  0
 27 28  2  0
 29 32  1  0
 29 28  1  0
 30 29  2  0
 31 30  1  0
 31 26  2  0
 32 33  1  0
 33 34  1  0
 34 35  2  0
 36 35  1  0
 36 40  1  0
 37 36  2  0
 38 33  2  0
 38 37  1  0
 39 38  1  0
 41 42  1  0
 42 45  1  0
 42 44  1  0
 43 41  2  0
 46 47  1  0
 46 21  1  0
 48 46  1  0
 50 49  1  0
 51 62  2  0
 52 50  1  0
 52 57  1  0
 53 61  1  0
 53 63  1  0
 54 60  1  0
 54 56  1  0
 55 61  1  0
 56 55  1  0
 57 56  2  0
 58 52  2  0
 59 58  1  0
 59 54  2  0
 60 53  1  0
 61 51  1  0
 63 65  2  0
 64 63  1  0
 66 64  1  0
 67 76  2  0
 67 72  1  0
 68 64  1  0
 68 72  1  0
 69 68  1  0
 70 71  1  0
 70 69  1  0
 71 67  1  0
 72 73  2  0
 73 74  1  0
 75 74  2  0
 76 75  1  0
 77 51  1  0
 77 78  1  0
 77 87  1  0
 78 81  1  0
 79 83  1  0
 79 78  1  0
 80 79  2  0
 83 82  1  0
 85 83  1  0
 85 86  1  0
 85 84  1  0
 87 90  1  1
 87 88  1  0
 89 87  1  0
M  ISO  4   6 100  18 100  49 101  50 101
M  END
>  <TORSDO>  (91) 
F 17

>  <SCORE>  (91) 
-15.050

>  <name>  (91) 
91

>  <ligand_id>  (91) 
91

>  <original_smiles>  (91) 
[H]c1sc(N([H])C(=O)N2C([H])([H])C([H])([H])C([H])([H])C([H])(n3nc(-c4c([H])c([H])c(Oc5c([H])c([H])c(F)c([H])c5F)c([H])c4[H])c(C(=O)N([H])[H])c3N([H])[H])C2([H])[H])nc1C1([H])C([H])([H])C([H])([H])C([H])(C([H])([H])Oc2c([H])c([H])c3c(c2[H])C([H])([H])N(C(=O)C([H])(N([H])C(=O)C([H])(N([H])C([H])([H])[H])C([H])([H])[H])C(C([H])([H])[H])(C([H])([H])[H])C([H])([H])[H])C([H])(C(=O)N([H])C2([H])c4c([H])c([H])c([H])c([H])c4C([H])([H])C([H])([H])C2([H])[H])C3([H])[H])C1([H])[H]

>  <smiles>  (91) 
[H]c1sc(N([H])C(=O)N2C([H])([H])C([H])([H])C([H])([H])C([H])(n3nc(-c4c([H])c([H])c(Oc5c([H])c([H])c(F)c([H])c5F)c([H])c4[H])c(C(=O)N([H])[H])c3N([H])[H])C2([H])[H])nc1C1([H])C([H])([H])C([H])([H])C([H])(C([H])([H])Oc2c([H])c([H])c3c(c2[H])C([H])([H])N(C(=O)C([H])(N([H])C(=O)C([H])(N([H])C([H])([H])[H])C([H])([H])[H])C(C([H])([H])[H])(C([H])([H])[H])C([H])([H])[H])C([H])(C(=O)N([H])C2([H])c4c([H])c([H])c([H])c([H])c4C([H])([H])C([H])([H])C2([H])[H])C3([H])[H])C1([H])[H]

$$$$
92:0:0
     RDKit          3D

 99108  0  0  1  0  0  0  0  0999 V2000
  -31.5770  -18.4160   18.5780 C   0  0  0  0  0  3  0  0  0  0  0  0
  -31.1260  -19.6700   19.0190 C   0  0  0  0  0  3  0  0  0  0  0  0
  -30.7640  -18.7290   21.2100 C   0  0  0  0  0  3  0  0  0  0  0  0
  -31.2360  -17.4550   20.7790 C   0  0  0  0  0  0  0  0  0  0  0  0
  -31.5540  -17.2540   19.3970 C   0  0  0  0  0  0  0  0  0  0  0  0
  -30.6520  -19.8240   20.3270 C   0  0  0  0  0  0  0  0  0  0  0  0
  -30.0690  -15.7170   22.3790 C   0  0  0  0  0  2  0  0  0  0  0  0
  -31.0150  -16.4930   23.2680 C   0  0  0  0  0  2  0  0  0  0  0  0
  -31.3160  -16.3310   21.7900 C   0  0  0  0  0  3  0  0  0  0  0  0
  -30.4560  -21.8200   21.5180 C   0  0  0  0  0  3  0  0  0  0  0  0
  -29.9820  -21.0080   20.6530 N   0  0  0  0  0  0  0  0  0  0  0  0
  -29.9380  -23.2140   21.8870 C   0  0  0  0  0  0  0  0  0  0  0  0
  -30.2940  -23.7310   22.9510 O   0  0  0  0  0  0  0  0  0  0  0  0
  -29.3950  -23.8450   19.4600 C   0  0  0  0  0  1  0  0  0  0  0  0
  -27.5300  -23.4100   21.1350 C   0  0  0  0  0  1  0  0  0  0  0  0
  -28.9510  -23.9920   20.9440 C   0  0  1  0  0  0  0  0  0  0  0  0
  -28.9480  -25.5220   21.3040 C   0  0  0  0  0  2  0  0  0  0  0  0
  -28.6980  -26.3810   20.1800 O   0  0  0  0  0  0  0  0  0  0  0  0
  -24.5610  -31.3890   23.1150 C   0  0  0  0  0  0  0  0  0  0  0  0
  -27.5090  -27.0640   20.1780 C   0  0  0  0  0  0  0  0  0  0  0  0
  -23.4900  -29.9550   21.4080 C   0  0  0  0  0  3  0  0  0  0  0  0
  -25.0700  -28.4760   20.0520 C   0  0  0  0  0  0  0  0  0  0  0  0
  -26.0060  -30.4020   21.3430 C   0  0  0  0  0  2  0  0  0  0  0  0
  -26.1700  -29.0360   20.7140 C   0  0  0  0  0  0  0  0  0  0  0  0
  -27.3910  -28.3320   20.7890 C   0  0  0  0  0  3  0  0  0  0  0  0
  -26.4060  -26.5260   19.4850 C   0  0  0  0  0  3  0  0  0  0  0  0
  -25.1800  -27.2150   19.4390 C   0  0  0  0  0  3  0  0  0  0  0  0
  -23.7960  -29.2880   20.0390 C   0  0  0  0  0  2  0  0  0  0  0  0
  -24.7010  -30.5960   22.0150 N   0  0  0  0  0  0  0  0  0  0  0  0
  -23.4450  -31.6230   23.5990 O   0  0  0  0  0  0  0  0  0  0  0  0
  -22.8280  -28.9050   22.3270 C   0  0  0  0  0  0  0  0  0  0  0  0
  -21.5230  -28.6660   22.1180 N   0  0  0  0  0  0  0  0  0  0  0  0
  -23.4870  -28.3100   23.1840 O   0  0  0  0  0  0  0  0  0  0  0  0
  -21.0500  -29.2060   21.4070 H   0  0  0  0  0  0  0  0  0  0  0  0
  -18.1800  -27.3350   22.4130 C   0  0  0  0  0  0  0  0  0  0  0  0
  -20.7040  -27.6880   22.8320 C   0  0  0  0  0  3  0  0  0  0  0  0
  -20.8960  -26.2710   22.2450 C   0  0  0  0  0  2  0  0  0  0  0  0
  -19.8660  -25.9240   21.1640 C   0  0  0  0  0  2  0  0  0  0  0  0
  -18.4480  -26.0030   21.7330 C   0  0  0  0  0  2  0  0  0  0  0  0
  -19.2400  -28.1350   22.9130 C   0  0  0  0  0  0  0  0  0  0  0  0
  -18.9430  -29.3860   23.4970 C   0  0  0  0  0  3  0  0  0  0  0  0
  -17.6140  -29.8380   23.5890 C   0  0  0  0  0  3  0  0  0  0  0  0
  -16.5640  -29.0360   23.1100 C   0  0  0  0  0  3  0  0  0  0  0  0
  -16.8470  -27.7880   22.5260 C   0  0  0  0  0  3  0  0  0  0  0  0
  -25.7930  -32.0590   23.8030 C   0  0  0  0  0  3  0  0  0  0  0  0
  -26.2870  -31.2840   25.0860 C   0  0  1  0  0  0  0  0  0  0  0  0
  -25.1550  -30.9700   26.0940 C   0  0  0  0  0  1  0  0  0  0  0  0
  -26.9570  -29.9450   24.6940 C   0  0  0  0  0  1  0  0  0  0  0  0
  -27.3680  -32.1150   25.8180 C   0  0  0  0  0  1  0  0  0  0  0  0
  -25.4150  -33.4370   24.1410 N   0  0  0  0  0  0  0  0  0  0  0  0
  -25.7300  -34.5110   23.4040 C   0  0  0  0  0  0  0  0  0  0  0  0
  -26.4390  -34.4470   22.3960 O   0  0  0  0  0  0  0  0  0  0  0  0
  -24.7880  -33.5570   24.9230 H   0  0  0  0  0  0  0  0  0  0  0  0
  -23.9310  -36.2260   23.0140 C   0  0  0  0  0  1  0  0  0  0  0  0
  -25.1670  -35.8730   23.8570 C   0  0  0  0  0  3  0  0  0  0  0  0
  -27.2320  -36.8510   24.7600 C   0  0  0  0  0  1  0  0  0  0  0  0
  -26.1550  -36.9720   23.7810 N   0  0  0  0  0  0  0  0  0  0  0  0
  -25.7010  -37.8710   23.9190 H   0  0  0  0  0  0  0  0  0  0  0  0
  -31.6210  -15.9460   18.6190 C   0  0  0  0  0  3  0  0  0  0  0  0
  -32.0950  -14.6210   19.3350 C   0  0  0  0  0  0  0  0  0  0  0  0
  -31.4750  -12.3950   18.5600 C   0  0  0  0  0  2  0  0  0  0  0  0
  -30.4290  -12.5490   17.4340 C   0  0  0  0  0  2  0  0  0  0  0  0
  -28.9970  -12.5720   18.0140 C   0  0  0  0  0  2  0  0  0  0  0  0
  -28.8310  -13.5100   19.2420 C   0  0  0  0  0  3  0  0  0  0  0  0
  -30.0200  -13.3880   20.2210 C   0  0  0  0  0  2  0  0  0  0  0  0
  -31.2880  -13.5240   19.4800 N   0  0  0  0  0  0  0  0  0  0  0  0
  -33.3150  -14.4850   19.2890 O   0  0  0  0  0  0  0  0  0  0  0  0
  -26.6600  -14.3540   20.3170 C   0  0  0  0  0  0  0  0  0  0  0  0
  -25.5360  -13.6950   20.7350 C   0  0  0  0  0  0  0  0  0  0  0  0
  -25.7990  -12.3080   20.5320 C   0  0  0  0  0  0  0  0  0  0  0  0
  -27.5370  -13.3670   19.8870 N   0  0  0  0  0  0  0  0  0  0  0  0
  -27.0320  -12.1270   20.0780 N   0  0  0  0  0  0  0  0  0  0  0  0
  -24.9290  -11.1400   20.6900 C   0  0  0  0  0  0  0  0  0  0  0  0
  -25.2600  -10.0890   21.5710 C   0  0  0  0  0  3  0  0  0  0  0  0
  -24.3960   -8.9850   21.7230 C   0  0  0  0  0  3  0  0  0  0  0  0
  -23.1860   -8.9280   20.9930 C   0  0  0  0  0  0  0  0  0  0  0  0
  -22.8720   -9.9670   20.0980 C   0  0  0  0  0  3  0  0  0  0  0  0
  -23.7350  -11.0620   19.9440 C   0  0  0  0  0  3  0  0  0  0  0  0
  -22.2950   -7.8840   21.0600 O   0  0  0  0  0  0  0  0  0  0  0  0
  -22.0720   -7.2050   22.2310 C   0  0  0  0  0  0  0  0  0  0  0  0
  -21.5840   -7.8540   23.3870 C   0  0  0  0  0  3  0  0  0  0  0  0
  -21.3020   -7.1060   24.5490 C   0  0  0  0  0  3  0  0  0  0  0  0
  -21.4970   -5.7130   24.5530 C   0  0  0  0  0  0  0  0  0  0  0  0
  -21.9750   -5.0640   23.4010 C   0  0  0  0  0  3  0  0  0  0  0  0
  -22.2600   -5.8080   22.2430 C   0  0  0  0  0  0  0  0  0  0  0  0
  -22.7020   -5.1760   21.1280 F   0  0  0  0  0  0  0  0  0  0  0  0
  -21.2170   -4.9920   25.6640 F   0  0  0  0  0  0  0  0  0  0  0  0
  -24.2590  -14.3250   21.2090 C   0  0  0  0  0  0  0  0  0  0  0  0
  -23.5490  -13.6610   22.1150 N   0  0  0  0  0  0  0  0  0  0  0  0
  -23.9110  -15.4370   20.8170 O   0  0  0  0  0  0  0  0  0  0  0  0
  -23.8450  -12.7590   22.4580 H   0  0  0  0  0  0  0  0  0  0  0  0
  -22.6960  -14.0650   22.4760 H   0  0  0  0  0  0  0  0  0  0  0  0
  -26.9820  -15.7070   20.2500 N   0  0  0  0  0  0  0  0  0  0  0  0
  -26.3060  -16.4030   20.5470 H   0  0  0  0  0  0  0  0  0  0  0  0
  -27.8920  -16.1060   20.0880 H   0  0  0  0  0  0  0  0  0  0  0  0
  -30.5050  -15.8960   17.6740 N   0  0  0  0  0  4  0  0  0  0  0  0
  -29.6620  -15.6290   18.1390 H   0  0  0  0  0  0  0  0  0  0  0  0
  -30.7060  -15.2650   16.9200 H   0  0  0  0  0  0  0  0  0  0  0  0
  -30.3720  -16.8130   17.2850 H   0  0  0  0  0  0  0  0  0  0  0  0
  1  2  2  0
  1  5  1  0
  2  6  1  0
  4  3  1  0
  4  9  1  0
  5  4  2  0
  6 11  1  0
  6  3  2  0
  7  8  1  0
  9  7  1  0
  9  8  1  0
 10 12  1  0
 11 10  2  0
 12 13  2  0
 16 14  1  6
 16 15  1  0
 16 17  1  0
 16 12  1  0
 18 17  1  0
 19 30  2  0
 20 18  1  0
 20 25  1  0
 21 29  1  0
 21 31  1  0
 22 24  1  0
 23 29  1  0
 24 25  2  0
 24 23  1  0
 26 20  2  0
 27 26  1  0
 27 22  2  0
 28 22  1  0
 28 21  1  0
 29 19  1  0
 31 33  2  0
 32 31  1  0
 34 32  1  0
 35 44  2  0
 35 40  1  0
 36 32  1  0
 36 40  1  0
 37 36  1  0
 38 39  1  0
 38 37  1  0
 39 35  1  0
 40 41  2  0
 41 42  1  0
 43 42  2  0
 44 43  1  0
 45 19  1  0
 45 50  1  0
 45 46  1  0
 46 49  1  1
 46 47  1  0
 48 46  1  0
 50 53  1  0
 51 55  1  0
 51 50  1  0
 52 51  2  0
 55 54  1  0
 57 55  1  0
 57 58  1  0
 57 56  1  0
 59 60  1  0
 59  5  1  0
 60 66  1  0
 61 66  1  0
 62 63  1  0
 62 61  1  0
 64 63  1  0
 64 71  1  0
 64 65  1  0
 66 65  1  0
 67 60  2  0
 68 69  2  0
 69 88  1  0
 70 73  1  0
 70 69  1  0
 71 72  1  0
 71 68  1  0
 72 70  2  0
 73 74  1  0
 74 75  2  0
 76 79  1  0
 76 75  1  0
 77 76  2  0
 78 77  1  0
 78 73  2  0
 79 80  1  0
 80 85  2  0
 80 81  1  0
 81 82  2  0
 82 83  1  0
 83 87  1  0
 84 83  2  0
 85 84  1  0
 86 85  1  0
 88 89  1  0
 89 91  1  0
 89 92  1  0
 90 88  2  0
 93 68  1  0
 93 94  1  0
 95 93  1  0
 96 97  1  0
 96 59  1  0
 98 96  1  0
 99 96  1  0
M  ISO  4  17 101  18 101  59 100  60 100
M  END
>  <TORSDO>  (92) 
F 23

>  <SCORE>  (92) 
-8.467

>  <name>  (92) 
92

>  <ligand_id>  (92) 
92

>  <original_smiles>  (92) 
[H]C(=Nc1c([H])c([H])c(C([H])(C(=O)N2C([H])([H])C([H])([H])C([H])([H])C([H])(n3nc(-c4c([H])c([H])c(Oc5c([H])c([H])c(F)c([H])c5F)c([H])c4[H])c(C(=O)N([H])[H])c3N([H])[H])C2([H])[H])[N+]([H])([H])[H])c(C2([H])C([H])([H])C2([H])[H])c1[H])C(=O)C(C([H])([H])[H])(C([H])([H])[H])C([H])([H])Oc1c([H])c([H])c2c(c1[H])C([H])([H])N(C(=O)C([H])(N([H])C(=O)C([H])(N([H])C([H])([H])[H])C([H])([H])[H])C(C([H])([H])[H])(C([H])([H])[H])C([H])([H])[H])C([H])(C(=O)N([H])C1([H])c3c([H])c([H])c([H])c([H])c3C([H])([H])C([H])([H])C1([H])[H])C2([H])[H]

>  <smiles>  (92) 
[H]C(=Nc1c([H])c([H])c(C([H])(C(=O)N2C([H])([H])C([H])([H])C([H])([H])C([H])(n3nc(-c4c([H])c([H])c(Oc5c([H])c([H])c(F)c([H])c5F)c([H])c4[H])c(C(=O)N([H])[H])c3N([H])[H])C2([H])[H])[N+]([H])([H])[H])c(C2([H])C([H])([H])C2([H])[H])c1[H])C(=O)C(C([H])([H])[H])(C([H])([H])[H])C([H])([H])Oc1c([H])c([H])c2c(c1[H])C([H])([H])N(C(=O)C([H])(N([H])C(=O)C([H])(N([H])C([H])([H])[H])C([H])([H])[H])C(C([H])([H])[H])(C([H])([H])[H])C([H])([H])[H])C([H])(C(=O)N([H])C1([H])c3c([H])c([H])c([H])c([H])c3C([H])([H])C([H])([H])C1([H])[H])C2([H])[H]

$$$$
93:0:0
     RDKit          3D

 96104  0  0  1  0  0  0  0  0999 V2000
  -30.9140  -21.9680   21.0880 C   0  0  0  0  0  1  0  0  0  0  0  0
  -29.3800  -21.8540   21.2020 C   0  0  0  0  0  3  0  0  0  0  0  0
  -28.6130  -22.7830   20.2130 C   0  0  0  0  0  0  0  0  0  0  0  0
  -27.6720  -22.3470   19.5420 O   0  0  0  0  0  0  0  0  0  0  0  0
  -29.0000  -24.2860   20.0540 C   0  0  0  0  0  2  0  0  0  0  0  0
  -29.0170  -25.6000   22.2800 C   0  0  0  0  0  1  0  0  0  0  0  0
  -26.8490  -24.8890   21.3250 C   0  0  0  0  0  1  0  0  0  0  0  0
  -28.2850  -25.3610   20.9470 C   0  0  2  0  0  0  0  0  0  0  0  0
  -28.3970  -26.6390   20.2270 O   0  0  0  0  0  0  0  0  0  0  0  0
  -24.6380  -31.8890   23.2370 C   0  0  0  0  0  0  0  0  0  0  0  0
  -27.2850  -27.4590   20.1550 C   0  0  0  0  0  0  0  0  0  0  0  0
  -23.4410  -30.4950   21.5810 C   0  0  0  0  0  3  0  0  0  0  0  0
  -24.9100  -28.9920   20.1250 C   0  0  0  0  0  0  0  0  0  0  0  0
  -25.9660  -30.8600   21.4000 C   0  0  0  0  0  2  0  0  0  0  0  0
  -26.0600  -29.4940   20.7490 C   0  0  0  0  0  0  0  0  0  0  0  0
  -27.2530  -28.7330   20.7720 C   0  0  0  0  0  3  0  0  0  0  0  0
  -26.1500  -27.0230   19.4410 C   0  0  0  0  0  3  0  0  0  0  0  0
  -24.9540  -27.7590   19.4560 C   0  0  0  0  0  3  0  0  0  0  0  0
  -23.6560  -29.8350   20.1900 C   0  0  0  0  0  2  0  0  0  0  0  0
  -24.6990  -31.0970   22.1300 N   0  0  0  0  0  0  0  0  0  0  0  0
  -23.5550  -32.1500   23.7790 O   0  0  0  0  0  0  0  0  0  0  0  0
  -22.7980  -29.4570   22.5320 C   0  0  0  0  0  0  0  0  0  0  0  0
  -21.4740  -29.2720   22.4110 N   0  0  0  0  0  0  0  0  0  0  0  0
  -23.4880  -28.8220   23.3340 O   0  0  0  0  0  0  0  0  0  0  0  0
  -20.9740  -29.8360   21.7370 H   0  0  0  0  0  0  0  0  0  0  0  0
  -18.1100  -28.0700   22.9280 C   0  0  0  0  0  0  0  0  0  0  0  0
  -20.6690  -28.3250   23.1800 C   0  0  0  0  0  3  0  0  0  0  0  0
  -20.7660  -26.9000   22.5870 C   0  0  0  0  0  2  0  0  0  0  0  0
  -19.6540  -26.5900   21.5780 C   0  0  0  0  0  2  0  0  0  0  0  0
  -18.2790  -26.7280   22.2360 C   0  0  0  0  0  2  0  0  0  0  0  0
  -19.2310  -28.8260   23.3590 C   0  0  0  0  0  0  0  0  0  0  0  0
  -19.0190  -30.0840   23.9650 C   0  0  0  0  0  3  0  0  0  0  0  0
  -17.7160  -30.5840   24.1460 C   0  0  0  0  0  3  0  0  0  0  0  0
  -16.6080  -29.8260   23.7300 C   0  0  0  0  0  3  0  0  0  0  0  0
  -16.8050  -28.5720   23.1270 C   0  0  0  0  0  3  0  0  0  0  0  0
  -25.9210  -32.5250   23.8590 C   0  0  0  0  0  3  0  0  0  0  0  0
  -25.6060  -33.9230   24.1820 N   0  0  0  0  0  0  0  0  0  0  0  0
  -25.9360  -34.9740   23.4200 C   0  0  0  0  0  0  0  0  0  0  0  0
  -26.6090  -34.8710   22.3900 O   0  0  0  0  0  0  0  0  0  0  0  0
  -25.0060  -34.0800   24.9790 H   0  0  0  0  0  0  0  0  0  0  0  0
  -24.1980  -36.7570   23.0610 C   0  0  0  0  0  1  0  0  0  0  0  0
  -25.4430  -36.3610   23.8730 C   0  0  0  0  0  3  0  0  0  0  0  0
  -27.5730  -37.2570   24.7030 C   0  0  0  0  0  1  0  0  0  0  0  0
  -26.4690  -37.4200   23.7590 N   0  0  0  0  0  0  0  0  0  0  0  0
  -26.0590  -38.3360   23.9090 H   0  0  0  0  0  0  0  0  0  0  0  0
  -26.4410  -31.7550   25.1350 C   0  0  1  0  0  0  0  0  0  0  0  0
  -25.3470  -31.5150   26.2020 C   0  0  0  0  0  1  0  0  0  0  0  0
  -27.0300  -30.3800   24.7440 C   0  0  0  0  0  1  0  0  0  0  0  0
  -27.5900  -32.5520   25.7940 C   0  0  0  0  0  1  0  0  0  0  0  0
  -28.8940  -20.4550   21.2070 N   0  0  0  0  0  0  0  0  0  0  0  0
  -27.8770  -20.4250   21.2510 H   0  0  0  0  0  0  0  0  0  0  0  0
  -29.4630  -18.0900   20.9510 C   0  0  0  0  0  3  0  0  0  0  0  0
  -30.3080  -17.2170   18.8470 C   0  0  0  0  0  3  0  0  0  0  0  0
  -29.8340  -19.6060   19.0770 C   0  0  0  0  0  3  0  0  0  0  0  0
  -29.9250  -16.9800   20.1890 C   0  0  0  0  0  0  0  0  0  0  0  0
  -29.4160  -19.4070   20.4120 C   0  0  0  0  0  0  0  0  0  0  0  0
  -30.2680  -18.5130   18.3000 C   0  0  0  0  0  0  0  0  0  0  0  0
  -30.6370  -18.7050   17.0070 F   0  0  0  0  0  0  0  0  0  0  0  0
  -30.6420  -14.5850   20.3090 C   0  0  0  0  0  0  0  0  0  0  0  0
  -30.3590  -12.3980   19.2090 C   0  0  0  0  0  2  0  0  0  0  0  0
  -29.3970  -12.5810   18.0110 C   0  0  0  0  0  2  0  0  0  0  0  0
  -27.9290  -12.4420   18.4620 C   0  0  0  0  0  2  0  0  0  0  0  0
  -27.6060  -13.2860   19.7220 C   0  0  0  0  0  3  0  0  0  0  0  0
  -28.6780  -13.0880   20.8230 C   0  0  0  0  0  2  0  0  0  0  0  0
  -29.9930  -13.3900   20.2350 N   0  0  0  0  0  0  0  0  0  0  0  0
  -31.7860  -14.7350   19.8620 O   0  0  0  0  0  0  0  0  0  0  0  0
  -29.9200  -15.6440   20.7430 N   0  0  0  0  0  0  0  0  0  0  0  0
  -29.1430  -15.4260   21.3500 H   0  0  0  0  0  0  0  0  0  0  0  0
  -25.2160  -13.8860   20.4640 C   0  0  0  0  0  0  0  0  0  0  0  0
  -24.1510  -13.1150   20.8500 C   0  0  0  0  0  0  0  0  0  0  0  0
  -24.6130  -11.7640   20.8180 C   0  0  0  0  0  0  0  0  0  0  0  0
  -26.2600  -13.0070   20.2230 N   0  0  0  0  0  0  0  0  0  0  0  0
  -25.9020  -11.7240   20.4950 N   0  0  0  0  0  0  0  0  0  0  0  0
  -23.8920  -10.5020   21.0220 C   0  0  0  0  0  0  0  0  0  0  0  0
  -24.3370   -9.5430   21.9590 C   0  0  0  0  0  3  0  0  0  0  0  0
  -23.6180   -8.3420   22.1490 C   0  0  0  0  0  3  0  0  0  0  0  0
  -22.4410   -8.0940   21.4040 C   0  0  0  0  0  0  0  0  0  0  0  0
  -22.0160   -9.0420   20.4560 C   0  0  0  0  0  3  0  0  0  0  0  0
  -22.7360  -10.2330   20.2630 C   0  0  0  0  0  3  0  0  0  0  0  0
  -21.6930   -6.9440   21.5010 O   0  0  0  0  0  0  0  0  0  0  0  0
  -21.6480   -6.2110   22.6600 C   0  0  0  0  0  0  0  0  0  0  0  0
  -21.2150   -6.7720   23.8810 C   0  0  0  0  0  3  0  0  0  0  0  0
  -21.1160   -5.9650   25.0320 C   0  0  0  0  0  3  0  0  0  0  0  0
  -21.4440   -4.5970   24.9630 C   0  0  0  0  0  0  0  0  0  0  0  0
  -21.8730   -4.0360   23.7470 C   0  0  0  0  0  3  0  0  0  0  0  0
  -21.9700   -4.8400   22.5970 C   0  0  0  0  0  0  0  0  0  0  0  0
  -22.3620   -4.2900   21.4230 F   0  0  0  0  0  0  0  0  0  0  0  0
  -21.3450   -3.8190   26.0660 F   0  0  0  0  0  0  0  0  0  0  0  0
  -22.7550  -13.5910   21.1380 C   0  0  0  0  0  0  0  0  0  0  0  0
  -22.0360  -12.8960   22.0130 N   0  0  0  0  0  0  0  0  0  0  0  0
  -22.3090  -14.6150   20.6220 O   0  0  0  0  0  0  0  0  0  0  0  0
  -22.4090  -12.0740   22.4650 H   0  0  0  0  0  0  0  0  0  0  0  0
  -21.0960  -13.1940   22.2370 H   0  0  0  0  0  0  0  0  0  0  0  0
  -25.3830  -15.2560   20.2780 N   0  0  0  0  0  0  0  0  0  0  0  0
  -24.6310  -15.9250   20.3960 H   0  0  0  0  0  0  0  0  0  0  0  0
  -26.2430  -15.6790   19.9530 H   0  0  0  0  0  0  0  0  0  0  0  0
  2  1  1  0
  2 50  1  0
  3  2  1  0
  4  3  2  0
  5  3  1  0
  5  8  1  0
  8  7  1  1
  8  6  1  0
  9  8  1  0
 10 21  2  0
 11  9  1  0
 11 16  1  0
 12 20  1  0
 12 22  1  0
 13 19  1  0
 13 15  1  0
 14 20  1  0
 15 16  2  0
 15 14  1  0
 17 18  1  0
 17 11  2  0
 18 13  2  0
 19 12  1  0
 20 10  1  0
 22 24  2  0
 23 22  1  0
 25 23  1  0
 26 35  2  0
 26 31  1  0
 27 23  1  0
 27 31  1  0
 28 27  1  0
 29 30  1  0
 29 28  1  0
 30 26  1  0
 31 32  2  0
 32 33  1  0
 34 33  2  0
 35 34  1  0
 36 10  1  0
 36 37  1  0
 36 46  1  0
 37 40  1  0
 38 42  1  0
 38 37  1  0
 39 38  2  0
 42 41  1  0
 44 42  1  0
 44 45  1  0
 44 43  1  0
 46 49  1  1
 46 47  1  0
 48 46  1  0
 50 51  1  0
 53 55  1  0
 54 56  2  0
 55 67  1  0
 55 52  2  0
 56 52  1  0
 56 50  1  0
 57 53  2  0
 57 54  1  0
 58 57  1  0
 59 67  1  0
 60 65  1  0
 61 62  1  0
 61 60  1  0
 63 62  1  0
 63 72  1  0
 63 64  1  0
 65 59  1  0
 65 64  1  0
 66 59  2  0
 67 68  1  0
 69 70  2  0
 70 89  1  0
 71 70  1  0
 71 74  1  0
 72 69  1  0
 72 73  1  0
 73 71  2  0
 74 75  1  0
 75 76  2  0
 77 80  1  0
 77 76  1  0
 78 77  2  0
 79 78  1  0
 79 74  2  0
 80 81  1  0
 81 82  1  0
 82 83  2  0
 84 83  1  0
 84 88  1  0
 85 84  2  0
 86 81  2  0
 86 85  1  0
 87 86  1  0
 89 90  1  0
 90 93  1  0
 90 92  1  0
 91 89  2  0
 94 95  1  0
 94 69  1  0
 96 94  1  0
M  ISO  4   8 101   9 101  59 100  67 100
M  END
>  <TORSDO>  (93) 
F 21

>  <SCORE>  (93) 
-13.998

>  <name>  (93) 
93

>  <ligand_id>  (93) 
93

>  <original_smiles>  (93) 
[H]c1c([H])c([H])c2c(c1[H])C([H])([H])C([H])([H])C([H])([H])C2([H])N([H])C(=O)C1([H])N(C(=O)C([H])(N([H])C(=O)C([H])(N([H])C([H])([H])[H])C([H])([H])[H])C(C([H])([H])[H])(C([H])([H])[H])C([H])([H])[H])C([H])([H])c2c([H])c(OC(C([H])([H])[H])(C([H])([H])[H])C([H])([H])C(=O)C([H])(N([H])c3c([H])c(F)c([H])c(N([H])C(=O)N4C([H])([H])C([H])([H])C([H])([H])C([H])(n5nc(-c6c([H])c([H])c(Oc7c([H])c([H])c(F)c([H])c7F)c([H])c6[H])c(C(=O)N([H])[H])c5N([H])[H])C4([H])[H])c3[H])C([H])([H])[H])c([H])c([H])c2C1([H])[H]

>  <smiles>  (93) 
[H]c1c([H])c([H])c2c(c1[H])C([H])([H])C([H])([H])C([H])([H])C2([H])N([H])C(=O)C1([H])N(C(=O)C([H])(N([H])C(=O)C([H])(N([H])C([H])([H])[H])C([H])([H])[H])C(C([H])([H])[H])(C([H])([H])[H])C([H])([H])[H])C([H])([H])c2c([H])c(OC(C([H])([H])[H])(C([H])([H])[H])C([H])([H])C(=O)C([H])(N([H])c3c([H])c(F)c([H])c(N([H])C(=O)N4C([H])([H])C([H])([H])C([H])([H])C([H])(n5nc(-c6c([H])c([H])c(Oc7c([H])c([H])c(F)c([H])c7F)c([H])c6[H])c(C(=O)N([H])[H])c5N([H])[H])C4([H])[H])c3[H])C([H])([H])[H])c([H])c([H])c2C1([H])[H]

$$$$
94:0:0
     RDKit          3D

 96105  0  0  1  0  0  0  0  0999 V2000
  -30.8320  -20.6590   20.4770 C   0  0  0  0  0  3  0  0  0  0  0  0
  -30.5990  -24.3730   21.0000 C   0  0  0  0  0  2  0  0  0  0  0  0
  -31.4050  -23.0740   20.8490 C   0  0  0  0  0  2  0  0  0  0  0  0
  -29.0750  -22.6210   20.5580 C   0  0  0  0  0  2  0  0  0  0  0  0
  -29.3110  -24.1410   20.2000 C   0  0  2  0  0  0  0  0  0  0  0  0
  -29.5530  -24.2810   18.6790 C   0  0  0  0  0  1  0  0  0  0  0  0
  -30.4320  -21.9790   20.5930 N   0  0  0  0  0  0  0  0  0  0  0  0
  -32.1430  -20.4290   20.5610 N   0  0  0  0  0  0  0  0  0  0  0  0
  -32.4870  -19.5020   20.3550 H   0  0  0  0  0  0  0  0  0  0  0  0
  -32.8160  -21.1640   20.6970 H   0  0  0  0  0  0  0  0  0  0  0  0
  -28.3010  -18.3180   18.8580 C   0  0  0  0  0  3  0  0  0  0  0  0
  -28.9870  -19.4860   19.2380 C   0  0  0  0  0  3  0  0  0  0  0  0
  -28.6400  -17.0730   19.4180 C   0  0  0  0  0  3  0  0  0  0  0  0
  -30.3270  -18.1540   20.7910 C   0  0  0  0  0  3  0  0  0  0  0  0
  -30.0090  -19.4340   20.2090 C   0  0  0  0  0  0  0  0  0  0  0  0
  -29.6580  -16.9500   20.3860 C   0  0  0  0  0  0  0  0  0  0  0  0
  -30.5890  -14.6140   20.4520 C   0  0  0  0  0  0  0  0  0  0  0  0
  -30.3600  -12.4070   19.3520 C   0  0  0  0  0  2  0  0  0  0  0  0
  -29.4140  -12.5540   18.1380 C   0  0  0  0  0  2  0  0  0  0  0  0
  -27.9440  -12.3800   18.5710 C   0  0  0  0  0  2  0  0  0  0  0  0
  -27.5840  -13.2280   19.8190 C   0  0  0  0  0  3  0  0  0  0  0  0
  -28.6400  -13.0650   20.9350 C   0  0  0  0  0  2  0  0  0  0  0  0
  -29.9580  -13.4020   20.3670 N   0  0  0  0  0  0  0  0  0  0  0  0
  -31.7210  -14.7920   19.9890 O   0  0  0  0  0  0  0  0  0  0  0  0
  -29.8690  -15.6430   20.9800 N   0  0  0  0  0  0  0  0  0  0  0  0
  -29.0440  -15.2850   21.4380 H   0  0  0  0  0  0  0  0  0  0  0  0
  -25.1830  -13.8500   20.5010 C   0  0  0  0  0  0  0  0  0  0  0  0
  -24.1080  -13.0840   20.8670 C   0  0  0  0  0  0  0  0  0  0  0  0
  -24.5700  -11.7320   20.8510 C   0  0  0  0  0  0  0  0  0  0  0  0
  -26.2280  -12.9640   20.2910 N   0  0  0  0  0  0  0  0  0  0  0  0
  -25.8610  -11.6850   20.5540 N   0  0  0  0  0  0  0  0  0  0  0  0
  -23.8390  -10.4730   21.0430 C   0  0  0  0  0  0  0  0  0  0  0  0
  -24.2730   -9.5020   21.9730 C   0  0  0  0  0  3  0  0  0  0  0  0
  -23.5440   -8.3070   22.1540 C   0  0  0  0  0  3  0  0  0  0  0  0
  -22.3660   -8.0790   21.4030 C   0  0  0  0  0  0  0  0  0  0  0  0
  -21.9510   -9.0360   20.4610 C   0  0  0  0  0  3  0  0  0  0  0  0
  -22.6820  -10.2200   20.2800 C   0  0  0  0  0  3  0  0  0  0  0  0
  -21.6110   -6.9310   21.4900 O   0  0  0  0  0  0  0  0  0  0  0  0
  -21.5720   -6.1820   22.6390 C   0  0  0  0  0  0  0  0  0  0  0  0
  -21.1720   -6.7310   23.8760 C   0  0  0  0  0  3  0  0  0  0  0  0
  -21.0810   -5.9090   25.0170 C   0  0  0  0  0  3  0  0  0  0  0  0
  -21.3830   -4.5370   24.9210 C   0  0  0  0  0  0  0  0  0  0  0  0
  -21.7800   -3.9870   23.6880 C   0  0  0  0  0  3  0  0  0  0  0  0
  -21.8720   -4.8080   22.5510 C   0  0  0  0  0  0  0  0  0  0  0  0
  -22.2330   -4.2690   21.3610 F   0  0  0  0  0  0  0  0  0  0  0  0
  -21.2900   -3.7450   26.0120 F   0  0  0  0  0  0  0  0  0  0  0  0
  -22.7100  -13.5680   21.1270 C   0  0  0  0  0  0  0  0  0  0  0  0
  -21.9730  -12.8790   21.9910 N   0  0  0  0  0  0  0  0  0  0  0  0
  -22.2800  -14.5960   20.6040 O   0  0  0  0  0  0  0  0  0  0  0  0
  -22.3330  -12.0490   22.4380 H   0  0  0  0  0  0  0  0  0  0  0  0
  -21.0370  -13.1850   22.2110 H   0  0  0  0  0  0  0  0  0  0  0  0
  -25.3560  -15.2180   20.3090 N   0  0  0  0  0  0  0  0  0  0  0  0
  -24.6000  -15.8870   20.4120 H   0  0  0  0  0  0  0  0  0  0  0  0
  -26.2200  -15.6430   20.0050 H   0  0  0  0  0  0  0  0  0  0  0  0
  -28.1650  -25.1480   20.6030 C   0  0  0  0  0  2  0  0  0  0  0  0
  -28.3510  -26.5610   20.2320 O   0  0  0  0  0  0  0  0  0  0  0  0
  -24.5910  -31.9020   23.2190 C   0  0  0  0  0  0  0  0  0  0  0  0
  -27.2130  -27.3660   20.1940 C   0  0  0  0  0  0  0  0  0  0  0  0
  -23.3850  -30.4950   21.5840 C   0  0  0  0  0  3  0  0  0  0  0  0
  -24.8380  -28.9430   20.1680 C   0  0  0  0  0  0  0  0  0  0  0  0
  -25.9180  -30.8280   21.3920 C   0  0  0  0  0  2  0  0  0  0  0  0
  -26.0010  -29.4470   20.7640 C   0  0  0  0  0  0  0  0  0  0  0  0
  -27.1930  -28.6690   20.7690 C   0  0  0  0  0  3  0  0  0  0  0  0
  -26.0330  -26.9100   19.5630 C   0  0  0  0  0  3  0  0  0  0  0  0
  -24.8540  -27.6800   19.5560 C   0  0  0  0  0  3  0  0  0  0  0  0
  -23.5980  -29.8110   20.2070 C   0  0  0  0  0  2  0  0  0  0  0  0
  -24.6490  -31.0920   22.1230 N   0  0  0  0  0  0  0  0  0  0  0  0
  -23.5090  -32.1810   23.7560 O   0  0  0  0  0  0  0  0  0  0  0  0
  -22.7270  -29.4810   22.5470 C   0  0  0  0  0  0  0  0  0  0  0  0
  -21.4000  -29.3100   22.4270 N   0  0  0  0  0  0  0  0  0  0  0  0
  -23.4070  -28.8520   23.3630 O   0  0  0  0  0  0  0  0  0  0  0  0
  -20.9110  -29.8690   21.7410 H   0  0  0  0  0  0  0  0  0  0  0  0
  -18.0170  -28.1420   22.9420 C   0  0  0  0  0  0  0  0  0  0  0  0
  -20.5780  -28.3790   23.2010 C   0  0  0  0  0  3  0  0  0  0  0  0
  -20.6680  -26.9460   22.6270 C   0  0  0  0  0  2  0  0  0  0  0  0
  -19.5580  -26.6320   21.6170 C   0  0  0  0  0  2  0  0  0  0  0  0
  -18.1810  -26.7920   22.2650 C   0  0  0  0  0  2  0  0  0  0  0  0
  -19.1450  -28.8940   23.3670 C   0  0  0  0  0  0  0  0  0  0  0  0
  -18.9410  -30.1590   23.9600 C   0  0  0  0  0  3  0  0  0  0  0  0
  -17.6410  -30.6710   24.1340 C   0  0  0  0  0  3  0  0  0  0  0  0
  -16.5280  -29.9160   23.7260 C   0  0  0  0  0  3  0  0  0  0  0  0
  -16.7180  -28.6540   23.1350 C   0  0  0  0  0  3  0  0  0  0  0  0
  -25.8780  -32.5340   23.8350 C   0  0  0  0  0  3  0  0  0  0  0  0
  -25.5680  -33.9300   24.1750 N   0  0  0  0  0  0  0  0  0  0  0  0
  -25.8940  -34.9860   23.4190 C   0  0  0  0  0  0  0  0  0  0  0  0
  -26.5590  -34.8890   22.3830 O   0  0  0  0  0  0  0  0  0  0  0  0
  -24.9860  -34.0780   24.9850 H   0  0  0  0  0  0  0  0  0  0  0  0
  -24.1650  -36.7790   23.0690 C   0  0  0  0  0  1  0  0  0  0  0  0
  -25.4030  -36.3710   23.8840 C   0  0  0  0  0  3  0  0  0  0  0  0
  -27.5380  -37.2510   24.7220 C   0  0  0  0  0  1  0  0  0  0  0  0
  -26.4350  -37.4250   23.7810 N   0  0  0  0  0  0  0  0  0  0  0  0
  -26.0270  -38.3430   23.9390 H   0  0  0  0  0  0  0  0  0  0  0  0
  -26.4030  -31.7560   25.1030 C   0  0  1  0  0  0  0  0  0  0  0  0
  -25.3160  -31.5150   26.1760 C   0  0  0  0  0  1  0  0  0  0  0  0
  -26.9820  -30.3780   24.7010 C   0  0  0  0  0  1  0  0  0  0  0  0
  -27.5560  -32.5460   25.7650 C   0  0  0  0  0  1  0  0  0  0  0  0
  1  8  1  0
  1  7  1  0
  3  2  1  0
  4  7  1  0
  5  6  1  6
  5  4  1  0
  5 55  1  0
  5  2  1  0
  7  3  1  0
  8 10  1  0
  9  8  1  0
 11 12  2  0
 11 13  1  0
 12 15  1  0
 13 16  2  0
 15  1  1  0
 15 14  2  0
 16 14  1  0
 16 25  1  0
 17 25  1  0
 18 23  1  0
 19 20  1  0
 19 18  1  0
 21 20  1  0
 21 30  1  0
 21 22  1  0
 23 17  1  0
 23 22  1  0
 24 17  2  0
 25 26  1  0
 27 28  2  0
 28 47  1  0
 29 28  1  0
 29 32  1  0
 30 27  1  0
 30 31  1  0
 31 29  2  0
 32 33  1  0
 33 34  2  0
 35 38  1  0
 35 34  1  0
 36 35  2  0
 37 36  1  0
 37 32  2  0
 38 39  1  0
 39 40  1  0
 40 41  2  0
 42 41  1  0
 42 46  1  0
 43 42  2  0
 44 39  2  0
 44 43  1  0
 45 44  1  0
 47 48  1  0
 48 51  1  0
 48 50  1  0
 49 47  2  0
 52 53  1  0
 52 27  1  0
 54 52  1  0
 56 55  1  0
 57 68  2  0
 58 56  1  0
 58 63  1  0
 59 67  1  0
 59 69  1  0
 60 66  1  0
 60 62  1  0
 61 67  1  0
 62 63  2  0
 62 61  1  0
 64 58  2  0
 65 64  1  0
 65 60  2  0
 66 59  1  0
 67 57  1  0
 69 71  2  0
 70 69  1  0
 72 70  1  0
 73 82  2  0
 73 78  1  0
 74 70  1  0
 74 78  1  0
 75 74  1  0
 76 77  1  0
 76 75  1  0
 77 73  1  0
 78 79  2  0
 79 80  1  0
 81 80  2  0
 82 81  1  0
 83 57  1  0
 83 84  1  0
 83 93  1  0
 84 87  1  0
 85 89  1  0
 85 84  1  0
 86 85  2  0
 89 88  1  0
 91 89  1  0
 91 92  1  0
 91 90  1  0
 93 96  1  1
 93 94  1  0
 95 93  1  0
M  ISO  4  17 100  25 100  55 101  56 101
M  END
>  <TORSDO>  (94) 
F 18

>  <SCORE>  (94) 
-15.053

>  <name>  (94) 
94

>  <ligand_id>  (94) 
94

>  <original_smiles>  (94) 
[H]c1c([H])c(C(N2C([H])([H])C([H])([H])C(C([H])([H])[H])(C([H])([H])Oc3c([H])c([H])c4c(c3[H])C([H])([H])N(C(=O)C([H])(N([H])C(=O)C([H])(N([H])C([H])([H])[H])C([H])([H])[H])C(C([H])([H])[H])(C([H])([H])[H])C([H])([H])[H])C([H])(C(=O)N([H])C3([H])c5c([H])c([H])c([H])c([H])c5C([H])([H])C([H])([H])C3([H])[H])C4([H])[H])C2([H])[H])=[N+]([H])[H])c([H])c(N([H])C(=O)N2C([H])([H])C([H])([H])C([H])([H])C([H])(n3nc(-c4c([H])c([H])c(Oc5c([H])c([H])c(F)c([H])c5F)c([H])c4[H])c(C(=O)N([H])[H])c3N([H])[H])C2([H])[H])c1[H]

>  <smiles>  (94) 
[H]c1c([H])c(C(N2C([H])([H])C([H])([H])C(C([H])([H])[H])(C([H])([H])Oc3c([H])c([H])c4c(c3[H])C([H])([H])N(C(=O)C([H])(N([H])C(=O)C([H])(N([H])C([H])([H])[H])C([H])([H])[H])C(C([H])([H])[H])(C([H])([H])[H])C([H])([H])[H])C([H])(C(=O)N([H])C3([H])c5c([H])c([H])c([H])c([H])c5C([H])([H])C([H])([H])C3([H])[H])C4([H])[H])C2([H])[H])=[N+]([H])[H])c([H])c(N([H])C(=O)N2C([H])([H])C([H])([H])C([H])([H])C([H])(n3nc(-c4c([H])c([H])c(Oc5c([H])c([H])c(F)c([H])c5F)c([H])c4[H])c(C(=O)N([H])[H])c3N([H])[H])C2([H])[H])c1[H]

$$$$
95:0:0
     RDKit          3D

 95104  0  0  1  0  0  0  0  0999 V2000
  -29.2070  -21.1650   19.8910 C   0  0  0  0  0  3  0  0  0  0  0  0
  -30.9290  -23.7430   21.5500 C   0  0  0  0  0  2  0  0  0  0  0  0
  -30.6250  -24.3100   20.1410 C   0  0  0  0  0  2  0  0  0  0  0  0
  -29.8270  -22.6950   21.8030 C   0  0  0  0  0  2  0  0  0  0  0  0
  -29.1950  -23.8390   19.8010 C   0  0  0  0  0  3  0  0  0  0  0  0
  -29.2450  -22.4480   20.4670 N   0  0  0  0  0  0  0  0  0  0  0  0
  -28.6100  -21.0310   18.7100 N   0  0  0  0  0  0  0  0  0  0  0  0
  -28.6510  -20.1280   18.2540 H   0  0  0  0  0  0  0  0  0  0  0  0
  -28.2460  -21.8090   18.1850 H   0  0  0  0  0  0  0  0  0  0  0  0
  -32.1530  -18.9770   20.8470 C   0  0  0  0  0  3  0  0  0  0  0  0
  -31.3000  -20.0750   20.6550 C   0  0  0  0  0  3  0  0  0  0  0  0
  -31.6680  -17.6540   20.8070 C   0  0  0  0  0  3  0  0  0  0  0  0
  -29.4390  -18.5230   20.3690 C   0  0  0  0  0  3  0  0  0  0  0  0
  -29.9290  -19.9020   20.3810 C   0  0  0  0  0  0  0  0  0  0  0  0
  -30.2970  -17.3560   20.5820 C   0  0  0  0  0  0  0  0  0  0  0  0
  -30.5700  -14.7550   20.3540 C   0  0  0  0  0  0  0  0  0  0  0  0
  -30.3320  -12.4820   19.3400 C   0  0  0  0  0  2  0  0  0  0  0  0
  -29.3930  -12.5550   18.1170 C   0  0  0  0  0  2  0  0  0  0  0  0
  -27.9230  -12.4000   18.5500 C   0  0  0  0  0  2  0  0  0  0  0  0
  -27.5620  -13.2720   19.7810 C   0  0  0  0  0  3  0  0  0  0  0  0
  -28.6270  -13.1810   20.8960 C   0  0  0  0  0  2  0  0  0  0  0  0
  -29.9150  -13.5410   20.2900 N   0  0  0  0  0  0  0  0  0  0  0  0
  -31.7500  -14.8000   19.9950 O   0  0  0  0  0  0  0  0  0  0  0  0
  -29.8480  -15.9240   20.5850 N   0  0  0  0  0  0  0  0  0  0  0  0
  -28.8650  -15.7760   20.7610 H   0  0  0  0  0  0  0  0  0  0  0  0
  -25.1750  -13.8560   20.5040 C   0  0  0  0  0  0  0  0  0  0  0  0
  -24.1120  -13.0770   20.8780 C   0  0  0  0  0  0  0  0  0  0  0  0
  -24.5790  -11.7290   20.8500 C   0  0  0  0  0  0  0  0  0  0  0  0
  -26.2190  -12.9770   20.2730 N   0  0  0  0  0  0  0  0  0  0  0  0
  -25.8680  -11.6940   20.5400 N   0  0  0  0  0  0  0  0  0  0  0  0
  -23.8540  -10.4660   21.0400 C   0  0  0  0  0  0  0  0  0  0  0  0
  -24.2940   -9.4950   21.9670 C   0  0  0  0  0  3  0  0  0  0  0  0
  -23.5700   -8.2970   22.1470 C   0  0  0  0  0  3  0  0  0  0  0  0
  -22.3930   -8.0600   21.3970 C   0  0  0  0  0  0  0  0  0  0  0  0
  -21.9730   -9.0180   20.4590 C   0  0  0  0  0  3  0  0  0  0  0  0
  -22.6980  -10.2080   20.2780 C   0  0  0  0  0  3  0  0  0  0  0  0
  -21.6380   -6.9150   21.4860 O   0  0  0  0  0  0  0  0  0  0  0  0
  -21.6000   -6.1680   22.6370 C   0  0  0  0  0  0  0  0  0  0  0  0
  -21.1800   -6.7170   23.8680 C   0  0  0  0  0  3  0  0  0  0  0  0
  -21.0880   -5.8950   25.0120 C   0  0  0  0  0  3  0  0  0  0  0  0
  -21.4040   -4.5260   24.9230 C   0  0  0  0  0  0  0  0  0  0  0  0
  -21.8170   -3.9780   23.6950 C   0  0  0  0  0  3  0  0  0  0  0  0
  -21.9100   -4.7960   22.5560 C   0  0  0  0  0  0  0  0  0  0  0  0
  -22.2880   -4.2550   21.3700 F   0  0  0  0  0  0  0  0  0  0  0  0
  -21.3090   -3.7360   26.0190 F   0  0  0  0  0  0  0  0  0  0  0  0
  -22.7140  -13.5540   21.1500 C   0  0  0  0  0  0  0  0  0  0  0  0
  -21.9890  -12.8510   22.0150 N   0  0  0  0  0  0  0  0  0  0  0  0
  -22.2740  -14.5800   20.6360 O   0  0  0  0  0  0  0  0  0  0  0  0
  -22.3650  -12.0220   22.4510 H   0  0  0  0  0  0  0  0  0  0  0  0
  -21.0490  -13.1450   22.2450 H   0  0  0  0  0  0  0  0  0  0  0  0
  -25.3350  -15.2230   20.3200 N   0  0  0  0  0  0  0  0  0  0  0  0
  -24.5640  -15.8760   20.4180 H   0  0  0  0  0  0  0  0  0  0  0  0
  -26.1670  -15.6530   19.9370 H   0  0  0  0  0  0  0  0  0  0  0  0
  -28.1070  -24.9360   20.3130 C   0  0  0  0  0  2  0  0  0  0  0  0
  -28.2980  -26.4210   20.1160 O   0  0  0  0  0  0  0  0  0  0  0  0
  -24.5920  -31.8840   23.2260 C   0  0  0  0  0  0  0  0  0  0  0  0
  -27.1790  -27.2900   20.1340 C   0  0  0  0  0  0  0  0  0  0  0  0
  -23.3750  -30.4950   21.5940 C   0  0  0  0  0  3  0  0  0  0  0  0
  -24.8190  -28.9400   20.1530 C   0  0  0  0  0  0  0  0  0  0  0  0
  -25.9210  -30.7860   21.4070 C   0  0  0  0  0  2  0  0  0  0  0  0
  -25.9960  -29.4070   20.7570 C   0  0  0  0  0  0  0  0  0  0  0  0
  -27.1760  -28.5920   20.7380 C   0  0  0  0  0  3  0  0  0  0  0  0
  -25.9780  -26.8940   19.5030 C   0  0  0  0  0  3  0  0  0  0  0  0
  -24.8170  -27.6910   19.5160 C   0  0  0  0  0  3  0  0  0  0  0  0
  -23.5810  -29.8180   20.2140 C   0  0  0  0  0  2  0  0  0  0  0  0
  -24.6480  -31.0750   22.1310 N   0  0  0  0  0  0  0  0  0  0  0  0
  -23.5110  -32.1660   23.7660 O   0  0  0  0  0  0  0  0  0  0  0  0
  -22.7150  -29.4760   22.5540 C   0  0  0  0  0  0  0  0  0  0  0  0
  -21.3900  -29.3080   22.4370 N   0  0  0  0  0  0  0  0  0  0  0  0
  -23.3980  -28.8420   23.3640 O   0  0  0  0  0  0  0  0  0  0  0  0
  -20.9040  -29.8720   21.7540 H   0  0  0  0  0  0  0  0  0  0  0  0
  -18.0090  -28.1270   22.9450 C   0  0  0  0  0  0  0  0  0  0  0  0
  -20.5680  -28.3710   23.2040 C   0  0  0  0  0  3  0  0  0  0  0  0
  -20.6600  -26.9430   22.6220 C   0  0  0  0  0  2  0  0  0  0  0  0
  -19.5490  -26.6280   21.6150 C   0  0  0  0  0  2  0  0  0  0  0  0
  -18.1710  -26.7790   22.2650 C   0  0  0  0  0  2  0  0  0  0  0  0
  -19.1350  -28.8830   23.3680 C   0  0  0  0  0  0  0  0  0  0  0  0
  -18.9250  -30.1460   23.9640 C   0  0  0  0  0  3  0  0  0  0  0  0
  -17.6240  -30.6510   24.1480 C   0  0  0  0  0  3  0  0  0  0  0  0
  -16.5110  -29.8930   23.7330 C   0  0  0  0  0  3  0  0  0  0  0  0
  -16.7080  -28.6350   23.1360 C   0  0  0  0  0  3  0  0  0  0  0  0
  -25.8790  -32.5110   23.8440 C   0  0  0  0  0  3  0  0  0  0  0  0
  -25.5700  -33.9090   24.1760 N   0  0  0  0  0  0  0  0  0  0  0  0
  -25.9090  -34.9640   23.4240 C   0  0  0  0  0  0  0  0  0  0  0  0
  -26.5850  -34.8640   22.3970 O   0  0  0  0  0  0  0  0  0  0  0  0
  -24.9660  -34.0560   24.9700 H   0  0  0  0  0  0  0  0  0  0  0  0
  -24.1890  -36.7680   23.0810 C   0  0  0  0  0  1  0  0  0  0  0  0
  -25.4300  -36.3540   23.8890 C   0  0  0  0  0  3  0  0  0  0  0  0
  -27.5680  -37.2220   24.7240 C   0  0  0  0  0  1  0  0  0  0  0  0
  -26.4670  -37.4030   23.7810 N   0  0  0  0  0  0  0  0  0  0  0  0
  -26.0680  -38.3250   23.9350 H   0  0  0  0  0  0  0  0  0  0  0  0
  -26.3900  -31.7390   25.1230 C   0  0  1  0  0  0  0  0  0  0  0  0
  -25.2910  -31.5160   26.1910 C   0  0  0  0  0  1  0  0  0  0  0  0
  -26.9670  -30.3570   24.7350 C   0  0  0  0  0  1  0  0  0  0  0  0
  -27.5400  -32.5340   25.7840 C   0  0  0  0  0  1  0  0  0  0  0  0
  1  7  1  0
  1 14  1  0
  1  6  1  0
  2  4  1  0
  3  2  1  0
  5  3  1  0
  5 54  1  0
  5  6  1  0
  6  4  1  0
  8  7  1  0
  9  7  1  0
 11 10  2  0
 12 10  1  0
 13 14  2  0
 13 15  1  0
 14 11  1  0
 15 24  1  0
 15 12  2  0
 16 24  1  0
 17 22  1  0
 18 19  1  0
 18 17  1  0
 20 19  1  0
 20 29  1  0
 20 21  1  0
 22 16  1  0
 22 21  1  0
 23 16  2  0
 24 25  1  0
 26 27  2  0
 27 46  1  0
 28 27  1  0
 28 31  1  0
 29 26  1  0
 29 30  1  0
 30 28  2  0
 31 32  1  0
 32 33  2  0
 34 37  1  0
 34 33  1  0
 35 34  2  0
 36 35  1  0
 36 31  2  0
 37 38  1  0
 38 39  1  0
 39 40  2  0
 41 40  1  0
 41 45  1  0
 42 41  2  0
 43 38  2  0
 43 42  1  0
 44 43  1  0
 46 47  1  0
 47 50  1  0
 47 49  1  0
 48 46  2  0
 51 52  1  0
 51 26  1  0
 53 51  1  0
 55 57  1  0
 55 54  1  0
 56 67  2  0
 57 62  1  0
 58 66  1  0
 58 68  1  0
 59 65  1  0
 59 61  1  0
 60 66  1  0
 61 60  1  0
 62 61  2  0
 63 64  1  0
 63 57  2  0
 64 59  2  0
 65 58  1  0
 66 56  1  0
 68 70  2  0
 69 68  1  0
 71 69  1  0
 72 81  2  0
 72 77  1  0
 73 69  1  0
 73 77  1  0
 74 73  1  0
 75 76  1  0
 75 74  1  0
 76 72  1  0
 77 78  2  0
 78 79  1  0
 80 79  2  0
 81 80  1  0
 82 56  1  0
 82 83  1  0
 82 92  1  0
 83 86  1  0
 84 88  1  0
 84 83  1  0
 85 84  2  0
 88 87  1  0
 90 88  1  0
 90 91  1  0
 90 89  1  0
 92 95  1  1
 92 93  1  0
 94 92  1  0
M  ISO  4  16 100  24 100  54 101  55 101
M  END
>  <TORSDO>  (95) 
F 18

>  <SCORE>  (95) 
-14.846

>  <name>  (95) 
95

>  <ligand_id>  (95) 
95

>  <original_smiles>  (95) 
[H]c1c([H])c(C(N2C([H])([H])C([H])([H])C([H])([H])C2([H])C([H])([H])Oc2c([H])c([H])c3c(c2[H])C([H])([H])N(C(=O)C([H])(N([H])C(=O)C([H])(N([H])C([H])([H])[H])C([H])([H])[H])C(C([H])([H])[H])(C([H])([H])[H])C([H])([H])[H])C([H])(C(=O)N([H])C2([H])c4c([H])c([H])c([H])c([H])c4C([H])([H])C([H])([H])C2([H])[H])C3([H])[H])=[N+]([H])[H])c([H])c(N([H])C(=O)N2C([H])([H])C([H])([H])C([H])([H])C([H])(n3nc(-c4c([H])c([H])c(Oc5c([H])c([H])c(F)c([H])c5F)c([H])c4[H])c(C(=O)N([H])[H])c3N([H])[H])C2([H])[H])c1[H]

>  <smiles>  (95) 
[H]c1c([H])c(C(N2C([H])([H])C([H])([H])C([H])([H])C2([H])C([H])([H])Oc2c([H])c([H])c3c(c2[H])C([H])([H])N(C(=O)C([H])(N([H])C(=O)C([H])(N([H])C([H])([H])[H])C([H])([H])[H])C(C([H])([H])[H])(C([H])([H])[H])C([H])([H])[H])C([H])(C(=O)N([H])C2([H])c4c([H])c([H])c([H])c([H])c4C([H])([H])C([H])([H])C2([H])[H])C3([H])[H])=[N+]([H])[H])c([H])c(N([H])C(=O)N2C([H])([H])C([H])([H])C([H])([H])C([H])(n3nc(-c4c([H])c([H])c(Oc5c([H])c([H])c(F)c([H])c5F)c([H])c4[H])c(C(=O)N([H])[H])c3N([H])[H])C2([H])[H])c1[H]

$$$$
96:0:0
     RDKit          3D

 94103  0  0  1  0  0  0  0  0999 V2000
  -28.7340  -20.8360   20.1660 C   0  0  0  0  0  0  0  0  0  0  0  0
  -29.4120  -23.2260   19.8220 C   0  0  0  0  0  2  0  0  0  0  0  0
  -28.2700  -22.8470   21.5400 C   0  0  0  0  0  2  0  0  0  0  0  0
  -28.3120  -24.0340   20.5510 C   0  0  0  0  0  3  0  0  0  0  0  0
  -29.1980  -22.0630   20.7080 N   0  0  0  0  0  0  0  0  0  0  0  0
  -27.6230  -20.7930   19.6340 O   0  0  0  0  0  0  0  0  0  0  0  0
  -31.1190  -17.7910   20.2800 C   0  0  0  0  0  3  0  0  0  0  0  0
  -30.8660  -19.2120   20.2190 C   0  0  0  0  0  0  0  0  0  0  0  0
  -29.5320  -19.5550   20.3300 C   0  0  0  0  0  0  0  0  0  0  0  0
  -30.0040  -17.0050   20.4850 C   0  0  0  0  0  0  0  0  0  0  0  0
  -28.6020  -18.0730   20.5770 S   0  0  0  0  0  0  0  0  0  0  0  0
  -30.6370  -14.6120   20.1490 C   0  0  0  0  0  0  0  0  0  0  0  0
  -30.3370  -12.4450   18.9880 C   0  0  0  0  0  2  0  0  0  0  0  0
  -29.3360  -12.6600   17.8320 C   0  0  0  0  0  2  0  0  0  0  0  0
  -27.8820  -12.5050   18.3240 C   0  0  0  0  0  2  0  0  0  0  0  0
  -27.6000  -13.3100   19.6210 C   0  0  0  0  0  3  0  0  0  0  0  0
  -28.7080  -13.0690   20.6730 C   0  0  0  0  0  2  0  0  0  0  0  0
  -29.9980  -13.4070   20.0510 N   0  0  0  0  0  0  0  0  0  0  0  0
  -31.7730  -14.7860   19.6970 O   0  0  0  0  0  0  0  0  0  0  0  0
  -29.8650  -15.6380   20.6080 N   0  0  0  0  0  0  0  0  0  0  0  0
  -28.9670  -15.3310   20.9500 H   0  0  0  0  0  0  0  0  0  0  0  0
  -25.2430  -13.9090   20.4560 C   0  0  0  0  0  0  0  0  0  0  0  0
  -24.1890  -13.1320   20.8560 C   0  0  0  0  0  0  0  0  0  0  0  0
  -24.6420  -11.7800   20.7720 C   0  0  0  0  0  0  0  0  0  0  0  0
  -26.2710  -13.0280   20.1560 N   0  0  0  0  0  0  0  0  0  0  0  0
  -25.9160  -11.7410   20.4050 N   0  0  0  0  0  0  0  0  0  0  0  0
  -23.9180  -10.5160   20.9660 C   0  0  0  0  0  0  0  0  0  0  0  0
  -24.3590   -9.5470   21.8950 C   0  0  0  0  0  3  0  0  0  0  0  0
  -23.6370   -8.3480   22.0740 C   0  0  0  0  0  3  0  0  0  0  0  0
  -22.4590   -8.1090   21.3260 C   0  0  0  0  0  0  0  0  0  0  0  0
  -22.0370   -9.0680   20.3880 C   0  0  0  0  0  3  0  0  0  0  0  0
  -22.7610  -10.2580   20.2060 C   0  0  0  0  0  3  0  0  0  0  0  0
  -21.7070   -6.9630   21.4170 O   0  0  0  0  0  0  0  0  0  0  0  0
  -21.6360   -6.2390   22.5800 C   0  0  0  0  0  0  0  0  0  0  0  0
  -21.1280   -6.7950   23.7750 C   0  0  0  0  0  3  0  0  0  0  0  0
  -21.0080   -5.9940   24.9280 C   0  0  0  0  0  3  0  0  0  0  0  0
  -21.3850   -4.6380   24.8880 C   0  0  0  0  0  0  0  0  0  0  0  0
  -21.8850   -4.0820   23.6980 C   0  0  0  0  0  3  0  0  0  0  0  0
  -22.0080   -4.8790   22.5460 C   0  0  0  0  0  0  0  0  0  0  0  0
  -22.4700   -4.3320   21.3960 F   0  0  0  0  0  0  0  0  0  0  0  0
  -21.2620   -3.8670   25.9930 F   0  0  0  0  0  0  0  0  0  0  0  0
  -22.8080  -13.6090   21.2020 C   0  0  0  0  0  0  0  0  0  0  0  0
  -22.1100  -12.8890   22.0730 N   0  0  0  0  0  0  0  0  0  0  0  0
  -22.3570  -14.6550   20.7350 O   0  0  0  0  0  0  0  0  0  0  0  0
  -22.4870  -12.0430   22.4730 H   0  0  0  0  0  0  0  0  0  0  0  0
  -21.1860  -13.1890   22.3450 H   0  0  0  0  0  0  0  0  0  0  0  0
  -25.4070  -15.2830   20.3040 N   0  0  0  0  0  0  0  0  0  0  0  0
  -24.6480  -15.9370   20.4640 H   0  0  0  0  0  0  0  0  0  0  0  0
  -26.2350  -15.7260   19.9280 H   0  0  0  0  0  0  0  0  0  0  0  0
  -31.9280  -20.1650   19.9460 C   0  0  0  0  0  0  0  0  0  0  0  0
  -32.3170  -21.0810   21.0970 C   0  0  0  0  0  1  0  0  0  0  0  0
  -32.5690  -20.2200   18.8950 O   0  0  0  0  0  0  0  0  0  0  0  0
  -28.5190  -25.4800   21.1300 C   0  0  0  0  0  2  0  0  0  0  0  0
  -28.4750  -26.6360   20.2480 O   0  0  0  0  0  0  0  0  0  0  0  0
  -24.5810  -31.8930   23.2410 C   0  0  0  0  0  0  0  0  0  0  0  0
  -27.3200  -27.4030   20.2630 C   0  0  0  0  0  0  0  0  0  0  0  0
  -23.4210  -30.4640   21.5870 C   0  0  0  0  0  3  0  0  0  0  0  0
  -24.9200  -28.9210   20.2070 C   0  0  0  0  0  0  0  0  0  0  0  0
  -25.9510  -30.8340   21.4390 C   0  0  0  0  0  2  0  0  0  0  0  0
  -26.0640  -29.4530   20.8150 C   0  0  0  0  0  0  0  0  0  0  0  0
  -27.2700  -28.7030   20.8360 C   0  0  0  0  0  3  0  0  0  0  0  0
  -26.1590  -26.8960   19.6500 C   0  0  0  0  0  3  0  0  0  0  0  0
  -24.9640  -27.6440   19.6200 C   0  0  0  0  0  3  0  0  0  0  0  0
  -23.6680  -29.7740   20.2190 C   0  0  0  0  0  2  0  0  0  0  0  0
  -24.6690  -31.0820   22.1470 N   0  0  0  0  0  0  0  0  0  0  0  0
  -23.4870  -32.1600   23.7550 O   0  0  0  0  0  0  0  0  0  0  0  0
  -22.7600  -29.4480   22.5450 C   0  0  0  0  0  0  0  0  0  0  0  0
  -21.4360  -29.2670   22.4090 N   0  0  0  0  0  0  0  0  0  0  0  0
  -23.4340  -28.8230   23.3680 O   0  0  0  0  0  0  0  0  0  0  0  0
  -20.9520  -29.8250   21.7190 H   0  0  0  0  0  0  0  0  0  0  0  0
  -18.0490  -28.1070   22.9160 C   0  0  0  0  0  0  0  0  0  0  0  0
  -20.6110  -28.3290   23.1720 C   0  0  0  0  0  3  0  0  0  0  0  0
  -20.6910  -26.9040   22.5760 C   0  0  0  0  0  2  0  0  0  0  0  0
  -19.5780  -26.6100   21.5650 C   0  0  0  0  0  2  0  0  0  0  0  0
  -18.2030  -26.7650   22.2210 C   0  0  0  0  0  2  0  0  0  0  0  0
  -19.1800  -28.8490   23.3490 C   0  0  0  0  0  0  0  0  0  0  0  0
  -18.9830  -30.1070   23.9570 C   0  0  0  0  0  3  0  0  0  0  0  0
  -17.6860  -30.6230   24.1390 C   0  0  0  0  0  3  0  0  0  0  0  0
  -16.5690  -29.8780   23.7220 C   0  0  0  0  0  3  0  0  0  0  0  0
  -16.7510  -28.6220   23.1170 C   0  0  0  0  0  3  0  0  0  0  0  0
  -25.8480  -32.5430   23.8810 C   0  0  0  0  0  3  0  0  0  0  0  0
  -26.3490  -31.7870   25.1730 C   0  0  1  0  0  0  0  0  0  0  0  0
  -25.2360  -31.5420   26.2200 C   0  0  0  0  0  1  0  0  0  0  0  0
  -26.9570  -30.4150   24.8000 C   0  0  0  0  0  1  0  0  0  0  0  0
  -27.4730  -32.6010   25.8530 C   0  0  0  0  0  1  0  0  0  0  0  0
  -25.5200  -33.9400   24.1930 N   0  0  0  0  0  0  0  0  0  0  0  0
  -25.8530  -34.9880   23.4290 C   0  0  0  0  0  0  0  0  0  0  0  0
  -26.5390  -34.8820   22.4080 O   0  0  0  0  0  0  0  0  0  0  0  0
  -24.9110  -34.0960   24.9820 H   0  0  0  0  0  0  0  0  0  0  0  0
  -24.1230  -36.7670   23.0170 C   0  0  0  0  0  1  0  0  0  0  0  0
  -25.3440  -36.3770   23.8640 C   0  0  0  0  0  3  0  0  0  0  0  0
  -27.4430  -37.2880   24.7530 C   0  0  0  0  0  1  0  0  0  0  0  0
  -26.3720  -37.4360   23.7710 N   0  0  0  0  0  0  0  0  0  0  0  0
  -25.9550  -38.3550   23.8930 H   0  0  0  0  0  0  0  0  0  0  0  0
  1  9  1  0
  1  5  1  0
  2  4  1  0
  2  5  1  0
  4 53  1  0
  4  3  1  0
  5  3  1  0
  6  1  2  0
  7 10  2  0
  8  7  1  0
  8  9  2  0
  9 11  1  0
 10 11  1  0
 10 20  1  0
 12 20  1  0
 13 18  1  0
 14 15  1  0
 14 13  1  0
 16 15  1  0
 16 25  1  0
 16 17  1  0
 18 12  1  0
 18 17  1  0
 19 12  2  0
 20 21  1  0
 22 23  2  0
 23 42  1  0
 24 23  1  0
 24 27  1  0
 25 26  1  0
 25 22  1  0
 26 24  2  0
 27 28  1  0
 28 29  2  0
 30 33  1  0
 30 29  1  0
 31 30  2  0
 32 31  1  0
 32 27  2  0
 33 34  1  0
 34 35  1  0
 35 36  2  0
 37 36  1  0
 37 41  1  0
 38 37  2  0
 39 34  2  0
 39 38  1  0
 40 39  1  0
 42 43  1  0
 43 46  1  0
 43 45  1  0
 44 42  2  0
 47 22  1  0
 47 48  1  0
 49 47  1  0
 50  8  1  0
 50 51  1  0
 52 50  2  0
 54 56  1  0
 54 53  1  0
 55 66  2  0
 56 61  1  0
 57 65  1  0
 57 67  1  0
 58 64  1  0
 58 60  1  0
 59 65  1  0
 60 61  2  0
 60 59  1  0
 62 56  2  0
 63 62  1  0
 63 58  2  0
 64 57  1  0
 65 55  1  0
 67 69  2  0
 68 67  1  0
 70 68  1  0
 71 80  2  0
 71 76  1  0
 72 68  1  0
 72 76  1  0
 73 72  1  0
 74 75  1  0
 74 73  1  0
 75 71  1  0
 76 77  2  0
 77 78  1  0
 79 78  2  0
 80 79  1  0
 81 55  1  0
 81 86  1  0
 81 82  1  0
 82 85  1  1
 82 83  1  0
 84 82  1  0
 86 89  1  0
 87 91  1  0
 87 86  1  0
 88 87  2  0
 91 90  1  0
 93 91  1  0
 93 94  1  0
 93 92  1  0
M  ISO  4  12 100  20 100  53 101  54 101
M  END
>  <TORSDO>  (96) 
F 19

>  <SCORE>  (96) 
-14.546

>  <name>  (96) 
96

>  <ligand_id>  (96) 
96

>  <original_smiles>  (96) 
[H]c1c([H])c([H])c2c(c1[H])C([H])([H])C([H])([H])C([H])([H])C2([H])N([H])C(=O)C1([H])N(C(=O)C([H])(N([H])C(=O)C([H])(N([H])C([H])([H])[H])C([H])([H])[H])C(C([H])([H])[H])(C([H])([H])[H])C([H])([H])[H])C([H])([H])c2c([H])c(OC([H])([H])C3([H])C([H])([H])N(C(=O)c4sc(N([H])C(=O)N5C([H])([H])C([H])([H])C([H])([H])C([H])(n6nc(-c7c([H])c([H])c(Oc8c([H])c([H])c(F)c([H])c8F)c([H])c7[H])c(C(=O)N([H])[H])c6N([H])[H])C5([H])[H])c([H])c4C(=O)C([H])([H])[H])C3([H])[H])c([H])c([H])c2C1([H])[H]

>  <smiles>  (96) 
[H]c1c([H])c([H])c2c(c1[H])C([H])([H])C([H])([H])C([H])([H])C2([H])N([H])C(=O)C1([H])N(C(=O)C([H])(N([H])C(=O)C([H])(N([H])C([H])([H])[H])C([H])([H])[H])C(C([H])([H])[H])(C([H])([H])[H])C([H])([H])[H])C([H])([H])c2c([H])c(OC([H])([H])C3([H])C([H])([H])N(C(=O)c4sc(N([H])C(=O)N5C([H])([H])C([H])([H])C([H])([H])C([H])(n6nc(-c7c([H])c([H])c(Oc8c([H])c([H])c(F)c([H])c8F)c([H])c7[H])c(C(=O)N([H])[H])c6N([H])[H])C5([H])[H])c([H])c4C(=O)C([H])([H])[H])C3([H])[H])c([H])c([H])c2C1([H])[H]

$$$$
