0:0:0
     RDKit          3D

100108  0  0  1  0  0  0  0  0999 V2000
  -32.0700  -21.4280   18.8470 C   0  0  0  0  0  0  0  0  0  0  0  0
  -31.5620  -20.4920   19.6730 N   0  0  0  0  0  0  0  0  0  0  0  0
  -31.7360  -21.5850   17.6710 O   0  0  0  0  0  0  0  0  0  0  0  0
  -31.9710  -20.4930   20.5990 H   0  0  0  0  0  0  0  0  0  0  0  0
  -29.6900  -19.5040   18.3300 C   0  0  0  0  0  3  0  0  0  0  0  0
  -28.6850  -17.4090   19.0500 C   0  0  0  0  0  3  0  0  0  0  0  0
  -30.5010  -18.3980   20.3460 C   0  0  0  0  0  3  0  0  0  0  0  0
  -28.7550  -18.4740   18.1350 C   0  0  0  0  0  0  0  0  0  0  0  0
  -30.5770  -19.4830   19.4350 C   0  0  0  0  0  0  0  0  0  0  0  0
  -29.5800  -17.3430   20.1420 C   0  0  0  0  0  0  0  0  0  0  0  0
  -30.4170  -15.1900   20.7810 C   0  0  0  0  0  0  0  0  0  0  0  0
  -30.2960  -13.0800   19.5560 C   0  0  0  0  0  2  0  0  0  0  0  0
  -29.3800  -13.3190   18.3380 C   0  0  0  0  0  2  0  0  0  0  0  0
  -27.9060  -13.0590   18.7150 C   0  0  0  0  0  2  0  0  0  0  0  0
  -27.4810  -13.8000   20.0080 C   0  0  0  0  0  3  0  0  0  0  0  0
  -28.5140  -13.5770   21.1360 C   0  0  0  0  0  2  0  0  0  0  0  0
  -29.8350  -13.9730   20.6240 N   0  0  0  0  0  0  0  0  0  0  0  0
  -31.5960  -15.4150   20.4970 O   0  0  0  0  0  0  0  0  0  0  0  0
  -29.5560  -16.2000   20.9890 N   0  0  0  0  0  0  0  0  0  0  0  0
  -28.6390  -15.8920   21.2730 H   0  0  0  0  0  0  0  0  0  0  0  0
  -25.0160  -14.2370   20.5770 C   0  0  0  0  0  0  0  0  0  0  0  0
  -23.9910  -13.3880   20.9020 C   0  0  0  0  0  0  0  0  0  0  0  0
  -24.5570  -12.0740   20.9160 C   0  0  0  0  0  0  0  0  0  0  0  0
  -26.1350  -13.4320   20.4210 N   0  0  0  0  0  0  0  0  0  0  0  0
  -25.8610  -12.1320   20.6810 N   0  0  0  0  0  0  0  0  0  0  0  0
  -23.9270  -10.7610   21.0820 C   0  0  0  0  0  0  0  0  0  0  0  0
  -24.3560   -9.8600   22.0820 C   0  0  0  0  0  3  0  0  0  0  0  0
  -23.7220   -8.6080   22.2320 C   0  0  0  0  0  3  0  0  0  0  0  0
  -22.6460   -8.2500   21.3860 C   0  0  0  0  0  0  0  0  0  0  0  0
  -22.2390   -9.1410   20.3780 C   0  0  0  0  0  3  0  0  0  0  0  0
  -22.8730  -10.3850   20.2260 C   0  0  0  0  0  3  0  0  0  0  0  0
  -21.9870   -7.0460   21.4470 O   0  0  0  0  0  0  0  0  0  0  0  0
  -21.8690   -6.3490   22.6220 C   0  0  0  0  0  0  0  0  0  0  0  0
  -21.2680   -6.9140   23.7700 C   0  0  0  0  0  3  0  0  0  0  0  0
  -21.1110   -6.1380   24.9370 C   0  0  0  0  0  3  0  0  0  0  0  0
  -21.5380   -4.7990   24.9530 C   0  0  0  0  0  0  0  0  0  0  0  0
  -22.1260   -4.2310   23.8090 C   0  0  0  0  0  3  0  0  0  0  0  0
  -22.2900   -5.0040   22.6450 C   0  0  0  0  0  0  0  0  0  0  0  0
  -22.8390   -4.4480   21.5410 F   0  0  0  0  0  0  0  0  0  0  0  0
  -21.3770   -4.0470   26.0710 F   0  0  0  0  0  0  0  0  0  0  0  0
  -22.5490  -13.7530   21.0950 C   0  0  0  0  0  0  0  0  0  0  0  0
  -21.8420  -13.0170   21.9470 N   0  0  0  0  0  0  0  0  0  0  0  0
  -22.0540  -14.7260   20.5300 O   0  0  0  0  0  0  0  0  0  0  0  0
  -22.2530  -12.2190   22.4100 H   0  0  0  0  0  0  0  0  0  0  0  0
  -20.8760  -13.2430   22.1290 H   0  0  0  0  0  0  0  0  0  0  0  0
  -25.0930  -15.6150   20.3890 N   0  0  0  0  0  0  0  0  0  0  0  0
  -24.2880  -16.2300   20.4480 H   0  0  0  0  0  0  0  0  0  0  0  0
  -25.9280  -16.0960   20.0790 H   0  0  0  0  0  0  0  0  0  0  0  0
  -26.4760  -19.1320   17.2530 C   0  0  0  0  0  1  0  0  0  0  0  0
  -27.8350  -18.5030   16.9260 C   0  0  0  0  0  2  0  0  0  0  0  0
  -33.1370  -22.3560   19.4370 C   0  0  0  0  0  2  0  0  0  0  0  0
  -32.7470  -23.8450   19.3500 C   0  0  0  0  0  2  0  0  0  0  0  0
  -31.5260  -24.2470   20.2180 C   0  0  0  0  0  2  0  0  0  0  0  0
  -30.3330  -25.5140   18.3850 C   0  0  0  0  0  1  0  0  0  0  0  0
  -31.9140  -26.7230   19.8750 C   0  0  0  0  0  1  0  0  0  0  0  0
  -30.8390  -25.6010   19.8500 C   0  0  2  0  0  0  0  0  0  0  0  0
  -30.0700  -26.2860   22.2610 C   0  0  0  0  0  1  0  0  0  0  0  0
  -28.5670  -24.8290   20.8740 C   0  0  0  0  0  1  0  0  0  0  0  0
  -29.6270  -25.9560   20.8180 C   0  0  2  0  0  0  0  0  0  0  0  0
  -29.1420  -27.1960   20.2850 O   0  0  0  0  0  0  0  0  0  0  0  0
  -24.6540  -31.8760   23.2800 C   0  0  0  0  0  0  0  0  0  0  0  0
  -27.8570  -27.6720   20.4090 C   0  0  0  0  0  0  0  0  0  0  0  0
  -23.6720  -30.3640   21.5880 C   0  0  0  0  0  3  0  0  0  0  0  0
  -25.3290  -28.9370   20.2860 C   0  0  0  0  0  0  0  0  0  0  0  0
  -26.1620  -30.9350   21.5370 C   0  0  0  0  0  2  0  0  0  0  0  0
  -26.3970  -29.5660   20.9380 C   0  0  0  0  0  0  0  0  0  0  0  0
  -27.6580  -28.9370   21.0050 C   0  0  0  0  0  3  0  0  0  0  0  0
  -26.7740  -27.0590   19.7450 C   0  0  0  0  0  3  0  0  0  0  0  0
  -25.5120  -27.6770   19.6910 C   0  0  0  0  0  3  0  0  0  0  0  0
  -24.0190  -29.6860   20.2370 C   0  0  0  0  0  2  0  0  0  0  0  0
  -24.8450  -31.0740   22.1950 N   0  0  0  0  0  0  0  0  0  0  0  0
  -23.5260  -32.0570   23.7570 O   0  0  0  0  0  0  0  0  0  0  0  0
  -23.0540  -29.2970   22.5200 C   0  0  0  0  0  0  0  0  0  0  0  0
  -21.7580  -29.0110   22.3230 N   0  0  0  0  0  0  0  0  0  0  0  0
  -23.7390  -28.7360   23.3770 O   0  0  0  0  0  0  0  0  0  0  0  0
  -21.2610  -29.5160   21.6040 H   0  0  0  0  0  0  0  0  0  0  0  0
  -18.4660  -27.5710   22.6590 C   0  0  0  0  0  0  0  0  0  0  0  0
  -20.9790  -28.0110   23.0560 C   0  0  0  0  0  3  0  0  0  0  0  0
  -21.2170  -26.5950   22.4800 C   0  0  0  0  0  2  0  0  0  0  0  0
  -20.1920  -26.1980   21.4170 C   0  0  0  0  0  2  0  0  0  0  0  0
  -18.7740  -26.2400   21.9930 C   0  0  0  0  0  2  0  0  0  0  0  0
  -19.5030  -28.4100   23.1440 C   0  0  0  0  0  0  0  0  0  0  0  0
  -19.1680  -29.6520   23.7240 C   0  0  0  0  0  3  0  0  0  0  0  0
  -17.8250  -30.0620   23.8200 C   0  0  0  0  0  3  0  0  0  0  0  0
  -16.7990  -29.2220   23.3540 C   0  0  0  0  0  3  0  0  0  0  0  0
  -17.1200  -27.9760   22.7840 C   0  0  0  0  0  3  0  0  0  0  0  0
  -25.8450  -32.6190   23.9630 C   0  0  0  0  0  3  0  0  0  0  0  0
  -26.3270  -31.9140   25.2900 C   0  0  1  0  0  0  0  0  0  0  0  0
  -25.1830  -31.5990   26.2790 C   0  0  0  0  0  1  0  0  0  0  0  0
  -27.0480  -30.5860   24.9660 C   0  0  0  0  0  1  0  0  0  0  0  0
  -27.3540  -32.8110   26.0190 C   0  0  0  0  0  1  0  0  0  0  0  0
  -25.4120  -33.9960   24.2300 N   0  0  0  0  0  0  0  0  0  0  0  0
  -25.7110  -35.0500   23.4600 C   0  0  0  0  0  0  0  0  0  0  0  0
  -26.4520  -34.9710   22.4760 O   0  0  0  0  0  0  0  0  0  0  0  0
  -24.7500  -34.1210   24.9830 H   0  0  0  0  0  0  0  0  0  0  0  0
  -23.8740  -36.6860   22.9410 C   0  0  0  0  0  1  0  0  0  0  0  0
  -25.0920  -36.4080   23.8380 C   0  0  0  0  0  3  0  0  0  0  0  0
  -27.0950  -37.4880   24.7590 C   0  0  0  0  0  1  0  0  0  0  0  0
  -26.0450  -37.5360   23.7460 N   0  0  0  0  0  0  0  0  0  0  0  0
  -25.5610  -38.4260   23.8360 H   0  0  0  0  0  0  0  0  0  0  0  0
  1 51  1  0
  1  2  1  0
  2  4  1  0
  3  1  2  0
  5  9  1  0
  6 10  2  0
  8  5  2  0
  8  6  1  0
  9  2  1  0
  9  7  2  0
 10  7  1  0
 10 19  1  0
 11 19  1  0
 12 17  1  0
 13 14  1  0
 13 12  1  0
 15 14  1  0
 15 24  1  0
 15 16  1  0
 17 11  1  0
 17 16  1  0
 18 11  2  0
 19 20  1  0
 21 22  2  0
 22 23  1  0
 22 41  1  0
 23 26  1  0
 24 21  1  0
 24 25  1  0
 25 23  2  0
 26 27  1  0
 27 28  2  0
 29 32  1  0
 29 28  1  0
 30 29  2  0
 31 30  1  0
 31 26  2  0
 32 33  1  0
 33 38  2  0
 33 34  1  0
 34 35  2  0
 35 36  1  0
 36 40  1  0
 37 36  2  0
 38 37  1  0
 39 38  1  0
 41 42  1  0
 42 45  1  0
 42 44  1  0
 43 41  2  0
 46 47  1  0
 46 21  1  0
 48 46  1  0
 50 49  1  0
 50  8  1  0
 52 51  1  0
 52 53  1  0
 56 54  1  6
 56 55  1  0
 56 53  1  0
 56 59  1  0
 59 58  1  1
 59 57  1  0
 60 62  1  0
 60 59  1  0
 61 72  2  0
 62 67  1  0
 63 71  1  0
 63 73  1  0
 64 66  1  0
 65 71  1  0
 66 67  2  0
 66 65  1  0
 68 62  2  0
 69 68  1  0
 69 64  2  0
 70 64  1  0
 70 63  1  0
 71 61  1  0
 73 75  2  0
 74 73  1  0
 76 74  1  0
 77 86  2  0
 77 82  1  0
 78 74  1  0
 78 82  1  0
 79 78  1  0
 80 81  1  0
 80 79  1  0
 81 77  1  0
 82 83  2  0
 83 84  1  0
 85 84  2  0
 86 85  1  0
 87 61  1  0
 87 92  1  0
 87 88  1  0
 88 91  1  1
 88 89  1  0
 90 88  1  0
 92 95  1  0
 93 97  1  0
 93 92  1  0
 94 93  2  0
 97 96  1  0
 99100  1  0
 99 97  1  0
 99 98  1  0
M  ISO  4  11 100  19 100  59 101  60 101
M  END
>  <TORSDO>  (1) 
F 23

>  <SCORE>  (1) 
-11.988

>  <name>  (1) 
0

>  <ligand_id>  (1) 
0

>  <original_smiles>  (1) 
[H]c1c([H])c([H])c2c(c1[H])C([H])([H])C([H])([H])C([H])([H])C2([H])N([H])C(=O)C1([H])N(C(=O)C([H])(N([H])C(=O)C([H])(N([H])C([H])([H])[H])C([H])([H])[H])C(C([H])([H])[H])(C([H])([H])[H])C([H])([H])[H])C([H])([H])c2c([H])c(OC(C([H])([H])[H])(C([H])([H])[H])C(C([H])([H])[H])(C([H])([H])[H])C([H])([H])C([H])([H])C([H])([H])C(=O)N([H])c3c([H])c(N([H])C(=O)N4C([H])([H])C([H])([H])C([H])([H])C([H])(n5nc(-c6c([H])c([H])c(Oc7c([H])c([H])c(F)c([H])c7F)c([H])c6[H])c(C(=O)N([H])[H])c5N([H])[H])C4([H])[H])c([H])c(C([H])([H])C([H])([H])[H])c3[H])c([H])c([H])c2C1([H])[H]

>  <smiles>  (1) 
[H]c1c([H])c([H])c2c(c1[H])C([H])([H])C([H])([H])C([H])([H])C2([H])N([H])C(=O)C1([H])N(C(=O)C([H])(N([H])C(=O)C([H])(N([H])C([H])([H])[H])C([H])([H])[H])C(C([H])([H])[H])(C([H])([H])[H])C([H])([H])[H])C([H])([H])c2c([H])c(OC(C([H])([H])[H])(C([H])([H])[H])C(C([H])([H])[H])(C([H])([H])[H])C([H])([H])C([H])([H])C([H])([H])C(=O)N([H])c3c([H])c(N([H])C(=O)N4C([H])([H])C([H])([H])C([H])([H])C([H])(n5nc(-c6c([H])c([H])c(Oc7c([H])c([H])c(F)c([H])c7F)c([H])c6[H])c(C(=O)N([H])[H])c5N([H])[H])C4([H])[H])c([H])c(C([H])([H])C([H])([H])[H])c3[H])c([H])c([H])c2C1([H])[H]

$$$$
1:0:0
     RDKit          3D

 96105  0  0  1  0  0  0  0  0999 V2000
  -28.8410  -23.2190   21.3900 C   0  0  0  0  0  2  0  0  0  0  0  0
  -29.5710  -21.8690   21.2750 C   0  0  0  0  0  2  0  0  0  0  0  0
  -29.2890  -24.0580   20.1810 C   0  0  2  0  0  0  0  0  0  0  0  0
  -29.4560  -22.8980   19.0990 C   0  0  1  0  0  0  0  0  0  0  0  0
  -30.6280  -24.7490   20.5140 C   0  0  0  0  0  1  0  0  0  0  0  0
  -28.1040  -22.5440   18.4190 C   0  0  0  0  0  1  0  0  0  0  0  0
  -30.4280  -23.3630   17.9860 C   0  0  0  0  0  1  0  0  0  0  0  0
  -29.8730  -21.6530   19.8540 N   0  0  0  0  0  0  0  0  0  0  0  0
  -30.3520  -20.4340   19.3720 C   0  0  0  0  0  0  0  0  0  0  0  0
  -31.5440  -20.2530   18.2020 S   0  0  0  0  0  0  0  0  0  0  0  0
  -27.5990  -17.8910   20.1650 C   0  0  0  0  0  3  0  0  0  0  0  0
  -28.2780  -19.0730   19.8250 C   0  0  0  0  0  3  0  0  0  0  0  0
  -28.3160  -16.7320   20.5060 C   0  0  0  0  0  3  0  0  0  0  0  0
  -30.4050  -17.9450   20.1950 C   0  0  0  0  0  3  0  0  0  0  0  0
  -29.6920  -19.1510   19.8540 C   0  0  0  0  0  0  0  0  0  0  0  0
  -29.7270  -16.7250   20.4960 C   0  0  0  0  0  0  0  0  0  0  0  0
  -30.9170  -14.5500   20.0390 C   0  0  0  0  0  0  0  0  0  0  0  0
  -30.6630  -12.2890   19.0380 C   0  0  0  0  0  2  0  0  0  0  0  0
  -29.6970  -12.3600   17.8330 C   0  0  0  0  0  2  0  0  0  0  0  0
  -28.2280  -12.2540   18.2890 C   0  0  0  0  0  2  0  0  0  0  0  0
  -27.9010  -13.2080   19.4660 C   0  0  0  0  0  3  0  0  0  0  0  0
  -28.9590  -13.0540   20.5810 C   0  0  0  0  0  2  0  0  0  0  0  0
  -30.2870  -13.3380   20.0040 N   0  0  0  0  0  0  0  0  0  0  0  0
  -31.9580  -14.7780   19.4130 O   0  0  0  0  0  0  0  0  0  0  0  0
  -30.3420  -15.4670   20.8480 N   0  0  0  0  0  0  0  0  0  0  0  0
  -29.8050  -14.9790   21.5490 H   0  0  0  0  0  0  0  0  0  0  0  0
  -25.5400  -13.9160   20.2210 C   0  0  0  0  0  0  0  0  0  0  0  0
  -24.4530  -13.1900   20.6250 C   0  0  0  0  0  0  0  0  0  0  0  0
  -24.8600  -11.8220   20.5930 C   0  0  0  0  0  0  0  0  0  0  0  0
  -26.5460  -12.9930   19.9740 N   0  0  0  0  0  0  0  0  0  0  0  0
  -26.1390  -11.7290   20.2520 N   0  0  0  0  0  0  0  0  0  0  0  0
  -24.0910  -10.5900   20.8180 C   0  0  0  0  0  0  0  0  0  0  0  0
  -24.4970   -9.6320   21.7730 C   0  0  0  0  0  3  0  0  0  0  0  0
  -23.7320   -8.4620   21.9820 C   0  0  0  0  0  3  0  0  0  0  0  0
  -22.5510   -8.2450   21.2360 C   0  0  0  0  0  0  0  0  0  0  0  0
  -22.1630   -9.1920   20.2720 C   0  0  0  0  0  3  0  0  0  0  0  0
  -22.9270  -10.3510   20.0610 C   0  0  0  0  0  3  0  0  0  0  0  0
  -21.7630   -7.1240   21.3490 O   0  0  0  0  0  0  0  0  0  0  0  0
  -21.6730   -6.4260   22.5250 C   0  0  0  0  0  0  0  0  0  0  0  0
  -21.2590   -7.0390   23.7270 C   0  0  0  0  0  3  0  0  0  0  0  0
  -21.1110   -6.2700   24.8970 C   0  0  0  0  0  3  0  0  0  0  0  0
  -21.3700   -4.8870   24.8680 C   0  0  0  0  0  0  0  0  0  0  0  0
  -21.7790   -4.2720   23.6710 C   0  0  0  0  0  3  0  0  0  0  0  0
  -21.9290   -5.0400   22.5050 C   0  0  0  0  0  0  0  0  0  0  0  0
  -22.3020   -4.4390   21.3470 F   0  0  0  0  0  0  0  0  0  0  0  0
  -21.2210   -4.1450   25.9910 F   0  0  0  0  0  0  0  0  0  0  0  0
  -23.0820  -13.7250   20.9250 C   0  0  0  0  0  0  0  0  0  0  0  0
  -22.3600  -13.0860   21.8390 N   0  0  0  0  0  0  0  0  0  0  0  0
  -22.6590  -14.7460   20.3850 O   0  0  0  0  0  0  0  0  0  0  0  0
  -22.7150  -12.2630   22.3020 H   0  0  0  0  0  0  0  0  0  0  0  0
  -21.4420  -13.4300   22.0850 H   0  0  0  0  0  0  0  0  0  0  0  0
  -25.7480  -15.2770   20.0280 N   0  0  0  0  0  0  0  0  0  0  0  0
  -25.0130  -15.9590   20.1750 H   0  0  0  0  0  0  0  0  0  0  0  0
  -26.6090  -15.6850   19.6870 H   0  0  0  0  0  0  0  0  0  0  0  0
  -28.2610  -25.2030   19.7990 C   0  0  0  0  0  2  0  0  0  0  0  0
  -28.4490  -26.5940   20.2390 O   0  0  0  0  0  0  0  0  0  0  0  0
  -24.5840  -31.8810   23.2040 C   0  0  0  0  0  0  0  0  0  0  0  0
  -27.3290  -27.4280   20.1490 C   0  0  0  0  0  0  0  0  0  0  0  0
  -23.4420  -30.4890   21.5180 C   0  0  0  0  0  3  0  0  0  0  0  0
  -24.9490  -28.9970   20.1000 C   0  0  0  0  0  0  0  0  0  0  0  0
  -25.9780  -30.8540   21.4030 C   0  0  0  0  0  2  0  0  0  0  0  0
  -26.0930  -29.4890   20.7410 C   0  0  0  0  0  0  0  0  0  0  0  0
  -27.2870  -28.7140   20.7640 C   0  0  0  0  0  3  0  0  0  0  0  0
  -26.1630  -26.9990   19.4670 C   0  0  0  0  0  3  0  0  0  0  0  0
  -24.9860  -27.7580   19.4540 C   0  0  0  0  0  3  0  0  0  0  0  0
  -23.6990  -29.8470   20.1310 C   0  0  0  0  0  2  0  0  0  0  0  0
  -24.6840  -31.0890   22.0990 N   0  0  0  0  0  0  0  0  0  0  0  0
  -23.4830  -32.1350   23.7150 O   0  0  0  0  0  0  0  0  0  0  0  0
  -22.7770  -29.4410   22.4420 C   0  0  0  0  0  0  0  0  0  0  0  0
  -21.4550  -29.2520   22.2860 N   0  0  0  0  0  0  0  0  0  0  0  0
  -23.4470  -28.8060   23.2610 O   0  0  0  0  0  0  0  0  0  0  0  0
  -20.9730  -29.8180   21.6010 H   0  0  0  0  0  0  0  0  0  0  0  0
  -18.0780  -28.0300   22.7050 C   0  0  0  0  0  0  0  0  0  0  0  0
  -20.6290  -28.2970   23.0270 C   0  0  0  0  0  3  0  0  0  0  0  0
  -20.7480  -26.8760   22.4290 C   0  0  0  0  0  2  0  0  0  0  0  0
  -19.6670  -26.5650   21.3900 C   0  0  0  0  0  2  0  0  0  0  0  0
  -18.2730  -26.6940   22.0100 C   0  0  0  0  0  2  0  0  0  0  0  0
  -19.1850  -28.7910   23.1680 C   0  0  0  0  0  0  0  0  0  0  0  0
  -18.9490  -30.0420   23.7770 C   0  0  0  0  0  3  0  0  0  0  0  0
  -17.6390  -30.5340   23.9270 C   0  0  0  0  0  3  0  0  0  0  0  0
  -16.5460  -29.7710   23.4800 C   0  0  0  0  0  3  0  0  0  0  0  0
  -16.7660  -28.5210   22.8740 C   0  0  0  0  0  3  0  0  0  0  0  0
  -25.8410  -32.5250   23.8630 C   0  0  0  0  0  3  0  0  0  0  0  0
  -26.3410  -31.7420   25.1390 C   0  0  1  0  0  0  0  0  0  0  0  0
  -25.2270  -31.4660   26.1740 C   0  0  0  0  0  1  0  0  0  0  0  0
  -26.9600  -30.3820   24.7400 C   0  0  0  0  0  1  0  0  0  0  0  0
  -27.4590  -32.5470   25.8410 C   0  0  0  0  0  1  0  0  0  0  0  0
  -25.5000  -33.9130   24.2060 N   0  0  0  0  0  0  0  0  0  0  0  0
  -25.8320  -34.9810   23.4700 C   0  0  0  0  0  0  0  0  0  0  0  0
  -26.5290  -34.9040   22.4530 O   0  0  0  0  0  0  0  0  0  0  0  0
  -24.8830  -34.0450   24.9940 H   0  0  0  0  0  0  0  0  0  0  0  0
  -24.0790  -36.7450   23.1000 C   0  0  0  0  0  1  0  0  0  0  0  0
  -25.3080  -36.3530   23.9330 C   0  0  0  0  0  3  0  0  0  0  0  0
  -27.4110  -37.2610   24.8190 C   0  0  0  0  0  1  0  0  0  0  0  0
  -26.3220  -37.4280   23.8600 N   0  0  0  0  0  0  0  0  0  0  0  0
  -25.8950  -38.3360   24.0190 H   0  0  0  0  0  0  0  0  0  0  0  0
  2  1  1  0
  3  5  1  1
  3  1  1  0
  4  8  1  0
  4  3  1  0
  4  6  1  6
  7  4  1  0
  8  2  1  0
  9  8  1  0
  9 15  1  0
 10  9  2  0
 11 13  1  0
 12 15  1  0
 12 11  2  0
 14 16  1  0
 15 14  2  0
 16 13  2  0
 16 25  1  0
 17 25  1  0
 18 23  1  0
 19 20  1  0
 19 18  1  0
 21 20  1  0
 21 30  1  0
 21 22  1  0
 23 17  1  0
 23 22  1  0
 24 17  2  0
 25 26  1  0
 27 28  2  0
 28 47  1  0
 29 28  1  0
 29 32  1  0
 30 27  1  0
 30 31  1  0
 31 29  2  0
 32 33  1  0
 33 34  2  0
 35 38  1  0
 35 34  1  0
 36 35  2  0
 37 36  1  0
 37 32  2  0
 38 39  1  0
 39 40  1  0
 40 41  2  0
 42 41  1  0
 42 46  1  0
 43 42  2  0
 44 39  2  0
 44 43  1  0
 45 44  1  0
 47 48  1  0
 48 51  1  0
 48 50  1  0
 49 47  2  0
 52 53  1  0
 52 27  1  0
 54 52  1  0
 55  3  1  0
 55 56  1  0
 57 68  2  0
 58 56  1  0
 58 63  1  0
 59 67  1  0
 59 69  1  0
 60 66  1  0
 60 62  1  0
 61 67  1  0
 62 63  2  0
 62 61  1  0
 64 58  2  0
 65 64  1  0
 65 60  2  0
 66 59  1  0
 67 57  1  0
 69 71  2  0
 70 69  1  0
 72 70  1  0
 73 82  2  0
 73 78  1  0
 74 70  1  0
 74 78  1  0
 75 74  1  0
 76 77  1  0
 76 75  1  0
 77 73  1  0
 78 79  2  0
 79 80  1  0
 81 80  2  0
 82 81  1  0
 83 57  1  0
 83 88  1  0
 83 84  1  0
 84 87  1  1
 84 85  1  0
 86 84  1  0
 88 91  1  0
 89 93  1  0
 89 88  1  0
 90 89  2  0
 93 92  1  0
 95 93  1  0
 95 96  1  0
 95 94  1  0
M  ISO  4  17 100  25 100  55 101  56 101
M  END
>  <TORSDO>  (2) 
F 19

>  <SCORE>  (2) 
-14.569

>  <name>  (2) 
1

>  <ligand_id>  (2) 
1

>  <original_smiles>  (2) 
[H]c1c([H])c(C(=S)N2C([H])([H])C([H])([H])C(C([H])([H])[H])(C([H])([H])Oc3c([H])c([H])c4c(c3[H])C([H])([H])N(C(=O)C([H])(N([H])C(=O)C([H])(N([H])C([H])([H])[H])C([H])([H])[H])C(C([H])([H])[H])(C([H])([H])[H])C([H])([H])[H])C([H])(C(=O)N([H])C3([H])c5c([H])c([H])c([H])c([H])c5C([H])([H])C([H])([H])C3([H])[H])C4([H])[H])C2(C([H])([H])[H])C([H])([H])[H])c([H])c(N([H])C(=O)N2C([H])([H])C([H])([H])C([H])([H])C([H])(n3nc(-c4c([H])c([H])c(Oc5c([H])c([H])c(F)c([H])c5F)c([H])c4[H])c(C(=O)N([H])[H])c3N([H])[H])C2([H])[H])c1[H]

>  <smiles>  (2) 
[H]c1c([H])c(C(=S)N2C([H])([H])C([H])([H])C(C([H])([H])[H])(C([H])([H])Oc3c([H])c([H])c4c(c3[H])C([H])([H])N(C(=O)C([H])(N([H])C(=O)C([H])(N([H])C([H])([H])[H])C([H])([H])[H])C(C([H])([H])[H])(C([H])([H])[H])C([H])([H])[H])C([H])(C(=O)N([H])C3([H])c5c([H])c([H])c([H])c([H])c5C([H])([H])C([H])([H])C3([H])[H])C4([H])[H])C2(C([H])([H])[H])C([H])([H])[H])c([H])c(N([H])C(=O)N2C([H])([H])C([H])([H])C([H])([H])C([H])(n3nc(-c4c([H])c([H])c(Oc5c([H])c([H])c(F)c([H])c5F)c([H])c4[H])c(C(=O)N([H])[H])c3N([H])[H])C2([H])[H])c1[H]

$$$$
2:0:0
     RDKit          3D

 99108  0  0  1  0  0  0  0  0999 V2000
  -29.5560  -23.0580   19.9270 C   0  0  0  0  0  0  0  0  0  0  0  0
  -31.4360  -19.8760   20.3660 C   0  0  0  0  0  3  0  0  0  0  0  0
  -29.3490  -24.3210   19.4600 C   0  0  0  0  0  0  0  0  0  0  0  0
  -28.4800  -22.1500   20.4760 C   0  0  0  0  0  3  0  0  0  0  0  0
  -29.1440  -20.7990   20.7500 C   0  0  0  0  0  3  0  0  0  0  0  0
  -30.8950  -22.3280   19.9820 C   0  0  0  0  0  3  0  0  0  0  0  0
  -30.4560  -25.1770   18.8570 C   0  0  0  0  0  1  0  0  0  0  0  0
  -31.7710  -22.9530   21.0920 C   0  0  0  0  0  1  0  0  0  0  0  0
  -30.5530  -20.9190   20.3250 N   0  0  0  0  0  0  0  0  0  0  0  0
  -32.5970  -19.9980   19.7240 N   0  0  0  0  0  0  0  0  0  0  0  0
  -33.2860  -19.2640   19.8070 H   0  0  0  0  0  0  0  0  0  0  0  0
  -32.8100  -20.7850   19.1370 H   0  0  0  0  0  0  0  0  0  0  0  0
  -30.9940  -16.3300   22.7500 C   0  0  0  0  0  3  0  0  0  0  0  0
  -30.7970  -17.5980   23.3140 C   0  0  0  0  0  3  0  0  0  0  0  0
  -31.4040  -17.3440   20.5650 C   0  0  0  0  0  3  0  0  0  0  0  0
  -31.2070  -18.6360   21.1350 C   0  0  0  0  0  0  0  0  0  0  0  0
  -31.3020  -16.1840   21.3830 C   0  0  0  0  0  0  0  0  0  0  0  0
  -30.9180  -18.7450   22.5180 C   0  0  0  0  0  0  0  0  0  0  0  0
  -30.8020  -19.9530   23.1230 F   0  0  0  0  0  0  0  0  0  0  0  0
  -31.6540  -14.3090   19.7470 C   0  0  0  0  0  0  0  0  0  0  0  0
  -31.0720  -12.2820   18.4410 C   0  0  0  0  0  2  0  0  0  0  0  0
  -29.9810  -12.5670   17.3920 C   0  0  0  0  0  2  0  0  0  0  0  0
  -28.5730  -12.4570   18.0100 C   0  0  0  0  0  2  0  0  0  0  0  0
  -28.4440  -13.2660   19.3250 C   0  0  0  0  0  3  0  0  0  0  0  0
  -29.6150  -12.9350   20.2770 C   0  0  0  0  0  2  0  0  0  0  0  0
  -30.8930  -13.1950   19.5780 N   0  0  0  0  0  0  0  0  0  0  0  0
  -32.5130  -14.6870   18.9420 O   0  0  0  0  0  0  0  0  0  0  0  0
  -31.5280  -14.8380   20.9740 N   0  0  0  0  0  0  0  0  0  0  0  0
  -31.1030  -14.1680   21.5950 H   0  0  0  0  0  0  0  0  0  0  0  0
  -26.2380  -13.9740   20.4550 C   0  0  0  0  0  0  0  0  0  0  0  0
  -25.1640  -13.2500   20.8980 C   0  0  0  0  0  0  0  0  0  0  0  0
  -25.4780  -11.8810   20.6410 C   0  0  0  0  0  0  0  0  0  0  0  0
  -27.1470  -13.0480   19.9670 N   0  0  0  0  0  0  0  0  0  0  0  0
  -26.7000  -11.7770   20.1320 N   0  0  0  0  0  0  0  0  0  0  0  0
  -24.6660  -10.6680   20.7960 C   0  0  0  0  0  0  0  0  0  0  0  0
  -25.0870   -9.6000   21.6190 C   0  0  0  0  0  3  0  0  0  0  0  0
  -24.2840   -8.4490   21.7660 C   0  0  0  0  0  3  0  0  0  0  0  0
  -23.0410   -8.3600   21.0930 C   0  0  0  0  0  0  0  0  0  0  0  0
  -22.6380   -9.4160   20.2580 C   0  0  0  0  0  3  0  0  0  0  0  0
  -23.4410  -10.5580   20.1080 C   0  0  0  0  0  3  0  0  0  0  0  0
  -22.2050   -7.2710   21.1590 O   0  0  0  0  0  0  0  0  0  0  0  0
  -21.9400   -6.6380   22.3460 C   0  0  0  0  0  0  0  0  0  0  0  0
  -21.4030   -7.3270   23.4560 C   0  0  0  0  0  3  0  0  0  0  0  0
  -21.0810   -6.6210   24.6330 C   0  0  0  0  0  3  0  0  0  0  0  0
  -21.2840   -5.2300   24.6990 C   0  0  0  0  0  0  0  0  0  0  0  0
  -21.8110   -4.5420   23.5930 C   0  0  0  0  0  3  0  0  0  0  0  0
  -22.1360   -5.2440   22.4180 C   0  0  0  0  0  0  0  0  0  0  0  0
  -22.6260   -4.5730   21.3480 F   0  0  0  0  0  0  0  0  0  0  0  0
  -20.9660   -4.5500   25.8250 F   0  0  0  0  0  0  0  0  0  0  0  0
  -23.8740  -13.8000   21.4350 C   0  0  0  0  0  0  0  0  0  0  0  0
  -23.2940  -13.1440   22.4350 N   0  0  0  0  0  0  0  0  0  0  0  0
  -23.3960  -14.8470   21.0010 O   0  0  0  0  0  0  0  0  0  0  0  0
  -23.6990  -12.2990   22.8100 H   0  0  0  0  0  0  0  0  0  0  0  0
  -22.4330  -13.4930   22.8280 H   0  0  0  0  0  0  0  0  0  0  0  0
  -26.5070  -15.3400   20.4110 N   0  0  0  0  0  0  0  0  0  0  0  0
  -25.8200  -16.0280   20.6960 H   0  0  0  0  0  0  0  0  0  0  0  0
  -27.3270  -15.7540   19.9870 H   0  0  0  0  0  0  0  0  0  0  0  0
  -27.9830  -25.0170   19.5130 C   0  0  0  0  0  2  0  0  0  0  0  0
  -28.0860  -26.4080   19.8640 O   0  0  0  0  0  0  0  0  0  0  0  0
  -24.6920  -31.6450   23.2900 C   0  0  0  0  0  0  0  0  0  0  0  0
  -26.9460  -27.1940   19.9020 C   0  0  0  0  0  0  0  0  0  0  0  0
  -23.3500  -30.4240   21.6080 C   0  0  0  0  0  3  0  0  0  0  0  0
  -24.6570  -28.8620   20.0680 C   0  0  0  0  0  0  0  0  0  0  0  0
  -25.8910  -30.6030   21.3710 C   0  0  0  0  0  2  0  0  0  0  0  0
  -25.8600  -29.2680   20.6550 C   0  0  0  0  0  0  0  0  0  0  0  0
  -27.0030  -28.4370   20.5720 C   0  0  0  0  0  3  0  0  0  0  0  0
  -25.7210  -26.8110   19.3020 C   0  0  0  0  0  3  0  0  0  0  0  0
  -24.5810  -27.6330   19.3930 C   0  0  0  0  0  3  0  0  0  0  0  0
  -23.4800  -29.8040   20.1910 C   0  0  0  0  0  2  0  0  0  0  0  0
  -24.6640  -30.9020   22.1490 N   0  0  0  0  0  0  0  0  0  0  0  0
  -23.6460  -31.9660   23.8730 O   0  0  0  0  0  0  0  0  0  0  0  0
  -22.6450  -29.4040   22.5310 C   0  0  0  0  0  0  0  0  0  0  0  0
  -21.3150  -29.2820   22.3840 N   0  0  0  0  0  0  0  0  0  0  0  0
  -23.2930  -28.7270   23.3350 O   0  0  0  0  0  0  0  0  0  0  0  0
  -20.8540  -29.8810   21.7110 H   0  0  0  0  0  0  0  0  0  0  0  0
  -17.8850  -28.2350   22.8290 C   0  0  0  0  0  0  0  0  0  0  0  0
  -20.4510  -28.3570   23.1160 C   0  0  0  0  0  3  0  0  0  0  0  0
  -20.4860  -26.9440   22.4880 C   0  0  0  0  0  2  0  0  0  0  0  0
  -19.3760  -26.7150   21.4590 C   0  0  0  0  0  2  0  0  0  0  0  0
  -17.9990  -26.9030   22.1050 C   0  0  0  0  0  2  0  0  0  0  0  0
  -19.0380  -28.9240   23.2900 C   0  0  0  0  0  0  0  0  0  0  0  0
  -18.8820  -30.1750   23.9270 C   0  0  0  0  0  3  0  0  0  0  0  0
  -17.6030  -30.7350   24.1060 C   0  0  0  0  0  3  0  0  0  0  0  0
  -16.4640  -30.0420   23.6610 C   0  0  0  0  0  3  0  0  0  0  0  0
  -16.6050  -28.7930   23.0290 C   0  0  0  0  0  3  0  0  0  0  0  0
  -26.0360  -32.1450   23.9070 C   0  0  0  0  0  3  0  0  0  0  0  0
  -25.8450  -33.5470   24.3000 N   0  0  0  0  0  0  0  0  0  0  0  0
  -26.2090  -34.6010   23.5550 C   0  0  0  0  0  0  0  0  0  0  0  0
  -26.8090  -34.4870   22.4820 O   0  0  0  0  0  0  0  0  0  0  0  0
  -25.3060  -33.7150   25.1360 H   0  0  0  0  0  0  0  0  0  0  0  0
  -24.5930  -36.5180   23.3570 C   0  0  0  0  0  1  0  0  0  0  0  0
  -25.8460  -36.0030   24.0820 C   0  0  0  0  0  3  0  0  0  0  0  0
  -28.0710  -36.7220   24.8310 C   0  0  0  0  0  1  0  0  0  0  0  0
  -26.9440  -36.9850   23.9410 N   0  0  0  0  0  0  0  0  0  0  0  0
  -26.6090  -37.9280   24.1230 H   0  0  0  0  0  0  0  0  0  0  0  0
  -26.5150  -31.2810   25.1390 C   0  0  1  0  0  0  0  0  0  0  0  0
  -25.4200  -31.0660   26.2100 C   0  0  0  0  0  1  0  0  0  0  0  0
  -27.0000  -29.8880   24.6740 C   0  0  0  0  0  1  0  0  0  0  0  0
  -27.7230  -31.9640   25.8210 C   0  0  0  0  0  1  0  0  0  0  0  0
  1  6  1  0
  1  4  1  0
  2 10  1  0
  2 16  1  0
  3 58  1  0
  3  1  2  0
  4  5  2  0
  6  9  1  0
  6  8  1  0
  7  3  1  0
  9  2  1  0
  9  5  1  0
 10 11  1  0
 12 10  1  0
 13 14  1  0
 15 16  2  0
 15 17  1  0
 16 18  1  0
 17 13  2  0
 18 19  1  0
 18 14  2  0
 20 28  1  0
 21 26  1  0
 22 23  1  0
 22 21  1  0
 24 23  1  0
 24 33  1  0
 24 25  1  0
 26 20  1  0
 26 25  1  0
 27 20  2  0
 28 17  1  0
 28 29  1  0
 30 31  2  0
 31 50  1  0
 32 35  1  0
 32 31  1  0
 33 34  1  0
 33 30  1  0
 34 32  2  0
 35 36  1  0
 36 37  2  0
 38 41  1  0
 38 37  1  0
 39 38  2  0
 40 39  1  0
 40 35  2  0
 41 42  1  0
 42 47  2  0
 42 43  1  0
 43 44  2  0
 44 45  1  0
 45 49  1  0
 46 45  2  0
 47 46  1  0
 48 47  1  0
 50 51  1  0
 51 53  1  0
 51 54  1  0
 52 50  2  0
 55 30  1  0
 55 56  1  0
 57 55  1  0
 58 59  1  0
 59 61  1  0
 60 71  2  0
 61 66  1  0
 62 70  1  0
 62 72  1  0
 63 69  1  0
 63 65  1  0
 64 70  1  0
 65 64  1  0
 66 65  2  0
 67 68  1  0
 67 61  2  0
 68 63  2  0
 69 62  1  0
 70 60  1  0
 72 74  2  0
 73 72  1  0
 75 73  1  0
 76 85  2  0
 76 81  1  0
 77 73  1  0
 77 81  1  0
 78 77  1  0
 79 80  1  0
 79 78  1  0
 80 76  1  0
 81 82  2  0
 82 83  1  0
 84 83  2  0
 85 84  1  0
 86 60  1  0
 86 87  1  0
 86 96  1  0
 87 90  1  0
 88 92  1  0
 88 87  1  0
 89 88  2  0
 92 91  1  0
 94 92  1  0
 94 95  1  0
 94 93  1  0
 96 99  1  1
 96 97  1  0
 98 96  1  0
M  ISO  4  20 100  28 100  58 101  59 101
M  END
>  <TORSDO>  (3) 
F 18

>  <SCORE>  (3) 
-11.840

>  <name>  (3) 
2

>  <ligand_id>  (3) 
2

>  <original_smiles>  (3) 
[H]c1c([H])c([H])c2c(c1[H])C([H])([H])C([H])([H])C([H])([H])C2([H])N([H])C(=O)C1([H])N(C(=O)C([H])(N([H])C(=O)C([H])(N([H])C([H])([H])[H])C([H])([H])[H])C(C([H])([H])[H])(C([H])([H])[H])C([H])([H])[H])C([H])([H])c2c([H])c(OC([H])([H])C(=C3C([H])([H])C([H])([H])N(C(c4c([H])c(N([H])C(=O)N5C([H])([H])C([H])([H])C([H])([H])C([H])(n6nc(-c7c([H])c([H])c(Oc8c([H])c([H])c(F)c([H])c8F)c([H])c7[H])c(C(=O)N([H])[H])c6N([H])[H])C5([H])[H])c([H])c([H])c4F)=[N+]([H])[H])C3([H])C([H])([H])[H])C([H])([H])[H])c([H])c([H])c2C1([H])[H]

>  <smiles>  (3) 
[H]c1c([H])c([H])c2c(c1[H])C([H])([H])C([H])([H])C([H])([H])C2([H])N([H])C(=O)C1([H])N(C(=O)C([H])(N([H])C(=O)C([H])(N([H])C([H])([H])[H])C([H])([H])[H])C(C([H])([H])[H])(C([H])([H])[H])C([H])([H])[H])C([H])([H])c2c([H])c(OC([H])([H])C(=C3C([H])([H])C([H])([H])N(C(c4c([H])c(N([H])C(=O)N5C([H])([H])C([H])([H])C([H])([H])C([H])(n6nc(-c7c([H])c([H])c(Oc8c([H])c([H])c(F)c([H])c8F)c([H])c7[H])c(C(=O)N([H])[H])c6N([H])[H])C5([H])[H])c([H])c([H])c4F)=[N+]([H])[H])C3([H])C([H])([H])[H])C([H])([H])[H])c([H])c([H])c2C1([H])[H]

$$$$
3:0:0
     RDKit          3D

 94103  0  0  1  0  0  0  0  0999 V2000
  -30.2880  -22.2700   21.2270 C   0  0  0  0  0  0  0  0  0  0  0  0
  -29.4410  -23.3210   21.2620 C   0  0  0  0  0  3  0  0  0  0  0  0
  -31.7220  -22.2150   20.7550 C   0  0  0  0  0  2  0  0  0  0  0  0
  -29.9460  -20.9240   21.8150 C   0  0  0  0  0  2  0  0  0  0  0  0
  -32.0880  -20.7310   20.8530 C   0  0  0  0  0  2  0  0  0  0  0  0
  -31.1940  -20.1780   21.8590 N   0  0  0  0  0  0  0  0  0  0  0  0
  -30.9590  -18.1530   23.2390 C   0  0  0  0  0  3  0  0  0  0  0  0
  -30.7180  -16.7570   23.0990 C   0  0  0  0  0  3  0  0  0  0  0  0
  -31.0890  -18.8000   22.0410 C   0  0  0  0  0  0  0  0  0  0  0  0
  -30.7150  -16.3240   21.7970 C   0  0  0  0  0  0  0  0  0  0  0  0
  -30.9960  -17.6730   20.7080 S   0  0  0  0  0  0  0  0  0  0  0  0
  -30.8070  -14.4260   20.2750 C   0  0  0  0  0  0  0  0  0  0  0  0
  -30.3600  -12.4120   18.9150 C   0  0  0  0  0  2  0  0  0  0  0  0
  -29.3550  -12.6860   17.7760 C   0  0  0  0  0  2  0  0  0  0  0  0
  -27.9000  -12.5810   18.2700 C   0  0  0  0  0  2  0  0  0  0  0  0
  -27.6600  -13.3790   19.5770 C   0  0  0  0  0  3  0  0  0  0  0  0
  -28.7410  -13.0360   20.6190 C   0  0  0  0  0  2  0  0  0  0  0  0
  -30.0680  -13.3140   20.0360 N   0  0  0  0  0  0  0  0  0  0  0  0
  -31.7740  -14.7650   19.5820 O   0  0  0  0  0  0  0  0  0  0  0  0
  -30.4580  -15.0510   21.4080 N   0  0  0  0  0  0  0  0  0  0  0  0
  -29.7850  -14.5490   21.9660 H   0  0  0  0  0  0  0  0  0  0  0  0
  -25.3120  -14.0540   20.3970 C   0  0  0  0  0  0  0  0  0  0  0  0
  -24.2380  -13.3090   20.8030 C   0  0  0  0  0  0  0  0  0  0  0  0
  -24.6580  -11.9440   20.7320 C   0  0  0  0  0  0  0  0  0  0  0  0
  -26.3180  -13.1460   20.1050 N   0  0  0  0  0  0  0  0  0  0  0  0
  -25.9290  -11.8720   20.3620 N   0  0  0  0  0  0  0  0  0  0  0  0
  -23.9080  -10.7000   20.9360 C   0  0  0  0  0  0  0  0  0  0  0  0
  -24.3440   -9.7210   21.8560 C   0  0  0  0  0  3  0  0  0  0  0  0
  -23.5990   -8.5370   22.0470 C   0  0  0  0  0  3  0  0  0  0  0  0
  -22.4050   -8.3250   21.3160 C   0  0  0  0  0  0  0  0  0  0  0  0
  -21.9890   -9.2920   20.3850 C   0  0  0  0  0  3  0  0  0  0  0  0
  -22.7330  -10.4680   20.1920 C   0  0  0  0  0  3  0  0  0  0  0  0
  -21.6310   -7.1940   21.4190 O   0  0  0  0  0  0  0  0  0  0  0  0
  -21.5670   -6.4670   22.5800 C   0  0  0  0  0  0  0  0  0  0  0  0
  -21.1650   -7.0480   23.8030 C   0  0  0  0  0  3  0  0  0  0  0  0
  -21.0460   -6.2480   24.9560 C   0  0  0  0  0  3  0  0  0  0  0  0
  -21.3190   -4.8680   24.8890 C   0  0  0  0  0  0  0  0  0  0  0  0
  -21.7140   -4.2870   23.6710 C   0  0  0  0  0  3  0  0  0  0  0  0
  -21.8330   -5.0850   22.5200 C   0  0  0  0  0  0  0  0  0  0  0  0
  -22.1940   -4.5160   21.3440 F   0  0  0  0  0  0  0  0  0  0  0  0
  -21.1970   -4.0980   25.9950 F   0  0  0  0  0  0  0  0  0  0  0  0
  -22.8680  -13.8170   21.1500 C   0  0  0  0  0  0  0  0  0  0  0  0
  -22.1690  -13.1340   22.0490 N   0  0  0  0  0  0  0  0  0  0  0  0
  -22.4300  -14.8570   20.6580 O   0  0  0  0  0  0  0  0  0  0  0  0
  -22.5390  -12.2910   22.4650 H   0  0  0  0  0  0  0  0  0  0  0  0
  -21.2530  -13.4550   22.3290 H   0  0  0  0  0  0  0  0  0  0  0  0
  -25.5150  -15.4220   20.2350 N   0  0  0  0  0  0  0  0  0  0  0  0
  -24.7830  -16.1020   20.4070 H   0  0  0  0  0  0  0  0  0  0  0  0
  -26.3730  -15.8400   19.8950 H   0  0  0  0  0  0  0  0  0  0  0  0
  -30.6760  -24.9720   19.7240 C   0  0  0  0  0  1  0  0  0  0  0  0
  -30.1510  -25.5170   22.1220 C   0  0  0  0  0  1  0  0  0  0  0  0
  -29.6530  -24.7870   20.8610 C   0  0  2  0  0  0  0  0  0  0  0  0
  -28.2930  -25.3770   20.4030 C   0  0  0  0  0  2  0  0  0  0  0  0
  -28.3810  -26.7890   20.1790 O   0  0  0  0  0  0  0  0  0  0  0  0
  -24.5250  -31.9120   23.2110 C   0  0  0  0  0  0  0  0  0  0  0  0
  -27.1890  -27.4780   20.1650 C   0  0  0  0  0  0  0  0  0  0  0  0
  -23.3160  -30.4750   21.5960 C   0  0  0  0  0  3  0  0  0  0  0  0
  -24.7710  -28.9430   20.1720 C   0  0  0  0  0  0  0  0  0  0  0  0
  -25.8330  -30.8710   21.3630 C   0  0  0  0  0  2  0  0  0  0  0  0
  -25.9270  -29.4960   20.7380 C   0  0  0  0  0  0  0  0  0  0  0  0
  -27.1400  -28.7730   20.7250 C   0  0  0  0  0  3  0  0  0  0  0  0
  -26.0150  -26.9320   19.5990 C   0  0  0  0  0  3  0  0  0  0  0  0
  -24.8100  -27.6590   19.6000 C   0  0  0  0  0  3  0  0  0  0  0  0
  -23.5140  -29.7800   20.2220 C   0  0  0  0  0  2  0  0  0  0  0  0
  -24.5760  -31.1030   22.1150 N   0  0  0  0  0  0  0  0  0  0  0  0
  -23.4480  -32.1760   23.7640 O   0  0  0  0  0  0  0  0  0  0  0  0
  -22.6890  -29.4580   22.5780 C   0  0  0  0  0  0  0  0  0  0  0  0
  -21.3700  -29.2400   22.4510 N   0  0  0  0  0  0  0  0  0  0  0  0
  -23.3870  -28.8680   23.4080 O   0  0  0  0  0  0  0  0  0  0  0  0
  -20.8680  -29.7670   21.7500 H   0  0  0  0  0  0  0  0  0  0  0  0
  -18.0320  -27.9490   22.9250 C   0  0  0  0  0  0  0  0  0  0  0  0
  -20.5740  -28.2990   23.2360 C   0  0  0  0  0  3  0  0  0  0  0  0
  -20.7340  -26.8560   22.7060 C   0  0  0  0  0  2  0  0  0  0  0  0
  -19.6630  -26.4660   21.6830 C   0  0  0  0  0  2  0  0  0  0  0  0
  -18.2650  -26.5860   22.2980 C   0  0  0  0  0  2  0  0  0  0  0  0
  -19.1160  -28.7600   23.3520 C   0  0  0  0  0  0  0  0  0  0  0  0
  -18.8450  -30.0350   23.8950 C   0  0  0  0  0  3  0  0  0  0  0  0
  -17.5230  -30.4980   24.0210 C   0  0  0  0  0  3  0  0  0  0  0  0
  -16.4510  -29.6820   23.6180 C   0  0  0  0  0  3  0  0  0  0  0  0
  -16.7070  -28.4110   23.0730 C   0  0  0  0  0  3  0  0  0  0  0  0
  -25.8130  -32.5620   23.8090 C   0  0  0  0  0  3  0  0  0  0  0  0
  -26.3720  -31.7940   25.0700 C   0  0  1  0  0  0  0  0  0  0  0  0
  -25.3070  -31.5290   26.1580 C   0  0  0  0  0  1  0  0  0  0  0  0
  -26.9740  -30.4290   24.6590 C   0  0  0  0  0  1  0  0  0  0  0  0
  -27.5180  -32.6070   25.7160 C   0  0  0  0  0  1  0  0  0  0  0  0
  -25.4890  -33.9530   24.1490 N   0  0  0  0  0  0  0  0  0  0  0  0
  -25.8080  -35.0130   23.3940 C   0  0  0  0  0  0  0  0  0  0  0  0
  -26.4780  -34.9250   22.3610 O   0  0  0  0  0  0  0  0  0  0  0  0
  -24.8950  -34.0950   24.9510 H   0  0  0  0  0  0  0  0  0  0  0  0
  -24.0640  -36.7910   23.0400 C   0  0  0  0  0  1  0  0  0  0  0  0
  -25.3010  -36.3920   23.8590 C   0  0  0  0  0  3  0  0  0  0  0  0
  -27.4210  -37.2880   24.7160 C   0  0  0  0  0  1  0  0  0  0  0  0
  -26.3240  -37.4570   23.7670 N   0  0  0  0  0  0  0  0  0  0  0  0
  -25.9060  -38.3700   23.9250 H   0  0  0  0  0  0  0  0  0  0  0  0
  1  2  2  0
  1  4  1  0
  3  5  1  0
  3  1  1  0
  4  6  1  0
  5  6  1  0
  6  9  1  0
  8  7  1  0
  9  7  2  0
 10  8  2  0
 11 10  1  0
 11  9  1  0
 12 20  1  0
 13 18  1  0
 14 15  1  0
 14 13  1  0
 16 15  1  0
 16 25  1  0
 16 17  1  0
 18 12  1  0
 18 17  1  0
 19 12  2  0
 20 10  1  0
 20 21  1  0
 22 23  2  0
 23 42  1  0
 24 23  1  0
 24 27  1  0
 25 26  1  0
 25 22  1  0
 26 24  2  0
 27 28  1  0
 28 29  2  0
 30 33  1  0
 30 29  1  0
 31 30  2  0
 32 31  1  0
 32 27  2  0
 33 34  1  0
 34 35  1  0
 35 36  2  0
 37 36  1  0
 37 41  1  0
 38 37  2  0
 39 34  2  0
 39 38  1  0
 40 39  1  0
 42 43  1  0
 43 46  1  0
 43 45  1  0
 44 42  2  0
 47 22  1  0
 47 48  1  0
 49 47  1  0
 52 50  1  6
 52  2  1  0
 52 51  1  0
 53 52  1  0
 54 53  1  0
 55 66  2  0
 56 54  1  0
 56 61  1  0
 57 65  1  0
 57 67  1  0
 58 64  1  0
 58 60  1  0
 59 65  1  0
 60 59  1  0
 61 60  2  0
 62 63  1  0
 62 56  2  0
 63 58  2  0
 64 57  1  0
 65 55  1  0
 67 69  2  0
 68 67  1  0
 70 68  1  0
 71 80  2  0
 71 76  1  0
 72 68  1  0
 72 76  1  0
 73 72  1  0
 74 75  1  0
 74 73  1  0
 75 71  1  0
 76 77  2  0
 77 78  1  0
 79 78  2  0
 80 79  1  0
 81 55  1  0
 81 86  1  0
 81 82  1  0
 82 85  1  1
 82 83  1  0
 84 82  1  0
 86 89  1  0
 87 91  1  0
 87 86  1  0
 88 87  2  0
 91 90  1  0
 93 91  1  0
 93 94  1  0
 93 92  1  0
M  ISO  4  12 100  20 100  53 101  54 101
M  END
>  <TORSDO>  (4) 
F 19

>  <SCORE>  (4) 
-13.413

>  <name>  (4) 
3

>  <ligand_id>  (4) 
3

>  <original_smiles>  (4) 
[H]C(=C1C([H])([H])N(c2sc(N([H])C(=O)N3C([H])([H])C([H])([H])C([H])([H])C([H])(n4nc(-c5c([H])c([H])c(Oc6c([H])c([H])c(F)c([H])c6F)c([H])c5[H])c(C(=O)N([H])[H])c4N([H])[H])C3([H])[H])c([H])c2[H])C([H])([H])C1([H])[H])C(C([H])([H])[H])(C([H])([H])[H])C([H])([H])Oc1c([H])c([H])c2c(c1[H])C([H])([H])N(C(=O)C([H])(N([H])C(=O)C([H])(N([H])C([H])([H])[H])C([H])([H])[H])C(C([H])([H])[H])(C([H])([H])[H])C([H])([H])[H])C([H])(C(=O)N([H])C1([H])c3c([H])c([H])c([H])c([H])c3C([H])([H])C([H])([H])C1([H])[H])C2([H])[H]

>  <smiles>  (4) 
[H]C(=C1C([H])([H])N(c2sc(N([H])C(=O)N3C([H])([H])C([H])([H])C([H])([H])C([H])(n4nc(-c5c([H])c([H])c(Oc6c([H])c([H])c(F)c([H])c6F)c([H])c5[H])c(C(=O)N([H])[H])c4N([H])[H])C3([H])[H])c([H])c2[H])C([H])([H])C1([H])[H])C(C([H])([H])[H])(C([H])([H])[H])C([H])([H])Oc1c([H])c([H])c2c(c1[H])C([H])([H])N(C(=O)C([H])(N([H])C(=O)C([H])(N([H])C([H])([H])[H])C([H])([H])[H])C(C([H])([H])[H])(C([H])([H])[H])C([H])([H])[H])C([H])(C(=O)N([H])C1([H])c3c([H])c([H])c([H])c([H])c3C([H])([H])C([H])([H])C1([H])[H])C2([H])[H]

$$$$
4:0:0
     RDKit          3D

 93102  0  0  1  0  0  0  0  0999 V2000
  -30.6410  -22.5630   21.1750 C   0  0  0  0  0  2  0  0  0  0  0  0
  -30.3150  -24.0710   21.0170 C   0  0  0  0  0  2  0  0  0  0  0  0
  -29.6990  -22.8570   18.9900 C   0  0  0  0  0  2  0  0  0  0  0  0
  -30.6440  -21.8890   19.7980 C   0  0  0  0  0  3  0  0  0  0  0  0
  -29.8020  -24.3430   19.5840 C   0  0  2  0  0  0  0  0  0  0  0  0
  -30.8710  -25.1410   18.7990 C   0  0  0  0  0  1  0  0  0  0  0  0
  -31.3830  -19.3840   19.3730 C   0  0  0  0  0  3  0  0  0  0  0  0
  -31.2660  -17.9620   19.5480 C   0  0  0  0  0  3  0  0  0  0  0  0
  -29.2100  -18.3100   20.7190 C   0  0  0  0  0  3  0  0  0  0  0  0
  -30.4130  -20.3140   19.8580 C   0  0  0  0  0  0  0  0  0  0  0  0
  -30.1690  -17.3660   20.2460 C   0  0  0  0  0  0  0  0  0  0  0  0
  -29.3080  -19.7190   20.5230 C   0  0  0  0  0  0  0  0  0  0  0  0
  -28.3230  -20.5050   21.0180 F   0  0  0  0  0  0  0  0  0  0  0  0
  -30.6500  -14.7720   20.2150 C   0  0  0  0  0  0  0  0  0  0  0  0
  -30.3600  -12.5010   19.2470 C   0  0  0  0  0  2  0  0  0  0  0  0
  -29.4180  -12.6200   18.0320 C   0  0  0  0  0  2  0  0  0  0  0  0
  -27.9530  -12.4490   18.4780 C   0  0  0  0  0  2  0  0  0  0  0  0
  -27.5980  -13.3180   19.7160 C   0  0  0  0  0  3  0  0  0  0  0  0
  -28.6850  -13.2380   20.8180 C   0  0  0  0  0  2  0  0  0  0  0  0
  -29.9820  -13.5650   20.1990 N   0  0  0  0  0  0  0  0  0  0  0  0
  -31.8180  -14.8410   19.8320 O   0  0  0  0  0  0  0  0  0  0  0  0
  -29.9310  -15.9170   20.4850 N   0  0  0  0  0  0  0  0  0  0  0  0
  -29.0290  -15.7060   20.8850 H   0  0  0  0  0  0  0  0  0  0  0  0
  -25.2090  -13.8960   20.4580 C   0  0  0  0  0  0  0  0  0  0  0  0
  -24.1450  -13.1170   20.8300 C   0  0  0  0  0  0  0  0  0  0  0  0
  -24.6110  -11.7690   20.8000 C   0  0  0  0  0  0  0  0  0  0  0  0
  -26.2560  -13.0200   20.2210 N   0  0  0  0  0  0  0  0  0  0  0  0
  -25.9030  -11.7350   20.4860 N   0  0  0  0  0  0  0  0  0  0  0  0
  -23.8840  -10.5050   20.9940 C   0  0  0  0  0  0  0  0  0  0  0  0
  -24.3160   -9.5430   21.9340 C   0  0  0  0  0  3  0  0  0  0  0  0
  -23.5890   -8.3470   22.1200 C   0  0  0  0  0  3  0  0  0  0  0  0
  -22.4170   -8.1050   21.3680 C   0  0  0  0  0  0  0  0  0  0  0  0
  -22.0010   -9.0540   20.4190 C   0  0  0  0  0  3  0  0  0  0  0  0
  -22.7280  -10.2430   20.2300 C   0  0  0  0  0  3  0  0  0  0  0  0
  -21.6640   -6.9580   21.4620 O   0  0  0  0  0  0  0  0  0  0  0  0
  -21.6070   -6.2240   22.6180 C   0  0  0  0  0  0  0  0  0  0  0  0
  -21.1580   -6.7850   23.8340 C   0  0  0  0  0  3  0  0  0  0  0  0
  -21.0490   -5.9790   24.9830 C   0  0  0  0  0  3  0  0  0  0  0  0
  -21.3770   -4.6100   24.9200 C   0  0  0  0  0  0  0  0  0  0  0  0
  -21.8210   -4.0500   23.7080 C   0  0  0  0  0  3  0  0  0  0  0  0
  -21.9300   -4.8530   22.5620 C   0  0  0  0  0  0  0  0  0  0  0  0
  -22.3360   -4.3010   21.3920 F   0  0  0  0  0  0  0  0  0  0  0  0
  -21.2670   -3.8350   26.0230 F   0  0  0  0  0  0  0  0  0  0  0  0
  -22.7490  -13.5950   21.1080 C   0  0  0  0  0  0  0  0  0  0  0  0
  -22.0300  -12.9020   21.9850 N   0  0  0  0  0  0  0  0  0  0  0  0
  -22.3050  -14.6160   20.5880 O   0  0  0  0  0  0  0  0  0  0  0  0
  -22.4060  -12.0800   22.4310 H   0  0  0  0  0  0  0  0  0  0  0  0
  -21.0930  -13.2020   22.2130 H   0  0  0  0  0  0  0  0  0  0  0  0
  -25.3620  -15.2640   20.2810 N   0  0  0  0  0  0  0  0  0  0  0  0
  -24.5770  -15.9000   20.3790 H   0  0  0  0  0  0  0  0  0  0  0  0
  -26.1930  -15.7120   19.9170 H   0  0  0  0  0  0  0  0  0  0  0  0
  -28.4520  -25.2220   19.5600 C   0  0  0  0  0  2  0  0  0  0  0  0
  -28.4540  -26.6100   20.0820 O   0  0  0  0  0  0  0  0  0  0  0  0
  -24.6090  -31.8890   23.2320 C   0  0  0  0  0  0  0  0  0  0  0  0
  -27.2720  -27.3830   20.0980 C   0  0  0  0  0  0  0  0  0  0  0  0
  -23.3980  -30.4860   21.5970 C   0  0  0  0  0  3  0  0  0  0  0  0
  -24.8520  -28.9410   20.1550 C   0  0  0  0  0  0  0  0  0  0  0  0
  -25.9340  -30.8240   21.3880 C   0  0  0  0  0  2  0  0  0  0  0  0
  -26.0220  -29.4490   20.7340 C   0  0  0  0  0  0  0  0  0  0  0  0
  -27.2250  -28.6810   20.7010 C   0  0  0  0  0  3  0  0  0  0  0  0
  -26.0620  -26.9090   19.5330 C   0  0  0  0  0  3  0  0  0  0  0  0
  -24.8720  -27.6720   19.5570 C   0  0  0  0  0  3  0  0  0  0  0  0
  -23.6020  -29.8050   20.2190 C   0  0  0  0  0  2  0  0  0  0  0  0
  -24.6660  -31.0830   22.1290 N   0  0  0  0  0  0  0  0  0  0  0  0
  -23.5290  -32.1670   23.7710 O   0  0  0  0  0  0  0  0  0  0  0  0
  -22.7360  -29.4740   22.5600 C   0  0  0  0  0  0  0  0  0  0  0  0
  -21.4120  -29.2930   22.4280 N   0  0  0  0  0  0  0  0  0  0  0  0
  -23.4120  -28.8540   23.3830 O   0  0  0  0  0  0  0  0  0  0  0  0
  -20.9270  -29.8320   21.7250 H   0  0  0  0  0  0  0  0  0  0  0  0
  -18.0370  -28.0950   22.9120 C   0  0  0  0  0  0  0  0  0  0  0  0
  -20.5930  -28.3570   23.1970 C   0  0  0  0  0  3  0  0  0  0  0  0
  -20.7040  -26.9290   22.6180 C   0  0  0  0  0  2  0  0  0  0  0  0
  -19.6060  -26.6040   21.6000 C   0  0  0  0  0  2  0  0  0  0  0  0
  -18.2190  -26.7460   22.2390 C   0  0  0  0  0  2  0  0  0  0  0  0
  -19.1520  -28.8580   23.3460 C   0  0  0  0  0  0  0  0  0  0  0  0
  -18.9290  -30.1210   23.9360 C   0  0  0  0  0  3  0  0  0  0  0  0
  -17.6230  -30.6180   24.1040 C   0  0  0  0  0  3  0  0  0  0  0  0
  -16.5200  -29.8510   23.6880 C   0  0  0  0  0  3  0  0  0  0  0  0
  -16.7300  -28.5930   23.0940 C   0  0  0  0  0  3  0  0  0  0  0  0
  -25.8950  -32.5180   23.8540 C   0  0  0  0  0  3  0  0  0  0  0  0
  -25.5880  -33.9150   24.1960 N   0  0  0  0  0  0  0  0  0  0  0  0
  -25.8970  -34.9750   23.4360 C   0  0  0  0  0  0  0  0  0  0  0  0
  -26.5410  -34.8810   22.3880 O   0  0  0  0  0  0  0  0  0  0  0  0
  -25.0120  -34.0690   25.0110 H   0  0  0  0  0  0  0  0  0  0  0  0
  -24.1380  -36.7460   23.1470 C   0  0  0  0  0  1  0  0  0  0  0  0
  -25.4120  -36.3570   23.9150 C   0  0  0  0  0  3  0  0  0  0  0  0
  -27.5620  -37.2540   24.6800 C   0  0  0  0  0  1  0  0  0  0  0  0
  -26.4290  -37.4200   23.7720 N   0  0  0  0  0  0  0  0  0  0  0  0
  -26.0220  -38.3360   23.9380 H   0  0  0  0  0  0  0  0  0  0  0  0
  -26.4170  -31.7350   25.1200 C   0  0  1  0  0  0  0  0  0  0  0  0
  -25.3250  -31.4820   26.1840 C   0  0  0  0  0  1  0  0  0  0  0  0
  -26.9970  -30.3620   24.7130 C   0  0  0  0  0  1  0  0  0  0  0  0
  -27.5780  -32.5140   25.7810 C   0  0  0  0  0  1  0  0  0  0  0  0
  2  1  1  0
  3  5  1  0
  3  4  1  0
  4 10  1  0
  4  1  1  0
  5  6  1  6
  5  2  1  0
  7  8  2  0
  7 10  1  0
  8 11  1  0
 10 12  2  0
 11 22  1  0
 11  9  2  0
 12  9  1  0
 12 13  1  0
 14 22  1  0
 15 20  1  0
 16 17  1  0
 16 15  1  0
 18 17  1  0
 18 27  1  0
 18 19  1  0
 20 14  1  0
 20 19  1  0
 21 14  2  0
 22 23  1  0
 24 25  2  0
 25 44  1  0
 26 25  1  0
 26 29  1  0
 27 24  1  0
 27 28  1  0
 28 26  2  0
 29 30  1  0
 30 31  2  0
 32 35  1  0
 32 31  1  0
 33 32  2  0
 34 33  1  0
 34 29  2  0
 35 36  1  0
 36 37  1  0
 37 38  2  0
 39 38  1  0
 39 43  1  0
 40 39  2  0
 41 36  2  0
 41 40  1  0
 42 41  1  0
 44 45  1  0
 45 48  1  0
 45 47  1  0
 46 44  2  0
 49 50  1  0
 49 24  1  0
 51 49  1  0
 52  5  1  0
 52 53  1  0
 53 55  1  0
 54 65  2  0
 55 60  1  0
 56 64  1  0
 56 66  1  0
 57 63  1  0
 57 59  1  0
 58 64  1  0
 59 58  1  0
 60 59  2  0
 61 62  1  0
 61 55  2  0
 62 57  2  0
 63 56  1  0
 64 54  1  0
 66 68  2  0
 67 66  1  0
 69 67  1  0
 70 79  2  0
 70 75  1  0
 71 67  1  0
 71 75  1  0
 72 71  1  0
 73 74  1  0
 73 72  1  0
 74 70  1  0
 75 76  2  0
 76 77  1  0
 78 77  2  0
 79 78  1  0
 80 54  1  0
 80 81  1  0
 80 90  1  0
 81 84  1  0
 82 86  1  0
 82 81  1  0
 83 82  2  0
 86 85  1  0
 88 86  1  0
 88 89  1  0
 88 87  1  0
 90 93  1  1
 90 91  1  0
 92 90  1  0
M  ISO  4  14 100  22 100  52 101  53 101
M  END
>  <TORSDO>  (5) 
F 18

>  <SCORE>  (5) 
-14.878

>  <name>  (5) 
4

>  <ligand_id>  (5) 
4

>  <original_smiles>  (5) 
[H]c1c([H])c([H])c2c(c1[H])C([H])([H])C([H])([H])C([H])([H])C2([H])N([H])C(=O)C1([H])N(C(=O)C([H])(N([H])C(=O)C([H])(N([H])C([H])([H])[H])C([H])([H])[H])C(C([H])([H])[H])(C([H])([H])[H])C([H])([H])[H])C([H])([H])c2c([H])c(OC([H])([H])C3(C([H])([H])[H])C([H])([H])C([H])([H])C([H])(c4c([H])c([H])c(N([H])C(=O)N5C([H])([H])C([H])([H])C([H])([H])C([H])(n6nc(-c7c([H])c([H])c(Oc8c([H])c([H])c(F)c([H])c8F)c([H])c7[H])c(C(=O)N([H])[H])c6N([H])[H])C5([H])[H])c([H])c4F)C3([H])[H])c([H])c([H])c2C1([H])[H]

>  <smiles>  (5) 
[H]c1c([H])c([H])c2c(c1[H])C([H])([H])C([H])([H])C([H])([H])C2([H])N([H])C(=O)C1([H])N(C(=O)C([H])(N([H])C(=O)C([H])(N([H])C([H])([H])[H])C([H])([H])[H])C(C([H])([H])[H])(C([H])([H])[H])C([H])([H])[H])C([H])([H])c2c([H])c(OC([H])([H])C3(C([H])([H])[H])C([H])([H])C([H])([H])C([H])(c4c([H])c([H])c(N([H])C(=O)N5C([H])([H])C([H])([H])C([H])([H])C([H])(n6nc(-c7c([H])c([H])c(Oc8c([H])c([H])c(F)c([H])c8F)c([H])c7[H])c(C(=O)N([H])[H])c6N([H])[H])C5([H])[H])c([H])c4F)C3([H])[H])c([H])c([H])c2C1([H])[H]

$$$$
5:0:0
     RDKit          3D

100108  0  0  1  0  0  0  0  0999 V2000
  -29.1530  -21.4010   23.2470 C   0  0  0  0  0  2  0  0  0  0  0  0
  -31.4710  -22.2640   23.9410 C   0  0  0  0  0  1  0  0  0  0  0  0
  -30.1870  -22.5580   23.1420 C   0  0  0  0  0  3  0  0  0  0  0  0
  -30.5270  -23.0360   21.7070 C   0  0  0  0  0  2  0  0  0  0  0  0
  -29.3940  -23.7630   20.9660 C   0  0  0  0  0  0  0  0  0  0  0  0
  -28.2180  -23.5780   21.2910 O   0  0  0  0  0  0  0  0  0  0  0  0
  -30.9750  -24.2740   19.0280 C   0  0  0  0  0  1  0  0  0  0  0  0
  -30.2050  -26.0870   20.5880 C   0  0  0  0  0  1  0  0  0  0  0  0
  -29.7790  -24.7850   19.8650 C   0  0  2  0  0  0  0  0  0  0  0  0
  -28.5750  -25.0440   18.9000 C   0  0  0  0  0  2  0  0  0  0  0  0
  -28.4330  -26.4370   18.6250 O   0  0  0  0  0  0  0  0  0  0  0  0
  -24.8990  -30.7200   23.0670 C   0  0  0  0  0  0  0  0  0  0  0  0
  -27.2320  -27.0260   18.9460 C   0  0  0  0  0  0  0  0  0  0  0  0
  -23.5220  -29.5680   21.3640 C   0  0  0  0  0  3  0  0  0  0  0  0
  -24.8160  -28.3590   19.5310 C   0  0  0  0  0  0  0  0  0  0  0  0
  -25.9890  -30.0740   20.9230 C   0  0  0  0  0  2  0  0  0  0  0  0
  -26.0240  -28.8380   20.0520 C   0  0  0  0  0  0  0  0  0  0  0  0
  -27.2340  -28.1780   19.7550 C   0  0  0  0  0  3  0  0  0  0  0  0
  -26.0070  -26.5490   18.4270 C   0  0  0  0  0  3  0  0  0  0  0  0
  -24.8010  -27.2100   18.7200 C   0  0  0  0  0  3  0  0  0  0  0  0
  -23.5690  -29.1390   19.8730 C   0  0  0  0  0  2  0  0  0  0  0  0
  -24.8300  -30.1250   21.8430 N   0  0  0  0  0  0  0  0  0  0  0  0
  -23.8900  -30.8490   23.7740 O   0  0  0  0  0  0  0  0  0  0  0  0
  -23.0230  -28.3710   22.2030 C   0  0  0  0  0  0  0  0  0  0  0  0
  -21.7350  -28.0260   22.0390 N   0  0  0  0  0  0  0  0  0  0  0  0
  -23.7870  -27.7600   22.9540 O   0  0  0  0  0  0  0  0  0  0  0  0
  -21.1720  -28.5830   21.4100 H   0  0  0  0  0  0  0  0  0  0  0  0
  -18.6320  -26.1820   22.1630 C   0  0  0  0  0  0  0  0  0  0  0  0
  -21.0540  -26.9110   22.6940 C   0  0  0  0  0  3  0  0  0  0  0  0
  -21.4870  -25.5590   22.0830 C   0  0  0  0  0  2  0  0  0  0  0  0
  -20.5650  -25.0840   20.9560 C   0  0  0  0  0  2  0  0  0  0  0  0
  -19.1300  -24.9280   21.4650 C   0  0  0  0  0  2  0  0  0  0  0  0
  -19.5360  -27.1210   22.7260 C   0  0  0  0  0  0  0  0  0  0  0  0
  -19.0220  -28.2880   23.3330 C   0  0  0  0  0  3  0  0  0  0  0  0
  -17.6350  -28.5200   23.3840 C   0  0  0  0  0  3  0  0  0  0  0  0
  -16.7440  -27.5800   22.8370 C   0  0  0  0  0  3  0  0  0  0  0  0
  -17.2430  -26.4130   22.2330 C   0  0  0  0  0  3  0  0  0  0  0  0
  -26.2420  -31.2860   23.6280 C   0  0  0  0  0  3  0  0  0  0  0  0
  -25.9990  -32.6740   24.0360 N   0  0  0  0  0  0  0  0  0  0  0  0
  -26.4280  -33.7510   23.3630 C   0  0  0  0  0  0  0  0  0  0  0  0
  -27.1420  -33.6730   22.3600 O   0  0  0  0  0  0  0  0  0  0  0  0
  -25.3740  -32.8130   24.8170 H   0  0  0  0  0  0  0  0  0  0  0  0
  -24.8930  -35.7060   22.9850 C   0  0  0  0  0  1  0  0  0  0  0  0
  -25.9970  -35.1330   23.8880 C   0  0  0  0  0  3  0  0  0  0  0  0
  -28.0790  -35.7650   25.0280 C   0  0  0  0  0  1  0  0  0  0  0  0
  -27.1140  -36.1010   23.9830 N   0  0  0  0  0  0  0  0  0  0  0  0
  -26.7650  -37.0380   24.1610 H   0  0  0  0  0  0  0  0  0  0  0  0
  -26.8220  -30.4400   24.8280 C   0  0  1  0  0  0  0  0  0  0  0  0
  -25.7960  -30.1830   25.9560 C   0  0  0  0  0  1  0  0  0  0  0  0
  -27.3350  -29.0690   24.3310 C   0  0  0  0  0  1  0  0  0  0  0  0
  -28.0380  -31.1710   25.4430 C   0  0  0  0  0  1  0  0  0  0  0  0
  -29.4330  -20.1370   22.4510 C   0  0  0  0  0  3  0  0  0  0  0  0
  -30.5870  -19.6250   22.2730 N   0  0  0  0  0  0  0  0  0  0  0  0
  -29.5310  -17.5400   21.5480 C   0  0  0  0  0  3  0  0  0  0  0  0
  -31.9380  -17.7950   21.4060 C   0  0  0  0  0  3  0  0  0  0  0  0
  -29.6190  -16.2220   21.0560 C   0  0  0  0  0  0  0  0  0  0  0  0
  -30.6780  -18.3430   21.7190 C   0  0  0  0  0  0  0  0  0  0  0  0
  -30.8970  -15.6770   20.7340 C   0  0  0  0  0  0  0  0  0  0  0  0
  -32.0550  -16.4750   20.9260 C   0  0  0  0  0  0  0  0  0  0  0  0
  -33.2930  -15.9800   20.7020 F   0  0  0  0  0  0  0  0  0  0  0  0
  -31.0880  -13.7710   19.1000 C   0  0  0  0  0  0  0  0  0  0  0  0
  -30.4010  -11.7550   17.8180 C   0  0  0  0  0  2  0  0  0  0  0  0
  -29.2610  -12.0660   16.8280 C   0  0  0  0  0  2  0  0  0  0  0  0
  -27.8790  -12.0480   17.5170 C   0  0  0  0  0  2  0  0  0  0  0  0
  -27.8610  -12.8740   18.8280 C   0  0  0  0  0  3  0  0  0  0  0  0
  -29.0480  -12.4270   19.7020 C   0  0  0  0  0  2  0  0  0  0  0  0
  -30.3000  -12.6740   18.9590 N   0  0  0  0  0  0  0  0  0  0  0  0
  -31.9330  -14.1070   18.2610 O   0  0  0  0  0  0  0  0  0  0  0  0
  -30.9560  -14.3130   20.3260 N   0  0  0  0  0  0  0  0  0  0  0  0
  -30.4150  -13.7020   20.9140 H   0  0  0  0  0  0  0  0  0  0  0  0
  -25.6840  -13.7180   19.9270 C   0  0  0  0  0  0  0  0  0  0  0  0
  -24.6330  -13.0520   20.4990 C   0  0  0  0  0  0  0  0  0  0  0  0
  -24.9540  -11.6630   20.4150 C   0  0  0  0  0  0  0  0  0  0  0  0
  -26.5880  -12.7400   19.5360 N   0  0  0  0  0  0  0  0  0  0  0  0
  -26.1550  -11.5000   19.8770 N   0  0  0  0  0  0  0  0  0  0  0  0
  -24.1620  -10.4770   20.7580 C   0  0  0  0  0  0  0  0  0  0  0  0
  -24.6230   -9.5280   21.6960 C   0  0  0  0  0  3  0  0  0  0  0  0
  -23.8370   -8.4020   22.0230 C   0  0  0  0  0  3  0  0  0  0  0  0
  -22.5750   -8.2170   21.4100 C   0  0  0  0  0  0  0  0  0  0  0  0
  -22.1290   -9.1530   20.4590 C   0  0  0  0  0  3  0  0  0  0  0  0
  -22.9160  -10.2700   20.1320 C   0  0  0  0  0  3  0  0  0  0  0  0
  -21.7540   -7.1400   21.6440 O   0  0  0  0  0  0  0  0  0  0  0  0
  -21.7040   -6.5290   22.8720 C   0  0  0  0  0  0  0  0  0  0  0  0
  -21.4030   -7.2460   24.0490 C   0  0  0  0  0  3  0  0  0  0  0  0
  -21.2920   -6.5670   25.2780 C   0  0  0  0  0  3  0  0  0  0  0  0
  -21.4720   -5.1710   25.3320 C   0  0  0  0  0  0  0  0  0  0  0  0
  -21.7660   -4.4550   24.1600 C   0  0  0  0  0  3  0  0  0  0  0  0
  -21.8790   -5.1310   22.9330 C   0  0  0  0  0  0  0  0  0  0  0  0
  -22.1420   -4.4320   21.8020 F   0  0  0  0  0  0  0  0  0  0  0  0
  -21.3560   -4.5180   26.5120 F   0  0  0  0  0  0  0  0  0  0  0  0
  -23.3590  -13.6610   21.0110 C   0  0  0  0  0  0  0  0  0  0  0  0
  -22.7710  -13.0780   22.0500 N   0  0  0  0  0  0  0  0  0  0  0  0
  -22.8990  -14.6900   20.5180 O   0  0  0  0  0  0  0  0  0  0  0  0
  -23.1590  -12.2460   22.4710 H   0  0  0  0  0  0  0  0  0  0  0  0
  -21.9250  -13.4740   22.4320 H   0  0  0  0  0  0  0  0  0  0  0  0
  -25.9340  -15.0670   19.6950 N   0  0  0  0  0  0  0  0  0  0  0  0
  -25.2550  -15.7840   19.9280 H   0  0  0  0  0  0  0  0  0  0  0  0
  -26.7380  -15.4330   19.2030 H   0  0  0  0  0  0  0  0  0  0  0  0
  -27.0000  -16.1600   20.9810 C   0  0  0  0  0  1  0  0  0  0  0  0
  -28.3360  -15.4060   20.8630 C   0  0  0  0  0  2  0  0  0  0  0  0
  3  1  1  0
  3  2  1  0
  4  3  1  0
  5  6  2  0
  5  4  1  0
  9  7  1  6
  9  8  1  0
  9  5  1  0
 10  9  1  0
 11 10  1  0
 11 13  1  0
 12 23  2  0
 13 18  1  0
 14 22  1  0
 14 24  1  0
 15 21  1  0
 15 17  1  0
 16 22  1  0
 17 16  1  0
 18 17  2  0
 19 20  1  0
 19 13  2  0
 20 15  2  0
 21 14  1  0
 22 12  1  0
 24 26  2  0
 25 24  1  0
 27 25  1  0
 28 37  2  0
 28 33  1  0
 29 25  1  0
 29 33  1  0
 30 29  1  0
 31 32  1  0
 31 30  1  0
 32 28  1  0
 33 34  2  0
 34 35  1  0
 36 35  2  0
 37 36  1  0
 38 12  1  0
 38 39  1  0
 38 48  1  0
 39 42  1  0
 40 44  1  0
 40 39  1  0
 41 40  2  0
 44 43  1  0
 44 46  1  0
 46 47  1  0
 46 45  1  0
 48 51  1  1
 48 49  1  0
 50 48  1  0
 52  1  1  0
 53 52  2  0
 54 57  1  0
 55 57  2  0
 56 54  2  0
 57 53  1  0
 58 59  2  0
 58 56  1  0
 59 55  1  0
 60 59  1  0
 61 69  1  0
 62 67  1  0
 63 64  1  0
 63 62  1  0
 65 64  1  0
 65 74  1  0
 65 66  1  0
 67 61  1  0
 67 66  1  0
 68 61  2  0
 69 58  1  0
 69 70  1  0
 71 72  2  0
 72 91  1  0
 73 72  1  0
 73 76  1  0
 74 75  1  0
 74 71  1  0
 75 73  2  0
 76 77  1  0
 77 78  2  0
 79 82  1  0
 79 78  1  0
 80 79  2  0
 81 80  1  0
 81 76  2  0
 82 83  1  0
 83 88  2  0
 83 84  1  0
 84 85  2  0
 85 86  1  0
 86 90  1  0
 87 86  2  0
 88 87  1  0
 89 88  1  0
 91 92  1  0
 92 95  1  0
 92 94  1  0
 93 91  2  0
 96 71  1  0
 96 97  1  0
 98 96  1  0
100 99  1  0
100 56  1  0
M  ISO  4  10 101  11 101  61 100  69 100
M  END
>  <TORSDO>  (6) 
F 24

>  <SCORE>  (6) 
-4.076

>  <name>  (6) 
5

>  <ligand_id>  (6) 
5

>  <original_smiles>  (6) 
[H]C(=Nc1c([H])c(F)c(N([H])C(=O)N2C([H])([H])C([H])([H])C([H])([H])C([H])(n3nc(-c4c([H])c([H])c(Oc5c([H])c([H])c(F)c([H])c5F)c([H])c4[H])c(C(=O)N([H])[H])c3N([H])[H])C2([H])[H])c(C([H])([H])C([H])([H])[H])c1[H])C([H])([H])C([H])(C([H])([H])[H])C([H])([H])C(=O)C(C([H])([H])[H])(C([H])([H])[H])C([H])([H])Oc1c([H])c([H])c2c(c1[H])C([H])([H])N(C(=O)C([H])(N([H])C(=O)C([H])(N([H])C([H])([H])[H])C([H])([H])[H])C(C([H])([H])[H])(C([H])([H])[H])C([H])([H])[H])C([H])(C(=O)N([H])C1([H])c3c([H])c([H])c([H])c([H])c3C([H])([H])C([H])([H])C1([H])[H])C2([H])[H]

>  <smiles>  (6) 
[H]C(=Nc1c([H])c(F)c(N([H])C(=O)N2C([H])([H])C([H])([H])C([H])([H])C([H])(n3nc(-c4c([H])c([H])c(Oc5c([H])c([H])c(F)c([H])c5F)c([H])c4[H])c(C(=O)N([H])[H])c3N([H])[H])C2([H])[H])c(C([H])([H])C([H])([H])[H])c1[H])C([H])([H])C([H])(C([H])([H])[H])C([H])([H])C(=O)C(C([H])([H])[H])(C([H])([H])[H])C([H])([H])Oc1c([H])c([H])c2c(c1[H])C([H])([H])N(C(=O)C([H])(N([H])C(=O)C([H])(N([H])C([H])([H])[H])C([H])([H])[H])C(C([H])([H])[H])(C([H])([H])[H])C([H])([H])[H])C([H])(C(=O)N([H])C1([H])c3c([H])c([H])c([H])c([H])c3C([H])([H])C([H])([H])C1([H])[H])C2([H])[H]

$$$$
6:0:0
     RDKit          3D

 98106  0  0  1  0  0  0  0  0999 V2000
  -30.0760  -22.3620   19.8140 C   0  0  0  0  0  2  0  0  0  0  0  0
  -28.7060  -21.6980   19.9170 C   0  0  0  0  0  0  0  0  0  0  0  0
  -27.9700  -21.8920   20.8880 O   0  0  0  0  0  0  0  0  0  0  0  0
  -28.3040  -20.7150   18.8110 C   0  0  0  0  0  2  0  0  0  0  0  0
  -27.9700  -19.3940   19.3360 N   0  0  0  0  0  0  0  0  0  0  0  0
  -27.1340  -19.3640   19.9110 H   0  0  0  0  0  0  0  0  0  0  0  0
  -30.8910  -17.3730   19.7680 C   0  0  0  0  0  3  0  0  0  0  0  0
  -30.2970  -18.5530   19.2480 C   0  0  0  0  0  3  0  0  0  0  0  0
  -29.8810  -16.6850   20.3950 C   0  0  0  0  0  0  0  0  0  0  0  0
  -28.9840  -18.4910   19.6340 C   0  0  0  0  0  0  0  0  0  0  0  0
  -28.7000  -17.3680   20.3450 O   0  0  0  0  0  0  0  0  0  0  0  0
  -30.6870  -14.4330   20.5010 C   0  0  0  0  0  0  0  0  0  0  0  0
  -30.3890  -12.2850   19.3650 C   0  0  0  0  0  2  0  0  0  0  0  0
  -29.4620  -12.5170   18.1550 C   0  0  0  0  0  2  0  0  0  0  0  0
  -27.9830  -12.3880   18.5670 C   0  0  0  0  0  2  0  0  0  0  0  0
  -27.6370  -13.2120   19.8380 C   0  0  0  0  0  3  0  0  0  0  0  0
  -28.6820  -12.9710   20.9530 C   0  0  0  0  0  2  0  0  0  0  0  0
  -30.0180  -13.2560   20.4010 N   0  0  0  0  0  0  0  0  0  0  0  0
  -31.8300  -14.5960   20.0630 O   0  0  0  0  0  0  0  0  0  0  0  0
  -29.9460  -15.4540   20.9670 N   0  0  0  0  0  0  0  0  0  0  0  0
  -29.1030  -15.1580   21.4320 H   0  0  0  0  0  0  0  0  0  0  0  0
  -25.2290  -13.8110   20.5240 C   0  0  0  0  0  0  0  0  0  0  0  0
  -24.1610  -13.0330   20.8840 C   0  0  0  0  0  0  0  0  0  0  0  0
  -24.6280  -11.6840   20.8590 C   0  0  0  0  0  0  0  0  0  0  0  0
  -26.2800  -12.9340   20.3020 N   0  0  0  0  0  0  0  0  0  0  0  0
  -25.9200  -11.6490   20.5600 N   0  0  0  0  0  0  0  0  0  0  0  0
  -23.9060  -10.4190   21.0500 C   0  0  0  0  0  0  0  0  0  0  0  0
  -24.3420   -9.4570   21.9860 C   0  0  0  0  0  3  0  0  0  0  0  0
  -23.6210   -8.2560   22.1640 C   0  0  0  0  0  3  0  0  0  0  0  0
  -22.4530   -8.0100   21.4060 C   0  0  0  0  0  0  0  0  0  0  0  0
  -22.0360   -8.9620   20.4590 C   0  0  0  0  0  3  0  0  0  0  0  0
  -22.7560  -10.1550   20.2810 C   0  0  0  0  0  3  0  0  0  0  0  0
  -21.7090   -6.8590   21.4900 O   0  0  0  0  0  0  0  0  0  0  0  0
  -21.6670   -6.1090   22.6390 C   0  0  0  0  0  0  0  0  0  0  0  0
  -21.2380   -6.6550   23.8680 C   0  0  0  0  0  3  0  0  0  0  0  0
  -21.1440   -5.8340   25.0090 C   0  0  0  0  0  3  0  0  0  0  0  0
  -21.4700   -4.4660   24.9230 C   0  0  0  0  0  0  0  0  0  0  0  0
  -21.8880   -3.9190   23.6960 C   0  0  0  0  0  3  0  0  0  0  0  0
  -21.9830   -4.7380   22.5580 C   0  0  0  0  0  0  0  0  0  0  0  0
  -22.3700   -4.2020   21.3740 F   0  0  0  0  0  0  0  0  0  0  0  0
  -21.3680   -3.6730   26.0130 F   0  0  0  0  0  0  0  0  0  0  0  0
  -22.7600  -13.5070   21.1440 C   0  0  0  0  0  0  0  0  0  0  0  0
  -22.0290  -12.8100   22.0060 N   0  0  0  0  0  0  0  0  0  0  0  0
  -22.3220  -14.5320   20.6230 O   0  0  0  0  0  0  0  0  0  0  0  0
  -22.3980  -11.9840   22.4550 H   0  0  0  0  0  0  0  0  0  0  0  0
  -21.0880  -13.1100   22.2220 H   0  0  0  0  0  0  0  0  0  0  0  0
  -25.3920  -15.1840   20.3560 N   0  0  0  0  0  0  0  0  0  0  0  0
  -24.6270  -15.8370   20.4920 H   0  0  0  0  0  0  0  0  0  0  0  0
  -26.2570  -15.6310   20.0770 H   0  0  0  0  0  0  0  0  0  0  0  0
  -30.2600  -23.2210   18.5450 C   0  0  0  0  0  2  0  0  0  0  0  0
  -29.6090  -24.6230   18.6170 C   0  0  0  0  0  2  0  0  0  0  0  0
  -31.1830  -25.4200   20.4580 C   0  0  0  0  0  1  0  0  0  0  0  0
  -31.6480  -26.0150   18.0800 C   0  0  0  0  0  1  0  0  0  0  0  0
  -30.5080  -25.8010   19.1160 C   0  0  1  0  0  0  0  0  0  0  0  0
  -30.4230  -28.2590   19.9560 C   0  0  0  0  0  1  0  0  0  0  0  0
  -29.0620  -27.6170   17.9430 C   0  0  0  0  0  1  0  0  0  0  0  0
  -29.6270  -27.1080   19.2970 C   0  0  1  0  0  0  0  0  0  0  0  0
  -28.5550  -26.7220   20.1880 O   0  0  0  0  0  0  0  0  0  0  0  0
  -24.6260  -31.8590   23.1990 C   0  0  0  0  0  0  0  0  0  0  0  0
  -27.3860  -27.4510   20.2020 C   0  0  0  0  0  0  0  0  0  0  0  0
  -23.4610  -30.4320   21.5390 C   0  0  0  0  0  3  0  0  0  0  0  0
  -24.9580  -28.8910   20.1650 C   0  0  0  0  0  0  0  0  0  0  0  0
  -25.9830  -30.8170   21.3940 C   0  0  0  0  0  2  0  0  0  0  0  0
  -26.0920  -29.4420   20.7760 C   0  0  0  0  0  0  0  0  0  0  0  0
  -27.3030  -28.7190   20.8100 C   0  0  0  0  0  3  0  0  0  0  0  0
  -26.2300  -26.8910   19.6190 C   0  0  0  0  0  3  0  0  0  0  0  0
  -25.0150  -27.6060   19.5950 C   0  0  0  0  0  3  0  0  0  0  0  0
  -23.7020  -29.7340   20.1720 C   0  0  0  0  0  2  0  0  0  0  0  0
  -24.7040  -31.0520   22.1020 N   0  0  0  0  0  0  0  0  0  0  0  0
  -23.5310  -32.1270   23.7140 O   0  0  0  0  0  0  0  0  0  0  0  0
  -22.7950  -29.4180   22.4960 C   0  0  0  0  0  0  0  0  0  0  0  0
  -21.4720  -29.2440   22.3490 N   0  0  0  0  0  0  0  0  0  0  0  0
  -23.4660  -28.7920   23.3190 O   0  0  0  0  0  0  0  0  0  0  0  0
  -20.9980  -29.8020   21.6540 H   0  0  0  0  0  0  0  0  0  0  0  0
  -18.0790  -28.0950   22.8170 C   0  0  0  0  0  0  0  0  0  0  0  0
  -20.6380  -28.3130   23.1080 C   0  0  0  0  0  3  0  0  0  0  0  0
  -20.7250  -26.8850   22.5210 C   0  0  0  0  0  2  0  0  0  0  0  0
  -19.6240  -26.5860   21.4980 C   0  0  0  0  0  2  0  0  0  0  0  0
  -18.2400  -26.7480   22.1350 C   0  0  0  0  0  2  0  0  0  0  0  0
  -19.2060  -28.8370   23.2600 C   0  0  0  0  0  0  0  0  0  0  0  0
  -19.0050  -30.0990   23.8580 C   0  0  0  0  0  3  0  0  0  0  0  0
  -17.7070  -30.6200   24.0170 C   0  0  0  0  0  3  0  0  0  0  0  0
  -16.5930  -29.8750   23.5920 C   0  0  0  0  0  3  0  0  0  0  0  0
  -16.7810  -28.6140   23.0000 C   0  0  0  0  0  3  0  0  0  0  0  0
  -25.8970  -32.4940   23.8440 C   0  0  0  0  0  3  0  0  0  0  0  0
  -25.5740  -33.8890   24.1670 N   0  0  0  0  0  0  0  0  0  0  0  0
  -25.9160  -34.9430   23.4130 C   0  0  0  0  0  0  0  0  0  0  0  0
  -26.6070  -34.8420   22.3960 O   0  0  0  0  0  0  0  0  0  0  0  0
  -24.9640  -34.0430   24.9560 H   0  0  0  0  0  0  0  0  0  0  0  0
  -24.1860  -36.7230   23.0200 C   0  0  0  0  0  1  0  0  0  0  0  0
  -25.4110  -36.3290   23.8590 C   0  0  0  0  0  3  0  0  0  0  0  0
  -27.5220  -37.2250   24.7310 C   0  0  0  0  0  1  0  0  0  0  0  0
  -26.4400  -37.3870   23.7640 N   0  0  0  0  0  0  0  0  0  0  0  0
  -26.0280  -38.3060   23.9010 H   0  0  0  0  0  0  0  0  0  0  0  0
  -26.3970  -31.7250   25.1270 C   0  0  1  0  0  0  0  0  0  0  0  0
  -25.2870  -31.4830   26.1770 C   0  0  0  0  0  1  0  0  0  0  0  0
  -26.9930  -30.3500   24.7410 C   0  0  0  0  0  1  0  0  0  0  0  0
  -27.5330  -32.5240   25.8090 C   0  0  0  0  0  1  0  0  0  0  0  0
  1  2  1  0
  2  3  2  0
  4  5  1  0
  4  2  1  0
  5 10  1  0
  5  6  1  0
  7  9  2  0
  8 10  2  0
  8  7  1  0
  9 20  1  0
 10 11  1  0
 11  9  1  0
 12 20  1  0
 13 18  1  0
 14 15  1  0
 14 13  1  0
 16 15  1  0
 16 25  1  0
 16 17  1  0
 18 12  1  0
 18 17  1  0
 19 12  2  0
 20 21  1  0
 22 23  2  0
 23 42  1  0
 24 23  1  0
 24 27  1  0
 25 22  1  0
 25 26  1  0
 26 24  2  0
 27 28  1  0
 28 29  2  0
 30 33  1  0
 30 29  1  0
 31 30  2  0
 32 31  1  0
 32 27  2  0
 33 34  1  0
 34 35  1  0
 35 36  2  0
 37 36  1  0
 37 41  1  0
 38 37  2  0
 39 34  2  0
 39 38  1  0
 40 39  1  0
 42 43  1  0
 43 46  1  0
 43 45  1  0
 44 42  2  0
 47 48  1  0
 47 22  1  0
 49 47  1  0
 50 51  1  0
 50  1  1  0
 51 54  1  0
 54 53  1  6
 54 57  1  0
 54 52  1  0
 57 56  1  6
 57 55  1  0
 57 58  1  0
 58 60  1  0
 59 70  2  0
 60 65  1  0
 61 69  1  0
 61 71  1  0
 62 68  1  0
 62 64  1  0
 63 69  1  0
 64 65  2  0
 64 63  1  0
 66 60  2  0
 67 66  1  0
 67 62  2  0
 68 61  1  0
 69 59  1  0
 71 73  2  0
 72 71  1  0
 74 72  1  0
 75 84  2  0
 75 80  1  0
 76 72  1  0
 76 80  1  0
 77 76  1  0
 78 79  1  0
 78 77  1  0
 79 75  1  0
 80 81  2  0
 81 82  1  0
 83 82  2  0
 84 83  1  0
 85 59  1  0
 85 86  1  0
 85 95  1  0
 86 89  1  0
 87 91  1  0
 87 86  1  0
 88 87  2  0
 91 90  1  0
 93 91  1  0
 93 94  1  0
 93 92  1  0
 95 98  1  1
 95 96  1  0
 97 95  1  0
M  ISO  4  12 100  20 100  57 101  58 101
M  END
>  <TORSDO>  (7) 
F 24

>  <SCORE>  (7) 
-12.777

>  <name>  (7) 
6

>  <ligand_id>  (7) 
6

>  <original_smiles>  (7) 
[H]c1c(N([H])C(=O)N2C([H])([H])C([H])([H])C([H])([H])C([H])(n3nc(-c4c([H])c([H])c(Oc5c([H])c([H])c(F)c([H])c5F)c([H])c4[H])c(C(=O)N([H])[H])c3N([H])[H])C2([H])[H])oc(N([H])C([H])([H])C(=O)C([H])([H])C([H])([H])C([H])([H])C(C([H])([H])[H])(C([H])([H])[H])C(Oc2c([H])c([H])c3c(c2[H])C([H])([H])N(C(=O)C([H])(N([H])C(=O)C([H])(N([H])C([H])([H])[H])C([H])([H])[H])C(C([H])([H])[H])(C([H])([H])[H])C([H])([H])[H])C([H])(C(=O)N([H])C2([H])c4c([H])c([H])c([H])c([H])c4C([H])([H])C([H])([H])C2([H])[H])C3([H])[H])(C([H])([H])[H])C([H])([H])[H])c1[H]

>  <smiles>  (7) 
[H]c1c(N([H])C(=O)N2C([H])([H])C([H])([H])C([H])([H])C([H])(n3nc(-c4c([H])c([H])c(Oc5c([H])c([H])c(F)c([H])c5F)c([H])c4[H])c(C(=O)N([H])[H])c3N([H])[H])C2([H])[H])oc(N([H])C([H])([H])C(=O)C([H])([H])C([H])([H])C([H])([H])C(C([H])([H])[H])(C([H])([H])[H])C(Oc2c([H])c([H])c3c(c2[H])C([H])([H])N(C(=O)C([H])(N([H])C(=O)C([H])(N([H])C([H])([H])[H])C([H])([H])[H])C(C([H])([H])[H])(C([H])([H])[H])C([H])([H])[H])C([H])(C(=O)N([H])C2([H])c4c([H])c([H])c([H])c([H])c4C([H])([H])C([H])([H])C2([H])[H])C3([H])[H])(C([H])([H])[H])C([H])([H])[H])c1[H]

$$$$
7:0:0
     RDKit          3D

 95103  0  0  1  0  0  0  0  0999 V2000
  -27.7300  -19.3160   20.1060 C   0  0  0  0  0  1  0  0  0  0  0  0
  -28.6900  -21.1320   21.5580 C   0  0  0  0  0  1  0  0  0  0  0  0
  -28.5290  -20.6710   20.0970 C   0  0  2  0  0  0  0  0  0  0  0  0
  -27.8930  -23.0360   19.0080 C   0  0  0  0  0  3  0  0  0  0  0  0
  -27.6710  -21.7320   19.3290 C   0  0  0  0  0  0  0  0  0  0  0  0
  -26.2930  -21.2190   18.8720 C   0  0  0  0  0  1  0  0  0  0  0  0
  -29.3540  -24.2580   20.7430 C   0  0  0  0  0  1  0  0  0  0  0  0
  -28.9200  -24.1700   19.2700 C   0  0  0  0  0  3  0  0  0  0  0  0
  -28.1210  -25.4290   18.8550 C   0  0  0  0  0  2  0  0  0  0  0  0
  -28.4540  -26.8350   18.9690 O   0  0  0  0  0  0  0  0  0  0  0  0
  -24.5580  -31.3390   22.8840 C   0  0  0  0  0  0  0  0  0  0  0  0
  -27.2900  -27.6050   19.0280 C   0  0  0  0  0  0  0  0  0  0  0  0
  -23.3450  -30.0390   21.1730 C   0  0  0  0  0  3  0  0  0  0  0  0
  -24.7950  -28.8950   19.4270 C   0  0  0  0  0  0  0  0  0  0  0  0
  -25.8070  -30.6750   20.8360 C   0  0  0  0  0  2  0  0  0  0  0  0
  -25.9590  -29.4210   20.0020 C   0  0  0  0  0  0  0  0  0  0  0  0
  -27.2100  -28.7810   19.8140 C   0  0  0  0  0  3  0  0  0  0  0  0
  -26.1030  -27.1760   18.3700 C   0  0  0  0  0  3  0  0  0  0  0  0
  -24.8620  -27.7710   18.6050 C   0  0  0  0  0  3  0  0  0  0  0  0
  -23.4870  -29.5920   19.6980 C   0  0  0  0  0  2  0  0  0  0  0  0
  -24.5920  -30.6920   21.6870 N   0  0  0  0  0  0  0  0  0  0  0  0
  -23.5080  -31.4240   23.5360 O   0  0  0  0  0  0  0  0  0  0  0  0
  -22.8920  -28.8310   22.0260 C   0  0  0  0  0  0  0  0  0  0  0  0
  -21.6070  -28.4650   21.9050 N   0  0  0  0  0  0  0  0  0  0  0  0
  -23.6880  -28.2360   22.7550 O   0  0  0  0  0  0  0  0  0  0  0  0
  -21.0170  -29.0080   21.2870 H   0  0  0  0  0  0  0  0  0  0  0  0
  -18.5050  -26.6350   22.2160 C   0  0  0  0  0  0  0  0  0  0  0  0
  -20.9590  -27.3470   22.5930 C   0  0  0  0  0  3  0  0  0  0  0  0
  -21.3410  -25.9980   21.9400 C   0  0  0  0  0  2  0  0  0  0  0  0
  -20.3430  -25.5400   20.8710 C   0  0  0  0  0  2  0  0  0  0  0  0
  -18.9460  -25.3840   21.4750 C   0  0  0  0  0  2  0  0  0  0  0  0
  -19.4460  -27.5670   22.7270 C   0  0  0  0  0  0  0  0  0  0  0  0
  -18.9790  -28.7310   23.3740 C   0  0  0  0  0  3  0  0  0  0  0  0
  -17.5990  -28.9690   23.5190 C   0  0  0  0  0  3  0  0  0  0  0  0
  -16.6700  -28.0380   23.0260 C   0  0  0  0  0  3  0  0  0  0  0  0
  -17.1230  -26.8730   22.3800 C   0  0  0  0  0  3  0  0  0  0  0  0
  -25.8280  -32.0220   23.4770 C   0  0  0  0  0  3  0  0  0  0  0  0
  -25.4250  -33.3440   23.9720 N   0  0  0  0  0  0  0  0  0  0  0  0
  -25.6790  -34.4990   23.3430 C   0  0  0  0  0  0  0  0  0  0  0  0
  -26.3490  -34.5650   22.3100 O   0  0  0  0  0  0  0  0  0  0  0  0
  -24.8240  -33.3600   24.7840 H   0  0  0  0  0  0  0  0  0  0  0  0
  -23.8350  -36.2020   23.1910 C   0  0  0  0  0  1  0  0  0  0  0  0
  -25.0990  -35.7860   23.9600 C   0  0  0  0  0  3  0  0  0  0  0  0
  -27.1670  -36.7000   24.9150 C   0  0  0  0  0  1  0  0  0  0  0  0
  -26.0580  -36.9100   23.9890 N   0  0  0  0  0  0  0  0  0  0  0  0
  -25.5920  -37.7780   24.2420 H   0  0  0  0  0  0  0  0  0  0  0  0
  -26.5110  -31.1780   24.6220 C   0  0  1  0  0  0  0  0  0  0  0  0
  -25.5330  -30.7400   25.7370 C   0  0  0  0  0  1  0  0  0  0  0  0
  -27.1640  -29.9000   24.0450 C   0  0  0  0  0  1  0  0  0  0  0  0
  -27.6460  -32.0010   25.2720 C   0  0  0  0  0  1  0  0  0  0  0  0
  -29.9400  -20.4000   19.4620 C   0  0  0  0  0  0  0  0  0  0  0  0
  -30.5580  -21.2570   18.8270 O   0  0  0  0  0  0  0  0  0  0  0  0
  -31.3640  -17.0560   18.8050 C   0  0  0  0  0  2  0  0  0  0  0  0
  -30.9990  -16.6780   20.0840 C   0  0  0  0  0  3  0  0  0  0  0  0
  -30.5600  -19.0380   19.5410 C   0  0  0  0  0  3  0  0  0  0  0  0
  -31.1110  -18.3920   18.5100 N   0  0  0  0  0  2  0  0  0  0  0  0
  -30.6160  -18.0920   21.0330 S   0  0  0  0  0  0  0  0  0  0  0  0
  -31.3300  -14.3170   20.0130 C   0  0  0  0  0  0  0  0  0  0  0  0
  -30.8950  -11.9950   19.3550 C   0  0  0  0  0  2  0  0  0  0  0  0
  -29.9590  -11.9490   18.1340 C   0  0  0  0  0  2  0  0  0  0  0  0
  -28.4880  -11.9320   18.5920 C   0  0  0  0  0  2  0  0  0  0  0  0
  -28.1750  -13.0580   19.6130 C   0  0  0  0  0  3  0  0  0  0  0  0
  -29.2320  -13.1040   20.7460 C   0  0  0  0  0  2  0  0  0  0  0  0
  -30.5740  -13.1950   20.1420 N   0  0  0  0  0  0  0  0  0  0  0  0
  -32.3850  -14.3390   19.3740 O   0  0  0  0  0  0  0  0  0  0  0  0
  -30.8720  -15.4270   20.6090 N   0  0  0  0  0  0  0  0  0  0  0  0
  -30.1430  -15.2960   21.2940 H   0  0  0  0  0  0  0  0  0  0  0  0
  -25.8880  -13.9100   20.4490 C   0  0  0  0  0  0  0  0  0  0  0  0
  -24.7550  -13.2530   20.8450 C   0  0  0  0  0  0  0  0  0  0  0  0
  -25.0570  -11.8580   20.7570 C   0  0  0  0  0  0  0  0  0  0  0  0
  -26.8180  -12.9270   20.1470 N   0  0  0  0  0  0  0  0  0  0  0  0
  -26.3210  -11.6860   20.3880 N   0  0  0  0  0  0  0  0  0  0  0  0
  -24.2020  -10.6790   20.9510 C   0  0  0  0  0  0  0  0  0  0  0  0
  -24.5660   -9.6410   21.8360 C   0  0  0  0  0  3  0  0  0  0  0  0
  -23.7180   -8.5260   22.0180 C   0  0  0  0  0  3  0  0  0  0  0  0
  -22.4920   -8.4430   21.3150 C   0  0  0  0  0  0  0  0  0  0  0  0
  -22.1460   -9.4700   20.4180 C   0  0  0  0  0  3  0  0  0  0  0  0
  -22.9930  -10.5760   20.2330 C   0  0  0  0  0  3  0  0  0  0  0  0
  -21.6180   -7.3870   21.4100 O   0  0  0  0  0  0  0  0  0  0  0  0
  -21.5680   -6.5930   22.5280 C   0  0  0  0  0  0  0  0  0  0  0  0
  -21.2690   -7.1200   23.8040 C   0  0  0  0  0  3  0  0  0  0  0  0
  -21.1550   -6.2570   24.9120 C   0  0  0  0  0  3  0  0  0  0  0  0
  -21.3340   -4.8700   24.7470 C   0  0  0  0  0  0  0  0  0  0  0  0
  -21.6250   -4.3430   23.4770 C   0  0  0  0  0  3  0  0  0  0  0  0
  -21.7380   -5.2030   22.3700 C   0  0  0  0  0  0  0  0  0  0  0  0
  -21.9980   -4.6890   21.1430 F   0  0  0  0  0  0  0  0  0  0  0  0
  -21.2180   -4.0410   25.8110 F   0  0  0  0  0  0  0  0  0  0  0  0
  -23.4340  -13.8750   21.1990 C   0  0  0  0  0  0  0  0  0  0  0  0
  -22.6780  -13.2410   22.0880 N   0  0  0  0  0  0  0  0  0  0  0  0
  -23.0860  -14.9510   20.7180 O   0  0  0  0  0  0  0  0  0  0  0  0
  -22.9740  -12.3660   22.4960 H   0  0  0  0  0  0  0  0  0  0  0  0
  -21.7890  -13.6350   22.3640 H   0  0  0  0  0  0  0  0  0  0  0  0
  -26.2040  -15.2580   20.3000 N   0  0  0  0  0  0  0  0  0  0  0  0
  -25.5290  -15.9950   20.4720 H   0  0  0  0  0  0  0  0  0  0  0  0
  -27.0960  -15.6040   19.9720 H   0  0  0  0  0  0  0  0  0  0  0  0
  3  1  1  1
  3  2  1  0
  4  8  1  0
  4  5  2  0
  5  3  1  0
  6  5  1  0
  8  7  1  0
  9 10  1  0
  9  8  1  0
 10 12  1  0
 11 22  2  0
 12 17  1  0
 13 21  1  0
 13 23  1  0
 14 20  1  0
 14 16  1  0
 15 21  1  0
 16 15  1  0
 17 16  2  0
 18 19  1  0
 18 12  2  0
 19 14  2  0
 20 13  1  0
 21 11  1  0
 23 25  2  0
 24 23  1  0
 26 24  1  0
 27 36  2  0
 27 32  1  0
 28 24  1  0
 28 32  1  0
 29 28  1  0
 30 31  1  0
 30 29  1  0
 31 27  1  0
 32 33  2  0
 33 34  1  0
 35 34  2  0
 36 35  1  0
 37 11  1  0
 37 38  1  0
 37 47  1  0
 38 41  1  0
 39 43  1  0
 39 38  1  0
 40 39  2  0
 43 42  1  0
 43 45  1  0
 45 46  1  0
 45 44  1  0
 47 50  1  1
 47 48  1  0
 49 47  1  0
 51  3  1  0
 52 51  2  0
 53 54  1  0
 54 66  1  0
 54 57  1  0
 55 51  1  0
 55 57  1  0
 56 53  1  0
 56 55  1  0
 58 64  1  0
 58 66  1  0
 59 64  1  0
 60 61  1  0
 60 59  1  0
 62 61  1  0
 62 71  1  0
 62 63  1  0
 64 63  1  0
 65 58  2  0
 66 67  1  0
 68 69  2  0
 69 88  1  0
 70 69  1  0
 70 73  1  0
 71 72  1  0
 71 68  1  0
 72 70  2  0
 73 74  1  0
 74 75  2  0
 76 79  1  0
 76 75  1  0
 77 76  2  0
 78 77  1  0
 78 73  2  0
 79 80  1  0
 80 81  1  0
 81 82  2  0
 83 82  1  0
 83 87  1  0
 84 83  2  0
 85 80  2  0
 85 84  1  0
 86 85  1  0
 88 89  1  0
 89 92  1  0
 89 91  1  0
 90 88  2  0
 93 68  1  0
 93 94  1  0
 95 93  1  0
M  ISO  4   9 101  10 101  58 100  66 100
M  END
>  <TORSDO>  (8) 
F 21

>  <SCORE>  (8) 
-11.249

>  <name>  (8) 
7

>  <ligand_id>  (8) 
7

>  <original_smiles>  (8) 
[H]C(=C(C([H])([H])[H])C(C(=O)c1nc([H])c(N([H])C(=O)N2C([H])([H])C([H])([H])C([H])([H])C([H])(n3nc(-c4c([H])c([H])c(Oc5c([H])c([H])c(F)c([H])c5F)c([H])c4[H])c(C(=O)N([H])[H])c3N([H])[H])C2([H])[H])s1)(C([H])([H])[H])C([H])([H])[H])C([H])(C([H])([H])[H])C([H])([H])Oc1c([H])c([H])c2c(c1[H])C([H])([H])N(C(=O)C([H])(N([H])C(=O)C([H])(N([H])C([H])([H])[H])C([H])([H])[H])C(C([H])([H])[H])(C([H])([H])[H])C([H])([H])[H])C([H])(C(=O)N([H])C1([H])c3c([H])c([H])c([H])c([H])c3C([H])([H])C([H])([H])C1([H])[H])C2([H])[H]

>  <smiles>  (8) 
[H]C(=C(C([H])([H])[H])C(C(=O)c1nc([H])c(N([H])C(=O)N2C([H])([H])C([H])([H])C([H])([H])C([H])(n3nc(-c4c([H])c([H])c(Oc5c([H])c([H])c(F)c([H])c5F)c([H])c4[H])c(C(=O)N([H])[H])c3N([H])[H])C2([H])[H])s1)(C([H])([H])[H])C([H])([H])[H])C([H])(C([H])([H])[H])C([H])([H])Oc1c([H])c([H])c2c(c1[H])C([H])([H])N(C(=O)C([H])(N([H])C(=O)C([H])(N([H])C([H])([H])[H])C([H])([H])[H])C(C([H])([H])[H])(C([H])([H])[H])C([H])([H])[H])C([H])(C(=O)N([H])C1([H])c3c([H])c([H])c([H])c([H])c3C([H])([H])C([H])([H])C1([H])[H])C2([H])[H]

$$$$
8:0:0
     RDKit          3D

 96104  0  0  1  0  0  0  0  0999 V2000
  -28.1940  -20.7510   19.0620 C   0  0  0  0  0  0  0  0  0  0  0  0
  -26.8250  -18.9930   20.1570 C   0  0  0  0  0  1  0  0  0  0  0  0
  -27.9440  -19.4440   19.3250 N   0  0  0  0  0  0  0  0  0  0  0  0
  -29.1960  -21.1130   18.4410 O   0  0  0  0  0  0  0  0  0  0  0  0
  -28.7330  -18.3770   18.6930 C   0  0  0  0  0  2  0  0  0  0  0  0
  -30.3300  -16.4610   19.1360 C   0  0  0  0  0  3  0  0  0  0  0  0
  -29.8340  -17.9780   20.9740 C   0  0  0  0  0  3  0  0  0  0  0  0
  -31.2790  -16.0420   21.3480 C   0  0  0  0  0  3  0  0  0  0  0  0
  -29.6660  -17.6060   19.6220 C   0  0  0  0  0  0  0  0  0  0  0  0
  -31.1290  -15.6710   19.9910 C   0  0  0  0  0  0  0  0  0  0  0  0
  -30.6310  -17.1970   21.8330 C   0  0  0  0  0  0  0  0  0  0  0  0
  -30.7770  -17.5580   23.1300 F   0  0  0  0  0  0  0  0  0  0  0  0
  -32.4000  -13.5190   19.9780 C   0  0  0  0  0  0  0  0  0  0  0  0
  -31.8060  -11.1640   19.6980 C   0  0  0  0  0  2  0  0  0  0  0  0
  -30.9360  -11.0570   18.4250 C   0  0  0  0  0  2  0  0  0  0  0  0
  -29.4480  -11.2630   18.7780 C   0  0  0  0  0  2  0  0  0  0  0  0
  -29.2120  -12.5340   19.6400 C   0  0  0  0  0  3  0  0  0  0  0  0
  -30.2070  -12.6090   20.8230 C   0  0  0  0  0  2  0  0  0  0  0  0
  -31.5630  -12.4920   20.2750 N   0  0  0  0  0  0  0  0  0  0  0  0
  -33.6010  -13.3680   19.7560 O   0  0  0  0  0  0  0  0  0  0  0  0
  -31.8070  -14.5730   19.4020 N   0  0  0  0  0  0  0  0  0  0  0  0
  -32.2950  -14.8370   18.5580 H   0  0  0  0  0  0  0  0  0  0  0  0
  -27.0450  -13.7530   20.2900 C   0  0  0  0  0  0  0  0  0  0  0  0
  -25.8030  -13.2890   20.6240 C   0  0  0  0  0  0  0  0  0  0  0  0
  -25.8940  -11.8650   20.5990 C   0  0  0  0  0  0  0  0  0  0  0  0
  -27.8290  -12.6270   20.0890 N   0  0  0  0  0  0  0  0  0  0  0  0
  -27.1370  -11.4860   20.3340 N   0  0  0  0  0  0  0  0  0  0  0  0
  -24.8580  -10.8400   20.7530 C   0  0  0  0  0  0  0  0  0  0  0  0
  -25.0620   -9.7090   21.5720 C   0  0  0  0  0  3  0  0  0  0  0  0
  -24.0440   -8.7420   21.7250 C   0  0  0  0  0  3  0  0  0  0  0  0
  -22.8070   -8.9040   21.0590 C   0  0  0  0  0  0  0  0  0  0  0  0
  -22.6160  -10.0240   20.2280 C   0  0  0  0  0  3  0  0  0  0  0  0
  -23.6310  -10.9820   20.0730 C   0  0  0  0  0  3  0  0  0  0  0  0
  -21.7700   -8.0050   21.1260 O   0  0  0  0  0  0  0  0  0  0  0  0
  -21.5670   -7.2240   22.2350 C   0  0  0  0  0  0  0  0  0  0  0  0
  -21.4390   -7.7780   23.5280 C   0  0  0  0  0  3  0  0  0  0  0  0
  -21.1630   -6.9420   24.6270 C   0  0  0  0  0  3  0  0  0  0  0  0
  -21.0060   -5.5560   24.4370 C   0  0  0  0  0  0  0  0  0  0  0  0
  -21.1280   -5.0030   23.1500 C   0  0  0  0  0  3  0  0  0  0  0  0
  -21.4070   -5.8350   22.0520 C   0  0  0  0  0  0  0  0  0  0  0  0
  -21.5010   -5.2990   20.8110 F   0  0  0  0  0  0  0  0  0  0  0  0
  -20.7320   -4.7550   25.4920 F   0  0  0  0  0  0  0  0  0  0  0  0
  -24.5760  -14.1190   20.8610 C   0  0  0  0  0  0  0  0  0  0  0  0
  -23.7410  -13.7120   21.8090 N   0  0  0  0  0  0  0  0  0  0  0  0
  -24.3740  -15.1620   20.2360 O   0  0  0  0  0  0  0  0  0  0  0  0
  -23.9180  -12.8680   22.3320 H   0  0  0  0  0  0  0  0  0  0  0  0
  -22.9150  -14.2530   22.0180 H   0  0  0  0  0  0  0  0  0  0  0  0
  -27.5660  -15.0310   20.1260 N   0  0  0  0  0  0  0  0  0  0  0  0
  -26.9950  -15.8600   20.2400 H   0  0  0  0  0  0  0  0  0  0  0  0
  -28.5420  -15.2280   19.9490 H   0  0  0  0  0  0  0  0  0  0  0  0
  -27.1860  -21.8310   19.4760 C   0  0  0  0  0  2  0  0  0  0  0  0
  -27.8310  -22.9450   20.3340 C   0  0  0  0  0  2  0  0  0  0  0  0
  -28.1760  -24.1980   19.5350 C   0  0  0  0  0  0  0  0  0  0  0  0
  -28.3710  -24.1470   18.3150 O   0  0  0  0  0  0  0  0  0  0  0  0
  -28.2940  -25.5200   20.3040 C   0  0  0  0  0  2  0  0  0  0  0  0
  -28.1520  -26.6250   19.4130 O   0  0  0  0  0  0  0  0  0  0  0  0
  -24.6790  -31.6110   23.1020 C   0  0  0  0  0  0  0  0  0  0  0  0
  -26.9950  -27.3410   19.5770 C   0  0  0  0  0  0  0  0  0  0  0  0
  -23.3520  -30.3600   21.4540 C   0  0  0  0  0  3  0  0  0  0  0  0
  -24.6490  -28.8740   19.8400 C   0  0  0  0  0  0  0  0  0  0  0  0
  -25.8550  -30.6620   21.1120 C   0  0  0  0  0  2  0  0  0  0  0  0
  -25.8510  -29.3310   20.3950 C   0  0  0  0  0  0  0  0  0  0  0  0
  -27.0280  -28.5690   20.2650 C   0  0  0  0  0  3  0  0  0  0  0  0
  -25.7820  -26.8860   19.0180 C   0  0  0  0  0  3  0  0  0  0  0  0
  -24.6050  -27.6480   19.1490 C   0  0  0  0  0  3  0  0  0  0  0  0
  -23.4430  -29.7620   20.0210 C   0  0  0  0  0  2  0  0  0  0  0  0
  -24.6540  -30.8880   21.9480 N   0  0  0  0  0  0  0  0  0  0  0  0
  -23.6390  -31.8770   23.7200 O   0  0  0  0  0  0  0  0  0  0  0  0
  -22.7240  -29.3060   22.3900 C   0  0  0  0  0  0  0  0  0  0  0  0
  -21.4010  -29.2460   22.2830 N   0  0  0  0  0  0  0  0  0  0  0  0
  -23.3970  -28.5780   23.1180 O   0  0  0  0  0  0  0  0  0  0  0  0
  -21.0000  -29.9750   21.7100 H   0  0  0  0  0  0  0  0  0  0  0  0
  -17.9690  -27.8480   22.7730 C   0  0  0  0  0  0  0  0  0  0  0  0
  -20.4510  -28.2240   22.6490 C   0  0  0  0  0  3  0  0  0  0  0  0
  -20.6770  -26.7440   22.3300 C   0  0  0  0  0  2  0  0  0  0  0  0
  -19.5240  -26.2590   21.4240 C   0  0  0  0  0  2  0  0  0  0  0  0
  -18.1380  -26.5070   22.0570 C   0  0  0  0  0  2  0  0  0  0  0  0
  -19.0880  -28.6250   23.1610 C   0  0  0  0  0  0  0  0  0  0  0  0
  -18.9020  -29.8500   23.8340 C   0  0  0  0  0  3  0  0  0  0  0  0
  -17.6020  -30.3270   24.0800 C   0  0  0  0  0  3  0  0  0  0  0  0
  -16.4870  -29.5720   23.6710 C   0  0  0  0  0  3  0  0  0  0  0  0
  -16.6710  -28.3310   23.0340 C   0  0  0  0  0  3  0  0  0  0  0  0
  -26.0160  -32.1540   23.6860 C   0  0  0  0  0  3  0  0  0  0  0  0
  -25.7810  -33.5380   24.1170 N   0  0  0  0  0  0  0  0  0  0  0  0
  -26.1700  -34.6200   23.4290 C   0  0  0  0  0  0  0  0  0  0  0  0
  -26.8370  -34.5530   22.3940 O   0  0  0  0  0  0  0  0  0  0  0  0
  -25.1920  -33.6690   24.9270 H   0  0  0  0  0  0  0  0  0  0  0  0
  -24.5620  -36.5360   23.1750 C   0  0  0  0  0  1  0  0  0  0  0  0
  -25.7560  -35.9980   23.9810 C   0  0  0  0  0  3  0  0  0  0  0  0
  -27.9190  -36.6800   24.9190 C   0  0  0  0  0  1  0  0  0  0  0  0
  -26.8520  -36.9880   23.9700 N   0  0  0  0  0  0  0  0  0  0  0  0
  -26.5010  -37.9200   24.1770 H   0  0  0  0  0  0  0  0  0  0  0  0
  -26.5660  -31.2800   24.8760 C   0  0  1  0  0  0  0  0  0  0  0  0
  -25.5130  -30.9830   25.9700 C   0  0  0  0  0  1  0  0  0  0  0  0
  -27.1030  -29.9250   24.3560 C   0  0  0  0  0  1  0  0  0  0  0  0
  -27.7620  -32.0010   25.5420 C   0  0  0  0  0  1  0  0  0  0  0  0
  1  3  1  0
  1 51  1  0
  3  2  1  0
  4  1  2  0
  5  3  1  0
  5  9  1  0
  6  9  2  0
  6 10  1  0
  7 11  2  0
  8 11  1  0
  9  7  1  0
 10  8  2  0
 11 12  1  0
 13 19  1  0
 14 19  1  0
 15 16  1  0
 15 14  1  0
 17 16  1  0
 17 26  1  0
 17 18  1  0
 19 18  1  0
 20 13  2  0
 21 13  1  0
 21 10  1  0
 22 21  1  0
 23 24  2  0
 24 43  1  0
 25 24  1  0
 25 28  1  0
 26 23  1  0
 26 27  1  0
 27 25  2  0
 28 29  1  0
 29 30  2  0
 31 34  1  0
 31 30  1  0
 32 31  2  0
 33 32  1  0
 33 28  2  0
 34 35  1  0
 35 36  1  0
 36 37  2  0
 38 37  1  0
 38 42  1  0
 39 38  2  0
 40 35  2  0
 40 39  1  0
 41 40  1  0
 43 44  1  0
 44 47  1  0
 44 46  1  0
 45 43  2  0
 48 49  1  0
 48 23  1  0
 50 48  1  0
 51 52  1  0
 53 55  1  0
 53 52  1  0
 54 53  2  0
 56 58  1  0
 56 55  1  0
 57 68  2  0
 58 63  1  0
 59 67  1  0
 59 69  1  0
 60 66  1  0
 60 62  1  0
 61 67  1  0
 62 61  1  0
 63 62  2  0
 64 65  1  0
 64 58  2  0
 65 60  2  0
 66 59  1  0
 67 57  1  0
 69 71  2  0
 70 69  1  0
 72 70  1  0
 73 82  2  0
 73 78  1  0
 74 70  1  0
 74 78  1  0
 75 74  1  0
 76 77  1  0
 76 75  1  0
 77 73  1  0
 78 79  2  0
 79 80  1  0
 81 80  2  0
 82 81  1  0
 83 57  1  0
 83 84  1  0
 83 93  1  0
 84 87  1  0
 85 89  1  0
 85 84  1  0
 86 85  2  0
 89 88  1  0
 91 89  1  0
 91 92  1  0
 91 90  1  0
 93 96  1  1
 93 94  1  0
 95 93  1  0
M  ISO  4  13 100  21 100  55 101  56 101
M  END
>  <TORSDO>  (9) 
F 22

>  <SCORE>  (9) 
-11.389

>  <name>  (9) 
8

>  <ligand_id>  (9) 
8

>  <original_smiles>  (9) 
[H]c1c([H])c([H])c2c(c1[H])C([H])([H])C([H])([H])C([H])([H])C2([H])N([H])C(=O)C1([H])N(C(=O)C([H])(N([H])C(=O)C([H])(N([H])C([H])([H])[H])C([H])([H])[H])C(C([H])([H])[H])(C([H])([H])[H])C([H])([H])[H])C([H])([H])c2c([H])c(OC([H])([H])C(=O)C([H])([H])C([H])([H])C(=O)N(C([H])([H])[H])C([H])([H])c3c([H])c(F)c([H])c(N([H])C(=O)N4C([H])([H])C([H])([H])C([H])([H])C([H])(n5nc(-c6c([H])c([H])c(Oc7c([H])c([H])c(F)c([H])c7F)c([H])c6[H])c(C(=O)N([H])[H])c5N([H])[H])C4([H])[H])c3[H])c([H])c([H])c2C1([H])[H]

>  <smiles>  (9) 
[H]c1c([H])c([H])c2c(c1[H])C([H])([H])C([H])([H])C([H])([H])C2([H])N([H])C(=O)C1([H])N(C(=O)C([H])(N([H])C(=O)C([H])(N([H])C([H])([H])[H])C([H])([H])[H])C(C([H])([H])[H])(C([H])([H])[H])C([H])([H])[H])C([H])([H])c2c([H])c(OC([H])([H])C(=O)C([H])([H])C([H])([H])C(=O)N(C([H])([H])[H])C([H])([H])c3c([H])c(F)c([H])c(N([H])C(=O)N4C([H])([H])C([H])([H])C([H])([H])C([H])(n5nc(-c6c([H])c([H])c(Oc7c([H])c([H])c(F)c([H])c7F)c([H])c6[H])c(C(=O)N([H])[H])c5N([H])[H])C4([H])[H])c3[H])c([H])c([H])c2C1([H])[H]

$$$$
9:0:0
     RDKit          3D

 96105  0  0  1  0  0  0  0  0999 V2000
  -28.9330  -24.4980   20.8120 C   0  0  0  0  0  0  0  0  0  0  0  0
  -28.6680  -25.8140   20.9920 C   0  0  0  0  0  2  0  0  0  0  0  0
  -29.9510  -21.1070   21.9460 C   0  0  0  0  0  3  0  0  0  0  0  0
  -28.9240  -23.7420   19.5000 C   0  0  0  0  0  3  0  0  0  0  0  0
  -29.2870  -23.5370   21.9310 C   0  0  0  0  0  3  0  0  0  0  0  0
  -29.1340  -22.2550   19.8570 C   0  0  0  0  0  3  0  0  0  0  0  0
  -29.4870  -22.2110   21.2900 N   0  0  0  0  0  0  0  0  0  0  0  0
  -30.3310  -21.2640   23.2150 N   0  0  0  0  0  0  0  0  0  0  0  0
  -30.6420  -20.4580   23.7360 H   0  0  0  0  0  0  0  0  0  0  0  0
  -30.3130  -22.1540   23.6800 H   0  0  0  0  0  0  0  0  0  0  0  0
  -28.8080  -19.0210   21.2090 C   0  0  0  0  0  3  0  0  0  0  0  0
  -28.8240  -17.6260   20.9760 C   0  0  0  0  0  3  0  0  0  0  0  0
  -31.2510  -17.6320   21.0070 C   0  0  0  0  0  3  0  0  0  0  0  0
  -30.0140  -19.7310   21.4020 C   0  0  0  0  0  0  0  0  0  0  0  0
  -30.0390  -16.9080   20.8950 C   0  0  0  0  0  0  0  0  0  0  0  0
  -31.2380  -19.0250   21.2740 C   0  0  0  0  0  0  0  0  0  0  0  0
  -32.4170  -19.6690   21.4540 F   0  0  0  0  0  0  0  0  0  0  0  0
  -30.7020  -14.5630   20.1490 C   0  0  0  0  0  0  0  0  0  0  0  0
  -30.4010  -12.4430   18.9090 C   0  0  0  0  0  2  0  0  0  0  0  0
  -29.3890  -12.6850   17.7680 C   0  0  0  0  0  2  0  0  0  0  0  0
  -27.9350  -12.5340   18.2630 C   0  0  0  0  0  2  0  0  0  0  0  0
  -27.6660  -13.3170   19.5740 C   0  0  0  0  0  3  0  0  0  0  0  0
  -28.7720  -13.0130   20.6120 C   0  0  0  0  0  2  0  0  0  0  0  0
  -30.0690  -13.3660   20.0040 N   0  0  0  0  0  0  0  0  0  0  0  0
  -31.7970  -14.8140   19.6350 O   0  0  0  0  0  0  0  0  0  0  0  0
  -29.9470  -15.4820   20.7880 N   0  0  0  0  0  0  0  0  0  0  0  0
  -29.0780  -15.0920   21.1170 H   0  0  0  0  0  0  0  0  0  0  0  0
  -25.3020  -13.9280   20.3930 C   0  0  0  0  0  0  0  0  0  0  0  0
  -24.2500  -13.1540   20.8050 C   0  0  0  0  0  0  0  0  0  0  0  0
  -24.7050  -11.8020   20.7350 C   0  0  0  0  0  0  0  0  0  0  0  0
  -26.3330  -13.0460   20.1050 N   0  0  0  0  0  0  0  0  0  0  0  0
  -25.9780  -11.7620   20.3670 N   0  0  0  0  0  0  0  0  0  0  0  0
  -23.9860  -10.5380   20.9410 C   0  0  0  0  0  0  0  0  0  0  0  0
  -24.4470   -9.5680   21.8580 C   0  0  0  0  0  3  0  0  0  0  0  0
  -23.7280   -8.3690   22.0520 C   0  0  0  0  0  3  0  0  0  0  0  0
  -22.5360   -8.1320   21.3290 C   0  0  0  0  0  0  0  0  0  0  0  0
  -22.0940   -9.0910   20.4010 C   0  0  0  0  0  3  0  0  0  0  0  0
  -22.8130  -10.2820   20.2050 C   0  0  0  0  0  3  0  0  0  0  0  0
  -21.7860   -6.9840   21.4330 O   0  0  0  0  0  0  0  0  0  0  0  0
  -21.7490   -6.2520   22.5920 C   0  0  0  0  0  0  0  0  0  0  0  0
  -21.3430   -6.8210   23.8200 C   0  0  0  0  0  3  0  0  0  0  0  0
  -21.2530   -6.0150   24.9730 C   0  0  0  0  0  3  0  0  0  0  0  0
  -21.5570   -4.6420   24.8990 C   0  0  0  0  0  0  0  0  0  0  0  0
  -21.9570   -4.0740   23.6770 C   0  0  0  0  0  3  0  0  0  0  0  0
  -22.0490   -4.8770   22.5260 C   0  0  0  0  0  0  0  0  0  0  0  0
  -22.4140   -4.3190   21.3460 F   0  0  0  0  0  0  0  0  0  0  0  0
  -21.4630   -3.8670   26.0040 F   0  0  0  0  0  0  0  0  0  0  0  0
  -22.8670  -13.6300   21.1460 C   0  0  0  0  0  0  0  0  0  0  0  0
  -22.1780  -12.9250   22.0380 N   0  0  0  0  0  0  0  0  0  0  0  0
  -22.4060  -14.6610   20.6570 O   0  0  0  0  0  0  0  0  0  0  0  0
  -22.5640  -12.0920   22.4550 H   0  0  0  0  0  0  0  0  0  0  0  0
  -21.2520  -13.2260   22.3060 H   0  0  0  0  0  0  0  0  0  0  0  0
  -25.4610  -15.3010   20.2170 N   0  0  0  0  0  0  0  0  0  0  0  0
  -24.6840  -15.9420   20.3350 H   0  0  0  0  0  0  0  0  0  0  0  0
  -26.2520  -15.7230   19.7490 H   0  0  0  0  0  0  0  0  0  0  0  0
  -28.4390  -26.7150   19.9770 O   0  0  0  0  0  0  0  0  0  0  0  0
  -24.6310  -31.8620   23.1990 C   0  0  0  0  0  0  0  0  0  0  0  0
  -27.2910  -27.4700   20.0550 C   0  0  0  0  0  0  0  0  0  0  0  0
  -23.4280  -30.4750   21.5410 C   0  0  0  0  0  3  0  0  0  0  0  0
  -24.8890  -28.9630   20.0930 C   0  0  0  0  0  0  0  0  0  0  0  0
  -25.9520  -30.8520   21.3400 C   0  0  0  0  0  2  0  0  0  0  0  0
  -26.0460  -29.4860   20.6880 C   0  0  0  0  0  0  0  0  0  0  0  0
  -27.2540  -28.7460   20.6680 C   0  0  0  0  0  3  0  0  0  0  0  0
  -26.1190  -26.9620   19.4590 C   0  0  0  0  0  3  0  0  0  0  0  0
  -24.9210  -27.6980   19.4790 C   0  0  0  0  0  3  0  0  0  0  0  0
  -23.6390  -29.8140   20.1520 C   0  0  0  0  0  2  0  0  0  0  0  0
  -24.6890  -31.0770   22.0860 N   0  0  0  0  0  0  0  0  0  0  0  0
  -23.5500  -32.1210   23.7460 O   0  0  0  0  0  0  0  0  0  0  0  0
  -22.7850  -29.4370   22.4880 C   0  0  0  0  0  0  0  0  0  0  0  0
  -21.4650  -29.2350   22.3490 N   0  0  0  0  0  0  0  0  0  0  0  0
  -23.4730  -28.8180   23.3040 O   0  0  0  0  0  0  0  0  0  0  0  0
  -20.9740  -29.7900   21.6610 H   0  0  0  0  0  0  0  0  0  0  0  0
  -18.1140  -27.9460   22.7650 C   0  0  0  0  0  0  0  0  0  0  0  0
  -20.6550  -28.2780   23.1020 C   0  0  0  0  0  3  0  0  0  0  0  0
  -20.8130  -26.8480   22.5360 C   0  0  0  0  0  2  0  0  0  0  0  0
  -19.7470  -26.4900   21.4950 C   0  0  0  0  0  2  0  0  0  0  0  0
  -18.3460  -26.5980   22.1040 C   0  0  0  0  0  2  0  0  0  0  0  0
  -19.1990  -28.7420   23.2200 C   0  0  0  0  0  0  0  0  0  0  0  0
  -18.9290  -30.0020   23.7970 C   0  0  0  0  0  3  0  0  0  0  0  0
  -17.6080  -30.4670   23.9230 C   0  0  0  0  0  3  0  0  0  0  0  0
  -16.5360  -29.6690   23.4850 C   0  0  0  0  0  3  0  0  0  0  0  0
  -16.7900  -28.4100   22.9140 C   0  0  0  0  0  3  0  0  0  0  0  0
  -25.9160  -32.4900   23.8260 C   0  0  0  0  0  3  0  0  0  0  0  0
  -25.6020  -33.8830   24.1740 N   0  0  0  0  0  0  0  0  0  0  0  0
  -25.9320  -34.9470   23.4290 C   0  0  0  0  0  0  0  0  0  0  0  0
  -26.6050  -34.8590   22.3980 O   0  0  0  0  0  0  0  0  0  0  0  0
  -25.0020  -34.0230   24.9740 H   0  0  0  0  0  0  0  0  0  0  0  0
  -24.1970  -36.7370   23.0910 C   0  0  0  0  0  1  0  0  0  0  0  0
  -25.4370  -36.3270   23.9020 C   0  0  0  0  0  3  0  0  0  0  0  0
  -27.5660  -37.2050   24.7520 C   0  0  0  0  0  1  0  0  0  0  0  0
  -26.4670  -37.3850   23.8080 N   0  0  0  0  0  0  0  0  0  0  0  0
  -26.0580  -38.3010   23.9680 H   0  0  0  0  0  0  0  0  0  0  0  0
  -26.4420  -31.7010   25.0870 C   0  0  1  0  0  0  0  0  0  0  0  0
  -25.3560  -31.4400   26.1550 C   0  0  0  0  0  1  0  0  0  0  0  0
  -27.0290  -30.3320   24.6680 C   0  0  0  0  0  1  0  0  0  0  0  0
  -27.5940  -32.4880   25.7540 C   0  0  0  0  0  1  0  0  0  0  0  0
  1  2  1  0
  1  5  2  0
  3  8  1  0
  4  6  2  0
  4  1  1  0
  6  7  1  0
  7  5  1  0
  7  3  1  0
  8 10  1  0
  8  9  1  0
 11 14  1  0
 12 11  2  0
 13 16  1  0
 14  3  1  0
 15 12  1  0
 15 13  2  0
 16 14  2  0
 16 17  1  0
 18 26  1  0
 19 24  1  0
 20 21  1  0
 20 19  1  0
 22 21  1  0
 22 31  1  0
 22 23  1  0
 24 18  1  0
 24 23  1  0
 25 18  2  0
 26 15  1  0
 26 27  1  0
 28 29  2  0
 29 48  1  0
 30 29  1  0
 30 33  1  0
 31 32  1  0
 31 28  1  0
 32 30  2  0
 33 34  1  0
 34 35  2  0
 36 39  1  0
 36 35  1  0
 37 36  2  0
 38 37  1  0
 38 33  2  0
 39 40  1  0
 40 41  1  0
 41 42  2  0
 43 42  1  0
 43 47  1  0
 44 43  2  0
 45 40  2  0
 45 44  1  0
 46 45  1  0
 48 49  1  0
 49 52  1  0
 49 51  1  0
 50 48  2  0
 53 54  1  0
 53 28  1  0
 55 53  1  0
 56 58  1  0
 56  2  1  0
 57 68  2  0
 58 63  1  0
 59 67  1  0
 59 69  1  0
 60 66  1  0
 60 62  1  0
 61 67  1  0
 62 61  1  0
 63 62  2  0
 64 65  1  0
 64 58  2  0
 65 60  2  0
 66 59  1  0
 67 57  1  0
 69 71  2  0
 70 69  1  0
 72 70  1  0
 73 82  2  0
 73 78  1  0
 74 70  1  0
 74 78  1  0
 75 74  1  0
 76 77  1  0
 76 75  1  0
 77 73  1  0
 78 79  2  0
 79 80  1  0
 81 80  2  0
 82 81  1  0
 83 57  1  0
 83 84  1  0
 83 93  1  0
 84 87  1  0
 85 89  1  0
 85 84  1  0
 86 85  2  0
 89 88  1  0
 91 89  1  0
 91 92  1  0
 91 90  1  0
 93 96  1  1
 93 94  1  0
 95 93  1  0
M  ISO  4   2 101  18 100  26 100  56 101
M  END
>  <TORSDO>  (10) 
F 17

>  <SCORE>  (10) 
-14.704

>  <name>  (10) 
9

>  <ligand_id>  (10) 
9

>  <original_smiles>  (10) 
[H]C(Oc1c([H])c([H])c2c(c1[H])C([H])([H])N(C(=O)C([H])(N([H])C(=O)C([H])(N([H])C([H])([H])[H])C([H])([H])[H])C(C([H])([H])[H])(C([H])([H])[H])C([H])([H])[H])C([H])(C(=O)N([H])C1([H])c3c([H])c([H])c([H])c([H])c3C([H])([H])C([H])([H])C1([H])[H])C2([H])[H])=C1C([H])([H])N(C(c2c([H])c([H])c(N([H])C(=O)N3C([H])([H])C([H])([H])C([H])([H])C([H])(n4nc(-c5c([H])c([H])c(Oc6c([H])c([H])c(F)c([H])c6F)c([H])c5[H])c(C(=O)N([H])[H])c4N([H])[H])C3([H])[H])c([H])c2F)=[N+]([H])[H])C([H])([H])C1([H])[H]

>  <smiles>  (10) 
[H]C(Oc1c([H])c([H])c2c(c1[H])C([H])([H])N(C(=O)C([H])(N([H])C(=O)C([H])(N([H])C([H])([H])[H])C([H])([H])[H])C(C([H])([H])[H])(C([H])([H])[H])C([H])([H])[H])C([H])(C(=O)N([H])C1([H])c3c([H])c([H])c([H])c([H])c3C([H])([H])C([H])([H])C1([H])[H])C2([H])[H])=C1C([H])([H])N(C(c2c([H])c([H])c(N([H])C(=O)N3C([H])([H])C([H])([H])C([H])([H])C([H])(n4nc(-c5c([H])c([H])c(Oc6c([H])c([H])c(F)c([H])c6F)c([H])c5[H])c(C(=O)N([H])[H])c4N([H])[H])C3([H])[H])c([H])c2F)=[N+]([H])[H])C([H])([H])C1([H])[H]

$$$$
10:0:0
     RDKit          3D

 99107  0  0  1  0  0  0  0  0999 V2000
  -31.9120  -23.2760   21.5290 C   0  0  0  0  0  1  0  0  0  0  0  0
  -30.5860  -22.9210   22.2580 C   0  0  2  0  0  0  0  0  0  0  0  0
  -28.2750  -21.7410   21.7060 C   0  0  0  0  0  1  0  0  0  0  0  0
  -29.6320  -22.2790   21.2030 C   0  0  0  0  0  2  0  0  0  0  0  0
  -29.9330  -24.2090   22.8550 C   0  0  0  0  0  0  0  0  0  0  0  0
  -29.1810  -24.1290   23.8300 O   0  0  0  0  0  0  0  0  0  0  0  0
  -30.2140  -25.6040   22.2600 C   0  0  0  0  0  2  0  0  0  0  0  0
  -28.9640  -26.3920   21.8100 C   0  0  0  0  0  2  0  0  0  0  0  0
  -27.0150  -24.9300   20.9970 C   0  0  0  0  0  1  0  0  0  0  0  0
  -28.2420  -25.7740   20.5950 C   0  0  0  0  0  3  0  0  0  0  0  0
  -27.9780  -26.7670   19.5960 O   0  0  0  0  0  0  0  0  0  0  0  0
  -24.5730  -31.8640   23.2230 C   0  0  0  0  0  0  0  0  0  0  0  0
  -26.8530  -27.5360   19.7540 C   0  0  0  0  0  0  0  0  0  0  0  0
  -23.2100  -30.5850   21.6020 C   0  0  0  0  0  3  0  0  0  0  0  0
  -24.5120  -29.0820   20.0050 C   0  0  0  0  0  0  0  0  0  0  0  0
  -25.7240  -30.8840   21.2460 C   0  0  0  0  0  2  0  0  0  0  0  0
  -25.7210  -29.5460   20.5410 C   0  0  0  0  0  0  0  0  0  0  0  0
  -26.8980  -28.7760   20.4200 C   0  0  0  0  0  3  0  0  0  0  0  0
  -25.6370  -27.0870   19.1990 C   0  0  0  0  0  3  0  0  0  0  0  0
  -24.4610  -27.8470   19.3340 C   0  0  0  0  0  3  0  0  0  0  0  0
  -23.3010  -29.9680   20.1800 C   0  0  0  0  0  2  0  0  0  0  0  0
  -24.5250  -31.1210   22.0810 N   0  0  0  0  0  0  0  0  0  0  0  0
  -23.5430  -32.1400   23.8510 O   0  0  0  0  0  0  0  0  0  0  0  0
  -22.5940  -29.5340   22.5540 C   0  0  0  0  0  0  0  0  0  0  0  0
  -21.2650  -29.3600   22.4700 N   0  0  0  0  0  0  0  0  0  0  0  0
  -23.3060  -28.8830   23.3220 O   0  0  0  0  0  0  0  0  0  0  0  0
  -20.7510  -29.9390   21.8220 H   0  0  0  0  0  0  0  0  0  0  0  0
  -17.9150  -28.1260   23.0100 C   0  0  0  0  0  0  0  0  0  0  0  0
  -20.4740  -28.4010   23.2410 C   0  0  0  0  0  3  0  0  0  0  0  0
  -20.5790  -26.9810   22.6380 C   0  0  0  0  0  2  0  0  0  0  0  0
  -19.4620  -26.6650   21.6390 C   0  0  0  0  0  2  0  0  0  0  0  0
  -18.0910  -26.7890   22.3100 C   0  0  0  0  0  2  0  0  0  0  0  0
  -19.0340  -28.8910   23.4310 C   0  0  0  0  0  0  0  0  0  0  0  0
  -18.8150  -30.1440   24.0440 C   0  0  0  0  0  3  0  0  0  0  0  0
  -17.5090  -30.6310   24.2400 C   0  0  0  0  0  3  0  0  0  0  0  0
  -16.4040  -29.8620   23.8360 C   0  0  0  0  0  3  0  0  0  0  0  0
  -16.6090  -28.6120   23.2250 C   0  0  0  0  0  3  0  0  0  0  0  0
  -25.9210  -32.4210   23.7790 C   0  0  0  0  0  3  0  0  0  0  0  0
  -26.4980  -31.5730   24.9790 C   0  0  1  0  0  0  0  0  0  0  0  0
  -25.4730  -31.3230   26.1090 C   0  0  0  0  0  1  0  0  0  0  0  0
  -27.0000  -30.1970   24.4830 C   0  0  0  0  0  1  0  0  0  0  0  0
  -27.7190  -32.2970   25.5910 C   0  0  0  0  0  1  0  0  0  0  0  0
  -25.6890  -33.8130   24.1880 N   0  0  0  0  0  0  0  0  0  0  0  0
  -26.0230  -34.8850   23.4570 C   0  0  0  0  0  0  0  0  0  0  0  0
  -26.6320  -34.8040   22.3860 O   0  0  0  0  0  0  0  0  0  0  0  0
  -25.1430  -33.9550   25.0250 H   0  0  0  0  0  0  0  0  0  0  0  0
  -24.3530  -36.7570   23.2690 C   0  0  0  0  0  1  0  0  0  0  0  0
  -25.6160  -36.2690   23.9990 C   0  0  0  0  0  3  0  0  0  0  0  0
  -27.8210  -37.0310   24.7600 C   0  0  0  0  0  1  0  0  0  0  0  0
  -26.6840  -37.2840   23.8790 N   0  0  0  0  0  0  0  0  0  0  0  0
  -26.3250  -38.2130   24.0840 H   0  0  0  0  0  0  0  0  0  0  0  0
  -30.8760  -21.9310   23.4410 C   0  0  0  0  0  2  0  0  0  0  0  0
  -31.4910  -20.5800   23.0460 C   0  0  0  0  0  0  0  0  0  0  0  0
  -30.6370  -19.5570   22.8820 N   0  0  0  0  0  0  0  0  0  0  0  0
  -32.7150  -20.4800   22.9370 O   0  0  0  0  0  0  0  0  0  0  0  0
  -29.6710  -19.7660   23.0950 H   0  0  0  0  0  0  0  0  0  0  0  0
  -31.9400  -17.8980   21.5720 C   0  0  0  0  0  3  0  0  0  0  0  0
  -31.7450  -16.6070   21.0070 C   0  0  0  0  0  3  0  0  0  0  0  0
  -30.8530  -18.3630   22.2750 C   0  0  0  0  0  0  0  0  0  0  0  0
  -30.5090  -16.0680   21.2710 C   0  0  0  0  0  0  0  0  0  0  0  0
  -29.5940  -17.1520   22.2870 S   0  0  0  0  0  0  0  0  0  0  0  0
  -30.3550  -14.1130   19.8450 C   0  0  0  0  0  0  0  0  0  0  0  0
  -29.9750  -11.9800   18.6610 C   0  0  0  0  0  2  0  0  0  0  0  0
  -28.8980  -12.1140   17.5690 C   0  0  0  0  0  2  0  0  0  0  0  0
  -27.4920  -11.9000   18.1580 C   0  0  0  0  0  2  0  0  0  0  0  0
  -27.2460  -12.7560   19.4280 C   0  0  0  0  0  3  0  0  0  0  0  0
  -28.4160  -12.6010   20.4250 C   0  0  0  0  0  2  0  0  0  0  0  0
  -29.6720  -12.9450   19.7290 N   0  0  0  0  0  0  0  0  0  0  0  0
  -31.2670  -14.4370   19.0770 O   0  0  0  0  0  0  0  0  0  0  0  0
  -29.9800  -14.8800   20.8830 N   0  0  0  0  0  0  0  0  0  0  0  0
  -29.1670  -14.5570   21.3860 H   0  0  0  0  0  0  0  0  0  0  0  0
  -24.9320  -13.2730   20.4340 C   0  0  0  0  0  0  0  0  0  0  0  0
  -23.9350  -12.4570   20.9000 C   0  0  0  0  0  0  0  0  0  0  0  0
  -24.4240  -11.1210   20.7640 C   0  0  0  0  0  0  0  0  0  0  0  0
  -25.9640  -12.4300   20.0510 N   0  0  0  0  0  0  0  0  0  0  0  0
  -25.6670  -11.1300   20.3030 N   0  0  0  0  0  0  0  0  0  0  0  0
  -23.7580   -9.8320   20.9940 C   0  0  0  0  0  0  0  0  0  0  0  0
  -24.2460   -8.9090   21.9460 C   0  0  0  0  0  3  0  0  0  0  0  0
  -23.5790   -7.6850   22.1610 C   0  0  0  0  0  3  0  0  0  0  0  0
  -22.4110   -7.3730   21.4250 C   0  0  0  0  0  0  0  0  0  0  0  0
  -21.9440   -8.2850   20.4620 C   0  0  0  0  0  3  0  0  0  0  0  0
  -22.6110   -9.5020   20.2450 C   0  0  0  0  0  3  0  0  0  0  0  0
  -21.7130   -6.1970   21.5470 O   0  0  0  0  0  0  0  0  0  0  0  0
  -21.6240   -5.5340   22.7450 C   0  0  0  0  0  0  0  0  0  0  0  0
  -21.0600   -6.1370   23.8920 C   0  0  0  0  0  3  0  0  0  0  0  0
  -20.9260   -5.3970   25.0830 C   0  0  0  0  0  3  0  0  0  0  0  0
  -21.3430   -4.0540   25.1280 C   0  0  0  0  0  0  0  0  0  0  0  0
  -21.9000   -3.4490   23.9860 C   0  0  0  0  0  3  0  0  0  0  0  0
  -22.0360   -4.1880   22.7980 C   0  0  0  0  0  0  0  0  0  0  0  0
  -22.5530   -3.5940   21.6950 F   0  0  0  0  0  0  0  0  0  0  0  0
  -21.2070   -3.3390   26.2700 F   0  0  0  0  0  0  0  0  0  0  0  0
  -22.5700  -12.8840   21.3560 C   0  0  0  0  0  0  0  0  0  0  0  0
  -21.9680  -12.1340   22.2730 N   0  0  0  0  0  0  0  0  0  0  0  0
  -22.0470  -13.9150   20.9350 O   0  0  0  0  0  0  0  0  0  0  0  0
  -22.4060  -11.2990   22.6340 H   0  0  0  0  0  0  0  0  0  0  0  0
  -21.0580  -12.3990   22.6200 H   0  0  0  0  0  0  0  0  0  0  0  0
  -25.0410  -14.6520   20.2890 N   0  0  0  0  0  0  0  0  0  0  0  0
  -24.2810  -15.2850   20.5150 H   0  0  0  0  0  0  0  0  0  0  0  0
  -25.8440  -15.1230   19.8900 H   0  0  0  0  0  0  0  0  0  0  0  0
  2  1  1  6
  2  5  1  0
  2 52  1  0
  4  3  1  0
  4  2  1  0
  5  6  2  0
  7  5  1  0
  8  7  1  0
 10  9  1  0
 10  8  1  0
 11 13  1  0
 11 10  1  0
 12 23  2  0
 13 18  1  0
 14 22  1  0
 14 24  1  0
 15 21  1  0
 15 17  1  0
 16 22  1  0
 17 16  1  0
 18 17  2  0
 19 20  1  0
 19 13  2  0
 20 15  2  0
 21 14  1  0
 22 12  1  0
 24 26  2  0
 25 24  1  0
 27 25  1  0
 28 37  2  0
 28 33  1  0
 29 25  1  0
 29 33  1  0
 30 29  1  0
 31 32  1  0
 31 30  1  0
 32 28  1  0
 33 34  2  0
 34 35  1  0
 36 35  2  0
 37 36  1  0
 38 12  1  0
 38 43  1  0
 38 39  1  0
 39 42  1  1
 39 40  1  0
 41 39  1  0
 43 46  1  0
 44 48  1  0
 44 43  1  0
 45 44  2  0
 48 47  1  0
 50 48  1  0
 50 51  1  0
 50 49  1  0
 53 52  1  0
 54 53  1  0
 54 56  1  0
 55 53  2  0
 57 59  2  0
 58 60  2  0
 58 57  1  0
 59 61  1  0
 59 54  1  0
 60 61  1  0
 62 70  1  0
 63 68  1  0
 64 65  1  0
 64 63  1  0
 66 65  1  0
 66 75  1  0
 66 67  1  0
 68 62  1  0
 68 67  1  0
 69 62  2  0
 70 60  1  0
 70 71  1  0
 72 73  2  0
 73 92  1  0
 74 73  1  0
 74 77  1  0
 75 76  1  0
 75 72  1  0
 76 74  2  0
 77 78  1  0
 78 79  2  0
 80 83  1  0
 80 79  1  0
 81 80  2  0
 82 81  1  0
 82 77  2  0
 83 84  1  0
 84 89  2  0
 84 85  1  0
 85 86  2  0
 86 87  1  0
 87 91  1  0
 88 87  2  0
 89 88  1  0
 90 89  1  0
 92 93  1  0
 93 96  1  0
 93 95  1  0
 94 92  2  0
 97 72  1  0
 97 98  1  0
 99 97  1  0
M  ISO  4  10 101  11 101  62 100  70 100
M  END
>  <TORSDO>  (11) 
F 24

>  <SCORE>  (11) 
-9.109

>  <name>  (11) 
10

>  <ligand_id>  (11) 
10

>  <original_smiles>  (11) 
[H]c1c(N([H])C(=O)N2C([H])([H])C([H])([H])C([H])([H])C([H])(n3nc(-c4c([H])c([H])c(Oc5c([H])c([H])c(F)c([H])c5F)c([H])c4[H])c(C(=O)N([H])[H])c3N([H])[H])C2([H])[H])sc(N([H])C(=O)C([H])([H])C(C(=O)C([H])([H])C([H])([H])C([H])(Oc2c([H])c([H])c3c(c2[H])C([H])([H])N(C(=O)C([H])(N([H])C(=O)C([H])(N([H])C([H])([H])[H])C([H])([H])[H])C(C([H])([H])[H])(C([H])([H])[H])C([H])([H])[H])C([H])(C(=O)N([H])C2([H])c4c([H])c([H])c([H])c([H])c4C([H])([H])C([H])([H])C2([H])[H])C3([H])[H])C([H])([H])[H])(C([H])([H])[H])C([H])([H])C([H])([H])[H])c1[H]

>  <smiles>  (11) 
[H]c1c(N([H])C(=O)N2C([H])([H])C([H])([H])C([H])([H])C([H])(n3nc(-c4c([H])c([H])c(Oc5c([H])c([H])c(F)c([H])c5F)c([H])c4[H])c(C(=O)N([H])[H])c3N([H])[H])C2([H])[H])sc(N([H])C(=O)C([H])([H])C(C(=O)C([H])([H])C([H])([H])C([H])(Oc2c([H])c([H])c3c(c2[H])C([H])([H])N(C(=O)C([H])(N([H])C(=O)C([H])(N([H])C([H])([H])[H])C([H])([H])[H])C(C([H])([H])[H])(C([H])([H])[H])C([H])([H])[H])C([H])(C(=O)N([H])C2([H])c4c([H])c([H])c([H])c([H])c4C([H])([H])C([H])([H])C2([H])[H])C3([H])[H])C([H])([H])[H])(C([H])([H])[H])C([H])([H])C([H])([H])[H])c1[H]

$$$$
11:0:0
     RDKit          3D

 95103  0  0  1  0  0  0  0  0999 V2000
  -32.3990  -21.2500   19.7330 C   0  0  0  0  0  1  0  0  0  0  0  0
  -31.0670  -21.5640   20.4340 C   0  0  0  0  0  3  0  0  0  0  0  0
  -30.5850  -20.3980   21.1840 N   0  0  0  0  0  0  0  0  0  0  0  0
  -31.0060  -20.2560   22.0990 H   0  0  0  0  0  0  0  0  0  0  0  0
  -30.2180  -17.9790   21.1520 C   0  0  0  0  0  3  0  0  0  0  0  0
  -29.1800  -16.9050   19.2210 C   0  0  0  0  0  3  0  0  0  0  0  0
  -29.5240  -19.3160   19.2350 C   0  0  0  0  0  3  0  0  0  0  0  0
  -29.7780  -16.8020   20.4970 C   0  0  0  0  0  0  0  0  0  0  0  0
  -30.1120  -19.2460   20.5210 C   0  0  0  0  0  0  0  0  0  0  0  0
  -29.0610  -18.1540   18.5910 C   0  0  0  0  0  0  0  0  0  0  0  0
  -28.4990  -18.2400   17.3600 F   0  0  0  0  0  0  0  0  0  0  0  0
  -30.6160  -14.5300   20.5520 C   0  0  0  0  0  0  0  0  0  0  0  0
  -30.3480  -12.4010   19.3510 C   0  0  0  0  0  2  0  0  0  0  0  0
  -29.4130  -12.6530   18.1500 C   0  0  0  0  0  2  0  0  0  0  0  0
  -27.9340  -12.4930   18.5600 C   0  0  0  0  0  2  0  0  0  0  0  0
  -27.5860  -13.2730   19.8560 C   0  0  0  0  0  3  0  0  0  0  0  0
  -28.6390  -13.0150   20.9590 C   0  0  0  0  0  2  0  0  0  0  0  0
  -29.9670  -13.3420   20.4140 N   0  0  0  0  0  0  0  0  0  0  0  0
  -31.7340  -14.7530   20.0730 O   0  0  0  0  0  0  0  0  0  0  0  0
  -29.8970  -15.5190   21.1100 N   0  0  0  0  0  0  0  0  0  0  0  0
  -29.0810  -15.2010   21.6100 H   0  0  0  0  0  0  0  0  0  0  0  0
  -25.1690  -13.8370   20.5350 C   0  0  0  0  0  0  0  0  0  0  0  0
  -24.1120  -13.0440   20.8960 C   0  0  0  0  0  0  0  0  0  0  0  0
  -24.5970  -11.7010   20.8660 C   0  0  0  0  0  0  0  0  0  0  0  0
  -26.2330  -12.9750   20.3170 N   0  0  0  0  0  0  0  0  0  0  0  0
  -25.8900  -11.6850   20.5690 N   0  0  0  0  0  0  0  0  0  0  0  0
  -23.8940  -10.4250   21.0510 C   0  0  0  0  0  0  0  0  0  0  0  0
  -24.3400   -9.4650   21.9840 C   0  0  0  0  0  3  0  0  0  0  0  0
  -23.6390   -8.2520   22.1570 C   0  0  0  0  0  3  0  0  0  0  0  0
  -22.4760   -7.9930   21.3960 C   0  0  0  0  0  0  0  0  0  0  0  0
  -22.0470   -8.9440   20.4520 C   0  0  0  0  0  3  0  0  0  0  0  0
  -22.7500  -10.1470   20.2770 C   0  0  0  0  0  3  0  0  0  0  0  0
  -21.7420   -6.8340   21.4780 O   0  0  0  0  0  0  0  0  0  0  0  0
  -21.7080   -6.0850   22.6260 C   0  0  0  0  0  0  0  0  0  0  0  0
  -21.2700   -6.6250   23.8550 C   0  0  0  0  0  3  0  0  0  0  0  0
  -21.1820   -5.8000   24.9940 C   0  0  0  0  0  3  0  0  0  0  0  0
  -21.5210   -4.4370   24.9060 C   0  0  0  0  0  0  0  0  0  0  0  0
  -21.9480   -3.8960   23.6810 C   0  0  0  0  0  3  0  0  0  0  0  0
  -22.0390   -4.7170   22.5430 C   0  0  0  0  0  0  0  0  0  0  0  0
  -22.4330   -4.1850   21.3620 F   0  0  0  0  0  0  0  0  0  0  0  0
  -21.4300   -3.6440   25.9980 F   0  0  0  0  0  0  0  0  0  0  0  0
  -22.7040  -13.4950   21.1610 C   0  0  0  0  0  0  0  0  0  0  0  0
  -21.9830  -12.7830   22.0200 N   0  0  0  0  0  0  0  0  0  0  0  0
  -22.2500  -14.5140   20.6410 O   0  0  0  0  0  0  0  0  0  0  0  0
  -22.3640  -11.9620   22.4670 H   0  0  0  0  0  0  0  0  0  0  0  0
  -21.0390  -13.0650   22.2390 H   0  0  0  0  0  0  0  0  0  0  0  0
  -25.3140  -15.2110   20.3620 N   0  0  0  0  0  0  0  0  0  0  0  0
  -24.5400  -15.8570   20.4710 H   0  0  0  0  0  0  0  0  0  0  0  0
  -26.1660  -15.6640   20.0600 H   0  0  0  0  0  0  0  0  0  0  0  0
  -31.2070  -22.7860   21.3660 C   0  0  0  0  0  2  0  0  0  0  0  0
  -29.9110  -23.6220   21.4980 C   0  0  0  0  0  2  0  0  0  0  0  0
  -29.7420  -24.7450   20.4590 C   0  0  0  0  0  0  0  0  0  0  0  0
  -30.6910  -25.1520   19.7800 O   0  0  0  0  0  0  0  0  0  0  0  0
  -28.3430  -25.3550   20.3030 C   0  0  0  0  0  2  0  0  0  0  0  0
  -28.4340  -26.7790   20.1960 O   0  0  0  0  0  0  0  0  0  0  0  0
  -24.5730  -31.9080   23.2380 C   0  0  0  0  0  0  0  0  0  0  0  0
  -27.2410  -27.4690   20.1880 C   0  0  0  0  0  0  0  0  0  0  0  0
  -23.3710  -30.4950   21.6010 C   0  0  0  0  0  3  0  0  0  0  0  0
  -24.8320  -28.9530   20.1910 C   0  0  0  0  0  0  0  0  0  0  0  0
  -25.8950  -30.8650   21.4030 C   0  0  0  0  0  2  0  0  0  0  0  0
  -25.9870  -29.4920   20.7700 C   0  0  0  0  0  0  0  0  0  0  0  0
  -27.1940  -28.7590   20.7610 C   0  0  0  0  0  3  0  0  0  0  0  0
  -26.0640  -26.9360   19.6100 C   0  0  0  0  0  3  0  0  0  0  0  0
  -24.8650  -27.6730   19.6090 C   0  0  0  0  0  3  0  0  0  0  0  0
  -23.5850  -29.8060   20.2270 C   0  0  0  0  0  2  0  0  0  0  0  0
  -24.6310  -31.1040   22.1380 N   0  0  0  0  0  0  0  0  0  0  0  0
  -23.4900  -32.1790   23.7770 O   0  0  0  0  0  0  0  0  0  0  0  0
  -22.7240  -29.4760   22.5660 C   0  0  0  0  0  0  0  0  0  0  0  0
  -21.4020  -29.2810   22.4330 N   0  0  0  0  0  0  0  0  0  0  0  0
  -23.4090  -28.8610   23.3890 O   0  0  0  0  0  0  0  0  0  0  0  0
  -20.9120  -29.8310   21.7410 H   0  0  0  0  0  0  0  0  0  0  0  0
  -18.0350  -28.0650   22.9130 C   0  0  0  0  0  0  0  0  0  0  0  0
  -20.5870  -28.3450   23.2060 C   0  0  0  0  0  3  0  0  0  0  0  0
  -20.7060  -26.9090   22.6440 C   0  0  0  0  0  2  0  0  0  0  0  0
  -19.6160  -26.5680   21.6230 C   0  0  0  0  0  2  0  0  0  0  0  0
  -18.2290  -26.7090   22.2540 C   0  0  0  0  0  2  0  0  0  0  0  0
  -19.1440  -28.8390   23.3460 C   0  0  0  0  0  0  0  0  0  0  0  0
  -18.9110  -30.1080   23.9200 C   0  0  0  0  0  3  0  0  0  0  0  0
  -17.6010  -30.6020   24.0680 C   0  0  0  0  0  3  0  0  0  0  0  0
  -16.5070  -29.8250   23.6530 C   0  0  0  0  0  3  0  0  0  0  0  0
  -16.7230  -28.5580   23.0810 C   0  0  0  0  0  3  0  0  0  0  0  0
  -25.8570  -32.5460   23.8550 C   0  0  0  0  0  3  0  0  0  0  0  0
  -25.5420  -33.9420   24.1820 N   0  0  0  0  0  0  0  0  0  0  0  0
  -25.8770  -34.9940   23.4240 C   0  0  0  0  0  0  0  0  0  0  0  0
  -26.5540  -34.8910   22.3970 O   0  0  0  0  0  0  0  0  0  0  0  0
  -24.9410  -34.0960   24.9790 H   0  0  0  0  0  0  0  0  0  0  0  0
  -24.1510  -36.7830   23.0460 C   0  0  0  0  0  1  0  0  0  0  0  0
  -25.3810  -36.3810   23.8740 C   0  0  0  0  0  3  0  0  0  0  0  0
  -27.5050  -37.2650   24.7320 C   0  0  0  0  0  1  0  0  0  0  0  0
  -26.4130  -37.4360   23.7780 N   0  0  0  0  0  0  0  0  0  0  0  0
  -26.0040  -38.3550   23.9250 H   0  0  0  0  0  0  0  0  0  0  0  0
  -26.3820  -31.7770   25.1310 C   0  0  1  0  0  0  0  0  0  0  0  0
  -25.2940  -31.5350   26.2030 C   0  0  0  0  0  1  0  0  0  0  0  0
  -26.9710  -30.4040   24.7360 C   0  0  0  0  0  1  0  0  0  0  0  0
  -27.5300  -32.5780   25.7890 C   0  0  0  0  0  1  0  0  0  0  0  0
  2  1  1  0
  2  3  1  0
  2 50  1  0
  3  4  1  0
  6  8  1  0
  7  9  2  0
  8 20  1  0
  8  5  2  0
  9  5  1  0
  9  3  1  0
 10  6  2  0
 10  7  1  0
 11 10  1  0
 12 20  1  0
 13 18  1  0
 14 15  1  0
 14 13  1  0
 16 15  1  0
 16 25  1  0
 16 17  1  0
 18 12  1  0
 18 17  1  0
 19 12  2  0
 20 21  1  0
 22 23  2  0
 23 42  1  0
 24 23  1  0
 24 27  1  0
 25 22  1  0
 25 26  1  0
 26 24  2  0
 27 28  1  0
 28 29  2  0
 30 33  1  0
 30 29  1  0
 31 30  2  0
 32 31  1  0
 32 27  2  0
 33 34  1  0
 34 35  1  0
 35 36  2  0
 37 36  1  0
 37 41  1  0
 38 37  2  0
 39 34  2  0
 39 38  1  0
 40 39  1  0
 42 43  1  0
 43 46  1  0
 43 45  1  0
 44 42  2  0
 47 48  1  0
 47 22  1  0
 49 47  1  0
 50 51  1  0
 52 51  1  0
 53 52  2  0
 54 52  1  0
 55 54  1  0
 56 67  2  0
 57 55  1  0
 57 62  1  0
 58 66  1  0
 58 68  1  0
 59 65  1  0
 59 61  1  0
 60 66  1  0
 61 60  1  0
 62 61  2  0
 63 57  2  0
 64 63  1  0
 64 59  2  0
 65 58  1  0
 66 56  1  0
 68 70  2  0
 69 68  1  0
 71 69  1  0
 72 81  2  0
 72 77  1  0
 73 69  1  0
 73 77  1  0
 74 73  1  0
 75 76  1  0
 75 74  1  0
 76 72  1  0
 77 78  2  0
 78 79  1  0
 80 79  2  0
 81 80  1  0
 82 56  1  0
 82 83  1  0
 82 92  1  0
 83 86  1  0
 84 88  1  0
 84 83  1  0
 85 84  2  0
 88 87  1  0
 90 88  1  0
 90 91  1  0
 90 89  1  0
 92 95  1  1
 92 93  1  0
 94 92  1  0
M  ISO  4  12 100  20 100  54 101  55 101
M  END
>  <TORSDO>  (12) 
F 22

>  <SCORE>  (12) 
-13.519

>  <name>  (12) 
11

>  <ligand_id>  (12) 
11

>  <original_smiles>  (12) 
[H]c1c([H])c([H])c2c(c1[H])C([H])([H])C([H])([H])C([H])([H])C2([H])N([H])C(=O)C1([H])N(C(=O)C([H])(N([H])C(=O)C([H])(N([H])C([H])([H])[H])C([H])([H])[H])C(C([H])([H])[H])(C([H])([H])[H])C([H])([H])[H])C([H])([H])c2c([H])c(OC([H])([H])C(=O)C([H])([H])C([H])([H])C([H])(N([H])c3c([H])c(F)c([H])c(N([H])C(=O)N4C([H])([H])C([H])([H])C([H])([H])C([H])(n5nc(-c6c([H])c([H])c(Oc7c([H])c([H])c(F)c([H])c7F)c([H])c6[H])c(C(=O)N([H])[H])c5N([H])[H])C4([H])[H])c3[H])C([H])([H])[H])c([H])c([H])c2C1([H])[H]

>  <smiles>  (12) 
[H]c1c([H])c([H])c2c(c1[H])C([H])([H])C([H])([H])C([H])([H])C2([H])N([H])C(=O)C1([H])N(C(=O)C([H])(N([H])C(=O)C([H])(N([H])C([H])([H])[H])C([H])([H])[H])C(C([H])([H])[H])(C([H])([H])[H])C([H])([H])[H])C([H])([H])c2c([H])c(OC([H])([H])C(=O)C([H])([H])C([H])([H])C([H])(N([H])c3c([H])c(F)c([H])c(N([H])C(=O)N4C([H])([H])C([H])([H])C([H])([H])C([H])(n5nc(-c6c([H])c([H])c(Oc7c([H])c([H])c(F)c([H])c7F)c([H])c6[H])c(C(=O)N([H])[H])c5N([H])[H])C4([H])[H])c3[H])C([H])([H])[H])c([H])c([H])c2C1([H])[H]

$$$$
12:0:0
     RDKit          3D

103111  0  0  1  0  0  0  0  0999 V2000
  -33.0320  -23.5850   20.5090 C   0  0  0  0  0  1  0  0  0  0  0  0
  -33.9900  -22.9310   18.3250 C   0  0  0  0  0  1  0  0  0  0  0  0
  -32.7470  -22.7270   19.2310 C   0  0  2  0  0  0  0  0  0  0  0  0
  -31.5660  -23.3390   18.4040 C   0  0  0  0  0  0  0  0  0  0  0  0
  -31.0590  -24.4970   18.8250 N   0  0  0  0  0  0  0  0  0  0  0  0
  -31.1720  -22.8150   17.3590 O   0  0  0  0  0  0  0  0  0  0  0  0
  -31.4310  -24.8570   19.6940 H   0  0  0  0  0  0  0  0  0  0  0  0
  -30.2910  -25.4440   18.0160 C   0  0  0  0  0  2  0  0  0  0  0  0
  -31.0500  -27.8040   17.4680 C   0  0  0  0  0  1  0  0  0  0  0  0
  -31.3140  -27.0130   19.8140 C   0  0  0  0  0  1  0  0  0  0  0  0
  -30.4180  -26.9060   18.5600 C   0  0  2  0  0  0  0  0  0  0  0  0
  -29.0250  -27.4970   18.8710 C   0  0  0  0  0  2  0  0  0  0  0  0
  -28.3220  -26.8630   19.9520 O   0  0  0  0  0  0  0  0  0  0  0  0
  -24.5320  -31.9580   23.2210 C   0  0  0  0  0  0  0  0  0  0  0  0
  -27.1290  -27.5080   20.1490 C   0  0  0  0  0  0  0  0  0  0  0  0
  -23.3000  -30.5460   21.6020 C   0  0  0  0  0  3  0  0  0  0  0  0
  -24.7270  -28.9750   20.1980 C   0  0  0  0  0  0  0  0  0  0  0  0
  -25.8170  -30.8930   21.3740 C   0  0  0  0  0  2  0  0  0  0  0  0
  -25.8880  -29.5080   20.7750 C   0  0  0  0  0  0  0  0  0  0  0  0
  -27.0880  -28.7720   20.7710 C   0  0  0  0  0  3  0  0  0  0  0  0
  -25.9520  -26.9560   19.6090 C   0  0  0  0  0  3  0  0  0  0  0  0
  -24.7500  -27.6910   19.6210 C   0  0  0  0  0  3  0  0  0  0  0  0
  -23.4900  -29.8440   20.2310 C   0  0  0  0  0  2  0  0  0  0  0  0
  -24.5680  -31.1470   22.1250 N   0  0  0  0  0  0  0  0  0  0  0  0
  -23.4600  -32.2420   23.7710 O   0  0  0  0  0  0  0  0  0  0  0  0
  -22.6500  -29.5410   22.5800 C   0  0  0  0  0  0  0  0  0  0  0  0
  -21.3240  -29.3630   22.4610 N   0  0  0  0  0  0  0  0  0  0  0  0
  -23.3360  -28.9190   23.3950 O   0  0  0  0  0  0  0  0  0  0  0  0
  -20.8250  -29.9200   21.7810 H   0  0  0  0  0  0  0  0  0  0  0  0
  -17.9480  -28.1990   22.9960 C   0  0  0  0  0  0  0  0  0  0  0  0
  -20.5070  -28.4380   23.2480 C   0  0  0  0  0  3  0  0  0  0  0  0
  -20.5950  -27.0000   22.6880 C   0  0  0  0  0  2  0  0  0  0  0  0
  -19.4880  -26.6770   21.6840 C   0  0  0  0  0  2  0  0  0  0  0  0
  -18.1100  -26.8410   22.3320 C   0  0  0  0  0  2  0  0  0  0  0  0
  -19.0740  -28.9580   23.4110 C   0  0  0  0  0  0  0  0  0  0  0  0
  -18.8680  -30.2300   23.9860 C   0  0  0  0  0  3  0  0  0  0  0  0
  -17.5680  -30.7460   24.1440 C   0  0  0  0  0  3  0  0  0  0  0  0
  -16.4550  -29.9870   23.7450 C   0  0  0  0  0  3  0  0  0  0  0  0
  -16.6460  -28.7150   23.1770 C   0  0  0  0  0  3  0  0  0  0  0  0
  -25.8310  -32.5850   23.8200 C   0  0  0  0  0  3  0  0  0  0  0  0
  -26.3700  -31.8060   25.0830 C   0  0  1  0  0  0  0  0  0  0  0  0
  -25.2930  -31.5520   26.1630 C   0  0  0  0  0  1  0  0  0  0  0  0
  -26.9520  -30.4340   24.6690 C   0  0  0  0  0  1  0  0  0  0  0  0
  -27.5240  -32.5990   25.7390 C   0  0  0  0  0  1  0  0  0  0  0  0
  -25.5350  -33.9850   24.1500 N   0  0  0  0  0  0  0  0  0  0  0  0
  -25.8760  -35.0330   23.3920 C   0  0  0  0  0  0  0  0  0  0  0  0
  -26.5430  -34.9270   22.3590 O   0  0  0  0  0  0  0  0  0  0  0  0
  -24.9430  -34.1420   24.9540 H   0  0  0  0  0  0  0  0  0  0  0  0
  -24.1680  -36.8420   23.0290 C   0  0  0  0  0  1  0  0  0  0  0  0
  -25.4000  -36.4240   23.8490 C   0  0  0  0  0  3  0  0  0  0  0  0
  -27.5390  -37.2840   24.6940 C   0  0  0  0  0  1  0  0  0  0  0  0
  -26.4430  -37.4670   23.7450 N   0  0  0  0  0  0  0  0  0  0  0  0
  -26.0460  -38.3910   23.8960 H   0  0  0  0  0  0  0  0  0  0  0  0
  -33.7560  -20.6010   20.3420 C   0  0  0  0  0  1  0  0  0  0  0  0
  -32.3400  -20.2890   18.3570 C   0  0  0  0  0  1  0  0  0  0  0  0
  -32.5170  -21.1900   19.6140 C   0  0  2  0  0  0  0  0  0  0  0  0
  -31.2720  -21.0320   20.5620 C   0  0  0  0  0  2  0  0  0  0  0  0
  -31.3430  -18.8180   21.8340 C   0  0  0  0  0  3  0  0  0  0  0  0
  -31.0110  -17.4540   21.9370 C   0  0  0  0  0  3  0  0  0  0  0  0
  -29.8720  -19.0150   19.9130 C   0  0  0  0  0  3  0  0  0  0  0  0
  -30.8140  -19.5930   20.7850 C   0  0  0  0  0  0  0  0  0  0  0  0
  -29.5440  -17.6450   19.9870 C   0  0  0  0  0  0  0  0  0  0  0  0
  -30.1650  -16.8500   20.9870 C   0  0  0  0  0  0  0  0  0  0  0  0
  -30.7040  -14.4980   20.5580 C   0  0  0  0  0  0  0  0  0  0  0  0
  -30.4080  -12.4190   19.2800 C   0  0  0  0  0  2  0  0  0  0  0  0
  -29.4810  -12.7610   18.0960 C   0  0  0  0  0  2  0  0  0  0  0  0
  -27.9910  -12.6670   18.4970 C   0  0  0  0  0  2  0  0  0  0  0  0
  -27.6760  -13.3800   19.8410 C   0  0  0  0  0  3  0  0  0  0  0  0
  -28.7180  -13.0020   20.9170 C   0  0  0  0  0  2  0  0  0  0  0  0
  -30.0490  -13.3220   20.3810 N   0  0  0  0  0  0  0  0  0  0  0  0
  -31.8380  -14.7210   20.1250 O   0  0  0  0  0  0  0  0  0  0  0  0
  -29.9270  -15.4570   21.0960 N   0  0  0  0  0  0  0  0  0  0  0  0
  -29.0040  -15.1700   21.3740 H   0  0  0  0  0  0  0  0  0  0  0  0
  -25.2720  -14.0100   20.4980 C   0  0  0  0  0  0  0  0  0  0  0  0
  -24.1960  -13.2430   20.8560 C   0  0  0  0  0  0  0  0  0  0  0  0
  -24.6510  -11.8900   20.8410 C   0  0  0  0  0  0  0  0  0  0  0  0
  -26.3140  -13.1220   20.2920 N   0  0  0  0  0  0  0  0  0  0  0  0
  -25.9440  -11.8450   20.5530 N   0  0  0  0  0  0  0  0  0  0  0  0
  -23.9170  -10.6320   21.0270 C   0  0  0  0  0  0  0  0  0  0  0  0
  -24.3310   -9.6730   21.9770 C   0  0  0  0  0  3  0  0  0  0  0  0
  -23.5960   -8.4820   22.1560 C   0  0  0  0  0  3  0  0  0  0  0  0
  -22.4350   -8.2400   21.3820 C   0  0  0  0  0  0  0  0  0  0  0  0
  -22.0430   -9.1890   20.4210 C   0  0  0  0  0  3  0  0  0  0  0  0
  -22.7770  -10.3720   20.2400 C   0  0  0  0  0  3  0  0  0  0  0  0
  -21.6800   -7.0960   21.4630 O   0  0  0  0  0  0  0  0  0  0  0  0
  -21.6130   -6.3610   22.6160 C   0  0  0  0  0  0  0  0  0  0  0  0
  -21.1650   -6.9210   23.8330 C   0  0  0  0  0  3  0  0  0  0  0  0
  -21.0450   -6.1100   24.9800 C   0  0  0  0  0  3  0  0  0  0  0  0
  -21.3590   -4.7400   24.9080 C   0  0  0  0  0  0  0  0  0  0  0  0
  -21.7980   -4.1780   23.6970 C   0  0  0  0  0  3  0  0  0  0  0  0
  -21.9200   -4.9870   22.5540 C   0  0  0  0  0  0  0  0  0  0  0  0
  -22.3190   -4.4400   21.3800 F   0  0  0  0  0  0  0  0  0  0  0  0
  -21.2380   -3.9540   26.0060 F   0  0  0  0  0  0  0  0  0  0  0  0
  -22.7980  -13.7260   21.1080 C   0  0  0  0  0  0  0  0  0  0  0  0
  -22.0540  -13.0350   21.9670 N   0  0  0  0  0  0  0  0  0  0  0  0
  -22.3680  -14.7480   20.5760 O   0  0  0  0  0  0  0  0  0  0  0  0
  -22.4140  -12.2080   22.4220 H   0  0  0  0  0  0  0  0  0  0  0  0
  -21.1100  -13.3280   22.1710 H   0  0  0  0  0  0  0  0  0  0  0  0
  -25.4400  -15.3810   20.3150 N   0  0  0  0  0  0  0  0  0  0  0  0
  -24.6560  -16.0190   20.3850 H   0  0  0  0  0  0  0  0  0  0  0  0
  -26.2830  -15.8350   19.9860 H   0  0  0  0  0  0  0  0  0  0  0  0
  -28.5560  -17.7490   17.5920 C   0  0  0  0  0  1  0  0  0  0  0  0
  -28.5410  -17.0760   18.9790 C   0  0  0  0  0  2  0  0  0  0  0  0
  3  2  1  6
  3 56  1  0
  3  1  1  0
  4  5  1  0
  4  3  1  0
  5  7  1  0
  6  4  2  0
  8 11  1  0
  8  5  1  0
 11  9  1  6
 11 12  1  0
 11 10  1  0
 12 13  1  0
 13 15  1  0
 14 25  2  0
 15 20  1  0
 16 24  1  0
 16 26  1  0
 17 23  1  0
 17 19  1  0
 18 24  1  0
 19 18  1  0
 20 19  2  0
 21 22  1  0
 21 15  2  0
 22 17  2  0
 23 16  1  0
 24 14  1  0
 26 28  2  0
 27 26  1  0
 29 27  1  0
 30 39  2  0
 30 35  1  0
 31 27  1  0
 31 35  1  0
 32 31  1  0
 33 34  1  0
 33 32  1  0
 34 30  1  0
 35 36  2  0
 36 37  1  0
 38 37  2  0
 39 38  1  0
 40 14  1  0
 40 45  1  0
 40 41  1  0
 41 44  1  1
 41 42  1  0
 43 41  1  0
 45 48  1  0
 46 50  1  0
 46 45  1  0
 47 46  2  0
 50 49  1  0
 52 50  1  0
 52 53  1  0
 52 51  1  0
 56 55  1  6
 56 54  1  0
 56 57  1  0
 57 61  1  0
 58 59  1  0
 60 62  2  0
 60 61  1  0
 61 58  2  0
 62 63  1  0
 63 72  1  0
 63 59  2  0
 64 72  1  0
 65 70  1  0
 66 67  1  0
 66 65  1  0
 68 67  1  0
 68 77  1  0
 68 69  1  0
 70 64  1  0
 70 69  1  0
 71 64  2  0
 72 73  1  0
 74 75  2  0
 75 94  1  0
 76 75  1  0
 76 79  1  0
 77 74  1  0
 77 78  1  0
 78 76  2  0
 79 80  1  0
 80 81  2  0
 82 85  1  0
 82 81  1  0
 83 82  2  0
 84 83  1  0
 84 79  2  0
 85 86  1  0
 86 87  1  0
 87 88  2  0
 89 88  1  0
 89 93  1  0
 90 89  2  0
 91 86  2  0
 91 90  1  0
 92 91  1  0
 94 95  1  0
 95 98  1  0
 95 97  1  0
 96 94  2  0
 99100  1  0
 99 74  1  0
101 99  1  0
102103  1  0
103 62  1  0
M  ISO  4  12 101  13 101  64 100  72 100
M  END
>  <TORSDO>  (13) 
F 24

>  <SCORE>  (13) 
-12.466

>  <name>  (13) 
12

>  <ligand_id>  (13) 
12

>  <original_smiles>  (13) 
[H]c1c([H])c([H])c2c(c1[H])C([H])([H])C([H])([H])C([H])([H])C2([H])N([H])C(=O)C1([H])N(C(=O)C([H])(N([H])C(=O)C([H])(N([H])C([H])([H])[H])C([H])([H])[H])C(C([H])([H])[H])(C([H])([H])[H])C([H])([H])[H])C([H])([H])c2c([H])c(OC([H])([H])C(C([H])([H])[H])(C([H])([H])[H])C([H])([H])N([H])C(=O)C(C([H])([H])[H])(C([H])([H])[H])C(C([H])([H])[H])(C([H])([H])[H])C([H])([H])c3c([H])c([H])c(N([H])C(=O)N4C([H])([H])C([H])([H])C([H])([H])C([H])(n5nc(-c6c([H])c([H])c(Oc7c([H])c([H])c(F)c([H])c7F)c([H])c6[H])c(C(=O)N([H])[H])c5N([H])[H])C4([H])[H])c(C([H])([H])C([H])([H])[H])c3[H])c([H])c([H])c2C1([H])[H]

>  <smiles>  (13) 
[H]c1c([H])c([H])c2c(c1[H])C([H])([H])C([H])([H])C([H])([H])C2([H])N([H])C(=O)C1([H])N(C(=O)C([H])(N([H])C(=O)C([H])(N([H])C([H])([H])[H])C([H])([H])[H])C(C([H])([H])[H])(C([H])([H])[H])C([H])([H])[H])C([H])([H])c2c([H])c(OC([H])([H])C(C([H])([H])[H])(C([H])([H])[H])C([H])([H])N([H])C(=O)C(C([H])([H])[H])(C([H])([H])[H])C(C([H])([H])[H])(C([H])([H])[H])C([H])([H])c3c([H])c([H])c(N([H])C(=O)N4C([H])([H])C([H])([H])C([H])([H])C([H])(n5nc(-c6c([H])c([H])c(Oc7c([H])c([H])c(F)c([H])c7F)c([H])c6[H])c(C(=O)N([H])[H])c5N([H])[H])C4([H])[H])c(C([H])([H])C([H])([H])[H])c3[H])c([H])c([H])c2C1([H])[H]

$$$$
13:0:0
     RDKit          3D

101110  0  0  1  0  0  0  0  0999 V2000
  -30.1530  -20.9390   18.8500 C   0  0  0  0  0  3  0  0  0  0  0  0
  -31.2240  -23.3030   21.4920 C   0  0  0  0  0  2  0  0  0  0  0  0
  -31.6720  -24.0070   20.2140 C   0  0  0  0  0  2  0  0  0  0  0  0
  -30.8760  -21.8870   21.0370 C   0  0  0  0  0  2  0  0  0  0  0  0
  -30.8430  -23.3600   19.0920 C   0  0  0  0  0  3  0  0  0  0  0  0
  -30.5030  -22.0090   19.6120 N   0  0  0  0  0  0  0  0  0  0  0  0
  -29.8550  -21.1300   17.5650 N   0  0  0  0  0  0  0  0  0  0  0  0
  -29.5410  -20.3410   17.0230 H   0  0  0  0  0  0  0  0  0  0  0  0
  -29.7740  -22.0480   17.1640 H   0  0  0  0  0  0  0  0  0  0  0  0
  -29.4040  -19.1500   20.4830 C   0  0  0  0  0  3  0  0  0  0  0  0
  -30.8470  -18.5760   18.6120 C   0  0  0  0  0  3  0  0  0  0  0  0
  -29.4030  -17.7960   20.8910 C   0  0  0  0  0  3  0  0  0  0  0  0
  -30.8410  -17.2290   19.0130 C   0  0  0  0  0  3  0  0  0  0  0  0
  -30.1330  -19.5510   19.3410 C   0  0  0  0  0  0  0  0  0  0  0  0
  -30.1240  -16.8180   20.1680 C   0  0  0  0  0  0  0  0  0  0  0  0
  -30.7300  -14.4140   20.0950 C   0  0  0  0  0  0  0  0  0  0  0  0
  -30.3680  -12.2660   18.9740 C   0  0  0  0  0  2  0  0  0  0  0  0
  -29.3640  -12.4930   17.8250 C   0  0  0  0  0  2  0  0  0  0  0  0
  -27.9140  -12.3450   18.3300 C   0  0  0  0  0  2  0  0  0  0  0  0
  -27.6420  -13.1620   19.6250 C   0  0  0  0  0  3  0  0  0  0  0  0
  -28.7580  -12.9410   20.6690 C   0  0  0  0  0  2  0  0  0  0  0  0
  -30.0530  -13.2380   20.0310 N   0  0  0  0  0  0  0  0  0  0  0  0
  -31.8510  -14.5650   19.6040 O   0  0  0  0  0  0  0  0  0  0  0  0
  -30.0360  -15.4530   20.5860 N   0  0  0  0  0  0  0  0  0  0  0  0
  -29.2330  -15.2120   21.1440 H   0  0  0  0  0  0  0  0  0  0  0  0
  -25.2850  -13.7310   20.4910 C   0  0  0  0  0  0  0  0  0  0  0  0
  -24.2450  -12.9400   20.9000 C   0  0  0  0  0  0  0  0  0  0  0  0
  -24.7100  -11.5930   20.8010 C   0  0  0  0  0  0  0  0  0  0  0  0
  -26.3200  -12.8640   20.1750 N   0  0  0  0  0  0  0  0  0  0  0  0
  -25.9800  -11.5710   20.4180 N   0  0  0  0  0  0  0  0  0  0  0  0
  -24.0030  -10.3210   20.9950 C   0  0  0  0  0  0  0  0  0  0  0  0
  -24.4410   -9.3700   21.9430 C   0  0  0  0  0  3  0  0  0  0  0  0
  -23.7310   -8.1640   22.1250 C   0  0  0  0  0  3  0  0  0  0  0  0
  -22.5710   -7.8980   21.3590 C   0  0  0  0  0  0  0  0  0  0  0  0
  -22.1540   -8.8380   20.4010 C   0  0  0  0  0  3  0  0  0  0  0  0
  -22.8650  -10.0380   20.2180 C   0  0  0  0  0  3  0  0  0  0  0  0
  -21.8330   -6.7440   21.4500 O   0  0  0  0  0  0  0  0  0  0  0  0
  -21.7410   -6.0400   22.6230 C   0  0  0  0  0  0  0  0  0  0  0  0
  -21.1370   -6.5890   23.7750 C   0  0  0  0  0  3  0  0  0  0  0  0
  -20.9990   -5.8060   24.9390 C   0  0  0  0  0  3  0  0  0  0  0  0
  -21.4540   -4.4740   24.9500 C   0  0  0  0  0  0  0  0  0  0  0  0
  -22.0500   -3.9240   23.8020 C   0  0  0  0  0  3  0  0  0  0  0  0
  -22.1890   -4.7050   22.6410 C   0  0  0  0  0  0  0  0  0  0  0  0
  -22.7450   -4.1630   21.5300 F   0  0  0  0  0  0  0  0  0  0  0  0
  -21.3140   -3.7190   26.0650 F   0  0  0  0  0  0  0  0  0  0  0  0
  -22.8640  -13.4000   21.2710 C   0  0  0  0  0  0  0  0  0  0  0  0
  -22.1920  -12.6680   22.1530 N   0  0  0  0  0  0  0  0  0  0  0  0
  -22.3920  -14.4400   20.8160 O   0  0  0  0  0  0  0  0  0  0  0  0
  -22.5880  -11.8230   22.5380 H   0  0  0  0  0  0  0  0  0  0  0  0
  -21.2690  -12.9520   22.4410 H   0  0  0  0  0  0  0  0  0  0  0  0
  -25.4280  -15.1080   20.3440 N   0  0  0  0  0  0  0  0  0  0  0  0
  -24.6630  -15.7500   20.5170 H   0  0  0  0  0  0  0  0  0  0  0  0
  -26.2480  -15.5680   19.9670 H   0  0  0  0  0  0  0  0  0  0  0  0
  -29.6020  -24.1810   18.6320 C   0  0  0  0  0  2  0  0  0  0  0  0
  -28.5820  -25.8040   16.9390 C   0  0  0  0  0  1  0  0  0  0  0  0
  -30.9270  -25.1430   16.6540 C   0  0  0  0  0  1  0  0  0  0  0  0
  -29.8600  -25.4490   17.7410 C   0  0  2  0  0  0  0  0  0  0  0  0
  -30.3220  -26.6800   18.5860 C   0  0  0  0  0  0  0  0  0  0  0  0
  -31.4310  -27.1820   18.3840 O   0  0  0  0  0  0  0  0  0  0  0  0
  -29.4340  -27.3090   19.6820 C   0  0  0  0  0  2  0  0  0  0  0  0
  -28.1850  -26.6420   19.8250 O   0  0  0  0  0  0  0  0  0  0  0  0
  -24.5240  -31.8240   23.1270 C   0  0  0  0  0  0  0  0  0  0  0  0
  -27.0590  -27.4210   19.9340 C   0  0  0  0  0  0  0  0  0  0  0  0
  -23.2610  -30.4480   21.5020 C   0  0  0  0  0  3  0  0  0  0  0  0
  -24.6650  -28.9130   20.0320 C   0  0  0  0  0  0  0  0  0  0  0  0
  -25.7770  -30.8010   21.2360 C   0  0  0  0  0  2  0  0  0  0  0  0
  -25.8390  -29.4350   20.5900 C   0  0  0  0  0  0  0  0  0  0  0  0
  -27.0380  -28.6950   20.5470 C   0  0  0  0  0  3  0  0  0  0  0  0
  -25.8620  -26.8960   19.4040 C   0  0  0  0  0  3  0  0  0  0  0  0
  -24.6670  -27.6380   19.4420 C   0  0  0  0  0  3  0  0  0  0  0  0
  -23.4280  -29.7750   20.1130 C   0  0  0  0  0  2  0  0  0  0  0  0
  -24.5410  -31.0350   22.0160 N   0  0  0  0  0  0  0  0  0  0  0  0
  -23.4600  -32.1010   23.6970 O   0  0  0  0  0  0  0  0  0  0  0  0
  -22.6270  -29.4240   22.4710 C   0  0  0  0  0  0  0  0  0  0  0  0
  -21.3010  -29.2400   22.3620 N   0  0  0  0  0  0  0  0  0  0  0  0
  -23.3230  -28.7970   23.2730 O   0  0  0  0  0  0  0  0  0  0  0  0
  -20.8000  -29.7990   21.6850 H   0  0  0  0  0  0  0  0  0  0  0  0
  -17.9320  -28.0750   22.9240 C   0  0  0  0  0  0  0  0  0  0  0  0
  -20.4970  -28.3000   23.1390 C   0  0  0  0  0  3  0  0  0  0  0  0
  -20.5710  -26.8760   22.5420 C   0  0  0  0  0  2  0  0  0  0  0  0
  -19.4420  -26.5780   21.5500 C   0  0  0  0  0  2  0  0  0  0  0  0
  -18.0780  -26.7310   22.2280 C   0  0  0  0  0  2  0  0  0  0  0  0
  -19.0680  -28.8180   23.3380 C   0  0  0  0  0  0  0  0  0  0  0  0
  -18.8790  -30.0770   23.9480 C   0  0  0  0  0  3  0  0  0  0  0  0
  -17.5850  -30.5930   24.1480 C   0  0  0  0  0  3  0  0  0  0  0  0
  -16.4610  -29.8440   23.7540 C   0  0  0  0  0  3  0  0  0  0  0  0
  -16.6370  -28.5870   23.1490 C   0  0  0  0  0  3  0  0  0  0  0  0
  -25.8340  -32.4350   23.7170 C   0  0  0  0  0  3  0  0  0  0  0  0
  -25.5440  -33.8260   24.0900 N   0  0  0  0  0  0  0  0  0  0  0  0
  -25.8730  -34.8950   23.3540 C   0  0  0  0  0  0  0  0  0  0  0  0
  -26.5260  -34.8130   22.3090 O   0  0  0  0  0  0  0  0  0  0  0  0
  -24.9600  -33.9620   24.9030 H   0  0  0  0  0  0  0  0  0  0  0  0
  -24.1820  -36.7280   23.0390 C   0  0  0  0  0  1  0  0  0  0  0  0
  -25.4040  -36.2730   23.8530 C   0  0  0  0  0  3  0  0  0  0  0  0
  -27.5310  -37.0970   24.7640 C   0  0  0  0  0  1  0  0  0  0  0  0
  -26.4570  -37.3110   23.7970 N   0  0  0  0  0  0  0  0  0  0  0  0
  -26.0620  -38.2320   23.9640 H   0  0  0  0  0  0  0  0  0  0  0  0
  -26.3950  -31.6280   24.9530 C   0  0  1  0  0  0  0  0  0  0  0  0
  -25.3360  -31.3510   26.0460 C   0  0  0  0  0  1  0  0  0  0  0  0
  -26.9690  -30.2680   24.4960 C   0  0  0  0  0  1  0  0  0  0  0  0
  -27.5600  -32.4080   25.6050 C   0  0  0  0  0  1  0  0  0  0  0  0
  1  7  1  0
  1 14  1  0
  1  6  1  0
  3  2  1  0
  4  2  1  0
  5 54  1  0
  5  6  1  0
  5  3  1  0
  6  4  1  0
  8  7  1  0
  9  7  1  0
 10 12  1  0
 11 13  2  0
 11 14  1  0
 13 15  1  0
 14 10  2  0
 15 24  1  0
 15 12  2  0
 16 24  1  0
 17 22  1  0
 18 19  1  0
 18 17  1  0
 20 19  1  0
 20 29  1  0
 20 21  1  0
 22 16  1  0
 22 21  1  0
 23 16  2  0
 24 25  1  0
 26 27  2  0
 27 46  1  0
 28 27  1  0
 28 31  1  0
 29 30  1  0
 29 26  1  0
 30 28  2  0
 31 32  1  0
 32 33  2  0
 34 37  1  0
 34 33  1  0
 35 34  2  0
 36 35  1  0
 36 31  2  0
 37 38  1  0
 38 43  2  0
 38 39  1  0
 39 40  2  0
 40 41  1  0
 41 45  1  0
 42 41  2  0
 43 42  1  0
 44 43  1  0
 46 47  1  0
 47 50  1  0
 47 49  1  0
 48 46  2  0
 51 26  1  0
 51 52  1  0
 53 51  1  0
 57 55  1  6
 56 57  1  0
 57 58  1  0
 57 54  1  0
 58 60  1  0
 59 58  2  0
 60 61  1  0
 61 63  1  0
 62 73  2  0
 63 68  1  0
 64 72  1  0
 64 74  1  0
 65 71  1  0
 65 67  1  0
 66 72  1  0
 67 66  1  0
 68 67  2  0
 69 70  1  0
 69 63  2  0
 70 65  2  0
 71 64  1  0
 72 62  1  0
 74 76  2  0
 75 74  1  0
 77 75  1  0
 78 87  2  0
 78 83  1  0
 79 75  1  0
 79 83  1  0
 80 79  1  0
 81 82  1  0
 81 80  1  0
 82 78  1  0
 83 84  2  0
 84 85  1  0
 86 85  2  0
 87 86  1  0
 88 62  1  0
 88 89  1  0
 88 98  1  0
 89 92  1  0
 90 94  1  0
 90 89  1  0
 91 90  2  0
 94 93  1  0
 96 94  1  0
 96 97  1  0
 96 95  1  0
 98101  1  1
 98 99  1  0
100 98  1  0
M  ISO  4  16 100  24 100  60 101  61 101
M  END
>  <TORSDO>  (14) 
F 21

>  <SCORE>  (14) 
-13.272

>  <name>  (14) 
13

>  <ligand_id>  (14) 
13

>  <original_smiles>  (14) 
[H]c1c([H])c([H])c2c(c1[H])C([H])([H])C([H])([H])C([H])([H])C2([H])N([H])C(=O)C1([H])N(C(=O)C([H])(N([H])C(=O)C([H])(N([H])C([H])([H])[H])C([H])([H])[H])C(C([H])([H])[H])(C([H])([H])[H])C([H])([H])[H])C([H])([H])c2c([H])c(OC([H])([H])C(=O)C(C([H])([H])[H])(C([H])([H])[H])C([H])([H])C3([H])N(C(c4c([H])c([H])c(N([H])C(=O)N5C([H])([H])C([H])([H])C([H])([H])C([H])(n6nc(-c7c([H])c([H])c(Oc8c([H])c([H])c(F)c([H])c8F)c([H])c7[H])c(C(=O)N([H])[H])c6N([H])[H])C5([H])[H])c([H])c4[H])=[N+]([H])[H])C([H])([H])C([H])([H])C3([H])[H])c([H])c([H])c2C1([H])[H]

>  <smiles>  (14) 
[H]c1c([H])c([H])c2c(c1[H])C([H])([H])C([H])([H])C([H])([H])C2([H])N([H])C(=O)C1([H])N(C(=O)C([H])(N([H])C(=O)C([H])(N([H])C([H])([H])[H])C([H])([H])[H])C(C([H])([H])[H])(C([H])([H])[H])C([H])([H])[H])C([H])([H])c2c([H])c(OC([H])([H])C(=O)C(C([H])([H])[H])(C([H])([H])[H])C([H])([H])C3([H])N(C(c4c([H])c([H])c(N([H])C(=O)N5C([H])([H])C([H])([H])C([H])([H])C([H])(n6nc(-c7c([H])c([H])c(Oc8c([H])c([H])c(F)c([H])c8F)c([H])c7[H])c(C(=O)N([H])[H])c6N([H])[H])C5([H])[H])c([H])c4[H])=[N+]([H])[H])C([H])([H])C([H])([H])C3([H])[H])c([H])c([H])c2C1([H])[H]

$$$$
14:0:0
     RDKit          3D

 93102  0  0  1  0  0  0  0  0999 V2000
  -31.6790  -23.4420   20.9590 C   0  0  0  0  0  2  0  0  0  0  0  0
  -31.7650  -21.9230   20.8720 C   0  0  0  0  0  2  0  0  0  0  0  0
  -29.4080  -22.5940   20.7710 C   0  0  0  0  0  2  0  0  0  0  0  0
  -30.3110  -23.7610   20.3460 C   0  0  0  0  0  3  0  0  0  0  0  0
  -30.3350  -21.4190   21.1420 C   0  0  0  0  0  3  0  0  0  0  0  0
  -29.7330  -25.1190   20.7500 C   0  0  0  0  0  0  0  0  0  0  0  0
  -30.3080  -25.8540   21.5630 O   0  0  0  0  0  0  0  0  0  0  0  0
  -28.4120  -25.5260   20.0980 C   0  0  0  0  0  2  0  0  0  0  0  0
  -28.3660  -26.9400   20.0930 O   0  0  0  0  0  0  0  0  0  0  0  0
  -24.5050  -31.9330   23.2570 C   0  0  0  0  0  0  0  0  0  0  0  0
  -27.1450  -27.5550   20.1310 C   0  0  0  0  0  0  0  0  0  0  0  0
  -23.2840  -30.5320   21.6200 C   0  0  0  0  0  3  0  0  0  0  0  0
  -24.7270  -29.0000   20.1830 C   0  0  0  0  0  0  0  0  0  0  0  0
  -25.7990  -30.9150   21.3930 C   0  0  0  0  0  2  0  0  0  0  0  0
  -25.8830  -29.5470   20.7530 C   0  0  0  0  0  0  0  0  0  0  0  0
  -27.0930  -28.8300   20.7210 C   0  0  0  0  0  3  0  0  0  0  0  0
  -25.9730  -26.9970   19.5710 C   0  0  0  0  0  3  0  0  0  0  0  0
  -24.7640  -27.7220   19.5940 C   0  0  0  0  0  3  0  0  0  0  0  0
  -23.4790  -29.8510   20.2380 C   0  0  0  0  0  2  0  0  0  0  0  0
  -24.5490  -31.1410   22.1490 N   0  0  0  0  0  0  0  0  0  0  0  0
  -23.4300  -32.2000   23.8100 O   0  0  0  0  0  0  0  0  0  0  0  0
  -22.6480  -29.5080   22.5850 C   0  0  0  0  0  0  0  0  0  0  0  0
  -21.3270  -29.3060   22.4520 N   0  0  0  0  0  0  0  0  0  0  0  0
  -23.3380  -28.8950   23.4040 O   0  0  0  0  0  0  0  0  0  0  0  0
  -20.8330  -29.8540   21.7610 H   0  0  0  0  0  0  0  0  0  0  0  0
  -17.9740  -28.0470   22.9070 C   0  0  0  0  0  0  0  0  0  0  0  0
  -20.5200  -28.3620   23.2220 C   0  0  0  0  0  3  0  0  0  0  0  0
  -20.6630  -26.9260   22.6660 C   0  0  0  0  0  2  0  0  0  0  0  0
  -19.5860  -26.5670   21.6370 C   0  0  0  0  0  2  0  0  0  0  0  0
  -18.1910  -26.6920   22.2560 C   0  0  0  0  0  2  0  0  0  0  0  0
  -19.0690  -28.8380   23.3460 C   0  0  0  0  0  0  0  0  0  0  0  0
  -18.8140  -30.1060   23.9140 C   0  0  0  0  0  3  0  0  0  0  0  0
  -17.4960  -30.5830   24.0480 C   0  0  0  0  0  3  0  0  0  0  0  0
  -16.4160  -29.7890   23.6260 C   0  0  0  0  0  3  0  0  0  0  0  0
  -16.6550  -28.5240   23.0620 C   0  0  0  0  0  3  0  0  0  0  0  0
  -25.7980  -32.5620   23.8670 C   0  0  0  0  0  3  0  0  0  0  0  0
  -26.3290  -31.7890   25.1360 C   0  0  1  0  0  0  0  0  0  0  0  0
  -25.2470  -31.5480   26.2140 C   0  0  0  0  0  1  0  0  0  0  0  0
  -26.9090  -30.4130   24.7320 C   0  0  0  0  0  1  0  0  0  0  0  0
  -27.4860  -32.5820   25.7880 C   0  0  0  0  0  1  0  0  0  0  0  0
  -25.4960  -33.9600   24.1990 N   0  0  0  0  0  0  0  0  0  0  0  0
  -25.8090  -35.0090   23.4260 C   0  0  0  0  0  0  0  0  0  0  0  0
  -26.4560  -34.9010   22.3800 O   0  0  0  0  0  0  0  0  0  0  0  0
  -24.9170  -34.1170   25.0110 H   0  0  0  0  0  0  0  0  0  0  0  0
  -24.0540  -36.7820   23.1180 C   0  0  0  0  0  1  0  0  0  0  0  0
  -25.3280  -36.3980   23.8860 C   0  0  0  0  0  3  0  0  0  0  0  0
  -27.4850  -37.3060   24.6270 C   0  0  0  0  0  1  0  0  0  0  0  0
  -26.3470  -37.4560   23.7240 N   0  0  0  0  0  0  0  0  0  0  0  0
  -25.9400  -38.3760   23.8770 H   0  0  0  0  0  0  0  0  0  0  0  0
  -29.9500  -20.1450   20.3660 C   0  0  0  0  0  2  0  0  0  0  0  0
  -29.7730  -17.6400   20.8280 C   0  0  0  0  0  3  0  0  0  0  0  0
  -31.7450  -18.6760   21.4690 C   0  0  0  0  0  3  0  0  0  0  0  0
  -30.5050  -18.8600   20.9050 C   0  0  0  0  0  0  0  0  0  0  0  0
  -30.4850  -16.5440   21.2350 C   0  0  0  0  0  0  0  0  0  0  0  0
  -32.0460  -17.0110   21.8610 S   0  0  0  0  0  0  0  0  0  0  0  0
  -30.5820  -14.4220   20.2130 C   0  0  0  0  0  0  0  0  0  0  0  0
  -30.1450  -12.3900   18.8980 C   0  0  0  0  0  2  0  0  0  0  0  0
  -29.1410  -12.6870   17.7680 C   0  0  0  0  0  2  0  0  0  0  0  0
  -27.6940  -12.5380   18.2730 C   0  0  0  0  0  2  0  0  0  0  0  0
  -27.4400  -13.3050   19.5980 C   0  0  0  0  0  3  0  0  0  0  0  0
  -28.5460  -12.9920   20.6300 C   0  0  0  0  0  2  0  0  0  0  0  0
  -29.8540  -13.2970   20.0170 N   0  0  0  0  0  0  0  0  0  0  0  0
  -31.6050  -14.6870   19.5690 O   0  0  0  0  0  0  0  0  0  0  0  0
  -30.0920  -15.2590   21.1350 N   0  0  0  0  0  0  0  0  0  0  0  0
  -29.2100  -14.9980   21.5480 H   0  0  0  0  0  0  0  0  0  0  0  0
  -25.0670  -13.8870   20.4160 C   0  0  0  0  0  0  0  0  0  0  0  0
  -24.0240  -13.1020   20.8280 C   0  0  0  0  0  0  0  0  0  0  0  0
  -24.4970  -11.7550   20.7640 C   0  0  0  0  0  0  0  0  0  0  0  0
  -26.1100  -13.0190   20.1310 N   0  0  0  0  0  0  0  0  0  0  0  0
  -25.7700  -11.7310   20.3940 N   0  0  0  0  0  0  0  0  0  0  0  0
  -23.7930  -10.4830   20.9780 C   0  0  0  0  0  0  0  0  0  0  0  0
  -24.2730   -9.5190   21.8910 C   0  0  0  0  0  3  0  0  0  0  0  0
  -23.5710   -8.3120   22.0930 C   0  0  0  0  0  3  0  0  0  0  0  0
  -22.3730   -8.0600   21.3820 C   0  0  0  0  0  0  0  0  0  0  0  0
  -21.9120   -9.0140   20.4570 C   0  0  0  0  0  3  0  0  0  0  0  0
  -22.6150  -10.2130   20.2540 C   0  0  0  0  0  3  0  0  0  0  0  0
  -21.6380   -6.9060   21.4930 O   0  0  0  0  0  0  0  0  0  0  0  0
  -21.6410   -6.1590   22.6430 C   0  0  0  0  0  0  0  0  0  0  0  0
  -21.2670   -6.7090   23.8890 C   0  0  0  0  0  3  0  0  0  0  0  0
  -21.2150   -5.8890   25.0340 C   0  0  0  0  0  3  0  0  0  0  0  0
  -21.5290   -4.5200   24.9360 C   0  0  0  0  0  0  0  0  0  0  0  0
  -21.8980   -3.9690   23.6960 C   0  0  0  0  0  3  0  0  0  0  0  0
  -21.9510   -4.7870   22.5520 C   0  0  0  0  0  0  0  0  0  0  0  0
  -22.2860   -4.2470   21.3560 F   0  0  0  0  0  0  0  0  0  0  0  0
  -21.4740   -3.7310   26.0340 F   0  0  0  0  0  0  0  0  0  0  0  0
  -22.6360  -13.5620   21.1710 C   0  0  0  0  0  0  0  0  0  0  0  0
  -21.9560  -12.8510   22.0620 N   0  0  0  0  0  0  0  0  0  0  0  0
  -22.1640  -14.5890   20.6840 O   0  0  0  0  0  0  0  0  0  0  0  0
  -22.3510  -12.0210   22.4800 H   0  0  0  0  0  0  0  0  0  0  0  0
  -21.0280  -13.1430   22.3350 H   0  0  0  0  0  0  0  0  0  0  0  0
  -25.2100  -15.2610   20.2400 N   0  0  0  0  0  0  0  0  0  0  0  0
  -24.4430  -15.9080   20.3870 H   0  0  0  0  0  0  0  0  0  0  0  0
  -26.0400  -15.7080   19.8710 H   0  0  0  0  0  0  0  0  0  0  0  0
  2  1  1  0
  2  5  1  0
  3  5  1  0
  4  6  1  0
  4  3  1  0
  4  1  1  0
  5 50  1  0
  6  7  2  0
  8  6  1  0
  9  8  1  0
  9 11  1  0
 10 21  2  0
 11 16  1  0
 12 20  1  0
 12 22  1  0
 13 19  1  0
 13 15  1  0
 14 20  1  0
 15 14  1  0
 16 15  2  0
 17 18  1  0
 17 11  2  0
 18 13  2  0
 19 12  1  0
 20 10  1  0
 22 24  2  0
 23 22  1  0
 25 23  1  0
 26 35  2  0
 26 31  1  0
 27 23  1  0
 27 31  1  0
 28 27  1  0
 29 30  1  0
 29 28  1  0
 30 26  1  0
 31 32  2  0
 32 33  1  0
 34 33  2  0
 35 34  1  0
 36 10  1  0
 36 41  1  0
 36 37  1  0
 37 40  1  1
 37 38  1  0
 39 37  1  0
 41 44  1  0
 42 46  1  0
 42 41  1  0
 43 42  2  0
 46 45  1  0
 48 49  1  0
 48 46  1  0
 48 47  1  0
 50 53  1  0
 51 53  1  0
 51 54  2  0
 52 55  1  0
 53 52  2  0
 54 55  1  0
 56 64  1  0
 57 62  1  0
 58 59  1  0
 58 57  1  0
 60 59  1  0
 60 69  1  0
 60 61  1  0
 62 56  1  0
 62 61  1  0
 63 56  2  0
 64 54  1  0
 64 65  1  0
 66 67  2  0
 67 86  1  0
 68 67  1  0
 68 71  1  0
 69 70  1  0
 69 66  1  0
 70 68  2  0
 71 72  1  0
 72 73  2  0
 74 77  1  0
 74 73  1  0
 75 74  2  0
 76 75  1  0
 76 71  2  0
 77 78  1  0
 78 79  1  0
 79 80  2  0
 81 80  1  0
 81 85  1  0
 82 81  2  0
 83 78  2  0
 83 82  1  0
 84 83  1  0
 86 87  1  0
 87 90  1  0
 87 89  1  0
 88 86  2  0
 91 92  1  0
 91 66  1  0
 93 91  1  0
M  ISO  4   8 101   9 101  56 100  64 100
M  END
>  <TORSDO>  (15) 
F 20

>  <SCORE>  (15) 
-12.528

>  <name>  (15) 
14

>  <ligand_id>  (15) 
14

>  <original_smiles>  (15) 
[H]c1sc(N([H])C(=O)N2C([H])([H])C([H])([H])C([H])([H])C([H])(n3nc(-c4c([H])c([H])c(Oc5c([H])c([H])c(F)c([H])c5F)c([H])c4[H])c(C(=O)N([H])[H])c3N([H])[H])C2([H])[H])c([H])c1C([H])([H])C1([H])C([H])([H])C([H])([H])C([H])(C(=O)C([H])([H])Oc2c([H])c([H])c3c(c2[H])C([H])([H])N(C(=O)C([H])(N([H])C(=O)C([H])(N([H])C([H])([H])[H])C([H])([H])[H])C(C([H])([H])[H])(C([H])([H])[H])C([H])([H])[H])C([H])(C(=O)N([H])C2([H])c4c([H])c([H])c([H])c([H])c4C([H])([H])C([H])([H])C2([H])[H])C3([H])[H])C1([H])[H]

>  <smiles>  (15) 
[H]c1sc(N([H])C(=O)N2C([H])([H])C([H])([H])C([H])([H])C([H])(n3nc(-c4c([H])c([H])c(Oc5c([H])c([H])c(F)c([H])c5F)c([H])c4[H])c(C(=O)N([H])[H])c3N([H])[H])C2([H])[H])c([H])c1C([H])([H])C1([H])C([H])([H])C([H])([H])C([H])(C(=O)C([H])([H])Oc2c([H])c([H])c3c(c2[H])C([H])([H])N(C(=O)C([H])(N([H])C(=O)C([H])(N([H])C([H])([H])[H])C([H])([H])[H])C(C([H])([H])[H])(C([H])([H])[H])C([H])([H])[H])C([H])(C(=O)N([H])C2([H])c4c([H])c([H])c([H])c([H])c4C([H])([H])C([H])([H])C2([H])[H])C3([H])[H])C1([H])[H]

$$$$
15:0:0
     RDKit          3D

 99107  0  0  1  0  0  0  0  0999 V2000
  -29.4810  -21.4440   21.8890 C   0  0  0  0  0  0  0  0  0  0  0  0
  -30.6360  -20.7850   21.6980 N   0  0  0  0  0  0  0  0  0  0  0  0
  -28.3670  -20.9170   21.8610 O   0  0  0  0  0  0  0  0  0  0  0  0
  -31.4860  -21.3460   21.7210 H   0  0  0  0  0  0  0  0  0  0  0  0
  -32.0430  -17.5400   20.7870 C   0  0  0  0  0  3  0  0  0  0  0  0
  -32.0910  -18.9480   21.0260 C   0  0  0  0  0  0  0  0  0  0  0  0
  -30.8100  -16.9700   20.9960 C   0  0  0  0  0  0  0  0  0  0  0  0
  -30.8750  -19.4710   21.4260 C   0  0  0  0  0  0  0  0  0  0  0  0
  -29.6870  -18.1820   21.5470 S   0  0  0  0  0  0  0  0  0  0  0  0
  -30.9840  -14.7410   20.0690 C   0  0  0  0  0  0  0  0  0  0  0  0
  -30.6360  -12.5610   18.9690 C   0  0  0  0  0  2  0  0  0  0  0  0
  -29.6530  -12.7090   17.7920 C   0  0  0  0  0  2  0  0  0  0  0  0
  -28.1960  -12.5760   18.2770 C   0  0  0  0  0  2  0  0  0  0  0  0
  -27.8940  -13.4670   19.5100 C   0  0  0  0  0  3  0  0  0  0  0  0
  -28.9830  -13.2930   20.5930 C   0  0  0  0  0  2  0  0  0  0  0  0
  -30.2930  -13.5750   19.9770 N   0  0  0  0  0  0  0  0  0  0  0  0
  -32.0290  -14.9490   19.4430 O   0  0  0  0  0  0  0  0  0  0  0  0
  -30.4180  -15.6780   20.8480 N   0  0  0  0  0  0  0  0  0  0  0  0
  -29.5250  -15.4250   21.2420 H   0  0  0  0  0  0  0  0  0  0  0  0
  -25.5360  -14.0960   20.3330 C   0  0  0  0  0  0  0  0  0  0  0  0
  -24.4730  -13.3310   20.7340 C   0  0  0  0  0  0  0  0  0  0  0  0
  -24.9130  -11.9740   20.6560 C   0  0  0  0  0  0  0  0  0  0  0  0
  -26.5570  -13.2050   20.0410 N   0  0  0  0  0  0  0  0  0  0  0  0
  -26.1860  -11.9230   20.2890 N   0  0  0  0  0  0  0  0  0  0  0  0
  -24.1780  -10.7170   20.8560 C   0  0  0  0  0  0  0  0  0  0  0  0
  -24.5760   -9.7770   21.8310 C   0  0  0  0  0  3  0  0  0  0  0  0
  -23.8430   -8.5840   22.0150 C   0  0  0  0  0  3  0  0  0  0  0  0
  -22.6990   -8.3250   21.2230 C   0  0  0  0  0  0  0  0  0  0  0  0
  -22.3220   -9.2540   20.2380 C   0  0  0  0  0  3  0  0  0  0  0  0
  -23.0550  -10.4370   20.0520 C   0  0  0  0  0  3  0  0  0  0  0  0
  -21.9420   -7.1810   21.3150 O   0  0  0  0  0  0  0  0  0  0  0  0
  -21.7560   -6.5340   22.5100 C   0  0  0  0  0  0  0  0  0  0  0  0
  -21.1760   -7.1780   23.6240 C   0  0  0  0  0  3  0  0  0  0  0  0
  -20.9400   -6.4570   24.8110 C   0  0  0  0  0  3  0  0  0  0  0  0
  -21.2740   -5.0910   24.8830 C   0  0  0  0  0  0  0  0  0  0  0  0
  -21.8470   -4.4460   23.7720 C   0  0  0  0  0  3  0  0  0  0  0  0
  -22.0840   -5.1660   22.5880 C   0  0  0  0  0  0  0  0  0  0  0  0
  -22.6160   -4.5350   21.5140 F   0  0  0  0  0  0  0  0  0  0  0  0
  -21.0400   -4.3950   26.0190 F   0  0  0  0  0  0  0  0  0  0  0  0
  -23.0970  -13.8210   21.0810 C   0  0  0  0  0  0  0  0  0  0  0  0
  -22.4040  -13.1210   21.9740 N   0  0  0  0  0  0  0  0  0  0  0  0
  -22.6450  -14.8570   20.5970 O   0  0  0  0  0  0  0  0  0  0  0  0
  -22.7820  -12.2820   22.3870 H   0  0  0  0  0  0  0  0  0  0  0  0
  -21.4820  -13.4310   22.2480 H   0  0  0  0  0  0  0  0  0  0  0  0
  -25.7130  -15.4670   20.1740 N   0  0  0  0  0  0  0  0  0  0  0  0
  -24.9640  -16.1340   20.3290 H   0  0  0  0  0  0  0  0  0  0  0  0
  -26.5590  -15.8990   19.8240 H   0  0  0  0  0  0  0  0  0  0  0  0
  -33.3520  -19.7400   20.8430 C   0  0  0  0  0  0  0  0  0  0  0  0
  -34.3900  -19.1940   20.4140 O   0  0  0  0  0  0  0  0  0  0  0  0
  -33.3880  -20.9590   21.1200 O   0  0  0  0  0  1  0  0  0  0  0  0
  -29.6190  -22.9500   22.1520 C   0  0  0  0  0  2  0  0  0  0  0  0
  -28.2640  -23.7000   22.2050 C   0  0  0  0  0  2  0  0  0  0  0  0
  -26.8830  -25.7870   22.5340 C   0  0  0  0  0  1  0  0  0  0  0  0
  -29.0360  -25.5450   23.7680 C   0  0  0  0  0  1  0  0  0  0  0  0
  -28.3240  -25.2390   22.4280 C   0  0  1  0  0  0  0  0  0  0  0  0
  -29.0350  -25.9710   21.2590 C   0  0  0  0  0  0  0  0  0  0  0  0
  -30.0050  -26.7110   21.4600 O   0  0  0  0  0  0  0  0  0  0  0  0
  -28.4960  -25.7750   19.8330 C   0  0  0  0  0  2  0  0  0  0  0  0
  -28.3990  -27.0380   19.1750 O   0  0  0  0  0  0  0  0  0  0  0  0
  -24.5540  -31.6470   22.9770 C   0  0  0  0  0  0  0  0  0  0  0  0
  -27.1940  -27.6740   19.3380 C   0  0  0  0  0  0  0  0  0  0  0  0
  -23.3100  -30.3520   21.2750 C   0  0  0  0  0  3  0  0  0  0  0  0
  -24.7380  -29.0260   19.6320 C   0  0  0  0  0  0  0  0  0  0  0  0
  -25.7970  -30.8560   20.9690 C   0  0  0  0  0  2  0  0  0  0  0  0
  -25.9030  -29.5580   20.1990 C   0  0  0  0  0  0  0  0  0  0  0  0
  -27.1360  -28.8910   20.0470 C   0  0  0  0  0  3  0  0  0  0  0  0
  -26.0160  -27.1430   18.7720 C   0  0  0  0  0  3  0  0  0  0  0  0
  -24.7860  -27.8150   18.9190 C   0  0  0  0  0  3  0  0  0  0  0  0
  -23.4620  -29.8130   19.8270 C   0  0  0  0  0  2  0  0  0  0  0  0
  -24.5750  -30.9610   21.7990 N   0  0  0  0  0  0  0  0  0  0  0  0
  -23.4980  -31.8160   23.6000 O   0  0  0  0  0  0  0  0  0  0  0  0
  -22.7610  -29.2150   22.1660 C   0  0  0  0  0  0  0  0  0  0  0  0
  -21.4420  -28.9760   22.0850 N   0  0  0  0  0  0  0  0  0  0  0  0
  -23.5160  -28.5540   22.8850 O   0  0  0  0  0  0  0  0  0  0  0  0
  -20.8910  -29.5660   21.4770 H   0  0  0  0  0  0  0  0  0  0  0  0
  -18.1600  -27.5650   22.6150 C   0  0  0  0  0  0  0  0  0  0  0  0
  -20.7120  -27.9320   22.8020 C   0  0  0  0  0  3  0  0  0  0  0  0
  -20.8590  -26.5650   22.0940 C   0  0  0  0  0  2  0  0  0  0  0  0
  -19.7270  -26.2750   21.1030 C   0  0  0  0  0  2  0  0  0  0  0  0
  -18.3710  -26.2910   21.8150 C   0  0  0  0  0  2  0  0  0  0  0  0
  -19.2590  -28.3440   23.0640 C   0  0  0  0  0  0  0  0  0  0  0  0
  -19.0070  -29.5390   23.7740 C   0  0  0  0  0  3  0  0  0  0  0  0
  -17.6880  -29.9550   24.0370 C   0  0  0  0  0  3  0  0  0  0  0  0
  -16.6040  -29.1720   23.6040 C   0  0  0  0  0  3  0  0  0  0  0  0
  -16.8420  -27.9790   22.8990 C   0  0  0  0  0  3  0  0  0  0  0  0
  -25.8500  -32.2730   23.5810 C   0  0  0  0  0  3  0  0  0  0  0  0
  -25.5130  -33.6260   24.0430 N   0  0  0  0  0  0  0  0  0  0  0  0
  -25.7850  -34.7500   23.3660 C   0  0  0  0  0  0  0  0  0  0  0  0
  -26.4190  -34.7580   22.3070 O   0  0  0  0  0  0  0  0  0  0  0  0
  -24.9450  -33.6910   24.8750 H   0  0  0  0  0  0  0  0  0  0  0  0
  -23.9910  -36.5050   23.2240 C   0  0  0  0  0  1  0  0  0  0  0  0
  -25.2720  -36.0760   23.9580 C   0  0  0  0  0  3  0  0  0  0  0  0
  -27.4040  -36.9570   24.7960 C   0  0  0  0  0  1  0  0  0  0  0  0
  -26.2670  -37.1690   23.9040 N   0  0  0  0  0  0  0  0  0  0  0  0
  -25.8380  -38.0590   24.1430 H   0  0  0  0  0  0  0  0  0  0  0  0
  -26.4650  -31.4170   24.7550 C   0  0  1  0  0  0  0  0  0  0  0  0
  -25.4450  -31.0510   25.8560 C   0  0  0  0  0  1  0  0  0  0  0  0
  -27.0680  -30.1000   24.2110 C   0  0  0  0  0  1  0  0  0  0  0  0
  -27.6280  -32.1940   25.4180 C   0  0  0  0  0  1  0  0  0  0  0  0
  1 51  1  0
  2  4  1  0
  2  1  1  0
  3  1  2  0
  5  7  2  0
  5  6  1  0
  6  8  2  0
  7  9  1  0
  8  9  1  0
  8  2  1  0
 10 18  1  0
 11 16  1  0
 12 13  1  0
 12 11  1  0
 14 13  1  0
 14 23  1  0
 14 15  1  0
 16 10  1  0
 16 15  1  0
 17 10  2  0
 18  7  1  0
 18 19  1  0
 20 21  2  0
 21 40  1  0
 22 21  1  0
 22 25  1  0
 23 24  1  0
 23 20  1  0
 24 22  2  0
 25 26  1  0
 26 27  2  0
 28 31  1  0
 28 27  1  0
 29 28  2  0
 30 29  1  0
 30 25  2  0
 31 32  1  0
 32 37  2  0
 32 33  1  0
 33 34  2  0
 34 35  1  0
 35 39  1  0
 36 35  2  0
 37 36  1  0
 38 37  1  0
 40 41  1  0
 41 44  1  0
 41 43  1  0
 42 40  2  0
 45 46  1  0
 45 20  1  0
 47 45  1  0
 48  6  1  0
 48 50  1  0
 49 48  2  0
 51 52  1  0
 52 55  1  0
 55 53  1  1
 55 54  1  0
 56 57  2  0
 56 55  1  0
 58 56  1  0
 59 61  1  0
 59 58  1  0
 60 71  2  0
 61 66  1  0
 62 70  1  0
 62 72  1  0
 63 69  1  0
 63 65  1  0
 64 70  1  0
 65 64  1  0
 66 65  2  0
 67 68  1  0
 67 61  2  0
 68 63  2  0
 69 62  1  0
 70 60  1  0
 72 74  2  0
 73 72  1  0
 75 73  1  0
 76 85  2  0
 76 81  1  0
 77 73  1  0
 77 81  1  0
 78 77  1  0
 79 80  1  0
 79 78  1  0
 80 76  1  0
 81 82  2  0
 82 83  1  0
 84 83  2  0
 85 84  1  0
 86 60  1  0
 86 87  1  0
 86 96  1  0
 87 90  1  0
 88 92  1  0
 88 87  1  0
 89 88  2  0
 92 91  1  0
 94 92  1  0
 94 95  1  0
 94 93  1  0
 96 99  1  1
 96 97  1  0
 98 96  1  0
M  ISO  4  10 100  18 100  58 101  59 101
M  END
>  <TORSDO>  (16) 
F 23

>  <SCORE>  (16) 
-11.481

>  <name>  (16) 
15

>  <ligand_id>  (16) 
15

>  <original_smiles>  (16) 
[H]c1c([H])c([H])c2c(c1[H])C([H])([H])C([H])([H])C([H])([H])C2([H])N([H])C(=O)C1([H])N(C(=O)C([H])(N([H])C(=O)C([H])(N([H])C([H])([H])[H])C([H])([H])[H])C(C([H])([H])[H])(C([H])([H])[H])C([H])([H])[H])C([H])([H])c2c([H])c(OC([H])([H])C(=O)C(C([H])([H])[H])(C([H])([H])[H])C([H])([H])C([H])([H])C(=O)N([H])c3sc(N([H])C(=O)N4C([H])([H])C([H])([H])C([H])([H])C([H])(n5nc(-c6c([H])c([H])c(Oc7c([H])c([H])c(F)c([H])c7F)c([H])c6[H])c(C(=O)N([H])[H])c5N([H])[H])C4([H])[H])c([H])c3C(=O)[O-])c([H])c([H])c2C1([H])[H]

>  <smiles>  (16) 
[H]c1c([H])c([H])c2c(c1[H])C([H])([H])C([H])([H])C([H])([H])C2([H])N([H])C(=O)C1([H])N(C(=O)C([H])(N([H])C(=O)C([H])(N([H])C([H])([H])[H])C([H])([H])[H])C(C([H])([H])[H])(C([H])([H])[H])C([H])([H])[H])C([H])([H])c2c([H])c(OC([H])([H])C(=O)C(C([H])([H])[H])(C([H])([H])[H])C([H])([H])C([H])([H])C(=O)N([H])c3sc(N([H])C(=O)N4C([H])([H])C([H])([H])C([H])([H])C([H])(n5nc(-c6c([H])c([H])c(Oc7c([H])c([H])c(F)c([H])c7F)c([H])c6[H])c(C(=O)N([H])[H])c5N([H])[H])C4([H])[H])c([H])c3C(=O)[O-])c([H])c([H])c2C1([H])[H]

$$$$
16:0:0
     RDKit          3D

102107  0  0  1  0  0  0  0  0999 V2000
  -26.6080  -23.0460   20.2380 C   0  0  0  0  0  0  0  0  0  0  0  0
  -27.6310  -22.4390   19.3800 N   0  0  0  0  0  0  0  0  0  0  0  0
  -27.0180  -23.6790   21.2130 O   0  0  0  0  0  0  0  0  0  0  0  0
  -27.1890  -21.9490   18.6130 H   0  0  0  0  0  0  0  0  0  0  0  0
  -31.3670  -23.3970   20.0930 C   0  0  0  0  0  3  0  0  0  0  0  0
  -29.9510  -23.3870   19.9730 C   0  0  0  0  0  3  0  0  0  0  0  0
  -32.2160  -22.3600   19.6370 C   0  0  0  0  0  3  0  0  0  0  0  0
  -30.2000  -21.3290   18.7170 C   0  0  0  0  0  0  0  0  0  0  0  0
  -29.2330  -22.3570   19.3190 C   0  0  0  0  0  0  0  0  0  0  0  0
  -31.7330  -21.2310   18.9440 C   0  0  0  0  0  0  0  0  0  0  0  0
  -34.1050  -19.5000   19.0800 C   0  0  0  0  0  0  0  0  0  0  0  0
  -35.1380  -17.1140   19.2010 C   0  0  0  0  0  2  0  0  0  0  0  0
  -34.5910  -16.2100   18.0640 C   0  0  0  0  0  2  0  0  0  0  0  0
  -33.1590  -15.7120   18.3740 C   0  0  0  0  0  2  0  0  0  0  0  0
  -32.2740  -16.8460   18.9610 C   0  0  0  0  0  3  0  0  0  0  0  0
  -32.9660  -17.5700   20.1140 C   0  0  0  0  0  2  0  0  0  0  0  0
  -34.1170  -18.1730   19.4970 N   0  0  0  0  0  0  0  0  0  0  0  0
  -35.2550  -19.9350   18.8350 O   0  0  0  0  0  0  0  0  0  0  0  0
  -32.8310  -20.1060   18.6110 N   0  0  0  0  0  0  0  0  0  0  0  0
  -32.4720  -19.5000   17.8880 H   0  0  0  0  0  0  0  0  0  0  0  0
  -29.8840  -17.2290   19.7360 C   0  0  0  0  0  0  0  0  0  0  0  0
  -28.8760  -16.3630   20.0360 C   0  0  0  0  0  0  0  0  0  0  0  0
  -29.4200  -15.0530   19.8770 C   0  0  0  0  0  0  0  0  0  0  0  0
  -30.9600  -16.4340   19.3850 N   0  0  0  0  0  0  0  0  0  0  0  0
  -30.7000  -15.1150   19.5440 N   0  0  0  0  0  0  0  0  0  0  0  0
  -28.7750  -13.7430   19.9560 C   0  0  0  0  0  0  0  0  0  0  0  0
  -28.9580  -12.8950   21.0690 C   0  0  0  0  0  3  0  0  0  0  0  0
  -28.3090  -11.6430   21.1220 C   0  0  0  0  0  3  0  0  0  0  0  0
  -27.4690  -11.2350   20.0580 C   0  0  0  0  0  0  0  0  0  0  0  0
  -27.3100  -12.0770   18.9440 C   0  0  0  0  0  3  0  0  0  0  0  0
  -27.9590  -13.3190   18.8900 C   0  0  0  0  0  3  0  0  0  0  0  0
  -26.8200  -10.0250   20.0080 O   0  0  0  0  0  0  0  0  0  0  0  0
  -25.8230   -9.7100   20.8940 C   0  0  0  0  0  0  0  0  0  0  0  0
  -24.6480  -10.4850   20.9980 C   0  0  0  0  0  3  0  0  0  0  0  0
  -23.6160  -10.0840   21.8700 C   0  0  0  0  0  3  0  0  0  0  0  0
  -23.7550   -8.9070   22.6320 C   0  0  0  0  0  0  0  0  0  0  0  0
  -24.9240   -8.1330   22.5260 C   0  0  0  0  0  3  0  0  0  0  0  0
  -25.9530   -8.5330   21.6560 C   0  0  0  0  0  0  0  0  0  0  0  0
  -27.0690   -7.7720   21.5410 F   0  0  0  0  0  0  0  0  0  0  0  0
  -22.7620   -8.5170   23.4650 F   0  0  0  0  0  0  0  0  0  0  0  0
  -27.4600  -16.7390   20.3500 C   0  0  0  0  0  0  0  0  0  0  0  0
  -26.7670  -15.9200   21.1300 N   0  0  0  0  0  0  0  0  0  0  0  0
  -26.9750  -17.7950   19.9430 O   0  0  0  0  0  0  0  0  0  0  0  0
  -27.1740  -15.0700   21.4920 H   0  0  0  0  0  0  0  0  0  0  0  0
  -25.8130  -16.1490   21.3710 H   0  0  0  0  0  0  0  0  0  0  0  0
  -29.9380  -18.6180   19.7180 N   0  0  0  0  0  0  0  0  0  0  0  0
  -29.0780  -19.1260   19.8940 H   0  0  0  0  0  0  0  0  0  0  0  0
  -30.6900  -19.2290   19.4230 H   0  0  0  0  0  0  0  0  0  0  0  0
  -29.5980  -20.3010   17.8020 C   0  0  0  0  0  0  0  0  0  0  0  0
  -28.8950  -19.4130   18.2960 O   0  0  0  0  0  0  0  0  0  0  0  0
  -28.7960  -19.6700   15.4050 C   0  0  0  0  0  2  0  0  0  0  0  0
  -29.9990  -18.8160   15.6810 C   0  0  0  0  0  2  0  0  0  0  0  0
  -29.9250  -20.2130   16.2730 C   0  0  2  0  0  0  0  0  0  0  0  0
  -30.8720  -21.2220   15.6110 C   0  0  0  0  0  1  0  0  0  0  0  0
  -24.8870  -23.0160   20.1130 C   0  0  0  0  0  2  0  0  0  0  0  0
  -23.8340  -23.7830   18.9240 C   0  0  0  0  0  2  0  0  0  0  0  0
  -22.8320  -21.7900   17.3660 C   0  0  0  0  0  1  0  0  0  0  0  0
  -21.2960  -23.1840   18.5320 C   0  0  0  0  0  1  0  0  0  0  0  0
  -22.6190  -23.2870   17.6850 C   0  0  1  0  0  0  0  0  0  0  0  0
  -22.0190  -24.1150   16.1440 C   0  0  0  0  0  1  0  0  0  0  0  0
  -24.2080  -26.2300   14.9720 C   0  0  0  0  0 15  0  0  0  0  0  0
  -26.0320  -26.3790   15.7500 O   0  0  0  0  0  1  0  0  0  0  0  0
  -25.5900  -29.4050   20.2110 C   0  0  0  0  0  0  0  0  0  0  0  0
  -27.4730  -26.8510   15.6860 C   0  0  0  0  0  3  0  0  0  0  0  0
  -24.8610  -29.3220   17.9000 C   0  0  0  0  0  3  0  0  0  0  0  0
  -26.6040  -29.1420   16.0190 C   0  0  0  0  0  3  0  0  0  0  0  0
  -27.3370  -29.4290   18.4010 C   0  0  0  0  0  2  0  0  0  0  0  0
  -27.4630  -28.7460   17.0510 C   0  0  0  0  0  3  0  0  0  0  0  0
  -28.0910  -27.5120   16.8170 C   0  0  0  0  0  2  0  0  0  0  0  0
  -27.6790  -27.5560   14.5290 C   0  0  0  0  0  2  0  0  0  0  0  0
  -26.8270  -28.6500   14.7000 C   0  0  0  0  0  2  0  0  0  0  0  0
  -25.3160  -29.7610   16.4580 C   0  0  0  0  0  2  0  0  0  0  0  0
  -25.9430  -29.4430   18.8970 N   0  0  0  0  0  0  0  0  0  0  0  0
  -24.4000  -29.3610   20.5660 O   0  0  0  0  0  0  0  0  0  0  0  0
  -24.3560  -27.8790   18.0500 C   0  0  0  0  0  0  0  0  0  0  0  0
  -23.2180  -27.7010   18.6460 N   0  0  0  0  0  0  0  0  0  0  0  0
  -24.9830  -26.8980   17.6580 O   0  0  0  0  0  0  0  0  0  0  0  0
  -22.7200  -28.4670   19.0770 H   0  0  0  0  0  0  0  0  0  0  0  0
  -21.0050  -26.3790   20.8780 C   0  0  0  0  0  0  0  0  0  0  0  0
  -22.5720  -26.4210   18.5380 C   0  0  0  0  0  2  0  0  0  0  0  0
  -21.4080  -26.0230   16.9610 C   0  0  0  0  0 15  0  0  0  0  0  0
  -19.2290  -26.5450   18.1190 C   0  0  0  0  0  1  0  0  0  0  0  0
  -19.5740  -26.7470   19.9860 C   0  0  0  0  0  2  0  0  0  0  0  0
  -22.3040  -26.3250   20.2040 C   0  0  0  0  0  0  0  0  0  0  0  0
  -23.4840  -26.2570   21.0550 C   0  0  0  0  0  3  0  0  0  0  0  0
  -23.4880  -26.1030   22.4660 C   0  0  0  0  0  3  0  0  0  0  0  0
  -22.2510  -25.9320   23.1010 C   0  0  0  0  0  3  0  0  0  0  0  0
  -21.0530  -26.0670   22.3190 C   0  0  0  0  0  3  0  0  0  0  0  0
  -26.6650  -29.4450   21.3170 C   0  0  0  0  0  3  0  0  0  0  0  0
  -26.1270  -30.3290   22.3540 N   0  0  0  0  0  0  0  0  0  0  0  0
  -26.4880  -31.6060   22.5070 C   0  0  0  0  0  0  0  0  0  0  0  0
  -27.3910  -32.1280   21.8480 O   0  0  0  0  0  0  0  0  0  0  0  0
  -25.3400  -29.9830   22.8820 H   0  0  0  0  0  0  0  0  0  0  0  0
  -24.6890  -33.3240   22.8880 C   0  0  0  0  0  1  0  0  0  0  0  0
  -25.7370  -32.4280   23.5680 C   0  0  0  0  0  3  0  0  0  0  0  0
  -27.4850  -32.4610   25.2900 C   0  0  0  0  0  1  0  0  0  0  0  0
  -26.6330  -33.2520   24.4050 N   0  0  0  0  0  0  0  0  0  0  0  0
  -26.0990  -33.9020   24.9760 H   0  0  0  0  0  0  0  0  0  0  0  0
  -27.0090  -28.0260   21.9110 C   0  0  1  0  0  0  0  0  0  0  0  0
  -25.7710  -27.2010   22.3320 C   0  0  0  0  0  1  0  0  0  0  0  0
  -27.8160  -27.1850   20.8960 C   0  0  0  0  0  1  0  0  0  0  0  0
  -27.9140  -28.2070   23.1520 C   0  0  0  0  0  1  0  0  0  0  0  0
  1  3  2  0
  2  1  1  0
  4  2  1  0
  6  5  1  0
  7  5  2  0
  8 10  2  0
  8  9  1  0
  9  2  1  0
  9  6  2  0
 10  7  1  0
 11 17  1  0
 12 17  1  0
 13 14  1  0
 13 12  1  0
 15 14  1  0
 15 24  1  0
 15 16  1  0
 17 16  1  0
 18 11  2  0
 19 10  1  0
 19 11  1  0
 20 19  1  0
 21 22  2  0
 22 41  1  0
 23 26  1  0
 23 22  1  0
 24 25  1  0
 24 21  1  0
 25 23  2  0
 26 27  1  0
 27 28  2  0
 29 28  1  0
 30 29  2  0
 31 30  1  0
 31 26  2  0
 32 29  1  0
 32 33  1  0
 33 34  2  0
 33 38  1  0
 34 35  1  0
 35 36  2  0
 36 40  1  0
 37 36  1  0
 38 37  2  0
 39 38  1  0
 41 42  1  0
 42 45  1  0
 42 44  1  0
 43 41  2  0
 46 21  1  0
 46 47  1  0
 48 46  1  0
 49 50  2  0
 49  8  1  0
 51 52  1  0
 51 53  1  0
 52 53  1  0
 53 49  1  0
 53 54  1  6
 55  1  1  0
 56 55  1  0
 59 57  1  6
 59 58  1  0
 59 56  1  0
 60 59  1  0
 63 74  2  0
 64 62  1  0
 64 69  1  0
 65 75  1  0
 65 73  1  0
 66 71  1  0
 66 72  1  0
 66 68  1  0
 67 73  1  0
 68 69  1  0
 68 67  1  0
 70 71  1  0
 70 64  1  0
 72 65  1  0
 73 63  1  0
 75 76  1  0
 76 78  1  0
 77 75  2  0
 79 88  1  0
 80 76  1  0
 80 84  1  0
 82 83  1  0
 83 79  1  0
 84 79  2  0
 84 85  1  0
 85 86  2  0
 86 87  1  0
 88 87  2  0
 89 63  1  0
 89 99  1  0
 89 90  1  0
 90 91  1  0
 90 93  1  0
 91 95  1  0
 92 91  2  0
 95 94  1  0
 95 97  1  0
 97 98  1  0
 97 96  1  0
 99100  1  1
 99102  1  0
101 99  1  0
M  ISO  4  11 100  19 100  61 101  62 101
M  END
>  <TORSDO>  (17) 
F 24

>  <SCORE>  (17) 
-0.358

>  <name>  (17) 
16

>  <ligand_id>  (17) 
16

>  <original_smiles>  (17) 
[H]c1c([H])c(N([H])C(=O)N2C([H])([H])C([H])([H])C([H])([H])C([H])(n3nc(-c4c([H])c([H])c(Oc5c([H])c([H])c(F)c([H])c5F)c([H])c4[H])c(C(=O)N([H])[H])c3N([H])[H])C2([H])[H])c(C(=O)C2(C([H])([H])[H])C([H])([H])C2([H])[H])c(N([H])C(=O)C([H])([H])C([H])([H])C(C([H])([H])[H])(C([H])([H])[H])C([H])([H])C([H])([H])Oc2c([H])c([H])c3c(c2[H])C([H])([H])N(C(=O)C([H])(N([H])C(=O)C([H])(N([H])C([H])([H])[H])C([H])([H])[H])C(C([H])([H])[H])(C([H])([H])[H])C([H])([H])[H])C([H])(C(=O)N([H])C2([H])c4c([H])c([H])c([H])c([H])c4C([H])([H])C([H])([H])C2([H])[H])C3([H])[H])c1[H]

>  <smiles>  (17) 
[H]c1c([H])c(N([H])C(=O)N2C([H])([H])C([H])([H])C([H])([H])C([H])(n3nc(-c4c([H])c([H])c(Oc5c([H])c([H])c(F)c([H])c5F)c([H])c4[H])c(C(=O)N([H])[H])c3N([H])[H])C2([H])[H])c(C(=O)C2(C([H])([H])[H])C([H])([H])C2([H])[H])c(N([H])C(=O)C([H])([H])C([H])([H])C(C([H])([H])[H])(C([H])([H])[H])C([H])([H])C([H])([H])Oc2c([H])c([H])c3c(c2[H])C([H])([H])N(C(=O)C([H])(N([H])C(=O)C([H])(N([H])C([H])([H])[H])C([H])([H])[H])C(C([H])([H])[H])(C([H])([H])[H])C([H])([H])[H])C([H])(C(=O)N([H])C2([H])c4c([H])c([H])c([H])c([H])c4C([H])([H])C([H])([H])C2([H])[H])C3([H])[H])c1[H]

$$$$
17:0:0
     RDKit          3D

 98106  0  0  1  0  0  0  0  0999 V2000
  -29.1570  -22.5260   23.3170 C   0  0  0  0  0  2  0  0  0  0  0  0
  -29.4780  -20.0240   23.0890 C   0  0  0  0  0  1  0  0  0  0  0  0
  -30.0870  -21.4030   22.7740 C   0  0  0  0  0  3  0  0  0  0  0  0
  -31.5230  -21.5150   23.3400 C   0  0  0  0  0  2  0  0  0  0  0  0
  -32.2130  -20.2630   23.3180 O   0  0  0  0  0  0  0  0  0  0  0  0
  -32.1550  -18.3130   21.9420 C   0  0  0  0  0  3  0  0  0  0  0  0
  -32.9930  -18.3510   19.6570 C   0  0  0  0  0  3  0  0  0  0  0  0
  -33.1190  -20.3580   21.0330 C   0  0  0  0  0  3  0  0  0  0  0  0
  -32.3910  -17.6360   20.7230 C   0  0  0  0  0  0  0  0  0  0  0  0
  -32.4980  -19.6750   22.1040 C   0  0  0  0  0  0  0  0  0  0  0  0
  -33.3620  -19.6980   19.8180 C   0  0  0  0  0  0  0  0  0  0  0  0
  -33.9490  -20.3640   18.7930 F   0  0  0  0  0  0  0  0  0  0  0  0
  -32.4260  -15.2760   19.8560 C   0  0  0  0  0  0  0  0  0  0  0  0
  -31.9550  -13.0180   18.9770 C   0  0  0  0  0  2  0  0  0  0  0  0
  -30.9730  -13.0950   17.7900 C   0  0  0  0  0  2  0  0  0  0  0  0
  -29.5130  -13.0910   18.2890 C   0  0  0  0  0  2  0  0  0  0  0  0
  -29.2680  -14.1200   19.4230 C   0  0  0  0  0  3  0  0  0  0  0  0
  -30.3510  -13.9930   20.5170 C   0  0  0  0  0  2  0  0  0  0  0  0
  -31.6720  -14.1460   19.8750 N   0  0  0  0  0  0  0  0  0  0  0  0
  -33.4570  -15.3710   19.1840 O   0  0  0  0  0  0  0  0  0  0  0  0
  -31.9660  -16.2750   20.6300 N   0  0  0  0  0  0  0  0  0  0  0  0
  -31.1720  -16.0210   21.1990 H   0  0  0  0  0  0  0  0  0  0  0  0
  -27.0280  -14.9770   20.3590 C   0  0  0  0  0  0  0  0  0  0  0  0
  -25.8880  -14.3220   20.7450 C   0  0  0  0  0  0  0  0  0  0  0  0
  -26.1560  -12.9290   20.5700 C   0  0  0  0  0  0  0  0  0  0  0  0
  -27.9240  -13.9890   19.9800 N   0  0  0  0  0  0  0  0  0  0  0  0
  -27.4040  -12.7480   20.1590 N   0  0  0  0  0  0  0  0  0  0  0  0
  -25.2790  -11.7610   20.7110 C   0  0  0  0  0  0  0  0  0  0  0  0
  -25.6120  -10.6850   21.5630 C   0  0  0  0  0  3  0  0  0  0  0  0
  -24.7420   -9.5820   21.6980 C   0  0  0  0  0  3  0  0  0  0  0  0
  -23.5240   -9.5480   20.9790 C   0  0  0  0  0  0  0  0  0  0  0  0
  -23.2090  -10.6090   20.1130 C   0  0  0  0  0  3  0  0  0  0  0  0
  -24.0790  -11.7040   19.9750 C   0  0  0  0  0  3  0  0  0  0  0  0
  -22.6320   -8.5050   21.0250 O   0  0  0  0  0  0  0  0  0  0  0  0
  -22.4010   -7.8060   22.1830 C   0  0  0  0  0  0  0  0  0  0  0  0
  -21.9680   -8.4420   23.3660 C   0  0  0  0  0  3  0  0  0  0  0  0
  -21.6790   -7.6760   24.5130 C   0  0  0  0  0  3  0  0  0  0  0  0
  -21.8120   -6.2760   24.4780 C   0  0  0  0  0  0  0  0  0  0  0  0
  -22.2390   -5.6390   23.3000 C   0  0  0  0  0  3  0  0  0  0  0  0
  -22.5300   -6.4020   22.1550 C   0  0  0  0  0  0  0  0  0  0  0  0
  -22.9210   -5.7810   21.0160 F   0  0  0  0  0  0  0  0  0  0  0  0
  -21.5260   -5.5380   25.5770 F   0  0  0  0  0  0  0  0  0  0  0  0
  -24.5900  -14.9510   21.1640 C   0  0  0  0  0  0  0  0  0  0  0  0
  -23.8390  -14.2860   22.0370 N   0  0  0  0  0  0  0  0  0  0  0  0
  -24.2570  -16.0620   20.7550 O   0  0  0  0  0  0  0  0  0  0  0  0
  -24.1220  -13.3840   22.3890 H   0  0  0  0  0  0  0  0  0  0  0  0
  -22.9720  -14.6880   22.3640 H   0  0  0  0  0  0  0  0  0  0  0  0
  -27.3760  -16.3220   20.2790 N   0  0  0  0  0  0  0  0  0  0  0  0
  -26.7310  -17.0720   20.5020 H   0  0  0  0  0  0  0  0  0  0  0  0
  -28.2740  -16.6610   19.9510 H   0  0  0  0  0  0  0  0  0  0  0  0
  -29.4810  -23.9910   22.9320 C   0  0  0  0  0  2  0  0  0  0  0  0
  -29.8300  -24.2100   21.4540 C   0  0  0  0  0  0  0  0  0  0  0  0
  -30.8990  -23.7670   21.0230 O   0  0  0  0  0  0  0  0  0  0  0  0
  -29.1470  -24.6230   19.0660 C   0  0  0  0  0  1  0  0  0  0  0  0
  -27.4000  -24.5550   20.8660 C   0  0  0  0  0  1  0  0  0  0  0  0
  -28.8460  -24.9980   20.5390 C   0  0  1  0  0  0  0  0  0  0  0  0
  -29.0460  -26.5380   20.7460 C   0  0  0  0  0  2  0  0  0  0  0  0
  -28.6190  -27.3530   19.6420 O   0  0  0  0  0  0  0  0  0  0  0  0
  -24.9650  -31.7850   23.8460 C   0  0  0  0  0  0  0  0  0  0  0  0
  -27.4710  -28.0730   19.8540 C   0  0  0  0  0  0  0  0  0  0  0  0
  -23.6930  -30.7430   21.9980 C   0  0  0  0  0  3  0  0  0  0  0  0
  -25.0880  -29.5300   20.2410 C   0  0  0  0  0  0  0  0  0  0  0  0
  -26.2100  -31.1420   21.7890 C   0  0  0  0  0  2  0  0  0  0  0  0
  -26.2660  -29.9240   20.8930 C   0  0  0  0  0  0  0  0  0  0  0  0
  -27.4620  -29.1970   20.7070 C   0  0  0  0  0  3  0  0  0  0  0  0
  -26.2920  -27.7080   19.1770 C   0  0  0  0  0  3  0  0  0  0  0  0
  -25.0940  -28.4170   19.3820 C   0  0  0  0  0  3  0  0  0  0  0  0
  -23.8500  -30.3580   20.5020 C   0  0  0  0  0  2  0  0  0  0  0  0
  -24.9760  -31.2280   22.6030 N   0  0  0  0  0  0  0  0  0  0  0  0
  -23.9070  -31.9390   24.4710 O   0  0  0  0  0  0  0  0  0  0  0  0
  -23.0750  -29.5460   22.7540 C   0  0  0  0  0  0  0  0  0  0  0  0
  -21.7770  -29.2930   22.5160 N   0  0  0  0  0  0  0  0  0  0  0  0
  -23.7600  -28.8520   23.5090 O   0  0  0  0  0  0  0  0  0  0  0  0
  -21.2820  -29.9130   21.8900 H   0  0  0  0  0  0  0  0  0  0  0  0
  -18.5400  -27.6940   22.4510 C   0  0  0  0  0  0  0  0  0  0  0  0
  -20.9940  -28.1970   23.0860 C   0  0  0  0  0  3  0  0  0  0  0  0
  -21.3390  -26.8530   22.4040 C   0  0  0  0  0  2  0  0  0  0  0  0
  -20.4170  -26.5180   21.2270 C   0  0  0  0  0  2  0  0  0  0  0  0
  -18.9600  -26.4460   21.6910 C   0  0  0  0  0  2  0  0  0  0  0  0
  -19.4970  -28.5240   23.0930 C   0  0  0  0  0  0  0  0  0  0  0  0
  -19.0550  -29.6900   23.7540 C   0  0  0  0  0  3  0  0  0  0  0  0
  -17.6880  -30.0270   23.7860 C   0  0  0  0  0  3  0  0  0  0  0  0
  -16.7450  -29.1930   23.1630 C   0  0  0  0  0  3  0  0  0  0  0  0
  -17.1700  -28.0270   22.5010 C   0  0  0  0  0  3  0  0  0  0  0  0
  -26.2770  -32.2790   24.5310 C   0  0  0  0  0  3  0  0  0  0  0  0
  -26.0330  -33.6450   25.0140 N   0  0  0  0  0  0  0  0  0  0  0  0
  -26.4830  -34.7550   24.4160 C   0  0  0  0  0  0  0  0  0  0  0  0
  -27.2170  -34.7320   23.4240 O   0  0  0  0  0  0  0  0  0  0  0  0
  -25.3890  -33.7410   25.7860 H   0  0  0  0  0  0  0  0  0  0  0  0
  -24.9270  -36.7150   24.1590 C   0  0  0  0  0  1  0  0  0  0  0  0
  -26.0520  -36.1080   25.0120 C   0  0  0  0  0  3  0  0  0  0  0  0
  -28.1600  -36.6940   26.1280 C   0  0  0  0  0  1  0  0  0  0  0  0
  -27.1620  -37.0790   25.1340 N   0  0  0  0  0  0  0  0  0  0  0  0
  -26.8080  -38.0010   25.3770 H   0  0  0  0  0  0  0  0  0  0  0  0
  -26.7550  -31.3460   25.7100 C   0  0  1  0  0  0  0  0  0  0  0  0
  -25.6370  -31.0000   26.7210 C   0  0  0  0  0  1  0  0  0  0  0  0
  -27.3170  -30.0130   25.1600 C   0  0  0  0  0  1  0  0  0  0  0  0
  -27.9060  -32.0280   26.4850 C   0  0  0  0  0  1  0  0  0  0  0  0
  3  2  1  0
  3  1  1  0
  3  4  1  0
  5  4  1  0
  6 10  1  0
  7 11  2  0
  7  9  1  0
  8 10  2  0
  9  6  2  0
 10  5  1  0
 11  8  1  0
 12 11  1  0
 13 19  1  0
 13 21  1  0
 14 19  1  0
 15 16  1  0
 15 14  1  0
 17 16  1  0
 17 26  1  0
 17 18  1  0
 19 18  1  0
 20 13  2  0
 21  9  1  0
 21 22  1  0
 23 24  2  0
 24 43  1  0
 25 28  1  0
 25 24  1  0
 26 27  1  0
 26 23  1  0
 27 25  2  0
 28 29  1  0
 29 30  2  0
 31 34  1  0
 31 30  1  0
 32 31  2  0
 33 32  1  0
 33 28  2  0
 34 35  1  0
 35 36  1  0
 36 37  2  0
 38 37  1  0
 38 42  1  0
 39 38  2  0
 40 35  2  0
 40 39  1  0
 41 40  1  0
 43 44  1  0
 44 47  1  0
 44 46  1  0
 45 43  2  0
 48 23  1  0
 48 49  1  0
 50 48  1  0
 51  1  1  0
 52 51  1  0
 53 52  2  0
 56 54  1  6
 56 57  1  0
 56 55  1  0
 56 52  1  0
 58 60  1  0
 58 57  1  0
 59 70  2  0
 60 65  1  0
 61 69  1  0
 61 71  1  0
 62 68  1  0
 62 64  1  0
 63 69  1  0
 64 63  1  0
 65 64  2  0
 66 67  1  0
 66 60  2  0
 67 62  2  0
 68 61  1  0
 69 59  1  0
 71 73  2  0
 72 71  1  0
 74 72  1  0
 75 84  2  0
 75 80  1  0
 76 72  1  0
 76 80  1  0
 77 76  1  0
 78 79  1  0
 78 77  1  0
 79 75  1  0
 80 81  2  0
 81 82  1  0
 83 82  2  0
 84 83  1  0
 85 59  1  0
 85 86  1  0
 85 95  1  0
 86 89  1  0
 87 91  1  0
 87 86  1  0
 88 87  2  0
 91 90  1  0
 91 93  1  0
 93 94  1  0
 93 92  1  0
 95 98  1  1
 95 96  1  0
 97 95  1  0
M  ISO  4  13 100  21 100  57 101  58 101
M  END
>  <TORSDO>  (18) 
F 24

>  <SCORE>  (18) 
-6.751

>  <name>  (18) 
17

>  <ligand_id>  (18) 
17

>  <original_smiles>  (18) 
[H]c1c([H])c([H])c2c(c1[H])C([H])([H])C([H])([H])C([H])([H])C2([H])N([H])C(=O)C1([H])N(C(=O)C([H])(N([H])C(=O)C([H])(N([H])C([H])([H])[H])C([H])([H])[H])C(C([H])([H])[H])(C([H])([H])[H])C([H])([H])[H])C([H])([H])c2c([H])c(OC([H])([H])C(C(=O)C([H])([H])C([H])([H])C([H])(C([H])([H])[H])C([H])([H])Oc3c([H])c(F)c([H])c(N([H])C(=O)N4C([H])([H])C([H])([H])C([H])([H])C([H])(n5nc(-c6c([H])c([H])c(Oc7c([H])c([H])c(F)c([H])c7F)c([H])c6[H])c(C(=O)N([H])[H])c5N([H])[H])C4([H])[H])c3[H])(C([H])([H])[H])C([H])([H])[H])c([H])c([H])c2C1([H])[H]

>  <smiles>  (18) 
[H]c1c([H])c([H])c2c(c1[H])C([H])([H])C([H])([H])C([H])([H])C2([H])N([H])C(=O)C1([H])N(C(=O)C([H])(N([H])C(=O)C([H])(N([H])C([H])([H])[H])C([H])([H])[H])C(C([H])([H])[H])(C([H])([H])[H])C([H])([H])[H])C([H])([H])c2c([H])c(OC([H])([H])C(C(=O)C([H])([H])C([H])([H])C([H])(C([H])([H])[H])C([H])([H])Oc3c([H])c(F)c([H])c(N([H])C(=O)N4C([H])([H])C([H])([H])C([H])([H])C([H])(n5nc(-c6c([H])c([H])c(Oc7c([H])c([H])c(F)c([H])c7F)c([H])c6[H])c(C(=O)N([H])[H])c5N([H])[H])C4([H])[H])c3[H])(C([H])([H])[H])C([H])([H])[H])c([H])c([H])c2C1([H])[H]

$$$$
18:0:0
     RDKit          3D

 92101  0  0  1  0  0  0  0  0999 V2000
  -29.1220  -22.7800   20.2960 C   0  0  0  0  0  0  0  0  0  0  0  0
  -28.5350  -23.9630   19.9100 C   0  0  0  0  0  0  0  0  0  0  0  0
  -29.8560  -22.4880   21.5830 C   0  0  0  0  0  2  0  0  0  0  0  0
  -29.1270  -21.4510   19.5220 C   0  0  0  0  0  2  0  0  0  0  0  0
  -30.5740  -21.1330   21.3660 C   0  0  0  0  0  2  0  0  0  0  0  0
  -27.8430  -24.0550   18.5600 C   0  0  0  0  0  1  0  0  0  0  0  0
  -29.9570  -20.4500   20.2270 N   0  0  0  0  0  0  0  0  0  0  0  0
  -30.4050  -17.9190   20.4410 C   0  0  0  0  0  3  0  0  0  0  0  0
  -28.2190  -18.7280   20.5440 C   0  0  0  0  0  3  0  0  0  0  0  0
  -29.5300  -19.0860   20.3900 C   0  0  0  0  0  0  0  0  0  0  0  0
  -29.7430  -16.7090   20.6580 C   0  0  0  0  0  0  0  0  0  0  0  0
  -28.0280  -17.0180   20.7890 S   0  0  0  0  0  0  0  0  0  0  0  0
  -30.7230  -14.4990   20.0390 C   0  0  0  0  0  0  0  0  0  0  0  0
  -30.4540  -12.2630   18.9740 C   0  0  0  0  0  2  0  0  0  0  0  0
  -29.4620  -12.3800   17.7930 C   0  0  0  0  0  2  0  0  0  0  0  0
  -28.0030  -12.2510   18.2740 C   0  0  0  0  0  2  0  0  0  0  0  0
  -27.7030  -13.1500   19.5010 C   0  0  0  0  0  3  0  0  0  0  0  0
  -28.7890  -12.9640   20.5830 C   0  0  0  0  0  2  0  0  0  0  0  0
  -30.1000  -13.2810   19.9830 N   0  0  0  0  0  0  0  0  0  0  0  0
  -31.7640  -14.7410   19.4190 O   0  0  0  0  0  0  0  0  0  0  0  0
  -30.1280  -15.4020   20.8550 N   0  0  0  0  0  0  0  0  0  0  0  0
  -29.5010  -14.9180   21.4800 H   0  0  0  0  0  0  0  0  0  0  0  0
  -25.3570  -13.8150   20.3250 C   0  0  0  0  0  0  0  0  0  0  0  0
  -24.2850  -13.0680   20.7330 C   0  0  0  0  0  0  0  0  0  0  0  0
  -24.7030  -11.7040   20.6600 C   0  0  0  0  0  0  0  0  0  0  0  0
  -26.3650  -12.9070   20.0330 N   0  0  0  0  0  0  0  0  0  0  0  0
  -25.9760  -11.6320   20.2920 N   0  0  0  0  0  0  0  0  0  0  0  0
  -23.9500  -10.4610   20.8660 C   0  0  0  0  0  0  0  0  0  0  0  0
  -24.3610   -9.4950   21.8120 C   0  0  0  0  0  3  0  0  0  0  0  0
  -23.6100   -8.3160   22.0020 C   0  0  0  0  0  3  0  0  0  0  0  0
  -22.4340   -8.0940   21.2470 C   0  0  0  0  0  0  0  0  0  0  0  0
  -22.0430   -9.0480   20.2900 C   0  0  0  0  0  3  0  0  0  0  0  0
  -22.7940  -10.2180   20.0970 C   0  0  0  0  0  3  0  0  0  0  0  0
  -21.6550   -6.9670   21.3460 O   0  0  0  0  0  0  0  0  0  0  0  0
  -21.5400   -6.2730   22.5230 C   0  0  0  0  0  0  0  0  0  0  0  0
  -21.0650   -6.8830   23.7050 C   0  0  0  0  0  3  0  0  0  0  0  0
  -20.8970   -6.1150   24.8750 C   0  0  0  0  0  3  0  0  0  0  0  0
  -21.1940   -4.7400   24.8640 C   0  0  0  0  0  0  0  0  0  0  0  0
  -21.6620   -4.1290   23.6870 C   0  0  0  0  0  3  0  0  0  0  0  0
  -21.8320   -4.8940   22.5200 C   0  0  0  0  0  0  0  0  0  0  0  0
  -22.2630   -4.2960   21.3830 F   0  0  0  0  0  0  0  0  0  0  0  0
  -21.0240   -3.9990   25.9850 F   0  0  0  0  0  0  0  0  0  0  0  0
  -22.9160  -13.5810   21.0790 C   0  0  0  0  0  0  0  0  0  0  0  0
  -22.2140  -12.9000   21.9790 N   0  0  0  0  0  0  0  0  0  0  0  0
  -22.4800  -14.6210   20.5870 O   0  0  0  0  0  0  0  0  0  0  0  0
  -22.5830  -12.0590   22.3970 H   0  0  0  0  0  0  0  0  0  0  0  0
  -21.2980  -13.2250   22.2520 H   0  0  0  0  0  0  0  0  0  0  0  0
  -25.5490  -15.1820   20.1590 N   0  0  0  0  0  0  0  0  0  0  0  0
  -24.8100  -15.8560   20.3260 H   0  0  0  0  0  0  0  0  0  0  0  0
  -26.4040  -15.6050   19.8220 H   0  0  0  0  0  0  0  0  0  0  0  0
  -28.3680  -25.2400   20.8060 C   0  0  0  0  0  2  0  0  0  0  0  0
  -28.4600  -26.5710   20.1810 O   0  0  0  0  0  0  0  0  0  0  0  0
  -24.5080  -31.8270   23.1540 C   0  0  0  0  0  0  0  0  0  0  0  0
  -27.3090  -27.3620   20.1740 C   0  0  0  0  0  0  0  0  0  0  0  0
  -23.3780  -30.3980   21.4860 C   0  0  0  0  0  3  0  0  0  0  0  0
  -24.9000  -28.8850   20.1040 C   0  0  0  0  0  0  0  0  0  0  0  0
  -25.9080  -30.7900   21.3590 C   0  0  0  0  0  2  0  0  0  0  0  0
  -26.0400  -29.4150   20.7200 C   0  0  0  0  0  0  0  0  0  0  0  0
  -27.2510  -28.6670   20.7460 C   0  0  0  0  0  3  0  0  0  0  0  0
  -26.1480  -26.8760   19.5430 C   0  0  0  0  0  3  0  0  0  0  0  0
  -24.9510  -27.6150   19.5100 C   0  0  0  0  0  3  0  0  0  0  0  0
  -23.6430  -29.7260   20.1120 C   0  0  0  0  0  2  0  0  0  0  0  0
  -24.6160  -31.0200   22.0580 N   0  0  0  0  0  0  0  0  0  0  0  0
  -23.4070  -32.0770   23.6650 O   0  0  0  0  0  0  0  0  0  0  0  0
  -22.7170  -29.3650   22.4300 C   0  0  0  0  0  0  0  0  0  0  0  0
  -21.3980  -29.1690   22.2820 N   0  0  0  0  0  0  0  0  0  0  0  0
  -23.3940  -28.7430   23.2560 O   0  0  0  0  0  0  0  0  0  0  0  0
  -20.9100  -29.7220   21.5910 H   0  0  0  0  0  0  0  0  0  0  0  0
  -18.0260  -27.9520   22.7490 C   0  0  0  0  0  0  0  0  0  0  0  0
  -20.5810  -28.2170   23.0360 C   0  0  0  0  0  3  0  0  0  0  0  0
  -20.6940  -26.7940   22.4420 C   0  0  0  0  0  2  0  0  0  0  0  0
  -19.5990  -26.4820   21.4180 C   0  0  0  0  0  2  0  0  0  0  0  0
  -18.2130  -26.6120   22.0550 C   0  0  0  0  0  2  0  0  0  0  0  0
  -19.1400  -28.7120   23.1960 C   0  0  0  0  0  0  0  0  0  0  0  0
  -18.9130  -29.9640   23.8040 C   0  0  0  0  0  3  0  0  0  0  0  0
  -17.6050  -30.4600   23.9700 C   0  0  0  0  0  3  0  0  0  0  0  0
  -16.5050  -29.6960   23.5400 C   0  0  0  0  0  3  0  0  0  0  0  0
  -16.7170  -28.4430   22.9350 C   0  0  0  0  0  3  0  0  0  0  0  0
  -25.7610  -32.4870   23.8050 C   0  0  0  0  0  3  0  0  0  0  0  0
  -25.4100  -33.8750   24.1380 N   0  0  0  0  0  0  0  0  0  0  0  0
  -25.7160  -34.9390   23.3850 C   0  0  0  0  0  0  0  0  0  0  0  0
  -26.3920  -34.8600   22.3560 O   0  0  0  0  0  0  0  0  0  0  0  0
  -24.8120  -34.0090   24.9400 H   0  0  0  0  0  0  0  0  0  0  0  0
  -23.9360  -36.6780   23.0280 C   0  0  0  0  0  1  0  0  0  0  0  0
  -25.1850  -36.3110   23.8440 C   0  0  0  0  0  3  0  0  0  0  0  0
  -27.2880  -37.2560   24.6890 C   0  0  0  0  0  1  0  0  0  0  0  0
  -26.1860  -37.3940   23.7410 N   0  0  0  0  0  0  0  0  0  0  0  0
  -25.7520  -38.3010   23.8900 H   0  0  0  0  0  0  0  0  0  0  0  0
  -26.2740  -31.7210   25.0860 C   0  0  1  0  0  0  0  0  0  0  0  0
  -25.1630  -31.4380   26.1230 C   0  0  0  0  0  1  0  0  0  0  0  0
  -26.9120  -30.3680   24.6950 C   0  0  0  0  0  1  0  0  0  0  0  0
  -27.3760  -32.5480   25.7870 C   0  0  0  0  0  1  0  0  0  0  0  0
  1  3  1  0
  2  1  2  0
  2 51  1  0
  4  7  1  0
  4  1  1  0
  5  3  1  0
  6  2  1  0
  7 10  1  0
  7  5  1  0
  8 11  2  0
  9 12  1  0
 10  8  1  0
 10  9  2  0
 11 12  1  0
 11 21  1  0
 13 21  1  0
 14 19  1  0
 15 16  1  0
 15 14  1  0
 17 16  1  0
 17 26  1  0
 17 18  1  0
 19 13  1  0
 19 18  1  0
 20 13  2  0
 21 22  1  0
 23 24  2  0
 24 43  1  0
 25 24  1  0
 25 28  1  0
 26 27  1  0
 26 23  1  0
 27 25  2  0
 28 29  1  0
 29 30  2  0
 31 34  1  0
 31 30  1  0
 32 31  2  0
 33 32  1  0
 33 28  2  0
 34 35  1  0
 35 36  1  0
 36 37  2  0
 38 37  1  0
 38 42  1  0
 39 38  2  0
 40 35  2  0
 40 39  1  0
 41 40  1  0
 43 44  1  0
 44 47  1  0
 44 46  1  0
 45 43  2  0
 48 23  1  0
 48 49  1  0
 50 48  1  0
 52 51  1  0
 53 64  2  0
 54 52  1  0
 54 59  1  0
 55 63  1  0
 55 65  1  0
 56 62  1  0
 56 58  1  0
 57 63  1  0
 58 59  2  0
 58 57  1  0
 60 54  2  0
 61 60  1  0
 61 56  2  0
 62 55  1  0
 63 53  1  0
 65 67  2  0
 66 65  1  0
 68 66  1  0
 69 78  2  0
 69 74  1  0
 70 66  1  0
 70 74  1  0
 71 70  1  0
 72 73  1  0
 72 71  1  0
 73 69  1  0
 74 75  2  0
 75 76  1  0
 77 76  2  0
 78 77  1  0
 79 53  1  0
 79 80  1  0
 79 89  1  0
 80 83  1  0
 81 85  1  0
 81 80  1  0
 82 81  2  0
 85 84  1  0
 87 85  1  0
 87 88  1  0
 87 86  1  0
 89 92  1  1
 89 90  1  0
 91 89  1  0
M  ISO  4  13 100  21 100  51 101  52 101
M  END
>  <TORSDO>  (19) 
F 18

>  <SCORE>  (19) 
-14.198

>  <name>  (19) 
18

>  <ligand_id>  (19) 
18

>  <original_smiles>  (19) 
[H]c1sc(N([H])C(=O)N2C([H])([H])C([H])([H])C([H])([H])C([H])(n3nc(-c4c([H])c([H])c(Oc5c([H])c([H])c(F)c([H])c5F)c([H])c4[H])c(C(=O)N([H])[H])c3N([H])[H])C2([H])[H])c([H])c1N1C([H])([H])C(=C(C([H])([H])[H])C([H])([H])Oc2c([H])c([H])c3c(c2[H])C([H])([H])N(C(=O)C([H])(N([H])C(=O)C([H])(N([H])C([H])([H])[H])C([H])([H])[H])C(C([H])([H])[H])(C([H])([H])[H])C([H])([H])[H])C([H])(C(=O)N([H])C2([H])c4c([H])c([H])c([H])c([H])c4C([H])([H])C([H])([H])C2([H])[H])C3([H])[H])C([H])([H])C1([H])[H]

>  <smiles>  (19) 
[H]c1sc(N([H])C(=O)N2C([H])([H])C([H])([H])C([H])([H])C([H])(n3nc(-c4c([H])c([H])c(Oc5c([H])c([H])c(F)c([H])c5F)c([H])c4[H])c(C(=O)N([H])[H])c3N([H])[H])C2([H])[H])c([H])c1N1C([H])([H])C(=C(C([H])([H])[H])C([H])([H])Oc2c([H])c([H])c3c(c2[H])C([H])([H])N(C(=O)C([H])(N([H])C(=O)C([H])(N([H])C([H])([H])[H])C([H])([H])[H])C(C([H])([H])[H])(C([H])([H])[H])C([H])([H])[H])C([H])(C(=O)N([H])C2([H])c4c([H])c([H])c([H])c([H])c4C([H])([H])C([H])([H])C2([H])[H])C3([H])[H])C([H])([H])C1([H])[H]

$$$$
19:0:0
     RDKit          3D

 97106  0  0  1  0  0  0  0  0999 V2000
  -28.8420  -20.8700   21.0160 C   0  0  0  0  0  3  0  0  0  0  0  0
  -26.6210  -23.1430   19.3170 C   0  0  0  0  0  2  0  0  0  0  0  0
  -27.9370  -23.1680   18.5220 C   0  0  0  0  0  2  0  0  0  0  0  0
  -26.9660  -22.4070   20.6270 C   0  0  0  0  0  2  0  0  0  0  0  0
  -29.0170  -23.1220   19.6120 C   0  0  0  0  0  3  0  0  0  0  0  0
  -28.4150  -22.0890   20.5290 N   0  0  0  0  0  0  0  0  0  0  0  0
  -28.2090  -20.4240   22.1040 N   0  0  0  0  0  0  0  0  0  0  0  0
  -28.5600  -19.5930   22.5510 H   0  0  0  0  0  0  0  0  0  0  0  0
  -27.6120  -21.0320   22.6360 H   0  0  0  0  0  0  0  0  0  0  0  0
  -32.0830  -19.4720   19.5590 C   0  0  0  0  0  3  0  0  0  0  0  0
  -31.0870  -20.3990   19.9280 C   0  0  0  0  0  3  0  0  0  0  0  0
  -31.9050  -18.0820   19.7470 C   0  0  0  0  0  3  0  0  0  0  0  0
  -29.7100  -18.5170   20.6580 C   0  0  0  0  0  3  0  0  0  0  0  0
  -29.8850  -19.9360   20.4950 C   0  0  0  0  0  0  0  0  0  0  0  0
  -30.7080  -17.5580   20.3010 C   0  0  0  0  0  0  0  0  0  0  0  0
  -31.1970  -15.0300   20.1640 C   0  0  0  0  0  0  0  0  0  0  0  0
  -30.9230  -12.7650   19.1960 C   0  0  0  0  0  2  0  0  0  0  0  0
  -29.9640  -12.8440   17.9900 C   0  0  0  0  0  2  0  0  0  0  0  0
  -28.5000  -12.7100   18.4470 C   0  0  0  0  0  2  0  0  0  0  0  0
  -28.1600  -13.6270   19.6520 C   0  0  0  0  0  3  0  0  0  0  0  0
  -29.2360  -13.5380   20.7580 C   0  0  0  0  0  2  0  0  0  0  0  0
  -30.5400  -13.8300   20.1450 N   0  0  0  0  0  0  0  0  0  0  0  0
  -32.3510  -15.1240   19.7420 O   0  0  0  0  0  0  0  0  0  0  0  0
  -30.4600  -16.1290   20.5100 N   0  0  0  0  0  0  0  0  0  0  0  0
  -29.5500  -15.8990   20.8760 H   0  0  0  0  0  0  0  0  0  0  0  0
  -25.8130  -14.2550   20.4850 C   0  0  0  0  0  0  0  0  0  0  0  0
  -24.7360  -13.4930   20.8510 C   0  0  0  0  0  0  0  0  0  0  0  0
  -25.1560  -12.1330   20.7360 C   0  0  0  0  0  0  0  0  0  0  0  0
  -26.8220  -13.3600   20.1690 N   0  0  0  0  0  0  0  0  0  0  0  0
  -26.4340  -12.0750   20.3790 N   0  0  0  0  0  0  0  0  0  0  0  0
  -24.3990  -10.8830   20.8870 C   0  0  0  0  0  0  0  0  0  0  0  0
  -24.7980   -9.8840   21.8030 C   0  0  0  0  0  3  0  0  0  0  0  0
  -24.0440   -8.6990   21.9440 C   0  0  0  0  0  3  0  0  0  0  0  0
  -22.8770   -8.5040   21.1700 C   0  0  0  0  0  0  0  0  0  0  0  0
  -22.4950   -9.4910   20.2450 C   0  0  0  0  0  3  0  0  0  0  0  0
  -23.2500  -10.6680   20.1000 C   0  0  0  0  0  3  0  0  0  0  0  0
  -22.0950   -7.3750   21.2220 O   0  0  0  0  0  0  0  0  0  0  0  0
  -21.9690   -6.6380   22.3730 C   0  0  0  0  0  0  0  0  0  0  0  0
  -21.4620   -7.2000   23.5650 C   0  0  0  0  0  3  0  0  0  0  0  0
  -21.2820   -6.3920   24.7040 C   0  0  0  0  0  3  0  0  0  0  0  0
  -21.5990   -5.0210   24.6530 C   0  0  0  0  0  0  0  0  0  0  0  0
  -22.0990   -4.4570   23.4650 C   0  0  0  0  0  3  0  0  0  0  0  0
  -22.2810   -5.2640   22.3280 C   0  0  0  0  0  0  0  0  0  0  0  0
  -22.7420   -4.7120   21.1790 F   0  0  0  0  0  0  0  0  0  0  0  0
  -21.4190   -4.2410   25.7450 F   0  0  0  0  0  0  0  0  0  0  0  0
  -23.3630  -13.9960   21.1900 C   0  0  0  0  0  0  0  0  0  0  0  0
  -22.6500  -13.2910   22.0610 N   0  0  0  0  0  0  0  0  0  0  0  0
  -22.9330  -15.0490   20.7210 O   0  0  0  0  0  0  0  0  0  0  0  0
  -23.0110  -12.4410   22.4670 H   0  0  0  0  0  0  0  0  0  0  0  0
  -21.7280  -13.6090   22.3270 H   0  0  0  0  0  0  0  0  0  0  0  0
  -26.0090  -15.6290   20.3710 N   0  0  0  0  0  0  0  0  0  0  0  0
  -25.2610  -16.2900   20.5470 H   0  0  0  0  0  0  0  0  0  0  0  0
  -26.8320  -16.0640   19.9690 H   0  0  0  0  0  0  0  0  0  0  0  0
  -29.1630  -24.5650   20.2950 C   0  0  0  0  0  0  0  0  0  0  0  0
  -29.1780  -24.6850   21.5250 O   0  0  0  0  0  0  0  0  0  0  0  0
  -29.2910  -25.8600   19.4110 C   0  0  0  0  0  2  0  0  0  0  0  0
  -29.0650  -27.1330   20.1080 O   0  0  0  0  0  0  0  0  0  0  0  0
  -24.7550  -31.8440   23.3640 C   0  0  0  0  0  0  0  0  0  0  0  0
  -27.8430  -27.8080   20.0660 C   0  0  0  0  0  0  0  0  0  0  0  0
  -23.7260  -30.5090   21.5570 C   0  0  0  0  0  3  0  0  0  0  0  0
  -25.3480  -29.1940   20.0810 C   0  0  0  0  0  0  0  0  0  0  0  0
  -26.2310  -31.0390   21.5150 C   0  0  0  0  0  2  0  0  0  0  0  0
  -26.4440  -29.7310   20.7650 C   0  0  0  0  0  0  0  0  0  0  0  0
  -27.6900  -29.0480   20.7520 C   0  0  0  0  0  3  0  0  0  0  0  0
  -26.7170  -27.3000   19.3780 C   0  0  0  0  0  3  0  0  0  0  0  0
  -25.4830  -27.9800   19.3860 C   0  0  0  0  0  3  0  0  0  0  0  0
  -24.0470  -29.9690   20.1370 C   0  0  0  0  0  2  0  0  0  0  0  0
  -24.9190  -31.1440   22.2050 N   0  0  0  0  0  0  0  0  0  0  0  0
  -23.6350  -31.9940   23.8720 O   0  0  0  0  0  0  0  0  0  0  0  0
  -23.1120  -29.3660   22.3990 C   0  0  0  0  0  0  0  0  0  0  0  0
  -21.8040  -29.1180   22.2140 N   0  0  0  0  0  0  0  0  0  0  0  0
  -23.8110  -28.7100   23.1740 O   0  0  0  0  0  0  0  0  0  0  0  0
  -21.2960  -29.7170   21.5770 H   0  0  0  0  0  0  0  0  0  0  0  0
  -18.5000  -27.6820   22.4990 C   0  0  0  0  0  0  0  0  0  0  0  0
  -21.0290  -28.0640   22.8690 C   0  0  0  0  0  3  0  0  0  0  0  0
  -21.2350  -26.7000   22.1660 C   0  0  0  0  0  2  0  0  0  0  0  0
  -20.1780  -26.4080   21.0950 C   0  0  0  0  0  2  0  0  0  0  0  0
  -18.7730  -26.4170   21.7060 C   0  0  0  0  0  2  0  0  0  0  0  0
  -19.5590  -28.4640   23.0320 C   0  0  0  0  0  0  0  0  0  0  0  0
  -19.2520  -29.6500   23.7320 C   0  0  0  0  0  3  0  0  0  0  0  0
  -17.9160  -30.0600   23.9040 C   0  0  0  0  0  3  0  0  0  0  0  0
  -16.8700  -29.2750   23.3870 C   0  0  0  0  0  3  0  0  0  0  0  0
  -17.1630  -28.0880   22.6910 C   0  0  0  0  0  3  0  0  0  0  0  0
  -25.9630  -32.5120   24.0910 C   0  0  0  0  0  3  0  0  0  0  0  0
  -26.3730  -31.7730   25.4240 C   0  0  1  0  0  0  0  0  0  0  0  0
  -25.1890  -31.5240   26.3870 C   0  0  0  0  0  1  0  0  0  0  0  0
  -27.0250  -30.4050   25.1130 C   0  0  0  0  0  1  0  0  0  0  0  0
  -27.4340  -32.6050   26.1830 C   0  0  0  0  0  1  0  0  0  0  0  0
  -25.5990  -33.9090   24.3670 N   0  0  0  0  0  0  0  0  0  0  0  0
  -25.9790  -34.9550   23.6190 C   0  0  0  0  0  0  0  0  0  0  0  0
  -26.7410  -34.8480   22.6550 O   0  0  0  0  0  0  0  0  0  0  0  0
  -24.9420  -34.0650   25.1160 H   0  0  0  0  0  0  0  0  0  0  0  0
  -24.2540  -36.7030   23.0760 C   0  0  0  0  0  1  0  0  0  0  0  0
  -25.4250  -36.3400   24.0030 C   0  0  0  0  0  3  0  0  0  0  0  0
  -27.4550  -37.2930   25.0050 C   0  0  0  0  0  1  0  0  0  0  0  0
  -26.4420  -37.4150   23.9610 N   0  0  0  0  0  0  0  0  0  0  0  0
  -26.0030  -38.3280   24.0480 H   0  0  0  0  0  0  0  0  0  0  0  0
  1  7  1  0
  2  4  1  0
  3  2  1  0
  3  5  1  0
  5 54  1  0
  5  6  1  0
  6  4  1  0
  6  1  1  0
  7  8  1  0
  7  9  1  0
 10 12  2  0
 10 11  1  0
 11 14  2  0
 12 15  1  0
 14 13  1  0
 14  1  1  0
 15 24  1  0
 15 13  2  0
 16 24  1  0
 17 22  1  0
 18 19  1  0
 18 17  1  0
 20 19  1  0
 20 29  1  0
 20 21  1  0
 22 16  1  0
 22 21  1  0
 23 16  2  0
 24 25  1  0
 26 27  2  0
 27 46  1  0
 28 27  1  0
 28 31  1  0
 29 30  1  0
 29 26  1  0
 30 28  2  0
 31 32  1  0
 32 33  2  0
 34 37  1  0
 34 33  1  0
 35 34  2  0
 36 35  1  0
 36 31  2  0
 37 38  1  0
 38 39  1  0
 39 40  2  0
 41 40  1  0
 41 45  1  0
 42 41  2  0
 43 38  2  0
 43 42  1  0
 44 43  1  0
 46 47  1  0
 47 50  1  0
 47 49  1  0
 48 46  2  0
 51 26  1  0
 51 52  1  0
 53 51  1  0
 54 55  2  0
 56 57  1  0
 56 54  1  0
 58 69  2  0
 59 57  1  0
 59 64  1  0
 60 68  1  0
 60 70  1  0
 61 67  1  0
 61 63  1  0
 62 68  1  0
 63 62  1  0
 64 63  2  0
 65 66  1  0
 65 59  2  0
 66 61  2  0
 67 60  1  0
 68 58  1  0
 70 72  2  0
 71 70  1  0
 73 71  1  0
 74 83  2  0
 74 79  1  0
 75 71  1  0
 75 79  1  0
 76 75  1  0
 77 78  1  0
 77 76  1  0
 78 74  1  0
 79 80  2  0
 80 81  1  0
 82 81  2  0
 83 82  1  0
 84 58  1  0
 84 89  1  0
 84 85  1  0
 85 88  1  1
 85 86  1  0
 87 85  1  0
 89 92  1  0
 90 94  1  0
 90 89  1  0
 91 90  2  0
 94 93  1  0
 96 94  1  0
 96 97  1  0
 96 95  1  0
M  ISO  4  16 100  24 100  56 101  57 101
M  END
>  <TORSDO>  (20) 
F 19

>  <SCORE>  (20) 
-11.969

>  <name>  (20) 
19

>  <ligand_id>  (20) 
19

>  <original_smiles>  (20) 
[H]c1c([H])c(C(N2C([H])([H])C([H])([H])C([H])([H])C2([H])C(=O)C([H])([H])Oc2c([H])c([H])c3c(c2[H])C([H])([H])N(C(=O)C([H])(N([H])C(=O)C([H])(N([H])C([H])([H])[H])C([H])([H])[H])C(C([H])([H])[H])(C([H])([H])[H])C([H])([H])[H])C([H])(C(=O)N([H])C2([H])c4c([H])c([H])c([H])c([H])c4C([H])([H])C([H])([H])C2([H])[H])C3([H])[H])=[N+]([H])[H])c([H])c(N([H])C(=O)N2C([H])([H])C([H])([H])C([H])([H])C([H])(n3nc(-c4c([H])c([H])c(Oc5c([H])c([H])c(F)c([H])c5F)c([H])c4[H])c(C(=O)N([H])[H])c3N([H])[H])C2([H])[H])c1[H]

>  <smiles>  (20) 
[H]c1c([H])c(C(N2C([H])([H])C([H])([H])C([H])([H])C2([H])C(=O)C([H])([H])Oc2c([H])c([H])c3c(c2[H])C([H])([H])N(C(=O)C([H])(N([H])C(=O)C([H])(N([H])C([H])([H])[H])C([H])([H])[H])C(C([H])([H])[H])(C([H])([H])[H])C([H])([H])[H])C([H])(C(=O)N([H])C2([H])c4c([H])c([H])c([H])c([H])c4C([H])([H])C([H])([H])C2([H])[H])C3([H])[H])=[N+]([H])[H])c([H])c(N([H])C(=O)N2C([H])([H])C([H])([H])C([H])([H])C([H])(n3nc(-c4c([H])c([H])c(Oc5c([H])c([H])c(F)c([H])c5F)c([H])c4[H])c(C(=O)N([H])[H])c3N([H])[H])C2([H])[H])c1[H]

$$$$
20:0:0
     RDKit          3D

 94103  0  0  1  0  0  0  0  0999 V2000
  -29.6050  -22.1360   21.1150 C   0  0  0  0  0  2  0  0  0  0  0  0
  -30.7520  -19.1900   21.1080 C   0  0  0  0  0  3  0  0  0  0  0  0
  -30.8360  -17.7790   21.2720 C   0  0  0  0  0  3  0  0  0  0  0  0
  -28.7970  -17.4850   19.9650 C   0  0  0  0  0  3  0  0  0  0  0  0
  -28.7490  -18.8860   19.7940 C   0  0  0  0  0  0  0  0  0  0  0  0
  -29.6850  -19.7450   20.3630 C   0  0  0  0  0  0  0  0  0  0  0  0
  -29.8560  -16.9140   20.7120 C   0  0  0  0  0  0  0  0  0  0  0  0
  -27.7230  -19.6670   19.0350 C   0  0  0  0  0  3  0  0  0  0  0  0
  -28.2050  -21.1200   19.2380 C   0  0  0  0  0  3  0  0  0  0  0  0
  -29.4130  -21.1030   20.0780 N   0  0  0  0  0  0  0  0  0  0  0  0
  -30.6010  -14.5290   20.4840 C   0  0  0  0  0  0  0  0  0  0  0  0
  -30.3690  -12.3440   19.3500 C   0  0  0  0  0  2  0  0  0  0  0  0
  -29.4250  -12.5320   18.1430 C   0  0  0  0  0  2  0  0  0  0  0  0
  -27.9480  -12.3870   18.5640 C   0  0  0  0  0  2  0  0  0  0  0  0
  -27.5990  -13.2210   19.8260 C   0  0  0  0  0  3  0  0  0  0  0  0
  -28.6520  -12.9930   20.9350 C   0  0  0  0  0  2  0  0  0  0  0  0
  -29.9760  -13.3220   20.3770 N   0  0  0  0  0  0  0  0  0  0  0  0
  -31.7340  -14.7410   20.0430 O   0  0  0  0  0  0  0  0  0  0  0  0
  -29.8210  -15.5100   20.9920 N   0  0  0  0  0  0  0  0  0  0  0  0
  -28.9240  -15.1590   21.2880 H   0  0  0  0  0  0  0  0  0  0  0  0
  -25.1950  -13.8300   20.5140 C   0  0  0  0  0  0  0  0  0  0  0  0
  -24.1260  -13.0600   20.8850 C   0  0  0  0  0  0  0  0  0  0  0  0
  -24.5900  -11.7090   20.8680 C   0  0  0  0  0  0  0  0  0  0  0  0
  -26.2430  -12.9490   20.2970 N   0  0  0  0  0  0  0  0  0  0  0  0
  -25.8810  -11.6680   20.5650 N   0  0  0  0  0  0  0  0  0  0  0  0
  -23.8640  -10.4470   21.0650 C   0  0  0  0  0  0  0  0  0  0  0  0
  -24.3080   -9.4760   21.9890 C   0  0  0  0  0  3  0  0  0  0  0  0
  -23.5860   -8.2790   22.1730 C   0  0  0  0  0  3  0  0  0  0  0  0
  -22.4020   -8.0430   21.4330 C   0  0  0  0  0  0  0  0  0  0  0  0
  -21.9750   -9.0040   20.4990 C   0  0  0  0  0  3  0  0  0  0  0  0
  -22.7000  -10.1930   20.3120 C   0  0  0  0  0  3  0  0  0  0  0  0
  -21.6490   -6.8990   21.5280 O   0  0  0  0  0  0  0  0  0  0  0  0
  -21.6330   -6.1390   22.6710 C   0  0  0  0  0  0  0  0  0  0  0  0
  -21.2580   -6.6820   23.9190 C   0  0  0  0  0  3  0  0  0  0  0  0
  -21.1880   -5.8510   25.0550 C   0  0  0  0  0  3  0  0  0  0  0  0
  -21.4830   -4.4780   24.9430 C   0  0  0  0  0  0  0  0  0  0  0  0
  -21.8500   -3.9360   23.7000 C   0  0  0  0  0  3  0  0  0  0  0  0
  -21.9220   -4.7640   22.5660 C   0  0  0  0  0  0  0  0  0  0  0  0
  -22.2570   -4.2330   21.3650 F   0  0  0  0  0  0  0  0  0  0  0  0
  -21.4070   -3.6770   26.0320 F   0  0  0  0  0  0  0  0  0  0  0  0
  -22.7260  -13.5370   21.1460 C   0  0  0  0  0  0  0  0  0  0  0  0
  -21.9950  -12.8490   22.0160 N   0  0  0  0  0  0  0  0  0  0  0  0
  -22.2890  -14.5570   20.6150 O   0  0  0  0  0  0  0  0  0  0  0  0
  -22.3580  -12.0240   22.4700 H   0  0  0  0  0  0  0  0  0  0  0  0
  -21.0570  -13.1550   22.2320 H   0  0  0  0  0  0  0  0  0  0  0  0
  -25.3580  -15.1990   20.3210 N   0  0  0  0  0  0  0  0  0  0  0  0
  -24.5870  -15.8510   20.4060 H   0  0  0  0  0  0  0  0  0  0  0  0
  -26.1990  -15.6270   19.9610 H   0  0  0  0  0  0  0  0  0  0  0  0
  -31.5350  -23.1030   19.7900 C   0  0  0  0  0  1  0  0  0  0  0  0
  -30.8400  -24.1800   21.9070 C   0  0  0  0  0  1  0  0  0  0  0  0
  -30.3020  -23.4640   20.6500 C   0  0  2  0  0  0  0  0  0  0  0  0
  -29.4170  -24.4690   19.8200 C   0  0  0  0  0  2  0  0  0  0  0  0
  -28.3090  -25.3130   20.5230 C   0  0  0  0  0  2  0  0  0  0  0  0
  -28.3370  -26.6830   20.0600 O   0  0  0  0  0  0  0  0  0  0  0  0
  -24.5670  -31.8730   23.2120 C   0  0  0  0  0  0  0  0  0  0  0  0
  -27.1600  -27.4090   20.1050 C   0  0  0  0  0  0  0  0  0  0  0  0
  -23.3370  -30.4770   21.5840 C   0  0  0  0  0  3  0  0  0  0  0  0
  -24.7690  -28.9300   20.1440 C   0  0  0  0  0  0  0  0  0  0  0  0
  -25.8630  -30.8240   21.3550 C   0  0  0  0  0  2  0  0  0  0  0  0
  -25.9370  -29.4510   20.7140 C   0  0  0  0  0  0  0  0  0  0  0  0
  -27.1370  -28.7000   20.6860 C   0  0  0  0  0  3  0  0  0  0  0  0
  -25.9740  -26.9070   19.5260 C   0  0  0  0  0  3  0  0  0  0  0  0
  -24.7830  -27.6580   19.5470 C   0  0  0  0  0  3  0  0  0  0  0  0
  -23.5280  -29.7940   20.2030 C   0  0  0  0  0  2  0  0  0  0  0  0
  -24.6090  -31.0740   22.1080 N   0  0  0  0  0  0  0  0  0  0  0  0
  -23.4930  -32.1490   23.7650 O   0  0  0  0  0  0  0  0  0  0  0  0
  -22.6940  -29.4580   22.5520 C   0  0  0  0  0  0  0  0  0  0  0  0
  -21.3670  -29.2770   22.4370 N   0  0  0  0  0  0  0  0  0  0  0  0
  -23.3840  -28.8310   23.3600 O   0  0  0  0  0  0  0  0  0  0  0  0
  -20.8720  -29.8340   21.7540 H   0  0  0  0  0  0  0  0  0  0  0  0
  -17.9970  -28.0790   22.9560 C   0  0  0  0  0  0  0  0  0  0  0  0
  -20.5560  -28.3410   23.2140 C   0  0  0  0  0  3  0  0  0  0  0  0
  -20.6580  -26.9080   22.6400 C   0  0  0  0  0  2  0  0  0  0  0  0
  -19.5510  -26.5820   21.6320 C   0  0  0  0  0  2  0  0  0  0  0  0
  -18.1710  -26.7280   22.2820 C   0  0  0  0  0  2  0  0  0  0  0  0
  -19.1170  -28.8440   23.3780 C   0  0  0  0  0  0  0  0  0  0  0  0
  -18.9010  -30.1080   23.9660 C   0  0  0  0  0  3  0  0  0  0  0  0
  -17.5960  -30.6110   24.1360 C   0  0  0  0  0  3  0  0  0  0  0  0
  -16.4900  -29.8430   23.7310 C   0  0  0  0  0  3  0  0  0  0  0  0
  -16.6920  -28.5790   23.1470 C   0  0  0  0  0  3  0  0  0  0  0  0
  -25.8630  -32.4990   23.8180 C   0  0  0  0  0  3  0  0  0  0  0  0
  -26.4010  -31.7170   25.0790 C   0  0  1  0  0  0  0  0  0  0  0  0
  -25.3260  -31.4730   26.1640 C   0  0  0  0  0  1  0  0  0  0  0  0
  -26.9730  -30.3420   24.6640 C   0  0  0  0  0  1  0  0  0  0  0  0
  -27.5650  -32.5040   25.7260 C   0  0  0  0  0  1  0  0  0  0  0  0
  -25.5610  -33.8940   24.1630 N   0  0  0  0  0  0  0  0  0  0  0  0
  -25.8870  -34.9520   23.4080 C   0  0  0  0  0  0  0  0  0  0  0  0
  -26.5450  -34.8550   22.3680 O   0  0  0  0  0  0  0  0  0  0  0  0
  -24.9770  -34.0430   24.9730 H   0  0  0  0  0  0  0  0  0  0  0  0
  -24.1590  -36.7490   23.0820 C   0  0  0  0  0  1  0  0  0  0  0  0
  -25.4070  -36.3370   23.8800 C   0  0  0  0  0  3  0  0  0  0  0  0
  -27.5530  -37.2080   24.6940 C   0  0  0  0  0  1  0  0  0  0  0  0
  -26.4410  -37.3890   23.7650 N   0  0  0  0  0  0  0  0  0  0  0  0
  -26.0380  -38.3090   23.9240 H   0  0  0  0  0  0  0  0  0  0  0  0
  2  3  1  0
  4  7  1  0
  5  4  2  0
  5  6  1  0
  6  2  2  0
  7 19  1  0
  7  3  2  0
  8  9  2  0
  8  5  1  0
  9 10  1  0
 10  6  1  0
 10  1  1  0
 11 19  1  0
 12 17  1  0
 13 14  1  0
 13 12  1  0
 15 14  1  0
 15 24  1  0
 15 16  1  0
 17 11  1  0
 17 16  1  0
 18 11  2  0
 19 20  1  0
 21 22  2  0
 22 41  1  0
 23 22  1  0
 23 26  1  0
 24 21  1  0
 24 25  1  0
 25 23  2  0
 26 27  1  0
 27 28  2  0
 29 32  1  0
 29 28  1  0
 30 29  2  0
 31 30  1  0
 31 26  2  0
 32 33  1  0
 33 34  1  0
 34 35  2  0
 36 35  1  0
 36 40  1  0
 37 36  2  0
 38 33  2  0
 38 37  1  0
 39 38  1  0
 41 42  1  0
 42 45  1  0
 42 44  1  0
 43 41  2  0
 46 47  1  0
 46 21  1  0
 48 46  1  0
 51 49  1  6
 51  1  1  0
 51 50  1  0
 52 53  1  0
 52 51  1  0
 54 56  1  0
 54 53  1  0
 55 66  2  0
 56 61  1  0
 57 65  1  0
 57 67  1  0
 58 64  1  0
 58 60  1  0
 59 65  1  0
 60 59  1  0
 61 60  2  0
 62 63  1  0
 62 56  2  0
 63 58  2  0
 64 57  1  0
 65 55  1  0
 67 69  2  0
 68 67  1  0
 70 68  1  0
 71 80  2  0
 71 76  1  0
 72 68  1  0
 72 76  1  0
 73 72  1  0
 74 75  1  0
 74 73  1  0
 75 71  1  0
 76 77  2  0
 77 78  1  0
 79 78  2  0
 80 79  1  0
 81 55  1  0
 81 86  1  0
 81 82  1  0
 82 85  1  1
 82 83  1  0
 84 82  1  0
 86 89  1  0
 87 91  1  0
 87 86  1  0
 88 87  2  0
 91 90  1  0
 93 91  1  0
 93 94  1  0
 93 92  1  0
M  ISO  4  11 100  19 100  53 101  54 101
M  END
>  <TORSDO>  (21) 
F 20

>  <SCORE>  (21) 
-13.971

>  <name>  (21) 
20

>  <ligand_id>  (21) 
20

>  <original_smiles>  (21) 
[H]c1c([H])c([H])c2c(c1[H])C([H])([H])C([H])([H])C([H])([H])C2([H])N([H])C(=O)C1([H])N(C(=O)C([H])(N([H])C(=O)C([H])(N([H])C([H])([H])[H])C([H])([H])[H])C(C([H])([H])[H])(C([H])([H])[H])C([H])([H])[H])C([H])([H])c2c([H])c(OC([H])([H])C([H])([H])C(C([H])([H])[H])(C([H])([H])[H])C([H])([H])N3c4c([H])c([H])c(N([H])C(=O)N5C([H])([H])C([H])([H])C([H])([H])C([H])(n6nc(-c7c([H])c([H])c(Oc8c([H])c([H])c(F)c([H])c8F)c([H])c7[H])c(C(=O)N([H])[H])c6N([H])[H])C5([H])[H])c([H])c4C([H])([H])C3([H])[H])c([H])c([H])c2C1([H])[H]

>  <smiles>  (21) 
[H]c1c([H])c([H])c2c(c1[H])C([H])([H])C([H])([H])C([H])([H])C2([H])N([H])C(=O)C1([H])N(C(=O)C([H])(N([H])C(=O)C([H])(N([H])C([H])([H])[H])C([H])([H])[H])C(C([H])([H])[H])(C([H])([H])[H])C([H])([H])[H])C([H])([H])c2c([H])c(OC([H])([H])C([H])([H])C(C([H])([H])[H])(C([H])([H])[H])C([H])([H])N3c4c([H])c([H])c(N([H])C(=O)N5C([H])([H])C([H])([H])C([H])([H])C([H])(n6nc(-c7c([H])c([H])c(Oc8c([H])c([H])c(F)c([H])c8F)c([H])c7[H])c(C(=O)N([H])[H])c6N([H])[H])C5([H])[H])c([H])c4C([H])([H])C3([H])[H])c([H])c([H])c2C1([H])[H]

$$$$
21:0:0
     RDKit          3D

100108  0  0  1  0  0  0  0  0999 V2000
  -30.2500  -20.1090   18.8670 C   0  0  0  0  0  0  0  0  0  0  0  0
  -31.1270  -19.8300   19.8390 N   0  0  0  0  0  0  0  0  0  0  0  0
  -29.2970  -19.3820   18.5790 O   0  0  0  0  0  0  0  0  0  0  0  0
  -31.7770  -20.5690   20.0710 H   0  0  0  0  0  0  0  0  0  0  0  0
  -30.6980  -16.8930   22.8450 C   0  0  0  0  0  3  0  0  0  0  0  0
  -30.9770  -17.4460   20.4850 C   0  0  0  0  0  3  0  0  0  0  0  0
  -30.7160  -18.2610   23.1840 C   0  0  0  0  0  0  0  0  0  0  0  0
  -30.8490  -16.4730   21.5060 C   0  0  0  0  0  0  0  0  0  0  0  0
  -30.9790  -18.8210   20.8190 C   0  0  0  0  0  0  0  0  0  0  0  0
  -30.8770  -19.2250   22.1680 C   0  0  0  0  0  0  0  0  0  0  0  0
  -30.5520  -18.6820   24.6350 C   0  0  0  0  0  1  0  0  0  0  0  0
  -31.2540  -14.3360   20.2550 C   0  0  0  0  0  0  0  0  0  0  0  0
  -30.8200  -12.3030   18.9150 C   0  0  0  0  0  2  0  0  0  0  0  0
  -29.8530  -12.6320   17.7600 C   0  0  0  0  0  2  0  0  0  0  0  0
  -28.3820  -12.5590   18.2200 C   0  0  0  0  0  2  0  0  0  0  0  0
  -28.1320  -13.3410   19.5350 C   0  0  0  0  0  3  0  0  0  0  0  0
  -29.1850  -12.9430   20.5920 C   0  0  0  0  0  2  0  0  0  0  0  0
  -30.5270  -13.2100   20.0340 N   0  0  0  0  0  0  0  0  0  0  0  0
  -32.2760  -14.6250   19.6230 O   0  0  0  0  0  0  0  0  0  0  0  0
  -30.7890  -15.0730   21.2760 N   0  0  0  0  0  0  0  0  0  0  0  0
  -30.1300  -14.5750   21.8560 H   0  0  0  0  0  0  0  0  0  0  0  0
  -25.7710  -14.0690   20.2680 C   0  0  0  0  0  0  0  0  0  0  0  0
  -24.6720  -13.3500   20.6580 C   0  0  0  0  0  0  0  0  0  0  0  0
  -25.0690  -11.9780   20.6250 C   0  0  0  0  0  0  0  0  0  0  0  0
  -26.7700  -13.1380   20.0280 N   0  0  0  0  0  0  0  0  0  0  0  0
  -26.3500  -11.8760   20.2950 N   0  0  0  0  0  0  0  0  0  0  0  0
  -24.2890  -10.7510   20.8330 C   0  0  0  0  0  0  0  0  0  0  0  0
  -24.6770   -9.7820   21.7830 C   0  0  0  0  0  3  0  0  0  0  0  0
  -23.9010   -8.6180   21.9770 C   0  0  0  0  0  3  0  0  0  0  0  0
  -22.7230   -8.4180   21.2190 C   0  0  0  0  0  0  0  0  0  0  0  0
  -22.3530   -9.3750   20.2580 C   0  0  0  0  0  3  0  0  0  0  0  0
  -23.1300  -10.5300   20.0630 C   0  0  0  0  0  3  0  0  0  0  0  0
  -21.9200   -7.3070   21.3210 O   0  0  0  0  0  0  0  0  0  0  0  0
  -21.7960   -6.6150   22.4990 C   0  0  0  0  0  0  0  0  0  0  0  0
  -21.3600   -7.2390   23.6890 C   0  0  0  0  0  3  0  0  0  0  0  0
  -21.1800   -6.4760   24.8590 C   0  0  0  0  0  3  0  0  0  0  0  0
  -21.4240   -5.0890   24.8420 C   0  0  0  0  0  0  0  0  0  0  0  0
  -21.8520   -4.4650   23.6570 C   0  0  0  0  0  3  0  0  0  0  0  0
  -22.0350   -5.2260   22.4880 C   0  0  0  0  0  0  0  0  0  0  0  0
  -22.4280   -4.6150   21.3440 F   0  0  0  0  0  0  0  0  0  0  0  0
  -21.2430   -4.3540   25.9640 F   0  0  0  0  0  0  0  0  0  0  0  0
  -23.3040  -13.8920   20.9540 C   0  0  0  0  0  0  0  0  0  0  0  0
  -22.5720  -13.2510   21.8590 N   0  0  0  0  0  0  0  0  0  0  0  0
  -22.8920  -14.9200   20.4160 O   0  0  0  0  0  0  0  0  0  0  0  0
  -22.9160  -12.4200   22.3160 H   0  0  0  0  0  0  0  0  0  0  0  0
  -21.6540  -13.5970   22.0990 H   0  0  0  0  0  0  0  0  0  0  0  0
  -25.9990  -15.4290   20.0820 N   0  0  0  0  0  0  0  0  0  0  0  0
  -25.2720  -16.1270   20.2030 H   0  0  0  0  0  0  0  0  0  0  0  0
  -26.8740  -15.8210   19.7550 H   0  0  0  0  0  0  0  0  0  0  0  0
  -30.9180  -20.5550   22.4800 O   0  0  0  0  0  0  0  0  0  0  0  0
  -30.8400  -20.7070   23.4150 H   0  0  0  0  0  0  0  0  0  0  0  0
  -30.5050  -21.3920   18.0720 C   0  0  0  0  0  2  0  0  0  0  0  0
  -30.0460  -22.6620   18.8330 C   0  0  0  0  0  2  0  0  0  0  0  0
  -31.8760  -24.1310   17.8320 C   0  0  0  0  0  1  0  0  0  0  0  0
  -29.5890  -24.1480   16.8080 C   0  0  0  0  0  1  0  0  0  0  0  0
  -30.3590  -24.0220   18.1420 C   0  0  1  0  0  0  0  0  0  0  0  0
  -29.9620  -25.1830   19.1000 C   0  0  0  0  0  0  0  0  0  0  0  0
  -30.8220  -25.7800   19.7580 O   0  0  0  0  0  0  0  0  0  0  0  0
  -28.4760  -25.5570   19.2540 C   0  0  0  0  0  2  0  0  0  0  0  0
  -28.3630  -26.7470   20.0390 O   0  0  0  0  0  0  0  0  0  0  0  0
  -24.5670  -31.8620   23.1810 C   0  0  0  0  0  0  0  0  0  0  0  0
  -27.1620  -27.4200   20.0560 C   0  0  0  0  0  0  0  0  0  0  0  0
  -23.3350  -30.4680   21.5480 C   0  0  0  0  0  3  0  0  0  0  0  0
  -24.7630  -28.9180   20.1130 C   0  0  0  0  0  0  0  0  0  0  0  0
  -25.8580  -30.8120   21.3260 C   0  0  0  0  0  2  0  0  0  0  0  0
  -25.9280  -29.4400   20.6900 C   0  0  0  0  0  0  0  0  0  0  0  0
  -27.1240  -28.6920   20.6670 C   0  0  0  0  0  3  0  0  0  0  0  0
  -25.9730  -26.8980   19.4930 C   0  0  0  0  0  3  0  0  0  0  0  0
  -24.7780  -27.6440   19.5190 C   0  0  0  0  0  3  0  0  0  0  0  0
  -23.5250  -29.7820   20.1690 C   0  0  0  0  0  2  0  0  0  0  0  0
  -24.6060  -31.0600   22.0780 N   0  0  0  0  0  0  0  0  0  0  0  0
  -23.4940  -32.1390   23.7340 O   0  0  0  0  0  0  0  0  0  0  0  0
  -22.6870  -29.4510   22.5160 C   0  0  0  0  0  0  0  0  0  0  0  0
  -21.3650  -29.2580   22.3820 N   0  0  0  0  0  0  0  0  0  0  0  0
  -23.3720  -28.8360   23.3370 O   0  0  0  0  0  0  0  0  0  0  0  0
  -20.8750  -29.8070   21.6900 H   0  0  0  0  0  0  0  0  0  0  0  0
  -18.0010  -28.0330   22.8570 C   0  0  0  0  0  0  0  0  0  0  0  0
  -20.5520  -28.3210   23.1570 C   0  0  0  0  0  3  0  0  0  0  0  0
  -20.6770  -26.8840   22.6010 C   0  0  0  0  0  2  0  0  0  0  0  0
  -19.5910  -26.5350   21.5780 C   0  0  0  0  0  2  0  0  0  0  0  0
  -18.2000  -26.6760   22.2020 C   0  0  0  0  0  2  0  0  0  0  0  0
  -19.1060  -28.8130   23.2890 C   0  0  0  0  0  0  0  0  0  0  0  0
  -18.8680  -30.0810   23.8590 C   0  0  0  0  0  3  0  0  0  0  0  0
  -17.5570  -30.5740   23.9980 C   0  0  0  0  0  3  0  0  0  0  0  0
  -16.4650  -29.7920   23.5820 C   0  0  0  0  0  3  0  0  0  0  0  0
  -16.6880  -28.5240   23.0180 C   0  0  0  0  0  3  0  0  0  0  0  0
  -25.8640  -32.4820   23.7870 C   0  0  0  0  0  3  0  0  0  0  0  0
  -25.5610  -33.8720   24.1540 N   0  0  0  0  0  0  0  0  0  0  0  0
  -25.8880  -34.9410   23.4160 C   0  0  0  0  0  0  0  0  0  0  0  0
  -26.5480  -34.8620   22.3780 O   0  0  0  0  0  0  0  0  0  0  0  0
  -24.9770  -34.0070   24.9660 H   0  0  0  0  0  0  0  0  0  0  0  0
  -24.1700  -36.7470   23.1050 C   0  0  0  0  0  1  0  0  0  0  0  0
  -25.4040  -36.3170   23.9110 C   0  0  0  0  0  3  0  0  0  0  0  0
  -27.5380  -37.1680   24.7770 C   0  0  0  0  0  1  0  0  0  0  0  0
  -26.4420  -37.3670   23.8330 N   0  0  0  0  0  0  0  0  0  0  0  0
  -26.0380  -38.2840   24.0070 H   0  0  0  0  0  0  0  0  0  0  0  0
  -26.4140  -31.6820   25.0320 C   0  0  1  0  0  0  0  0  0  0  0  0
  -25.3460  -31.4110   26.1170 C   0  0  0  0  0  1  0  0  0  0  0  0
  -26.9970  -30.3200   24.5900 C   0  0  0  0  0  1  0  0  0  0  0  0
  -27.5710  -32.4680   25.6940 C   0  0  0  0  0  1  0  0  0  0  0  0
  1  2  1  0
  2  4  1  0
  2  9  1  0
  3  1  2  0
  5  7  1  0
  6  9  2  0
  6  8  1  0
  7 11  1  0
  8  5  2  0
  9 10  1  0
 10 50  1  0
 10  7  2  0
 12 20  1  0
 13 18  1  0
 14 15  1  0
 14 13  1  0
 16 15  1  0
 16 25  1  0
 16 17  1  0
 18 12  1  0
 18 17  1  0
 19 12  2  0
 20  8  1  0
 20 21  1  0
 22 23  2  0
 23 42  1  0
 24 23  1  0
 24 27  1  0
 25 22  1  0
 25 26  1  0
 26 24  2  0
 27 28  1  0
 28 29  2  0
 30 33  1  0
 30 29  1  0
 31 30  2  0
 32 31  1  0
 32 27  2  0
 33 34  1  0
 34 35  1  0
 35 36  2  0
 37 36  1  0
 37 41  1  0
 38 37  2  0
 39 34  2  0
 39 38  1  0
 40 39  1  0
 42 43  1  0
 43 46  1  0
 43 45  1  0
 44 42  2  0
 47 48  1  0
 47 22  1  0
 49 47  1  0
 50 51  1  0
 52 53  1  0
 52  1  1  0
 56 54  1  6
 55 56  1  0
 56 53  1  0
 56 57  1  0
 57 59  1  0
 57 58  2  0
 59 60  1  0
 60 62  1  0
 61 72  2  0
 62 67  1  0
 63 71  1  0
 63 73  1  0
 64 70  1  0
 64 66  1  0
 65 71  1  0
 66 65  1  0
 67 66  2  0
 68 69  1  0
 68 62  2  0
 69 64  2  0
 70 63  1  0
 71 61  1  0
 73 75  2  0
 74 73  1  0
 76 74  1  0
 77 86  2  0
 77 82  1  0
 78 74  1  0
 78 82  1  0
 79 78  1  0
 80 81  1  0
 80 79  1  0
 81 77  1  0
 82 83  2  0
 83 84  1  0
 85 84  2  0
 86 85  1  0
 87 61  1  0
 87 88  1  0
 87 97  1  0
 88 91  1  0
 89 93  1  0
 89 88  1  0
 90 89  2  0
 93 92  1  0
 95 93  1  0
 95 96  1  0
 95 94  1  0
 97100  1  1
 97 98  1  0
 99 97  1  0
M  ISO  4  12 100  20 100  59 101  60 101
M  END
>  <TORSDO>  (22) 
F 23

>  <SCORE>  (22) 
-11.543

>  <name>  (22) 
21

>  <ligand_id>  (22) 
21

>  <original_smiles>  (22) 
[H]Oc1c(N([H])C(=O)C([H])([H])C([H])([H])C(C(=O)C([H])([H])Oc2c([H])c([H])c3c(c2[H])C([H])([H])N(C(=O)C([H])(N([H])C(=O)C([H])(N([H])C([H])([H])[H])C([H])([H])[H])C(C([H])([H])[H])(C([H])([H])[H])C([H])([H])[H])C([H])(C(=O)N([H])C2([H])c4c([H])c([H])c([H])c([H])c4C([H])([H])C([H])([H])C2([H])[H])C3([H])[H])(C([H])([H])[H])C([H])([H])[H])c([H])c(N([H])C(=O)N2C([H])([H])C([H])([H])C([H])([H])C([H])(n3nc(-c4c([H])c([H])c(Oc5c([H])c([H])c(F)c([H])c5F)c([H])c4[H])c(C(=O)N([H])[H])c3N([H])[H])C2([H])[H])c([H])c1C([H])([H])[H]

>  <smiles>  (22) 
[H]Oc1c(N([H])C(=O)C([H])([H])C([H])([H])C(C(=O)C([H])([H])Oc2c([H])c([H])c3c(c2[H])C([H])([H])N(C(=O)C([H])(N([H])C(=O)C([H])(N([H])C([H])([H])[H])C([H])([H])[H])C(C([H])([H])[H])(C([H])([H])[H])C([H])([H])[H])C([H])(C(=O)N([H])C2([H])c4c([H])c([H])c([H])c([H])c4C([H])([H])C([H])([H])C2([H])[H])C3([H])[H])(C([H])([H])[H])C([H])([H])[H])c([H])c(N([H])C(=O)N2C([H])([H])C([H])([H])C([H])([H])C([H])(n3nc(-c4c([H])c([H])c(Oc5c([H])c([H])c(F)c([H])c5F)c([H])c4[H])c(C(=O)N([H])[H])c3N([H])[H])C2([H])[H])c([H])c1C([H])([H])[H]

$$$$
22:0:0
     RDKit          3D

 97106  0  0  1  0  0  0  0  0999 V2000
  -29.2690  -20.8980   21.7620 C   0  0  0  0  0  0  0  0  0  0  0  0
  -29.1100  -22.3870   22.0140 C   0  0  0  0  0  2  0  0  0  0  0  0
  -30.9720  -21.8840   20.5580 C   0  0  0  0  0  2  0  0  0  0  0  0
  -30.0170  -23.0100   20.9480 C   0  0  0  0  0  3  0  0  0  0  0  0
  -30.2410  -20.6590   20.8630 N   0  0  0  0  0  0  0  0  0  0  0  0
  -28.5660  -20.0620   22.3370 O   0  0  0  0  0  0  0  0  0  0  0  0
  -30.6370  -18.4230   17.8920 C   0  0  0  0  0  3  0  0  0  0  0  0
  -30.5150  -19.5760   18.6820 C   0  0  0  0  0  3  0  0  0  0  0  0
  -30.6330  -17.1590   18.5010 C   0  0  0  0  0  3  0  0  0  0  0  0
  -30.3650  -18.1990   20.6940 C   0  0  0  0  0  3  0  0  0  0  0  0
  -30.3770  -19.4760   20.0870 C   0  0  0  0  0  0  0  0  0  0  0  0
  -30.5110  -17.0400   19.9080 C   0  0  0  0  0  0  0  0  0  0  0  0
  -31.1810  -14.7180   20.1080 C   0  0  0  0  0  0  0  0  0  0  0  0
  -30.7990  -12.5750   19.0090 C   0  0  0  0  0  2  0  0  0  0  0  0
  -29.8370  -12.8240   17.8310 C   0  0  0  0  0  2  0  0  0  0  0  0
  -28.3730  -12.7240   18.2960 C   0  0  0  0  0  2  0  0  0  0  0  0
  -28.0830  -13.5650   19.5680 C   0  0  0  0  0  3  0  0  0  0  0  0
  -29.1600  -13.3220   20.6520 C   0  0  0  0  0  2  0  0  0  0  0  0
  -30.4840  -13.5590   20.0510 N   0  0  0  0  0  0  0  0  0  0  0  0
  -32.3120  -14.8630   19.6360 O   0  0  0  0  0  0  0  0  0  0  0  0
  -30.4840  -15.7740   20.5430 N   0  0  0  0  0  0  0  0  0  0  0  0
  -29.6830  -15.5800   21.1260 H   0  0  0  0  0  0  0  0  0  0  0  0
  -25.7270  -14.2220   20.3790 C   0  0  0  0  0  0  0  0  0  0  0  0
  -24.6460  -13.4730   20.7550 C   0  0  0  0  0  0  0  0  0  0  0  0
  -25.0590  -12.1090   20.6570 C   0  0  0  0  0  0  0  0  0  0  0  0
  -26.7350  -13.3180   20.0790 N   0  0  0  0  0  0  0  0  0  0  0  0
  -26.3360  -12.0390   20.3010 N   0  0  0  0  0  0  0  0  0  0  0  0
  -24.2990  -10.8640   20.8280 C   0  0  0  0  0  0  0  0  0  0  0  0
  -24.6850   -9.8880   21.7740 C   0  0  0  0  0  3  0  0  0  0  0  0
  -23.9290   -8.7060   21.9310 C   0  0  0  0  0  3  0  0  0  0  0  0
  -22.7740   -8.4920   21.1430 C   0  0  0  0  0  0  0  0  0  0  0  0
  -22.4060   -9.4560   20.1890 C   0  0  0  0  0  3  0  0  0  0  0  0
  -23.1620  -10.6300   20.0300 C   0  0  0  0  0  3  0  0  0  0  0  0
  -21.9930   -7.3630   21.2090 O   0  0  0  0  0  0  0  0  0  0  0  0
  -21.8340   -6.6650   22.3780 C   0  0  0  0  0  0  0  0  0  0  0  0
  -21.2730   -7.2580   23.5300 C   0  0  0  0  0  3  0  0  0  0  0  0
  -21.0650   -6.4860   24.6900 C   0  0  0  0  0  3  0  0  0  0  0  0
  -21.4050   -5.1200   24.6980 C   0  0  0  0  0  0  0  0  0  0  0  0
  -21.9580   -4.5260   23.5490 C   0  0  0  0  0  3  0  0  0  0  0  0
  -22.1680   -5.2950   22.3930 C   0  0  0  0  0  0  0  0  0  0  0  0
  -22.6830   -4.7130   21.2830 F   0  0  0  0  0  0  0  0  0  0  0  0
  -21.1970   -4.3750   25.8090 F   0  0  0  0  0  0  0  0  0  0  0  0
  -23.2750  -13.9840   21.1000 C   0  0  0  0  0  0  0  0  0  0  0  0
  -22.5580  -13.2840   21.9680 N   0  0  0  0  0  0  0  0  0  0  0  0
  -22.8510  -15.0400   20.6300 O   0  0  0  0  0  0  0  0  0  0  0  0
  -22.9150  -12.4300   22.3750 H   0  0  0  0  0  0  0  0  0  0  0  0
  -21.6380  -13.6050   22.2380 H   0  0  0  0  0  0  0  0  0  0  0  0
  -25.9350  -15.5920   20.2460 N   0  0  0  0  0  0  0  0  0  0  0  0
  -25.2010  -16.2720   20.4030 H   0  0  0  0  0  0  0  0  0  0  0  0
  -26.7990  -16.0080   19.9210 H   0  0  0  0  0  0  0  0  0  0  0  0
  -29.1820  -23.5180   19.7660 C   0  0  0  0  0  0  0  0  0  0  0  0
  -29.0030  -22.8440   18.7490 O   0  0  0  0  0  0  0  0  0  0  0  0
  -28.5270  -24.8780   19.9380 C   0  0  0  0  0  2  0  0  0  0  0  0
  -29.3920  -26.1770   17.8260 C   0  0  0  0  0  1  0  0  0  0  0  0
  -30.7920  -26.0860   19.8960 C   0  0  0  0  0  1  0  0  0  0  0  0
  -29.3430  -26.0630   19.3620 C   0  0  2  0  0  0  0  0  0  0  0  0
  -28.8790  -27.2710   19.9330 O   0  0  0  0  0  0  0  0  0  0  0  0
  -24.6350  -31.7480   23.2440 C   0  0  0  0  0  0  0  0  0  0  0  0
  -27.5940  -27.7590   19.8950 C   0  0  0  0  0  0  0  0  0  0  0  0
  -23.5240  -30.3860   21.4970 C   0  0  0  0  0  3  0  0  0  0  0  0
  -25.0790  -29.0410   19.9870 C   0  0  0  0  0  0  0  0  0  0  0  0
  -26.0110  -30.9300   21.3450 C   0  0  0  0  0  2  0  0  0  0  0  0
  -26.1850  -29.6130   20.6240 C   0  0  0  0  0  0  0  0  0  0  0  0
  -27.4320  -28.9720   20.5840 C   0  0  0  0  0  3  0  0  0  0  0  0
  -26.4770  -27.1870   19.2400 C   0  0  0  0  0  3  0  0  0  0  0  0
  -25.2200  -27.8220   19.2950 C   0  0  0  0  0  3  0  0  0  0  0  0
  -23.7760  -29.8010   20.0800 C   0  0  0  0  0  2  0  0  0  0  0  0
  -24.7390  -31.0330   22.0890 N   0  0  0  0  0  0  0  0  0  0  0  0
  -23.5370  -31.9190   23.7900 O   0  0  0  0  0  0  0  0  0  0  0  0
  -22.9320  -29.2680   22.3830 C   0  0  0  0  0  0  0  0  0  0  0  0
  -21.6260  -29.0080   22.2190 N   0  0  0  0  0  0  0  0  0  0  0  0
  -23.6450  -28.6410   23.1720 O   0  0  0  0  0  0  0  0  0  0  0  0
  -21.1110  -29.5720   21.5560 H   0  0  0  0  0  0  0  0  0  0  0  0
  -18.3250  -27.5960   22.5980 C   0  0  0  0  0  0  0  0  0  0  0  0
  -20.8610  -27.9750   22.9140 C   0  0  0  0  0  3  0  0  0  0  0  0
  -21.0470  -26.5970   22.2390 C   0  0  0  0  0  2  0  0  0  0  0  0
  -19.9710  -26.2890   21.1910 C   0  0  0  0  0  2  0  0  0  0  0  0
  -18.5790  -26.3110   21.8320 C   0  0  0  0  0  2  0  0  0  0  0  0
  -19.3950  -28.3870   23.0920 C   0  0  0  0  0  0  0  0  0  0  0  0
  -19.1050  -29.5920   23.7660 C   0  0  0  0  0  3  0  0  0  0  0  0
  -17.7730  -30.0090   23.9520 C   0  0  0  0  0  3  0  0  0  0  0  0
  -16.7150  -29.2160   23.4740 C   0  0  0  0  0  3  0  0  0  0  0  0
  -16.9910  -28.0100   22.8040 C   0  0  0  0  0  3  0  0  0  0  0  0
  -25.8790  -32.4060   23.9190 C   0  0  0  0  0  3  0  0  0  0  0  0
  -26.3770  -31.6320   25.2020 C   0  0  1  0  0  0  0  0  0  0  0  0
  -25.2570  -31.3420   26.2270 C   0  0  0  0  0  1  0  0  0  0  0  0
  -27.0210  -30.2800   24.8130 C   0  0  0  0  0  1  0  0  0  0  0  0
  -27.4770  -32.4540   25.9150 C   0  0  0  0  0  1  0  0  0  0  0  0
  -25.5170  -33.7910   24.2480 N   0  0  0  0  0  0  0  0  0  0  0  0
  -25.8630  -34.8600   23.5190 C   0  0  0  0  0  0  0  0  0  0  0  0
  -26.5910  -34.7860   22.5240 O   0  0  0  0  0  0  0  0  0  0  0  0
  -24.8660  -33.9190   25.0100 H   0  0  0  0  0  0  0  0  0  0  0  0
  -24.1100  -36.6120   23.0890 C   0  0  0  0  0  1  0  0  0  0  0  0
  -25.3140  -36.2280   23.9640 C   0  0  0  0  0  3  0  0  0  0  0  0
  -27.3700  -37.1600   24.9280 C   0  0  0  0  0  1  0  0  0  0  0  0
  -26.3220  -37.3080   23.9200 N   0  0  0  0  0  0  0  0  0  0  0  0
  -25.8830  -38.2160   24.0510 H   0  0  0  0  0  0  0  0  0  0  0  0
  1  2  1  0
  1  6  2  0
  3  5  1  0
  3  4  1  0
  4 51  1  0
  4  2  1  0
  5  1  1  0
  7  9  2  0
  7  8  1  0
  8 11  2  0
  9 12  1  0
 11 10  1  0
 11  5  1  0
 12 21  1  0
 12 10  2  0
 13 21  1  0
 14 19  1  0
 15 16  1  0
 15 14  1  0
 17 16  1  0
 17 26  1  0
 17 18  1  0
 19 13  1  0
 19 18  1  0
 20 13  2  0
 21 22  1  0
 23 24  2  0
 24 43  1  0
 25 24  1  0
 25 28  1  0
 26 27  1  0
 26 23  1  0
 27 25  2  0
 28 29  1  0
 29 30  2  0
 31 34  1  0
 31 30  1  0
 32 31  2  0
 33 32  1  0
 33 28  2  0
 34 35  1  0
 35 40  2  0
 35 36  1  0
 36 37  2  0
 37 38  1  0
 38 42  1  0
 39 38  2  0
 40 39  1  0
 41 40  1  0
 43 44  1  0
 44 47  1  0
 44 46  1  0
 45 43  2  0
 48 23  1  0
 48 49  1  0
 50 48  1  0
 51 53  1  0
 52 51  2  0
 56 54  1  6
 56 55  1  0
 56 57  1  0
 56 53  1  0
 58 69  2  0
 59 57  1  0
 59 64  1  0
 60 68  1  0
 60 70  1  0
 61 67  1  0
 61 63  1  0
 62 68  1  0
 63 62  1  0
 64 63  2  0
 65 66  1  0
 65 59  2  0
 66 61  2  0
 67 60  1  0
 68 58  1  0
 70 72  2  0
 71 70  1  0
 73 71  1  0
 74 83  2  0
 74 79  1  0
 75 71  1  0
 75 79  1  0
 76 75  1  0
 77 78  1  0
 77 76  1  0
 78 74  1  0
 79 80  2  0
 80 81  1  0
 82 81  2  0
 83 82  1  0
 84 58  1  0
 84 89  1  0
 84 85  1  0
 85 88  1  1
 85 86  1  0
 87 85  1  0
 89 92  1  0
 90 94  1  0
 90 89  1  0
 91 90  2  0
 94 93  1  0
 96 94  1  0
 96 97  1  0
 96 95  1  0
M  ISO  4  13 100  21 100  56 101  57 101
M  END
>  <TORSDO>  (23) 
F 20

>  <SCORE>  (23) 
-11.503

>  <name>  (23) 
22

>  <ligand_id>  (23) 
22

>  <original_smiles>  (23) 
[H]c1c([H])c(N([H])C(=O)N2C([H])([H])C([H])([H])C([H])([H])C([H])(n3nc(-c4c([H])c([H])c(Oc5c([H])c([H])c(F)c([H])c5F)c([H])c4[H])c(C(=O)N([H])[H])c3N([H])[H])C2([H])[H])c([H])c(N2C(=O)C([H])([H])C([H])(C(=O)C([H])([H])C(Oc3c([H])c([H])c4c(c3[H])C([H])([H])N(C(=O)C([H])(N([H])C(=O)C([H])(N([H])C([H])([H])[H])C([H])([H])[H])C(C([H])([H])[H])(C([H])([H])[H])C([H])([H])[H])C([H])(C(=O)N([H])C3([H])c5c([H])c([H])c([H])c([H])c5C([H])([H])C([H])([H])C3([H])[H])C4([H])[H])(C([H])([H])[H])C([H])([H])[H])C2([H])[H])c1[H]

>  <smiles>  (23) 
[H]c1c([H])c(N([H])C(=O)N2C([H])([H])C([H])([H])C([H])([H])C([H])(n3nc(-c4c([H])c([H])c(Oc5c([H])c([H])c(F)c([H])c5F)c([H])c4[H])c(C(=O)N([H])[H])c3N([H])[H])C2([H])[H])c([H])c(N2C(=O)C([H])([H])C([H])(C(=O)C([H])([H])C(Oc3c([H])c([H])c4c(c3[H])C([H])([H])N(C(=O)C([H])(N([H])C(=O)C([H])(N([H])C([H])([H])[H])C([H])([H])[H])C(C([H])([H])[H])(C([H])([H])[H])C([H])([H])[H])C([H])(C(=O)N([H])C3([H])c5c([H])c([H])c([H])c([H])c5C([H])([H])C([H])([H])C3([H])[H])C4([H])[H])(C([H])([H])[H])C([H])([H])[H])C2([H])[H])c1[H]

$$$$
23:0:0
     RDKit          3D

100108  0  0  1  0  0  0  0  0999 V2000
  -27.2250  -21.5900   21.5730 C   0  0  0  0  0  2  0  0  0  0  0  0
  -28.6920  -21.2370   21.2890 C   0  0  0  0  0  0  0  0  0  0  0  0
  -28.9100  -20.3380   20.3170 N   0  0  0  0  0  0  0  0  0  0  0  0
  -29.5840  -21.7710   21.9520 O   0  0  0  0  0  0  0  0  0  0  0  0
  -28.0730  -19.8800   19.9800 H   0  0  0  0  0  0  0  0  0  0  0  0
  -30.2310  -18.5950   19.3210 C   0  0  0  0  0  3  0  0  0  0  0  0
  -31.1810  -20.8340   19.3440 C   0  0  0  0  0  3  0  0  0  0  0  0
  -32.4020  -18.9980   18.2770 C   0  0  0  0  0  3  0  0  0  0  0  0
  -30.1240  -19.9500   19.6840 C   0  0  0  0  0  0  0  0  0  0  0  0
  -31.3580  -18.1130   18.6280 C   0  0  0  0  0  0  0  0  0  0  0  0
  -32.3060  -20.3570   18.6380 C   0  0  0  0  0  0  0  0  0  0  0  0
  -33.3060  -21.2080   18.3060 F   0  0  0  0  0  0  0  0  0  0  0  0
  -32.3150  -15.8110   18.5890 C   0  0  0  0  0  0  0  0  0  0  0  0
  -32.2540  -13.3470   18.6560 C   0  0  0  0  0  2  0  0  0  0  0  0
  -31.2550  -12.8430   17.5950 C   0  0  0  0  0  2  0  0  0  0  0  0
  -29.8120  -12.8340   18.1440 C   0  0  0  0  0  2  0  0  0  0  0  0
  -29.4160  -14.1690   18.8250 C   0  0  0  0  0  3  0  0  0  0  0  0
  -30.5170  -14.5920   19.8270 C   0  0  0  0  0  2  0  0  0  0  0  0
  -31.7950  -14.6670   19.0900 N   0  0  0  0  0  0  0  0  0  0  0  0
  -33.4320  -15.9110   18.0740 O   0  0  0  0  0  0  0  0  0  0  0  0
  -31.3630  -16.7220   18.3920 N   0  0  0  0  0  0  0  0  0  0  0  0
  -30.4470  -16.3040   18.3910 H   0  0  0  0  0  0  0  0  0  0  0  0
  -27.2440  -15.0960   19.8640 C   0  0  0  0  0  0  0  0  0  0  0  0
  -26.1220  -14.4710   20.3370 C   0  0  0  0  0  0  0  0  0  0  0  0
  -26.3640  -13.0700   20.1990 C   0  0  0  0  0  0  0  0  0  0  0  0
  -28.1030  -14.0820   19.4640 N   0  0  0  0  0  0  0  0  0  0  0  0
  -27.5860  -12.8570   19.7260 N   0  0  0  0  0  0  0  0  0  0  0  0
  -25.4860  -11.9180   20.4350 C   0  0  0  0  0  0  0  0  0  0  0  0
  -25.7660  -10.9740   21.4460 C   0  0  0  0  0  3  0  0  0  0  0  0
  -24.9010   -9.8820   21.6690 C   0  0  0  0  0  3  0  0  0  0  0  0
  -23.7370   -9.7290   20.8800 C   0  0  0  0  0  0  0  0  0  0  0  0
  -23.4730  -10.6600   19.8610 C   0  0  0  0  0  3  0  0  0  0  0  0
  -24.3370  -11.7440   19.6360 C   0  0  0  0  0  3  0  0  0  0  0  0
  -22.8510   -8.6840   21.0040 O   0  0  0  0  0  0  0  0  0  0  0  0
  -22.4880   -8.1970   22.2330 C   0  0  0  0  0  0  0  0  0  0  0  0
  -21.8640   -9.0100   23.2050 C   0  0  0  0  0  3  0  0  0  0  0  0
  -21.4410   -8.4490   24.4260 C   0  0  0  0  0  3  0  0  0  0  0  0
  -21.6330   -7.0770   24.6750 C   0  0  0  0  0  0  0  0  0  0  0  0
  -22.2510   -6.2650   23.7090 C   0  0  0  0  0  3  0  0  0  0  0  0
  -22.6740   -6.8230   22.4890 C   0  0  0  0  0  0  0  0  0  0  0  0
  -23.2480   -6.0330   21.5510 F   0  0  0  0  0  0  0  0  0  0  0  0
  -21.2220   -6.5360   25.8470 F   0  0  0  0  0  0  0  0  0  0  0  0
  -24.8530  -15.1290   20.7960 C   0  0  0  0  0  0  0  0  0  0  0  0
  -24.1540  -14.5200   21.7450 N   0  0  0  0  0  0  0  0  0  0  0  0
  -24.4980  -16.2200   20.3470 O   0  0  0  0  0  0  0  0  0  0  0  0
  -24.4570  -13.6360   22.1280 H   0  0  0  0  0  0  0  0  0  0  0  0
  -23.3070  -14.9450   22.0930 H   0  0  0  0  0  0  0  0  0  0  0  0
  -27.5940  -16.4360   19.7160 N   0  0  0  0  0  0  0  0  0  0  0  0
  -26.9560  -17.1830   19.9640 H   0  0  0  0  0  0  0  0  0  0  0  0
  -28.4160  -16.7650   19.2270 H   0  0  0  0  0  0  0  0  0  0  0  0
  -26.9780  -23.1030   21.3800 C   0  0  0  0  0  2  0  0  0  0  0  0
  -24.5580  -23.9150   21.0910 C   0  0  0  0  0  1  0  0  0  0  0  0
  -25.8530  -23.4830   20.3800 C   0  0  0  0  0  3  0  0  0  0  0  0
  -26.3600  -24.6180   19.4650 C   0  0  0  0  0  0  0  0  0  0  0  0
  -26.8820  -25.6030   19.9910 O   0  0  0  0  0  0  0  0  0  0  0  0
  -25.0870  -23.7560   17.3880 C   0  0  0  0  0  1  0  0  0  0  0  0
  -27.5460  -23.4330   17.6300 C   0  0  0  0  0  1  0  0  0  0  0  0
  -26.3950  -24.4220   17.9170 C   0  0  2  0  0  0  0  0  0  0  0  0
  -26.6640  -25.7480   17.0990 C   0  0  0  0  0  2  0  0  0  0  0  0
  -27.1230  -26.9290   17.7780 O   0  0  0  0  0  0  0  0  0  0  0  0
  -25.4810  -30.9140   23.4530 C   0  0  0  0  0  0  0  0  0  0  0  0
  -26.1950  -27.7660   18.3640 C   0  0  0  0  0  0  0  0  0  0  0  0
  -23.6520  -30.5100   21.8450 C   0  0  0  0  0  3  0  0  0  0  0  0
  -24.3350  -29.4920   19.6170 C   0  0  0  0  0  0  0  0  0  0  0  0
  -26.0940  -30.4990   21.0730 C   0  0  0  0  0  2  0  0  0  0  0  0
  -25.6810  -29.5230   19.9920 C   0  0  0  0  0  0  0  0  0  0  0  0
  -26.6110  -28.6580   19.3800 C   0  0  0  0  0  3  0  0  0  0  0  0
  -24.8290  -27.7610   17.9990 C   0  0  0  0  0  3  0  0  0  0  0  0
  -23.9020  -28.6030   18.6230 C   0  0  0  0  0  3  0  0  0  0  0  0
  -23.3940  -30.4410   20.3190 C   0  0  0  0  0  2  0  0  0  0  0  0
  -25.1060  -30.6290   22.1740 N   0  0  0  0  0  0  0  0  0  0  0  0
  -24.6370  -31.1280   24.3360 O   0  0  0  0  0  0  0  0  0  0  0  0
  -22.9630  -29.3040   22.5240 C   0  0  0  0  0  0  0  0  0  0  0  0
  -21.6250  -29.2450   22.4180 N   0  0  0  0  0  0  0  0  0  0  0  0
  -23.6230  -28.4390   23.1070 O   0  0  0  0  0  0  0  0  0  0  0  0
  -21.1580  -29.9900   21.9200 H   0  0  0  0  0  0  0  0  0  0  0  0
  -18.2540  -27.9660   22.3930 C   0  0  0  0  0  0  0  0  0  0  0  0
  -20.7650  -28.1910   22.9550 C   0  0  0  0  0  3  0  0  0  0  0  0
  -20.9590  -26.8750   22.1670 C   0  0  0  0  0  2  0  0  0  0  0  0
  -19.9670  -26.7230   21.0080 C   0  0  0  0  0  2  0  0  0  0  0  0
  -18.5280  -26.7460   21.5280 C   0  0  0  0  0  2  0  0  0  0  0  0
  -19.3070  -28.6560   23.0490 C   0  0  0  0  0  0  0  0  0  0  0  0
  -19.0010  -29.8000   23.8190 C   0  0  0  0  0  3  0  0  0  0  0  0
  -17.6750  -30.2530   23.9400 C   0  0  0  0  0  3  0  0  0  0  0  0
  -16.6340  -29.5580   23.2980 C   0  0  0  0  0  3  0  0  0  0  0  0
  -16.9210  -28.4150   22.5310 C   0  0  0  0  0  3  0  0  0  0  0  0
  -26.9870  -31.0160   23.8580 C   0  0  0  0  0  3  0  0  0  0  0  0
  -27.1330  -32.2160   24.6910 N   0  0  0  0  0  0  0  0  0  0  0  0
  -27.6380  -33.3780   24.2590 C   0  0  0  0  0  0  0  0  0  0  0  0
  -28.1050  -33.5290   23.1270 O   0  0  0  0  0  0  0  0  0  0  0  0
  -26.7240  -32.1820   25.6130 H   0  0  0  0  0  0  0  0  0  0  0  0
  -26.4570  -35.4990   24.9040 C   0  0  0  0  0  1  0  0  0  0  0  0
  -27.6280  -34.5640   25.2440 C   0  0  0  0  0  3  0  0  0  0  0  0
  -30.0130  -34.5730   25.8260 C   0  0  0  0  0  1  0  0  0  0  0  0
  -28.8960  -35.3260   25.2600 N   0  0  0  0  0  0  0  0  0  0  0  0
  -28.7900  -36.1840   25.7930 H   0  0  0  0  0  0  0  0  0  0  0  0
  -27.5140  -29.7350   24.6160 C   0  0  1  0  0  0  0  0  0  0  0  0
  -26.6220  -29.3030   25.8030 C   0  0  0  0  0  1  0  0  0  0  0  0
  -27.6240  -28.5300   23.6490 C   0  0  0  0  0  1  0  0  0  0  0  0
  -28.9400  -30.0020   25.1520 C   0  0  0  0  0  1  0  0  0  0  0  0
  2  1  1  0
  2  4  2  0
  3  2  1  0
  5  3  1  0
  6  9  1  0
  7  9  2  0
  8 10  1  0
  8 11  2  0
  9  3  1  0
 10  6  2  0
 11  7  1  0
 12 11  1  0
 13 19  1  0
 14 19  1  0
 15 16  1  0
 15 14  1  0
 17 16  1  0
 17 26  1  0
 17 18  1  0
 19 18  1  0
 20 13  2  0
 21 13  1  0
 21 10  1  0
 22 21  1  0
 23 24  2  0
 24 43  1  0
 25 24  1  0
 25 28  1  0
 26 27  1  0
 26 23  1  0
 27 25  2  0
 28 29  1  0
 29 30  2  0
 31 34  1  0
 31 30  1  0
 32 31  2  0
 33 32  1  0
 33 28  2  0
 34 35  1  0
 35 40  2  0
 35 36  1  0
 36 37  2  0
 37 38  1  0
 38 42  1  0
 39 38  2  0
 40 39  1  0
 41 40  1  0
 43 44  1  0
 44 47  1  0
 44 46  1  0
 45 43  2  0
 48 23  1  0
 48 49  1  0
 50 48  1  0
 51  1  1  0
 53 52  1  0
 53 51  1  0
 54 55  2  0
 54 53  1  0
 58 56  1  6
 57 58  1  0
 58 54  1  0
 59 60  1  0
 59 58  1  0
 60 62  1  0
 61 72  2  0
 62 67  1  0
 63 71  1  0
 63 73  1  0
 64 66  1  0
 64 70  1  0
 65 71  1  0
 66 65  1  0
 67 66  2  0
 68 62  2  0
 68 69  1  0
 69 64  2  0
 70 63  1  0
 71 61  1  0
 73 75  2  0
 74 73  1  0
 76 74  1  0
 77 86  2  0
 77 82  1  0
 78 74  1  0
 78 82  1  0
 79 78  1  0
 80 81  1  0
 80 79  1  0
 81 77  1  0
 82 83  2  0
 83 84  1  0
 85 84  2  0
 86 85  1  0
 87 61  1  0
 87 97  1  0
 87 88  1  0
 88 91  1  0
 89 88  1  0
 89 93  1  0
 90 89  2  0
 93 92  1  0
 93 95  1  0
 95 96  1  0
 95 94  1  0
 97100  1  1
 97 98  1  0
 99 97  1  0
M  ISO  4  13 100  21 100  59 101  60 101
M  END
>  <TORSDO>  (24) 
F 23

>  <SCORE>  (24) 
-7.552

>  <name>  (24) 
23

>  <ligand_id>  (24) 
23

>  <original_smiles>  (24) 
[H]c1c([H])c([H])c2c(c1[H])C([H])([H])C([H])([H])C([H])([H])C2([H])N([H])C(=O)C1([H])N(C(=O)C([H])(N([H])C(=O)C([H])(N([H])C([H])([H])[H])C([H])([H])[H])C(C([H])([H])[H])(C([H])([H])[H])C([H])([H])[H])C([H])([H])c2c([H])c(OC([H])([H])C(C(=O)C([H])(C([H])([H])[H])C([H])([H])C([H])([H])C(=O)N([H])c3c([H])c(F)c([H])c(N([H])C(=O)N4C([H])([H])C([H])([H])C([H])([H])C([H])(n5nc(-c6c([H])c([H])c(Oc7c([H])c([H])c(F)c([H])c7F)c([H])c6[H])c(C(=O)N([H])[H])c5N([H])[H])C4([H])[H])c3[H])(C([H])([H])[H])C([H])([H])[H])c([H])c([H])c2C1([H])[H]

>  <smiles>  (24) 
[H]c1c([H])c([H])c2c(c1[H])C([H])([H])C([H])([H])C([H])([H])C2([H])N([H])C(=O)C1([H])N(C(=O)C([H])(N([H])C(=O)C([H])(N([H])C([H])([H])[H])C([H])([H])[H])C(C([H])([H])[H])(C([H])([H])[H])C([H])([H])[H])C([H])([H])c2c([H])c(OC([H])([H])C(C(=O)C([H])(C([H])([H])[H])C([H])([H])C([H])([H])C(=O)N([H])c3c([H])c(F)c([H])c(N([H])C(=O)N4C([H])([H])C([H])([H])C([H])([H])C([H])(n5nc(-c6c([H])c([H])c(Oc7c([H])c([H])c(F)c([H])c7F)c([H])c6[H])c(C(=O)N([H])[H])c5N([H])[H])C4([H])[H])c3[H])(C([H])([H])[H])C([H])([H])[H])c([H])c([H])c2C1([H])[H]

$$$$
24:0:0
     RDKit          3D

 95103  0  0  1  0  0  0  0  0999 V2000
  -29.6010  -22.4450   20.7160 C   0  0  0  0  0  0  0  0  0  0  0  0
  -30.4990  -22.9650   20.0370 O   0  0  0  0  0  0  0  0  0  0  0  0
  -27.0880  -22.1130   20.4260 C   0  0  0  0  0  1  0  0  0  0  0  0
  -27.9700  -23.3910   22.4120 C   0  0  0  0  0  1  0  0  0  0  0  0
  -28.2020  -23.0870   20.9100 C   0  0  1  0  0  0  0  0  0  0  0  0
  -28.1530  -24.3960   20.0690 C   0  0  0  0  0  0  0  0  0  0  0  0
  -27.8610  -24.3590   18.8670 O   0  0  0  0  0  0  0  0  0  0  0  0
  -28.5580  -25.7180   20.7620 C   0  0  0  0  0  2  0  0  0  0  0  0
  -28.4420  -26.8730   19.9230 O   0  0  0  0  0  0  0  0  0  0  0  0
  -24.6440  -31.9420   23.2460 C   0  0  0  0  0  0  0  0  0  0  0  0
  -27.2630  -27.5750   20.0360 C   0  0  0  0  0  0  0  0  0  0  0  0
  -23.4220  -30.5560   21.6050 C   0  0  0  0  0  3  0  0  0  0  0  0
  -24.8600  -29.0560   20.1350 C   0  0  0  0  0  0  0  0  0  0  0  0
  -25.9390  -30.9390   21.3670 C   0  0  0  0  0  2  0  0  0  0  0  0
  -26.0250  -29.5750   20.7130 C   0  0  0  0  0  0  0  0  0  0  0  0
  -27.2330  -28.8410   20.6680 C   0  0  0  0  0  3  0  0  0  0  0  0
  -26.0800  -27.0710   19.4570 C   0  0  0  0  0  3  0  0  0  0  0  0
  -24.8820  -27.8000   19.5080 C   0  0  0  0  0  3  0  0  0  0  0  0
  -23.6130  -29.9060   20.2110 C   0  0  0  0  0  2  0  0  0  0  0  0
  -24.6880  -31.1590   22.1320 N   0  0  0  0  0  0  0  0  0  0  0  0
  -23.5700  -32.1970   23.8070 O   0  0  0  0  0  0  0  0  0  0  0  0
  -22.7980  -29.5110   22.5570 C   0  0  0  0  0  0  0  0  0  0  0  0
  -21.4730  -29.3130   22.4400 N   0  0  0  0  0  0  0  0  0  0  0  0
  -23.4980  -28.8820   23.3550 O   0  0  0  0  0  0  0  0  0  0  0  0
  -20.9700  -29.8710   21.7650 H   0  0  0  0  0  0  0  0  0  0  0  0
  -18.1210  -28.0660   22.9440 C   0  0  0  0  0  0  0  0  0  0  0  0
  -20.6750  -28.3550   23.2040 C   0  0  0  0  0  3  0  0  0  0  0  0
  -20.7960  -26.9330   22.6110 C   0  0  0  0  0  2  0  0  0  0  0  0
  -19.6910  -26.6060   21.5990 C   0  0  0  0  0  2  0  0  0  0  0  0
  -18.3120  -26.7260   22.2530 C   0  0  0  0  0  2  0  0  0  0  0  0
  -19.2310  -28.8400   23.3760 C   0  0  0  0  0  0  0  0  0  0  0  0
  -18.9990  -30.0950   23.9780 C   0  0  0  0  0  3  0  0  0  0  0  0
  -17.6890  -30.5770   24.1560 C   0  0  0  0  0  3  0  0  0  0  0  0
  -16.5920  -29.8010   23.7410 C   0  0  0  0  0  3  0  0  0  0  0  0
  -16.8100  -28.5470   23.1410 C   0  0  0  0  0  3  0  0  0  0  0  0
  -25.9360  -32.5730   23.8520 C   0  0  0  0  0  3  0  0  0  0  0  0
  -25.6350  -33.9740   24.1710 N   0  0  0  0  0  0  0  0  0  0  0  0
  -25.9690  -35.0170   23.3980 C   0  0  0  0  0  0  0  0  0  0  0  0
  -26.6330  -34.8980   22.3630 O   0  0  0  0  0  0  0  0  0  0  0  0
  -25.0460  -34.1430   24.9730 H   0  0  0  0  0  0  0  0  0  0  0  0
  -24.2520  -36.8150   23.0190 C   0  0  0  0  0  1  0  0  0  0  0  0
  -25.4890  -36.4120   23.8380 C   0  0  0  0  0  3  0  0  0  0  0  0
  -27.6240  -37.2960   24.6690 C   0  0  0  0  0  1  0  0  0  0  0  0
  -26.5290  -37.4570   23.7150 N   0  0  0  0  0  0  0  0  0  0  0  0
  -26.1280  -38.3820   23.8450 H   0  0  0  0  0  0  0  0  0  0  0  0
  -26.4580  -31.8060   25.1300 C   0  0  1  0  0  0  0  0  0  0  0  0
  -25.3700  -31.5760   26.2050 C   0  0  0  0  0  1  0  0  0  0  0  0
  -27.0320  -30.4250   24.7360 C   0  0  0  0  0  1  0  0  0  0  0  0
  -27.6180  -32.5980   25.7790 C   0  0  0  0  0  1  0  0  0  0  0  0
  -29.8780  -21.0950   21.3900 C   0  0  0  0  0  2  0  0  0  0  0  0
  -30.8430  -20.3310   20.6080 N   0  0  0  0  0  0  0  0  0  0  0  0
  -31.1650  -20.9220   19.8420 H   0  0  0  0  0  0  0  0  0  0  0  0
  -30.4440  -17.9610   21.1600 C   0  0  0  0  0  3  0  0  0  0  0  0
  -30.1230  -18.6610   18.9580 C   0  0  0  0  0  3  0  0  0  0  0  0
  -30.4680  -19.0390   20.2240 C   0  0  0  0  0  0  0  0  0  0  0  0
  -30.1190  -16.7570   20.5870 C   0  0  0  0  0  0  0  0  0  0  0  0
  -29.7510  -16.9640   18.8850 S   0  0  0  0  0  0  0  0  0  0  0  0
  -30.8170  -14.5220   20.7260 C   0  0  0  0  0  0  0  0  0  0  0  0
  -30.5900  -12.3570   19.6050 C   0  0  0  0  0  2  0  0  0  0  0  0
  -29.7140  -12.5470   18.3500 C   0  0  0  0  0  2  0  0  0  0  0  0
  -28.2180  -12.4190   18.7020 C   0  0  0  0  0  2  0  0  0  0  0  0
  -27.8110  -13.2750   19.9310 C   0  0  0  0  0  3  0  0  0  0  0  0
  -28.8020  -13.0580   21.0970 C   0  0  0  0  0  2  0  0  0  0  0  0
  -30.1590  -13.3430   20.6040 N   0  0  0  0  0  0  0  0  0  0  0  0
  -31.9690  -14.7060   20.3220 O   0  0  0  0  0  0  0  0  0  0  0  0
  -30.0770  -15.5410   21.1810 N   0  0  0  0  0  0  0  0  0  0  0  0
  -29.1950  -15.2800   21.5940 H   0  0  0  0  0  0  0  0  0  0  0  0
  -25.3670  -13.8770   20.4790 C   0  0  0  0  0  0  0  0  0  0  0  0
  -24.2860  -13.1040   20.8090 C   0  0  0  0  0  0  0  0  0  0  0  0
  -24.7620  -11.7570   20.8450 C   0  0  0  0  0  0  0  0  0  0  0  0
  -26.4330  -13.0030   20.3370 N   0  0  0  0  0  0  0  0  0  0  0  0
  -26.0670  -11.7240   20.6140 N   0  0  0  0  0  0  0  0  0  0  0  0
  -24.0410  -10.4920   21.0290 C   0  0  0  0  0  0  0  0  0  0  0  0
  -24.4260   -9.5600   22.0180 C   0  0  0  0  0  3  0  0  0  0  0  0
  -23.7060   -8.3580   22.1890 C   0  0  0  0  0  3  0  0  0  0  0  0
  -22.5880   -8.0780   21.3680 C   0  0  0  0  0  0  0  0  0  0  0  0
  -22.2210   -8.9990   20.3710 C   0  0  0  0  0  3  0  0  0  0  0  0
  -22.9430  -10.1920   20.1990 C   0  0  0  0  0  3  0  0  0  0  0  0
  -21.8450   -6.9240   21.4450 O   0  0  0  0  0  0  0  0  0  0  0  0
  -21.7300   -6.2190   22.6150 C   0  0  0  0  0  0  0  0  0  0  0  0
  -21.1970   -6.8010   23.7860 C   0  0  0  0  0  3  0  0  0  0  0  0
  -21.0320   -6.0210   24.9480 C   0  0  0  0  0  3  0  0  0  0  0  0
  -21.3870   -4.6590   24.9390 C   0  0  0  0  0  0  0  0  0  0  0  0
  -21.9130   -4.0760   23.7710 C   0  0  0  0  0  3  0  0  0  0  0  0
  -22.0800   -4.8540   22.6130 C   0  0  0  0  0  0  0  0  0  0  0  0
  -22.5670   -4.2820   21.4850 F   0  0  0  0  0  0  0  0  0  0  0  0
  -21.2220   -3.9070   26.0520 F   0  0  0  0  0  0  0  0  0  0  0  0
  -22.8700  -13.5690   20.9860 C   0  0  0  0  0  0  0  0  0  0  0  0
  -22.1010  -12.8890   21.8260 N   0  0  0  0  0  0  0  0  0  0  0  0
  -22.4510  -14.5750   20.4120 O   0  0  0  0  0  0  0  0  0  0  0  0
  -22.4490  -12.0750   22.3140 H   0  0  0  0  0  0  0  0  0  0  0  0
  -21.1490  -13.1870   21.9890 H   0  0  0  0  0  0  0  0  0  0  0  0
  -25.5280  -15.2450   20.2690 N   0  0  0  0  0  0  0  0  0  0  0  0
  -24.7500  -15.8940   20.3090 H   0  0  0  0  0  0  0  0  0  0  0  0
  -26.3880  -15.6820   19.9700 H   0  0  0  0  0  0  0  0  0  0  0  0
  1  5  1  0
  1 50  1  0
  2  1  2  0
  5  3  1  6
  5  4  1  0
  6  8  1  0
  6  5  1  0
  7  6  2  0
  9 11  1  0
  9  8  1  0
 10 21  2  0
 11 16  1  0
 12 20  1  0
 12 22  1  0
 13 19  1  0
 13 15  1  0
 14 20  1  0
 15 14  1  0
 16 15  2  0
 17 18  1  0
 17 11  2  0
 18 13  2  0
 19 12  1  0
 20 10  1  0
 22 24  2  0
 23 22  1  0
 25 23  1  0
 26 35  2  0
 26 31  1  0
 27 23  1  0
 27 31  1  0
 28 27  1  0
 29 30  1  0
 29 28  1  0
 30 26  1  0
 31 32  2  0
 32 33  1  0
 34 33  2  0
 35 34  1  0
 36 10  1  0
 36 37  1  0
 36 46  1  0
 37 40  1  0
 38 42  1  0
 38 37  1  0
 39 38  2  0
 42 41  1  0
 44 42  1  0
 44 45  1  0
 44 43  1  0
 46 49  1  1
 46 47  1  0
 48 46  1  0
 51 50  1  0
 52 51  1  0
 54 55  2  0
 55 51  1  0
 55 53  1  0
 56 53  2  0
 56 66  1  0
 57 54  1  0
 57 56  1  0
 58 66  1  0
 59 64  1  0
 60 61  1  0
 60 59  1  0
 62 61  1  0
 62 71  1  0
 62 63  1  0
 64 58  1  0
 64 63  1  0
 65 58  2  0
 66 67  1  0
 68 69  2  0
 69 70  1  0
 69 88  1  0
 70 73  1  0
 71 68  1  0
 71 72  1  0
 72 70  2  0
 73 74  1  0
 74 75  2  0
 76 79  1  0
 76 75  1  0
 77 76  2  0
 78 77  1  0
 78 73  2  0
 79 80  1  0
 80 81  1  0
 81 82  2  0
 83 82  1  0
 83 87  1  0
 84 83  2  0
 85 80  2  0
 85 84  1  0
 86 85  1  0
 88 89  1  0
 89 92  1  0
 89 91  1  0
 90 88  2  0
 93 94  1  0
 93 68  1  0
 95 93  1  0
M  ISO  4   8 101   9 101  58 100  66 100
M  END
>  <TORSDO>  (25) 
F 22

>  <SCORE>  (25) 
-12.609

>  <name>  (25) 
24

>  <ligand_id>  (25) 
24

>  <original_smiles>  (25) 
[H]c1sc(N([H])C(=O)N2C([H])([H])C([H])([H])C([H])([H])C([H])(n3nc(-c4c([H])c([H])c(Oc5c([H])c([H])c(F)c([H])c5F)c([H])c4[H])c(C(=O)N([H])[H])c3N([H])[H])C2([H])[H])c([H])c1N([H])C([H])([H])C(=O)C(C(=O)C([H])([H])Oc1c([H])c([H])c2c(c1[H])C([H])([H])N(C(=O)C([H])(N([H])C(=O)C([H])(N([H])C([H])([H])[H])C([H])([H])[H])C(C([H])([H])[H])(C([H])([H])[H])C([H])([H])[H])C([H])(C(=O)N([H])C1([H])c3c([H])c([H])c([H])c([H])c3C([H])([H])C([H])([H])C1([H])[H])C2([H])[H])(C([H])([H])[H])C([H])([H])[H]

>  <smiles>  (25) 
[H]c1sc(N([H])C(=O)N2C([H])([H])C([H])([H])C([H])([H])C([H])(n3nc(-c4c([H])c([H])c(Oc5c([H])c([H])c(F)c([H])c5F)c([H])c4[H])c(C(=O)N([H])[H])c3N([H])[H])C2([H])[H])c([H])c1N([H])C([H])([H])C(=O)C(C(=O)C([H])([H])Oc1c([H])c([H])c2c(c1[H])C([H])([H])N(C(=O)C([H])(N([H])C(=O)C([H])(N([H])C([H])([H])[H])C([H])([H])[H])C(C([H])([H])[H])(C([H])([H])[H])C([H])([H])[H])C([H])(C(=O)N([H])C1([H])c3c([H])c([H])c([H])c([H])c3C([H])([H])C([H])([H])C1([H])[H])C2([H])[H])(C([H])([H])[H])C([H])([H])[H]

$$$$
25:0:0
     RDKit          3D

101109  0  0  1  0  0  0  0  0999 V2000
  -30.6370  -24.5540   19.5080 C   0  0  0  0  0  3  0  0  0  0  0  0
  -32.0230  -25.2650   17.5090 C   0  0  0  0  0  1  0  0  0  0  0  0
  -32.7030  -25.9760   19.7890 C   0  0  0  0  0  1  0  0  0  0  0  0
  -31.4710  -25.7320   18.8850 C   0  0  2  0  0  0  0  0  0  0  0  0
  -29.5970  -26.9130   17.5480 C   0  0  0  0  0  1  0  0  0  0  0  0
  -30.6110  -27.0720   18.7160 C   0  0  2  0  0  0  0  0  0  0  0  0
  -31.4780  -28.3300   18.3160 C   0  0  0  0  0  2  0  0  0  0  0  0
  -32.7440  -30.4820   18.8720 C   0  0  0  0  0  1  0  0  0  0  0  0
  -32.2200  -29.1460   19.4130 C   0  0  0  0  0  2  0  0  0  0  0  0
  -29.7730  -27.4650   19.9770 C   0  0  0  0  0  2  0  0  0  0  0  0
  -28.5390  -26.7470   20.1100 O   0  0  0  0  0  0  0  0  0  0  0  0
  -24.6400  -31.8950   23.2080 C   0  0  0  0  0  0  0  0  0  0  0  0
  -27.3730  -27.4850   20.1780 C   0  0  0  0  0  0  0  0  0  0  0  0
  -23.4550  -30.4640   21.5680 C   0  0  0  0  0  3  0  0  0  0  0  0
  -24.9360  -28.9270   20.1710 C   0  0  0  0  0  0  0  0  0  0  0  0
  -25.9710  -30.8570   21.3830 C   0  0  0  0  0  2  0  0  0  0  0  0
  -26.0750  -29.4780   20.7680 C   0  0  0  0  0  0  0  0  0  0  0  0
  -27.2850  -28.7590   20.7910 C   0  0  0  0  0  3  0  0  0  0  0  0
  -26.2110  -26.9330   19.6020 C   0  0  0  0  0  3  0  0  0  0  0  0
  -24.9950  -27.6470   19.5920 C   0  0  0  0  0  3  0  0  0  0  0  0
  -23.6800  -29.7680   20.1970 C   0  0  0  0  0  2  0  0  0  0  0  0
  -24.7050  -31.0870   22.1120 N   0  0  0  0  0  0  0  0  0  0  0  0
  -23.5540  -32.1630   23.7410 O   0  0  0  0  0  0  0  0  0  0  0  0
  -22.8100  -29.4470   22.5350 C   0  0  0  0  0  0  0  0  0  0  0  0
  -21.4870  -29.2600   22.4070 N   0  0  0  0  0  0  0  0  0  0  0  0
  -23.4960  -28.8290   23.3540 O   0  0  0  0  0  0  0  0  0  0  0  0
  -20.9960  -29.8090   21.7150 H   0  0  0  0  0  0  0  0  0  0  0  0
  -18.1130  -28.0790   22.9200 C   0  0  0  0  0  0  0  0  0  0  0  0
  -20.6730  -28.3240   23.1800 C   0  0  0  0  0  3  0  0  0  0  0  0
  -20.7670  -26.8940   22.6000 C   0  0  0  0  0  2  0  0  0  0  0  0
  -19.6590  -26.5790   21.5910 C   0  0  0  0  0  2  0  0  0  0  0  0
  -18.2800  -26.7300   22.2420 C   0  0  0  0  0  2  0  0  0  0  0  0
  -19.2380  -28.8350   23.3460 C   0  0  0  0  0  0  0  0  0  0  0  0
  -19.0280  -30.0990   23.9390 C   0  0  0  0  0  3  0  0  0  0  0  0
  -17.7280  -30.6070   24.1110 C   0  0  0  0  0  3  0  0  0  0  0  0
  -16.6180  -29.8480   23.7020 C   0  0  0  0  0  3  0  0  0  0  0  0
  -16.8120  -28.5860   23.1130 C   0  0  0  0  0  3  0  0  0  0  0  0
  -25.9190  -32.5390   23.8300 C   0  0  0  0  0  3  0  0  0  0  0  0
  -26.4520  -31.7680   25.0990 C   0  0  1  0  0  0  0  0  0  0  0  0
  -25.3660  -31.5090   26.1690 C   0  0  0  0  0  1  0  0  0  0  0  0
  -27.0520  -30.4020   24.6930 C   0  0  0  0  0  1  0  0  0  0  0  0
  -27.5950  -32.5730   25.7600 C   0  0  0  0  0  1  0  0  0  0  0  0
  -25.5930  -33.9310   24.1640 N   0  0  0  0  0  0  0  0  0  0  0  0
  -25.9130  -34.9890   23.4080 C   0  0  0  0  0  0  0  0  0  0  0  0
  -26.5870  -34.8970   22.3770 O   0  0  0  0  0  0  0  0  0  0  0  0
  -24.9960  -34.0760   24.9650 H   0  0  0  0  0  0  0  0  0  0  0  0
  -24.1690  -36.7620   23.0470 C   0  0  0  0  0  1  0  0  0  0  0  0
  -25.4060  -36.3690   23.8670 C   0  0  0  0  0  3  0  0  0  0  0  0
  -27.5240  -37.2740   24.7180 C   0  0  0  0  0  1  0  0  0  0  0  0
  -26.4270  -37.4340   23.7680 N   0  0  0  0  0  0  0  0  0  0  0  0
  -26.0080  -38.3480   23.9180 H   0  0  0  0  0  0  0  0  0  0  0  0
  -31.3320  -23.1600   19.5040 C   0  0  0  0  0  3  0  0  0  0  0  0
  -30.5590  -22.0000   20.1410 C   0  0  0  0  0  0  0  0  0  0  0  0
  -31.2900  -20.8890   20.3370 N   0  0  0  0  0  0  0  0  0  0  0  0
  -29.3730  -22.1240   20.4590 O   0  0  0  0  0  0  0  0  0  0  0  0
  -32.2800  -21.0030   20.1680 H   0  0  0  0  0  0  0  0  0  0  0  0
  -31.8760  -18.6540   21.0660 C   0  0  0  0  0  3  0  0  0  0  0  0
  -31.5820  -17.2850   21.2210 C   0  0  0  0  0  3  0  0  0  0  0  0
  -29.5810  -19.0700   20.3750 C   0  0  0  0  0  3  0  0  0  0  0  0
  -29.2840  -17.6980   20.5230 C   0  0  0  0  0  0  0  0  0  0  0  0
  -30.8860  -19.5540   20.6190 C   0  0  0  0  0  0  0  0  0  0  0  0
  -30.2960  -16.7860   20.9090 C   0  0  0  0  0  0  0  0  0  0  0  0
  -27.8840  -17.2190   20.1990 C   0  0  0  0  0  1  0  0  0  0  0  0
  -30.6310  -14.4320   20.2680 C   0  0  0  0  0  0  0  0  0  0  0  0
  -30.2530  -12.3360   19.0330 C   0  0  0  0  0  2  0  0  0  0  0  0
  -29.2730  -12.6030   17.8720 C   0  0  0  0  0  2  0  0  0  0  0  0
  -27.8150  -12.4580   18.3490 C   0  0  0  0  0  2  0  0  0  0  0  0
  -27.5290  -13.2480   19.6550 C   0  0  0  0  0  3  0  0  0  0  0  0
  -28.6190  -12.9720   20.7150 C   0  0  0  0  0  2  0  0  0  0  0  0
  -29.9310  -13.2780   20.1140 N   0  0  0  0  0  0  0  0  0  0  0  0
  -31.7200  -14.6290   19.7180 O   0  0  0  0  0  0  0  0  0  0  0  0
  -30.0090  -15.3930   20.9750 N   0  0  0  0  0  0  0  0  0  0  0  0
  -29.0940  -15.1320   21.3110 H   0  0  0  0  0  0  0  0  0  0  0  0
  -25.1390  -13.8420   20.4190 C   0  0  0  0  0  0  0  0  0  0  0  0
  -24.0910  -13.0650   20.8290 C   0  0  0  0  0  0  0  0  0  0  0  0
  -24.5640  -11.7180   20.7930 C   0  0  0  0  0  0  0  0  0  0  0  0
  -26.1880  -12.9700   20.1690 N   0  0  0  0  0  0  0  0  0  0  0  0
  -25.8450  -11.6870   20.4480 N   0  0  0  0  0  0  0  0  0  0  0  0
  -23.8550  -10.4520   21.0090 C   0  0  0  0  0  0  0  0  0  0  0  0
  -24.3060   -9.5050   21.9550 C   0  0  0  0  0  3  0  0  0  0  0  0
  -23.5950   -8.3040   22.1600 C   0  0  0  0  0  3  0  0  0  0  0  0
  -22.4200   -8.0390   21.4180 C   0  0  0  0  0  0  0  0  0  0  0  0
  -21.9870   -8.9740   20.4610 C   0  0  0  0  0  3  0  0  0  0  0  0
  -22.6990  -10.1670   20.2550 C   0  0  0  0  0  3  0  0  0  0  0  0
  -21.6800   -6.8860   21.5300 O   0  0  0  0  0  0  0  0  0  0  0  0
  -21.6380   -6.1690   22.6990 C   0  0  0  0  0  0  0  0  0  0  0  0
  -21.1930   -6.7440   23.9090 C   0  0  0  0  0  3  0  0  0  0  0  0
  -21.0970   -5.9530   25.0710 C   0  0  0  0  0  3  0  0  0  0  0  0
  -21.4390   -4.5890   25.0250 C   0  0  0  0  0  0  0  0  0  0  0  0
  -21.8790   -4.0140   23.8200 C   0  0  0  0  0  3  0  0  0  0  0  0
  -21.9760   -4.8010   22.6590 C   0  0  0  0  0  0  0  0  0  0  0  0
  -22.3790   -4.2380   21.4950 F   0  0  0  0  0  0  0  0  0  0  0  0
  -21.3410   -3.8270   26.1390 F   0  0  0  0  0  0  0  0  0  0  0  0
  -22.6980  -13.5330   21.1360 C   0  0  0  0  0  0  0  0  0  0  0  0
  -21.9990  -12.8360   22.0250 N   0  0  0  0  0  0  0  0  0  0  0  0
  -22.2390  -14.5530   20.6240 O   0  0  0  0  0  0  0  0  0  0  0  0
  -22.3820  -12.0110   22.4610 H   0  0  0  0  0  0  0  0  0  0  0  0
  -21.0650  -13.1330   22.2720 H   0  0  0  0  0  0  0  0  0  0  0  0
  -25.2750  -15.2100   20.2180 N   0  0  0  0  0  0  0  0  0  0  0  0
  -24.4930  -15.8470   20.3230 H   0  0  0  0  0  0  0  0  0  0  0  0
  -26.0880  -15.6470   19.8070 H   0  0  0  0  0  0  0  0  0  0  0  0
  4  2  1  6
  4  1  1  0
  4  3  1  0
  6  5  1  6
  6  4  1  0
  6 10  1  0
  7  6  1  0
  7  9  1  0
  8  9  1  0
 10 11  1  0
 11 13  1  0
 12 23  2  0
 13 18  1  0
 14 22  1  0
 14 24  1  0
 15 21  1  0
 15 17  1  0
 16 22  1  0
 17 18  2  0
 17 16  1  0
 19 13  2  0
 20 19  1  0
 20 15  2  0
 21 14  1  0
 22 12  1  0
 24 26  2  0
 25 24  1  0
 27 25  1  0
 28 37  2  0
 28 33  1  0
 29 25  1  0
 29 33  1  0
 30 29  1  0
 31 32  1  0
 31 30  1  0
 32 28  1  0
 33 34  2  0
 34 35  1  0
 36 35  2  0
 37 36  1  0
 38 12  1  0
 38 43  1  0
 38 39  1  0
 39 42  1  1
 39 40  1  0
 41 39  1  0
 43 46  1  0
 44 48  1  0
 44 43  1  0
 45 44  2  0
 48 47  1  0
 50 48  1  0
 50 51  1  0
 50 49  1  0
 52  1  2  0
 52 53  1  0
 53 54  1  0
 53 55  2  0
 54 61  1  0
 56 54  1  0
 57 58  1  0
 59 60  2  0
 59 61  1  0
 60 62  1  0
 61 57  2  0
 62 72  1  0
 62 58  2  0
 63 60  1  0
 64 72  1  0
 65 70  1  0
 66 67  1  0
 66 65  1  0
 68 67  1  0
 68 77  1  0
 68 69  1  0
 70 64  1  0
 70 69  1  0
 71 64  2  0
 72 73  1  0
 74 75  2  0
 75 94  1  0
 76 75  1  0
 76 79  1  0
 77 74  1  0
 77 78  1  0
 78 76  2  0
 79 80  1  0
 80 81  2  0
 82 85  1  0
 82 81  1  0
 83 82  2  0
 84 83  1  0
 84 79  2  0
 85 86  1  0
 86 87  1  0
 87 88  2  0
 89 88  1  0
 89 93  1  0
 90 89  2  0
 91 86  2  0
 91 90  1  0
 92 91  1  0
 94 95  1  0
 95 98  1  0
 95 97  1  0
 96 94  2  0
 99100  1  0
 99 74  1  0
101 99  1  0
M  ISO  4  10 101  11 101  64 100  72 100
M  END
>  <TORSDO>  (26) 
F 24

>  <SCORE>  (26) 
-13.190

>  <name>  (26) 
25

>  <ligand_id>  (26) 
25

>  <original_smiles>  (26) 
[H]c1c([H])c([H])c2c(c1[H])C([H])([H])C([H])([H])C([H])([H])C2([H])N([H])C(=O)C1([H])N(C(=O)C([H])(N([H])C(=O)C([H])(N([H])C([H])([H])[H])C([H])([H])[H])C(C([H])([H])[H])(C([H])([H])[H])C([H])([H])[H])C([H])([H])c2c([H])c(OC([H])([H])C(C([H])([H])[H])(C([H])([H])C([H])([H])C([H])([H])[H])C(C([H])([H])[H])(C([H])([H])[H])C([H])([H])C([H])([H])C(=O)N([H])c3c([H])c([H])c(N([H])C(=O)N4C([H])([H])C([H])([H])C([H])([H])C([H])(n5nc(-c6c([H])c([H])c(Oc7c([H])c([H])c(F)c([H])c7F)c([H])c6[H])c(C(=O)N([H])[H])c5N([H])[H])C4([H])[H])c(C([H])([H])[H])c3[H])c([H])c([H])c2C1([H])[H]

>  <smiles>  (26) 
[H]c1c([H])c([H])c2c(c1[H])C([H])([H])C([H])([H])C([H])([H])C2([H])N([H])C(=O)C1([H])N(C(=O)C([H])(N([H])C(=O)C([H])(N([H])C([H])([H])[H])C([H])([H])[H])C(C([H])([H])[H])(C([H])([H])[H])C([H])([H])[H])C([H])([H])c2c([H])c(OC([H])([H])C(C([H])([H])[H])(C([H])([H])C([H])([H])C([H])([H])[H])C(C([H])([H])[H])(C([H])([H])[H])C([H])([H])C([H])([H])C(=O)N([H])c3c([H])c([H])c(N([H])C(=O)N4C([H])([H])C([H])([H])C([H])([H])C([H])(n5nc(-c6c([H])c([H])c(Oc7c([H])c([H])c(F)c([H])c7F)c([H])c6[H])c(C(=O)N([H])[H])c5N([H])[H])C4([H])[H])c(C([H])([H])[H])c3[H])c([H])c([H])c2C1([H])[H]

$$$$
26:0:0
     RDKit          3D

 95104  0  0  1  0  0  0  0  0999 V2000
  -29.4890  -23.5000   19.3850 C   0  0  0  0  0  2  0  0  0  0  0  0
  -27.9400  -22.6850   21.1880 C   0  0  0  0  0  2  0  0  0  0  0  0
  -30.3440  -22.3100   19.9400 C   0  0  0  0  0  2  0  0  0  0  0  0
  -28.2030  -21.2460   20.5990 C   0  0  0  0  0  2  0  0  0  0  0  0
  -28.2340  -23.8900   20.2260 C   0  0  0  0  0  3  0  0  0  0  0  0
  -29.5940  -21.0470   20.1570 N   0  0  0  0  0  0  0  0  0  0  0  0
  -31.7170  -19.9020   20.6240 C   0  0  0  0  0  3  0  0  0  0  0  0
  -29.7780  -18.4680   20.3070 C   0  0  0  0  0  3  0  0  0  0  0  0
  -31.9730  -17.4830   20.7310 C   0  0  0  0  0  3  0  0  0  0  0  0
  -30.3220  -19.8120   20.3680 C   0  0  0  0  0  0  0  0  0  0  0  0
  -32.5310  -18.7700   20.7990 C   0  0  0  0  0  0  0  0  0  0  0  0
  -30.6000  -17.2790   20.4490 C   0  0  0  0  0  0  0  0  0  0  0  0
  -30.7950  -14.7550   20.0010 C   0  0  0  0  0  0  0  0  0  0  0  0
  -30.4760  -12.5160   18.9730 C   0  0  0  0  0  2  0  0  0  0  0  0
  -29.4800  -12.6210   17.8010 C   0  0  0  0  0  2  0  0  0  0  0  0
  -28.0370  -12.4570   18.3080 C   0  0  0  0  0  2  0  0  0  0  0  0
  -27.7330  -13.3410   19.5460 C   0  0  0  0  0  3  0  0  0  0  0  0
  -28.8470  -13.2420   20.6110 C   0  0  0  0  0  2  0  0  0  0  0  0
  -30.1180  -13.5640   19.9530 N   0  0  0  0  0  0  0  0  0  0  0  0
  -31.9420  -14.8290   19.5530 O   0  0  0  0  0  0  0  0  0  0  0  0
  -30.0990  -15.8960   20.3470 N   0  0  0  0  0  0  0  0  0  0  0  0
  -29.1160  -15.7610   20.5180 H   0  0  0  0  0  0  0  0  0  0  0  0
  -25.3970  -13.9290   20.4310 C   0  0  0  0  0  0  0  0  0  0  0  0
  -24.3510  -13.1500   20.8460 C   0  0  0  0  0  0  0  0  0  0  0  0
  -24.8040  -11.7990   20.7520 C   0  0  0  0  0  0  0  0  0  0  0  0
  -26.4190  -13.0510   20.1090 N   0  0  0  0  0  0  0  0  0  0  0  0
  -26.0720  -11.7620   20.3630 N   0  0  0  0  0  0  0  0  0  0  0  0
  -24.0820  -10.5340   20.9500 C   0  0  0  0  0  0  0  0  0  0  0  0
  -24.5290   -9.5670   21.8780 C   0  0  0  0  0  3  0  0  0  0  0  0
  -23.8050   -8.3690   22.0650 C   0  0  0  0  0  3  0  0  0  0  0  0
  -22.6240   -8.1280   21.3230 C   0  0  0  0  0  0  0  0  0  0  0  0
  -22.1960   -9.0850   20.3860 C   0  0  0  0  0  3  0  0  0  0  0  0
  -22.9190  -10.2770   20.1980 C   0  0  0  0  0  3  0  0  0  0  0  0
  -21.8720   -6.9820   21.4200 O   0  0  0  0  0  0  0  0  0  0  0  0
  -21.8020   -6.2650   22.5880 C   0  0  0  0  0  0  0  0  0  0  0  0
  -21.3060   -6.8320   23.7820 C   0  0  0  0  0  3  0  0  0  0  0  0
  -21.1860   -6.0410   24.9410 C   0  0  0  0  0  3  0  0  0  0  0  0
  -21.5490   -4.6820   24.9070 C   0  0  0  0  0  0  0  0  0  0  0  0
  -22.0360   -4.1130   23.7160 C   0  0  0  0  0  3  0  0  0  0  0  0
  -22.1600   -4.9030   22.5610 C   0  0  0  0  0  0  0  0  0  0  0  0
  -22.6110   -4.3450   21.4100 F   0  0  0  0  0  0  0  0  0  0  0  0
  -21.4270   -3.9170   26.0180 F   0  0  0  0  0  0  0  0  0  0  0  0
  -22.9750  -13.6270   21.2130 C   0  0  0  0  0  0  0  0  0  0  0  0
  -22.2940  -12.9120   22.1000 N   0  0  0  0  0  0  0  0  0  0  0  0
  -22.5160  -14.6690   20.7480 O   0  0  0  0  0  0  0  0  0  0  0  0
  -22.6780  -12.0680   22.5000 H   0  0  0  0  0  0  0  0  0  0  0  0
  -21.3730  -13.2150   22.3850 H   0  0  0  0  0  0  0  0  0  0  0  0
  -25.5580  -15.3040   20.2790 N   0  0  0  0  0  0  0  0  0  0  0  0
  -24.7950  -15.9530   20.4390 H   0  0  0  0  0  0  0  0  0  0  0  0
  -26.3720  -15.7480   19.8730 H   0  0  0  0  0  0  0  0  0  0  0  0
  -33.8990  -18.9280   21.0320 N   0  0  0  0  0  0  0  0  0  0  0  0
  -34.3270  -19.8100   20.7650 H   0  0  0  0  0  0  0  0  0  0  0  0
  -34.5060  -18.1400   20.8240 H   0  0  0  0  0  0  0  0  0  0  0  0
  -28.2790  -25.3010   20.9780 C   0  0  0  0  0  2  0  0  0  0  0  0
  -28.3920  -26.5900   20.2720 O   0  0  0  0  0  0  0  0  0  0  0  0
  -24.6160  -31.9700   23.2680 C   0  0  0  0  0  0  0  0  0  0  0  0
  -27.2700  -27.4200   20.2660 C   0  0  0  0  0  0  0  0  0  0  0  0
  -23.4290  -30.5520   21.6280 C   0  0  0  0  0  3  0  0  0  0  0  0
  -24.8970  -28.9930   20.2320 C   0  0  0  0  0  0  0  0  0  0  0  0
  -25.9650  -30.8900   21.4550 C   0  0  0  0  0  2  0  0  0  0  0  0
  -26.0580  -29.5060   20.8230 C   0  0  0  0  0  0  0  0  0  0  0  0
  -27.2550  -28.7320   20.8240 C   0  0  0  0  0  3  0  0  0  0  0  0
  -26.0890  -26.9450   19.6640 C   0  0  0  0  0  3  0  0  0  0  0  0
  -24.9110  -27.7150   19.6460 C   0  0  0  0  0  3  0  0  0  0  0  0
  -23.6560  -29.8620   20.2580 C   0  0  0  0  0  2  0  0  0  0  0  0
  -24.6890  -31.1550   22.1740 N   0  0  0  0  0  0  0  0  0  0  0  0
  -23.5280  -32.2480   23.7930 O   0  0  0  0  0  0  0  0  0  0  0  0
  -22.7640  -29.5440   22.5940 C   0  0  0  0  0  0  0  0  0  0  0  0
  -21.4380  -29.3670   22.4650 N   0  0  0  0  0  0  0  0  0  0  0  0
  -23.4410  -28.9210   23.4180 O   0  0  0  0  0  0  0  0  0  0  0  0
  -20.9500  -29.9260   21.7790 H   0  0  0  0  0  0  0  0  0  0  0  0
  -18.0580  -28.1800   22.9680 C   0  0  0  0  0  0  0  0  0  0  0  0
  -20.6160  -28.4320   23.2360 C   0  0  0  0  0  3  0  0  0  0  0  0
  -20.7140  -26.9980   22.6660 C   0  0  0  0  0  2  0  0  0  0  0  0
  -19.6120  -26.6740   21.6510 C   0  0  0  0  0  2  0  0  0  0  0  0
  -18.2310  -26.8270   22.2970 C   0  0  0  0  0  2  0  0  0  0  0  0
  -19.1790  -28.9390   23.3960 C   0  0  0  0  0  0  0  0  0  0  0  0
  -18.9660  -30.2030   23.9870 C   0  0  0  0  0  3  0  0  0  0  0  0
  -17.6650  -30.7090   24.1530 C   0  0  0  0  0  3  0  0  0  0  0  0
  -16.5560  -29.9480   23.7410 C   0  0  0  0  0  3  0  0  0  0  0  0
  -16.7540  -28.6850   23.1560 C   0  0  0  0  0  3  0  0  0  0  0  0
  -25.8920  -32.6120   23.8950 C   0  0  0  0  0  3  0  0  0  0  0  0
  -26.4090  -31.8510   25.1790 C   0  0  1  0  0  0  0  0  0  0  0  0
  -25.3120  -31.6110   26.2410 C   0  0  0  0  0  1  0  0  0  0  0  0
  -27.0050  -30.4770   24.7970 C   0  0  0  0  0  1  0  0  0  0  0  0
  -27.5460  -32.6610   25.8480 C   0  0  0  0  0  1  0  0  0  0  0  0
  -25.5760  -34.0120   24.2140 N   0  0  0  0  0  0  0  0  0  0  0  0
  -25.9060  -35.0620   23.4520 C   0  0  0  0  0  0  0  0  0  0  0  0
  -26.5800  -34.9570   22.4240 O   0  0  0  0  0  0  0  0  0  0  0  0
  -24.9790  -34.1700   25.0140 H   0  0  0  0  0  0  0  0  0  0  0  0
  -24.1750  -36.8500   23.0790 C   0  0  0  0  0  1  0  0  0  0  0  0
  -25.4110  -36.4520   23.9010 C   0  0  0  0  0  3  0  0  0  0  0  0
  -27.5350  -37.3500   24.7490 C   0  0  0  0  0  1  0  0  0  0  0  0
  -26.4430  -37.5060   23.7910 N   0  0  0  0  0  0  0  0  0  0  0  0
  -26.0320  -38.4270   23.9270 H   0  0  0  0  0  0  0  0  0  0  0  0
  1  3  1  0
  1  5  1  0
  3  6  1  0
  4  2  1  0
  5 54  1  0
  5  2  1  0
  6 10  1  0
  6  4  1  0
  7 11  1  0
  8 10  1  0
  8 12  2  0
  9 11  2  0
 10  7  2  0
 11 51  1  0
 12  9  1  0
 13 21  1  0
 14 19  1  0
 15 16  1  0
 15 14  1  0
 17 16  1  0
 17 26  1  0
 17 18  1  0
 19 13  1  0
 19 18  1  0
 20 13  2  0
 21 12  1  0
 21 22  1  0
 23 24  2  0
 24 43  1  0
 25 24  1  0
 25 28  1  0
 26 27  1  0
 26 23  1  0
 27 25  2  0
 28 29  1  0
 29 30  2  0
 31 34  1  0
 31 30  1  0
 32 31  2  0
 33 32  1  0
 33 28  2  0
 34 35  1  0
 35 36  1  0
 36 37  2  0
 38 37  1  0
 38 42  1  0
 39 38  2  0
 40 35  2  0
 40 39  1  0
 41 40  1  0
 43 44  1  0
 44 47  1  0
 44 46  1  0
 45 43  2  0
 48 23  1  0
 48 49  1  0
 50 48  1  0
 52 51  1  0
 53 51  1  0
 55 54  1  0
 56 67  2  0
 57 55  1  0
 57 62  1  0
 58 66  1  0
 58 68  1  0
 59 65  1  0
 59 61  1  0
 60 66  1  0
 61 62  2  0
 61 60  1  0
 63 57  2  0
 64 63  1  0
 64 59  2  0
 65 58  1  0
 66 56  1  0
 68 70  2  0
 69 68  1  0
 71 69  1  0
 72 81  2  0
 72 77  1  0
 73 69  1  0
 73 77  1  0
 74 73  1  0
 75 76  1  0
 75 74  1  0
 76 72  1  0
 77 78  2  0
 78 79  1  0
 80 79  2  0
 81 80  1  0
 82 56  1  0
 82 87  1  0
 82 83  1  0
 83 86  1  1
 83 84  1  0
 85 83  1  0
 87 90  1  0
 88 92  1  0
 88 87  1  0
 89 88  2  0
 92 91  1  0
 94 92  1  0
 94 95  1  0
 94 93  1  0
M  ISO  4  13 100  21 100  54 101  55 101
M  END
>  <TORSDO>  (27) 
F 19

>  <SCORE>  (27) 
-14.583

>  <name>  (27) 
26

>  <ligand_id>  (27) 
26

>  <original_smiles>  (27) 
[H]c1c([H])c([H])c2c(c1[H])C([H])([H])C([H])([H])C([H])([H])C2([H])N([H])C(=O)C1([H])N(C(=O)C([H])(N([H])C(=O)C([H])(N([H])C([H])([H])[H])C([H])([H])[H])C(C([H])([H])[H])(C([H])([H])[H])C([H])([H])[H])C([H])([H])c2c([H])c(OC([H])([H])C3([H])C([H])([H])C([H])([H])N(c4c([H])c(N([H])[H])c([H])c(N([H])C(=O)N5C([H])([H])C([H])([H])C([H])([H])C([H])(n6nc(-c7c([H])c([H])c(Oc8c([H])c([H])c(F)c([H])c8F)c([H])c7[H])c(C(=O)N([H])[H])c6N([H])[H])C5([H])[H])c4[H])C([H])([H])C3([H])[H])c([H])c([H])c2C1([H])[H]

>  <smiles>  (27) 
[H]c1c([H])c([H])c2c(c1[H])C([H])([H])C([H])([H])C([H])([H])C2([H])N([H])C(=O)C1([H])N(C(=O)C([H])(N([H])C(=O)C([H])(N([H])C([H])([H])[H])C([H])([H])[H])C(C([H])([H])[H])(C([H])([H])[H])C([H])([H])[H])C([H])([H])c2c([H])c(OC([H])([H])C3([H])C([H])([H])C([H])([H])N(c4c([H])c(N([H])[H])c([H])c(N([H])C(=O)N5C([H])([H])C([H])([H])C([H])([H])C([H])(n6nc(-c7c([H])c([H])c(Oc8c([H])c([H])c(F)c([H])c8F)c([H])c7[H])c(C(=O)N([H])[H])c6N([H])[H])C5([H])[H])c4[H])C([H])([H])C3([H])[H])c([H])c([H])c2C1([H])[H]

$$$$
27:0:0
     RDKit          3D

103112  0  0  1  0  0  0  0  0999 V2000
  -28.5950  -22.4670   22.3000 C   0  0  0  0  0  0  0  0  0  0  0  0
  -27.3710  -22.9720   22.0830 C   0  0  0  0  0  3  0  0  0  0  0  0
  -29.1330  -22.1020   23.6580 C   0  0  0  0  0  2  0  0  0  0  0  0
  -29.6620  -22.2180   21.2600 C   0  0  0  0  0  2  0  0  0  0  0  0
  -30.6430  -22.0820   23.4390 C   0  0  0  0  0  2  0  0  0  0  0  0
  -30.8240  -21.7000   22.0220 N   0  0  2  0  0  4  0  0  0  0  0  0
  -30.7480  -20.6950   21.9940 H   0  0  0  0  0  0  0  0  0  0  0  0
  -25.2410  -23.2040   20.8740 C   0  0  0  0  0  1  0  0  0  0  0  0
  -26.7660  -23.3970   20.7460 C   0  0  0  0  0  3  0  0  0  0  0  0
  -27.0070  -25.8470   21.4530 C   0  0  0  0  0  1  0  0  0  0  0  0
  -27.2510  -24.8340   20.2960 C   0  0  1  0  0  0  0  0  0  0  0  0
  -28.7870  -24.7640   20.0640 C   0  0  0  0  0  2  0  0  0  0  0  0
  -29.3340  -26.0240   19.7050 O   0  0  0  0  0  0  0  0  0  0  0  0
  -28.7250  -26.4360   19.0970 H   0  0  0  0  0  0  0  0  0  0  0  0
  -26.5850  -25.2680   18.9280 C   0  0  0  0  0  2  0  0  0  0  0  0
  -26.8100  -26.6310   18.5210 O   0  0  0  0  0  0  0  0  0  0  0  0
  -25.3270  -31.3860   23.5590 C   0  0  0  0  0  0  0  0  0  0  0  0
  -25.9080  -27.5950   18.9290 C   0  0  0  0  0  0  0  0  0  0  0  0
  -23.4640  -30.8360   22.0320 C   0  0  0  0  0  3  0  0  0  0  0  0
  -24.0950  -29.5130   19.9470 C   0  0  0  0  0  0  0  0  0  0  0  0
  -25.8910  -30.6740   21.2390 C   0  0  0  0  0  2  0  0  0  0  0  0
  -25.4490  -29.5730   20.3000 C   0  0  0  0  0  0  0  0  0  0  0  0
  -26.3590  -28.6220   19.7880 C   0  0  0  0  0  3  0  0  0  0  0  0
  -24.5370  -27.5660   18.5700 C   0  0  0  0  0  3  0  0  0  0  0  0
  -23.6330  -28.5100   19.0830 C   0  0  0  0  0  3  0  0  0  0  0  0
  -23.1850  -30.5690   20.5290 C   0  0  0  0  0  2  0  0  0  0  0  0
  -24.9270  -30.9550   22.3300 N   0  0  0  0  0  0  0  0  0  0  0  0
  -24.5000  -31.7180   24.4210 O   0  0  0  0  0  0  0  0  0  0  0  0
  -22.7530  -29.7460   22.8670 C   0  0  0  0  0  0  0  0  0  0  0  0
  -21.4140  -29.6940   22.7660 N   0  0  0  0  0  0  0  0  0  0  0  0
  -23.4010  -28.9590   23.5630 O   0  0  0  0  0  0  0  0  0  0  0  0
  -20.9600  -30.3820   22.1820 H   0  0  0  0  0  0  0  0  0  0  0  0
  -18.0250  -28.4460   22.9020 C   0  0  0  0  0  0  0  0  0  0  0  0
  -20.5390  -28.7320   23.4330 C   0  0  0  0  0  3  0  0  0  0  0  0
  -20.7200  -27.3120   22.8470 C   0  0  0  0  0  2  0  0  0  0  0  0
  -19.7310  -26.9940   21.7220 C   0  0  0  0  0  2  0  0  0  0  0  0
  -18.2890  -27.1110   22.2260 C   0  0  0  0  0  2  0  0  0  0  0  0
  -19.0850  -29.2140   23.4550 C   0  0  0  0  0  0  0  0  0  0  0  0
  -18.7900  -30.4650   24.0400 C   0  0  0  0  0  3  0  0  0  0  0  0
  -17.4680  -30.9470   24.0820 C   0  0  0  0  0  3  0  0  0  0  0  0
  -16.4220  -30.1770   23.5450 C   0  0  0  0  0  3  0  0  0  0  0  0
  -16.7020  -28.9280   22.9610 C   0  0  0  0  0  3  0  0  0  0  0  0
  -26.8380  -31.5050   23.9330 C   0  0  0  0  0  3  0  0  0  0  0  0
  -26.9970  -32.7220   24.7400 N   0  0  0  0  0  0  0  0  0  0  0  0
  -27.5240  -33.8690   24.2890 C   0  0  0  0  0  0  0  0  0  0  0  0
  -28.0000  -33.9870   23.1560 O   0  0  0  0  0  0  0  0  0  0  0  0
  -26.5880  -32.7110   25.6620 H   0  0  0  0  0  0  0  0  0  0  0  0
  -26.4070  -36.0530   24.8480 C   0  0  0  0  0  1  0  0  0  0  0  0
  -27.5240  -35.0750   25.2480 C   0  0  0  0  0  3  0  0  0  0  0  0
  -29.8830  -35.0190   25.9250 C   0  0  0  0  0  1  0  0  0  0  0  0
  -28.8160  -35.7920   25.2950 N   0  0  0  0  0  0  0  0  0  0  0  0
  -28.7220  -36.6700   25.7970 H   0  0  0  0  0  0  0  0  0  0  0  0
  -27.3870  -30.2450   24.7080 C   0  0  1  0  0  0  0  0  0  0  0  0
  -26.5280  -29.8380   25.9290 C   0  0  0  0  0  1  0  0  0  0  0  0
  -27.4750  -29.0230   23.7640 C   0  0  0  0  0  1  0  0  0  0  0  0
  -28.8250  -30.5210   25.2050 C   0  0  0  0  0  1  0  0  0  0  0  0
  -32.1490  -22.0490   21.4620 C   0  0  0  0  0  2  0  0  0  0  0  0
  -33.0910  -21.4650   19.1760 C   0  0  0  0  0  3  0  0  0  0  0  0
  -33.2600  -19.1460   18.4400 C   0  0  0  0  0  3  0  0  0  0  0  0
  -32.4280  -19.6560   20.6720 C   0  0  0  0  0  3  0  0  0  0  0  0
  -33.4170  -20.5230   18.1810 C   0  0  0  0  0  0  0  0  0  0  0  0
  -32.5800  -21.0340   20.4170 C   0  0  0  0  0  0  0  0  0  0  0  0
  -32.7670  -18.7000   19.6920 C   0  0  0  0  0  0  0  0  0  0  0  0
  -33.1840  -16.2250   19.6500 C   0  0  0  0  0  0  0  0  0  0  0  0
  -33.0460  -13.7670   19.5350 C   0  0  0  0  0  2  0  0  0  0  0  0
  -32.1860  -13.3360   18.3320 C   0  0  0  0  0  2  0  0  0  0  0  0
  -30.6930  -13.2950   18.7090 C   0  0  0  0  0  2  0  0  0  0  0  0
  -30.2240  -14.5880   19.4280 C   0  0  0  0  0  3  0  0  0  0  0  0
  -31.1970  -14.9620   20.5670 C   0  0  0  0  0  2  0  0  0  0  0  0
  -32.5570  -15.0720   20.0010 N   0  0  0  0  0  0  0  0  0  0  0  0
  -34.2560  -16.2420   19.0410 O   0  0  0  0  0  0  0  0  0  0  0  0
  -32.5440  -17.3390   20.0390 N   0  0  0  0  0  0  0  0  0  0  0  0
  -31.7300  -17.1580   20.6060 H   0  0  0  0  0  0  0  0  0  0  0  0
  -27.9240  -15.4440   20.2150 C   0  0  0  0  0  0  0  0  0  0  0  0
  -26.7710  -14.7890   20.5560 C   0  0  0  0  0  0  0  0  0  0  0  0
  -27.0590  -13.3950   20.4290 C   0  0  0  0  0  0  0  0  0  0  0  0
  -28.8480  -14.4570   19.9100 N   0  0  0  0  0  0  0  0  0  0  0  0
  -28.3300  -13.2150   20.0940 N   0  0  0  0  0  0  0  0  0  0  0  0
  -26.1820  -12.2240   20.5540 C   0  0  0  0  0  0  0  0  0  0  0  0
  -26.3760  -11.2600   21.5700 C   0  0  0  0  0  3  0  0  0  0  0  0
  -25.5100  -10.1520   21.6800 C   0  0  0  0  0  3  0  0  0  0  0  0
  -24.4330   -9.9990   20.7740 C   0  0  0  0  0  0  0  0  0  0  0  0
  -24.2580  -10.9480   19.7510 C   0  0  0  0  0  3  0  0  0  0  0  0
  -25.1240  -12.0480   19.6390 C   0  0  0  0  0  3  0  0  0  0  0  0
  -23.5570   -8.9400   20.7890 O   0  0  0  0  0  0  0  0  0  0  0  0
  -23.0160   -8.4700   21.9580 C   0  0  0  0  0  0  0  0  0  0  0  0
  -22.2440   -9.2950   22.8060 C   0  0  0  0  0  3  0  0  0  0  0  0
  -21.6490   -8.7530   23.9630 C   0  0  0  0  0  3  0  0  0  0  0  0
  -21.8160   -7.3890   24.2690 C   0  0  0  0  0  0  0  0  0  0  0  0
  -22.5800   -6.5650   23.4220 C   0  0  0  0  0  3  0  0  0  0  0  0
  -23.1750   -7.1050   22.2690 C   0  0  0  0  0  0  0  0  0  0  0  0
  -23.8930   -6.3030   21.4460 F   0  0  0  0  0  0  0  0  0  0  0  0
  -21.2380   -6.8650   25.3750 F   0  0  0  0  0  0  0  0  0  0  0  0
  -25.4480  -15.4170   20.8880 C   0  0  0  0  0  0  0  0  0  0  0  0
  -24.6440  -14.7550   21.7130 N   0  0  0  0  0  0  0  0  0  0  0  0
  -25.1410  -16.5260   20.4550 O   0  0  0  0  0  0  0  0  0  0  0  0
  -24.9050  -13.8530   22.0850 H   0  0  0  0  0  0  0  0  0  0  0  0
  -23.7540  -15.1560   21.9740 H   0  0  0  0  0  0  0  0  0  0  0  0
  -28.2600  -16.7910   20.1220 N   0  0  0  0  0  0  0  0  0  0  0  0
  -27.5820  -17.5290   20.2780 H   0  0  0  0  0  0  0  0  0  0  0  0
  -29.1560  -17.1360   19.8030 H   0  0  0  0  0  0  0  0  0  0  0  0
  -35.4530  -21.0470   16.7770 C   0  0  0  0  0  1  0  0  0  0  0  0
  -33.9240  -20.9940   16.8310 C   0  0  0  0  0  2  0  0  0  0  0  0
  1  3  1  0
  2  1  2  0
  4  6  1  0
  4  1  1  0
  5  3  1  0
  6  5  1  0
  6  7  1  1
  9  8  1  0
  9  2  1  0
 11  9  1  0
 11 10  1  1
 12 11  1  0
 13 12  1  0
 14 13  1  0
 15 11  1  0
 16 15  1  0
 16 18  1  0
 17 28  2  0
 18 23  1  0
 19 27  1  0
 19 29  1  0
 20 22  1  0
 20 26  1  0
 21 27  1  0
 22 21  1  0
 23 22  2  0
 24 18  2  0
 24 25  1  0
 25 20  2  0
 26 19  1  0
 27 17  1  0
 29 31  2  0
 30 29  1  0
 32 30  1  0
 33 42  2  0
 33 38  1  0
 34 30  1  0
 34 38  1  0
 35 34  1  0
 36 37  1  0
 36 35  1  0
 37 33  1  0
 38 39  2  0
 39 40  1  0
 41 40  2  0
 42 41  1  0
 43 17  1  0
 43 53  1  0
 43 44  1  0
 44 47  1  0
 45 44  1  0
 45 49  1  0
 46 45  2  0
 49 48  1  0
 49 51  1  0
 51 52  1  0
 51 50  1  0
 53 56  1  1
 53 54  1  0
 55 53  1  0
 57  6  1  0
 58 62  1  0
 59 63  2  0
 61 59  1  0
 61 58  2  0
 62 60  2  0
 62 57  1  0
 63 72  1  0
 63 60  1  0
 64 70  1  0
 64 72  1  0
 65 70  1  0
 66 67  1  0
 66 65  1  0
 68 67  1  0
 68 77  1  0
 68 69  1  0
 70 69  1  0
 71 64  2  0
 72 73  1  0
 74 75  2  0
 75 94  1  0
 76 79  1  0
 76 75  1  0
 77 78  1  0
 77 74  1  0
 78 76  2  0
 79 80  1  0
 80 81  2  0
 82 85  1  0
 82 81  1  0
 83 82  2  0
 84 83  1  0
 84 79  2  0
 85 86  1  0
 86 91  2  0
 86 87  1  0
 87 88  2  0
 88 89  1  0
 89 93  1  0
 90 89  2  0
 91 90  1  0
 92 91  1  0
 94 95  1  0
 95 98  1  0
 95 97  1  0
 96 94  2  0
 99 74  1  0
 99100  1  0
101 99  1  0
102103  1  0
103 61  1  0
M  ISO  4  15 101  16 101  64 100  72 100
M  END
>  <TORSDO>  (28) 
F 24

>  <SCORE>  (28) 
-6.556

>  <name>  (28) 
27

>  <ligand_id>  (28) 
27

>  <original_smiles>  (28) 
[H]OC([H])([H])C(C([H])([H])[H])(C([H])([H])Oc1c([H])c([H])c2c(c1[H])C([H])([H])N(C(=O)C([H])(N([H])C(=O)C([H])(N([H])C([H])([H])[H])C([H])([H])[H])C(C([H])([H])[H])(C([H])([H])[H])C([H])([H])[H])C([H])(C(=O)N([H])C1([H])c3c([H])c([H])c([H])c([H])c3C([H])([H])C([H])([H])C1([H])[H])C2([H])[H])C([H])(C([H])=C1C([H])([H])C([H])([H])[N+]([H])(C([H])([H])c2c([H])c(N([H])C(=O)N3C([H])([H])C([H])([H])C([H])([H])C([H])(n4nc(-c5c([H])c([H])c(Oc6c([H])c([H])c(F)c([H])c6F)c([H])c5[H])c(C(=O)N([H])[H])c4N([H])[H])C3([H])[H])c([H])c(C([H])([H])C([H])([H])[H])c2[H])C1([H])[H])C([H])([H])[H]

>  <smiles>  (28) 
[H]OC([H])([H])C(C([H])([H])[H])(C([H])([H])Oc1c([H])c([H])c2c(c1[H])C([H])([H])N(C(=O)C([H])(N([H])C(=O)C([H])(N([H])C([H])([H])[H])C([H])([H])[H])C(C([H])([H])[H])(C([H])([H])[H])C([H])([H])[H])C([H])(C(=O)N([H])C1([H])c3c([H])c([H])c([H])c([H])c3C([H])([H])C([H])([H])C1([H])[H])C2([H])[H])C([H])(C([H])=C1C([H])([H])C([H])([H])[N+]([H])(C([H])([H])c2c([H])c(N([H])C(=O)N3C([H])([H])C([H])([H])C([H])([H])C([H])(n4nc(-c5c([H])c([H])c(Oc6c([H])c([H])c(F)c([H])c6F)c([H])c5[H])c(C(=O)N([H])[H])c4N([H])[H])C3([H])[H])c([H])c(C([H])([H])C([H])([H])[H])c2[H])C1([H])[H])C([H])([H])[H]

$$$$
28:0:0
     RDKit          3D

 96105  0  0  1  0  0  0  0  0999 V2000
  -29.3810  -24.2940   21.7710 C   0  0  0  0  0  2  0  0  0  0  0  0
  -29.3710  -22.6360   19.8430 C   0  0  0  0  0  2  0  0  0  0  0  0
  -29.0430  -23.1240   22.7140 C   0  0  0  0  0  2  0  0  0  0  0  0
  -29.0720  -21.4700   20.8780 C   0  0  0  0  0  3  0  0  0  0  0  0
  -28.8470  -24.0700   20.3370 C   0  0  0  0  0  3  0  0  0  0  0  0
  -29.5850  -21.8440   22.2100 N   0  0  0  0  0  4  0  0  0  0  0  0
  -29.3390  -21.1160   22.8600 H   0  0  0  0  0  0  0  0  0  0  0  0
  -30.5900  -21.8900   22.1800 H   0  0  0  0  0  0  0  0  0  0  0  0
  -28.3930  -18.9920   20.7620 C   0  0  0  0  0  3  0  0  0  0  0  0
  -30.7280  -19.4260   20.3810 C   0  0  0  0  0  3  0  0  0  0  0  0
  -28.6470  -17.5970   20.7450 C   0  0  0  0  0  3  0  0  0  0  0  0
  -30.9860  -18.0130   20.3550 C   0  0  0  0  0  3  0  0  0  0  0  0
  -29.4220  -19.9550   20.6070 C   0  0  0  0  0  0  0  0  0  0  0  0
  -29.9440  -17.0630   20.5580 C   0  0  0  0  0  0  0  0  0  0  0  0
  -30.8270  -14.6510   20.0500 C   0  0  0  0  0  0  0  0  0  0  0  0
  -30.5600  -12.4560   18.9060 C   0  0  0  0  0  2  0  0  0  0  0  0
  -29.5370  -12.6380   17.7620 C   0  0  0  0  0  2  0  0  0  0  0  0
  -28.0890  -12.4820   18.2710 C   0  0  0  0  0  2  0  0  0  0  0  0
  -27.8220  -13.3010   19.5620 C   0  0  0  0  0  3  0  0  0  0  0  0
  -28.9410  -13.0590   20.6010 C   0  0  0  0  0  2  0  0  0  0  0  0
  -30.2230  -13.4230   19.9690 N   0  0  0  0  0  0  0  0  0  0  0  0
  -31.9310  -14.8730   19.5410 O   0  0  0  0  0  0  0  0  0  0  0  0
  -30.0550  -15.6110   20.6410 N   0  0  0  0  0  0  0  0  0  0  0  0
  -29.2620  -15.1810   21.0910 H   0  0  0  0  0  0  0  0  0  0  0  0
  -25.4980  -13.9230   20.4720 C   0  0  0  0  0  0  0  0  0  0  0  0
  -24.4340  -13.1570   20.8670 C   0  0  0  0  0  0  0  0  0  0  0  0
  -24.8480  -11.7990   20.7150 C   0  0  0  0  0  0  0  0  0  0  0  0
  -26.4970  -13.0300   20.1130 N   0  0  0  0  0  0  0  0  0  0  0  0
  -26.1130  -11.7440   20.3150 N   0  0  0  0  0  0  0  0  0  0  0  0
  -24.0960  -10.5470   20.8710 C   0  0  0  0  0  0  0  0  0  0  0  0
  -24.5180   -9.5390   21.7650 C   0  0  0  0  0  3  0  0  0  0  0  0
  -23.7690   -8.3520   21.9120 C   0  0  0  0  0  3  0  0  0  0  0  0
  -22.5820   -8.1660   21.1640 C   0  0  0  0  0  0  0  0  0  0  0  0
  -22.1790   -9.1620   20.2580 C   0  0  0  0  0  3  0  0  0  0  0  0
  -22.9290  -10.3410   20.1100 C   0  0  0  0  0  3  0  0  0  0  0  0
  -21.8030   -7.0350   21.2210 O   0  0  0  0  0  0  0  0  0  0  0  0
  -21.7000   -6.2900   22.3690 C   0  0  0  0  0  0  0  0  0  0  0  0
  -21.2410   -6.8490   23.5820 C   0  0  0  0  0  3  0  0  0  0  0  0
  -21.0850   -6.0310   24.7190 C   0  0  0  0  0  3  0  0  0  0  0  0
  -21.3780   -4.6570   24.6440 C   0  0  0  0  0  0  0  0  0  0  0  0
  -21.8310   -4.0970   23.4360 C   0  0  0  0  0  3  0  0  0  0  0  0
  -21.9880   -4.9120   22.3000 C   0  0  0  0  0  0  0  0  0  0  0  0
  -22.4040   -4.3640   21.1330 F   0  0  0  0  0  0  0  0  0  0  0  0
  -21.2210   -3.8690   25.7340 F   0  0  0  0  0  0  0  0  0  0  0  0
  -23.0740  -13.6530   21.2660 C   0  0  0  0  0  0  0  0  0  0  0  0
  -22.3860  -12.9240   22.1390 N   0  0  0  0  0  0  0  0  0  0  0  0
  -22.6320  -14.7200   20.8420 O   0  0  0  0  0  0  0  0  0  0  0  0
  -22.7570  -12.0590   22.5040 H   0  0  0  0  0  0  0  0  0  0  0  0
  -21.4770  -13.2360   22.4480 H   0  0  0  0  0  0  0  0  0  0  0  0
  -25.6910  -15.2970   20.3670 N   0  0  0  0  0  0  0  0  0  0  0  0
  -24.9370  -15.9540   20.5330 H   0  0  0  0  0  0  0  0  0  0  0  0
  -26.5010  -15.7260   19.9380 H   0  0  0  0  0  0  0  0  0  0  0  0
  -30.6230  -25.5950   19.2610 C   0  0  0  0  0  1  0  0  0  0  0  0
  -28.5860  -25.1170   17.9810 C   0  0  0  0  0  1  0  0  0  0  0  0
  -29.1070  -25.3520   19.4160 C   0  0  1  0  0  0  0  0  0  0  0  0
  -28.7320  -26.6600   20.0050 O   0  0  0  0  0  0  0  0  0  0  0  0
  -24.6660  -31.6980   23.1140 C   0  0  0  0  0  0  0  0  0  0  0  0
  -27.5060  -27.3400   19.9760 C   0  0  0  0  0  0  0  0  0  0  0  0
  -23.5410  -30.3090   21.4100 C   0  0  0  0  0  3  0  0  0  0  0  0
  -25.0670  -28.8410   19.9810 C   0  0  0  0  0  0  0  0  0  0  0  0
  -26.0680  -30.7230   21.2840 C   0  0  0  0  0  2  0  0  0  0  0  0
  -26.2040  -29.3670   20.6030 C   0  0  0  0  0  0  0  0  0  0  0  0
  -27.4200  -28.6280   20.5880 C   0  0  0  0  0  3  0  0  0  0  0  0
  -26.3250  -26.8370   19.3880 C   0  0  0  0  0  3  0  0  0  0  0  0
  -25.1270  -27.5790   19.3720 C   0  0  0  0  0  3  0  0  0  0  0  0
  -23.8030  -29.6730   20.0190 C   0  0  0  0  0  2  0  0  0  0  0  0
  -24.7750  -30.9270   21.9930 N   0  0  0  0  0  0  0  0  0  0  0  0
  -23.5640  -31.9270   23.6330 O   0  0  0  0  0  0  0  0  0  0  0  0
  -22.8930  -29.2470   22.3300 C   0  0  0  0  0  0  0  0  0  0  0  0
  -21.5710  -29.0490   22.1860 N   0  0  0  0  0  0  0  0  0  0  0  0
  -23.5790  -28.6040   23.1290 O   0  0  0  0  0  0  0  0  0  0  0  0
  -21.0770  -29.6250   21.5200 H   0  0  0  0  0  0  0  0  0  0  0  0
  -18.2100  -27.7950   22.6340 C   0  0  0  0  0  0  0  0  0  0  0  0
  -20.7650  -28.0690   22.9160 C   0  0  0  0  0  3  0  0  0  0  0  0
  -20.8820  -26.6650   22.2800 C   0  0  0  0  0  2  0  0  0  0  0  0
  -19.7840  -26.3740   21.2520 C   0  0  0  0  0  2  0  0  0  0  0  0
  -18.4010  -26.4770   21.9020 C   0  0  0  0  0  2  0  0  0  0  0  0
  -19.3210  -28.5500   23.0970 C   0  0  0  0  0  0  0  0  0  0  0  0
  -19.0890  -29.7830   23.7430 C   0  0  0  0  0  3  0  0  0  0  0  0
  -17.7800  -30.2640   23.9300 C   0  0  0  0  0  3  0  0  0  0  0  0
  -16.6840  -29.5060   23.4840 C   0  0  0  0  0  3  0  0  0  0  0  0
  -16.8990  -28.2730   22.8430 C   0  0  0  0  0  3  0  0  0  0  0  0
  -25.9160  -32.3530   23.7800 C   0  0  0  0  0  3  0  0  0  0  0  0
  -25.5490  -33.7260   24.1580 N   0  0  0  0  0  0  0  0  0  0  0  0
  -25.8620  -34.8200   23.4510 C   0  0  0  0  0  0  0  0  0  0  0  0
  -26.5590  -34.7820   22.4330 O   0  0  0  0  0  0  0  0  0  0  0  0
  -24.9340  -33.8270   24.9510 H   0  0  0  0  0  0  0  0  0  0  0  0
  -24.0920  -36.5750   23.1150 C   0  0  0  0  0  1  0  0  0  0  0  0
  -25.3170  -36.1710   23.9520 C   0  0  0  0  0  3  0  0  0  0  0  0
  -27.3880  -37.0850   24.9010 C   0  0  0  0  0  1  0  0  0  0  0  0
  -26.3190  -37.2590   23.9220 N   0  0  0  0  0  0  0  0  0  0  0  0
  -25.8780  -38.1590   24.0900 H   0  0  0  0  0  0  0  0  0  0  0  0
  -26.4410  -31.5530   25.0350 C   0  0  1  0  0  0  0  0  0  0  0  0
  -25.3410  -31.2330   26.0730 C   0  0  0  0  0  1  0  0  0  0  0  0
  -27.0840  -30.2150   24.6000 C   0  0  0  0  0  1  0  0  0  0  0  0
  -27.5480  -32.3640   25.7490 C   0  0  0  0  0  1  0  0  0  0  0  0
  1  3  1  0
  2  5  1  0
  2  4  1  0
  4 13  1  0
  4  6  1  0
  5 55  1  0
  5  1  1  0
  6  3  1  0
  6  7  1  0
  8  6  1  0
 10 13  1  0
 11  9  1  0
 12 10  2  0
 12 14  1  0
 13  9  2  0
 14 23  1  0
 14 11  2  0
 15 23  1  0
 16 21  1  0
 17 18  1  0
 17 16  1  0
 19 18  1  0
 19 28  1  0
 19 20  1  0
 21 15  1  0
 21 20  1  0
 22 15  2  0
 23 24  1  0
 25 26  2  0
 26 45  1  0
 27 26  1  0
 27 30  1  0
 28 29  1  0
 28 25  1  0
 29 27  2  0
 30 31  1  0
 31 32  2  0
 33 36  1  0
 33 32  1  0
 34 33  2  0
 35 34  1  0
 35 30  2  0
 36 37  1  0
 37 38  1  0
 38 39  2  0
 40 39  1  0
 40 44  1  0
 41 40  2  0
 42 37  2  0
 42 41  1  0
 43 42  1  0
 45 46  1  0
 46 49  1  0
 46 48  1  0
 47 45  2  0
 50 25  1  0
 50 51  1  0
 52 50  1  0
 55 53  1  6
 54 55  1  0
 55 56  1  0
 57 68  2  0
 58 56  1  0
 58 63  1  0
 59 67  1  0
 59 69  1  0
 60 66  1  0
 60 62  1  0
 61 67  1  0
 62 61  1  0
 63 62  2  0
 64 58  2  0
 65 64  1  0
 65 60  2  0
 66 59  1  0
 67 57  1  0
 69 71  2  0
 70 69  1  0
 72 70  1  0
 73 82  2  0
 73 78  1  0
 74 70  1  0
 74 78  1  0
 75 74  1  0
 76 77  1  0
 76 75  1  0
 77 73  1  0
 78 79  2  0
 79 80  1  0
 81 80  2  0
 82 81  1  0
 83 57  1  0
 83 84  1  0
 83 93  1  0
 84 87  1  0
 85 89  1  0
 85 84  1  0
 86 85  2  0
 89 88  1  0
 91 89  1  0
 91 92  1  0
 91 90  1  0
 93 96  1  1
 93 94  1  0
 95 93  1  0
M  ISO  4  15 100  23 100  55 101  56 101
M  END
>  <TORSDO>  (29) 
F 18

>  <SCORE>  (29) 
-13.933

>  <name>  (29) 
28

>  <ligand_id>  (29) 
28

>  <original_smiles>  (29) 
[H]c1c([H])c([H])c2c(c1[H])C([H])([H])C([H])([H])C([H])([H])C2([H])N([H])C(=O)C1([H])N(C(=O)C([H])(N([H])C(=O)C([H])(N([H])C([H])([H])[H])C([H])([H])[H])C(C([H])([H])[H])(C([H])([H])[H])C([H])([H])[H])C([H])([H])c2c([H])c(OC(C([H])([H])[H])(C([H])([H])[H])C3([H])C([H])([H])C([H])([H])[N+]([H])([H])C([H])(c4c([H])c([H])c(N([H])C(=O)N5C([H])([H])C([H])([H])C([H])([H])C([H])(n6nc(-c7c([H])c([H])c(Oc8c([H])c([H])c(F)c([H])c8F)c([H])c7[H])c(C(=O)N([H])[H])c6N([H])[H])C5([H])[H])c([H])c4[H])C3([H])[H])c([H])c([H])c2C1([H])[H]

>  <smiles>  (29) 
[H]c1c([H])c([H])c2c(c1[H])C([H])([H])C([H])([H])C([H])([H])C2([H])N([H])C(=O)C1([H])N(C(=O)C([H])(N([H])C(=O)C([H])(N([H])C([H])([H])[H])C([H])([H])[H])C(C([H])([H])[H])(C([H])([H])[H])C([H])([H])[H])C([H])([H])c2c([H])c(OC(C([H])([H])[H])(C([H])([H])[H])C3([H])C([H])([H])C([H])([H])[N+]([H])([H])C([H])(c4c([H])c([H])c(N([H])C(=O)N5C([H])([H])C([H])([H])C([H])([H])C([H])(n6nc(-c7c([H])c([H])c(Oc8c([H])c([H])c(F)c([H])c8F)c([H])c7[H])c(C(=O)N([H])[H])c6N([H])[H])C5([H])[H])c([H])c4[H])C3([H])[H])c([H])c([H])c2C1([H])[H]

$$$$
29:0:0
     RDKit          3D

 96105  0  0  1  0  0  0  0  0999 V2000
  -30.0990  -24.0980   20.8330 C   0  0  0  0  0  3  0  0  0  0  0  0
  -28.8750  -23.7570   20.3730 C   0  0  0  0  0  0  0  0  0  0  0  0
  -31.2250  -23.1910   21.1340 C   0  0  0  0  0  0  0  0  0  0  0  0
  -31.0620  -21.9040   21.9600 C   0  0  0  0  0  2  0  0  0  0  0  0
  -29.6540  -21.2930   22.0340 C   0  0  0  0  0  2  0  0  0  0  0  0
  -28.3920  -22.2580   20.0930 C   0  0  0  0  0  3  0  0  0  0  0  0
  -27.9790  -22.0540   18.6230 C   0  0  0  0  0  1  0  0  0  0  0  0
  -29.1000  -21.0610   20.7080 N   0  0  0  0  0  0  0  0  0  0  0  0
  -32.3670  -23.4820   20.7670 O   0  0  0  0  0  0  0  0  0  0  0  0
  -29.4030  -18.4820   20.6340 C   0  0  0  0  0  3  0  0  0  0  0  0
  -30.2820  -19.9160   18.8800 C   0  0  0  0  0  3  0  0  0  0  0  0
  -30.6370  -17.4910   18.7950 C   0  0  0  0  0  3  0  0  0  0  0  0
  -29.5510  -19.8260   20.0820 C   0  0  0  0  0  0  0  0  0  0  0  0
  -29.9530  -17.2800   20.0140 C   0  0  0  0  0  0  0  0  0  0  0  0
  -30.8040  -18.7750   18.2440 C   0  0  0  0  0  0  0  0  0  0  0  0
  -31.4910  -18.9180   17.0860 F   0  0  0  0  0  0  0  0  0  0  0  0
  -30.5240  -14.7450   20.2050 C   0  0  0  0  0  0  0  0  0  0  0  0
  -30.2790  -12.4800   19.2040 C   0  0  0  0  0  2  0  0  0  0  0  0
  -29.3150  -12.5810   18.0040 C   0  0  0  0  0  2  0  0  0  0  0  0
  -27.8520  -12.4180   18.4660 C   0  0  0  0  0  2  0  0  0  0  0  0
  -27.5180  -13.2810   19.7150 C   0  0  0  0  0  3  0  0  0  0  0  0
  -28.6090  -13.1780   20.8020 C   0  0  0  0  0  2  0  0  0  0  0  0
  -29.8910  -13.5240   20.1780 N   0  0  0  0  0  0  0  0  0  0  0  0
  -31.6900  -14.8300   19.8100 O   0  0  0  0  0  0  0  0  0  0  0  0
  -29.7910  -15.8860   20.5170 N   0  0  0  0  0  0  0  0  0  0  0  0
  -28.9410  -15.7120   21.0330 H   0  0  0  0  0  0  0  0  0  0  0  0
  -25.1590  -13.8610   20.5340 C   0  0  0  0  0  0  0  0  0  0  0  0
  -24.1030  -13.0830   20.9240 C   0  0  0  0  0  0  0  0  0  0  0  0
  -24.5580  -11.7320   20.8460 C   0  0  0  0  0  0  0  0  0  0  0  0
  -26.1890  -12.9830   20.2420 N   0  0  0  0  0  0  0  0  0  0  0  0
  -25.8360  -11.6960   20.4920 N   0  0  0  0  0  0  0  0  0  0  0  0
  -23.8310  -10.4680   21.0320 C   0  0  0  0  0  0  0  0  0  0  0  0
  -24.2820   -9.4860   21.9410 C   0  0  0  0  0  3  0  0  0  0  0  0
  -23.5540   -8.2890   22.1180 C   0  0  0  0  0  3  0  0  0  0  0  0
  -22.3640   -8.0650   21.3860 C   0  0  0  0  0  0  0  0  0  0  0  0
  -21.9330   -9.0350   20.4640 C   0  0  0  0  0  3  0  0  0  0  0  0
  -22.6600  -10.2240   20.2850 C   0  0  0  0  0  3  0  0  0  0  0  0
  -21.6090   -6.9200   21.4700 O   0  0  0  0  0  0  0  0  0  0  0  0
  -21.5710   -6.1660   22.6150 C   0  0  0  0  0  0  0  0  0  0  0  0
  -21.1380   -6.7020   23.8480 C   0  0  0  0  0  3  0  0  0  0  0  0
  -21.0500   -5.8730   24.9840 C   0  0  0  0  0  3  0  0  0  0  0  0
  -21.3830   -4.5080   24.8890 C   0  0  0  0  0  0  0  0  0  0  0  0
  -21.8110   -3.9720   23.6620 C   0  0  0  0  0  3  0  0  0  0  0  0
  -21.9010   -4.7990   22.5280 C   0  0  0  0  0  0  0  0  0  0  0  0
  -22.2900   -4.2720   21.3420 F   0  0  0  0  0  0  0  0  0  0  0  0
  -21.2920   -3.7100   25.9780 F   0  0  0  0  0  0  0  0  0  0  0  0
  -22.7190  -13.5610   21.2550 C   0  0  0  0  0  0  0  0  0  0  0  0
  -22.0170  -12.8460   22.1260 N   0  0  0  0  0  0  0  0  0  0  0  0
  -22.2700  -14.6010   20.7750 O   0  0  0  0  0  0  0  0  0  0  0  0
  -22.3950  -12.0090   22.5430 H   0  0  0  0  0  0  0  0  0  0  0  0
  -21.0860  -13.1440   22.3820 H   0  0  0  0  0  0  0  0  0  0  0  0
  -25.3200  -15.2340   20.3800 N   0  0  0  0  0  0  0  0  0  0  0  0
  -24.5600  -15.8880   20.5340 H   0  0  0  0  0  0  0  0  0  0  0  0
  -26.1500  -15.6790   20.0060 H   0  0  0  0  0  0  0  0  0  0  0  0
  -27.8320  -24.9180   20.0880 C   0  0  0  0  0  2  0  0  0  0  0  0
  -28.1530  -26.3680   20.2980 O   0  0  0  0  0  0  0  0  0  0  0  0
  -24.5190  -31.9040   23.2480 C   0  0  0  0  0  0  0  0  0  0  0  0
  -27.0770  -27.2840   20.2140 C   0  0  0  0  0  0  0  0  0  0  0  0
  -23.3010  -30.5100   21.6170 C   0  0  0  0  0  3  0  0  0  0  0  0
  -24.7360  -28.9490   20.1890 C   0  0  0  0  0  0  0  0  0  0  0  0
  -25.8450  -30.8030   21.4260 C   0  0  0  0  0  2  0  0  0  0  0  0
  -25.9140  -29.4190   20.7850 C   0  0  0  0  0  0  0  0  0  0  0  0
  -27.0870  -28.5990   20.7870 C   0  0  0  0  0  3  0  0  0  0  0  0
  -25.8730  -26.8900   19.5770 C   0  0  0  0  0  3  0  0  0  0  0  0
  -24.7220  -27.6930   19.5720 C   0  0  0  0  0  3  0  0  0  0  0  0
  -23.5080  -29.8340   20.2370 C   0  0  0  0  0  2  0  0  0  0  0  0
  -24.5750  -31.0900   22.1520 N   0  0  0  0  0  0  0  0  0  0  0  0
  -23.4380  -32.1880   23.7840 O   0  0  0  0  0  0  0  0  0  0  0  0
  -22.6340  -29.4970   22.5820 C   0  0  0  0  0  0  0  0  0  0  0  0
  -21.3070  -29.3230   22.4570 N   0  0  0  0  0  0  0  0  0  0  0  0
  -23.3100  -28.8730   23.4020 O   0  0  0  0  0  0  0  0  0  0  0  0
  -20.8190  -29.8820   21.7720 H   0  0  0  0  0  0  0  0  0  0  0  0
  -17.9210  -28.1450   22.9700 C   0  0  0  0  0  0  0  0  0  0  0  0
  -20.4840  -28.3920   23.2330 C   0  0  0  0  0  3  0  0  0  0  0  0
  -20.5740  -26.9570   22.6640 C   0  0  0  0  0  2  0  0  0  0  0  0
  -19.4670  -26.6370   21.6530 C   0  0  0  0  0  2  0  0  0  0  0  0
  -18.0880  -26.7920   22.2990 C   0  0  0  0  0  2  0  0  0  0  0  0
  -19.0460  -28.9040   23.3940 C   0  0  0  0  0  0  0  0  0  0  0  0
  -18.8350  -30.1710   23.9800 C   0  0  0  0  0  3  0  0  0  0  0  0
  -17.5340  -30.6800   24.1470 C   0  0  0  0  0  3  0  0  0  0  0  0
  -16.4250  -29.9190   23.7390 C   0  0  0  0  0  3  0  0  0  0  0  0
  -16.6190  -28.6540   23.1560 C   0  0  0  0  0  3  0  0  0  0  0  0
  -25.8060  -32.5300   23.8630 C   0  0  0  0  0  3  0  0  0  0  0  0
  -25.5070  -33.9330   24.1880 N   0  0  0  0  0  0  0  0  0  0  0  0
  -25.8320  -34.9810   23.4180 C   0  0  0  0  0  0  0  0  0  0  0  0
  -26.4880  -34.8670   22.3790 O   0  0  0  0  0  0  0  0  0  0  0  0
  -24.9300  -34.0940   25.0000 H   0  0  0  0  0  0  0  0  0  0  0  0
  -24.1100  -36.7830   23.0710 C   0  0  0  0  0  1  0  0  0  0  0  0
  -25.3560  -36.3730   23.8740 C   0  0  0  0  0  3  0  0  0  0  0  0
  -27.5000  -37.2560   24.6830 C   0  0  0  0  0  1  0  0  0  0  0  0
  -26.3920  -37.4210   23.7460 N   0  0  0  0  0  0  0  0  0  0  0  0
  -25.9900  -38.3440   23.8900 H   0  0  0  0  0  0  0  0  0  0  0  0
  -26.3180  -31.7620   25.1430 C   0  0  1  0  0  0  0  0  0  0  0  0
  -25.2270  -31.5340   26.2150 C   0  0  0  0  0  1  0  0  0  0  0  0
  -26.8970  -30.3810   24.7570 C   0  0  0  0  0  1  0  0  0  0  0  0
  -27.4700  -32.5560   25.8040 C   0  0  0  0  0  1  0  0  0  0  0  0
  1  3  1  0
  2  1  2  0
  3  4  1  0
  4  5  1  0
  6  7  1  0
  6  2  1  0
  6  8  1  0
  8  5  1  0
  9  3  2  0
 11 13  2  0
 12 14  1  0
 13 10  1  0
 13  8  1  0
 14 25  1  0
 14 10  2  0
 15 12  2  0
 15 11  1  0
 16 15  1  0
 17 25  1  0
 18 23  1  0
 19 20  1  0
 19 18  1  0
 21 20  1  0
 21 30  1  0
 21 22  1  0
 23 17  1  0
 23 22  1  0
 24 17  2  0
 25 26  1  0
 27 28  2  0
 28 47  1  0
 29 28  1  0
 29 32  1  0
 30 31  1  0
 30 27  1  0
 31 29  2  0
 32 33  1  0
 33 34  2  0
 35 38  1  0
 35 34  1  0
 36 35  2  0
 37 36  1  0
 37 32  2  0
 38 39  1  0
 39 40  1  0
 40 41  2  0
 42 41  1  0
 42 46  1  0
 43 42  2  0
 44 39  2  0
 44 43  1  0
 45 44  1  0
 47 48  1  0
 48 51  1  0
 48 50  1  0
 49 47  2  0
 52 27  1  0
 52 53  1  0
 54 52  1  0
 55 56  1  0
 55  2  1  0
 57 68  2  0
 58 56  1  0
 58 63  1  0
 59 67  1  0
 59 69  1  0
 60 66  1  0
 60 62  1  0
 61 67  1  0
 62 63  2  0
 62 61  1  0
 64 58  2  0
 65 64  1  0
 65 60  2  0
 66 59  1  0
 67 57  1  0
 69 71  2  0
 70 69  1  0
 72 70  1  0
 73 82  2  0
 73 78  1  0
 74 70  1  0
 74 78  1  0
 75 74  1  0
 76 77  1  0
 76 75  1  0
 77 73  1  0
 78 79  2  0
 79 80  1  0
 81 80  2  0
 82 81  1  0
 83 57  1  0
 83 84  1  0
 83 93  1  0
 84 87  1  0
 85 89  1  0
 85 84  1  0
 86 85  2  0
 89 88  1  0
 91 89  1  0
 91 92  1  0
 91 90  1  0
 93 96  1  1
 93 94  1  0
 95 93  1  0
M  ISO  4  17 100  25 100  55 101  56 101
M  END
>  <TORSDO>  (30) 
F 18

>  <SCORE>  (30) 
-14.711

>  <name>  (30) 
29

>  <ligand_id>  (30) 
29

>  <original_smiles>  (30) 
[H]C1=C(C([H])([H])Oc2c([H])c([H])c3c(c2[H])C([H])([H])N(C(=O)C([H])(N([H])C(=O)C([H])(N([H])C([H])([H])[H])C([H])([H])[H])C(C([H])([H])[H])(C([H])([H])[H])C([H])([H])[H])C([H])(C(=O)N([H])C2([H])c4c([H])c([H])c([H])c([H])c4C([H])([H])C([H])([H])C2([H])[H])C3([H])[H])C([H])(C([H])([H])[H])N(c2c([H])c(F)c([H])c(N([H])C(=O)N3C([H])([H])C([H])([H])C([H])([H])C([H])(n4nc(-c5c([H])c([H])c(Oc6c([H])c([H])c(F)c([H])c6F)c([H])c5[H])c(C(=O)N([H])[H])c4N([H])[H])C3([H])[H])c2[H])C([H])([H])C([H])([H])C1=O

>  <smiles>  (30) 
[H]C1=C(C([H])([H])Oc2c([H])c([H])c3c(c2[H])C([H])([H])N(C(=O)C([H])(N([H])C(=O)C([H])(N([H])C([H])([H])[H])C([H])([H])[H])C(C([H])([H])[H])(C([H])([H])[H])C([H])([H])[H])C([H])(C(=O)N([H])C2([H])c4c([H])c([H])c([H])c([H])c4C([H])([H])C([H])([H])C2([H])[H])C3([H])[H])C([H])(C([H])([H])[H])N(c2c([H])c(F)c([H])c(N([H])C(=O)N3C([H])([H])C([H])([H])C([H])([H])C([H])(n4nc(-c5c([H])c([H])c(Oc6c([H])c([H])c(F)c([H])c6F)c([H])c5[H])c(C(=O)N([H])[H])c4N([H])[H])C3([H])[H])c2[H])C([H])([H])C([H])([H])C1=O

$$$$
30:0:0
     RDKit          3D

102106  0  0  1  0  0  0  0  0999 V2000
  -24.9540  -23.2730   18.9180 C   0  0  0  0  0  0  0  0  0  0  0  0
  -23.0520  -27.0620   18.2820 C   0  0  0  0  0  2  0  0  0  0  0  0
  -23.6780  -25.5600   17.9580 C   0  0  0  0  0  2  0  0  0  0  0  0
  -22.6130  -25.5140   19.8180 C   0  0  0  0  0  1  0  0  0  0  0  0
  -22.0430  -27.4120   19.5490 C   0  0  0  0  0  2  0  0  0  0  0  0
  -20.7400  -27.7130   18.7110 C   0  0  0  0  0  1  0  0  0  0  0  0
  -23.9080  -24.5590   19.0930 N   0  0  0  0  0  0  0  0  0  0  0  0
  -25.5700  -23.4930   17.7500 N   0  0  0  0  0  4  0  0  0  0  0  0
  -26.2650  -22.8190   17.4590 H   0  0  0  0  0  0  0  0  0  0  0  0
  -25.4070  -24.2810   17.1530 H   0  0  0  0  0  0  0  0  0  0  0  0
  -25.5030  -20.1700   19.2840 C   0  0  0  0  0  3  0  0  0  0  0  0
  -26.3470  -18.8520   19.3360 C   0  0  0  0  0  3  0  0  0  0  0  0
  -28.1670  -19.9860   19.5190 C   0  0  0  0  0  3  0  0  0  0  0  0
  -25.8410  -21.6480   19.3230 C   0  0  0  0  0  0  0  0  0  0  0  0
  -27.8290  -18.5130   19.4180 C   0  0  0  0  0  0  0  0  0  0  0  0
  -27.3380  -21.3270   19.4610 C   0  0  0  0  0  0  0  0  0  0  0  0
  -29.8490  -15.7790   19.2590 C   0  0  0  0  0  0  0  0  0  0  0  0
  -30.4030  -13.2190   18.5140 C   0  0  0  0  0  2  0  0  0  0  0  0
  -29.4440  -12.6770   17.4120 C   0  0  0  0  0  2  0  0  0  0  0  0
  -28.0830  -12.2880   18.0150 C   0  0  0  0  0  2  0  0  0  0  0  0
  -27.6540  -13.3050   19.0980 C   0  0  0  0  0  3  0  0  0  0  0  0
  -28.7430  -13.5920   20.1220 C   0  0  0  0  0  2  0  0  0  0  0  0
  -29.7020  -14.3280   19.3260 N   0  0  0  0  0  0  0  0  0  0  0  0
  -31.0640  -15.9240   18.9320 O   0  0  0  0  0  0  0  0  0  0  0  0
  -28.7280  -16.9360   19.4330 N   0  0  0  0  0  0  0  0  0  0  0  0
  -29.5890  -17.4580   19.3590 H   0  0  0  0  0  0  0  0  0  0  0  0
  -25.4920  -13.8950   20.2230 C   0  0  0  0  0  0  0  0  0  0  0  0
  -24.4720  -13.1310   20.7060 C   0  0  0  0  0  0  0  0  0  0  0  0
  -24.8830  -11.7730   20.5410 C   0  0  0  0  0  0  0  0  0  0  0  0
  -26.4280  -12.9930   19.7680 N   0  0  0  0  0  0  0  0  0  0  0  0
  -26.1050  -11.7080   20.0350 N   0  0  0  0  0  0  0  0  0  0  0  0
  -24.1530  -10.5260   20.7720 C   0  0  0  0  0  0  0  0  0  0  0  0
  -24.6240   -9.5520   21.6780 C   0  0  0  0  0  3  0  0  0  0  0  0
  -23.8880   -8.3670   21.8920 C   0  0  0  0  0  3  0  0  0  0  0  0
  -22.6730   -8.1540   21.1990 C   0  0  0  0  0  0  0  0  0  0  0  0
  -22.2250   -9.1170   20.2790 C   0  0  0  0  0  3  0  0  0  0  0  0
  -22.9610  -10.2920   20.0630 C   0  0  0  0  0  3  0  0  0  0  0  0
  -21.9020   -7.0250   21.3280 O   0  0  0  0  0  0  0  0  0  0  0  0
  -21.8090   -6.3500   22.5190 C   0  0  0  0  0  0  0  0  0  0  0  0
  -21.3400   -6.9740   23.6940 C   0  0  0  0  0  3  0  0  0  0  0  0
  -21.1950   -6.2250   24.8780 C   0  0  0  0  0  3  0  0  0  0  0  0
  -21.5110   -4.8530   24.8870 C   0  0  0  0  0  0  0  0  0  0  0  0
  -21.9760   -4.2300   23.7160 C   0  0  0  0  0  3  0  0  0  0  0  0
  -22.1230   -4.9770   22.5340 C   0  0  0  0  0  0  0  0  0  0  0  0
  -22.5510   -4.3670   21.4030 F   0  0  0  0  0  0  0  0  0  0  0  0
  -21.3650   -4.1300   26.0220 F   0  0  0  0  0  0  0  0  0  0  0  0
  -23.1520  -13.6390   21.1910 C   0  0  0  0  0  0  0  0  0  0  0  0
  -22.5350  -12.9280   22.1280 N   0  0  0  0  0  0  0  0  0  0  0  0
  -22.6850  -14.7000   20.7780 O   0  0  0  0  0  0  0  0  0  0  0  0
  -22.9310  -12.0690   22.4780 H   0  0  0  0  0  0  0  0  0  0  0  0
  -21.6500  -13.2460   22.4990 H   0  0  0  0  0  0  0  0  0  0  0  0
  -25.6920  -15.2670   20.1030 N   0  0  0  0  0  0  0  0  0  0  0  0
  -24.9870  -15.9350   20.3950 H   0  0  0  0  0  0  0  0  0  0  0  0
  -26.5270  -15.6950   19.7220 H   0  0  0  0  0  0  0  0  0  0  0  0
  -28.0540  -22.4960   19.5750 O   0  0  0  0  0  0  0  0  0  0  0  0
  -29.3980  -22.5370   19.1050 C   0  0  0  0  0  2  0  0  0  0  0  0
  -29.6090  -24.8210   20.2290 C   0  0  0  0  0  1  0  0  0  0  0  0
  -29.7490  -24.0150   18.9250 C   0  0  0  0  0  2  0  0  0  0  0  0
  -21.9670  -29.1530   20.9550 C   0  0  0  0  0 15  0  0  0  0  0  0
  -22.5180  -29.4630   24.3580 C   0  0  0  0  0  1  0  0  0  0  0  0
  -23.2840  -29.1580   23.0540 C   0  0  0  0  0  1  0  0  0  0  0  0
  -25.3790  -28.5860   22.8260 O   0  0  0  0  0  1  0  0  0  0  0  0
  -24.5210  -31.5710   22.7600 C   0  0  0  0  0  0  0  0  0  0  0  0
  -26.4310  -27.8620   21.8670 C   0  0  0  0  0  3  0  0  0  0  0  0
  -24.1970  -29.2580   20.9180 C   0  0  0  0  0  2  0  0  0  0  0  0
  -25.7950  -28.8790   19.6090 C   0  0  0  0  0  3  0  0  0  0  0  0
  -26.1790  -30.8530   21.1600 C   0  0  0  0  0  2  0  0  0  0  0  0
  -26.6390  -29.5650   20.5530 C   0  0  0  0  0  3  0  0  0  0  0  0
  -27.3850  -28.7710   21.4350 C   0  0  0  0  0  2  0  0  0  0  0  0
  -26.3020  -26.9090   20.7490 C   0  0  0  0  0  2  0  0  0  0  0  0
  -25.9450  -27.4890   19.5340 C   0  0  0  0  0  2  0  0  0  0  0  0
  -24.4260  -29.4260   19.4950 C   0  0  0  0  0  2  0  0  0  0  0  0
  -24.8610  -30.6500   21.6870 N   0  0  0  0  0  0  0  0  0  0  0  0
  -23.3550  -31.9340   22.9760 O   0  0  0  0  0  0  0  0  0  0  0  0
  -23.6570  -27.3010   21.7230 C   0  0  0  0  0  2  0  0  0  0  0  0
  -22.3390  -26.9930   22.4700 N   0  0  0  0  0  0  0  0  0  0  0  0
  -24.1680  -26.6600   22.6140 O   0  0  0  0  0  1  0  0  0  0  0  0
  -22.7710  -26.4100   23.1850 H   0  0  0  0  0  0  0  0  0  0  0  0
  -18.2020  -27.6960   22.1600 C   0  0  0  0  0  0  0  0  0  0  0  0
  -20.7990  -27.3260   22.9850 C   0  0  0  0  0  3  0  0  0  0  0  0
  -20.2920  -25.9440   22.7340 C   0  0  0  0  0  2  0  0  0  0  0  0
  -19.5700  -25.7130   21.4160 C   0  0  0  0  0  2  0  0  0  0  0  0
  -18.2420  -26.4240   21.3540 C   0  0  0  0  0  2  0  0  0  0  0  0
  -19.3930  -28.2470   22.7720 C   0  0  0  0  0  0  0  0  0  0  0  0
  -19.1080  -29.5030   23.4170 C   0  0  0  0  0  3  0  0  0  0  0  0
  -17.8150  -30.1140   23.4630 C   0  0  0  0  0  3  0  0  0  0  0  0
  -16.6880  -29.4900   22.9060 C   0  0  0  0  0  3  0  0  0  0  0  0
  -16.8980  -28.2670   22.2560 C   0  0  0  0  0  3  0  0  0  0  0  0
  -25.5420  -32.2650   23.7960 C   0  0  0  0  0  3  0  0  0  0  0  0
  -25.1170  -33.6640   24.0450 N   0  0  0  0  0  0  0  0  0  0  0  0
  -25.5770  -34.7240   23.3770 C   0  0  0  0  0  0  0  0  0  0  0  0
  -26.4040  -34.6200   22.4710 O   0  0  0  0  0  0  0  0  0  0  0  0
  -24.3750  -33.8070   24.7100 H   0  0  0  0  0  0  0  0  0  0  0  0
  -23.8770  -36.4950   22.7940 C   0  0  0  0  0  1  0  0  0  0  0  0
  -25.0260  -36.1210   23.7440 C   0  0  0  0  0  3  0  0  0  0  0  0
  -27.0450  -37.0880   24.7730 C   0  0  0  0  0  1  0  0  0  0  0  0
  -26.0520  -37.1880   23.7050 N   0  0  0  0  0  0  0  0  0  0  0  0
  -25.6250  -38.1100   23.7450 H   0  0  0  0  0  0  0  0  0  0  0  0
  -25.8320  -31.6260   25.2490 C   0  0  1  0  0  0  0  0  0  0  0  0
  -24.6290  -31.5770   26.2400 C   0  0  0  0  0  1  0  0  0  0  0  0
  -26.4660  -30.2220   25.1370 C   0  0  0  0  0  1  0  0  0  0  0  0
  -26.8830  -32.4960   25.9970 C   0  0  0  0  0  1  0  0  0  0  0  0
  1  7  1  0
  1 14  1  0
  2  5  1  0
  3  2  1  0
  3  7  1  0
  6  5  1  0
  7  4  1  0
  8  1  2  0
  9  8  1  0
 10  8  1  0
 11 14  2  0
 11 12  1  0
 12 15  2  0
 14 16  1  0
 15 25  1  0
 15 13  1  0
 16 13  2  0
 16 55  1  0
 17 23  1  0
 17 25  1  0
 18 23  1  0
 19 20  1  0
 19 18  1  0
 21 20  1  0
 21 30  1  0
 21 22  1  0
 23 22  1  0
 24 17  2  0
 26 25  1  0
 27 28  2  0
 28 47  1  0
 29 28  1  0
 29 32  1  0
 30 31  1  0
 30 27  1  0
 31 29  2  0
 32 33  1  0
 33 34  2  0
 35 38  1  0
 35 34  1  0
 36 35  2  0
 37 36  1  0
 37 32  2  0
 38 39  1  0
 39 44  2  0
 39 40  1  0
 40 41  2  0
 41 42  1  0
 42 46  1  0
 43 42  2  0
 44 43  1  0
 45 44  1  0
 47 48  1  0
 48 50  1  0
 48 51  1  0
 49 47  2  0
 52 27  1  0
 52 53  1  0
 54 52  1  0
 56 55  1  0
 58 56  1  0
 58 57  1  0
 61 60  1  0
 63 74  2  0
 64 62  1  0
 65 73  1  0
 66 72  1  0
 66 68  1  0
 67 73  1  0
 68 67  1  0
 68 69  1  0
 69 64  1  0
 70 64  1  0
 71 66  1  0
 71 70  1  0
 72 65  1  0
 73 63  1  0
 75 76  1  0
 75 77  1  0
 76 78  1  0
 79 88  2  0
 79 84  1  0
 80 76  1  0
 81 80  1  0
 82 81  1  0
 83 82  1  0
 83 79  1  0
 84 80  1  0
 84 85  2  0
 85 86  1  0
 87 86  2  0
 88 87  1  0
 89 63  1  0
 89 90  1  0
 89 99  1  0
 90 93  1  0
 91 95  1  0
 91 90  1  0
 92 91  2  0
 95 94  1  0
 97 95  1  0
 97 98  1  0
 97 96  1  0
 99102  1  1
 99100  1  0
101 99  1  0
M  ISO  4  17 100  25 100  61 101  62 101
M  END
>  <TORSDO>  (31) 
F 22

>  <SCORE>  (31) 
-11.524

>  <name>  (31) 
30

>  <ligand_id>  (31) 
30

>  <original_smiles>  (31) 
[H]c1c([H])c([H])c2c(c1[H])C([H])([H])C([H])([H])C([H])([H])C2([H])N([H])C(=O)C1([H])N(C(=O)C([H])(N([H])C(=O)C([H])(N([H])C([H])([H])[H])C([H])([H])[H])C(C([H])([H])[H])(C([H])([H])[H])C([H])([H])[H])C([H])([H])c2c([H])c(OC([H])(C([H])([H])[H])C([H])([H])C3(C([H])([H])[H])C([H])([H])N(C(c4c([H])c([H])c(N([H])C(=O)N5C([H])([H])C([H])([H])C([H])([H])C([H])(n6nc(-c7c([H])c([H])c(Oc8c([H])c([H])c(F)c([H])c8F)c([H])c7[H])c(C(=O)N([H])[H])c6N([H])[H])C5([H])[H])c([H])c4OC([H])([H])C([H])([H])C([H])([H])[H])=[N+]([H])[H])C([H])([H])C3([H])[H])c([H])c([H])c2C1([H])[H]

>  <smiles>  (31) 
[H]c1c([H])c([H])c2c(c1[H])C([H])([H])C([H])([H])C([H])([H])C2([H])N([H])C(=O)C1([H])N(C(=O)C([H])(N([H])C(=O)C([H])(N([H])C([H])([H])[H])C([H])([H])[H])C(C([H])([H])[H])(C([H])([H])[H])C([H])([H])[H])C([H])([H])c2c([H])c(OC([H])(C([H])([H])[H])C([H])([H])C3(C([H])([H])[H])C([H])([H])N(C(c4c([H])c([H])c(N([H])C(=O)N5C([H])([H])C([H])([H])C([H])([H])C([H])(n6nc(-c7c([H])c([H])c(Oc8c([H])c([H])c(F)c([H])c8F)c([H])c7[H])c(C(=O)N([H])[H])c6N([H])[H])C5([H])[H])c([H])c4OC([H])([H])C([H])([H])C([H])([H])[H])=[N+]([H])[H])C([H])([H])C3([H])[H])c([H])c([H])c2C1([H])[H]

$$$$
31:0:0
     RDKit          3D

 96105  0  0  1  0  0  0  0  0999 V2000
  -28.6310  -24.4140   20.1200 C   0  0  0  0  0  0  0  0  0  0  0  0
  -28.4140  -25.4470   19.2550 C   0  0  0  0  0  3  0  0  0  0  0  0
  -29.5760  -20.9400   21.3810 C   0  0  0  0  0  3  0  0  0  0  0  0
  -28.6310  -24.5620   21.6150 C   0  0  0  0  0  2  0  0  0  0  0  0
  -28.9490  -22.9360   19.7740 C   0  0  0  0  0  2  0  0  0  0  0  0
  -28.6850  -23.1360   22.1750 C   0  0  0  0  0  2  0  0  0  0  0  0
  -29.1150  -22.2170   21.0850 N   0  0  0  0  0  0  0  0  0  0  0  0
  -29.4910  -20.5690   22.6580 N   0  0  0  0  0  0  0  0  0  0  0  0
  -29.8930  -19.6860   22.9320 H   0  0  0  0  0  0  0  0  0  0  0  0
  -29.0500  -21.1330   23.3630 H   0  0  0  0  0  0  0  0  0  0  0  0
  -29.9820  -18.5010   20.6820 C   0  0  0  0  0  3  0  0  0  0  0  0
  -31.2270  -20.2890   19.5900 C   0  0  0  0  0  3  0  0  0  0  0  0
  -31.7210  -17.9410   19.0870 C   0  0  0  0  0  3  0  0  0  0  0  0
  -30.2200  -19.9100   20.4990 C   0  0  0  0  0  0  0  0  0  0  0  0
  -30.7500  -17.4880   20.0170 C   0  0  0  0  0  0  0  0  0  0  0  0
  -31.9530  -19.3170   18.8790 C   0  0  0  0  0  0  0  0  0  0  0  0
  -32.9080  -19.7100   18.0030 F   0  0  0  0  0  0  0  0  0  0  0  0
  -31.2780  -14.9730   19.9700 C   0  0  0  0  0  0  0  0  0  0  0  0
  -31.0040  -12.7270   18.9680 C   0  0  0  0  0  2  0  0  0  0  0  0
  -30.0310  -12.8480   17.7740 C   0  0  0  0  0  2  0  0  0  0  0  0
  -28.5710  -12.7090   18.2480 C   0  0  0  0  0  2  0  0  0  0  0  0
  -28.2500  -13.5910   19.4840 C   0  0  0  0  0  3  0  0  0  0  0  0
  -29.3410  -13.4600   20.5720 C   0  0  0  0  0  2  0  0  0  0  0  0
  -30.6340  -13.7660   19.9470 N   0  0  0  0  0  0  0  0  0  0  0  0
  -32.4380  -15.0750   19.5660 O   0  0  0  0  0  0  0  0  0  0  0  0
  -30.5200  -16.0680   20.2870 N   0  0  0  0  0  0  0  0  0  0  0  0
  -29.6240  -15.8400   20.6920 H   0  0  0  0  0  0  0  0  0  0  0  0
  -25.8920  -14.2020   20.2970 C   0  0  0  0  0  0  0  0  0  0  0  0
  -24.8320  -13.4330   20.6950 C   0  0  0  0  0  0  0  0  0  0  0  0
  -25.2800  -12.0780   20.6310 C   0  0  0  0  0  0  0  0  0  0  0  0
  -26.9180  -13.3150   20.0130 N   0  0  0  0  0  0  0  0  0  0  0  0
  -26.5580  -12.0320   20.2750 N   0  0  0  0  0  0  0  0  0  0  0  0
  -24.5500  -10.8200   20.8310 C   0  0  0  0  0  0  0  0  0  0  0  0
  -24.9300   -9.8980   21.8310 C   0  0  0  0  0  3  0  0  0  0  0  0
  -24.2000   -8.7030   22.0170 C   0  0  0  0  0  3  0  0  0  0  0  0
  -23.0770   -8.4230   21.2020 C   0  0  0  0  0  0  0  0  0  0  0  0
  -22.7170   -9.3340   20.1950 C   0  0  0  0  0  3  0  0  0  0  0  0
  -23.4470  -10.5200   20.0070 C   0  0  0  0  0  3  0  0  0  0  0  0
  -22.3240   -7.2770   21.2940 O   0  0  0  0  0  0  0  0  0  0  0  0
  -22.0850   -6.6670   22.4990 C   0  0  0  0  0  0  0  0  0  0  0  0
  -21.4330   -7.3390   23.5570 C   0  0  0  0  0  3  0  0  0  0  0  0
  -21.1440   -6.6530   24.7540 C   0  0  0  0  0  3  0  0  0  0  0  0
  -21.4950   -5.2970   24.8910 C   0  0  0  0  0  0  0  0  0  0  0  0
  -22.1390   -4.6260   23.8370 C   0  0  0  0  0  3  0  0  0  0  0  0
  -22.4300   -5.3090   22.6430 C   0  0  0  0  0  0  0  0  0  0  0  0
  -23.0310   -4.6510   21.6220 F   0  0  0  0  0  0  0  0  0  0  0  0
  -21.2120   -4.6360   26.0370 F   0  0  0  0  0  0  0  0  0  0  0  0
  -23.4490  -13.9180   21.0230 C   0  0  0  0  0  0  0  0  0  0  0  0
  -22.7540  -13.2280   21.9190 N   0  0  0  0  0  0  0  0  0  0  0  0
  -22.9970  -14.9450   20.5180 O   0  0  0  0  0  0  0  0  0  0  0  0
  -23.1360  -12.3980   22.3500 H   0  0  0  0  0  0  0  0  0  0  0  0
  -21.8270  -13.5350   22.1800 H   0  0  0  0  0  0  0  0  0  0  0  0
  -26.0600  -15.5720   20.1300 N   0  0  0  0  0  0  0  0  0  0  0  0
  -25.2920  -16.2230   20.2570 H   0  0  0  0  0  0  0  0  0  0  0  0
  -26.8800  -16.0060   19.7250 H   0  0  0  0  0  0  0  0  0  0  0  0
  -28.3590  -26.8020   19.5950 O   0  0  0  0  0  0  0  0  0  0  0  0
  -24.5860  -31.7700   23.1070 C   0  0  0  0  0  0  0  0  0  0  0  0
  -27.1770  -27.5360   19.6400 C   0  0  0  0  0  0  0  0  0  0  0  0
  -23.3410  -30.4420   21.4350 C   0  0  0  0  0  3  0  0  0  0  0  0
  -24.7600  -29.0290   19.8470 C   0  0  0  0  0  0  0  0  0  0  0  0
  -25.8510  -30.8610   21.1520 C   0  0  0  0  0  2  0  0  0  0  0  0
  -25.9350  -29.5300   20.4180 C   0  0  0  0  0  0  0  0  0  0  0  0
  -27.1420  -28.7910   20.3100 C   0  0  0  0  0  3  0  0  0  0  0  0
  -25.9800  -27.0670   19.0560 C   0  0  0  0  0  3  0  0  0  0  0  0
  -24.7800  -27.8010   19.1610 C   0  0  0  0  0  3  0  0  0  0  0  0
  -23.5040  -29.8600   20.0060 C   0  0  0  0  0  2  0  0  0  0  0  0
  -24.6140  -31.0380   21.9550 N   0  0  0  0  0  0  0  0  0  0  0  0
  -23.5230  -31.9820   23.7100 O   0  0  0  0  0  0  0  0  0  0  0  0
  -22.7550  -29.3490   22.3580 C   0  0  0  0  0  0  0  0  0  0  0  0
  -21.4380  -29.1050   22.2420 N   0  0  0  0  0  0  0  0  0  0  0  0
  -23.4810  -28.7230   23.1350 O   0  0  0  0  0  0  0  0  0  0  0  0
  -20.9080  -29.6620   21.5860 H   0  0  0  0  0  0  0  0  0  0  0  0
  -18.1510  -27.6740   22.6940 C   0  0  0  0  0  0  0  0  0  0  0  0
  -20.6860  -28.0930   22.9820 C   0  0  0  0  0  3  0  0  0  0  0  0
  -20.8830  -26.6900   22.3620 C   0  0  0  0  0  2  0  0  0  0  0  0
  -19.8060  -26.3280   21.3340 C   0  0  0  0  0  2  0  0  0  0  0  0
  -18.4170  -26.3610   21.9760 C   0  0  0  0  0  2  0  0  0  0  0  0
  -19.2150  -28.4940   23.1520 C   0  0  0  0  0  0  0  0  0  0  0  0
  -18.9120  -29.7210   23.7820 C   0  0  0  0  0  3  0  0  0  0  0  0
  -17.5770  -30.1280   23.9590 C   0  0  0  0  0  3  0  0  0  0  0  0
  -16.5270  -29.3060   23.5150 C   0  0  0  0  0  3  0  0  0  0  0  0
  -16.8140  -28.0800   22.8880 C   0  0  0  0  0  3  0  0  0  0  0  0
  -25.8830  -32.3970   23.7090 C   0  0  0  0  0  3  0  0  0  0  0  0
  -25.5570  -33.7630   24.1390 N   0  0  0  0  0  0  0  0  0  0  0  0
  -25.8290  -34.8690   23.4320 C   0  0  0  0  0  0  0  0  0  0  0  0
  -26.4530  -34.8440   22.3670 O   0  0  0  0  0  0  0  0  0  0  0  0
  -24.9970  -33.8530   24.9730 H   0  0  0  0  0  0  0  0  0  0  0  0
  -24.0370  -36.6250   23.2730 C   0  0  0  0  0  1  0  0  0  0  0  0
  -25.3310  -36.2130   23.9950 C   0  0  0  0  0  3  0  0  0  0  0  0
  -27.4780  -37.1140   24.7730 C   0  0  0  0  0  1  0  0  0  0  0  0
  -26.3280  -37.3010   23.8920 N   0  0  0  0  0  0  0  0  0  0  0  0
  -25.9040  -38.1990   24.1080 H   0  0  0  0  0  0  0  0  0  0  0  0
  -26.4750  -31.5640   24.9120 C   0  0  1  0  0  0  0  0  0  0  0  0
  -25.4390  -31.2390   26.0120 C   0  0  0  0  0  1  0  0  0  0  0  0
  -27.0660  -30.2260   24.4100 C   0  0  0  0  0  1  0  0  0  0  0  0
  -27.6400  -32.3440   25.5650 C   0  0  0  0  0  1  0  0  0  0  0  0
  1  4  1  0
  2 56  1  0
  2  1  2  0
  3  8  1  0
  4  6  1  0
  5  1  1  0
  5  7  1  0
  7  3  1  0
  7  6  1  0
  8  9  1  0
  8 10  1  0
 12 14  2  0
 13 15  1  0
 14 11  1  0
 14  3  1  0
 15 26  1  0
 15 11  2  0
 16 13  2  0
 16 12  1  0
 17 16  1  0
 18 26  1  0
 19 24  1  0
 20 21  1  0
 20 19  1  0
 22 21  1  0
 22 31  1  0
 22 23  1  0
 24 18  1  0
 24 23  1  0
 25 18  2  0
 26 27  1  0
 28 29  2  0
 29 48  1  0
 30 29  1  0
 30 33  1  0
 31 32  1  0
 31 28  1  0
 32 30  2  0
 33 34  1  0
 34 35  2  0
 36 39  1  0
 36 35  1  0
 37 36  2  0
 38 37  1  0
 38 33  2  0
 39 40  1  0
 40 45  2  0
 40 41  1  0
 41 42  2  0
 42 43  1  0
 43 47  1  0
 44 43  2  0
 45 44  1  0
 46 45  1  0
 48 49  1  0
 49 52  1  0
 49 51  1  0
 50 48  2  0
 53 54  1  0
 53 28  1  0
 55 53  1  0
 56 58  1  0
 57 68  2  0
 58 63  1  0
 59 67  1  0
 59 69  1  0
 60 66  1  0
 60 62  1  0
 61 67  1  0
 62 61  1  0
 63 62  2  0
 64 65  1  0
 64 58  2  0
 65 60  2  0
 66 59  1  0
 67 57  1  0
 69 71  2  0
 70 69  1  0
 72 70  1  0
 73 82  2  0
 73 78  1  0
 74 70  1  0
 74 78  1  0
 75 74  1  0
 76 77  1  0
 76 75  1  0
 77 73  1  0
 78 79  2  0
 79 80  1  0
 81 80  2  0
 82 81  1  0
 83 57  1  0
 83 84  1  0
 83 93  1  0
 84 87  1  0
 85 89  1  0
 85 84  1  0
 86 85  2  0
 89 88  1  0
 91 89  1  0
 91 92  1  0
 91 90  1  0
 93 96  1  1
 93 94  1  0
 95 93  1  0
M  ISO  4   2 101  18 100  26 100  56 101
M  END
>  <TORSDO>  (32) 
F 17

>  <SCORE>  (32) 
-13.573

>  <name>  (32) 
31

>  <ligand_id>  (32) 
31

>  <original_smiles>  (32) 
[H]C(Oc1c([H])c([H])c2c(c1[H])C([H])([H])N(C(=O)C([H])(N([H])C(=O)C([H])(N([H])C([H])([H])[H])C([H])([H])[H])C(C([H])([H])[H])(C([H])([H])[H])C([H])([H])[H])C([H])(C(=O)N([H])C1([H])c3c([H])c([H])c([H])c([H])c3C([H])([H])C([H])([H])C1([H])[H])C2([H])[H])=C1C([H])([H])N(C(c2c([H])c(F)c([H])c(N([H])C(=O)N3C([H])([H])C([H])([H])C([H])([H])C([H])(n4nc(-c5c([H])c([H])c(Oc6c([H])c([H])c(F)c([H])c6F)c([H])c5[H])c(C(=O)N([H])[H])c4N([H])[H])C3([H])[H])c2[H])=[N+]([H])[H])C([H])([H])C1([H])[H]

>  <smiles>  (32) 
[H]C(Oc1c([H])c([H])c2c(c1[H])C([H])([H])N(C(=O)C([H])(N([H])C(=O)C([H])(N([H])C([H])([H])[H])C([H])([H])[H])C(C([H])([H])[H])(C([H])([H])[H])C([H])([H])[H])C([H])(C(=O)N([H])C1([H])c3c([H])c([H])c([H])c([H])c3C([H])([H])C([H])([H])C1([H])[H])C2([H])[H])=C1C([H])([H])N(C(c2c([H])c(F)c([H])c(N([H])C(=O)N3C([H])([H])C([H])([H])C([H])([H])C([H])(n4nc(-c5c([H])c([H])c(Oc6c([H])c([H])c(F)c([H])c6F)c([H])c5[H])c(C(=O)N([H])[H])c4N([H])[H])C3([H])[H])c2[H])=[N+]([H])[H])C([H])([H])C1([H])[H]

$$$$
32:0:0
     RDKit          3D

 91100  0  0  1  0  0  0  0  0999 V2000
  -27.6130  -22.9030   21.0070 C   0  0  0  0  0  2  0  0  0  0  0  0
  -28.1720  -21.4690   21.2800 C   0  0  0  0  0  2  0  0  0  0  0  0
  -29.6460  -22.6290   19.8160 C   0  0  0  0  0  2  0  0  0  0  0  0
  -28.7940  -23.7740   20.5160 C   0  0  0  0  0  3  0  0  0  0  0  0
  -29.2840  -21.2760   20.3560 N   0  0  0  0  0  0  0  0  0  0  0  0
  -31.8170  -18.9550   18.8430 C   0  0  0  0  0  3  0  0  0  0  0  0
  -31.0940  -20.0950   19.2290 C   0  0  0  0  0  3  0  0  0  0  0  0
  -31.4320  -17.6680   19.2530 C   0  0  0  0  0  3  0  0  0  0  0  0
  -29.5690  -18.6530   20.4590 C   0  0  0  0  0  3  0  0  0  0  0  0
  -29.9440  -20.0100   20.0440 C   0  0  0  0  0  0  0  0  0  0  0  0
  -30.3060  -17.4390   20.0840 C   0  0  0  0  0  0  0  0  0  0  0  0
  -30.6450  -14.8260   20.2590 C   0  0  0  0  0  0  0  0  0  0  0  0
  -30.3750  -12.5460   19.2720 C   0  0  0  0  0  2  0  0  0  0  0  0
  -29.4370  -12.6240   18.0500 C   0  0  0  0  0  2  0  0  0  0  0  0
  -27.9660  -12.4810   18.4850 C   0  0  0  0  0  2  0  0  0  0  0  0
  -27.6120  -13.3470   19.7240 C   0  0  0  0  0  3  0  0  0  0  0  0
  -28.6860  -13.2770   20.8300 C   0  0  0  0  0  2  0  0  0  0  0  0
  -29.9720  -13.6200   20.2130 N   0  0  0  0  0  0  0  0  0  0  0  0
  -31.8420  -14.8290   19.9620 O   0  0  0  0  0  0  0  0  0  0  0  0
  -29.9450  -16.0240   20.4490 N   0  0  0  0  0  0  0  0  0  0  0  0
  -29.0080  -15.8990   20.8000 H   0  0  0  0  0  0  0  0  0  0  0  0
  -25.2320  -13.9150   20.4860 C   0  0  0  0  0  0  0  0  0  0  0  0
  -24.1760  -13.1360   20.8690 C   0  0  0  0  0  0  0  0  0  0  0  0
  -24.6450  -11.7870   20.8310 C   0  0  0  0  0  0  0  0  0  0  0  0
  -26.2780  -13.0440   20.2330 N   0  0  0  0  0  0  0  0  0  0  0  0
  -25.9330  -11.7580   20.5050 N   0  0  0  0  0  0  0  0  0  0  0  0
  -23.9250  -10.5240   21.0260 C   0  0  0  0  0  0  0  0  0  0  0  0
  -24.3700   -9.5550   21.9520 C   0  0  0  0  0  3  0  0  0  0  0  0
  -23.6480   -8.3550   22.1370 C   0  0  0  0  0  3  0  0  0  0  0  0
  -22.4650   -8.1170   21.3960 C   0  0  0  0  0  0  0  0  0  0  0  0
  -22.0390   -9.0740   20.4590 C   0  0  0  0  0  3  0  0  0  0  0  0
  -22.7610  -10.2650   20.2730 C   0  0  0  0  0  3  0  0  0  0  0  0
  -21.7120   -6.9710   21.4920 O   0  0  0  0  0  0  0  0  0  0  0  0
  -21.6760   -6.2270   22.6440 C   0  0  0  0  0  0  0  0  0  0  0  0
  -21.2600   -6.7780   23.8740 C   0  0  0  0  0  3  0  0  0  0  0  0
  -21.1710   -5.9590   25.0180 C   0  0  0  0  0  3  0  0  0  0  0  0
  -21.4890   -4.5900   24.9320 C   0  0  0  0  0  0  0  0  0  0  0  0
  -21.8980   -4.0390   23.7040 C   0  0  0  0  0  3  0  0  0  0  0  0
  -21.9880   -4.8540   22.5630 C   0  0  0  0  0  0  0  0  0  0  0  0
  -22.3620   -4.3130   21.3780 F   0  0  0  0  0  0  0  0  0  0  0  0
  -21.3980   -3.8020   26.0280 F   0  0  0  0  0  0  0  0  0  0  0  0
  -22.7810  -13.6080   21.1570 C   0  0  0  0  0  0  0  0  0  0  0  0
  -22.0630  -12.9080   22.0290 N   0  0  0  0  0  0  0  0  0  0  0  0
  -22.3340  -14.6330   20.6430 O   0  0  0  0  0  0  0  0  0  0  0  0
  -22.4420  -12.0810   22.4680 H   0  0  0  0  0  0  0  0  0  0  0  0
  -21.1270  -13.2050   22.2640 H   0  0  0  0  0  0  0  0  0  0  0  0
  -25.3840  -15.2870   20.3080 N   0  0  0  0  0  0  0  0  0  0  0  0
  -24.6100  -15.9290   20.4400 H   0  0  0  0  0  0  0  0  0  0  0  0
  -26.2100  -15.7330   19.9310 H   0  0  0  0  0  0  0  0  0  0  0  0
  -28.4360  -25.1080   19.6600 C   0  0  0  0  0  2  0  0  0  0  0  0
  -28.3370  -26.4850   20.2500 O   0  0  0  0  0  0  0  0  0  0  0  0
  -24.6120  -31.9170   23.2300 C   0  0  0  0  0  0  0  0  0  0  0  0
  -27.2040  -27.3270   20.1590 C   0  0  0  0  0  0  0  0  0  0  0  0
  -23.3980  -30.5180   21.5980 C   0  0  0  0  0  3  0  0  0  0  0  0
  -24.8400  -28.9660   20.1600 C   0  0  0  0  0  0  0  0  0  0  0  0
  -25.9390  -30.8320   21.3960 C   0  0  0  0  0  2  0  0  0  0  0  0
  -26.0150  -29.4500   20.7480 C   0  0  0  0  0  0  0  0  0  0  0  0
  -27.1940  -28.6420   20.7360 C   0  0  0  0  0  3  0  0  0  0  0  0
  -26.0000  -26.9050   19.5490 C   0  0  0  0  0  3  0  0  0  0  0  0
  -24.8380  -27.7020   19.5520 C   0  0  0  0  0  3  0  0  0  0  0  0
  -23.6060  -29.8430   20.2160 C   0  0  0  0  0  2  0  0  0  0  0  0
  -24.6700  -31.1060   22.1320 N   0  0  0  0  0  0  0  0  0  0  0  0
  -23.5330  -32.1930   23.7730 O   0  0  0  0  0  0  0  0  0  0  0  0
  -22.7410  -29.5020   22.5610 C   0  0  0  0  0  0  0  0  0  0  0  0
  -21.4130  -29.3260   22.4460 N   0  0  0  0  0  0  0  0  0  0  0  0
  -23.4250  -28.8720   23.3720 O   0  0  0  0  0  0  0  0  0  0  0  0
  -20.9190  -29.8830   21.7610 H   0  0  0  0  0  0  0  0  0  0  0  0
  -18.0390  -28.1340   22.9660 C   0  0  0  0  0  0  0  0  0  0  0  0
  -20.5980  -28.3910   23.2230 C   0  0  0  0  0  3  0  0  0  0  0  0
  -20.6980  -26.9580   22.6490 C   0  0  0  0  0  2  0  0  0  0  0  0
  -19.5900  -26.6350   21.6400 C   0  0  0  0  0  2  0  0  0  0  0  0
  -18.2110  -26.7830   22.2890 C   0  0  0  0  0  2  0  0  0  0  0  0
  -19.1600  -28.8950   23.3890 C   0  0  0  0  0  0  0  0  0  0  0  0
  -18.9450  -30.1590   23.9800 C   0  0  0  0  0  3  0  0  0  0  0  0
  -17.6420  -30.6610   24.1530 C   0  0  0  0  0  3  0  0  0  0  0  0
  -16.5350  -29.8970   23.7470 C   0  0  0  0  0  3  0  0  0  0  0  0
  -16.7340  -28.6350   23.1580 C   0  0  0  0  0  3  0  0  0  0  0  0
  -25.8980  -32.5510   23.8420 C   0  0  0  0  0  3  0  0  0  0  0  0
  -25.5880  -33.9490   24.1780 N   0  0  0  0  0  0  0  0  0  0  0  0
  -25.9140  -35.0050   23.4210 C   0  0  0  0  0  0  0  0  0  0  0  0
  -26.5750  -34.9060   22.3840 O   0  0  0  0  0  0  0  0  0  0  0  0
  -24.9980  -34.1000   24.9830 H   0  0  0  0  0  0  0  0  0  0  0  0
  -24.1830  -36.8000   23.0900 C   0  0  0  0  0  1  0  0  0  0  0  0
  -25.4300  -36.3910   23.8890 C   0  0  0  0  0  3  0  0  0  0  0  0
  -27.5690  -37.2740   24.7080 C   0  0  0  0  0  1  0  0  0  0  0  0
  -26.4610  -37.4450   23.7730 N   0  0  0  0  0  0  0  0  0  0  0  0
  -26.0530  -38.3620   23.9330 H   0  0  0  0  0  0  0  0  0  0  0  0
  -26.4260  -31.7810   25.1150 C   0  0  1  0  0  0  0  0  0  0  0  0
  -25.3420  -31.5420   26.1920 C   0  0  0  0  0  1  0  0  0  0  0  0
  -27.0060  -30.4040   24.7170 C   0  0  0  0  0  1  0  0  0  0  0  0
  -27.5770  -32.5760   25.7730 C   0  0  0  0  0  1  0  0  0  0  0  0
  1  2  1  0
  3  5  1  0
  3  4  1  0
  4 50  1  0
  4  1  1  0
  5  2  1  0
  6  7  2  0
  6  8  1  0
  7 10  1  0
  8 11  2  0
 10  5  1  0
 10  9  2  0
 11 20  1  0
 11  9  1  0
 12 20  1  0
 13 18  1  0
 14 15  1  0
 14 13  1  0
 16 15  1  0
 16 25  1  0
 16 17  1  0
 18 12  1  0
 18 17  1  0
 19 12  2  0
 20 21  1  0
 22 23  2  0
 23 42  1  0
 24 23  1  0
 24 27  1  0
 25 22  1  0
 25 26  1  0
 26 24  2  0
 27 28  1  0
 28 29  2  0
 30 33  1  0
 30 29  1  0
 31 30  2  0
 32 31  1  0
 32 27  2  0
 33 34  1  0
 34 35  1  0
 35 36  2  0
 37 36  1  0
 37 41  1  0
 38 37  2  0
 39 34  2  0
 39 38  1  0
 40 39  1  0
 42 43  1  0
 43 46  1  0
 43 45  1  0
 44 42  2  0
 47 48  1  0
 47 22  1  0
 49 47  1  0
 50 51  1  0
 52 63  2  0
 53 51  1  0
 53 58  1  0
 54 62  1  0
 54 64  1  0
 55 61  1  0
 55 57  1  0
 56 62  1  0
 57 56  1  0
 58 57  2  0
 59 60  1  0
 59 53  2  0
 60 55  2  0
 61 54  1  0
 62 52  1  0
 64 66  2  0
 65 64  1  0
 67 65  1  0
 68 77  2  0
 68 73  1  0
 69 65  1  0
 69 73  1  0
 70 69  1  0
 71 72  1  0
 71 70  1  0
 72 68  1  0
 73 74  2  0
 74 75  1  0
 76 75  2  0
 77 76  1  0
 78 52  1  0
 78 79  1  0
 78 88  1  0
 79 82  1  0
 80 84  1  0
 80 79  1  0
 81 80  2  0
 84 83  1  0
 86 84  1  0
 86 87  1  0
 86 85  1  0
 88 91  1  1
 88 89  1  0
 90 88  1  0
M  ISO  4  12 100  20 100  50 101  51 101
M  END
>  <TORSDO>  (33) 
F 18

>  <SCORE>  (33) 
-14.756

>  <name>  (33) 
32

>  <ligand_id>  (33) 
32

>  <original_smiles>  (33) 
[H]c1c([H])c(N([H])C(=O)N2C([H])([H])C([H])([H])C([H])([H])C([H])(n3nc(-c4c([H])c([H])c(Oc5c([H])c([H])c(F)c([H])c5F)c([H])c4[H])c(C(=O)N([H])[H])c3N([H])[H])C2([H])[H])c([H])c(N2C([H])([H])C([H])([H])C([H])(C([H])([H])Oc3c([H])c([H])c4c(c3[H])C([H])([H])N(C(=O)C([H])(N([H])C(=O)C([H])(N([H])C([H])([H])[H])C([H])([H])[H])C(C([H])([H])[H])(C([H])([H])[H])C([H])([H])[H])C([H])(C(=O)N([H])C3([H])c5c([H])c([H])c([H])c([H])c5C([H])([H])C([H])([H])C3([H])[H])C4([H])[H])C2([H])[H])c1[H]

>  <smiles>  (33) 
[H]c1c([H])c(N([H])C(=O)N2C([H])([H])C([H])([H])C([H])([H])C([H])(n3nc(-c4c([H])c([H])c(Oc5c([H])c([H])c(F)c([H])c5F)c([H])c4[H])c(C(=O)N([H])[H])c3N([H])[H])C2([H])[H])c([H])c(N2C([H])([H])C([H])([H])C([H])(C([H])([H])Oc3c([H])c([H])c4c(c3[H])C([H])([H])N(C(=O)C([H])(N([H])C(=O)C([H])(N([H])C([H])([H])[H])C([H])([H])[H])C(C([H])([H])[H])(C([H])([H])[H])C([H])([H])[H])C([H])(C(=O)N([H])C3([H])c5c([H])c([H])c([H])c([H])c5C([H])([H])C([H])([H])C3([H])[H])C4([H])[H])C2([H])[H])c1[H]

$$$$
33:0:0
     RDKit          3D

 98107  0  0  1  0  0  0  0  0999 V2000
  -27.8060  -22.2400   20.4590 C   0  0  0  0  0  0  0  0  0  0  0  0
  -28.6150  -19.8600   20.4810 C   0  0  0  0  0  3  0  0  0  0  0  0
  -29.0910  -23.0260   18.6130 C   0  0  0  0  0  2  0  0  0  0  0  0
  -29.1380  -21.5040   18.6590 C   0  0  0  0  0  2  0  0  0  0  0  0
  -27.8760  -23.4100   19.4680 C   0  0  1  0  0  0  0  0  0  0  0  0
  -26.5760  -23.3980   18.6270 C   0  0  0  0  0  1  0  0  0  0  0  0
  -28.5100  -21.1050   19.9340 N   0  0  0  0  0  0  0  0  0  0  0  0
  -28.1250  -19.5750   21.6910 N   0  0  0  0  0  0  0  0  0  0  0  0
  -27.2070  -22.2590   21.5390 O   0  0  0  0  0  0  0  0  0  0  0  0
  -28.2350  -18.6530   22.0840 H   0  0  0  0  0  0  0  0  0  0  0  0
  -27.6460  -20.2930   22.2180 H   0  0  0  0  0  0  0  0  0  0  0  0
  -29.9690  -17.7900   17.6280 C   0  0  0  0  0  3  0  0  0  0  0  0
  -29.1250  -18.6360   18.3640 C   0  0  0  0  0  3  0  0  0  0  0  0
  -30.9540  -17.0420   18.2930 C   0  0  0  0  0  3  0  0  0  0  0  0
  -30.2090  -17.9330   20.4350 C   0  0  0  0  0  3  0  0  0  0  0  0
  -29.3130  -18.7900   19.7560 C   0  0  0  0  0  0  0  0  0  0  0  0
  -31.0120  -17.0240   19.7090 C   0  0  0  0  0  0  0  0  0  0  0  0
  -32.4130  -15.0270   19.9380 C   0  0  0  0  0  0  0  0  0  0  0  0
  -31.8890  -12.8180   18.9660 C   0  0  0  0  0  2  0  0  0  0  0  0
  -30.9330  -12.9150   17.7610 C   0  0  0  0  0  2  0  0  0  0  0  0
  -29.4660  -12.9030   18.2330 C   0  0  0  0  0  2  0  0  0  0  0  0
  -29.1920  -13.8870   19.3990 C   0  0  0  0  0  3  0  0  0  0  0  0
  -30.2730  -13.7880   20.5000 C   0  0  0  0  0  2  0  0  0  0  0  0
  -31.5930  -13.9400   19.8650 N   0  0  0  0  0  0  0  0  0  0  0  0
  -33.5430  -15.0560   19.4520 O   0  0  0  0  0  0  0  0  0  0  0  0
  -31.8910  -16.1620   20.4250 N   0  0  0  0  0  0  0  0  0  0  0  0
  -32.5590  -16.6760   20.9810 H   0  0  0  0  0  0  0  0  0  0  0  0
  -26.9120  -14.7430   20.2180 C   0  0  0  0  0  0  0  0  0  0  0  0
  -25.7780  -14.0810   20.6030 C   0  0  0  0  0  0  0  0  0  0  0  0
  -26.0890  -12.6890   20.5200 C   0  0  0  0  0  0  0  0  0  0  0  0
  -27.8430  -13.7540   19.9290 N   0  0  0  0  0  0  0  0  0  0  0  0
  -27.3550  -12.5150   20.1680 N   0  0  0  0  0  0  0  0  0  0  0  0
  -25.2380  -11.5060   20.6970 C   0  0  0  0  0  0  0  0  0  0  0  0
  -25.5180  -10.5410   21.6900 C   0  0  0  0  0  3  0  0  0  0  0  0
  -24.6780   -9.4180   21.8510 C   0  0  0  0  0  3  0  0  0  0  0  0
  -23.5470   -9.2560   21.0190 C   0  0  0  0  0  0  0  0  0  0  0  0
  -23.2850  -10.2070   20.0180 C   0  0  0  0  0  3  0  0  0  0  0  0
  -24.1230  -11.3210   19.8540 C   0  0  0  0  0  3  0  0  0  0  0  0
  -22.6890   -8.1850   21.0860 O   0  0  0  0  0  0  0  0  0  0  0  0
  -22.3670   -7.6000   22.2830 C   0  0  0  0  0  0  0  0  0  0  0  0
  -21.7670   -8.3310   23.3310 C   0  0  0  0  0  3  0  0  0  0  0  0
  -21.3870   -7.6720   24.5190 C   0  0  0  0  0  3  0  0  0  0  0  0
  -21.5990   -6.2870   24.6550 C   0  0  0  0  0  0  0  0  0  0  0  0
  -22.1930   -5.5590   23.6090 C   0  0  0  0  0  3  0  0  0  0  0  0
  -22.5720   -6.2140   22.4250 C   0  0  0  0  0  0  0  0  0  0  0  0
  -23.1250   -5.5040   21.4110 F   0  0  0  0  0  0  0  0  0  0  0  0
  -21.2270   -5.6530   25.7920 F   0  0  0  0  0  0  0  0  0  0  0  0
  -24.4500  -14.6970   20.9340 C   0  0  0  0  0  0  0  0  0  0  0  0
  -23.6890  -14.0720   21.8260 N   0  0  0  0  0  0  0  0  0  0  0  0
  -24.1030  -15.7700   20.4420 O   0  0  0  0  0  0  0  0  0  0  0  0
  -23.9830  -13.2030   22.2470 H   0  0  0  0  0  0  0  0  0  0  0  0
  -22.8000  -14.4740   22.0920 H   0  0  0  0  0  0  0  0  0  0  0  0
  -27.2110  -16.0930   20.0640 N   0  0  0  0  0  0  0  0  0  0  0  0
  -26.4940  -16.8030   20.1560 H   0  0  0  0  0  0  0  0  0  0  0  0
  -28.0770  -16.4520   19.6840 H   0  0  0  0  0  0  0  0  0  0  0  0
  -28.0680  -24.7680   20.1890 C   0  0  0  0  0  2  0  0  0  0  0  0
  -28.6690  -25.8780   19.3000 C   0  0  0  0  0  2  0  0  0  0  0  0
  -28.5760  -27.1600   19.9200 O   0  0  0  0  0  0  0  0  0  0  0  0
  -24.6100  -31.9670   23.3100 C   0  0  0  0  0  0  0  0  0  0  0  0
  -27.3560  -27.8060   19.9570 C   0  0  0  0  0  0  0  0  0  0  0  0
  -23.4320  -30.6440   21.5860 C   0  0  0  0  0  3  0  0  0  0  0  0
  -24.9150  -29.2340   20.0740 C   0  0  0  0  0  0  0  0  0  0  0  0
  -25.9460  -31.0750   21.4090 C   0  0  0  0  0  2  0  0  0  0  0  0
  -26.0610  -29.7540   20.6850 C   0  0  0  0  0  0  0  0  0  0  0  0
  -27.2810  -29.0480   20.6260 C   0  0  0  0  0  3  0  0  0  0  0  0
  -26.1810  -27.2940   19.3540 C   0  0  0  0  0  3  0  0  0  0  0  0
  -24.9670  -27.9980   19.4120 C   0  0  0  0  0  3  0  0  0  0  0  0
  -23.6550  -30.0580   20.1670 C   0  0  0  0  0  2  0  0  0  0  0  0
  -24.6810  -31.2390   22.1620 N   0  0  0  0  0  0  0  0  0  0  0  0
  -23.5260  -32.1790   23.8680 O   0  0  0  0  0  0  0  0  0  0  0  0
  -22.8080  -29.5480   22.4800 C   0  0  0  0  0  0  0  0  0  0  0  0
  -21.4950  -29.3150   22.3130 N   0  0  0  0  0  0  0  0  0  0  0  0
  -23.5030  -28.9140   23.2780 O   0  0  0  0  0  0  0  0  0  0  0  0
  -20.9930  -29.8880   21.6500 H   0  0  0  0  0  0  0  0  0  0  0  0
  -18.1730  -27.9430   22.6590 C   0  0  0  0  0  0  0  0  0  0  0  0
  -20.7060  -28.3080   23.0190 C   0  0  0  0  0  3  0  0  0  0  0  0
  -20.8930  -26.9070   22.3880 C   0  0  0  0  0  2  0  0  0  0  0  0
  -19.8370  -26.5780   21.3260 C   0  0  0  0  0  2  0  0  0  0  0  0
  -18.4330  -26.6320   21.9370 C   0  0  0  0  0  2  0  0  0  0  0  0
  -19.2400  -28.7370   23.1550 C   0  0  0  0  0  0  0  0  0  0  0  0
  -18.9440  -29.9650   23.7860 C   0  0  0  0  0  3  0  0  0  0  0  0
  -17.6120  -30.3970   23.9310 C   0  0  0  0  0  3  0  0  0  0  0  0
  -16.5580  -29.5990   23.4520 C   0  0  0  0  0  3  0  0  0  0  0  0
  -16.8390  -28.3750   22.8210 C   0  0  0  0  0  3  0  0  0  0  0  0
  -25.8850  -32.5880   23.9630 C   0  0  0  0  0  3  0  0  0  0  0  0
  -26.3660  -31.8100   25.2500 C   0  0  1  0  0  0  0  0  0  0  0  0
  -25.2380  -31.5440   26.2750 C   0  0  0  0  0  1  0  0  0  0  0  0
  -26.9790  -30.4430   24.8660 C   0  0  0  0  0  1  0  0  0  0  0  0
  -27.4810  -32.6120   25.9630 C   0  0  0  0  0  1  0  0  0  0  0  0
  -25.5780  -33.9870   24.2860 N   0  0  0  0  0  0  0  0  0  0  0  0
  -25.9460  -35.0370   23.5390 C   0  0  0  0  0  0  0  0  0  0  0  0
  -26.6490  -34.9270   22.5310 O   0  0  0  0  0  0  0  0  0  0  0  0
  -24.9530  -34.1450   25.0620 H   0  0  0  0  0  0  0  0  0  0  0  0
  -24.2450  -36.8440   23.1210 C   0  0  0  0  0  1  0  0  0  0  0  0
  -25.4530  -36.4290   23.9790 C   0  0  0  0  0  3  0  0  0  0  0  0
  -27.5640  -37.2950   24.8890 C   0  0  0  0  0  1  0  0  0  0  0  0
  -26.4990  -37.4730   23.9050 N   0  0  0  0  0  0  0  0  0  0  0  0
  -26.0960  -38.3960   24.0360 H   0  0  0  0  0  0  0  0  0  0  0  0
  1  9  2  0
  2  8  1  0
  3  4  1  0
  3  5  1  0
  4  7  1  0
  5  6  1  6
  5 56  1  0
  5  1  1  0
  7  1  1  0
  7  2  1  0
  8 10  1  0
  8 11  1  0
 12 14  2  0
 12 13  1  0
 13 16  2  0
 14 17  1  0
 16 15  1  0
 16  2  1  0
 17 26  1  0
 17 15  2  0
 18 26  1  0
 19 24  1  0
 20 21  1  0
 20 19  1  0
 22 21  1  0
 22 31  1  0
 22 23  1  0
 24 18  1  0
 24 23  1  0
 25 18  2  0
 26 27  1  0
 28 29  2  0
 29 48  1  0
 30 29  1  0
 30 33  1  0
 31 32  1  0
 31 28  1  0
 32 30  2  0
 33 34  1  0
 34 35  2  0
 36 39  1  0
 36 35  1  0
 37 36  2  0
 38 37  1  0
 38 33  2  0
 39 40  1  0
 40 45  2  0
 40 41  1  0
 41 42  2  0
 42 43  1  0
 43 47  1  0
 44 43  2  0
 45 44  1  0
 46 45  1  0
 48 49  1  0
 49 52  1  0
 49 51  1  0
 50 48  2  0
 53 54  1  0
 53 28  1  0
 55 53  1  0
 57 58  1  0
 57 56  1  0
 58 60  1  0
 59 70  2  0
 60 65  1  0
 61 69  1  0
 61 71  1  0
 62 68  1  0
 62 64  1  0
 63 69  1  0
 64 63  1  0
 65 64  2  0
 66 67  1  0
 66 60  2  0
 67 62  2  0
 68 61  1  0
 69 59  1  0
 71 73  2  0
 72 71  1  0
 74 72  1  0
 75 84  2  0
 75 80  1  0
 76 72  1  0
 76 80  1  0
 77 76  1  0
 78 79  1  0
 78 77  1  0
 79 75  1  0
 80 81  2  0
 81 82  1  0
 83 82  2  0
 84 83  1  0
 85 59  1  0
 85 90  1  0
 85 86  1  0
 86 89  1  1
 86 87  1  0
 88 86  1  0
 90 93  1  0
 91 95  1  0
 91 90  1  0
 92 91  2  0
 95 94  1  0
 97 95  1  0
 97 98  1  0
 97 96  1  0
M  ISO  4  18 100  26 100  57 101  58 101
M  END
>  <TORSDO>  (34) 
F 19

>  <SCORE>  (34) 
-10.624

>  <name>  (34) 
33

>  <ligand_id>  (34) 
33

>  <original_smiles>  (34) 
[H]c1c([H])c(C(N2C(=O)C(C([H])([H])[H])(C([H])([H])C([H])([H])Oc3c([H])c([H])c4c(c3[H])C([H])([H])N(C(=O)C([H])(N([H])C(=O)C([H])(N([H])C([H])([H])[H])C([H])([H])[H])C(C([H])([H])[H])(C([H])([H])[H])C([H])([H])[H])C([H])(C(=O)N([H])C3([H])c5c([H])c([H])c([H])c([H])c5C([H])([H])C([H])([H])C3([H])[H])C4([H])[H])C([H])([H])C2([H])[H])=[N+]([H])[H])c([H])c(N([H])C(=O)N2C([H])([H])C([H])([H])C([H])([H])C([H])(n3nc(-c4c([H])c([H])c(Oc5c([H])c([H])c(F)c([H])c5F)c([H])c4[H])c(C(=O)N([H])[H])c3N([H])[H])C2([H])[H])c1[H]

>  <smiles>  (34) 
[H]c1c([H])c(C(N2C(=O)C(C([H])([H])[H])(C([H])([H])C([H])([H])Oc3c([H])c([H])c4c(c3[H])C([H])([H])N(C(=O)C([H])(N([H])C(=O)C([H])(N([H])C([H])([H])[H])C([H])([H])[H])C(C([H])([H])[H])(C([H])([H])[H])C([H])([H])[H])C([H])(C(=O)N([H])C3([H])c5c([H])c([H])c([H])c([H])c5C([H])([H])C([H])([H])C3([H])[H])C4([H])[H])C([H])([H])C2([H])[H])=[N+]([H])[H])c([H])c(N([H])C(=O)N2C([H])([H])C([H])([H])C([H])([H])C([H])(n3nc(-c4c([H])c([H])c(Oc5c([H])c([H])c(F)c([H])c5F)c([H])c4[H])c(C(=O)N([H])[H])c3N([H])[H])C2([H])[H])c1[H]

$$$$
34:0:0
     RDKit          3D

 95 99  0  0  1  0  0  0  0  0999 V2000
  -22.1250  -24.3090   21.6880 C   0  0  0  0  0  1  0  0  0  0  0  0
  -21.3620  -23.2160   21.8060 F   0  0  0  0  0  0  0  0  0  0  0  0
  -20.6730  -26.4050   22.9940 C   0  0  0  0  0  1  0  0  0  0  0  0
  -19.4030  -25.0150   21.6760 C   0  0  0  0  0  1  0  0  0  0  0  0
  -20.6990  -25.9610   21.4260 C   0  0  0  0  0  3  0  0  0  0  0  0
  -21.4240  -27.6270   19.2110 C   0  0  0  0  0  0  0  0  0  0  0  0
  -20.6790  -28.2690   18.4520 O   0  0  0  0  0  0  0  0  0  0  0  0
  -23.3200  -27.6880   18.7280 C   0  0  0  0  0  2  0  0  0  0  0  0
  -24.9990  -27.6650   19.4870 O   0  0  0  0  0  0  0  0  0  0  0  0
  -24.5600  -31.9700   22.9260 C   0  0  0  0  0  0  0  0  0  0  0  0
  -26.3550  -28.0710   19.1330 C   0  0  0  0  0  3  0  0  0  0  0  0
  -23.5120  -31.0560   20.9290 C   0  0  0  0  0  3  0  0  0  0  0  0
  -25.0690  -30.2870   19.0030 C   0  0  0  0  0  3  0  0  0  0  0  0
  -26.0460  -31.3130   21.0390 C   0  0  0  0  0  2  0  0  0  0  0  0
  -26.0560  -30.2370   19.9850 C   0  0  0  0  0  3  0  0  0  0  0  0
  -26.8960  -29.1080   19.9640 C   0  0  0  0  0  2  0  0  0  0  0  0
  -26.2160  -28.4740   17.8340 C   0  0  0  0  0  2  0  0  0  0  0  0
  -25.3010  -29.5390   17.8050 C   0  0  0  0  0  2  0  0  0  0  0  0
  -23.7860  -31.0000   19.3790 C   0  0  0  0  0  2  0  0  0  0  0  0
  -24.7150  -31.5150   21.6590 N   0  0  0  0  0  0  0  0  0  0  0  0
  -23.4380  -32.1000   23.4370 O   0  0  0  0  0  0  0  0  0  0  0  0
  -23.0900  -29.7340   21.6250 C   0  0  0  0  0  0  0  0  0  0  0  0
  -21.8730  -29.5580   22.0620 N   0  0  0  0  0  0  0  0  0  0  0  0
  -23.8780  -28.8310   21.8570 O   0  0  0  0  0  0  0  0  0  0  0  0
  -21.1900  -30.2930   21.9170 H   0  0  0  0  0  0  0  0  0  0  0  0
  -18.3990  -28.5910   21.9840 C   0  0  0  0  0  0  0  0  0  0  0  0
  -21.3340  -28.1750   22.2680 C   0  0  0  0  0  2  0  0  0  0  0  0
  -21.7560  -26.7620   20.6740 C   0  0  0  0  0  2  0  0  0  0  0  0
  -19.6090  -26.5860   19.3540 C   0  0  0  0  0 15  0  0  0  0  0  0
  -18.1740  -27.7140   20.4030 C   0  0  0  0  0  1  0  0  0  0  0  0
  -19.7280  -28.8210   22.6920 C   0  0  0  0  0  0  0  0  0  0  0  0
  -19.7070  -29.8170   23.7760 C   0  0  0  0  0  3  0  0  0  0  0  0
  -18.5740  -30.4910   24.3120 C   0  0  0  0  0  3  0  0  0  0  0  0
  -17.3220  -30.1350   23.8050 C   0  0  0  0  0  3  0  0  0  0  0  0
  -17.2590  -29.2250   22.6900 C   0  0  0  0  0  3  0  0  0  0  0  0
  -25.7910  -32.3660   23.7760 C   0  0  0  0  0  3  0  0  0  0  0  0
  -25.4850  -33.6770   24.3500 N   0  0  0  0  0  0  0  0  0  0  0  0
  -25.9070  -34.8410   23.8410 C   0  0  0  0  0  0  0  0  0  0  0  0
  -26.6810  -34.9110   22.8810 O   0  0  0  0  0  0  0  0  0  0  0  0
  -24.8240  -33.6970   25.1140 H   0  0  0  0  0  0  0  0  0  0  0  0
  -24.2730  -36.7440   23.6460 C   0  0  0  0  0  1  0  0  0  0  0  0
  -25.3880  -36.1270   24.5060 C   0  0  0  0  0  3  0  0  0  0  0  0
  -27.4230  -36.7160   25.7480 C   0  0  0  0  0  1  0  0  0  0  0  0
  -26.4480  -37.1300   24.7440 N   0  0  0  0  0  0  0  0  0  0  0  0
  -26.0440  -38.0130   25.0410 H   0  0  0  0  0  0  0  0  0  0  0  0
  -26.1330  -31.3220   24.9070 C   0  0  1  0  0  0  0  0  0  0  0  0
  -24.9190  -30.9180   25.7730 C   0  0  0  0  0  1  0  0  0  0  0  0
  -26.7360  -30.0250   24.3180 C   0  0  0  0  0  1  0  0  0  0  0  0
  -27.2150  -31.9190   25.8370 C   0  0  0  0  0  1  0  0  0  0  0  0
  -23.8520  -23.3750   21.0570 C   0  0  0  0  0  1  0  0  0  0  0  0
  -24.7360  -21.7880   21.1510 N   0  0  0  0  0  0  0  0  0  0  0  0
  -24.3820  -21.2880   21.9660 H   0  0  0  0  0  0  0  0  0  0  0  0
  -26.5980  -19.3700   20.6760 C   0  0  0  0  0  3  0  0  0  0  0  0
  -28.0650  -20.1040   19.3560 C   0  0  0  0  0  3  0  0  0  0  0  0
  -27.9550  -18.8280   19.9540 C   0  0  0  0  0  0  0  0  0  0  0  0
  -26.0270  -20.7910   20.5510 C   0  0  0  0  0  0  0  0  0  0  0  0
  -27.0520  -21.1540   19.6550 O   0  0  0  0  0  0  0  0  0  0  0  0
  -30.2250  -16.4170   19.3100 C   0  0  0  0  0  0  0  0  0  0  0  0
  -31.0960  -13.9330   18.4830 C   0  0  0  0  0  2  0  0  0  0  0  0
  -30.1790  -13.3320   17.3630 C   0  0  0  0  0  2  0  0  0  0  0  0
  -28.8190  -12.8810   17.9330 C   0  0  0  0  0  2  0  0  0  0  0  0
  -28.3560  -13.8770   19.0200 C   0  0  0  0  0  3  0  0  0  0  0  0
  -29.4150  -14.1380   20.0820 C   0  0  0  0  0  2  0  0  0  0  0  0
  -30.3240  -14.9610   19.3570 N   0  0  0  0  0  0  0  0  0  0  0  0
  -31.3220  -16.7440   18.7620 O   0  0  0  0  0  0  0  0  0  0  0  0
  -28.9420  -17.3100   19.7980 N   0  0  0  0  0  0  0  0  0  0  0  0
  -28.3650  -16.6050   20.2410 H   0  0  0  0  0  0  0  0  0  0  0  0
  -26.2960  -14.4490   20.3140 C   0  0  0  0  0  0  0  0  0  0  0  0
  -25.3050  -13.6770   20.8330 C   0  0  0  0  0  0  0  0  0  0  0  0
  -25.6540  -12.3250   20.5270 C   0  0  0  0  0  0  0  0  0  0  0  0
  -27.1500  -13.5590   19.7000 N   0  0  0  0  0  0  0  0  0  0  0  0
  -26.8200  -12.2680   19.9030 N   0  0  0  0  0  0  0  0  0  0  0  0
  -24.9090  -11.0860   20.7110 C   0  0  0  0  0  0  0  0  0  0  0  0
  -25.3520  -10.0820   21.5990 C   0  0  0  0  0  3  0  0  0  0  0  0
  -24.6000   -8.9000   21.7620 C   0  0  0  0  0  3  0  0  0  0  0  0
  -23.3990   -8.7210   21.0370 C   0  0  0  0  0  0  0  0  0  0  0  0
  -22.9790   -9.7150   20.1350 C   0  0  0  0  0  3  0  0  0  0  0  0
  -23.7290  -10.8880   19.9700 C   0  0  0  0  0  3  0  0  0  0  0  0
  -22.6120   -7.6000   21.1140 O   0  0  0  0  0  0  0  0  0  0  0  0
  -22.3460   -6.9940   22.3140 C   0  0  0  0  0  0  0  0  0  0  0  0
  -21.7600   -7.6940   23.3910 C   0  0  0  0  0  3  0  0  0  0  0  0
  -21.4450   -7.0130   24.5830 C   0  0  0  0  0  3  0  0  0  0  0  0
  -21.7020   -5.6350   24.6960 C   0  0  0  0  0  0  0  0  0  0  0  0
  -22.2830   -4.9350   23.6230 C   0  0  0  0  0  3  0  0  0  0  0  0
  -22.6030   -5.6140   22.4340 C   0  0  0  0  0  0  0  0  0  0  0  0
  -23.1430   -4.9330   21.3950 F   0  0  0  0  0  0  0  0  0  0  0  0
  -21.3900   -4.9780   25.8370 F   0  0  0  0  0  0  0  0  0  0  0  0
  -24.0490  -14.1810   21.4690 C   0  0  0  0  0  0  0  0  0  0  0  0
  -23.4980  -13.4240   22.4080 N   0  0  0  0  0  0  0  0  0  0  0  0
  -23.5790  -15.2770   21.1640 O   0  0  0  0  0  0  0  0  0  0  0  0
  -23.9020  -12.5350   22.6660 H   0  0  0  0  0  0  0  0  0  0  0  0
  -22.6570  -13.7310   22.8730 H   0  0  0  0  0  0  0  0  0  0  0  0
  -26.5280  -15.8230   20.2810 N   0  0  0  0  0  0  0  0  0  0  0  0
  -25.7740  -16.4080   20.6210 H   0  0  0  0  0  0  0  0  0  0  0  0
  -26.9340  -16.2190   19.4410 H   0  0  0  0  0  0  0  0  0  0  0  0
  1  2  1  0
  5  4  1  0
  5  3  1  0
  6 28  1  0
  7  6  2  0
  8  6  1  0
  8  9  1  0
 10 21  2  0
 11  9  1  0
 11 16  1  0
 12 22  1  0
 12 20  1  0
 13 18  1  0
 13 19  1  0
 13 15  1  0
 14 20  1  0
 15 16  1  0
 15 14  1  0
 17 11  1  0
 18 17  1  0
 19 12  1  0
 20 10  1  0
 22 24  2  0
 22 23  1  0
 23 27  1  0
 25 23  1  0
 26 35  2  0
 26 31  1  0
 27 31  1  0
 28  5  1  0
 30 26  1  0
 31 32  2  0
 32 33  1  0
 34 33  2  0
 35 34  1  0
 36 10  1  0
 36 37  1  0
 36 46  1  0
 37 40  1  0
 38 37  1  0
 38 42  1  0
 39 38  2  0
 42 41  1  0
 42 44  1  0
 44 45  1  0
 44 43  1  0
 46 47  1  1
 46 49  1  0
 48 46  1  0
 50 51  1  0
 51 52  1  0
 54 57  1  0
 54 55  2  0
 55 53  1  0
 56 53  2  0
 56 51  1  0
 57 56  1  0
 58 64  1  0
 58 66  1  0
 59 64  1  0
 60 61  1  0
 60 59  1  0
 62 61  1  0
 62 71  1  0
 62 63  1  0
 64 63  1  0
 65 58  2  0
 66 55  1  0
 66 67  1  0
 68 69  2  0
 69 88  1  0
 70 73  1  0
 70 69  1  0
 71 72  1  0
 71 68  1  0
 72 70  2  0
 73 74  1  0
 74 75  2  0
 76 79  1  0
 76 75  1  0
 77 76  2  0
 78 77  1  0
 78 73  2  0
 79 80  1  0
 80 85  2  0
 80 81  1  0
 81 82  2  0
 82 83  1  0
 83 87  1  0
 84 83  2  0
 85 84  1  0
 86 85  1  0
 88 89  1  0
 89 91  1  0
 89 92  1  0
 90 88  2  0
 93 68  1  0
 93 94  1  0
 95 93  1  0
M  ISO  4   8 101   9 101  58 100  66 100
M  END
>  <TORSDO>  (35) 
F 22

>  <SCORE>  (35) 
1.266

>  <name>  (35) 
34

>  <ligand_id>  (35) 
34

>  <original_smiles>  (35) 
[H]c1oc(N([H])C([H])([H])C([H])(F)C(C(=O)C([H])([H])Oc2c([H])c([H])c3c(c2[H])C([H])([H])N(C(=O)C([H])(N([H])C(=O)C([H])(N([H])C([H])([H])[H])C([H])([H])[H])C(C([H])([H])[H])(C([H])([H])[H])C([H])([H])[H])C([H])(C(=O)N([H])C2([H])c4c([H])c([H])c([H])c([H])c4C([H])([H])C([H])([H])C2([H])[H])C3([H])[H])(C([H])([H])[H])C([H])([H])[H])c([H])c1N([H])C(=O)N1C([H])([H])C([H])([H])C([H])([H])C([H])(n2nc(-c3c([H])c([H])c(Oc4c([H])c([H])c(F)c([H])c4F)c([H])c3[H])c(C(=O)N([H])[H])c2N([H])[H])C1([H])[H]

>  <smiles>  (35) 
[H]c1oc(N([H])C([H])([H])C([H])(F)C(C(=O)C([H])([H])Oc2c([H])c([H])c3c(c2[H])C([H])([H])N(C(=O)C([H])(N([H])C(=O)C([H])(N([H])C([H])([H])[H])C([H])([H])[H])C(C([H])([H])[H])(C([H])([H])[H])C([H])([H])[H])C([H])(C(=O)N([H])C2([H])c4c([H])c([H])c([H])c([H])c4C([H])([H])C([H])([H])C2([H])[H])C3([H])[H])(C([H])([H])[H])C([H])([H])[H])c([H])c1N([H])C(=O)N1C([H])([H])C([H])([H])C([H])([H])C([H])(n2nc(-c3c([H])c([H])c(Oc4c([H])c([H])c(F)c([H])c4F)c([H])c3[H])c(C(=O)N([H])[H])c2N([H])[H])C1([H])[H]

$$$$
35:0:0
     RDKit          3D

 95104  0  0  1  0  0  0  0  0999 V2000
  -28.5160  -22.2240   19.4820 C   0  0  0  0  0  2  0  0  0  0  0  0
  -28.4090  -23.5590   20.3640 C   0  0  2  0  0  0  0  0  0  0  0  0
  -29.7130  -22.9130   21.0130 C   0  0  1  0  0  0  0  0  0  0  0  0
  -27.1460  -23.6030   21.2490 C   0  0  0  0  0  1  0  0  0  0  0  0
  -31.0460  -23.3460   20.3490 C   0  0  0  0  0  1  0  0  0  0  0  0
  -29.8480  -22.9950   22.5420 C   0  0  0  0  0  1  0  0  0  0  0  0
  -29.2140  -21.5490   20.5970 N   0  0  0  0  0  0  0  0  0  0  0  0
  -31.3330  -20.2430   20.9120 C   0  0  0  0  0  3  0  0  0  0  0  0
  -31.6630  -17.8220   20.8500 C   0  0  0  0  0  3  0  0  0  0  0  0
  -29.4990  -18.8180   20.3680 C   0  0  0  0  0  3  0  0  0  0  0  0
  -32.1650  -19.1170   21.0340 C   0  0  0  0  0  0  0  0  0  0  0  0
  -29.9580  -20.2160   20.5750 C   0  0  0  0  0  0  0  0  0  0  0  0
  -30.3190  -17.5880   20.4960 C   0  0  0  0  0  0  0  0  0  0  0  0
  -30.6190  -14.9400   20.2250 C   0  0  0  0  0  0  0  0  0  0  0  0
  -30.4200  -12.6310   19.2540 C   0  0  0  0  0  2  0  0  0  0  0  0
  -29.4570  -12.6040   18.0490 C   0  0  0  0  0  2  0  0  0  0  0  0
  -28.0020  -12.4040   18.5140 C   0  0  0  0  0  2  0  0  0  0  0  0
  -27.6250  -13.3250   19.7040 C   0  0  0  0  0  3  0  0  0  0  0  0
  -28.7050  -13.3490   20.8060 C   0  0  0  0  0  2  0  0  0  0  0  0
  -29.9720  -13.7190   20.1630 N   0  0  0  0  0  0  0  0  0  0  0  0
  -31.8190  -14.9560   19.9360 O   0  0  0  0  0  0  0  0  0  0  0  0
  -29.8840  -16.1420   20.3490 N   0  0  0  0  0  0  0  0  0  0  0  0
  -28.8840  -16.0020   20.3290 H   0  0  0  0  0  0  0  0  0  0  0  0
  -25.2620  -13.8870   20.5140 C   0  0  0  0  0  0  0  0  0  0  0  0
  -24.2100  -13.1060   20.8970 C   0  0  0  0  0  0  0  0  0  0  0  0
  -24.6770  -11.7560   20.8390 C   0  0  0  0  0  0  0  0  0  0  0  0
  -26.3020  -13.0180   20.2360 N   0  0  0  0  0  0  0  0  0  0  0  0
  -25.9620  -11.7300   20.5000 N   0  0  0  0  0  0  0  0  0  0  0  0
  -23.9600  -10.4900   21.0280 C   0  0  0  0  0  0  0  0  0  0  0  0
  -24.4010   -9.5190   21.9550 C   0  0  0  0  0  3  0  0  0  0  0  0
  -23.6800   -8.3180   22.1330 C   0  0  0  0  0  3  0  0  0  0  0  0
  -22.5040   -8.0780   21.3830 C   0  0  0  0  0  0  0  0  0  0  0  0
  -22.0810   -9.0380   20.4460 C   0  0  0  0  0  3  0  0  0  0  0  0
  -22.8020  -10.2300   20.2670 C   0  0  0  0  0  3  0  0  0  0  0  0
  -21.7540   -6.9310   21.4710 O   0  0  0  0  0  0  0  0  0  0  0  0
  -21.6990   -6.1930   22.6260 C   0  0  0  0  0  0  0  0  0  0  0  0
  -21.2360   -6.7450   23.8410 C   0  0  0  0  0  3  0  0  0  0  0  0
  -21.1310   -5.9320   24.9870 C   0  0  0  0  0  3  0  0  0  0  0  0
  -21.4760   -4.5690   24.9210 C   0  0  0  0  0  0  0  0  0  0  0  0
  -21.9310   -4.0160   23.7090 C   0  0  0  0  0  3  0  0  0  0  0  0
  -22.0380   -4.8260   22.5650 C   0  0  0  0  0  0  0  0  0  0  0  0
  -22.4570   -4.2840   21.3960 F   0  0  0  0  0  0  0  0  0  0  0  0
  -21.3670   -3.7870   26.0190 F   0  0  0  0  0  0  0  0  0  0  0  0
  -22.8170  -13.5740   21.2020 C   0  0  0  0  0  0  0  0  0  0  0  0
  -22.1050  -12.8630   22.0690 N   0  0  0  0  0  0  0  0  0  0  0  0
  -22.3680  -14.6070   20.7040 O   0  0  0  0  0  0  0  0  0  0  0  0
  -22.4820  -12.0270   22.4920 H   0  0  0  0  0  0  0  0  0  0  0  0
  -21.1720  -13.1590   22.3150 H   0  0  0  0  0  0  0  0  0  0  0  0
  -25.4130  -15.2630   20.3480 N   0  0  0  0  0  0  0  0  0  0  0  0
  -24.6360  -15.9030   20.4820 H   0  0  0  0  0  0  0  0  0  0  0  0
  -26.2350  -15.7160   19.9730 H   0  0  0  0  0  0  0  0  0  0  0  0
  -34.4660  -19.3850   20.0620 C   0  0  0  0  0  1  0  0  0  0  0  0
  -33.6380  -19.3140   21.3490 C   0  0  0  0  0  2  0  0  0  0  0  0
  -28.4070  -25.0430   19.6340 C   0  0  0  0  0  2  0  0  0  0  0  0
  -28.2930  -26.4060   20.2940 O   0  0  0  0  0  0  0  0  0  0  0  0
  -24.5740  -31.9090   23.2350 C   0  0  0  0  0  0  0  0  0  0  0  0
  -27.1820  -27.2880   20.1910 C   0  0  0  0  0  0  0  0  0  0  0  0
  -23.3700  -30.5100   21.5910 C   0  0  0  0  0  3  0  0  0  0  0  0
  -24.8250  -28.9590   20.1530 C   0  0  0  0  0  0  0  0  0  0  0  0
  -25.9130  -30.8120   21.4190 C   0  0  0  0  0  2  0  0  0  0  0  0
  -25.9930  -29.4290   20.7670 C   0  0  0  0  0  0  0  0  0  0  0  0
  -27.1670  -28.6030   20.7820 C   0  0  0  0  0  3  0  0  0  0  0  0
  -25.9850  -26.8880   19.5540 C   0  0  0  0  0  3  0  0  0  0  0  0
  -24.8290  -27.6970   19.5340 C   0  0  0  0  0  3  0  0  0  0  0  0
  -23.5900  -29.8440   20.2040 C   0  0  0  0  0  2  0  0  0  0  0  0
  -24.6360  -31.0970   22.1370 N   0  0  0  0  0  0  0  0  0  0  0  0
  -23.4910  -32.1930   23.7680 O   0  0  0  0  0  0  0  0  0  0  0  0
  -22.7100  -29.4920   22.5500 C   0  0  0  0  0  0  0  0  0  0  0  0
  -21.3820  -29.3170   22.4310 N   0  0  0  0  0  0  0  0  0  0  0  0
  -23.3900  -28.8650   23.3670 O   0  0  0  0  0  0  0  0  0  0  0  0
  -20.8870  -29.8740   21.7490 H   0  0  0  0  0  0  0  0  0  0  0  0
  -18.0060  -28.1320   22.9420 C   0  0  0  0  0  0  0  0  0  0  0  0
  -20.5660  -28.3790   23.2020 C   0  0  0  0  0  3  0  0  0  0  0  0
  -20.6600  -26.9490   22.6180 C   0  0  0  0  0  2  0  0  0  0  0  0
  -19.5530  -26.6390   21.6060 C   0  0  0  0  0  2  0  0  0  0  0  0
  -18.1750  -26.7870   22.2560 C   0  0  0  0  0  2  0  0  0  0  0  0
  -19.1290  -28.8870   23.3720 C   0  0  0  0  0  0  0  0  0  0  0  0
  -18.9180  -30.1470   23.9720 C   0  0  0  0  0  3  0  0  0  0  0  0
  -17.6160  -30.6530   24.1460 C   0  0  0  0  0  3  0  0  0  0  0  0
  -16.5070  -29.8930   23.7360 C   0  0  0  0  0  3  0  0  0  0  0  0
  -16.7030  -28.6350   23.1390 C   0  0  0  0  0  3  0  0  0  0  0  0
  -25.8590  -32.5390   23.8560 C   0  0  0  0  0  3  0  0  0  0  0  0
  -26.3780  -31.7680   25.1330 C   0  0  1  0  0  0  0  0  0  0  0  0
  -25.2830  -31.5300   26.1980 C   0  0  0  0  0  1  0  0  0  0  0  0
  -26.9680  -30.3930   24.7440 C   0  0  0  0  0  1  0  0  0  0  0  0
  -27.5260  -32.5660   25.7980 C   0  0  0  0  0  1  0  0  0  0  0  0
  -25.5530  -33.9390   24.1890 N   0  0  0  0  0  0  0  0  0  0  0  0
  -25.8750  -34.9940   23.4290 C   0  0  0  0  0  0  0  0  0  0  0  0
  -26.5370  -34.8940   22.3930 O   0  0  0  0  0  0  0  0  0  0  0  0
  -24.9630  -34.0910   24.9940 H   0  0  0  0  0  0  0  0  0  0  0  0
  -24.1440  -36.7880   23.0970 C   0  0  0  0  0  1  0  0  0  0  0  0
  -25.3900  -36.3790   23.8950 C   0  0  0  0  0  3  0  0  0  0  0  0
  -27.5240  -37.2730   24.7200 C   0  0  0  0  0  1  0  0  0  0  0  0
  -26.4210  -37.4340   23.7770 N   0  0  0  0  0  0  0  0  0  0  0  0
  -26.0110  -38.3520   23.9260 H   0  0  0  0  0  0  0  0  0  0  0  0
  1  2  1  0
  1  7  1  0
  2  3  1  0
  2  4  1  1
  3  6  1  1
  5  3  1  0
  7  3  1  0
  8 11  1  0
  9 11  2  0
 10 13  2  0
 10 12  1  0
 11 53  1  0
 12  7  1  0
 12  8  2  0
 13  9  1  0
 14 22  1  0
 15 20  1  0
 16 17  1  0
 16 15  1  0
 18 17  1  0
 18 27  1  0
 18 19  1  0
 20 14  1  0
 20 19  1  0
 21 14  2  0
 22 13  1  0
 23 22  1  0
 24 25  2  0
 25 44  1  0
 26 25  1  0
 26 29  1  0
 27 28  1  0
 27 24  1  0
 28 26  2  0
 29 30  1  0
 30 31  2  0
 32 35  1  0
 32 31  1  0
 33 32  2  0
 34 33  1  0
 34 29  2  0
 35 36  1  0
 36 37  1  0
 37 38  2  0
 39 38  1  0
 39 43  1  0
 40 39  2  0
 41 36  2  0
 41 40  1  0
 42 41  1  0
 44 45  1  0
 45 48  1  0
 45 47  1  0
 46 44  2  0
 49 50  1  0
 49 24  1  0
 51 49  1  0
 52 53  1  0
 54 55  1  0
 54  2  1  0
 56 67  2  0
 57 55  1  0
 57 62  1  0
 58 66  1  0
 58 68  1  0
 59 65  1  0
 59 61  1  0
 60 66  1  0
 61 62  2  0
 61 60  1  0
 63 57  2  0
 64 63  1  0
 64 59  2  0
 65 58  1  0
 66 56  1  0
 68 70  2  0
 69 68  1  0
 71 69  1  0
 72 81  2  0
 72 77  1  0
 73 69  1  0
 73 77  1  0
 74 73  1  0
 75 76  1  0
 75 74  1  0
 76 72  1  0
 77 78  2  0
 78 79  1  0
 80 79  2  0
 81 80  1  0
 82 56  1  0
 82 87  1  0
 82 83  1  0
 83 86  1  1
 83 84  1  0
 85 83  1  0
 87 90  1  0
 88 92  1  0
 88 87  1  0
 89 88  2  0
 92 91  1  0
 94 92  1  0
 94 95  1  0
 94 93  1  0
M  ISO  4  14 100  22 100  54 101  55 101
M  END
>  <TORSDO>  (36) 
F 19

>  <SCORE>  (36) 
-14.882

>  <name>  (36) 
35

>  <ligand_id>  (36) 
35

>  <original_smiles>  (36) 
[H]c1c([H])c([H])c2c(c1[H])C([H])([H])C([H])([H])C([H])([H])C2([H])N([H])C(=O)C1([H])N(C(=O)C([H])(N([H])C(=O)C([H])(N([H])C([H])([H])[H])C([H])([H])[H])C(C([H])([H])[H])(C([H])([H])[H])C([H])([H])[H])C([H])([H])c2c([H])c(OC([H])([H])C3(C([H])([H])[H])C([H])([H])N(c4c([H])c(N([H])C(=O)N5C([H])([H])C([H])([H])C([H])([H])C([H])(n6nc(-c7c([H])c([H])c(Oc8c([H])c([H])c(F)c([H])c8F)c([H])c7[H])c(C(=O)N([H])[H])c6N([H])[H])C5([H])[H])c([H])c(C([H])([H])C([H])([H])[H])c4[H])C3(C([H])([H])[H])C([H])([H])[H])c([H])c([H])c2C1([H])[H]

>  <smiles>  (36) 
[H]c1c([H])c([H])c2c(c1[H])C([H])([H])C([H])([H])C([H])([H])C2([H])N([H])C(=O)C1([H])N(C(=O)C([H])(N([H])C(=O)C([H])(N([H])C([H])([H])[H])C([H])([H])[H])C(C([H])([H])[H])(C([H])([H])[H])C([H])([H])[H])C([H])([H])c2c([H])c(OC([H])([H])C3(C([H])([H])[H])C([H])([H])N(c4c([H])c(N([H])C(=O)N5C([H])([H])C([H])([H])C([H])([H])C([H])(n6nc(-c7c([H])c([H])c(Oc8c([H])c([H])c(F)c([H])c8F)c([H])c7[H])c(C(=O)N([H])[H])c6N([H])[H])C5([H])[H])c([H])c(C([H])([H])C([H])([H])[H])c4[H])C3(C([H])([H])[H])C([H])([H])[H])c([H])c([H])c2C1([H])[H]

$$$$
36:0:0
     RDKit          3D

103112  0  0  1  0  0  0  0  0999 V2000
  -28.6280  -21.0970   20.1930 C   0  0  0  0  0  0  0  0  0  0  0  0
  -28.2670  -19.8860   19.7440 N   0  0  0  0  0  0  0  0  0  0  0  0
  -29.7970  -21.4020   20.4360 O   0  0  0  0  0  0  0  0  0  0  0  0
  -27.2900  -19.6370   19.7900 H   0  0  0  0  0  0  0  0  0  0  0  0
  -30.7090  -17.0950   17.7090 C   0  0  0  0  0  3  0  0  0  0  0  0
  -30.2880  -18.2680   17.0690 C   0  0  0  0  0  3  0  0  0  0  0  0
  -29.5590  -17.7750   19.7680 C   0  0  0  0  0  0  0  0  0  0  0  0
  -30.3350  -16.8200   19.0480 C   0  0  0  0  0  0  0  0  0  0  0  0
  -29.1320  -18.9600   19.1040 C   0  0  0  0  0  0  0  0  0  0  0  0
  -29.4880  -19.1890   17.7520 C   0  0  0  0  0  0  0  0  0  0  0  0
  -29.0350  -20.2730   17.0800 F   0  0  0  0  0  0  0  0  0  0  0  0
  -31.3190  -14.5430   19.1520 C   0  0  0  0  0  0  0  0  0  0  0  0
  -30.9180  -12.2780   18.3100 C   0  0  0  0  0  2  0  0  0  0  0  0
  -29.7750  -12.3590   17.2790 C   0  0  0  0  0  2  0  0  0  0  0  0
  -28.4000  -12.2470   17.9680 C   0  0  0  0  0  2  0  0  0  0  0  0
  -28.2630  -13.1890   19.1940 C   0  0  0  0  0  3  0  0  0  0  0  0
  -29.5020  -13.0840   20.1110 C   0  0  0  0  0  2  0  0  0  0  0  0
  -30.7010  -13.3430   19.2940 N   0  0  0  0  0  0  0  0  0  0  0  0
  -32.3480  -14.6970   18.4860 O   0  0  0  0  0  0  0  0  0  0  0  0
  -30.6460  -15.5760   19.6800 N   0  0  0  0  0  0  0  0  0  0  0  0
  -29.9950  -15.3040   20.3980 H   0  0  0  0  0  0  0  0  0  0  0  0
  -26.1810  -13.8280   20.5680 C   0  0  0  0  0  0  0  0  0  0  0  0
  -25.1430  -13.0830   21.0540 C   0  0  0  0  0  0  0  0  0  0  0  0
  -25.4090  -11.7350   20.6640 C   0  0  0  0  0  0  0  0  0  0  0  0
  -27.0290  -12.9330   19.9330 N   0  0  0  0  0  0  0  0  0  0  0  0
  -26.5750  -11.6570   20.0370 N   0  0  0  0  0  0  0  0  0  0  0  0
  -24.5900  -10.5240   20.7950 C   0  0  0  0  0  0  0  0  0  0  0  0
  -24.9410   -9.4890   21.6890 C   0  0  0  0  0  3  0  0  0  0  0  0
  -24.1290   -8.3420   21.8110 C   0  0  0  0  0  3  0  0  0  0  0  0
  -22.9490   -8.2240   21.0360 C   0  0  0  0  0  0  0  0  0  0  0  0
  -22.6190   -9.2470   20.1300 C   0  0  0  0  0  3  0  0  0  0  0  0
  -23.4320  -10.3840   20.0060 C   0  0  0  0  0  3  0  0  0  0  0  0
  -22.1100   -7.1360   21.0700 O   0  0  0  0  0  0  0  0  0  0  0  0
  -21.7620   -6.5330   22.2520 C   0  0  0  0  0  0  0  0  0  0  0  0
  -21.1550   -7.2490   23.3050 C   0  0  0  0  0  3  0  0  0  0  0  0
  -20.7510   -6.5740   24.4750 C   0  0  0  0  0  3  0  0  0  0  0  0
  -20.9440   -5.1860   24.5890 C   0  0  0  0  0  0  0  0  0  0  0  0
  -21.5420   -4.4690   23.5380 C   0  0  0  0  0  3  0  0  0  0  0  0
  -21.9490   -5.1410   22.3720 C   0  0  0  0  0  0  0  0  0  0  0  0
  -22.5070   -4.4410   21.3540 F   0  0  0  0  0  0  0  0  0  0  0  0
  -20.5470   -4.5370   25.7090 F   0  0  0  0  0  0  0  0  0  0  0  0
  -23.9220  -13.6030   21.7550 C   0  0  0  0  0  0  0  0  0  0  0  0
  -23.3650  -12.8240   22.6740 N   0  0  0  0  0  0  0  0  0  0  0  0
  -23.4820  -14.7290   21.5220 O   0  0  0  0  0  0  0  0  0  0  0  0
  -23.7410  -11.9080   22.8750 H   0  0  0  0  0  0  0  0  0  0  0  0
  -22.5510  -13.1440   23.1780 H   0  0  0  0  0  0  0  0  0  0  0  0
  -26.4600  -15.1910   20.5940 N   0  0  0  0  0  0  0  0  0  0  0  0
  -25.7890  -15.8570   20.9610 H   0  0  0  0  0  0  0  0  0  0  0  0
  -27.2090  -15.6310   20.0790 H   0  0  0  0  0  0  0  0  0  0  0  0
  -29.8480  -18.2070   22.3710 C   0  0  0  0  0  2  0  0  0  0  0  0
  -30.0760  -16.7340   22.1390 C   0  0  0  0  0  2  0  0  0  0  0  0
  -29.1700  -17.5150   21.2080 C   0  0  0  0  0  3  0  0  0  0  0  0
  -27.4970  -22.0970   20.4710 C   0  0  0  0  0  2  0  0  0  0  0  0
  -27.3600  -22.7160   17.9970 C   0  0  0  0  0  1  0  0  0  0  0  0
  -26.0340  -23.9940   19.6710 C   0  0  0  0  0  1  0  0  0  0  0  0
  -27.3820  -23.2710   19.4460 C   0  0  1  0  0  0  0  0  0  0  0  0
  -28.5440  -24.2960   19.5970 C   0  0  0  0  0  0  0  0  0  0  0  0
  -29.3130  -24.5170   18.6570 O   0  0  0  0  0  0  0  0  0  0  0  0
  -28.6380  -25.0850   20.9180 C   0  0  0  0  0  2  0  0  0  0  0  0
  -29.5950  -26.8520   22.4360 C   0  0  0  0  0  1  0  0  0  0  0  0
  -31.0980  -25.8310   20.7450 C   0  0  0  0  0  1  0  0  0  0  0  0
  -29.6420  -26.2780   21.0030 C   0  0  1  0  0  0  0  0  0  0  0  0
  -29.3750  -27.3380   20.0590 O   0  0  0  0  0  0  0  0  0  0  0  0
  -24.7110  -31.7060   23.1850 C   0  0  0  0  0  0  0  0  0  0  0  0
  -28.1140  -27.8900   20.0500 C   0  0  0  0  0  0  0  0  0  0  0  0
  -23.7990  -30.2380   21.4140 C   0  0  0  0  0  3  0  0  0  0  0  0
  -25.5270  -29.0140   19.9980 C   0  0  0  0  0  0  0  0  0  0  0  0
  -26.2470  -30.9730   21.3730 C   0  0  0  0  0  2  0  0  0  0  0  0
  -26.5640  -29.6690   20.6770 C   0  0  0  0  0  0  0  0  0  0  0  0
  -27.8600  -29.1130   20.7070 C   0  0  0  0  0  3  0  0  0  0  0  0
  -27.0710  -27.2640   19.3370 C   0  0  0  0  0  3  0  0  0  0  0  0
  -25.7750  -27.8060   19.3270 C   0  0  0  0  0  3  0  0  0  0  0  0
  -24.1680  -29.6740   20.0170 C   0  0  0  0  0  2  0  0  0  0  0  0
  -24.9310  -30.9860   22.0490 N   0  0  0  0  0  0  0  0  0  0  0  0
  -23.5790  -31.7880   23.6810 O   0  0  0  0  0  0  0  0  0  0  0  0
  -23.2640  -29.0790   22.2880 C   0  0  0  0  0  0  0  0  0  0  0  0
  -21.9930  -28.7060   22.0720 N   0  0  0  0  0  0  0  0  0  0  0  0
  -23.9930  -28.5240   23.1160 O   0  0  0  0  0  0  0  0  0  0  0  0
  -21.4630  -29.2180   21.3820 H   0  0  0  0  0  0  0  0  0  0  0  0
  -18.8150  -27.0110   22.3240 C   0  0  0  0  0  0  0  0  0  0  0  0
  -21.2890  -27.6170   22.7490 C   0  0  0  0  0  3  0  0  0  0  0  0
  -21.6290  -26.2530   22.1070 C   0  0  0  0  0  2  0  0  0  0  0  0
  -20.6350  -25.8310   21.0200 C   0  0  0  0  0  2  0  0  0  0  0  0
  -19.2170  -25.7410   21.5940 C   0  0  0  0  0  2  0  0  0  0  0  0
  -19.7880  -27.9010   22.8510 C   0  0  0  0  0  0  0  0  0  0  0  0
  -19.3590  -29.0860   23.4880 C   0  0  0  0  0  3  0  0  0  0  0  0
  -17.9890  -29.3850   23.6080 C   0  0  0  0  0  3  0  0  0  0  0  0
  -17.0300  -28.4920   23.1010 C   0  0  0  0  0  3  0  0  0  0  0  0
  -17.4420  -27.3070   22.4630 C   0  0  0  0  0  3  0  0  0  0  0  0
  -25.8640  -32.4820   23.8990 C   0  0  0  0  0  3  0  0  0  0  0  0
  -26.3580  -31.7770   25.2230 C   0  0  1  0  0  0  0  0  0  0  0  0
  -25.2130  -31.4130   26.1950 C   0  0  0  0  0  1  0  0  0  0  0  0
  -27.1330  -30.4790   24.8940 C   0  0  0  0  0  1  0  0  0  0  0  0
  -27.3430  -32.7050   25.9740 C   0  0  0  0  0  1  0  0  0  0  0  0
  -25.3780  -33.8390   24.1840 N   0  0  0  0  0  0  0  0  0  0  0  0
  -25.6520  -34.9170   23.4360 C   0  0  0  0  0  0  0  0  0  0  0  0
  -26.4110  -34.8810   22.4630 O   0  0  0  0  0  0  0  0  0  0  0  0
  -24.7130  -33.9350   24.9370 H   0  0  0  0  0  0  0  0  0  0  0  0
  -23.7690  -36.4950   22.9070 C   0  0  0  0  0  1  0  0  0  0  0  0
  -24.9740  -36.2440   23.8280 C   0  0  0  0  0  3  0  0  0  0  0  0
  -26.9120  -37.3680   24.8310 C   0  0  0  0  0  1  0  0  0  0  0  0
  -25.8850  -37.4070   23.7920 N   0  0  0  0  0  0  0  0  0  0  0  0
  -25.3660  -38.2740   23.8930 H   0  0  0  0  0  0  0  0  0  0  0  0
  1  3  2  0
  1 53  1  0
  2  4  1  0
  2  1  1  0
  5  8  1  0
  6  5  2  0
  6 10  1  0
  7 52  1  0
  8 20  1  0
  8  7  2  0
  9  2  1  0
  9  7  1  0
 10  9  2  0
 11 10  1  0
 12 18  1  0
 12 20  1  0
 13 18  1  0
 14 15  1  0
 14 13  1  0
 16 15  1  0
 16 25  1  0
 16 17  1  0
 18 17  1  0
 19 12  2  0
 20 21  1  0
 22 47  1  0
 22 23  2  0
 23 42  1  0
 24 27  1  0
 24 23  1  0
 25 26  1  0
 25 22  1  0
 26 24  2  0
 27 28  1  0
 28 29  2  0
 30 33  1  0
 30 29  1  0
 31 30  2  0
 32 31  1  0
 32 27  2  0
 33 34  1  0
 34 39  2  0
 34 35  1  0
 35 36  2  0
 36 37  1  0
 37 41  1  0
 38 37  2  0
 39 38  1  0
 40 39  1  0
 42 43  1  0
 43 45  1  0
 43 46  1  0
 44 42  2  0
 47 48  1  0
 49 47  1  0
 51 50  1  0
 52 51  1  0
 52 50  1  0
 56 54  1  6
 56 57  1  0
 56 55  1  0
 56 53  1  0
 57 59  1  0
 58 57  2  0
 59 62  1  0
 62 61  1  6
 62 60  1  0
 63 62  1  0
 64 75  2  0
 65 63  1  0
 65 70  1  0
 66 74  1  0
 66 76  1  0
 67 73  1  0
 67 69  1  0
 68 74  1  0
 69 70  2  0
 69 68  1  0
 71 65  2  0
 72 71  1  0
 72 67  2  0
 73 66  1  0
 74 64  1  0
 76 78  2  0
 77 76  1  0
 79 77  1  0
 80 89  2  0
 80 85  1  0
 81 77  1  0
 81 85  1  0
 82 81  1  0
 83 84  1  0
 83 82  1  0
 84 80  1  0
 85 86  2  0
 86 87  1  0
 88 87  2  0
 89 88  1  0
 90 64  1  0
 90 95  1  0
 90 91  1  0
 91 94  1  1
 91 92  1  0
 93 91  1  0
 95 98  1  0
 96100  1  0
 96 95  1  0
 97 96  2  0
100 99  1  0
102100  1  0
102103  1  0
102101  1  0
M  ISO  4  12 100  20 100  62 101  63 101
M  END
>  <TORSDO>  (37) 
F 23

>  <SCORE>  (37) 
-8.388

>  <name>  (37) 
36

>  <ligand_id>  (37) 
36

>  <original_smiles>  (37) 
[H]c1c([H])c([H])c2c(c1[H])C([H])([H])C([H])([H])C([H])([H])C2([H])N([H])C(=O)C1([H])N(C(=O)C([H])(N([H])C(=O)C([H])(N([H])C([H])([H])[H])C([H])([H])[H])C(C([H])([H])[H])(C([H])([H])[H])C([H])([H])[H])C([H])([H])c2c([H])c(OC(C([H])([H])[H])(C([H])([H])[H])C([H])([H])C(=O)C(C([H])([H])[H])(C([H])([H])[H])C([H])([H])C(=O)N([H])c3c(F)c([H])c([H])c(N([H])C(=O)N4C([H])([H])C([H])([H])C([H])([H])C([H])(n5nc(-c6c([H])c([H])c(Oc7c([H])c([H])c(F)c([H])c7F)c([H])c6[H])c(C(=O)N([H])[H])c5N([H])[H])C4([H])[H])c3C3([H])C([H])([H])C3([H])[H])c([H])c([H])c2C1([H])[H]

>  <smiles>  (37) 
[H]c1c([H])c([H])c2c(c1[H])C([H])([H])C([H])([H])C([H])([H])C2([H])N([H])C(=O)C1([H])N(C(=O)C([H])(N([H])C(=O)C([H])(N([H])C([H])([H])[H])C([H])([H])[H])C(C([H])([H])[H])(C([H])([H])[H])C([H])([H])[H])C([H])([H])c2c([H])c(OC(C([H])([H])[H])(C([H])([H])[H])C([H])([H])C(=O)C(C([H])([H])[H])(C([H])([H])[H])C([H])([H])C(=O)N([H])c3c(F)c([H])c([H])c(N([H])C(=O)N4C([H])([H])C([H])([H])C([H])([H])C([H])(n5nc(-c6c([H])c([H])c(Oc7c([H])c([H])c(F)c([H])c7F)c([H])c6[H])c(C(=O)N([H])[H])c5N([H])[H])C4([H])[H])c3C3([H])C([H])([H])C3([H])[H])c([H])c([H])c2C1([H])[H]

$$$$
37:0:0
     RDKit          3D

 97106  0  0  1  0  0  0  0  0999 V2000
  -28.8590  -24.4440   19.4960 C   0  0  0  0  0  0  0  0  0  0  0  0
  -29.7920  -20.9360   18.7180 C   0  0  0  0  0  3  0  0  0  0  0  0
  -28.6600  -25.7520   19.1970 C   0  0  0  0  0  3  0  0  0  0  0  0
  -28.7640  -23.8170   20.8690 C   0  0  0  0  0  3  0  0  0  0  0  0
  -29.2220  -23.3700   18.4890 C   0  0  0  0  0  3  0  0  0  0  0  0
  -28.9980  -22.3040   20.6790 C   0  0  0  0  0  3  0  0  0  0  0  0
  -28.7960  -26.3430   17.8040 C   0  0  0  0  0  1  0  0  0  0  0  0
  -29.3540  -22.1050   19.2590 N   0  0  0  0  0  0  0  0  0  0  0  0
  -30.1560  -20.9450   17.4370 N   0  0  0  0  0  0  0  0  0  0  0  0
  -30.4390  -20.0760   17.0070 H   0  0  0  0  0  0  0  0  0  0  0  0
  -30.1210  -21.7720   16.8670 H   0  0  0  0  0  0  0  0  0  0  0  0
  -31.1390  -18.9420   19.3890 C   0  0  0  0  0  3  0  0  0  0  0  0
  -31.2340  -17.6070   19.8440 C   0  0  0  0  0  3  0  0  0  0  0  0
  -28.7810  -18.9860   19.9620 C   0  0  0  0  0  3  0  0  0  0  0  0
  -29.9070  -19.6370   19.4130 C   0  0  0  0  0  0  0  0  0  0  0  0
  -30.0850  -16.9210   20.3140 C   0  0  0  0  0  0  0  0  0  0  0  0
  -28.8700  -17.6430   20.3970 C   0  0  0  0  0  0  0  0  0  0  0  0
  -27.7610  -17.0120   20.8510 F   0  0  0  0  0  0  0  0  0  0  0  0
  -30.7380  -14.5120   20.1250 C   0  0  0  0  0  0  0  0  0  0  0  0
  -30.3650  -12.3770   18.9520 C   0  0  0  0  0  2  0  0  0  0  0  0
  -29.3670  -12.6350   17.8030 C   0  0  0  0  0  2  0  0  0  0  0  0
  -27.9150  -12.4970   18.3030 C   0  0  0  0  0  2  0  0  0  0  0  0
  -27.6510  -13.2960   19.6070 C   0  0  0  0  0  3  0  0  0  0  0  0
  -28.7600  -13.0320   20.6530 C   0  0  0  0  0  2  0  0  0  0  0  0
  -30.0580  -13.3350   20.0270 N   0  0  0  0  0  0  0  0  0  0  0  0
  -31.8560  -14.6650   19.6260 O   0  0  0  0  0  0  0  0  0  0  0  0
  -30.0540  -15.5320   20.6810 N   0  0  0  0  0  0  0  0  0  0  0  0
  -29.1940  -15.2570   21.1290 H   0  0  0  0  0  0  0  0  0  0  0  0
  -25.2890  -13.8990   20.4330 C   0  0  0  0  0  0  0  0  0  0  0  0
  -24.2350  -13.1220   20.8340 C   0  0  0  0  0  0  0  0  0  0  0  0
  -24.6900  -11.7710   20.7620 C   0  0  0  0  0  0  0  0  0  0  0  0
  -26.3200  -13.0190   20.1440 N   0  0  0  0  0  0  0  0  0  0  0  0
  -25.9650  -11.7320   20.3970 N   0  0  0  0  0  0  0  0  0  0  0  0
  -23.9690  -10.5070   20.9670 C   0  0  0  0  0  0  0  0  0  0  0  0
  -24.4210   -9.5380   21.8890 C   0  0  0  0  0  3  0  0  0  0  0  0
  -23.6980   -8.3410   22.0820 C   0  0  0  0  0  3  0  0  0  0  0  0
  -22.5100   -8.1040   21.3500 C   0  0  0  0  0  0  0  0  0  0  0  0
  -22.0780   -9.0620   20.4160 C   0  0  0  0  0  3  0  0  0  0  0  0
  -22.8010  -10.2500   20.2220 C   0  0  0  0  0  3  0  0  0  0  0  0
  -21.7570   -6.9590   21.4520 O   0  0  0  0  0  0  0  0  0  0  0  0
  -21.7100   -6.2290   22.6120 C   0  0  0  0  0  0  0  0  0  0  0  0
  -21.2670   -6.7920   23.8290 C   0  0  0  0  0  3  0  0  0  0  0  0
  -21.1680   -5.9870   24.9820 C   0  0  0  0  0  3  0  0  0  0  0  0
  -21.5020   -4.6210   24.9180 C   0  0  0  0  0  0  0  0  0  0  0  0
  -21.9380   -4.0580   23.7060 C   0  0  0  0  0  3  0  0  0  0  0  0
  -22.0380   -4.8590   22.5560 C   0  0  0  0  0  0  0  0  0  0  0  0
  -22.4390   -4.3070   21.3860 F   0  0  0  0  0  0  0  0  0  0  0  0
  -21.4010   -3.8460   26.0230 F   0  0  0  0  0  0  0  0  0  0  0  0
  -22.8540  -13.5990   21.1810 C   0  0  0  0  0  0  0  0  0  0  0  0
  -22.1660  -12.8880   22.0680 N   0  0  0  0  0  0  0  0  0  0  0  0
  -22.3960  -14.6350   20.7010 O   0  0  0  0  0  0  0  0  0  0  0  0
  -22.5530  -12.0500   22.4750 H   0  0  0  0  0  0  0  0  0  0  0  0
  -21.2420  -13.1850   22.3450 H   0  0  0  0  0  0  0  0  0  0  0  0
  -25.4490  -15.2710   20.2800 N   0  0  0  0  0  0  0  0  0  0  0  0
  -24.6960  -15.9230   20.4700 H   0  0  0  0  0  0  0  0  0  0  0  0
  -26.3270  -15.7350   20.0730 H   0  0  0  0  0  0  0  0  0  0  0  0
  -28.3770  -26.6880   20.1690 O   0  0  0  0  0  0  0  0  0  0  0  0
  -24.5280  -31.8710   23.1830 C   0  0  0  0  0  0  0  0  0  0  0  0
  -27.2060  -27.4260   20.1180 C   0  0  0  0  0  0  0  0  0  0  0  0
  -23.3340  -30.4580   21.5430 C   0  0  0  0  0  3  0  0  0  0  0  0
  -24.7990  -28.9220   20.1250 C   0  0  0  0  0  0  0  0  0  0  0  0
  -25.8590  -30.8260   21.3500 C   0  0  0  0  0  2  0  0  0  0  0  0
  -25.9540  -29.4540   20.7140 C   0  0  0  0  0  0  0  0  0  0  0  0
  -27.1580  -28.7110   20.7100 C   0  0  0  0  0  3  0  0  0  0  0  0
  -26.0260  -26.9030   19.5410 C   0  0  0  0  0  3  0  0  0  0  0  0
  -24.8310  -27.6460   19.5370 C   0  0  0  0  0  3  0  0  0  0  0  0
  -23.5520  -29.7730   20.1660 C   0  0  0  0  0  2  0  0  0  0  0  0
  -24.5920  -31.0670   22.0840 N   0  0  0  0  0  0  0  0  0  0  0  0
  -23.4440  -32.1400   23.7190 O   0  0  0  0  0  0  0  0  0  0  0  0
  -22.6850  -29.4360   22.5050 C   0  0  0  0  0  0  0  0  0  0  0  0
  -21.3580  -29.2640   22.3870 N   0  0  0  0  0  0  0  0  0  0  0  0
  -23.3710  -28.8040   23.3110 O   0  0  0  0  0  0  0  0  0  0  0  0
  -20.8660  -29.8270   21.7070 H   0  0  0  0  0  0  0  0  0  0  0  0
  -17.9760  -28.1100   22.9270 C   0  0  0  0  0  0  0  0  0  0  0  0
  -20.5410  -28.3280   23.1600 C   0  0  0  0  0  3  0  0  0  0  0  0
  -20.6140  -26.9030   22.5650 C   0  0  0  0  0  2  0  0  0  0  0  0
  -19.4910  -26.6090   21.5650 C   0  0  0  0  0  2  0  0  0  0  0  0
  -18.1220  -26.7660   22.2330 C   0  0  0  0  0  2  0  0  0  0  0  0
  -19.1130  -28.8510   23.3470 C   0  0  0  0  0  0  0  0  0  0  0  0
  -18.9230  -30.1110   23.9550 C   0  0  0  0  0  3  0  0  0  0  0  0
  -17.6280  -30.6300   24.1480 C   0  0  0  0  0  3  0  0  0  0  0  0
  -16.5060  -29.8850   23.7430 C   0  0  0  0  0  3  0  0  0  0  0  0
  -16.6810  -28.6280   23.1390 C   0  0  0  0  0  3  0  0  0  0  0  0
  -25.8090  -32.5100   23.8050 C   0  0  0  0  0  3  0  0  0  0  0  0
  -25.4890  -33.9030   24.1420 N   0  0  0  0  0  0  0  0  0  0  0  0
  -25.8190  -34.9630   23.3900 C   0  0  0  0  0  0  0  0  0  0  0  0
  -26.4950  -34.8700   22.3630 O   0  0  0  0  0  0  0  0  0  0  0  0
  -24.8870  -34.0490   24.9390 H   0  0  0  0  0  0  0  0  0  0  0  0
  -24.0870  -36.7500   23.0270 C   0  0  0  0  0  1  0  0  0  0  0  0
  -25.3180  -36.3450   23.8540 C   0  0  0  0  0  3  0  0  0  0  0  0
  -27.4340  -37.2320   24.7260 C   0  0  0  0  0  1  0  0  0  0  0  0
  -26.3470  -37.4030   23.7660 N   0  0  0  0  0  0  0  0  0  0  0  0
  -25.9340  -38.3200   23.9150 H   0  0  0  0  0  0  0  0  0  0  0  0
  -26.3380  -31.7340   25.0750 C   0  0  1  0  0  0  0  0  0  0  0  0
  -25.2490  -31.4760   26.1420 C   0  0  0  0  0  1  0  0  0  0  0  0
  -26.9340  -30.3670   24.6690 C   0  0  0  0  0  1  0  0  0  0  0  0
  -27.4800  -32.5370   25.7400 C   0  0  0  0  0  1  0  0  0  0  0  0
  1  4  1  0
  2  9  1  0
  2  8  1  0
  2 15  1  0
  3  7  1  0
  3  1  1  0
  3 57  1  0
  5  8  1  0
  5  1  2  0
  6  4  2  0
  8  6  1  0
 10  9  1  0
 11  9  1  0
 12 15  2  0
 12 13  1  0
 13 16  2  0
 14 17  2  0
 15 14  1  0
 16 17  1  0
 16 27  1  0
 17 18  1  0
 19 27  1  0
 20 25  1  0
 21 22  1  0
 21 20  1  0
 23 22  1  0
 23 32  1  0
 23 24  1  0
 25 19  1  0
 25 24  1  0
 26 19  2  0
 27 28  1  0
 29 30  2  0
 30 49  1  0
 31 30  1  0
 31 34  1  0
 32 33  1  0
 32 29  1  0
 33 31  2  0
 34 35  1  0
 35 36  2  0
 37 40  1  0
 37 36  1  0
 38 37  2  0
 39 38  1  0
 39 34  2  0
 40 41  1  0
 41 42  1  0
 42 43  2  0
 44 43  1  0
 44 48  1  0
 45 44  2  0
 46 41  2  0
 46 45  1  0
 47 46  1  0
 49 50  1  0
 50 53  1  0
 50 52  1  0
 51 49  2  0
 54 29  1  0
 54 55  1  0
 56 54  1  0
 58 69  2  0
 59 57  1  0
 59 64  1  0
 60 68  1  0
 60 70  1  0
 61 67  1  0
 61 63  1  0
 62 68  1  0
 63 62  1  0
 64 63  2  0
 65 59  2  0
 66 65  1  0
 66 61  2  0
 67 60  1  0
 68 58  1  0
 70 72  2  0
 71 70  1  0
 73 71  1  0
 74 83  2  0
 74 79  1  0
 75 71  1  0
 75 79  1  0
 76 75  1  0
 77 78  1  0
 77 76  1  0
 78 74  1  0
 79 80  2  0
 80 81  1  0
 82 81  2  0
 83 82  1  0
 84 58  1  0
 84 85  1  0
 84 94  1  0
 85 88  1  0
 86 90  1  0
 86 85  1  0
 87 86  2  0
 90 89  1  0
 92 90  1  0
 92 93  1  0
 92 91  1  0
 94 97  1  1
 94 95  1  0
 96 94  1  0
M  ISO  4   3 101  19 100  27 100  57 101
M  END
>  <TORSDO>  (38) 
F 17

>  <SCORE>  (38) 
-15.273

>  <name>  (38) 
37

>  <ligand_id>  (38) 
37

>  <original_smiles>  (38) 
[H]c1c([H])c([H])c2c(c1[H])C([H])([H])C([H])([H])C([H])([H])C2([H])N([H])C(=O)C1([H])N(C(=O)C([H])(N([H])C(=O)C([H])(N([H])C([H])([H])[H])C([H])([H])[H])C(C([H])([H])[H])(C([H])([H])[H])C([H])([H])[H])C([H])([H])c2c([H])c(OC(=C3C([H])([H])N(C(c4c([H])c([H])c(N([H])C(=O)N5C([H])([H])C([H])([H])C([H])([H])C([H])(n6nc(-c7c([H])c([H])c(Oc8c([H])c([H])c(F)c([H])c8F)c([H])c7[H])c(C(=O)N([H])[H])c6N([H])[H])C5([H])[H])c(F)c4[H])=[N+]([H])[H])C([H])([H])C3([H])[H])C([H])([H])[H])c([H])c([H])c2C1([H])[H]

>  <smiles>  (38) 
[H]c1c([H])c([H])c2c(c1[H])C([H])([H])C([H])([H])C([H])([H])C2([H])N([H])C(=O)C1([H])N(C(=O)C([H])(N([H])C(=O)C([H])(N([H])C([H])([H])[H])C([H])([H])[H])C(C([H])([H])[H])(C([H])([H])[H])C([H])([H])[H])C([H])([H])c2c([H])c(OC(=C3C([H])([H])N(C(c4c([H])c([H])c(N([H])C(=O)N5C([H])([H])C([H])([H])C([H])([H])C([H])(n6nc(-c7c([H])c([H])c(Oc8c([H])c([H])c(F)c([H])c8F)c([H])c7[H])c(C(=O)N([H])[H])c6N([H])[H])C5([H])[H])c(F)c4[H])=[N+]([H])[H])C([H])([H])C3([H])[H])C([H])([H])[H])c([H])c([H])c2C1([H])[H]

$$$$
38:0:0
     RDKit          3D

101109  0  0  1  0  0  0  0  0999 V2000
  -29.9060  -20.5730   22.2280 C   0  0  0  0  0  0  0  0  0  0  0  0
  -29.3010  -20.9410   23.2380 O   0  0  0  0  0  0  0  0  0  0  0  0
  -29.9380  -21.4020   20.9360 C   0  0  0  0  0  2  0  0  0  0  0  0
  -29.0320  -22.6600   20.9310 C   0  0  0  0  0  2  0  0  0  0  0  0
  -30.2050  -24.2020   22.6270 C   0  0  0  0  0  1  0  0  0  0  0  0
  -30.9760  -24.1630   20.2560 C   0  0  0  0  0  1  0  0  0  0  0  0
  -29.7300  -24.0330   21.1600 C   0  0  1  0  0  0  0  0  0  0  0  0
  -28.7270  -25.1660   20.8000 C   0  0  0  0  0  0  0  0  0  0  0  0
  -28.3940  -26.0190   21.6310 O   0  0  0  0  0  0  0  0  0  0  0  0
  -28.1470  -25.1920   19.3740 C   0  0  0  0  0  2  0  0  0  0  0  0
  -27.9920  -26.5400   18.9330 O   0  0  0  0  0  0  0  0  0  0  0  0
  -24.4150  -31.2170   22.8910 C   0  0  0  0  0  0  0  0  0  0  0  0
  -26.7860  -27.1540   19.1630 C   0  0  0  0  0  0  0  0  0  0  0  0
  -23.0560  -29.9150   21.2840 C   0  0  0  0  0  3  0  0  0  0  0  0
  -24.3670  -28.5410   19.5850 C   0  0  0  0  0  0  0  0  0  0  0  0
  -25.5260  -30.3790   20.8270 C   0  0  0  0  0  2  0  0  0  0  0  0
  -25.5700  -29.0660   20.0760 C   0  0  0  0  0  0  0  0  0  0  0  0
  -26.7820  -28.3800   19.8580 C   0  0  0  0  0  3  0  0  0  0  0  0
  -25.5670  -26.6300   18.6760 C   0  0  0  0  0  3  0  0  0  0  0  0
  -24.3590  -27.3210   18.8870 C   0  0  0  0  0  3  0  0  0  0  0  0
  -23.1160  -29.3490   19.8400 C   0  0  0  0  0  2  0  0  0  0  0  0
  -24.3570  -30.5150   21.7240 N   0  0  0  0  0  0  0  0  0  0  0  0
  -23.3990  -31.4140   23.5710 O   0  0  0  0  0  0  0  0  0  0  0  0
  -22.5450  -28.8010   22.2250 C   0  0  0  0  0  0  0  0  0  0  0  0
  -21.2450  -28.4850   22.1230 N   0  0  0  0  0  0  0  0  0  0  0  0
  -23.3140  -28.2250   22.9980 O   0  0  0  0  0  0  0  0  0  0  0  0
  -20.6830  -29.0070   21.4660 H   0  0  0  0  0  0  0  0  0  0  0  0
  -18.0560  -26.8470   22.5640 C   0  0  0  0  0  0  0  0  0  0  0  0
  -20.5510  -27.4430   22.8790 C   0  0  0  0  0  3  0  0  0  0  0  0
  -20.8540  -26.0430   22.3000 C   0  0  0  0  0  2  0  0  0  0  0  0
  -19.8210  -25.5780   21.2680 C   0  0  0  0  0  2  0  0  0  0  0  0
  -18.4230  -25.5350   21.8900 C   0  0  0  0  0  2  0  0  0  0  0  0
  -19.0560  -27.7500   23.0140 C   0  0  0  0  0  0  0  0  0  0  0  0
  -18.6610  -28.9700   23.6040 C   0  0  0  0  0  3  0  0  0  0  0  0
  -17.2980  -29.2930   23.7460 C   0  0  0  0  0  3  0  0  0  0  0  0
  -16.3130  -28.3880   23.3140 C   0  0  0  0  0  3  0  0  0  0  0  0
  -16.6940  -27.1660   22.7310 C   0  0  0  0  0  3  0  0  0  0  0  0
  -25.7530  -31.8340   23.4100 C   0  0  0  0  0  3  0  0  0  0  0  0
  -26.4150  -30.9990   24.5740 C   0  0  1  0  0  0  0  0  0  0  0  0
  -25.4280  -30.6250   25.7060 C   0  0  0  0  0  1  0  0  0  0  0  0
  -27.0250  -29.6880   24.0270 C   0  0  0  0  0  1  0  0  0  0  0  0
  -27.5810  -31.8010   25.1990 C   0  0  0  0  0  1  0  0  0  0  0  0
  -25.4660  -33.2070   23.8480 N   0  0  0  0  0  0  0  0  0  0  0  0
  -25.7360  -34.3040   23.1300 C   0  0  0  0  0  0  0  0  0  0  0  0
  -26.3250  -34.2690   22.0460 O   0  0  0  0  0  0  0  0  0  0  0  0
  -24.9350  -33.3090   24.7010 H   0  0  0  0  0  0  0  0  0  0  0  0
  -23.9800  -36.1010   23.0120 C   0  0  0  0  0  1  0  0  0  0  0  0
  -25.2780  -35.6590   23.7050 C   0  0  0  0  0  3  0  0  0  0  0  0
  -27.4730  -36.4950   24.4210 C   0  0  0  0  0  1  0  0  0  0  0  0
  -26.2970  -36.7230   23.5850 N   0  0  0  0  0  0  0  0  0  0  0  0
  -25.9030  -37.6260   23.8320 H   0  0  0  0  0  0  0  0  0  0  0  0
  -30.5800  -19.2010   22.2000 C   0  0  0  0  0  2  0  0  0  0  0  0
  -29.6750  -18.1660   21.7070 N   0  0  0  0  0  0  0  0  0  0  0  0
  -28.7680  -18.5640   21.4830 H   0  0  0  0  0  0  0  0  0  0  0  0
  -30.5880  -17.1120   18.2490 C   0  0  0  0  0  3  0  0  0  0  0  0
  -31.5830  -16.1570   18.5340 C   0  0  0  0  0  3  0  0  0  0  0  0
  -31.1920  -16.4910   20.9040 C   0  0  0  0  0  3  0  0  0  0  0  0
  -29.8290  -17.7240   19.2750 C   0  0  0  0  0  0  0  0  0  0  0  0
  -31.8340  -15.7830   19.8720 C   0  0  0  0  0  0  0  0  0  0  0  0
  -30.2110  -17.4670   20.6240 C   0  0  0  0  0  0  0  0  0  0  0  0
  -32.8950  -13.5540   19.6880 C   0  0  0  0  0  0  0  0  0  0  0  0
  -32.0810  -11.2440   19.4060 C   0  0  0  0  0  2  0  0  0  0  0  0
  -31.0640  -11.1060   18.2620 C   0  0  0  0  0  2  0  0  0  0  0  0
  -29.6350  -11.3840   18.7670 C   0  0  0  0  0  2  0  0  0  0  0  0
  -29.5370  -12.7010   19.5760 C   0  0  0  0  0  3  0  0  0  0  0  0
  -30.6600  -12.7960   20.6360 C   0  0  0  0  0  2  0  0  0  0  0  0
  -31.9600  -12.6010   19.9640 N   0  0  0  0  0  0  0  0  0  0  0  0
  -33.8990  -13.3360   19.0080 O   0  0  0  0  0  0  0  0  0  0  0  0
  -32.7450  -14.7580   20.2500 N   0  0  0  0  0  0  0  0  0  0  0  0
  -33.6250  -15.1300   20.5770 H   0  0  0  0  0  0  0  0  0  0  0  0
  -27.5800  -14.0310   20.5860 C   0  0  0  0  0  0  0  0  0  0  0  0
  -26.3250  -13.6630   20.9760 C   0  0  0  0  0  0  0  0  0  0  0  0
  -26.2500  -12.2550   20.7580 C   0  0  0  0  0  0  0  0  0  0  0  0
  -28.2120  -12.8730   20.1620 N   0  0  0  0  0  0  0  0  0  0  0  0
  -27.4110  -11.7910   20.3180 N   0  0  0  0  0  0  0  0  0  0  0  0
  -25.1230  -11.3290   20.8880 C   0  0  0  0  0  0  0  0  0  0  0  0
  -25.2920  -10.0360   21.4290 C   0  0  0  0  0  3  0  0  0  0  0  0
  -24.1860   -9.1700   21.5610 C   0  0  0  0  0  3  0  0  0  0  0  0
  -22.8990   -9.5960   21.1560 C   0  0  0  0  0  0  0  0  0  0  0  0
  -22.7430  -10.8770   20.5980 C   0  0  0  0  0  3  0  0  0  0  0  0
  -23.8450  -11.7350   20.4610 C   0  0  0  0  0  3  0  0  0  0  0  0
  -21.7710   -8.8140   21.2270 O   0  0  0  0  0  0  0  0  0  0  0  0
  -21.6560   -7.7990   22.1410 C   0  0  0  0  0  0  0  0  0  0  0  0
  -21.8570   -8.0160   23.5220 C   0  0  0  0  0  3  0  0  0  0  0  0
  -21.6570   -6.9630   24.4350 C   0  0  0  0  0  3  0  0  0  0  0  0
  -21.2480   -5.6980   23.9750 C   0  0  0  0  0  0  0  0  0  0  0  0
  -21.0430   -5.4810   22.6000 C   0  0  0  0  0  3  0  0  0  0  0  0
  -21.2420   -6.5300   21.6870 C   0  0  0  0  0  0  0  0  0  0  0  0
  -21.0220   -6.3240   20.3650 F   0  0  0  0  0  0  0  0  0  0  0  0
  -21.0470   -4.6890   24.8540 F   0  0  0  0  0  0  0  0  0  0  0  0
  -25.2260  -14.5800   21.4340 C   0  0  0  0  0  0  0  0  0  0  0  0
  -24.3240  -14.0820   22.2730 N   0  0  0  0  0  0  0  0  0  0  0  0
  -25.1920  -15.7590   21.0890 O   0  0  0  0  0  0  0  0  0  0  0  0
  -24.3660  -13.1170   22.5630 H   0  0  0  0  0  0  0  0  0  0  0  0
  -23.5860  -14.6730   22.6300 H   0  0  0  0  0  0  0  0  0  0  0  0
  -28.2320  -15.2540   20.5480 N   0  0  0  0  0  0  0  0  0  0  0  0
  -27.8180  -16.1010   20.9180 H   0  0  0  0  0  0  0  0  0  0  0  0
  -29.2320  -15.3230   20.4150 H   0  0  0  0  0  0  0  0  0  0  0  0
  -29.0440  -19.8940   18.1350 C   0  0  0  0  0  1  0  0  0  0  0  0
  -27.4960  -18.8270   19.8340 C   0  0  0  0  0  1  0  0  0  0  0  0
  -28.6300  -18.5810   18.8160 C   0  0  0  0  0  3  0  0  0  0  0  0
  1  2  2  0
  3  1  1  0
  4  3  1  0
  4  7  1  0
  7  6  1  6
  7  5  1  0
  8  7  1  0
  8  9  2  0
 10  8  1  0
 11 13  1  0
 11 10  1  0
 12 23  2  0
 13 18  1  0
 14 22  1  0
 14 24  1  0
 15 21  1  0
 15 17  1  0
 16 22  1  0
 17 16  1  0
 18 17  2  0
 19 20  1  0
 19 13  2  0
 20 15  2  0
 21 14  1  0
 22 12  1  0
 24 26  2  0
 25 24  1  0
 27 25  1  0
 28 37  2  0
 28 33  1  0
 29 25  1  0
 29 33  1  0
 30 29  1  0
 31 32  1  0
 31 30  1  0
 32 28  1  0
 33 34  2  0
 34 35  1  0
 36 35  2  0
 37 36  1  0
 38 12  1  0
 38 43  1  0
 38 39  1  0
 39 42  1  1
 39 40  1  0
 41 39  1  0
 43 46  1  0
 44 48  1  0
 44 43  1  0
 45 44  2  0
 48 47  1  0
 50 48  1  0
 50 51  1  0
 50 49  1  0
 52  1  1  0
 53 52  1  0
 54 53  1  0
 55 56  2  0
 55 58  1  0
 56 59  1  0
 58 60  2  0
 59 69  1  0
 59 57  2  0
 60 57  1  0
 60 53  1  0
 61 67  1  0
 61 69  1  0
 62 67  1  0
 63 64  1  0
 63 62  1  0
 65 64  1  0
 65 74  1  0
 65 66  1  0
 67 66  1  0
 68 61  2  0
 69 70  1  0
 71 72  2  0
 72 91  1  0
 73 76  1  0
 73 72  1  0
 74 75  1  0
 74 71  1  0
 75 73  2  0
 76 77  1  0
 77 78  2  0
 79 82  1  0
 79 78  1  0
 80 79  2  0
 81 80  1  0
 81 76  2  0
 82 83  1  0
 83 84  1  0
 84 85  2  0
 86 85  1  0
 86 90  1  0
 87 86  2  0
 88 83  2  0
 88 87  1  0
 89 88  1  0
 91 92  1  0
 92 94  1  0
 92 95  1  0
 93 91  2  0
 96 71  1  0
 96 97  1  0
 98 96  1  0
 99101  1  0
101 58  1  0
101100  1  0
M  ISO  4  10 101  11 101  61 100  69 100
M  END
>  <TORSDO>  (39) 
F 25

>  <SCORE>  (39) 
-8.302

>  <name>  (39) 
38

>  <ligand_id>  (39) 
38

>  <original_smiles>  (39) 
[H]c1c([H])c([H])c2c(c1[H])C([H])([H])C([H])([H])C([H])([H])C2([H])N([H])C(=O)C1([H])N(C(=O)C([H])(N([H])C(=O)C([H])(N([H])C([H])([H])[H])C([H])([H])[H])C(C([H])([H])[H])(C([H])([H])[H])C([H])([H])[H])C([H])([H])c2c([H])c(OC([H])([H])C(=O)C(C([H])([H])[H])(C([H])([H])[H])C([H])([H])C([H])([H])C(=O)C([H])([H])N([H])c3c([H])c(N([H])C(=O)N4C([H])([H])C([H])([H])C([H])([H])C([H])(n5nc(-c6c([H])c([H])c(Oc7c([H])c([H])c(F)c([H])c7F)c([H])c6[H])c(C(=O)N([H])[H])c5N([H])[H])C4([H])[H])c([H])c([H])c3C([H])(C([H])([H])[H])C([H])([H])[H])c([H])c([H])c2C1([H])[H]

>  <smiles>  (39) 
[H]c1c([H])c([H])c2c(c1[H])C([H])([H])C([H])([H])C([H])([H])C2([H])N([H])C(=O)C1([H])N(C(=O)C([H])(N([H])C(=O)C([H])(N([H])C([H])([H])[H])C([H])([H])[H])C(C([H])([H])[H])(C([H])([H])[H])C([H])([H])[H])C([H])([H])c2c([H])c(OC([H])([H])C(=O)C(C([H])([H])[H])(C([H])([H])[H])C([H])([H])C([H])([H])C(=O)C([H])([H])N([H])c3c([H])c(N([H])C(=O)N4C([H])([H])C([H])([H])C([H])([H])C([H])(n5nc(-c6c([H])c([H])c(Oc7c([H])c([H])c(F)c([H])c7F)c([H])c6[H])c(C(=O)N([H])[H])c5N([H])[H])C4([H])[H])c([H])c([H])c3C([H])(C([H])([H])[H])C([H])([H])[H])c([H])c([H])c2C1([H])[H]

$$$$
39:0:0
     RDKit          3D

 94103  0  0  1  0  0  0  0  0999 V2000
  -30.7160  -18.0260   19.7360 C   0  0  0  0  0  3  0  0  0  0  0  0
  -28.6930  -18.0040   20.9670 C   0  0  0  0  0  3  0  0  0  0  0  0
  -30.6010  -19.4600   19.6780 C   0  0  0  0  0  0  0  0  0  0  0  0
  -29.7450  -17.2360   20.4020 C   0  0  0  0  0  0  0  0  0  0  0  0
  -29.4970  -20.1370   20.2860 C   0  0  0  0  0  0  0  0  0  0  0  0
  -28.7970  -23.9870   19.9740 C   0  0  0  0  0  0  0  0  0  0  0  0
  -28.6040  -25.2120   19.3510 C   0  0  0  0  0  0  0  0  0  0  0  0
  -28.7610  -23.7130   21.4590 C   0  0  0  0  0  2  0  0  0  0  0  0
  -29.1400  -22.6020   19.3260 C   0  0  0  0  0  2  0  0  0  0  0  0
  -28.8090  -22.1670   21.6260 C   0  0  0  0  0  2  0  0  0  0  0  0
  -28.7370  -25.3500   17.8440 C   0  0  0  0  0  1  0  0  0  0  0  0
  -28.5790  -19.3680   20.9230 N   0  0  0  0  0  0  0  0  0  0  0  0
  -29.3440  -21.5800   20.3960 N   0  0  0  0  0  0  0  0  0  0  0  0
  -30.4950  -14.7280   20.0310 C   0  0  0  0  0  0  0  0  0  0  0  0
  -30.2420  -12.4940   18.9440 C   0  0  0  0  0  2  0  0  0  0  0  0
  -29.2230  -12.6400   17.7900 C   0  0  0  0  0  2  0  0  0  0  0  0
  -27.7750  -12.4850   18.2990 C   0  0  0  0  0  2  0  0  0  0  0  0
  -27.5010  -13.3200   19.5770 C   0  0  0  0  0  3  0  0  0  0  0  0
  -28.6230  -13.1260   20.6220 C   0  0  0  0  0  2  0  0  0  0  0  0
  -29.8950  -13.4910   19.9780 N   0  0  0  0  0  0  0  0  0  0  0  0
  -31.6200  -14.9080   19.5560 O   0  0  0  0  0  0  0  0  0  0  0  0
  -29.7150  -15.7580   20.5130 N   0  0  0  0  0  0  0  0  0  0  0  0
  -28.8860  -15.4060   20.9680 H   0  0  0  0  0  0  0  0  0  0  0  0
  -25.1700  -13.9410   20.4570 C   0  0  0  0  0  0  0  0  0  0  0  0
  -24.1150  -13.1760   20.8770 C   0  0  0  0  0  0  0  0  0  0  0  0
  -24.5510  -11.8180   20.7860 C   0  0  0  0  0  0  0  0  0  0  0  0
  -26.1800  -13.0480   20.1350 N   0  0  0  0  0  0  0  0  0  0  0  0
  -25.8170  -11.7660   20.3930 N   0  0  0  0  0  0  0  0  0  0  0  0
  -23.8150  -10.5650   20.9920 C   0  0  0  0  0  0  0  0  0  0  0  0
  -24.2780   -9.5770   21.8890 C   0  0  0  0  0  3  0  0  0  0  0  0
  -23.5440   -8.3880   22.0860 C   0  0  0  0  0  3  0  0  0  0  0  0
  -22.3320   -8.1780   21.3850 C   0  0  0  0  0  0  0  0  0  0  0  0
  -21.8890   -9.1550   20.4750 C   0  0  0  0  0  3  0  0  0  0  0  0
  -22.6230  -10.3350   20.2770 C   0  0  0  0  0  3  0  0  0  0  0  0
  -21.5640   -7.0430   21.4910 O   0  0  0  0  0  0  0  0  0  0  0  0
  -21.5470   -6.2930   22.6400 C   0  0  0  0  0  0  0  0  0  0  0  0
  -21.1500   -6.8370   23.8800 C   0  0  0  0  0  3  0  0  0  0  0  0
  -21.0800   -6.0120   25.0210 C   0  0  0  0  0  3  0  0  0  0  0  0
  -21.3970   -4.6440   24.9230 C   0  0  0  0  0  0  0  0  0  0  0  0
  -21.7870   -4.0990   23.6870 C   0  0  0  0  0  3  0  0  0  0  0  0
  -21.8590   -4.9200   22.5480 C   0  0  0  0  0  0  0  0  0  0  0  0
  -22.2150   -4.3860   21.3550 F   0  0  0  0  0  0  0  0  0  0  0  0
  -21.3220   -3.8490   26.0160 F   0  0  0  0  0  0  0  0  0  0  0  0
  -22.7460  -13.6680   21.2470 C   0  0  0  0  0  0  0  0  0  0  0  0
  -22.0610  -12.9660   22.1430 N   0  0  0  0  0  0  0  0  0  0  0  0
  -22.2930  -14.7110   20.7750 O   0  0  0  0  0  0  0  0  0  0  0  0
  -22.4400  -12.1220   22.5450 H   0  0  0  0  0  0  0  0  0  0  0  0
  -21.1430  -13.2770   22.4290 H   0  0  0  0  0  0  0  0  0  0  0  0
  -25.3460  -15.3130   20.3000 N   0  0  0  0  0  0  0  0  0  0  0  0
  -24.5930  -15.9720   20.4650 H   0  0  0  0  0  0  0  0  0  0  0  0
  -26.1600  -15.7410   19.8770 H   0  0  0  0  0  0  0  0  0  0  0  0
  -32.7670  -20.7190   20.0360 C   0  0  0  0  0  1  0  0  0  0  0  0
  -31.7340  -20.2250   19.0150 C   0  0  0  0  0  2  0  0  0  0  0  0
  -28.4460  -26.4710   20.0000 O   0  0  0  0  0  0  0  0  0  0  0  0
  -24.4670  -31.6770   23.0730 C   0  0  0  0  0  0  0  0  0  0  0  0
  -27.2900  -27.2830   19.9200 C   0  0  0  0  0  0  0  0  0  0  0  0
  -23.3320  -30.2720   21.3890 C   0  0  0  0  0  3  0  0  0  0  0  0
  -24.8550  -28.8100   19.9370 C   0  0  0  0  0  0  0  0  0  0  0  0
  -25.8580  -30.6900   21.2340 C   0  0  0  0  0  2  0  0  0  0  0  0
  -25.9990  -29.3290   20.5540 C   0  0  0  0  0  0  0  0  0  0  0  0
  -27.2140  -28.5760   20.5380 C   0  0  0  0  0  3  0  0  0  0  0  0
  -26.1120  -26.8140   19.2960 C   0  0  0  0  0  3  0  0  0  0  0  0
  -24.9150  -27.5590   19.3010 C   0  0  0  0  0  3  0  0  0  0  0  0
  -23.5830  -29.6360   19.9950 C   0  0  0  0  0  2  0  0  0  0  0  0
  -24.5700  -30.8960   21.9560 N   0  0  0  0  0  0  0  0  0  0  0  0
  -23.3690  -31.9000   23.6050 O   0  0  0  0  0  0  0  0  0  0  0  0
  -22.7000  -29.2100   22.3210 C   0  0  0  0  0  0  0  0  0  0  0  0
  -21.3780  -29.0020   22.1950 N   0  0  0  0  0  0  0  0  0  0  0  0
  -23.3980  -28.5770   23.1180 O   0  0  0  0  0  0  0  0  0  0  0  0
  -20.8740  -29.5660   21.5260 H   0  0  0  0  0  0  0  0  0  0  0  0
  -18.0310  -27.7180   22.6900 C   0  0  0  0  0  0  0  0  0  0  0  0
  -20.5870  -28.0190   22.9380 C   0  0  0  0  0  3  0  0  0  0  0  0
  -20.7100  -26.6140   22.3060 C   0  0  0  0  0  2  0  0  0  0  0  0
  -19.6020  -26.3090   21.2930 C   0  0  0  0  0  2  0  0  0  0  0  0
  -18.2250  -26.4000   21.9590 C   0  0  0  0  0  2  0  0  0  0  0  0
  -19.1410  -28.4860   23.1360 C   0  0  0  0  0  0  0  0  0  0  0  0
  -18.9040  -29.7190   23.7800 C   0  0  0  0  0  3  0  0  0  0  0  0
  -17.5920  -30.1870   23.9820 C   0  0  0  0  0  3  0  0  0  0  0  0
  -16.4980  -29.4160   23.5530 C   0  0  0  0  0  3  0  0  0  0  0  0
  -16.7190  -28.1840   22.9130 C   0  0  0  0  0  3  0  0  0  0  0  0
  -25.7190  -32.3440   23.7220 C   0  0  0  0  0  3  0  0  0  0  0  0
  -25.3550  -33.7220   24.0830 N   0  0  0  0  0  0  0  0  0  0  0  0
  -25.6440  -34.8050   23.3480 C   0  0  0  0  0  0  0  0  0  0  0  0
  -26.3190  -34.7510   22.3160 O   0  0  0  0  0  0  0  0  0  0  0  0
  -24.7620  -33.8360   24.8910 H   0  0  0  0  0  0  0  0  0  0  0  0
  -23.8490  -36.5360   23.0260 C   0  0  0  0  0  1  0  0  0  0  0  0
  -25.1010  -36.1620   23.8350 C   0  0  0  0  0  3  0  0  0  0  0  0
  -27.1930  -37.1110   24.7030 C   0  0  0  0  0  1  0  0  0  0  0  0
  -26.0910  -37.2580   23.7550 N   0  0  0  0  0  0  0  0  0  0  0  0
  -25.6450  -38.1560   23.9280 H   0  0  0  0  0  0  0  0  0  0  0  0
  -26.2550  -31.5630   24.9860 C   0  0  1  0  0  0  0  0  0  0  0  0
  -25.1640  -31.2580   26.0400 C   0  0  0  0  0  1  0  0  0  0  0  0
  -26.8920  -30.2190   24.5680 C   0  0  0  0  0  1  0  0  0  0  0  0
  -27.3700  -32.3830   25.6770 C   0  0  0  0  0  1  0  0  0  0  0  0
  1  4  1  0
  3  1  2  0
  3  5  1  0
  4 22  1  0
  4  2  2  0
  5 13  1  0
  5 12  2  0
  6  8  1  0
  7  6  2  0
  7 54  1  0
  8 10  1  0
  9  6  1  0
  9 13  1  0
 11  7  1  0
 12  2  1  0
 13 10  1  0
 14 22  1  0
 15 20  1  0
 16 17  1  0
 16 15  1  0
 18 17  1  0
 18 27  1  0
 18 19  1  0
 20 14  1  0
 20 19  1  0
 21 14  2  0
 22 23  1  0
 24 25  2  0
 25 44  1  0
 26 25  1  0
 26 29  1  0
 27 28  1  0
 27 24  1  0
 28 26  2  0
 29 30  1  0
 30 31  2  0
 32 35  1  0
 32 31  1  0
 33 32  2  0
 34 33  1  0
 34 29  2  0
 35 36  1  0
 36 37  1  0
 37 38  2  0
 39 38  1  0
 39 43  1  0
 40 39  2  0
 41 36  2  0
 41 40  1  0
 42 41  1  0
 44 45  1  0
 45 48  1  0
 45 47  1  0
 46 44  2  0
 49 24  1  0
 49 50  1  0
 51 49  1  0
 53  3  1  0
 53 52  1  0
 55 66  2  0
 56 54  1  0
 56 61  1  0
 57 65  1  0
 57 67  1  0
 58 64  1  0
 58 60  1  0
 59 65  1  0
 60 59  1  0
 61 60  2  0
 62 63  1  0
 62 56  2  0
 63 58  2  0
 64 57  1  0
 65 55  1  0
 67 69  2  0
 68 67  1  0
 70 68  1  0
 71 80  2  0
 71 76  1  0
 72 68  1  0
 72 76  1  0
 73 72  1  0
 74 75  1  0
 74 73  1  0
 75 71  1  0
 76 77  2  0
 77 78  1  0
 79 78  2  0
 80 79  1  0
 81 55  1  0
 81 82  1  0
 81 91  1  0
 82 85  1  0
 83 87  1  0
 83 82  1  0
 84 83  2  0
 87 86  1  0
 89 87  1  0
 89 90  1  0
 89 88  1  0
 91 94  1  1
 91 92  1  0
 93 91  1  0
M  ISO  4   7 101  14 100  22 100  54 101
M  END
>  <TORSDO>  (40) 
F 17

>  <SCORE>  (40) 
-14.508

>  <name>  (40) 
39

>  <ligand_id>  (40) 
39

>  <original_smiles>  (40) 
[H]c1nc(N2C([H])([H])C(=C(Oc3c([H])c([H])c4c(c3[H])C([H])([H])N(C(=O)C([H])(N([H])C(=O)C([H])(N([H])C([H])([H])[H])C([H])([H])[H])C(C([H])([H])[H])(C([H])([H])[H])C([H])([H])[H])C([H])(C(=O)N([H])C3([H])c5c([H])c([H])c([H])c([H])c5C([H])([H])C([H])([H])C3([H])[H])C4([H])[H])C([H])([H])[H])C([H])([H])C2([H])[H])c(C([H])([H])C([H])([H])[H])c([H])c1N([H])C(=O)N1C([H])([H])C([H])([H])C([H])([H])C([H])(n2nc(-c3c([H])c([H])c(Oc4c([H])c([H])c(F)c([H])c4F)c([H])c3[H])c(C(=O)N([H])[H])c2N([H])[H])C1([H])[H]

>  <smiles>  (40) 
[H]c1nc(N2C([H])([H])C(=C(Oc3c([H])c([H])c4c(c3[H])C([H])([H])N(C(=O)C([H])(N([H])C(=O)C([H])(N([H])C([H])([H])[H])C([H])([H])[H])C(C([H])([H])[H])(C([H])([H])[H])C([H])([H])[H])C([H])(C(=O)N([H])C3([H])c5c([H])c([H])c([H])c([H])c5C([H])([H])C([H])([H])C3([H])[H])C4([H])[H])C([H])([H])[H])C([H])([H])C2([H])[H])c(C([H])([H])C([H])([H])[H])c([H])c1N([H])C(=O)N1C([H])([H])C([H])([H])C([H])([H])C([H])(n2nc(-c3c([H])c([H])c(Oc4c([H])c([H])c(F)c([H])c4F)c([H])c3[H])c(C(=O)N([H])[H])c2N([H])[H])C1([H])[H]

$$$$
40:0:0
     RDKit          3D

101109  0  0  1  0  0  0  0  0999 V2000
  -30.4020  -21.9300   16.7670 C   0  0  0  0  0  0  0  0  0  0  0  0
  -31.6250  -22.0560   16.8890 O   0  0  0  0  0  0  0  0  0  0  0  0
  -29.6470  -20.8450   17.5520 C   0  0  0  0  0  2  0  0  0  0  0  0
  -30.3040  -19.4390   17.4810 C   0  0  0  0  0  3  0  0  0  0  0  0
  -30.6300  -17.9520   20.9600 C   0  0  0  0  0  3  0  0  0  0  0  0
  -30.8380  -18.9530   19.9640 C   0  0  0  0  0  0  0  0  0  0  0  0
  -30.2270  -18.6470   18.7650 C   0  0  0  0  0  0  0  0  0  0  0  0
  -29.9750  -16.8410   20.5010 C   0  0  0  0  0  0  0  0  0  0  0  0
  -29.3850  -17.1140   18.8790 S   0  0  0  0  0  0  0  0  0  0  0  0
  -30.6350  -14.6160   20.8550 C   0  0  0  0  0  0  0  0  0  0  0  0
  -30.4490  -12.4030   19.8240 C   0  0  0  0  0  2  0  0  0  0  0  0
  -29.6020  -12.5940   18.5530 C   0  0  0  0  0  2  0  0  0  0  0  0
  -28.0990  -12.4440   18.8730 C   0  0  0  0  0  2  0  0  0  0  0  0
  -27.6680  -13.3020   20.0930 C   0  0  0  0  0  3  0  0  0  0  0  0
  -28.6470  -13.1360   21.2760 C   0  0  0  0  0  2  0  0  0  0  0  0
  -30.0070  -13.4160   20.7880 N   0  0  0  0  0  0  0  0  0  0  0  0
  -31.8100  -14.7850   20.5080 O   0  0  0  0  0  0  0  0  0  0  0  0
  -29.8370  -15.6550   21.1400 N   0  0  0  0  0  0  0  0  0  0  0  0
  -28.9040  -15.4120   21.4350 H   0  0  0  0  0  0  0  0  0  0  0  0
  -25.2240  -13.8990   20.6330 C   0  0  0  0  0  0  0  0  0  0  0  0
  -24.1430  -13.1220   20.9520 C   0  0  0  0  0  0  0  0  0  0  0  0
  -24.6180  -11.7740   20.9710 C   0  0  0  0  0  0  0  0  0  0  0  0
  -26.2890  -13.0240   20.4870 N   0  0  0  0  0  0  0  0  0  0  0  0
  -25.9240  -11.7420   20.7450 N   0  0  0  0  0  0  0  0  0  0  0  0
  -23.8950  -10.5080   21.1340 C   0  0  0  0  0  0  0  0  0  0  0  0
  -24.2920   -9.5510   22.0940 C   0  0  0  0  0  3  0  0  0  0  0  0
  -23.5670   -8.3510   22.2480 C   0  0  0  0  0  3  0  0  0  0  0  0
  -22.4350   -8.0950   21.4400 C   0  0  0  0  0  0  0  0  0  0  0  0
  -22.0580   -9.0410   20.4690 C   0  0  0  0  0  3  0  0  0  0  0  0
  -22.7830  -10.2340   20.3130 C   0  0  0  0  0  3  0  0  0  0  0  0
  -21.6830   -6.9470   21.5000 O   0  0  0  0  0  0  0  0  0  0  0  0
  -21.5930   -6.2020   22.6490 C   0  0  0  0  0  0  0  0  0  0  0  0
  -21.1200   -6.7530   23.8590 C   0  0  0  0  0  3  0  0  0  0  0  0
  -20.9850   -5.9350   24.9990 C   0  0  0  0  0  3  0  0  0  0  0  0
  -21.3090   -4.5680   24.9270 C   0  0  0  0  0  0  0  0  0  0  0  0
  -21.7750   -4.0150   23.7210 C   0  0  0  0  0  3  0  0  0  0  0  0
  -21.9160   -4.8310   22.5850 C   0  0  0  0  0  0  0  0  0  0  0  0
  -22.3430   -4.2900   21.4180 F   0  0  0  0  0  0  0  0  0  0  0  0
  -21.1710   -3.7800   26.0200 F   0  0  0  0  0  0  0  0  0  0  0  0
  -22.7300  -13.5870   21.1280 C   0  0  0  0  0  0  0  0  0  0  0  0
  -21.9530  -12.8910   21.9520 N   0  0  0  0  0  0  0  0  0  0  0  0
  -22.3170  -14.6050   20.5690 O   0  0  0  0  0  0  0  0  0  0  0  0
  -22.2940  -12.0700   22.4270 H   0  0  0  0  0  0  0  0  0  0  0  0
  -21.0010  -13.1840   22.1110 H   0  0  0  0  0  0  0  0  0  0  0  0
  -25.3890  -15.2690   20.4390 N   0  0  0  0  0  0  0  0  0  0  0  0
  -24.6050  -15.9120   20.4510 H   0  0  0  0  0  0  0  0  0  0  0  0
  -26.2520  -15.7060   20.1380 H   0  0  0  0  0  0  0  0  0  0  0  0
  -33.1090  -19.7290   20.6470 C   0  0  0  0  0  1  0  0  0  0  0  0
  -31.0530  -21.1250   21.2070 C   0  0  0  0  0  1  0  0  0  0  0  0
  -31.7050  -20.1590   20.2080 C   0  0  0  0  0  3  0  0  0  0  0  0
  -29.7560  -18.7210   16.3840 O   0  0  0  0  0  0  0  0  0  0  0  0
  -30.0540  -19.1320   15.5770 H   0  0  0  0  0  0  0  0  0  0  0  0
  -29.6000  -22.8500   15.8320 C   0  0  0  0  0  2  0  0  0  0  0  0
  -29.7070  -24.9800   14.4010 C   0  0  0  0  0  1  0  0  0  0  0  0
  -30.1810  -24.2840   15.6930 C   0  0  0  0  0  3  0  0  0  0  0  0
  -30.1480  -25.1890   16.9730 C   0  0  0  0  0  2  0  0  0  0  0  0
  -28.4420  -24.2210   18.6040 C   0  0  0  0  0  1  0  0  0  0  0  0
  -27.7130  -25.8650   16.7740 C   0  0  0  0  0  1  0  0  0  0  0  0
  -28.8240  -25.4740   17.7740 C   0  0  2  0  0  0  0  0  0  0  0  0
  -29.0940  -26.6600   18.7740 C   0  0  0  0  0  2  0  0  0  0  0  0
  -28.3590  -26.7040   20.0190 O   0  0  0  0  0  0  0  0  0  0  0  0
  -24.5600  -31.8550   23.2330 C   0  0  0  0  0  0  0  0  0  0  0  0
  -27.1930  -27.4370   20.0750 C   0  0  0  0  0  0  0  0  0  0  0  0
  -23.3400  -30.4620   21.5930 C   0  0  0  0  0  3  0  0  0  0  0  0
  -24.7830  -28.9180   20.1690 C   0  0  0  0  0  0  0  0  0  0  0  0
  -25.8710  -30.8140   21.3830 C   0  0  0  0  0  2  0  0  0  0  0  0
  -25.9520  -29.4460   20.7350 C   0  0  0  0  0  0  0  0  0  0  0  0
  -27.1610  -28.7120   20.6900 C   0  0  0  0  0  3  0  0  0  0  0  0
  -25.9890  -26.8880   19.5960 C   0  0  0  0  0  3  0  0  0  0  0  0
  -24.7930  -27.6300   19.6090 C   0  0  0  0  0  3  0  0  0  0  0  0
  -23.5440  -29.7870   20.2110 C   0  0  0  0  0  2  0  0  0  0  0  0
  -24.6080  -31.0600   22.1260 N   0  0  0  0  0  0  0  0  0  0  0  0
  -23.4820  -32.1250   23.7820 O   0  0  0  0  0  0  0  0  0  0  0  0
  -22.6870  -29.4440   22.5540 C   0  0  0  0  0  0  0  0  0  0  0  0
  -21.3610  -29.2670   22.4260 N   0  0  0  0  0  0  0  0  0  0  0  0
  -23.3660  -28.8200   23.3720 O   0  0  0  0  0  0  0  0  0  0  0  0
  -20.8720  -29.8210   21.7340 H   0  0  0  0  0  0  0  0  0  0  0  0
  -17.9820  -28.0920   22.9350 C   0  0  0  0  0  0  0  0  0  0  0  0
  -20.5400  -28.3380   23.2020 C   0  0  0  0  0  3  0  0  0  0  0  0
  -20.6370  -26.9060   22.6310 C   0  0  0  0  0  2  0  0  0  0  0  0
  -19.5340  -26.5860   21.6190 C   0  0  0  0  0  2  0  0  0  0  0  0
  -18.1520  -26.7380   22.2620 C   0  0  0  0  0  2  0  0  0  0  0  0
  -19.1040  -28.8500   23.3620 C   0  0  0  0  0  0  0  0  0  0  0  0
  -18.8930  -30.1130   23.9530 C   0  0  0  0  0  3  0  0  0  0  0  0
  -17.5930  -30.6190   24.1250 C   0  0  0  0  0  3  0  0  0  0  0  0
  -16.4830  -29.8620   23.7110 C   0  0  0  0  0  3  0  0  0  0  0  0
  -16.6780  -28.5990   23.1210 C   0  0  0  0  0  3  0  0  0  0  0  0
  -25.8500  -32.4800   23.8490 C   0  0  0  0  0  3  0  0  0  0  0  0
  -26.3710  -31.7010   25.1160 C   0  0  1  0  0  0  0  0  0  0  0  0
  -25.2860  -31.4530   26.1870 C   0  0  0  0  0  1  0  0  0  0  0  0
  -26.9540  -30.3250   24.7120 C   0  0  0  0  0  1  0  0  0  0  0  0
  -27.5170  -32.4970   25.7840 C   0  0  0  0  0  1  0  0  0  0  0  0
  -25.5490  -33.8810   24.1780 N   0  0  0  0  0  0  0  0  0  0  0  0
  -25.8830  -34.9300   23.4180 C   0  0  0  0  0  0  0  0  0  0  0  0
  -26.5520  -34.8240   22.3850 O   0  0  0  0  0  0  0  0  0  0  0  0
  -24.9560  -34.0450   24.9800 H   0  0  0  0  0  0  0  0  0  0  0  0
  -24.1620  -36.7290   23.0570 C   0  0  0  0  0  1  0  0  0  0  0  0
  -25.3950  -36.3160   23.8740 C   0  0  0  0  0  3  0  0  0  0  0  0
  -27.5300  -37.1880   24.7200 C   0  0  0  0  0  1  0  0  0  0  0  0
  -26.4300  -37.3670   23.7700 N   0  0  0  0  0  0  0  0  0  0  0  0
  -26.0230  -38.2830   23.9300 H   0  0  0  0  0  0  0  0  0  0  0  0
  1  2  2  0
  1  3  1  0
  4  3  1  0
  4  7  1  0
  6 50  1  0
  6  5  1  0
  7  9  1  0
  7  6  2  0
  8  5  2  0
  8 18  1  0
  9  8  1  0
 10 18  1  0
 11 16  1  0
 12 13  1  0
 12 11  1  0
 14 13  1  0
 14 23  1  0
 14 15  1  0
 16 10  1  0
 16 15  1  0
 17 10  2  0
 18 19  1  0
 20 21  2  0
 21 22  1  0
 21 40  1  0
 22 25  1  0
 23 20  1  0
 23 24  1  0
 24 22  2  0
 25 26  1  0
 26 27  2  0
 28 31  1  0
 28 27  1  0
 29 28  2  0
 30 29  1  0
 30 25  2  0
 31 32  1  0
 32 33  1  0
 33 34  2  0
 35 34  1  0
 35 39  1  0
 36 35  2  0
 37 32  2  0
 37 36  1  0
 38 37  1  0
 40 41  1  0
 41 44  1  0
 41 43  1  0
 42 40  2  0
 45 46  1  0
 45 20  1  0
 47 45  1  0
 50 48  1  0
 50 49  1  0
 51  4  1  0
 52 51  1  0
 53  1  1  0
 55 54  1  0
 55 53  1  0
 55 56  1  0
 56 59  1  0
 59 58  1  6
 59 57  1  0
 59 60  1  0
 60 61  1  0
 61 63  1  0
 62 73  2  0
 63 68  1  0
 64 72  1  0
 64 74  1  0
 65 71  1  0
 65 67  1  0
 66 72  1  0
 67 66  1  0
 68 67  2  0
 69 70  1  0
 69 63  2  0
 70 65  2  0
 71 64  1  0
 72 62  1  0
 74 76  2  0
 75 74  1  0
 77 75  1  0
 78 87  2  0
 78 83  1  0
 79 75  1  0
 79 83  1  0
 80 79  1  0
 81 82  1  0
 81 80  1  0
 82 78  1  0
 83 84  2  0
 84 85  1  0
 86 85  2  0
 87 86  1  0
 88 62  1  0
 88 93  1  0
 88 89  1  0
 89 92  1  1
 89 90  1  0
 91 89  1  0
 93 96  1  0
 94 98  1  0
 94 93  1  0
 95 94  2  0
 98 97  1  0
100 98  1  0
100101  1  0
100 99  1  0
M  ISO  4  10 100  18 100  60 101  61 101
M  END
>  <TORSDO>  (41) 
F 26

>  <SCORE>  (41) 
-12.115

>  <name>  (41) 
40

>  <ligand_id>  (41) 
40

>  <original_smiles>  (41) 
[H]OC([H])(c1sc(N([H])C(=O)N2C([H])([H])C([H])([H])C([H])([H])C([H])(n3nc(-c4c([H])c([H])c(Oc5c([H])c([H])c(F)c([H])c5F)c([H])c4[H])c(C(=O)N([H])[H])c3N([H])[H])C2([H])[H])c([H])c1C([H])(C([H])([H])[H])C([H])([H])[H])C([H])([H])C(=O)C([H])([H])C([H])(C([H])([H])[H])C([H])([H])C(C([H])([H])[H])(C([H])([H])[H])C([H])([H])Oc1c([H])c([H])c2c(c1[H])C([H])([H])N(C(=O)C([H])(N([H])C(=O)C([H])(N([H])C([H])([H])[H])C([H])([H])[H])C(C([H])([H])[H])(C([H])([H])[H])C([H])([H])[H])C([H])(C(=O)N([H])C1([H])c3c([H])c([H])c([H])c([H])c3C([H])([H])C([H])([H])C1([H])[H])C2([H])[H]

>  <smiles>  (41) 
[H]OC([H])(c1sc(N([H])C(=O)N2C([H])([H])C([H])([H])C([H])([H])C([H])(n3nc(-c4c([H])c([H])c(Oc5c([H])c([H])c(F)c([H])c5F)c([H])c4[H])c(C(=O)N([H])[H])c3N([H])[H])C2([H])[H])c([H])c1C([H])(C([H])([H])[H])C([H])([H])[H])C([H])([H])C(=O)C([H])([H])C([H])(C([H])([H])[H])C([H])([H])C(C([H])([H])[H])(C([H])([H])[H])C([H])([H])Oc1c([H])c([H])c2c(c1[H])C([H])([H])N(C(=O)C([H])(N([H])C(=O)C([H])(N([H])C([H])([H])[H])C([H])([H])[H])C(C([H])([H])[H])(C([H])([H])[H])C([H])([H])[H])C([H])(C(=O)N([H])C1([H])c3c([H])c([H])c([H])c([H])c3C([H])([H])C([H])([H])C1([H])[H])C2([H])[H]

$$$$
41:0:0
     RDKit          3D

 97107  0  0  1  0  0  0  0  0999 V2000
  -28.2390  -17.1150   20.8060 C   0  0  0  0  0  3  0  0  0  0  0  0
  -29.1870  -16.0840   20.8680 C   0  0  0  0  0  3  0  0  0  0  0  0
  -30.4680  -17.0880   19.0230 C   0  0  0  0  0  3  0  0  0  0  0  0
  -28.4230  -18.1280   19.8620 C   0  0  0  0  0  0  0  0  0  0  0  0
  -29.5180  -18.1610   18.9930 C   0  0  0  0  0  0  0  0  0  0  0  0
  -30.2830  -16.0250   19.9750 C   0  0  0  0  0  0  0  0  0  0  0  0
  -27.4930  -19.2890   19.6770 C   0  0  0  0  0  2  0  0  0  0  0  0
  -27.9710  -19.8830   18.3510 C   0  0  0  0  0  2  0  0  0  0  0  0
  -29.6290  -20.7610   15.9400 C   0  0  0  0  0  2  0  0  0  0  0  0
  -30.2760  -21.9490   18.0980 C   0  0  0  0  0  2  0  0  0  0  0  0
  -29.8160  -19.3880   16.6640 C   0  0  0  0  0  2  0  0  0  0  0  0
  -30.3920  -20.5560   18.7770 C   0  0  0  0  0  2  0  0  0  0  0  0
  -30.4690  -21.9200   16.5570 C   0  0  0  0  0  3  0  0  0  0  0  0
  -29.4660  -19.4740   18.1680 C   0  0  2  0  0  0  0  0  0  0  0  0
  -31.5060  -13.9080   19.3940 C   0  0  0  0  0  0  0  0  0  0  0  0
  -31.1960  -11.4940   18.8880 C   0  0  0  0  0  2  0  0  0  0  0  0
  -30.1330  -11.3160   17.7830 C   0  0  0  0  0  2  0  0  0  0  0  0
  -28.7070  -11.3070   18.3690 C   0  0  0  0  0  2  0  0  0  0  0  0
  -28.4650  -12.4840   19.3490 C   0  0  0  0  0  3  0  0  0  0  0  0
  -29.6150  -12.5540   20.3770 C   0  0  0  0  0  2  0  0  0  0  0  0
  -30.8880  -12.7170   19.6480 N   0  0  0  0  0  0  0  0  0  0  0  0
  -32.4210  -14.0280   18.5720 O   0  0  0  0  0  0  0  0  0  0  0  0
  -31.1610  -14.9150   20.2230 N   0  0  0  0  0  0  0  0  0  0  0  0
  -30.9340  -14.4960   21.1120 H   0  0  0  0  0  0  0  0  0  0  0  0
  -26.3070  -13.3910   20.4280 C   0  0  0  0  0  0  0  0  0  0  0  0
  -25.1860  -12.7620   20.9010 C   0  0  0  0  0  0  0  0  0  0  0  0
  -25.4140  -11.3630   20.7210 C   0  0  0  0  0  0  0  0  0  0  0  0
  -27.1580  -12.3820   19.9990 N   0  0  0  0  0  0  0  0  0  0  0  0
  -26.6270  -11.1540   20.2260 N   0  0  0  0  0  0  0  0  0  0  0  0
  -24.5260  -10.2140   20.9390 C   0  0  0  0  0  0  0  0  0  0  0  0
  -24.8660   -9.1780   21.8360 C   0  0  0  0  0  3  0  0  0  0  0  0
  -23.9880   -8.0920   22.0430 C   0  0  0  0  0  3  0  0  0  0  0  0
  -22.7540   -8.0370   21.3530 C   0  0  0  0  0  0  0  0  0  0  0  0
  -22.4300   -9.0600   20.4440 C   0  0  0  0  0  3  0  0  0  0  0  0
  -23.3070  -10.1380   20.2360 C   0  0  0  0  0  3  0  0  0  0  0  0
  -21.8510   -7.0080   21.4700 O   0  0  0  0  0  0  0  0  0  0  0  0
  -21.6830   -6.3270   22.6480 C   0  0  0  0  0  0  0  0  0  0  0  0
  -21.2690   -6.9780   23.8320 C   0  0  0  0  0  3  0  0  0  0  0  0
  -21.0430   -6.2290   25.0040 C   0  0  0  0  0  3  0  0  0  0  0  0
  -21.2200   -4.8330   24.9940 C   0  0  0  0  0  0  0  0  0  0  0  0
  -21.6270   -4.1820   23.8150 C   0  0  0  0  0  3  0  0  0  0  0  0
  -21.8550   -4.9280   22.6460 C   0  0  0  0  0  0  0  0  0  0  0  0
  -22.2260   -4.2940   21.5070 F   0  0  0  0  0  0  0  0  0  0  0  0
  -20.9930   -4.1130   26.1180 F   0  0  0  0  0  0  0  0  0  0  0  0
  -23.9360  -13.4210   21.4090 C   0  0  0  0  0  0  0  0  0  0  0  0
  -23.2370  -12.7770   22.3380 N   0  0  0  0  0  0  0  0  0  0  0  0
  -23.5970  -14.5360   21.0170 O   0  0  0  0  0  0  0  0  0  0  0  0
  -23.5240  -11.8710   22.6720 H   0  0  0  0  0  0  0  0  0  0  0  0
  -22.4030  -13.2010   22.7200 H   0  0  0  0  0  0  0  0  0  0  0  0
  -26.6650  -14.7290   20.3140 N   0  0  0  0  0  0  0  0  0  0  0  0
  -26.0540  -15.4830   20.6080 H   0  0  0  0  0  0  0  0  0  0  0  0
  -27.5680  -15.0570   19.9940 H   0  0  0  0  0  0  0  0  0  0  0  0
  -30.6560  -23.1580   14.3320 C   0  0  0  0  0  1  0  0  0  0  0  0
  -31.4540  -24.2720   16.4030 C   0  0  0  0  0  1  0  0  0  0  0  0
  -30.3580  -23.3400   15.8360 C   0  0  2  0  0  0  0  0  0  0  0  0
  -28.9750  -24.0720   15.9630 C   0  0  0  0  0  2  0  0  0  0  0  0
  -29.1200  -25.4790   16.3030 O   0  0  0  0  0  0  0  0  0  0  0  0
  -25.4070  -28.1610   21.8000 C   0  0  0  0  0  0  0  0  0  0  0  0
  -28.0070  -26.2010   16.7120 C   0  0  0  0  0  0  0  0  0  0  0  0
  -24.2870  -28.2450   19.5960 C   0  0  0  0  0  3  0  0  0  0  0  0
  -25.7620  -27.7160   17.5810 C   0  0  0  0  0  0  0  0  0  0  0  0
  -26.8430  -28.2870   19.7610 C   0  0  0  0  0  2  0  0  0  0  0  0
  -26.8870  -27.6000   18.4070 C   0  0  0  0  0  0  0  0  0  0  0  0
  -28.0130  -26.8580   17.9710 C   0  0  0  0  0  3  0  0  0  0  0  0
  -26.8590  -26.3360   15.8990 C   0  0  0  0  0  3  0  0  0  0  0  0
  -25.7460  -27.0870   16.3250 C   0  0  0  0  0  3  0  0  0  0  0  0
  -24.6000  -28.5310   18.1030 C   0  0  0  0  0  2  0  0  0  0  0  0
  -25.5240  -28.2050   20.4410 N   0  0  0  0  0  0  0  0  0  0  0  0
  -24.2960  -28.1920   22.3480 O   0  0  0  0  0  0  0  0  0  0  0  0
  -23.4420  -26.9540   19.6860 C   0  0  0  0  0  0  0  0  0  0  0  0
  -22.1330  -27.0720   19.4040 N   0  0  0  0  0  0  0  0  0  0  0  0
  -23.9650  -25.8750   19.9760 O   0  0  0  0  0  0  0  0  0  0  0  0
  -21.7780  -27.9920   19.1830 H   0  0  0  0  0  0  0  0  0  0  0  0
  -18.6370  -26.3060   18.9060 C   0  0  0  0  0  0  0  0  0  0  0  0
  -21.1570  -25.9840   19.3860 C   0  0  0  0  0  3  0  0  0  0  0  0
  -21.2090  -25.2130   18.0460 C   0  0  0  0  0  2  0  0  0  0  0  0
  -20.2120  -25.7380   17.0080 C   0  0  0  0  0  2  0  0  0  0  0  0
  -18.7810  -25.6470   17.5440 C   0  0  0  0  0  2  0  0  0  0  0  0
  -19.7560  -26.4770   19.7640 C   0  0  0  0  0  0  0  0  0  0  0  0
  -19.5730  -27.1260   21.0040 C   0  0  0  0  0  3  0  0  0  0  0  0
  -18.3050  -27.5960   21.3920 C   0  0  0  0  0  3  0  0  0  0  0  0
  -17.1980  -27.4090   20.5470 C   0  0  0  0  0  3  0  0  0  0  0  0
  -17.3650  -26.7610   19.3090 C   0  0  0  0  0  3  0  0  0  0  0  0
  -26.6580  -28.0920   22.7280 C   0  0  0  0  0  3  0  0  0  0  0  0
  -26.4080  -28.9760   23.8740 N   0  0  0  0  0  0  0  0  0  0  0  0
  -26.9010  -30.2160   24.0010 C   0  0  0  0  0  0  0  0  0  0  0  0
  -27.6810  -30.7120   23.1840 O   0  0  0  0  0  0  0  0  0  0  0  0
  -25.7330  -28.6570   24.5530 H   0  0  0  0  0  0  0  0  0  0  0  0
  -25.3600  -32.0280   24.8170 C   0  0  0  0  0  1  0  0  0  0  0  0
  -26.4580  -31.0350   25.2280 C   0  0  0  0  0  3  0  0  0  0  0  0
  -28.5210  -30.8810   26.5520 C   0  0  0  0  0  1  0  0  0  0  0  0
  -27.5680  -31.7630   25.8820 N   0  0  0  0  0  0  0  0  0  0  0  0
  -27.2100  -32.4230   26.5660 H   0  0  0  0  0  0  0  0  0  0  0  0
  -26.9920  -26.6280   23.2150 C   0  0  1  0  0  0  0  0  0  0  0  0
  -25.7850  -25.8900   23.8380 C   0  0  0  0  0  1  0  0  0  0  0  0
  -27.5170  -25.7690   22.0410 C   0  0  0  0  0  1  0  0  0  0  0  0
  -28.1220  -26.6720   24.2710 C   0  0  0  0  0  1  0  0  0  0  0  0
  1  2  1  0
  3  6  1  0
  4  1  2  0
  5  3  2  0
  5  4  1  0
  6 23  1  0
  6  2  2  0
  7  4  1  0
  8  7  1  0
  9 13  1  0
  9 11  1  0
 10 12  1  0
 13 55  1  0
 13 10  1  0
 14 11  1  6
 14  8  1  0
 14 12  1  0
 14  5  1  0
 15 21  1  0
 15 23  1  0
 16 21  1  0
 17 18  1  0
 17 16  1  0
 19 18  1  0
 19 28  1  0
 19 20  1  0
 21 20  1  0
 22 15  2  0
 23 24  1  0
 25 26  2  0
 26 45  1  0
 27 26  1  0
 27 30  1  0
 28 29  1  0
 28 25  1  0
 29 27  2  0
 30 31  1  0
 31 32  2  0
 33 36  1  0
 33 32  1  0
 34 33  2  0
 35 34  1  0
 35 30  2  0
 36 37  1  0
 37 38  1  0
 38 39  2  0
 40 39  1  0
 40 44  1  0
 41 40  2  0
 42 37  2  0
 42 41  1  0
 43 42  1  0
 45 46  1  0
 46 48  1  0
 46 49  1  0
 47 45  2  0
 50 25  1  0
 50 51  1  0
 52 50  1  0
 55 53  1  6
 55 56  1  0
 55 54  1  0
 56 57  1  0
 57 59  1  0
 58 69  2  0
 59 64  1  0
 60 70  1  0
 60 68  1  0
 61 67  1  0
 61 63  1  0
 62 68  1  0
 63 62  1  0
 64 63  2  0
 65 66  1  0
 65 59  2  0
 66 61  2  0
 67 60  1  0
 68 58  1  0
 70 72  2  0
 71 70  1  0
 73 71  1  0
 74 83  2  0
 74 79  1  0
 75 71  1  0
 75 79  1  0
 76 75  1  0
 77 78  1  0
 77 76  1  0
 78 74  1  0
 79 80  2  0
 80 81  1  0
 82 81  2  0
 83 82  1  0
 84 58  1  0
 84 94  1  0
 84 85  1  0
 85 86  1  0
 85 88  1  0
 86 90  1  0
 87 86  2  0
 90 89  1  0
 90 92  1  0
 92 91  1  0
 92 93  1  0
 94 95  1  1
 94 97  1  0
 96 94  1  0
M  ISO  4  15 100  23 100  56 101  57 101
M  END
>  <TORSDO>  (42) 
F 18

>  <SCORE>  (42) 
-9.899

>  <name>  (42) 
41

>  <ligand_id>  (42) 
41

>  <original_smiles>  (42) 
[H]c1c([H])c([H])c2c(c1[H])C([H])([H])C([H])([H])C([H])([H])C2([H])N([H])C(=O)C1([H])N(C(=O)C([H])(N([H])C(=O)C([H])(N([H])C([H])([H])[H])C([H])([H])[H])C(C([H])([H])[H])(C([H])([H])[H])C([H])([H])[H])C([H])([H])c2c([H])c(OC([H])([H])C(C([H])([H])[H])(C([H])([H])[H])C3([H])C([H])([H])C([H])([H])C4(c5c([H])c(N([H])C(=O)N6C([H])([H])C([H])([H])C([H])([H])C([H])(n7nc(-c8c([H])c([H])c(Oc9c([H])c([H])c(F)c([H])c9F)c([H])c8[H])c(C(=O)N([H])[H])c7N([H])[H])C6([H])[H])c([H])c([H])c5C([H])([H])C4([H])[H])C([H])([H])C3([H])[H])c([H])c([H])c2C1([H])[H]

>  <smiles>  (42) 
[H]c1c([H])c([H])c2c(c1[H])C([H])([H])C([H])([H])C([H])([H])C2([H])N([H])C(=O)C1([H])N(C(=O)C([H])(N([H])C(=O)C([H])(N([H])C([H])([H])[H])C([H])([H])[H])C(C([H])([H])[H])(C([H])([H])[H])C([H])([H])[H])C([H])([H])c2c([H])c(OC([H])([H])C(C([H])([H])[H])(C([H])([H])[H])C3([H])C([H])([H])C([H])([H])C4(c5c([H])c(N([H])C(=O)N6C([H])([H])C([H])([H])C([H])([H])C([H])(n7nc(-c8c([H])c([H])c(Oc9c([H])c([H])c(F)c([H])c9F)c([H])c8[H])c(C(=O)N([H])[H])c7N([H])[H])C6([H])[H])c([H])c([H])c5C([H])([H])C4([H])[H])C([H])([H])C3([H])[H])c([H])c([H])c2C1([H])[H]

$$$$
42:0:0
     RDKit          3D

 99108  0  0  1  0  0  0  0  0999 V2000
  -30.6070  -20.6390   21.2590 C   0  0  0  0  0  3  0  0  0  0  0  0
  -30.3010  -22.4460   24.4390 C   0  0  0  0  0  2  0  0  0  0  0  0
  -29.5530  -23.4160   23.5270 C   0  0  0  0  0  2  0  0  0  0  0  0
  -30.3150  -21.1340   23.6530 C   0  0  0  0  0  2  0  0  0  0  0  0
  -29.9400  -22.9810   22.1050 C   0  0  0  0  0  3  0  0  0  0  0  0
  -30.2410  -21.5200   22.2270 N   0  0  0  0  0  0  0  0  0  0  0  0
  -30.6640  -21.0300   19.9890 N   0  0  0  0  0  0  0  0  0  0  0  0
  -30.9800  -20.3650   19.3000 H   0  0  0  0  0  0  0  0  0  0  0  0
  -30.4860  -21.9770   19.6990 H   0  0  0  0  0  0  0  0  0  0  0  0
  -32.7530  -17.8320   22.5600 C   0  0  0  0  0  3  0  0  0  0  0  0
  -32.2520  -19.1170   22.2810 C   0  0  0  0  0  3  0  0  0  0  0  0
  -32.0650  -16.6940   22.1060 C   0  0  0  0  0  3  0  0  0  0  0  0
  -30.3390  -18.1230   21.1210 C   0  0  0  0  0  3  0  0  0  0  0  0
  -31.0490  -19.2710   21.5630 C   0  0  0  0  0  0  0  0  0  0  0  0
  -30.8640  -16.8260   21.3690 C   0  0  0  0  0  0  0  0  0  0  0  0
  -30.7600  -14.6880   20.1610 C   0  0  0  0  0  0  0  0  0  0  0  0
  -30.3610  -12.5890   18.9270 C   0  0  0  0  0  2  0  0  0  0  0  0
  -29.3560  -12.8230   17.7840 C   0  0  0  0  0  2  0  0  0  0  0  0
  -27.9090  -12.6700   18.2900 C   0  0  0  0  0  2  0  0  0  0  0  0
  -27.6420  -13.4710   19.5920 C   0  0  0  0  0  3  0  0  0  0  0  0
  -28.7550  -13.2260   20.6350 C   0  0  0  0  0  2  0  0  0  0  0  0
  -30.0450  -13.5420   20.0010 N   0  0  0  0  0  0  0  0  0  0  0  0
  -31.8290  -14.8880   19.5740 O   0  0  0  0  0  0  0  0  0  0  0  0
  -30.1930  -15.6540   20.9090 N   0  0  0  0  0  0  0  0  0  0  0  0
  -29.2380  -15.5150   21.2030 H   0  0  0  0  0  0  0  0  0  0  0  0
  -25.2860  -14.0550   20.4430 C   0  0  0  0  0  0  0  0  0  0  0  0
  -24.2380  -13.2720   20.8460 C   0  0  0  0  0  0  0  0  0  0  0  0
  -24.6960  -11.9220   20.7500 C   0  0  0  0  0  0  0  0  0  0  0  0
  -26.3170  -13.1820   20.1340 N   0  0  0  0  0  0  0  0  0  0  0  0
  -25.9670  -11.8910   20.3740 N   0  0  0  0  0  0  0  0  0  0  0  0
  -23.9770  -10.6540   20.9410 C   0  0  0  0  0  0  0  0  0  0  0  0
  -24.4130   -9.6950   21.8810 C   0  0  0  0  0  3  0  0  0  0  0  0
  -23.6950   -8.4930   22.0610 C   0  0  0  0  0  3  0  0  0  0  0  0
  -22.5300   -8.2410   21.2980 C   0  0  0  0  0  0  0  0  0  0  0  0
  -22.1150   -9.1880   20.3470 C   0  0  0  0  0  3  0  0  0  0  0  0
  -22.8330  -10.3820   20.1650 C   0  0  0  0  0  3  0  0  0  0  0  0
  -21.7850   -7.0890   21.3860 O   0  0  0  0  0  0  0  0  0  0  0  0
  -21.6870   -6.3830   22.5570 C   0  0  0  0  0  0  0  0  0  0  0  0
  -21.1990   -6.9720   23.7450 C   0  0  0  0  0  3  0  0  0  0  0  0
  -21.0500   -6.1900   24.9070 C   0  0  0  0  0  3  0  0  0  0  0  0
  -21.3790   -4.8210   24.8850 C   0  0  0  0  0  0  0  0  0  0  0  0
  -21.8600   -4.2320   23.7030 C   0  0  0  0  0  3  0  0  0  0  0  0
  -22.0100   -5.0110   22.5410 C   0  0  0  0  0  0  0  0  0  0  0  0
  -22.4550   -4.4340   21.3990 F   0  0  0  0  0  0  0  0  0  0  0  0
  -21.2280   -4.0690   26.0000 F   0  0  0  0  0  0  0  0  0  0  0  0
  -22.8580  -13.7400   21.2060 C   0  0  0  0  0  0  0  0  0  0  0  0
  -22.1830  -13.0270   22.1010 N   0  0  0  0  0  0  0  0  0  0  0  0
  -22.3890  -14.7740   20.7310 O   0  0  0  0  0  0  0  0  0  0  0  0
  -22.5750  -12.1890   22.5020 H   0  0  0  0  0  0  0  0  0  0  0  0
  -21.2590  -13.3210   22.3840 H   0  0  0  0  0  0  0  0  0  0  0  0
  -25.4430  -15.4310   20.2950 N   0  0  0  0  0  0  0  0  0  0  0  0
  -24.6820  -16.0820   20.4520 H   0  0  0  0  0  0  0  0  0  0  0  0
  -26.2680  -15.8740   19.9100 H   0  0  0  0  0  0  0  0  0  0  0  0
  -28.8770  -23.4010   21.0480 C   0  0  0  0  0  2  0  0  0  0  0  0
  -29.2110  -24.6930   20.2780 C   0  0  0  0  0  0  0  0  0  0  0  0
  -29.9160  -24.6410   19.2650 O   0  0  0  0  0  0  0  0  0  0  0  0
  -29.6230  -26.6570   21.8330 C   0  0  0  0  0  1  0  0  0  0  0  0
  -28.6600  -26.0350   20.8080 C   0  0  0  0  0  3  0  0  0  0  0  0
  -28.4920  -26.9830   19.7380 O   0  0  0  0  0  0  0  0  0  0  0  0
  -24.7010  -31.8430   23.3130 C   0  0  0  0  0  0  0  0  0  0  0  0
  -27.3300  -27.7130   19.8300 C   0  0  0  0  0  0  0  0  0  0  0  0
  -23.4730  -30.5550   21.5960 C   0  0  0  0  0  3  0  0  0  0  0  0
  -24.9130  -29.1610   20.0140 C   0  0  0  0  0  0  0  0  0  0  0  0
  -25.9850  -30.9760   21.3620 C   0  0  0  0  0  2  0  0  0  0  0  0
  -26.0770  -29.6620   20.6130 C   0  0  0  0  0  0  0  0  0  0  0  0
  -27.2890  -28.9450   20.5180 C   0  0  0  0  0  3  0  0  0  0  0  0
  -26.1550  -27.2230   19.2230 C   0  0  0  0  0  3  0  0  0  0  0  0
  -24.9470  -27.9400   19.3160 C   0  0  0  0  0  3  0  0  0  0  0  0
  -23.6570  -29.9900   20.1610 C   0  0  0  0  0  2  0  0  0  0  0  0
  -24.7380  -31.1350   22.1490 N   0  0  0  0  0  0  0  0  0  0  0  0
  -23.6330  -32.0490   23.9050 O   0  0  0  0  0  0  0  0  0  0  0  0
  -22.8650  -29.4490   22.4910 C   0  0  0  0  0  0  0  0  0  0  0  0
  -21.5470  -29.2300   22.3580 N   0  0  0  0  0  0  0  0  0  0  0  0
  -23.5750  -28.7950   23.2580 O   0  0  0  0  0  0  0  0  0  0  0  0
  -21.0330  -29.8160   21.7150 H   0  0  0  0  0  0  0  0  0  0  0  0
  -18.2280  -27.8530   22.7480 C   0  0  0  0  0  0  0  0  0  0  0  0
  -20.7670  -28.2140   23.0660 C   0  0  0  0  0  3  0  0  0  0  0  0
  -20.9430  -26.8230   22.4150 C   0  0  0  0  0  2  0  0  0  0  0  0
  -19.8690  -26.5070   21.3710 C   0  0  0  0  0  2  0  0  0  0  0  0
  -18.4750  -26.5510   22.0040 C   0  0  0  0  0  2  0  0  0  0  0  0
  -19.3050  -28.6410   23.2320 C   0  0  0  0  0  0  0  0  0  0  0  0
  -19.0220  -29.8600   23.8840 C   0  0  0  0  0  3  0  0  0  0  0  0
  -17.6940  -30.2910   24.0630 C   0  0  0  0  0  3  0  0  0  0  0  0
  -16.6310  -29.4980   23.5980 C   0  0  0  0  0  3  0  0  0  0  0  0
  -16.8980  -28.2830   22.9440 C   0  0  0  0  0  3  0  0  0  0  0  0
  -25.9950  -32.4460   23.9460 C   0  0  0  0  0  3  0  0  0  0  0  0
  -26.5380  -31.6130   25.1710 C   0  0  1  0  0  0  0  0  0  0  0  0
  -25.4630  -31.3070   26.2410 C   0  0  0  0  0  1  0  0  0  0  0  0
  -27.1250  -30.2630   24.6960 C   0  0  0  0  0  1  0  0  0  0  0  0
  -27.6910  -32.3810   25.8600 C   0  0  0  0  0  1  0  0  0  0  0  0
  -25.6880  -33.8250   24.3520 N   0  0  0  0  0  0  0  0  0  0  0  0
  -26.0280  -34.9160   23.6530 C   0  0  0  0  0  0  0  0  0  0  0  0
  -26.7040  -34.8680   22.6210 O   0  0  0  0  0  0  0  0  0  0  0  0
  -25.0840  -33.9360   25.1530 H   0  0  0  0  0  0  0  0  0  0  0  0
  -24.3050  -36.7300   23.3850 C   0  0  0  0  0  1  0  0  0  0  0  0
  -25.5400  -36.2800   24.1830 C   0  0  0  0  0  3  0  0  0  0  0  0
  -27.6710  -37.1060   25.0740 C   0  0  0  0  0  1  0  0  0  0  0  0
  -26.5750  -37.3340   24.1360 N   0  0  0  0  0  0  0  0  0  0  0  0
  -26.1720  -38.2450   24.3360 H   0  0  0  0  0  0  0  0  0  0  0  0
  1  7  1  0
  1 14  1  0
  1  6  1  0
  3  2  1  0
  4  2  1  0
  5 54  1  0
  5  6  1  0
  5  3  1  0
  6  4  1  0
  8  7  1  0
  9  7  1  0
 11 10  1  0
 12 10  2  0
 13 15  2  0
 13 14  1  0
 14 11  2  0
 15 12  1  0
 16 24  1  0
 17 22  1  0
 18 19  1  0
 18 17  1  0
 20 19  1  0
 20 29  1  0
 20 21  1  0
 22 16  1  0
 22 21  1  0
 23 16  2  0
 24 25  1  0
 24 15  1  0
 26 27  2  0
 27 46  1  0
 28 27  1  0
 28 31  1  0
 29 30  1  0
 29 26  1  0
 30 28  2  0
 31 32  1  0
 32 33  2  0
 34 37  1  0
 34 33  1  0
 35 34  2  0
 36 35  1  0
 36 31  2  0
 37 38  1  0
 38 39  1  0
 39 40  2  0
 41 40  1  0
 41 45  1  0
 42 41  2  0
 43 38  2  0
 43 42  1  0
 44 43  1  0
 46 47  1  0
 47 50  1  0
 47 49  1  0
 48 46  2  0
 51 26  1  0
 51 52  1  0
 53 51  1  0
 55 58  1  0
 55 54  1  0
 56 55  2  0
 58 57  1  0
 59 61  1  0
 59 58  1  0
 60 71  2  0
 61 66  1  0
 62 70  1  0
 62 72  1  0
 63 69  1  0
 63 65  1  0
 64 70  1  0
 65 64  1  0
 66 65  2  0
 67 68  1  0
 67 61  2  0
 68 63  2  0
 69 62  1  0
 70 60  1  0
 72 74  2  0
 73 72  1  0
 75 73  1  0
 76 85  2  0
 76 81  1  0
 77 73  1  0
 77 81  1  0
 78 77  1  0
 79 80  1  0
 79 78  1  0
 80 76  1  0
 81 82  2  0
 82 83  1  0
 84 83  2  0
 85 84  1  0
 86 60  1  0
 86 91  1  0
 86 87  1  0
 87 90  1  1
 87 88  1  0
 89 87  1  0
 91 94  1  0
 92 96  1  0
 92 91  1  0
 93 92  2  0
 96 95  1  0
 98 96  1  0
 98 99  1  0
 98 97  1  0
M  ISO  4  16 100  24 100  58 101  59 101
M  END
>  <TORSDO>  (43) 
F 20

>  <SCORE>  (43) 
-9.804

>  <name>  (43) 
42

>  <ligand_id>  (43) 
42

>  <original_smiles>  (43) 
[H]c1c([H])c(C(N2C([H])([H])C([H])([H])C([H])([H])C2([H])C([H])([H])C(=O)C([H])(Oc2c([H])c([H])c3c(c2[H])C([H])([H])N(C(=O)C([H])(N([H])C(=O)C([H])(N([H])C([H])([H])[H])C([H])([H])[H])C(C([H])([H])[H])(C([H])([H])[H])C([H])([H])[H])C([H])(C(=O)N([H])C2([H])c4c([H])c([H])c([H])c([H])c4C([H])([H])C([H])([H])C2([H])[H])C3([H])[H])C([H])([H])[H])=[N+]([H])[H])c([H])c(N([H])C(=O)N2C([H])([H])C([H])([H])C([H])([H])C([H])(n3nc(-c4c([H])c([H])c(Oc5c([H])c([H])c(F)c([H])c5F)c([H])c4[H])c(C(=O)N([H])[H])c3N([H])[H])C2([H])[H])c1[H]

>  <smiles>  (43) 
[H]c1c([H])c(C(N2C([H])([H])C([H])([H])C([H])([H])C2([H])C([H])([H])C(=O)C([H])(Oc2c([H])c([H])c3c(c2[H])C([H])([H])N(C(=O)C([H])(N([H])C(=O)C([H])(N([H])C([H])([H])[H])C([H])([H])[H])C(C([H])([H])[H])(C([H])([H])[H])C([H])([H])[H])C([H])(C(=O)N([H])C2([H])c4c([H])c([H])c([H])c([H])c4C([H])([H])C([H])([H])C2([H])[H])C3([H])[H])C([H])([H])[H])=[N+]([H])[H])c([H])c(N([H])C(=O)N2C([H])([H])C([H])([H])C([H])([H])C([H])(n3nc(-c4c([H])c([H])c(Oc5c([H])c([H])c(F)c([H])c5F)c([H])c4[H])c(C(=O)N([H])[H])c3N([H])[H])C2([H])[H])c1[H]

$$$$
43:0:0
     RDKit          3D

 98107  0  0  1  0  0  0  0  0999 V2000
  -31.5440  -21.8060   24.8260 C   0  0  0  0  0  2  0  0  0  0  0  0
  -31.1610  -20.3540   24.5920 C   0  0  0  0  0  2  0  0  0  0  0  0
  -31.8570  -22.2600   23.4040 C   0  0  0  0  0  2  0  0  0  0  0  0
  -30.4050  -20.3920   23.2480 C   0  0  0  0  0  3  0  0  0  0  0  0
  -30.8090  -21.6510   22.5420 N   0  0  1  0  0  4  0  0  0  0  0  0
  -31.2220  -21.4250   21.6490 H   0  0  0  0  0  0  0  0  0  0  0  0
  -29.3830  -18.3740   22.0930 C   0  0  0  0  0  3  0  0  0  0  0  0
  -31.8090  -18.4840   22.2070 C   0  0  0  0  0  3  0  0  0  0  0  0
  -29.4670  -17.0740   21.5640 C   0  0  0  0  0  3  0  0  0  0  0  0
  -31.8970  -17.1790   21.6620 C   0  0  0  0  0  3  0  0  0  0  0  0
  -30.5490  -19.0820   22.4600 C   0  0  0  0  0  0  0  0  0  0  0  0
  -30.7180  -16.4580   21.3620 C   0  0  0  0  0  0  0  0  0  0  0  0
  -30.9340  -14.5550   19.7790 C   0  0  0  0  0  0  0  0  0  0  0  0
  -30.4260  -12.5830   18.3710 C   0  0  0  0  0  2  0  0  0  0  0  0
  -29.3420  -12.8990   17.3230 C   0  0  0  0  0  2  0  0  0  0  0  0
  -27.9310  -12.7000   17.9110 C   0  0  0  0  0  2  0  0  0  0  0  0
  -27.7530  -13.4350   19.2650 C   0  0  0  0  0  3  0  0  0  0  0  0
  -28.9220  -13.1020   20.2170 C   0  0  0  0  0  2  0  0  0  0  0  0
  -30.2000  -13.4360   19.5460 N   0  0  0  0  0  0  0  0  0  0  0  0
  -31.8180  -14.9670   19.0190 O   0  0  0  0  0  0  0  0  0  0  0  0
  -30.7040  -15.0920   20.9840 N   0  0  0  0  0  0  0  0  0  0  0  0
  -30.0740  -14.5180   21.5240 H   0  0  0  0  0  0  0  0  0  0  0  0
  -25.4390  -13.9870   20.2600 C   0  0  0  0  0  0  0  0  0  0  0  0
  -24.4210  -13.1870   20.7070 C   0  0  0  0  0  0  0  0  0  0  0  0
  -24.8780  -11.8440   20.5520 C   0  0  0  0  0  0  0  0  0  0  0  0
  -26.4560  -13.1280   19.8700 N   0  0  0  0  0  0  0  0  0  0  0  0
  -26.1230  -11.8300   20.0970 N   0  0  0  0  0  0  0  0  0  0  0  0
  -24.1780  -10.5660   20.7560 C   0  0  0  0  0  0  0  0  0  0  0  0
  -24.6490   -9.6040   21.6770 C   0  0  0  0  0  3  0  0  0  0  0  0
  -23.9500   -8.3920   21.8670 C   0  0  0  0  0  3  0  0  0  0  0  0
  -22.7650   -8.1350   21.1370 C   0  0  0  0  0  0  0  0  0  0  0  0
  -22.3120   -9.0860   20.2070 C   0  0  0  0  0  3  0  0  0  0  0  0
  -23.0140  -10.2890   20.0140 C   0  0  0  0  0  3  0  0  0  0  0  0
  -22.0340   -6.9760   21.2380 O   0  0  0  0  0  0  0  0  0  0  0  0
  -21.8950   -6.3150   22.4330 C   0  0  0  0  0  0  0  0  0  0  0  0
  -21.3710   -6.9490   23.5800 C   0  0  0  0  0  3  0  0  0  0  0  0
  -21.1810   -6.2130   24.7670 C   0  0  0  0  0  3  0  0  0  0  0  0
  -21.5070   -4.8450   24.8060 C   0  0  0  0  0  0  0  0  0  0  0  0
  -22.0240   -4.2090   23.6630 C   0  0  0  0  0  3  0  0  0  0  0  0
  -22.2160   -4.9430   22.4800 C   0  0  0  0  0  0  0  0  0  0  0  0
  -22.6950   -4.3210   21.3750 F   0  0  0  0  0  0  0  0  0  0  0  0
  -21.3160   -4.1350   25.9440 F   0  0  0  0  0  0  0  0  0  0  0  0
  -23.0620  -13.6390   21.1610 C   0  0  0  0  0  0  0  0  0  0  0  0
  -22.4520  -12.9120   22.0910 N   0  0  0  0  0  0  0  0  0  0  0  0
  -22.5520  -14.6710   20.7260 O   0  0  0  0  0  0  0  0  0  0  0  0
  -22.8780  -12.0780   22.4660 H   0  0  0  0  0  0  0  0  0  0  0  0
  -21.5460  -13.1950   22.4350 H   0  0  0  0  0  0  0  0  0  0  0  0
  -25.5790  -15.3670   20.1400 N   0  0  0  0  0  0  0  0  0  0  0  0
  -24.8250  -16.0080   20.3560 H   0  0  0  0  0  0  0  0  0  0  0  0
  -26.3870  -15.8270   19.7350 H   0  0  0  0  0  0  0  0  0  0  0  0
  -29.6440  -22.5610   22.2780 C   0  0  0  0  0  2  0  0  0  0  0  0
  -30.0030  -23.7880   21.3960 C   0  0  0  0  0  0  0  0  0  0  0  0
  -31.1090  -23.8480   20.8500 O   0  0  0  0  0  0  0  0  0  0  0  0
  -28.1150  -25.1730   22.4310 C   0  0  0  0  0  1  0  0  0  0  0  0
  -27.9350  -24.2920   20.0910 C   0  0  0  0  0  1  0  0  0  0  0  0
  -28.9120  -24.8810   21.1350 C   0  0  2  0  0  0  0  0  0  0  0  0
  -29.5250  -26.2620   20.6540 C   0  0  0  0  0  2  0  0  0  0  0  0
  -28.9530  -26.8350   19.4660 O   0  0  0  0  0  0  0  0  0  0  0  0
  -24.7440  -31.3780   23.0690 C   0  0  0  0  0  0  0  0  0  0  0  0
  -27.7570  -27.5080   19.5930 C   0  0  0  0  0  0  0  0  0  0  0  0
  -23.6710  -30.0910   21.2480 C   0  0  0  0  0  3  0  0  0  0  0  0
  -25.2590  -28.8330   19.7000 C   0  0  0  0  0  0  0  0  0  0  0  0
  -26.1630  -30.6500   21.1520 C   0  0  0  0  0  2  0  0  0  0  0  0
  -26.3620  -29.3600   20.3840 C   0  0  0  0  0  0  0  0  0  0  0  0
  -27.6110  -28.7000   20.3400 C   0  0  0  0  0  3  0  0  0  0  0  0
  -26.6440  -27.0120   18.8800 C   0  0  0  0  0  3  0  0  0  0  0  0
  -25.3950  -27.6540   18.9470 C   0  0  0  0  0  3  0  0  0  0  0  0
  -23.9570  -29.5960   19.8040 C   0  0  0  0  0  2  0  0  0  0  0  0
  -24.8750  -30.7140   21.8840 N   0  0  0  0  0  0  0  0  0  0  0  0
  -23.6380  -31.5070   23.6100 O   0  0  0  0  0  0  0  0  0  0  0  0
  -23.0830  -28.9210   22.0680 C   0  0  0  0  0  0  0  0  0  0  0  0
  -21.7780  -28.6600   21.8890 N   0  0  0  0  0  0  0  0  0  0  0  0
  -23.7980  -28.2600   22.8260 O   0  0  0  0  0  0  0  0  0  0  0  0
  -21.2600  -29.2520   21.2550 H   0  0  0  0  0  0  0  0  0  0  0  0
  -18.4950  -27.1790   22.1700 C   0  0  0  0  0  0  0  0  0  0  0  0
  -21.0210  -27.5850   22.5330 C   0  0  0  0  0  3  0  0  0  0  0  0
  -21.2390  -26.2410   21.8020 C   0  0  0  0  0  2  0  0  0  0  0  0
  -20.1810  -25.9570   20.7310 C   0  0  0  0  0  2  0  0  0  0  0  0
  -18.7820  -25.9300   21.3530 C   0  0  0  0  0  2  0  0  0  0  0  0
  -19.5470  -27.9640   22.7110 C   0  0  0  0  0  0  0  0  0  0  0  0
  -19.2280  -29.1340   23.4330 C   0  0  0  0  0  3  0  0  0  0  0  0
  -17.8870  -29.5220   23.6210 C   0  0  0  0  0  3  0  0  0  0  0  0
  -16.8490  -28.7330   23.0950 C   0  0  0  0  0  3  0  0  0  0  0  0
  -17.1530  -27.5640   22.3780 C   0  0  0  0  0  3  0  0  0  0  0  0
  -25.9710  -32.0270   23.7830 C   0  0  0  0  0  3  0  0  0  0  0  0
  -25.5930  -33.3920   24.1650 N   0  0  0  0  0  0  0  0  0  0  0  0
  -25.9130  -34.4920   23.4700 C   0  0  0  0  0  0  0  0  0  0  0  0
  -26.6320  -34.4660   22.4670 O   0  0  0  0  0  0  0  0  0  0  0  0
  -24.9610  -33.4850   24.9480 H   0  0  0  0  0  0  0  0  0  0  0  0
  -24.1240  -36.2220   23.1180 C   0  0  0  0  0  1  0  0  0  0  0  0
  -25.3460  -35.8350   23.9670 C   0  0  0  0  0  3  0  0  0  0  0  0
  -27.4010  -36.7650   24.9370 C   0  0  0  0  0  1  0  0  0  0  0  0
  -26.3350  -36.9350   23.9530 N   0  0  0  0  0  0  0  0  0  0  0  0
  -25.8820  -37.8290   24.1250 H   0  0  0  0  0  0  0  0  0  0  0  0
  -26.4610  -31.2080   25.0400 C   0  0  1  0  0  0  0  0  0  0  0  0
  -25.3300  -30.8720   26.0380 C   0  0  0  0  0  1  0  0  0  0  0  0
  -27.1170  -29.8780   24.6010 C   0  0  0  0  0  1  0  0  0  0  0  0
  -27.5450  -32.0090   25.7990 C   0  0  0  0  0  1  0  0  0  0  0  0
  2  1  1  0
  3  1  1  0
  4 11  1  0
  4  2  1  0
  5  4  1  0
  5  3  1  0
  5  6  1  6
  7 11  1  0
  8 11  2  0
  9  7  2  0
 10  8  1  0
 12  9  1  0
 12 10  2  0
 13 21  1  0
 14 19  1  0
 15 16  1  0
 15 14  1  0
 17 16  1  0
 17 26  1  0
 17 18  1  0
 19 13  1  0
 19 18  1  0
 20 13  2  0
 21 12  1  0
 21 22  1  0
 23 24  2  0
 24 43  1  0
 25 24  1  0
 25 28  1  0
 26 27  1  0
 26 23  1  0
 27 25  2  0
 28 29  1  0
 29 30  2  0
 31 34  1  0
 31 30  1  0
 32 31  2  0
 33 32  1  0
 33 28  2  0
 34 35  1  0
 35 40  2  0
 35 36  1  0
 36 37  2  0
 37 38  1  0
 38 42  1  0
 39 38  2  0
 40 39  1  0
 41 40  1  0
 43 44  1  0
 44 47  1  0
 44 46  1  0
 45 43  2  0
 48 23  1  0
 48 49  1  0
 50 48  1  0
 51  5  1  0
 52 51  1  0
 53 52  2  0
 56 55  1  6
 56 52  1  0
 56 54  1  0
 57 56  1  0
 58 60  1  0
 58 57  1  0
 59 70  2  0
 60 65  1  0
 61 69  1  0
 61 71  1  0
 62 68  1  0
 62 64  1  0
 63 69  1  0
 64 63  1  0
 65 64  2  0
 66 67  1  0
 66 60  2  0
 67 62  2  0
 68 61  1  0
 69 59  1  0
 71 73  2  0
 72 71  1  0
 74 72  1  0
 75 84  2  0
 75 80  1  0
 76 72  1  0
 76 80  1  0
 77 76  1  0
 78 79  1  0
 78 77  1  0
 79 75  1  0
 80 81  2  0
 81 82  1  0
 83 82  2  0
 84 83  1  0
 85 59  1  0
 85 86  1  0
 85 95  1  0
 86 89  1  0
 87 91  1  0
 87 86  1  0
 88 87  2  0
 91 90  1  0
 93 91  1  0
 93 94  1  0
 93 92  1  0
 95 98  1  1
 95 96  1  0
 97 95  1  0
M  ISO  4  13 100  21 100  57 101  58 101
M  END
>  <TORSDO>  (44) 
F 21

>  <SCORE>  (44) 
-7.667

>  <name>  (44) 
43

>  <ligand_id>  (44) 
43

>  <original_smiles>  (44) 
[H]c1c([H])c([H])c2c(c1[H])C([H])([H])C([H])([H])C([H])([H])C2([H])N([H])C(=O)C1([H])N(C(=O)C([H])(N([H])C(=O)C([H])(N([H])C([H])([H])[H])C([H])([H])[H])C(C([H])([H])[H])(C([H])([H])[H])C([H])([H])[H])C([H])([H])c2c([H])c(OC([H])([H])C(C(=O)C([H])([H])[N+]3([H])C([H])([H])C([H])([H])C([H])([H])C3([H])c3c([H])c([H])c(N([H])C(=O)N4C([H])([H])C([H])([H])C([H])([H])C([H])(n5nc(-c6c([H])c([H])c(Oc7c([H])c([H])c(F)c([H])c7F)c([H])c6[H])c(C(=O)N([H])[H])c5N([H])[H])C4([H])[H])c([H])c3[H])(C([H])([H])[H])C([H])([H])[H])c([H])c([H])c2C1([H])[H]

>  <smiles>  (44) 
[H]c1c([H])c([H])c2c(c1[H])C([H])([H])C([H])([H])C([H])([H])C2([H])N([H])C(=O)C1([H])N(C(=O)C([H])(N([H])C(=O)C([H])(N([H])C([H])([H])[H])C([H])([H])[H])C(C([H])([H])[H])(C([H])([H])[H])C([H])([H])[H])C([H])([H])c2c([H])c(OC([H])([H])C(C(=O)C([H])([H])[N+]3([H])C([H])([H])C([H])([H])C([H])([H])C3([H])c3c([H])c([H])c(N([H])C(=O)N4C([H])([H])C([H])([H])C([H])([H])C([H])(n5nc(-c6c([H])c([H])c(Oc7c([H])c([H])c(F)c([H])c7F)c([H])c6[H])c(C(=O)N([H])[H])c5N([H])[H])C4([H])[H])c([H])c3[H])(C([H])([H])[H])C([H])([H])[H])c([H])c([H])c2C1([H])[H]

$$$$
44:0:0
     RDKit          3D

 94103  0  0  1  0  0  0  0  0999 V2000
  -30.7100  -18.3640   21.1970 C   0  0  0  0  0  3  0  0  0  0  0  0
  -30.5790  -19.8340   21.1930 C   0  0  0  0  0  0  0  0  0  0  0  0
  -29.5410  -20.4100   20.4600 C   0  0  0  0  0  0  0  0  0  0  0  0
  -29.7800  -17.6140   20.4960 C   0  0  0  0  0  0  0  0  0  0  0  0
  -31.5850  -20.7120   21.8790 C   0  0  0  0  0  2  0  0  0  0  0  0
  -31.1420  -22.1860   21.9060 C   0  0  0  0  0  2  0  0  0  0  0  0
  -29.4390  -22.0430   20.0900 C   0  0  2  0  0  0  0  0  0  0  0  0
  -29.4600  -22.1040   18.5520 C   0  0  0  0  0  1  0  0  0  0  0  0
  -30.7210  -22.6280   20.5580 N   0  0  0  0  0  4  0  0  0  0  0  0
  -28.6750  -18.9280   19.8200 S   0  0  0  0  0  0  0  0  0  0  0  0
  -31.4460  -22.3650   19.9120 H   0  0  0  0  0  0  0  0  0  0  0  0
  -30.6560  -23.6330   20.5390 H   0  0  0  0  0  0  0  0  0  0  0  0
  -30.4580  -15.0230   20.3360 C   0  0  0  0  0  0  0  0  0  0  0  0
  -30.3620  -12.6760   19.3590 C   0  0  0  0  0  2  0  0  0  0  0  0
  -29.4160  -12.6340   18.1360 C   0  0  0  0  0  2  0  0  0  0  0  0
  -27.9550  -12.4170   18.5780 C   0  0  0  0  0  2  0  0  0  0  0  0
  -27.5550  -13.3300   19.7660 C   0  0  0  0  0  3  0  0  0  0  0  0
  -28.6180  -13.3280   20.8830 C   0  0  0  0  0  2  0  0  0  0  0  0
  -29.8800  -13.7560   20.2650 N   0  0  0  0  0  0  0  0  0  0  0  0
  -31.6710  -15.1020   20.1050 O   0  0  0  0  0  0  0  0  0  0  0  0
  -29.6200  -16.1780   20.3950 N   0  0  0  0  0  0  0  0  0  0  0  0
  -28.6520  -15.9040   20.3390 H   0  0  0  0  0  0  0  0  0  0  0  0
  -25.1770  -13.9070   20.5140 C   0  0  0  0  0  0  0  0  0  0  0  0
  -24.1160  -13.1300   20.8870 C   0  0  0  0  0  0  0  0  0  0  0  0
  -24.5840  -11.7800   20.8580 C   0  0  0  0  0  0  0  0  0  0  0  0
  -26.2210  -13.0300   20.2710 N   0  0  0  0  0  0  0  0  0  0  0  0
  -25.8740  -11.7460   20.5460 N   0  0  0  0  0  0  0  0  0  0  0  0
  -23.8600  -10.5170   21.0500 C   0  0  0  0  0  0  0  0  0  0  0  0
  -24.3010   -9.5460   21.9770 C   0  0  0  0  0  3  0  0  0  0  0  0
  -23.5760   -8.3480   22.1580 C   0  0  0  0  0  3  0  0  0  0  0  0
  -22.3970   -8.1130   21.4130 C   0  0  0  0  0  0  0  0  0  0  0  0
  -21.9730   -9.0730   20.4770 C   0  0  0  0  0  3  0  0  0  0  0  0
  -22.6990  -10.2620   20.2940 C   0  0  0  0  0  3  0  0  0  0  0  0
  -21.6420   -6.9670   21.5050 O   0  0  0  0  0  0  0  0  0  0  0  0
  -21.6130   -6.2150   22.6500 C   0  0  0  0  0  0  0  0  0  0  0  0
  -21.2140   -6.7620   23.8910 C   0  0  0  0  0  3  0  0  0  0  0  0
  -21.1300   -5.9360   25.0290 C   0  0  0  0  0  3  0  0  0  0  0  0
  -21.4350   -4.5650   24.9300 C   0  0  0  0  0  0  0  0  0  0  0  0
  -21.8280   -4.0180   23.6960 C   0  0  0  0  0  3  0  0  0  0  0  0
  -21.9120   -4.8410   22.5590 C   0  0  0  0  0  0  0  0  0  0  0  0
  -22.2700   -4.3050   21.3670 F   0  0  0  0  0  0  0  0  0  0  0  0
  -21.3480   -3.7700   26.0220 F   0  0  0  0  0  0  0  0  0  0  0  0
  -22.7180  -13.6050   21.1580 C   0  0  0  0  0  0  0  0  0  0  0  0
  -21.9910  -12.9090   22.0250 N   0  0  0  0  0  0  0  0  0  0  0  0
  -22.2790  -14.6280   20.6350 O   0  0  0  0  0  0  0  0  0  0  0  0
  -22.3590  -12.0810   22.4690 H   0  0  0  0  0  0  0  0  0  0  0  0
  -21.0520  -13.2100   22.2490 H   0  0  0  0  0  0  0  0  0  0  0  0
  -25.3330  -15.2780   20.3320 N   0  0  0  0  0  0  0  0  0  0  0  0
  -24.5550  -15.9200   20.4390 H   0  0  0  0  0  0  0  0  0  0  0  0
  -26.1590  -15.7210   19.9540 H   0  0  0  0  0  0  0  0  0  0  0  0
  -28.2580  -23.1880   20.5170 C   0  0  0  0  0  2  0  0  0  0  0  0
  -27.6280  -25.0670   22.2700 C   0  0  0  0  0  1  0  0  0  0  0  0
  -28.4110  -24.8470   20.9590 C   0  0  0  0  0  3  0  0  0  0  0  0
  -28.3270  -26.2250   20.2180 O   0  0  0  0  0  0  0  0  0  0  0  0
  -24.6230  -31.8980   23.2380 C   0  0  0  0  0  0  0  0  0  0  0  0
  -27.2370  -27.1740   20.2570 C   0  0  0  0  0  0  0  0  0  0  0  0
  -23.4360  -30.4850   21.6030 C   0  0  0  0  0  3  0  0  0  0  0  0
  -24.8980  -28.9010   20.1990 C   0  0  0  0  0  0  0  0  0  0  0  0
  -25.9870  -30.7640   21.4410 C   0  0  0  0  0  2  0  0  0  0  0  0
  -26.0720  -29.3640   20.8050 C   0  0  0  0  0  0  0  0  0  0  0  0
  -27.2460  -28.5190   20.8100 C   0  0  0  0  0  3  0  0  0  0  0  0
  -26.0360  -26.8040   19.6220 C   0  0  0  0  0  3  0  0  0  0  0  0
  -24.8910  -27.6340   19.5920 C   0  0  0  0  0  3  0  0  0  0  0  0
  -23.6650  -29.7940   20.2320 C   0  0  0  0  0  2  0  0  0  0  0  0
  -24.7020  -31.0720   22.1490 N   0  0  0  0  0  0  0  0  0  0  0  0
  -23.5340  -32.1790   23.7610 O   0  0  0  0  0  0  0  0  0  0  0  0
  -22.7590  -29.4820   22.5710 C   0  0  0  0  0  0  0  0  0  0  0  0
  -21.4310  -29.3110   22.4460 N   0  0  0  0  0  0  0  0  0  0  0  0
  -23.4330  -28.8600   23.3960 O   0  0  0  0  0  0  0  0  0  0  0  0
  -20.9440  -29.8650   21.7560 H   0  0  0  0  0  0  0  0  0  0  0  0
  -18.0510  -28.1120   22.9590 C   0  0  0  0  0  0  0  0  0  0  0  0
  -20.6110  -28.3740   23.2200 C   0  0  0  0  0  3  0  0  0  0  0  0
  -20.7110  -26.9420   22.6480 C   0  0  0  0  0  2  0  0  0  0  0  0
  -19.6070  -26.6170   21.6370 C   0  0  0  0  0  2  0  0  0  0  0  0
  -18.2260  -26.7620   22.2830 C   0  0  0  0  0  2  0  0  0  0  0  0
  -19.1710  -28.8760   23.3850 C   0  0  0  0  0  0  0  0  0  0  0  0
  -18.9520  -30.1380   23.9790 C   0  0  0  0  0  3  0  0  0  0  0  0
  -17.6470  -30.6360   24.1510 C   0  0  0  0  0  3  0  0  0  0  0  0
  -16.5420  -29.8700   23.7400 C   0  0  0  0  0  3  0  0  0  0  0  0
  -16.7450  -28.6100   23.1500 C   0  0  0  0  0  3  0  0  0  0  0  0
  -25.8960  -32.5450   23.8660 C   0  0  0  0  0  3  0  0  0  0  0  0
  -25.5750  -33.9450   24.1880 N   0  0  0  0  0  0  0  0  0  0  0  0
  -25.9060  -34.9990   23.4290 C   0  0  0  0  0  0  0  0  0  0  0  0
  -26.5780  -34.8950   22.4000 O   0  0  0  0  0  0  0  0  0  0  0  0
  -24.9770  -34.0980   24.9870 H   0  0  0  0  0  0  0  0  0  0  0  0
  -24.1710  -36.7880   23.0720 C   0  0  0  0  0  1  0  0  0  0  0  0
  -25.4130  -36.3890   23.8850 C   0  0  0  0  0  3  0  0  0  0  0  0
  -27.5450  -37.2840   24.7110 C   0  0  0  0  0  1  0  0  0  0  0  0
  -26.4420  -37.4450   23.7680 N   0  0  0  0  0  0  0  0  0  0  0  0
  -26.0340  -38.3640   23.9130 H   0  0  0  0  0  0  0  0  0  0  0  0
  -26.4040  -31.7880   25.1550 C   0  0  1  0  0  0  0  0  0  0  0  0
  -25.3020  -31.5610   26.2180 C   0  0  0  0  0  1  0  0  0  0  0  0
  -26.9920  -30.4070   24.7860 C   0  0  0  0  0  1  0  0  0  0  0  0
  -27.5480  -32.5910   25.8170 C   0  0  0  0  0  1  0  0  0  0  0  0
  2  1  1  0
  2  5  1  0
  3  2  2  0
  4  1  2  0
  5  6  1  0
  7  8  1  6
  7  3  1  0
  7 51  1  0
  7  9  1  0
  9  6  1  0
 10  3  1  0
 10  4  1  0
 11  9  1  0
 12  9  1  0
 13 21  1  0
 14 19  1  0
 15 16  1  0
 15 14  1  0
 17 16  1  0
 17 26  1  0
 17 18  1  0
 19 13  1  0
 19 18  1  0
 20 13  2  0
 21  4  1  0
 22 21  1  0
 23 24  2  0
 24 43  1  0
 25 24  1  0
 25 28  1  0
 26 23  1  0
 26 27  1  0
 27 25  2  0
 28 29  1  0
 29 30  2  0
 31 34  1  0
 31 30  1  0
 32 31  2  0
 33 32  1  0
 33 28  2  0
 34 35  1  0
 35 36  1  0
 36 37  2  0
 38 37  1  0
 38 42  1  0
 39 38  2  0
 40 35  2  0
 40 39  1  0
 41 40  1  0
 43 44  1  0
 44 47  1  0
 44 46  1  0
 45 43  2  0
 48 49  1  0
 48 23  1  0
 50 48  1  0
 51 53  1  0
 53 52  1  0
 54 56  1  0
 54 53  1  0
 55 66  2  0
 56 61  1  0
 57 65  1  0
 57 67  1  0
 58 64  1  0
 58 60  1  0
 59 65  1  0
 60 61  2  0
 60 59  1  0
 62 56  2  0
 63 62  1  0
 63 58  2  0
 64 57  1  0
 65 55  1  0
 67 69  2  0
 68 67  1  0
 70 68  1  0
 71 80  2  0
 71 76  1  0
 72 68  1  0
 72 76  1  0
 73 72  1  0
 74 75  1  0
 74 73  1  0
 75 71  1  0
 76 77  2  0
 77 78  1  0
 79 78  2  0
 80 79  1  0
 81 55  1  0
 81 82  1  0
 81 91  1  0
 82 85  1  0
 83 87  1  0
 83 82  1  0
 84 83  2  0
 87 86  1  0
 89 87  1  0
 89 90  1  0
 89 88  1  0
 91 94  1  1
 91 92  1  0
 93 91  1  0
M  ISO  4  13 100  21 100  53 101  54 101
M  END
>  <TORSDO>  (45) 
F 18

>  <SCORE>  (45) 
-15.840

>  <name>  (45) 
44

>  <ligand_id>  (45) 
44

>  <original_smiles>  (45) 
[H]c1c([H])c([H])c2c(c1[H])C([H])([H])C([H])([H])C([H])([H])C2([H])N([H])C(=O)C1([H])N(C(=O)C([H])(N([H])C(=O)C([H])(N([H])C([H])([H])[H])C([H])([H])[H])C(C([H])([H])[H])(C([H])([H])[H])C([H])([H])[H])C([H])([H])c2c([H])c(OC([H])(C([H])([H])[H])C([H])([H])C3(C([H])([H])[H])c4sc(N([H])C(=O)N5C([H])([H])C([H])([H])C([H])([H])C([H])(n6nc(-c7c([H])c([H])c(Oc8c([H])c([H])c(F)c([H])c8F)c([H])c7[H])c(C(=O)N([H])[H])c6N([H])[H])C5([H])[H])c([H])c4C([H])([H])C([H])([H])[N+]3([H])[H])c([H])c([H])c2C1([H])[H]

>  <smiles>  (45) 
[H]c1c([H])c([H])c2c(c1[H])C([H])([H])C([H])([H])C([H])([H])C2([H])N([H])C(=O)C1([H])N(C(=O)C([H])(N([H])C(=O)C([H])(N([H])C([H])([H])[H])C([H])([H])[H])C(C([H])([H])[H])(C([H])([H])[H])C([H])([H])[H])C([H])([H])c2c([H])c(OC([H])(C([H])([H])[H])C([H])([H])C3(C([H])([H])[H])c4sc(N([H])C(=O)N5C([H])([H])C([H])([H])C([H])([H])C([H])(n6nc(-c7c([H])c([H])c(Oc8c([H])c([H])c(F)c([H])c8F)c([H])c7[H])c(C(=O)N([H])[H])c6N([H])[H])C5([H])[H])c([H])c4C([H])([H])C([H])([H])[N+]3([H])[H])c([H])c([H])c2C1([H])[H]

$$$$
45:0:0
     RDKit          3D

 97105  0  0  1  0  0  0  0  0999 V2000
  -29.9020  -20.4550   21.3320 C   0  0  0  0  0  0  0  0  0  0  0  0
  -29.0220  -22.6610   20.5040 C   0  0  0  0  0  0  0  0  0  0  0  0
  -29.8790  -21.5140   20.4980 N   0  0  0  0  0  0  0  0  0  0  0  0
  -29.0610  -20.3230   22.3650 N   0  0  0  0  0  4  0  0  0  0  0  0
  -28.1640  -22.8500   21.3720 O   0  0  0  0  0  0  0  0  0  0  0  0
  -30.5660  -21.3900   19.7710 H   0  0  0  0  0  0  0  0  0  0  0  0
  -29.1530  -19.5560   23.0160 H   0  0  0  0  0  0  0  0  0  0  0  0
  -28.3970  -21.0630   22.5570 H   0  0  0  0  0  0  0  0  0  0  0  0
  -33.1660  -18.7990   20.3900 C   0  0  0  0  0  3  0  0  0  0  0  0
  -32.2220  -19.7770   20.7540 C   0  0  0  0  0  3  0  0  0  0  0  0
  -32.7760  -17.4510   20.2790 C   0  0  0  0  0  3  0  0  0  0  0  0
  -30.5120  -18.0460   20.9870 C   0  0  0  0  0  3  0  0  0  0  0  0
  -30.8910  -19.4080   21.0510 C   0  0  0  0  0  0  0  0  0  0  0  0
  -31.4390  -17.0730   20.5420 C   0  0  0  0  0  0  0  0  0  0  0  0
  -31.5120  -14.7910   19.5600 C   0  0  0  0  0  0  0  0  0  0  0  0
  -31.1690  -12.5210   18.6470 C   0  0  0  0  0  2  0  0  0  0  0  0
  -30.1210  -12.5260   17.5180 C   0  0  0  0  0  2  0  0  0  0  0  0
  -28.6870  -12.4280   18.0770 C   0  0  0  0  0  2  0  0  0  0  0  0
  -28.4300  -13.4360   19.2290 C   0  0  0  0  0  3  0  0  0  0  0  0
  -29.5660  -13.3590   20.2720 C   0  0  0  0  0  2  0  0  0  0  0  0
  -30.8420  -13.6100   19.5780 N   0  0  0  0  0  0  0  0  0  0  0  0
  -32.4980  -14.9900   18.8410 O   0  0  0  0  0  0  0  0  0  0  0  0
  -30.9990  -15.7310   20.3770 N   0  0  0  0  0  0  0  0  0  0  0  0
  -30.1270  -15.4810   20.8130 H   0  0  0  0  0  0  0  0  0  0  0  0
  -26.1710  -14.1660   20.2350 C   0  0  0  0  0  0  0  0  0  0  0  0
  -25.1010  -13.4470   20.6910 C   0  0  0  0  0  0  0  0  0  0  0  0
  -25.4530  -12.0720   20.5350 C   0  0  0  0  0  0  0  0  0  0  0  0
  -27.1170  -13.2320   19.8400 N   0  0  0  0  0  0  0  0  0  0  0  0
  -26.6910  -11.9630   20.0720 N   0  0  0  0  0  0  0  0  0  0  0  0
  -24.6630  -10.8520   20.7470 C   0  0  0  0  0  0  0  0  0  0  0  0
  -25.0000   -9.9220   21.7540 C   0  0  0  0  0  3  0  0  0  0  0  0
  -24.2160   -8.7650   21.9510 C   0  0  0  0  0  3  0  0  0  0  0  0
  -23.0790   -8.5320   21.1410 C   0  0  0  0  0  0  0  0  0  0  0  0
  -22.7620   -9.4500   20.1250 C   0  0  0  0  0  3  0  0  0  0  0  0
  -23.5460  -10.5980   19.9260 C   0  0  0  0  0  3  0  0  0  0  0  0
  -22.2740   -7.4240   21.2430 O   0  0  0  0  0  0  0  0  0  0  0  0
  -21.9490   -6.8770   22.4590 C   0  0  0  0  0  0  0  0  0  0  0  0
  -21.2540   -7.6120   23.4440 C   0  0  0  0  0  3  0  0  0  0  0  0
  -20.8790   -6.9910   24.6510 C   0  0  0  0  0  3  0  0  0  0  0  0
  -21.1930   -5.6370   24.8750 C   0  0  0  0  0  0  0  0  0  0  0  0
  -21.8790   -4.9020   23.8920 C   0  0  0  0  0  3  0  0  0  0  0  0
  -22.2560   -5.5210   22.6880 C   0  0  0  0  0  0  0  0  0  0  0  0
  -22.8990   -4.8020   21.7360 F   0  0  0  0  0  0  0  0  0  0  0  0
  -20.8260   -5.0370   26.0310 F   0  0  0  0  0  0  0  0  0  0  0  0
  -23.7840  -13.9990   21.1570 C   0  0  0  0  0  0  0  0  0  0  0  0
  -23.1250  -13.3100   22.0830 N   0  0  0  0  0  0  0  0  0  0  0  0
  -23.3560  -15.0740   20.7380 O   0  0  0  0  0  0  0  0  0  0  0  0
  -23.4850  -12.4390   22.4410 H   0  0  0  0  0  0  0  0  0  0  0  0
  -22.2460  -13.6580   22.4400 H   0  0  0  0  0  0  0  0  0  0  0  0
  -26.4170  -15.5320   20.1060 N   0  0  0  0  0  0  0  0  0  0  0  0
  -25.7130  -16.2290   20.3240 H   0  0  0  0  0  0  0  0  0  0  0  0
  -27.2500  -15.9260   19.6880 H   0  0  0  0  0  0  0  0  0  0  0  0
  -29.2700  -23.6130   19.3260 C   0  0  0  0  0  2  0  0  0  0  0  0
  -28.2140  -24.7280   19.0990 C   0  0  0  0  0  2  0  0  0  0  0  0
  -28.0790  -26.1450   21.2590 C   0  0  0  0  0  1  0  0  0  0  0  0
  -28.5470  -26.0700   19.7920 C   0  0  0  0  0  3  0  0  0  0  0  0
  -28.1500  -27.1800   18.9710 O   0  0  0  0  0  0  0  0  0  0  0  0
  -24.4710  -31.6140   23.1220 C   0  0  0  0  0  0  0  0  0  0  0  0
  -26.9460  -27.7940   19.2130 C   0  0  0  0  0  0  0  0  0  0  0  0
  -23.1460  -30.3750   21.4380 C   0  0  0  0  0  3  0  0  0  0  0  0
  -24.4980  -29.1230   19.6680 C   0  0  0  0  0  0  0  0  0  0  0  0
  -25.6060  -30.9130   21.0170 C   0  0  0  0  0  2  0  0  0  0  0  0
  -25.6850  -29.6410   20.2000 C   0  0  0  0  0  0  0  0  0  0  0  0
  -26.9120  -28.9850   19.9700 C   0  0  0  0  0  3  0  0  0  0  0  0
  -25.7480  -27.2810   18.6740 C   0  0  0  0  0  3  0  0  0  0  0  0
  -24.5250  -27.9450   18.8990 C   0  0  0  0  0  3  0  0  0  0  0  0
  -23.2260  -29.8860   19.9650 C   0  0  0  0  0  2  0  0  0  0  0  0
  -24.4330  -30.9710   21.9200 N   0  0  0  0  0  0  0  0  0  0  0  0
  -23.4470  -31.7520   23.8060 O   0  0  0  0  0  0  0  0  0  0  0  0
  -22.6480  -29.2050   22.3160 C   0  0  0  0  0  0  0  0  0  0  0  0
  -21.3510  -28.8780   22.1950 N   0  0  0  0  0  0  0  0  0  0  0  0
  -23.4230  -28.5960   23.0590 O   0  0  0  0  0  0  0  0  0  0  0  0
  -20.7800  -29.4320   21.5730 H   0  0  0  0  0  0  0  0  0  0  0  0
  -18.1880  -27.1640   22.5150 C   0  0  0  0  0  0  0  0  0  0  0  0
  -20.6700  -27.7850   22.8870 C   0  0  0  0  0  3  0  0  0  0  0  0
  -21.0070  -26.4250   22.2340 C   0  0  0  0  0  2  0  0  0  0  0  0
  -19.9920  -26.0020   21.1690 C   0  0  0  0  0  2  0  0  0  0  0  0
  -18.5870  -25.8990   21.7730 C   0  0  0  0  0  2  0  0  0  0  0  0
  -19.1670  -28.0590   23.0220 C   0  0  0  0  0  0  0  0  0  0  0  0
  -18.7450  -29.2400   23.6700 C   0  0  0  0  0  3  0  0  0  0  0  0
  -17.3760  -29.5280   23.8230 C   0  0  0  0  0  3  0  0  0  0  0  0
  -16.4110  -28.6300   23.3360 C   0  0  0  0  0  3  0  0  0  0  0  0
  -16.8170  -27.4520   22.6840 C   0  0  0  0  0  3  0  0  0  0  0  0
  -25.7910  -32.2290   23.6810 C   0  0  0  0  0  3  0  0  0  0  0  0
  -26.3740  -31.4230   24.9040 C   0  0  1  0  0  0  0  0  0  0  0  0
  -25.3340  -31.1240   26.0090 C   0  0  0  0  0  1  0  0  0  0  0  0
  -26.9590  -30.0720   24.4300 C   0  0  0  0  0  1  0  0  0  0  0  0
  -27.5430  -32.2130   25.5420 C   0  0  0  0  0  1  0  0  0  0  0  0
  -25.5100  -33.6200   24.0590 N   0  0  0  0  0  0  0  0  0  0  0  0
  -25.8400  -34.6880   23.3190 C   0  0  0  0  0  0  0  0  0  0  0  0
  -26.4830  -34.6050   22.2690 O   0  0  0  0  0  0  0  0  0  0  0  0
  -24.9430  -33.7610   24.8810 H   0  0  0  0  0  0  0  0  0  0  0  0
  -24.1350  -36.5180   23.0510 C   0  0  0  0  0  1  0  0  0  0  0  0
  -25.3820  -36.0690   23.8260 C   0  0  0  0  0  3  0  0  0  0  0  0
  -27.5390  -36.9010   24.6520 C   0  0  0  0  0  1  0  0  0  0  0  0
  -26.4280  -37.1080   23.7270 N   0  0  0  0  0  0  0  0  0  0  0  0
  -26.0370  -38.0280   23.9060 H   0  0  0  0  0  0  0  0  0  0  0  0
  1  4  2  0
  2  5  2  0
  3  2  1  0
  3  1  1  0
  4  8  1  0
  4  7  1  0
  6  3  1  0
  9 10  1  0
 10 13  2  0
 11  9  2  0
 11 14  1  0
 12 13  1  0
 13  1  1  0
 14 12  2  0
 15 21  1  0
 15 23  1  0
 16 21  1  0
 17 18  1  0
 17 16  1  0
 19 18  1  0
 19 28  1  0
 19 20  1  0
 21 20  1  0
 22 15  2  0
 23 14  1  0
 23 24  1  0
 25 26  2  0
 26 45  1  0
 27 26  1  0
 27 30  1  0
 28 29  1  0
 28 25  1  0
 29 27  2  0
 30 31  1  0
 31 32  2  0
 33 36  1  0
 33 32  1  0
 34 33  2  0
 35 34  1  0
 35 30  2  0
 36 37  1  0
 37 42  2  0
 37 38  1  0
 38 39  2  0
 39 40  1  0
 40 44  1  0
 41 40  2  0
 42 41  1  0
 43 42  1  0
 45 46  1  0
 46 49  1  0
 46 48  1  0
 47 45  2  0
 50 25  1  0
 50 51  1  0
 52 50  1  0
 53  2  1  0
 54 53  1  0
 54 56  1  0
 56 55  1  0
 57 59  1  0
 57 56  1  0
 58 69  2  0
 59 64  1  0
 60 68  1  0
 60 70  1  0
 61 67  1  0
 61 63  1  0
 62 68  1  0
 63 62  1  0
 64 63  2  0
 65 66  1  0
 65 59  2  0
 66 61  2  0
 67 60  1  0
 68 58  1  0
 70 72  2  0
 71 70  1  0
 73 71  1  0
 74 83  2  0
 74 79  1  0
 75 71  1  0
 75 79  1  0
 76 75  1  0
 77 78  1  0
 77 76  1  0
 78 74  1  0
 79 80  2  0
 80 81  1  0
 82 81  2  0
 83 82  1  0
 84 58  1  0
 84 89  1  0
 84 85  1  0
 85 88  1  1
 85 86  1  0
 87 85  1  0
 89 92  1  0
 90 94  1  0
 90 89  1  0
 91 90  2  0
 94 93  1  0
 96 94  1  0
 96 97  1  0
 96 95  1  0
M  ISO  4  15 100  23 100  56 101  57 101
M  END
>  <TORSDO>  (46) 
F 20

>  <SCORE>  (46) 
-10.738

>  <name>  (46) 
45

>  <ligand_id>  (46) 
45

>  <original_smiles>  (46) 
[H]c1c([H])c(C(N([H])C(=O)C([H])([H])C([H])([H])C([H])(Oc2c([H])c([H])c3c(c2[H])C([H])([H])N(C(=O)C([H])(N([H])C(=O)C([H])(N([H])C([H])([H])[H])C([H])([H])[H])C(C([H])([H])[H])(C([H])([H])[H])C([H])([H])[H])C([H])(C(=O)N([H])C2([H])c4c([H])c([H])c([H])c([H])c4C([H])([H])C([H])([H])C2([H])[H])C3([H])[H])C([H])([H])[H])=[N+]([H])[H])c([H])c(N([H])C(=O)N2C([H])([H])C([H])([H])C([H])([H])C([H])(n3nc(-c4c([H])c([H])c(Oc5c([H])c([H])c(F)c([H])c5F)c([H])c4[H])c(C(=O)N([H])[H])c3N([H])[H])C2([H])[H])c1[H]

>  <smiles>  (46) 
[H]c1c([H])c(C(N([H])C(=O)C([H])([H])C([H])([H])C([H])(Oc2c([H])c([H])c3c(c2[H])C([H])([H])N(C(=O)C([H])(N([H])C(=O)C([H])(N([H])C([H])([H])[H])C([H])([H])[H])C(C([H])([H])[H])(C([H])([H])[H])C([H])([H])[H])C([H])(C(=O)N([H])C2([H])c4c([H])c([H])c([H])c([H])c4C([H])([H])C([H])([H])C2([H])[H])C3([H])[H])C([H])([H])[H])=[N+]([H])[H])c([H])c(N([H])C(=O)N2C([H])([H])C([H])([H])C([H])([H])C([H])(n3nc(-c4c([H])c([H])c(Oc5c([H])c([H])c(F)c([H])c5F)c([H])c4[H])c(C(=O)N([H])[H])c3N([H])[H])C2([H])[H])c1[H]

$$$$
46:0:0
     RDKit          3D

 97106  0  0  1  0  0  0  0  0999 V2000
  -28.3780  -22.1070   19.2510 C   0  0  0  0  0  2  0  0  0  0  0  0
  -30.2230  -22.7590   20.8890 C   0  0  0  0  0  2  0  0  0  0  0  0
  -29.0770  -20.7550   19.0840 C   0  0  0  0  0  2  0  0  0  0  0  0
  -30.8530  -21.3800   20.6820 C   0  0  0  0  0  2  0  0  0  0  0  0
  -29.3990  -23.1910   19.6500 C   0  0  0  0  0  3  0  0  0  0  0  0
  -29.8000  -20.4460   20.3140 N   0  0  0  0  0  0  0  0  0  0  0  0
  -31.2250  -18.5720   20.9300 C   0  0  0  0  0  3  0  0  0  0  0  0
  -31.3950  -17.2000   21.1630 C   0  0  0  0  0  3  0  0  0  0  0  0
  -28.9970  -16.8550   20.8540 C   0  0  0  0  0  3  0  0  0  0  0  0
  -28.8170  -18.2300   20.6290 C   0  0  0  0  0  0  0  0  0  0  0  0
  -29.9450  -19.0920   20.6300 C   0  0  0  0  0  0  0  0  0  0  0  0
  -30.2850  -16.3380   21.0770 C   0  0  0  0  0  0  0  0  0  0  0  0
  -27.4000  -18.7320   20.3870 C   0  0  0  0  0  1  0  0  0  0  0  0
  -30.7460  -14.2410   20.0560 C   0  0  0  0  0  0  0  0  0  0  0  0
  -30.2420  -12.2350   18.7310 C   0  0  0  0  0  2  0  0  0  0  0  0
  -29.1970  -12.5500   17.6450 C   0  0  0  0  0  2  0  0  0  0  0  0
  -27.7690  -12.4010   18.2010 C   0  0  0  0  0  2  0  0  0  0  0  0
  -27.5670  -13.1590   19.5390 C   0  0  0  0  0  3  0  0  0  0  0  0
  -28.7090  -12.8340   20.5280 C   0  0  0  0  0  2  0  0  0  0  0  0
  -30.0030  -13.1220   19.8760 N   0  0  0  0  0  0  0  0  0  0  0  0
  -31.6800  -14.5680   19.3150 O   0  0  0  0  0  0  0  0  0  0  0  0
  -30.4270  -14.9430   21.1440 N   0  0  0  0  0  0  0  0  0  0  0  0
  -29.7580  -14.4660   21.7310 H   0  0  0  0  0  0  0  0  0  0  0  0
  -25.2460  -13.7410   20.5000 C   0  0  0  0  0  0  0  0  0  0  0  0
  -24.2060  -12.9530   20.9170 C   0  0  0  0  0  0  0  0  0  0  0  0
  -24.6440  -11.6030   20.7500 C   0  0  0  0  0  0  0  0  0  0  0  0
  -26.2560  -12.8700   20.1180 N   0  0  0  0  0  0  0  0  0  0  0  0
  -25.8980  -11.5760   20.3170 N   0  0  0  0  0  0  0  0  0  0  0  0
  -23.9220  -10.3360   20.9240 C   0  0  0  0  0  0  0  0  0  0  0  0
  -24.3420   -9.3680   21.8630 C   0  0  0  0  0  3  0  0  0  0  0  0
  -23.6220   -8.1640   22.0230 C   0  0  0  0  0  3  0  0  0  0  0  0
  -22.4670   -7.9210   21.2430 C   0  0  0  0  0  0  0  0  0  0  0  0
  -22.0660   -8.8760   20.2910 C   0  0  0  0  0  3  0  0  0  0  0  0
  -22.7890  -10.0710   20.1300 C   0  0  0  0  0  3  0  0  0  0  0  0
  -21.7170   -6.7700   21.3130 O   0  0  0  0  0  0  0  0  0  0  0  0
  -21.5470   -6.0920   22.4930 C   0  0  0  0  0  0  0  0  0  0  0  0
  -20.9400   -6.6950   23.6170 C   0  0  0  0  0  3  0  0  0  0  0  0
  -20.7220   -5.9410   24.7880 C   0  0  0  0  0  3  0  0  0  0  0  0
  -21.1000   -4.5850   24.8330 C   0  0  0  0  0  0  0  0  0  0  0  0
  -21.6990   -3.9830   23.7130 C   0  0  0  0  0  3  0  0  0  0  0  0
  -21.9190   -4.7340   22.5460 C   0  0  0  0  0  0  0  0  0  0  0  0
  -22.4780   -4.1440   21.4620 F   0  0  0  0  0  0  0  0  0  0  0  0
  -20.8830   -3.8580   25.9550 F   0  0  0  0  0  0  0  0  0  0  0  0
  -22.8480  -13.4180   21.3550 C   0  0  0  0  0  0  0  0  0  0  0  0
  -22.2090  -12.6840   22.2590 N   0  0  0  0  0  0  0  0  0  0  0  0
  -22.3640  -14.4670   20.9320 O   0  0  0  0  0  0  0  0  0  0  0  0
  -22.6140  -11.8310   22.6190 H   0  0  0  0  0  0  0  0  0  0  0  0
  -21.3010  -12.9730   22.5930 H   0  0  0  0  0  0  0  0  0  0  0  0
  -25.4140  -15.1190   20.3980 N   0  0  0  0  0  0  0  0  0  0  0  0
  -24.6700  -15.7730   20.6110 H   0  0  0  0  0  0  0  0  0  0  0  0
  -26.2300  -15.5640   19.9990 H   0  0  0  0  0  0  0  0  0  0  0  0
  -28.7100  -24.5220   19.9360 C   0  0  0  0  0  0  0  0  0  0  0  0
  -27.8360  -24.5900   20.8070 O   0  0  0  0  0  0  0  0  0  0  0  0
  -30.7050  -25.9510   19.2610 C   0  0  0  0  0  1  0  0  0  0  0  0
  -28.8160  -25.6830   17.6370 C   0  0  0  0  0  1  0  0  0  0  0  0
  -29.1770  -25.7580   19.1380 C   0  0  1  0  0  0  0  0  0  0  0  0
  -28.7320  -26.9420   19.8020 O   0  0  0  0  0  0  0  0  0  0  0  0
  -24.6120  -31.6820   22.9780 C   0  0  0  0  0  0  0  0  0  0  0  0
  -27.4580  -27.4620   19.7970 C   0  0  0  0  0  0  0  0  0  0  0  0
  -23.4610  -30.2690   21.2990 C   0  0  0  0  0  3  0  0  0  0  0  0
  -24.9790  -28.8140   19.8530 C   0  0  0  0  0  0  0  0  0  0  0  0
  -25.9650  -30.7390   21.1160 C   0  0  0  0  0  2  0  0  0  0  0  0
  -26.1020  -29.3880   20.4550 C   0  0  0  0  0  0  0  0  0  0  0  0
  -27.3350  -28.7120   20.4300 C   0  0  0  0  0  3  0  0  0  0  0  0
  -26.3060  -26.8700   19.2270 C   0  0  0  0  0  3  0  0  0  0  0  0
  -25.0700  -27.5480   19.2450 C   0  0  0  0  0  3  0  0  0  0  0  0
  -23.6990  -29.6160   19.9090 C   0  0  0  0  0  2  0  0  0  0  0  0
  -24.6970  -30.9120   21.8570 N   0  0  0  0  0  0  0  0  0  0  0  0
  -23.5210  -31.9020   23.5210 O   0  0  0  0  0  0  0  0  0  0  0  0
  -22.8510  -29.2060   22.2370 C   0  0  0  0  0  0  0  0  0  0  0  0
  -21.5350  -28.9760   22.0980 N   0  0  0  0  0  0  0  0  0  0  0  0
  -23.5550  -28.5900   23.0430 O   0  0  0  0  0  0  0  0  0  0  0  0
  -21.0270  -29.5270   21.4210 H   0  0  0  0  0  0  0  0  0  0  0  0
  -18.2030  -27.6730   22.5720 C   0  0  0  0  0  0  0  0  0  0  0  0
  -20.7520  -27.9940   22.8440 C   0  0  0  0  0  3  0  0  0  0  0  0
  -20.8930  -26.5830   22.2260 C   0  0  0  0  0  2  0  0  0  0  0  0
  -19.7950  -26.2600   21.2070 C   0  0  0  0  0  2  0  0  0  0  0  0
  -18.4120  -26.3480   21.8580 C   0  0  0  0  0  2  0  0  0  0  0  0
  -19.3000  -28.4530   23.0200 C   0  0  0  0  0  0  0  0  0  0  0  0
  -19.0480  -29.6940   23.6430 C   0  0  0  0  0  3  0  0  0  0  0  0
  -17.7300  -30.1540   23.8240 C   0  0  0  0  0  3  0  0  0  0  0  0
  -16.6470  -29.3710   23.3900 C   0  0  0  0  0  3  0  0  0  0  0  0
  -16.8840  -28.1310   22.7710 C   0  0  0  0  0  3  0  0  0  0  0  0
  -25.8740  -32.3440   23.6160 C   0  0  0  0  0  3  0  0  0  0  0  0
  -26.4760  -31.5140   24.8160 C   0  0  1  0  0  0  0  0  0  0  0  0
  -25.4320  -31.1240   25.8870 C   0  0  0  0  0  1  0  0  0  0  0  0
  -27.1320  -30.2120   24.3010 C   0  0  0  0  0  1  0  0  0  0  0  0
  -27.5910  -32.3280   25.5110 C   0  0  0  0  0  1  0  0  0  0  0  0
  -25.4900  -33.6910   24.0570 N   0  0  0  0  0  0  0  0  0  0  0  0
  -25.7330  -34.8140   23.3650 C   0  0  0  0  0  0  0  0  0  0  0  0
  -26.3730  -34.8270   22.3100 O   0  0  0  0  0  0  0  0  0  0  0  0
  -24.9170  -33.7520   24.8850 H   0  0  0  0  0  0  0  0  0  0  0  0
  -23.8870  -36.5110   23.1790 C   0  0  0  0  0  1  0  0  0  0  0  0
  -25.1720  -36.1310   23.9340 C   0  0  0  0  0  3  0  0  0  0  0  0
  -27.2610  -37.0920   24.7920 C   0  0  0  0  0  1  0  0  0  0  0  0
  -26.1330  -37.2540   23.8780 N   0  0  0  0  0  0  0  0  0  0  0  0
  -25.6730  -38.1330   24.0970 H   0  0  0  0  0  0  0  0  0  0  0  0
  1  5  1  0
  3  1  1  0
  3  6  1  0
  4  2  1  0
  5 52  1  0
  5  2  1  0
  6 11  1  0
  6  4  1  0
  7  8  1  0
  9 12  1  0
 10 11  1  0
 10  9  2  0
 11  7  2  0
 12 22  1  0
 12  8  2  0
 13 10  1  0
 14 22  1  0
 15 20  1  0
 16 17  1  0
 16 15  1  0
 18 17  1  0
 18 27  1  0
 18 19  1  0
 20 14  1  0
 20 19  1  0
 21 14  2  0
 22 23  1  0
 24 25  2  0
 25 44  1  0
 26 25  1  0
 26 29  1  0
 27 28  1  0
 27 24  1  0
 28 26  2  0
 29 30  1  0
 30 31  2  0
 32 35  1  0
 32 31  1  0
 33 32  2  0
 34 33  1  0
 34 29  2  0
 35 36  1  0
 36 41  2  0
 36 37  1  0
 37 38  2  0
 38 39  1  0
 39 43  1  0
 40 39  2  0
 41 40  1  0
 42 41  1  0
 44 45  1  0
 45 48  1  0
 45 47  1  0
 46 44  2  0
 49 24  1  0
 49 50  1  0
 51 49  1  0
 52 53  2  0
 56 55  1  6
 56 54  1  0
 56 57  1  0
 56 52  1  0
 58 69  2  0
 59 57  1  0
 59 64  1  0
 60 68  1  0
 60 70  1  0
 61 67  1  0
 61 63  1  0
 62 68  1  0
 63 62  1  0
 64 63  2  0
 65 66  1  0
 65 59  2  0
 66 61  2  0
 67 60  1  0
 68 58  1  0
 70 72  2  0
 71 70  1  0
 73 71  1  0
 74 83  2  0
 74 79  1  0
 75 71  1  0
 75 79  1  0
 76 75  1  0
 77 78  1  0
 77 76  1  0
 78 74  1  0
 79 80  2  0
 80 81  1  0
 82 81  2  0
 83 82  1  0
 84 58  1  0
 84 89  1  0
 84 85  1  0
 85 88  1  1
 85 86  1  0
 87 85  1  0
 89 92  1  0
 90 94  1  0
 90 89  1  0
 91 90  2  0
 94 93  1  0
 96 94  1  0
 96 97  1  0
 96 95  1  0
M  ISO  4  14 100  22 100  56 101  57 101
M  END
>  <TORSDO>  (47) 
F 19

>  <SCORE>  (47) 
-13.500

>  <name>  (47) 
46

>  <ligand_id>  (47) 
46

>  <original_smiles>  (47) 
[H]c1c([H])c([H])c2c(c1[H])C([H])([H])C([H])([H])C([H])([H])C2([H])N([H])C(=O)C1([H])N(C(=O)C([H])(N([H])C(=O)C([H])(N([H])C([H])([H])[H])C([H])([H])[H])C(C([H])([H])[H])(C([H])([H])[H])C([H])([H])[H])C([H])([H])c2c([H])c(OC(C(=O)C3([H])C([H])([H])C([H])([H])N(c4c([H])c([H])c(N([H])C(=O)N5C([H])([H])C([H])([H])C([H])([H])C([H])(n6nc(-c7c([H])c([H])c(Oc8c([H])c([H])c(F)c([H])c8F)c([H])c7[H])c(C(=O)N([H])[H])c6N([H])[H])C5([H])[H])c([H])c4C([H])([H])[H])C([H])([H])C3([H])[H])(C([H])([H])[H])C([H])([H])[H])c([H])c([H])c2C1([H])[H]

>  <smiles>  (47) 
[H]c1c([H])c([H])c2c(c1[H])C([H])([H])C([H])([H])C([H])([H])C2([H])N([H])C(=O)C1([H])N(C(=O)C([H])(N([H])C(=O)C([H])(N([H])C([H])([H])[H])C([H])([H])[H])C(C([H])([H])[H])(C([H])([H])[H])C([H])([H])[H])C([H])([H])c2c([H])c(OC(C(=O)C3([H])C([H])([H])C([H])([H])N(c4c([H])c([H])c(N([H])C(=O)N5C([H])([H])C([H])([H])C([H])([H])C([H])(n6nc(-c7c([H])c([H])c(Oc8c([H])c([H])c(F)c([H])c8F)c([H])c7[H])c(C(=O)N([H])[H])c6N([H])[H])C5([H])[H])c([H])c4C([H])([H])[H])C([H])([H])C3([H])[H])(C([H])([H])[H])C([H])([H])[H])c([H])c([H])c2C1([H])[H]

$$$$
47:0:0
     RDKit          3D

103112  0  0  1  0  0  0  0  0999 V2000
  -31.7830  -21.1620   20.9770 C   0  0  0  0  0  0  0  0  0  0  0  0
  -31.8280  -22.4900   21.7020 C   0  0  0  0  0  1  0  0  0  0  0  0
  -32.5020  -20.1910   21.4110 N   0  0  0  0  0  0  0  0  0  0  0  0
  -33.4290  -17.7800   18.7580 C   0  0  0  0  0  3  0  0  0  0  0  0
  -33.3890  -18.9420   19.5320 C   0  0  0  0  0  3  0  0  0  0  0  0
  -31.9740  -17.8090   21.1610 C   0  0  0  0  0  3  0  0  0  0  0  0
  -32.7560  -16.6090   19.1740 C   0  0  0  0  0  0  0  0  0  0  0  0
  -32.6060  -18.9910   20.7030 C   0  0  0  0  0  0  0  0  0  0  0  0
  -32.0630  -16.6020   20.4220 C   0  0  0  0  0  0  0  0  0  0  0  0
  -32.0310  -14.2010   20.8240 C   0  0  0  0  0  0  0  0  0  0  0  0
  -31.4880  -12.1080   19.6620 C   0  0  0  0  0  2  0  0  0  0  0  0
  -30.7080  -12.4310   18.3710 C   0  0  0  0  0  2  0  0  0  0  0  0
  -29.1970  -12.5890   18.6510 C   0  0  0  0  0  2  0  0  0  0  0  0
  -28.8640  -13.4300   19.9180 C   0  0  0  0  0  3  0  0  0  0  0  0
  -29.7850  -13.0670   21.1040 C   0  0  0  0  0  2  0  0  0  0  0  0
  -31.1790  -13.1540   20.6460 N   0  0  0  0  0  0  0  0  0  0  0  0
  -33.2380  -14.1250   20.5970 O   0  0  0  0  0  0  0  0  0  0  0  0
  -31.4570  -15.4130   20.9490 N   0  0  0  0  0  0  0  0  0  0  0  0
  -30.4680  -15.4370   21.1410 H   0  0  0  0  0  0  0  0  0  0  0  0
  -26.4980  -14.3340   20.3770 C   0  0  0  0  0  0  0  0  0  0  0  0
  -25.3140  -13.7030   20.6510 C   0  0  0  0  0  0  0  0  0  0  0  0
  -25.6120  -12.3080   20.6970 C   0  0  0  0  0  0  0  0  0  0  0  0
  -27.4480  -13.3300   20.2710 N   0  0  0  0  0  0  0  0  0  0  0  0
  -26.9120  -12.1090   20.5250 N   0  0  0  0  0  0  0  0  0  0  0  0
  -24.7240  -11.1470   20.8380 C   0  0  0  0  0  0  0  0  0  0  0  0
  -25.0490  -10.0690   21.6920 C   0  0  0  0  0  3  0  0  0  0  0  0
  -24.1720   -8.9720   21.8250 C   0  0  0  0  0  3  0  0  0  0  0  0
  -22.9530   -8.9450   21.1050 C   0  0  0  0  0  0  0  0  0  0  0  0
  -22.6470  -10.0080   20.2380 C   0  0  0  0  0  3  0  0  0  0  0  0
  -23.5230  -11.0980   20.1030 C   0  0  0  0  0  3  0  0  0  0  0  0
  -22.0520   -7.9090   21.1540 O   0  0  0  0  0  0  0  0  0  0  0  0
  -21.8310   -7.2000   22.3070 C   0  0  0  0  0  0  0  0  0  0  0  0
  -21.5540   -7.8400   23.5350 C   0  0  0  0  0  3  0  0  0  0  0  0
  -21.2640   -7.0710   24.6800 C   0  0  0  0  0  3  0  0  0  0  0  0
  -21.2430   -5.6660   24.5990 C   0  0  0  0  0  0  0  0  0  0  0  0
  -21.5130   -5.0270   23.3750 C   0  0  0  0  0  3  0  0  0  0  0  0
  -21.8050   -5.7930   22.2330 C   0  0  0  0  0  0  0  0  0  0  0  0
  -22.0430   -5.1720   21.0520 F   0  0  0  0  0  0  0  0  0  0  0  0
  -20.9580   -4.9280   25.6970 F   0  0  0  0  0  0  0  0  0  0  0  0
  -23.9630  -14.3490   20.7690 C   0  0  0  0  0  0  0  0  0  0  0  0
  -23.1020  -13.8210   21.6310 N   0  0  0  0  0  0  0  0  0  0  0  0
  -23.6820  -15.3600   20.1270 O   0  0  0  0  0  0  0  0  0  0  0  0
  -23.3390  -13.0040   22.1730 H   0  0  0  0  0  0  0  0  0  0  0  0
  -22.1900  -14.2400   21.7460 H   0  0  0  0  0  0  0  0  0  0  0  0
  -26.8340  -15.6720   20.1890 N   0  0  0  0  0  0  0  0  0  0  0  0
  -26.1350  -16.4060   20.2320 H   0  0  0  0  0  0  0  0  0  0  0  0
  -27.7580  -16.0200   19.9780 H   0  0  0  0  0  0  0  0  0  0  0  0
  -32.9190  -14.4960   16.0500 C   0  0  0  0  0  2  0  0  0  0  0  0
  -32.3390  -15.6820   16.8180 C   0  0  0  0  0  2  0  0  0  0  0  0
  -34.2350  -14.1760   16.7810 C   0  0  0  0  0  2  0  0  0  0  0  0
  -32.8070  -15.4020   18.2460 C   0  0  0  0  0  3  0  0  0  0  0  0
  -34.1500  -14.8090   18.1140 N   0  0  0  0  0  4  0  0  0  0  0  0
  -34.8400  -15.5420   18.1620 H   0  0  0  0  0  0  0  0  0  0  0  0
  -34.3460  -14.1550   18.8530 H   0  0  0  0  0  0  0  0  0  0  0  0
  -30.8340  -21.1270   19.7550 C   0  0  0  0  0  2  0  0  0  0  0  0
  -28.5630  -20.7490   18.7010 C   0  0  0  0  0  1  0  0  0  0  0  0
  -29.1070  -19.4970   20.7600 C   0  0  0  0  0  1  0  0  0  0  0  0
  -29.3230  -20.8510   20.0460 C   0  0  1  0  0  0  0  0  0  0  0  0
  -28.7000  -21.9690   20.9320 C   0  0  0  0  0  2  0  0  0  0  0  0
  -28.4470  -23.3520   20.2780 C   0  0  0  0  0  2  0  0  0  0  0  0
  -29.3720  -24.4810   20.7710 C   0  0  0  0  0  2  0  0  0  0  0  0
  -28.6460  -25.8350   20.8340 C   0  0  0  0  0  2  0  0  0  0  0  0
  -27.9220  -26.0470   19.6220 O   0  0  0  0  0  0  0  0  0  0  0  0
  -24.5230  -31.3240   22.9970 C   0  0  0  0  0  0  0  0  0  0  0  0
  -26.8230  -26.8700   19.7110 C   0  0  0  0  0  0  0  0  0  0  0  0
  -23.1790  -30.0360   21.3620 C   0  0  0  0  0  3  0  0  0  0  0  0
  -24.4970  -28.4640   19.8450 C   0  0  0  0  0  0  0  0  0  0  0  0
  -25.7040  -30.2800   21.0710 C   0  0  0  0  0  2  0  0  0  0  0  0
  -25.6930  -28.9210   20.4090 C   0  0  0  0  0  0  0  0  0  0  0  0
  -26.8570  -28.1310   20.3510 C   0  0  0  0  0  3  0  0  0  0  0  0
  -25.6190  -26.4290   19.1290 C   0  0  0  0  0  3  0  0  0  0  0  0
  -24.4510  -27.2140   19.2010 C   0  0  0  0  0  3  0  0  0  0  0  0
  -23.3000  -29.3810   19.9570 C   0  0  0  0  0  2  0  0  0  0  0  0
  -24.4890  -30.5590   21.8710 N   0  0  0  0  0  0  0  0  0  0  0  0
  -23.4800  -31.6390   23.5870 O   0  0  0  0  0  0  0  0  0  0  0  0
  -22.5120  -29.0260   22.3220 C   0  0  0  0  0  0  0  0  0  0  0  0
  -21.1770  -28.9070   22.2260 N   0  0  0  0  0  0  0  0  0  0  0  0
  -23.1880  -28.3560   23.1070 O   0  0  0  0  0  0  0  0  0  0  0  0
  -20.6980  -29.4970   21.5600 H   0  0  0  0  0  0  0  0  0  0  0  0
  -17.7730  -27.8120   22.7290 C   0  0  0  0  0  0  0  0  0  0  0  0
  -20.3370  -27.9940   23.0000 C   0  0  0  0  0  3  0  0  0  0  0  0
  -20.4000  -26.5620   22.4210 C   0  0  0  0  0  2  0  0  0  0  0  0
  -19.2860  -26.2730   21.4090 C   0  0  0  0  0  2  0  0  0  0  0  0
  -17.9100  -26.4580   22.0540 C   0  0  0  0  0  2  0  0  0  0  0  0
  -18.9140  -28.5400   23.1590 C   0  0  0  0  0  0  0  0  0  0  0  0
  -18.7330  -29.8100   23.7480 C   0  0  0  0  0  3  0  0  0  0  0  0
  -17.4430  -30.3470   23.9170 C   0  0  0  0  0  3  0  0  0  0  0  0
  -16.3160  -29.6140   23.5060 C   0  0  0  0  0  3  0  0  0  0  0  0
  -16.4820  -28.3500   22.9130 C   0  0  0  0  0  3  0  0  0  0  0  0
  -25.8650  -31.8630   23.5850 C   0  0  0  0  0  3  0  0  0  0  0  0
  -25.6260  -33.2330   24.0520 N   0  0  0  0  0  0  0  0  0  0  0  0
  -25.9170  -34.3380   23.3500 C   0  0  0  0  0  0  0  0  0  0  0  0
  -26.4900  -34.3050   22.2570 O   0  0  0  0  0  0  0  0  0  0  0  0
  -25.1120  -33.3360   24.9150 H   0  0  0  0  0  0  0  0  0  0  0  0
  -24.1990  -36.1710   23.3090 C   0  0  0  0  0  1  0  0  0  0  0  0
  -25.5080  -35.6920   23.9560 C   0  0  0  0  0  3  0  0  0  0  0  0
  -27.7270  -36.4930   24.6360 C   0  0  0  0  0  1  0  0  0  0  0  0
  -26.5430  -36.7380   23.8150 N   0  0  0  0  0  0  0  0  0  0  0  0
  -26.1710  -37.6500   24.0630 H   0  0  0  0  0  0  0  0  0  0  0  0
  -26.4410  -30.9620   24.7470 C   0  0  1  0  0  0  0  0  0  0  0  0
  -25.4270  -30.6890   25.8820 C   0  0  0  0  0  1  0  0  0  0  0  0
  -26.9100  -29.5960   24.1940 C   0  0  0  0  0  1  0  0  0  0  0  0
  -27.6890  -31.6370   25.3670 C   0  0  0  0  0  1  0  0  0  0  0  0
  1  3  2  0
  1  2  1  0
  4  7  2  0
  4  5  1  0
  5  8  2  0
  7  9  1  0
  8  6  1  0
  8  3  1  0
  9 18  1  0
  9  6  2  0
 10 18  1  0
 11 16  1  0
 12 13  1  0
 12 11  1  0
 14 13  1  0
 14 23  1  0
 14 15  1  0
 16 10  1  0
 16 15  1  0
 17 10  2  0
 18 19  1  0
 20 21  2  0
 21 22  1  0
 21 40  1  0
 22 25  1  0
 23 20  1  0
 23 24  1  0
 24 22  2  0
 25 26  1  0
 26 27  2  0
 28 31  1  0
 28 27  1  0
 29 28  2  0
 30 29  1  0
 30 25  2  0
 31 32  1  0
 32 33  1  0
 33 34  2  0
 35 34  1  0
 35 39  1  0
 36 35  2  0
 37 32  2  0
 37 36  1  0
 38 37  1  0
 40 41  1  0
 41 44  1  0
 41 43  1  0
 42 40  2  0
 45 46  1  0
 45 20  1  0
 47 45  1  0
 48 50  1  0
 48 49  1  0
 49 51  1  0
 50 52  1  0
 51  7  1  0
 52 53  1  0
 52 51  1  0
 52 54  1  0
 55 58  1  0
 55  1  1  0
 58 56  1  6
 58 57  1  0
 58 59  1  0
 60 61  1  0
 60 59  1  0
 61 62  1  0
 63 65  1  0
 63 62  1  0
 64 75  2  0
 65 70  1  0
 66 74  1  0
 66 76  1  0
 67 73  1  0
 67 69  1  0
 68 74  1  0
 69 68  1  0
 70 69  2  0
 71 72  1  0
 71 65  2  0
 72 67  2  0
 73 66  1  0
 74 64  1  0
 76 78  2  0
 77 76  1  0
 79 77  1  0
 80 89  2  0
 80 85  1  0
 81 77  1  0
 81 85  1  0
 82 81  1  0
 83 84  1  0
 83 82  1  0
 84 80  1  0
 85 86  2  0
 86 87  1  0
 88 87  2  0
 89 88  1  0
 90 64  1  0
 90 91  1  0
 90100  1  0
 91 94  1  0
 92 96  1  0
 92 91  1  0
 93 92  2  0
 96 95  1  0
 98 96  1  0
 98 99  1  0
 98 97  1  0
100103  1  1
100101  1  0
102100  1  0
M  ISO  4  10 100  18 100  62 101  63 101
M  END
>  <TORSDO>  (48) 
F 24

>  <SCORE>  (48) 
-10.925

>  <name>  (48) 
47

>  <ligand_id>  (48) 
47

>  <original_smiles>  (48) 
[H]c1c([H])c([H])c2c(c1[H])C([H])([H])C([H])([H])C([H])([H])C2([H])N([H])C(=O)C1([H])N(C(=O)C([H])(N([H])C(=O)C([H])(N([H])C([H])([H])[H])C([H])([H])[H])C(C([H])([H])[H])(C([H])([H])[H])C([H])([H])[H])C([H])([H])c2c([H])c(OC([H])([H])C([H])([H])C([H])([H])C([H])([H])C(C([H])([H])[H])(C([H])([H])[H])C([H])([H])C(=Nc3c([H])c([H])c(C4([H])C([H])([H])C([H])([H])C([H])([H])[N+]4([H])[H])c(N([H])C(=O)N4C([H])([H])C([H])([H])C([H])([H])C([H])(n5nc(-c6c([H])c([H])c(Oc7c([H])c([H])c(F)c([H])c7F)c([H])c6[H])c(C(=O)N([H])[H])c5N([H])[H])C4([H])[H])c3[H])C([H])([H])[H])c([H])c([H])c2C1([H])[H]

>  <smiles>  (48) 
[H]c1c([H])c([H])c2c(c1[H])C([H])([H])C([H])([H])C([H])([H])C2([H])N([H])C(=O)C1([H])N(C(=O)C([H])(N([H])C(=O)C([H])(N([H])C([H])([H])[H])C([H])([H])[H])C(C([H])([H])[H])(C([H])([H])[H])C([H])([H])[H])C([H])([H])c2c([H])c(OC([H])([H])C([H])([H])C([H])([H])C([H])([H])C(C([H])([H])[H])(C([H])([H])[H])C([H])([H])C(=Nc3c([H])c([H])c(C4([H])C([H])([H])C([H])([H])C([H])([H])[N+]4([H])[H])c(N([H])C(=O)N4C([H])([H])C([H])([H])C([H])([H])C([H])(n5nc(-c6c([H])c([H])c(Oc7c([H])c([H])c(F)c([H])c7F)c([H])c6[H])c(C(=O)N([H])[H])c5N([H])[H])C4([H])[H])c3[H])C([H])([H])[H])c([H])c([H])c2C1([H])[H]

$$$$
48:0:0
     RDKit          3D

100108  0  0  1  0  0  0  0  0999 V2000
  -30.0540  -20.3380   19.2800 C   0  0  0  0  0  0  0  0  0  0  0  0
  -31.1060  -19.7080   19.8190 N   0  0  0  0  0  0  0  0  0  0  0  0
  -28.8840  -20.0430   19.5420 O   0  0  0  0  0  0  0  0  0  0  0  0
  -32.0310  -19.9860   19.5190 H   0  0  0  0  0  0  0  0  0  0  0  0
  -30.9330  -19.1780   22.1970 C   0  0  0  0  0  3  0  0  0  0  0  0
  -30.8520  -16.8530   22.9240 C   0  0  0  0  0  3  0  0  0  0  0  0
  -31.0480  -17.3750   20.5460 C   0  0  0  0  0  3  0  0  0  0  0  0
  -30.8460  -18.2300   23.2340 C   0  0  0  0  0  0  0  0  0  0  0  0
  -31.0190  -18.7500   20.8540 C   0  0  0  0  0  0  0  0  0  0  0  0
  -30.9590  -16.4150   21.5850 C   0  0  0  0  0  0  0  0  0  0  0  0
  -31.2820  -14.3180   20.2710 C   0  0  0  0  0  0  0  0  0  0  0  0
  -30.8020  -12.3080   18.9170 C   0  0  0  0  0  2  0  0  0  0  0  0
  -29.8390  -12.6540   17.7650 C   0  0  0  0  0  2  0  0  0  0  0  0
  -28.3710  -12.5840   18.2280 C   0  0  0  0  0  2  0  0  0  0  0  0
  -28.1280  -13.3690   19.5430 C   0  0  0  0  0  3  0  0  0  0  0  0
  -29.1800  -12.9740   20.6020 C   0  0  0  0  0  2  0  0  0  0  0  0
  -30.5250  -13.2140   20.0410 N   0  0  0  0  0  0  0  0  0  0  0  0
  -32.2840  -14.6090   19.6080 O   0  0  0  0  0  0  0  0  0  0  0  0
  -30.8990  -15.0140   21.3520 N   0  0  0  0  0  0  0  0  0  0  0  0
  -30.2720  -14.5060   21.9580 H   0  0  0  0  0  0  0  0  0  0  0  0
  -25.7740  -14.1080   20.2910 C   0  0  0  0  0  0  0  0  0  0  0  0
  -24.6720  -13.3930   20.6790 C   0  0  0  0  0  0  0  0  0  0  0  0
  -25.0580  -12.0180   20.6310 C   0  0  0  0  0  0  0  0  0  0  0  0
  -26.7650  -13.1720   20.0390 N   0  0  0  0  0  0  0  0  0  0  0  0
  -26.3360  -11.9090   20.2950 N   0  0  0  0  0  0  0  0  0  0  0  0
  -24.2680  -10.7950   20.8300 C   0  0  0  0  0  0  0  0  0  0  0  0
  -24.6620   -9.8060   21.7590 C   0  0  0  0  0  3  0  0  0  0  0  0
  -23.8780   -8.6470   21.9450 C   0  0  0  0  0  3  0  0  0  0  0  0
  -22.6860   -8.4710   21.2030 C   0  0  0  0  0  0  0  0  0  0  0  0
  -22.3120   -9.4470   20.2620 C   0  0  0  0  0  3  0  0  0  0  0  0
  -23.0960  -10.5970   20.0750 C   0  0  0  0  0  3  0  0  0  0  0  0
  -21.8760   -7.3650   21.2980 O   0  0  0  0  0  0  0  0  0  0  0  0
  -21.7810   -6.6400   22.4580 C   0  0  0  0  0  0  0  0  0  0  0  0
  -21.4000   -7.2350   23.6810 C   0  0  0  0  0  3  0  0  0  0  0  0
  -21.2470   -6.4400   24.8340 C   0  0  0  0  0  3  0  0  0  0  0  0
  -21.4670   -5.0510   24.7660 C   0  0  0  0  0  0  0  0  0  0  0  0
  -21.8400   -4.4560   23.5480 C   0  0  0  0  0  3  0  0  0  0  0  0
  -21.9940   -5.2480   22.3970 C   0  0  0  0  0  0  0  0  0  0  0  0
  -22.3340   -4.6660   21.2220 F   0  0  0  0  0  0  0  0  0  0  0  0
  -21.3130   -4.2850   25.8710 F   0  0  0  0  0  0  0  0  0  0  0  0
  -23.3080  -13.9430   20.9850 C   0  0  0  0  0  0  0  0  0  0  0  0
  -22.5690  -13.2910   21.8780 N   0  0  0  0  0  0  0  0  0  0  0  0
  -22.9070  -14.9840   20.4670 O   0  0  0  0  0  0  0  0  0  0  0  0
  -22.9060  -12.4470   22.3180 H   0  0  0  0  0  0  0  0  0  0  0  0
  -21.6550  -13.6410   22.1250 H   0  0  0  0  0  0  0  0  0  0  0  0
  -26.0110  -15.4680   20.1180 N   0  0  0  0  0  0  0  0  0  0  0  0
  -25.2920  -16.1700   20.2510 H   0  0  0  0  0  0  0  0  0  0  0  0
  -26.8890  -15.8570   19.7940 H   0  0  0  0  0  0  0  0  0  0  0  0
  -30.7490  -18.6510   24.5610 N   0  0  0  0  0  0  0  0  0  0  0  0
  -30.5040  -19.6170   24.7580 H   0  0  0  0  0  0  0  0  0  0  0  0
  -30.4100  -18.0030   25.2660 H   0  0  0  0  0  0  0  0  0  0  0  0
  -30.3490  -21.4750   18.3050 C   0  0  0  0  0  2  0  0  0  0  0  0
  -29.9580  -22.8310   18.9320 C   0  0  0  0  0  2  0  0  0  0  0  0
  -31.8200  -24.1530   17.7980 C   0  0  0  0  0  1  0  0  0  0  0  0
  -29.5270  -24.1250   16.7750 C   0  0  0  0  0  1  0  0  0  0  0  0
  -30.3020  -24.1060   18.1120 C   0  0  1  0  0  0  0  0  0  0  0  0
  -29.9120  -25.3480   18.9590 C   0  0  0  0  0  0  0  0  0  0  0  0
  -30.7780  -26.0780   19.4550 O   0  0  0  0  0  0  0  0  0  0  0  0
  -28.4200  -25.6400   19.1970 C   0  0  0  0  0  2  0  0  0  0  0  0
  -28.2870  -26.7630   20.0650 O   0  0  0  0  0  0  0  0  0  0  0  0
  -24.5280  -31.8940   23.2070 C   0  0  0  0  0  0  0  0  0  0  0  0
  -27.0860  -27.4300   20.0930 C   0  0  0  0  0  0  0  0  0  0  0  0
  -23.2790  -30.4960   21.5920 C   0  0  0  0  0  3  0  0  0  0  0  0
  -24.6900  -28.9290   20.1590 C   0  0  0  0  0  0  0  0  0  0  0  0
  -25.8010  -30.8280   21.3500 C   0  0  0  0  0  2  0  0  0  0  0  0
  -25.8600  -29.4520   20.7230 C   0  0  0  0  0  0  0  0  0  0  0  0
  -27.0550  -28.7020   20.6990 C   0  0  0  0  0  3  0  0  0  0  0  0
  -25.8910  -26.9040   19.5450 C   0  0  0  0  0  3  0  0  0  0  0  0
  -24.6970  -27.6500   19.5750 C   0  0  0  0  0  3  0  0  0  0  0  0
  -23.4560  -29.7990   20.2150 C   0  0  0  0  0  2  0  0  0  0  0  0
  -24.5550  -31.0860   22.1090 N   0  0  0  0  0  0  0  0  0  0  0  0
  -23.4600  -32.1800   23.7650 O   0  0  0  0  0  0  0  0  0  0  0  0
  -22.6330  -29.4880   22.5700 C   0  0  0  0  0  0  0  0  0  0  0  0
  -21.3120  -29.2870   22.4340 N   0  0  0  0  0  0  0  0  0  0  0  0
  -23.3180  -28.8860   23.4020 O   0  0  0  0  0  0  0  0  0  0  0  0
  -20.8220  -29.8230   21.7330 H   0  0  0  0  0  0  0  0  0  0  0  0
  -17.9600  -28.0250   22.8870 C   0  0  0  0  0  0  0  0  0  0  0  0
  -20.5000  -28.3570   23.2180 C   0  0  0  0  0  3  0  0  0  0  0  0
  -20.6550  -26.9080   22.7000 C   0  0  0  0  0  2  0  0  0  0  0  0
  -19.5900  -26.5200   21.6680 C   0  0  0  0  0  2  0  0  0  0  0  0
  -18.1880  -26.6560   22.2680 C   0  0  0  0  0  2  0  0  0  0  0  0
  -19.0460  -28.8300   23.3180 C   0  0  0  0  0  0  0  0  0  0  0  0
  -18.7820  -30.1080   23.8530 C   0  0  0  0  0  3  0  0  0  0  0  0
  -17.4620  -30.5860   23.9610 C   0  0  0  0  0  3  0  0  0  0  0  0
  -16.3880  -29.7790   23.5460 C   0  0  0  0  0  3  0  0  0  0  0  0
  -16.6370  -28.5000   23.0160 C   0  0  0  0  0  3  0  0  0  0  0  0
  -25.8340  -32.5130   23.8000 C   0  0  0  0  0  3  0  0  0  0  0  0
  -25.5390  -33.9070   24.1550 N   0  0  0  0  0  0  0  0  0  0  0  0
  -25.8620  -34.9660   23.4020 C   0  0  0  0  0  0  0  0  0  0  0  0
  -26.5090  -34.8740   22.3550 O   0  0  0  0  0  0  0  0  0  0  0  0
  -24.9640  -34.0530   24.9710 H   0  0  0  0  0  0  0  0  0  0  0  0
  -24.1330  -36.7670   23.1060 C   0  0  0  0  0  1  0  0  0  0  0  0
  -25.3890  -36.3500   23.8870 C   0  0  0  0  0  3  0  0  0  0  0  0
  -27.5460  -37.2120   24.6810 C   0  0  0  0  0  1  0  0  0  0  0  0
  -26.4230  -37.4000   23.7680 N   0  0  0  0  0  0  0  0  0  0  0  0
  -26.0240  -38.3180   23.9420 H   0  0  0  0  0  0  0  0  0  0  0  0
  -26.3850  -31.7220   25.0490 C   0  0  1  0  0  0  0  0  0  0  0  0
  -25.3220  -31.4670   26.1410 C   0  0  0  0  0  1  0  0  0  0  0  0
  -26.9570  -30.3520   24.6160 C   0  0  0  0  0  1  0  0  0  0  0  0
  -27.5510  -32.5060   25.6960 C   0  0  0  0  0  1  0  0  0  0  0  0
  1  3  2  0
  1  2  1  0
  2  9  1  0
  4  2  1  0
  5  8  1  0
  6  8  2  0
  7  9  1  0
  7 10  2  0
  8 49  1  0
  9  5  2  0
 10  6  1  0
 11 19  1  0
 12 17  1  0
 13 14  1  0
 13 12  1  0
 15 14  1  0
 15 24  1  0
 15 16  1  0
 17 11  1  0
 17 16  1  0
 18 11  2  0
 19 10  1  0
 19 20  1  0
 21 22  2  0
 22 41  1  0
 23 22  1  0
 23 26  1  0
 24 21  1  0
 24 25  1  0
 25 23  2  0
 26 27  1  0
 27 28  2  0
 29 32  1  0
 29 28  1  0
 30 29  2  0
 31 30  1  0
 31 26  2  0
 32 33  1  0
 33 34  1  0
 34 35  2  0
 36 35  1  0
 36 40  1  0
 37 36  2  0
 38 33  2  0
 38 37  1  0
 39 38  1  0
 41 42  1  0
 42 45  1  0
 42 44  1  0
 43 41  2  0
 46 47  1  0
 46 21  1  0
 48 46  1  0
 49 50  1  0
 49 51  1  0
 52 53  1  0
 52  1  1  0
 56 54  1  6
 55 56  1  0
 56 53  1  0
 56 57  1  0
 57 59  1  0
 57 58  2  0
 59 60  1  0
 60 62  1  0
 61 72  2  0
 62 67  1  0
 63 71  1  0
 63 73  1  0
 64 70  1  0
 64 66  1  0
 65 71  1  0
 66 65  1  0
 67 66  2  0
 68 69  1  0
 68 62  2  0
 69 64  2  0
 70 63  1  0
 71 61  1  0
 73 75  2  0
 74 73  1  0
 76 74  1  0
 77 86  2  0
 77 82  1  0
 78 74  1  0
 78 82  1  0
 79 78  1  0
 80 81  1  0
 80 79  1  0
 81 77  1  0
 82 83  2  0
 83 84  1  0
 85 84  2  0
 86 85  1  0
 87 61  1  0
 87 88  1  0
 87 97  1  0
 88 91  1  0
 89 93  1  0
 89 88  1  0
 90 89  2  0
 93 92  1  0
 95 93  1  0
 95 96  1  0
 95 94  1  0
 97100  1  1
 97 98  1  0
 99 97  1  0
M  ISO  4  11 100  19 100  59 101  60 101
M  END
>  <TORSDO>  (49) 
F 23

>  <SCORE>  (49) 
-12.134

>  <name>  (49) 
48

>  <ligand_id>  (49) 
48

>  <original_smiles>  (49) 
[H]c1c([H])c([H])c2c(c1[H])C([H])([H])C([H])([H])C([H])([H])C2([H])N([H])C(=O)C1([H])N(C(=O)C([H])(N([H])C(=O)C([H])(N([H])C([H])([H])[H])C([H])([H])[H])C(C([H])([H])[H])(C([H])([H])[H])C([H])([H])[H])C([H])([H])c2c([H])c(OC([H])([H])C(=O)C(C([H])([H])[H])(C([H])([H])[H])C([H])([H])C([H])([H])C(=O)N([H])c3c([H])c(N([H])[H])c([H])c(N([H])C(=O)N4C([H])([H])C([H])([H])C([H])([H])C([H])(n5nc(-c6c([H])c([H])c(Oc7c([H])c([H])c(F)c([H])c7F)c([H])c6[H])c(C(=O)N([H])[H])c5N([H])[H])C4([H])[H])c3[H])c([H])c([H])c2C1([H])[H]

>  <smiles>  (49) 
[H]c1c([H])c([H])c2c(c1[H])C([H])([H])C([H])([H])C([H])([H])C2([H])N([H])C(=O)C1([H])N(C(=O)C([H])(N([H])C(=O)C([H])(N([H])C([H])([H])[H])C([H])([H])[H])C(C([H])([H])[H])(C([H])([H])[H])C([H])([H])[H])C([H])([H])c2c([H])c(OC([H])([H])C(=O)C(C([H])([H])[H])(C([H])([H])[H])C([H])([H])C([H])([H])C(=O)N([H])c3c([H])c(N([H])[H])c([H])c(N([H])C(=O)N4C([H])([H])C([H])([H])C([H])([H])C([H])(n5nc(-c6c([H])c([H])c(Oc7c([H])c([H])c(F)c([H])c7F)c([H])c6[H])c(C(=O)N([H])[H])c5N([H])[H])C4([H])[H])c3[H])c([H])c([H])c2C1([H])[H]

$$$$
49:0:0
     RDKit          3D

 94103  0  0  1  0  0  0  0  0999 V2000
  -31.3180  -19.9990   19.7000 C   0  0  0  0  0  2  0  0  0  0  0  0
  -31.4610  -21.5240   19.7660 C   0  0  0  0  0  2  0  0  0  0  0  0
  -29.4820  -20.7720   21.0050 C   0  0  0  0  0  2  0  0  0  0  0  0
  -30.5140  -19.6400   20.9490 C   0  0  0  0  0  3  0  0  0  0  0  0
  -30.2340  -22.0370   20.5500 C   0  0  0  0  0  3  0  0  0  0  0  0
  -28.6260  -17.8110   20.8710 C   0  0  0  0  0  3  0  0  0  0  0  0
  -28.6850  -16.3950   20.9570 C   0  0  0  0  0  3  0  0  0  0  0  0
  -29.9180  -18.2670   20.9360 C   0  0  0  0  0  0  0  0  0  0  0  0
  -30.0140  -16.1080   21.0470 C   0  0  0  0  0  0  0  0  0  0  0  0
  -30.7940  -17.2220   21.0420 O   0  0  0  0  0  0  0  0  0  0  0  0
  -30.8220  -14.1360   20.0720 C   0  0  0  0  0  0  0  0  0  0  0  0
  -30.4200  -11.9730   18.9440 C   0  0  0  0  0  2  0  0  0  0  0  0
  -29.4150  -12.1080   17.7860 C   0  0  0  0  0  2  0  0  0  0  0  0
  -27.9640  -12.0060   18.2940 C   0  0  0  0  0  2  0  0  0  0  0  0
  -27.6920  -12.9270   19.5120 C   0  0  0  0  0  3  0  0  0  0  0  0
  -28.7930  -12.7350   20.5800 C   0  0  0  0  0  2  0  0  0  0  0  0
  -30.1150  -12.9830   19.9630 N   0  0  0  0  0  0  0  0  0  0  0  0
  -31.7550  -14.4500   19.3220 O   0  0  0  0  0  0  0  0  0  0  0  0
  -30.4910  -14.8540   21.1470 N   0  0  0  0  0  0  0  0  0  0  0  0
  -29.9790  -14.2880   21.8050 H   0  0  0  0  0  0  0  0  0  0  0  0
  -25.3510  -13.6110   20.3620 C   0  0  0  0  0  0  0  0  0  0  0  0
  -24.2900  -12.8690   20.8040 C   0  0  0  0  0  0  0  0  0  0  0  0
  -24.7130  -11.5040   20.7550 C   0  0  0  0  0  0  0  0  0  0  0  0
  -26.3590  -12.7010   20.0710 N   0  0  0  0  0  0  0  0  0  0  0  0
  -25.9780  -11.4300   20.3650 N   0  0  0  0  0  0  0  0  0  0  0  0
  -23.9720  -10.2610   21.0010 C   0  0  0  0  0  0  0  0  0  0  0  0
  -24.3850   -9.3390   21.9880 C   0  0  0  0  0  3  0  0  0  0  0  0
  -23.6490   -8.1560   22.2160 C   0  0  0  0  0  3  0  0  0  0  0  0
  -22.4810   -7.8890   21.4620 C   0  0  0  0  0  0  0  0  0  0  0  0
  -22.0860   -8.8020   20.4680 C   0  0  0  0  0  3  0  0  0  0  0  0
  -22.8240   -9.9750   20.2370 C   0  0  0  0  0  3  0  0  0  0  0  0
  -21.7160   -6.7560   21.5980 O   0  0  0  0  0  0  0  0  0  0  0  0
  -21.5790   -6.1210   22.8060 C   0  0  0  0  0  0  0  0  0  0  0  0
  -21.0430   -6.7770   23.9360 C   0  0  0  0  0  3  0  0  0  0  0  0
  -20.8550   -6.0650   25.1380 C   0  0  0  0  0  3  0  0  0  0  0  0
  -21.1940   -4.7000   25.2090 C   0  0  0  0  0  0  0  0  0  0  0  0
  -21.7210   -4.0460   24.0830 C   0  0  0  0  0  3  0  0  0  0  0  0
  -21.9110   -4.7540   22.8840 C   0  0  0  0  0  0  0  0  0  0  0  0
  -22.4020   -4.1120   21.7960 F   0  0  0  0  0  0  0  0  0  0  0  0
  -21.0060   -4.0160   26.3620 F   0  0  0  0  0  0  0  0  0  0  0  0
  -22.9220  -13.3810   21.1580 C   0  0  0  0  0  0  0  0  0  0  0  0
  -22.2350  -12.7220   22.0820 N   0  0  0  0  0  0  0  0  0  0  0  0
  -22.4720  -14.4070   20.6460 O   0  0  0  0  0  0  0  0  0  0  0  0
  -22.6050  -11.8930   22.5240 H   0  0  0  0  0  0  0  0  0  0  0  0
  -21.3210  -13.0550   22.3560 H   0  0  0  0  0  0  0  0  0  0  0  0
  -25.5410  -14.9770   20.1680 N   0  0  0  0  0  0  0  0  0  0  0  0
  -24.8200  -15.6620   20.3650 H   0  0  0  0  0  0  0  0  0  0  0  0
  -26.3840  -15.3880   19.7880 H   0  0  0  0  0  0  0  0  0  0  0  0
  -28.7070  -22.6160   18.6560 C   0  0  0  0  0  2  0  0  0  0  0  0
  -29.3810  -23.0220   19.7500 C   0  0  0  0  0  0  0  0  0  0  0  0
  -29.3540  -24.4540   20.3000 C   0  0  0  0  0  2  0  0  0  0  0  0
  -29.9870  -25.9600   18.3130 C   0  0  0  0  0  1  0  0  0  0  0  0
  -28.9070  -25.5800   19.3340 C   0  0  0  0  0  3  0  0  0  0  0  0
  -28.6360  -26.7600   20.1060 O   0  0  0  0  0  0  0  0  0  0  0  0
  -24.5700  -31.7070   23.1780 C   0  0  0  0  0  0  0  0  0  0  0  0
  -27.4120  -27.4080   20.0570 C   0  0  0  0  0  0  0  0  0  0  0  0
  -23.4430  -30.3200   21.4700 C   0  0  0  0  0  3  0  0  0  0  0  0
  -24.9710  -28.8580   20.0490 C   0  0  0  0  0  0  0  0  0  0  0  0
  -25.9660  -30.7420   21.3530 C   0  0  0  0  0  2  0  0  0  0  0  0
  -26.1000  -29.3920   20.6790 C   0  0  0  0  0  0  0  0  0  0  0  0
  -27.3170  -28.6730   20.6830 C   0  0  0  0  0  3  0  0  0  0  0  0
  -26.2480  -26.8820   19.4400 C   0  0  0  0  0  3  0  0  0  0  0  0
  -25.0400  -27.6000   19.4340 C   0  0  0  0  0  3  0  0  0  0  0  0
  -23.7050  -29.6830   20.0810 C   0  0  0  0  0  2  0  0  0  0  0  0
  -24.6770  -30.9360   22.0580 N   0  0  0  0  0  0  0  0  0  0  0  0
  -23.4680  -31.9410   23.6930 O   0  0  0  0  0  0  0  0  0  0  0  0
  -22.7930  -29.2570   22.3850 C   0  0  0  0  0  0  0  0  0  0  0  0
  -21.4720  -29.0650   22.2360 N   0  0  0  0  0  0  0  0  0  0  0  0
  -23.4740  -28.6090   23.1840 O   0  0  0  0  0  0  0  0  0  0  0  0
  -20.9810  -29.6410   21.5670 H   0  0  0  0  0  0  0  0  0  0  0  0
  -18.0960  -27.8710   22.7000 C   0  0  0  0  0  0  0  0  0  0  0  0
  -20.6570  -28.0960   22.9650 C   0  0  0  0  0  3  0  0  0  0  0  0
  -20.7450  -26.6940   22.3170 C   0  0  0  0  0  2  0  0  0  0  0  0
  -19.6350  -26.4330   21.2940 C   0  0  0  0  0  2  0  0  0  0  0  0
  -18.2580  -26.5570   21.9550 C   0  0  0  0  0  2  0  0  0  0  0  0
  -19.2240  -28.6020   23.1600 C   0  0  0  0  0  0  0  0  0  0  0  0
  -19.0200  -29.8350   23.8150 C   0  0  0  0  0  3  0  0  0  0  0  0
  -17.7220  -30.3390   24.0140 C   0  0  0  0  0  3  0  0  0  0  0  0
  -16.6080  -29.6050   23.5700 C   0  0  0  0  0  3  0  0  0  0  0  0
  -16.7960  -28.3730   22.9190 C   0  0  0  0  0  3  0  0  0  0  0  0
  -25.8250  -32.3530   23.8450 C   0  0  0  0  0  3  0  0  0  0  0  0
  -26.3280  -31.5680   25.1180 C   0  0  1  0  0  0  0  0  0  0  0  0
  -25.2150  -31.2770   26.1500 C   0  0  0  0  0  1  0  0  0  0  0  0
  -26.9600  -30.2160   24.7120 C   0  0  0  0  0  1  0  0  0  0  0  0
  -27.4350  -32.3800   25.8290 C   0  0  0  0  0  1  0  0  0  0  0  0
  -25.4740  -33.7370   24.1900 N   0  0  0  0  0  0  0  0  0  0  0  0
  -25.7970  -34.8100   23.4550 C   0  0  0  0  0  0  0  0  0  0  0  0
  -26.4950  -34.7410   22.4390 O   0  0  0  0  0  0  0  0  0  0  0  0
  -24.8560  -33.8640   24.9780 H   0  0  0  0  0  0  0  0  0  0  0  0
  -24.0310  -36.5610   23.0900 C   0  0  0  0  0  1  0  0  0  0  0  0
  -25.2650  -36.1770   23.9230 C   0  0  0  0  0  3  0  0  0  0  0  0
  -27.3540  -37.1060   24.8190 C   0  0  0  0  0  1  0  0  0  0  0  0
  -26.2710  -37.2590   23.8510 N   0  0  0  0  0  0  0  0  0  0  0  0
  -25.8360  -38.1650   24.0020 H   0  0  0  0  0  0  0  0  0  0  0  0
  1  2  1  0
  1  4  1  0
  2  5  1  0
  4  8  1  0
  4  3  1  0
  5 50  1  0
  5  3  1  0
  6  8  2  0
  6  7  1  0
  7  9  2  0
  8 10  1  0
  9 19  1  0
 10  9  1  0
 11 19  1  0
 12 17  1  0
 13 14  1  0
 13 12  1  0
 15 14  1  0
 15 24  1  0
 15 16  1  0
 17 11  1  0
 17 16  1  0
 18 11  2  0
 19 20  1  0
 21 22  2  0
 22 41  1  0
 23 22  1  0
 23 26  1  0
 24 21  1  0
 24 25  1  0
 25 23  2  0
 26 27  1  0
 27 28  2  0
 29 32  1  0
 29 28  1  0
 30 29  2  0
 31 30  1  0
 31 26  2  0
 32 33  1  0
 33 38  2  0
 33 34  1  0
 34 35  2  0
 35 36  1  0
 36 40  1  0
 37 36  2  0
 38 37  1  0
 39 38  1  0
 41 42  1  0
 42 45  1  0
 42 44  1  0
 43 41  2  0
 46 21  1  0
 46 47  1  0
 48 46  1  0
 49 50  2  0
 50 51  1  0
 53 52  1  0
 53 54  1  0
 53 51  1  0
 55 66  2  0
 56 54  1  0
 56 61  1  0
 57 65  1  0
 57 67  1  0
 58 64  1  0
 58 60  1  0
 59 65  1  0
 60 61  2  0
 60 59  1  0
 62 56  2  0
 63 62  1  0
 63 58  2  0
 64 57  1  0
 65 55  1  0
 67 69  2  0
 68 67  1  0
 70 68  1  0
 71 80  2  0
 71 76  1  0
 72 68  1  0
 72 76  1  0
 73 72  1  0
 74 75  1  0
 74 73  1  0
 75 71  1  0
 76 77  2  0
 77 78  1  0
 79 78  2  0
 80 79  1  0
 81 55  1  0
 81 86  1  0
 81 82  1  0
 82 85  1  1
 82 83  1  0
 84 82  1  0
 86 89  1  0
 87 91  1  0
 87 86  1  0
 88 87  2  0
 91 90  1  0
 93 91  1  0
 93 94  1  0
 93 92  1  0
M  ISO  4  11 100  19 100  53 101  54 101
M  END
>  <TORSDO>  (50) 
F 20

>  <SCORE>  (50) 
-13.205

>  <name>  (50) 
49

>  <ligand_id>  (50) 
49

>  <original_smiles>  (50) 
[H]C([H])=C(C([H])([H])C([H])(Oc1c([H])c([H])c2c(c1[H])C([H])([H])N(C(=O)C([H])(N([H])C(=O)C([H])(N([H])C([H])([H])[H])C([H])([H])[H])C(C([H])([H])[H])(C([H])([H])[H])C([H])([H])[H])C([H])(C(=O)N([H])C1([H])c3c([H])c([H])c([H])c([H])c3C([H])([H])C([H])([H])C1([H])[H])C2([H])[H])C([H])([H])[H])C1([H])C([H])([H])C([H])([H])C([H])(c2oc(N([H])C(=O)N3C([H])([H])C([H])([H])C([H])([H])C([H])(n4nc(-c5c([H])c([H])c(Oc6c([H])c([H])c(F)c([H])c6F)c([H])c5[H])c(C(=O)N([H])[H])c4N([H])[H])C3([H])[H])c([H])c2[H])C1([H])[H]

>  <smiles>  (50) 
[H]C([H])=C(C([H])([H])C([H])(Oc1c([H])c([H])c2c(c1[H])C([H])([H])N(C(=O)C([H])(N([H])C(=O)C([H])(N([H])C([H])([H])[H])C([H])([H])[H])C(C([H])([H])[H])(C([H])([H])[H])C([H])([H])[H])C([H])(C(=O)N([H])C1([H])c3c([H])c([H])c([H])c([H])c3C([H])([H])C([H])([H])C1([H])[H])C2([H])[H])C([H])([H])[H])C1([H])C([H])([H])C([H])([H])C([H])(c2oc(N([H])C(=O)N3C([H])([H])C([H])([H])C([H])([H])C([H])(n4nc(-c5c([H])c([H])c(Oc6c([H])c([H])c(F)c([H])c6F)c([H])c5[H])c(C(=O)N([H])[H])c4N([H])[H])C3([H])[H])c([H])c2[H])C1([H])[H]

$$$$
50:0:0
     RDKit          3D

 95104  0  0  1  0  0  0  0  0999 V2000
  -27.9730  -21.7600   19.2480 C   0  0  0  0  0  2  0  0  0  0  0  0
  -27.8160  -20.4860   20.0830 C   0  0  0  0  0  2  0  0  0  0  0  0
  -30.0800  -21.2070   20.2300 C   0  0  0  0  0  2  0  0  0  0  0  0
  -29.2130  -22.4180   19.8650 C   0  0  0  0  0  3  0  0  0  0  0  0
  -29.1640  -20.0940   20.4710 N   0  0  0  0  0  0  0  0  0  0  0  0
  -30.2300  -18.4580   18.9660 C   0  0  0  0  0  3  0  0  0  0  0  0
  -30.4630  -17.0630   19.0890 C   0  0  0  0  0  3  0  0  0  0  0  0
  -29.5880  -18.8140   20.1190 C   0  0  0  0  0  0  0  0  0  0  0  0
  -29.9540  -16.7040   20.3140 C   0  0  0  0  0  0  0  0  0  0  0  0
  -29.3620  -17.7570   20.9480 O   0  0  0  0  0  0  0  0  0  0  0  0
  -30.6750  -14.4140   20.4190 C   0  0  0  0  0  0  0  0  0  0  0  0
  -30.3470  -12.2780   19.2740 C   0  0  0  0  0  2  0  0  0  0  0  0
  -29.4210  -12.5580   18.0710 C   0  0  0  0  0  2  0  0  0  0  0  0
  -27.9410  -12.4480   18.4880 C   0  0  0  0  0  2  0  0  0  0  0  0
  -27.6170  -13.2520   19.7760 C   0  0  0  0  0  3  0  0  0  0  0  0
  -28.6630  -12.9700   20.8790 C   0  0  0  0  0  2  0  0  0  0  0  0
  -30.0000  -13.2410   20.3260 N   0  0  0  0  0  0  0  0  0  0  0  0
  -31.8240  -14.5710   19.9950 O   0  0  0  0  0  0  0  0  0  0  0  0
  -29.9330  -15.4510   20.8420 N   0  0  0  0  0  0  0  0  0  0  0  0
  -29.1120  -15.2150   21.3760 H   0  0  0  0  0  0  0  0  0  0  0  0
  -25.2150  -13.8800   20.4620 C   0  0  0  0  0  0  0  0  0  0  0  0
  -24.1390  -13.1160   20.8250 C   0  0  0  0  0  0  0  0  0  0  0  0
  -24.5920  -11.7610   20.8030 C   0  0  0  0  0  0  0  0  0  0  0  0
  -26.2560  -12.9910   20.2420 N   0  0  0  0  0  0  0  0  0  0  0  0
  -25.8840  -11.7120   20.5040 N   0  0  0  0  0  0  0  0  0  0  0  0
  -23.8590  -10.5020   20.9970 C   0  0  0  0  0  0  0  0  0  0  0  0
  -24.2730   -9.5430   21.9480 C   0  0  0  0  0  3  0  0  0  0  0  0
  -23.5430   -8.3480   22.1290 C   0  0  0  0  0  3  0  0  0  0  0  0
  -22.3810   -8.1050   21.3570 C   0  0  0  0  0  0  0  0  0  0  0  0
  -21.9830   -9.0540   20.3990 C   0  0  0  0  0  3  0  0  0  0  0  0
  -22.7160  -10.2390   20.2170 C   0  0  0  0  0  3  0  0  0  0  0  0
  -21.6230   -6.9640   21.4430 O   0  0  0  0  0  0  0  0  0  0  0  0
  -21.5470   -6.2390   22.6050 C   0  0  0  0  0  0  0  0  0  0  0  0
  -21.0830   -6.8060   23.8110 C   0  0  0  0  0  3  0  0  0  0  0  0
  -20.9570   -6.0060   24.9630 C   0  0  0  0  0  3  0  0  0  0  0  0
  -21.2860   -4.6380   24.9080 C   0  0  0  0  0  0  0  0  0  0  0  0
  -21.7440   -4.0700   23.7070 C   0  0  0  0  0  3  0  0  0  0  0  0
  -21.8740   -4.8690   22.5580 C   0  0  0  0  0  0  0  0  0  0  0  0
  -22.2970   -4.3140   21.3970 F   0  0  0  0  0  0  0  0  0  0  0  0
  -21.1560   -3.8650   26.0130 F   0  0  0  0  0  0  0  0  0  0  0  0
  -22.7430  -13.6030   21.0890 C   0  0  0  0  0  0  0  0  0  0  0  0
  -22.0040  -12.9170   21.9520 N   0  0  0  0  0  0  0  0  0  0  0  0
  -22.3160  -14.6310   20.5670 O   0  0  0  0  0  0  0  0  0  0  0  0
  -22.3550  -12.0850   22.4000 H   0  0  0  0  0  0  0  0  0  0  0  0
  -21.0700  -13.2340   22.1680 H   0  0  0  0  0  0  0  0  0  0  0  0
  -25.3930  -15.2510   20.2890 N   0  0  0  0  0  0  0  0  0  0  0  0
  -24.6320  -15.9090   20.4100 H   0  0  0  0  0  0  0  0  0  0  0  0
  -26.2630  -15.6920   20.0220 H   0  0  0  0  0  0  0  0  0  0  0  0
  -30.3060  -23.0680   17.6180 C   0  0  0  0  0  1  0  0  0  0  0  0
  -31.2180  -23.9790   19.7580 C   0  0  0  0  0  1  0  0  0  0  0  0
  -29.9150  -23.5480   19.0420 C   0  0  2  0  0  0  0  0  0  0  0  0
  -28.9920  -24.7930   18.9400 C   0  0  0  0  0  0  0  0  0  0  0  0
  -28.7190  -25.3080   17.8500 O   0  0  0  0  0  0  0  0  0  0  0  0
  -28.4330  -25.3820   20.2420 C   0  0  0  0  0  2  0  0  0  0  0  0
  -28.4450  -26.8090   20.1860 O   0  0  0  0  0  0  0  0  0  0  0  0
  -24.5690  -31.8830   23.2590 C   0  0  0  0  0  0  0  0  0  0  0  0
  -27.2400  -27.4680   20.1860 C   0  0  0  0  0  0  0  0  0  0  0  0
  -23.3700  -30.4790   21.6090 C   0  0  0  0  0  3  0  0  0  0  0  0
  -24.8330  -28.9420   20.1930 C   0  0  0  0  0  0  0  0  0  0  0  0
  -25.8920  -30.8490   21.4200 C   0  0  0  0  0  2  0  0  0  0  0  0
  -25.9810  -29.4780   20.7850 C   0  0  0  0  0  0  0  0  0  0  0  0
  -27.1870  -28.7480   20.7780 C   0  0  0  0  0  3  0  0  0  0  0  0
  -26.0730  -26.9360   19.5920 C   0  0  0  0  0  3  0  0  0  0  0  0
  -24.8700  -27.6690   19.5970 C   0  0  0  0  0  3  0  0  0  0  0  0
  -23.5850  -29.7930   20.2320 C   0  0  0  0  0  2  0  0  0  0  0  0
  -24.6280  -31.0850   22.1560 N   0  0  0  0  0  0  0  0  0  0  0  0
  -23.4860  -32.1520   23.7950 O   0  0  0  0  0  0  0  0  0  0  0  0
  -22.7170  -29.4580   22.5670 C   0  0  0  0  0  0  0  0  0  0  0  0
  -21.3940  -29.2750   22.4330 N   0  0  0  0  0  0  0  0  0  0  0  0
  -23.3980  -28.8330   23.3850 O   0  0  0  0  0  0  0  0  0  0  0  0
  -20.9080  -29.8340   21.7450 H   0  0  0  0  0  0  0  0  0  0  0  0
  -18.0170  -28.0820   22.9030 C   0  0  0  0  0  0  0  0  0  0  0  0
  -20.5720  -28.3360   23.1940 C   0  0  0  0  0  3  0  0  0  0  0  0
  -20.6780  -26.9060   22.6160 C   0  0  0  0  0  2  0  0  0  0  0  0
  -19.5830  -26.5860   21.5940 C   0  0  0  0  0  2  0  0  0  0  0  0
  -18.1960  -26.7330   22.2280 C   0  0  0  0  0  2  0  0  0  0  0  0
  -19.1340  -28.8410   23.3430 C   0  0  0  0  0  0  0  0  0  0  0  0
  -18.9130  -30.1050   23.9310 C   0  0  0  0  0  3  0  0  0  0  0  0
  -17.6090  -30.6100   24.0860 C   0  0  0  0  0  3  0  0  0  0  0  0
  -16.5050  -29.8470   23.6650 C   0  0  0  0  0  3  0  0  0  0  0  0
  -16.7110  -28.5860   23.0790 C   0  0  0  0  0  3  0  0  0  0  0  0
  -25.8540  -32.5110   23.8850 C   0  0  0  0  0  3  0  0  0  0  0  0
  -26.3590  -31.7490   25.1710 C   0  0  1  0  0  0  0  0  0  0  0  0
  -25.2580  -31.5260   26.2340 C   0  0  0  0  0  1  0  0  0  0  0  0
  -26.9380  -30.3670   24.7930 C   0  0  0  0  0  1  0  0  0  0  0  0
  -27.5070  -32.5440   25.8370 C   0  0  0  0  0  1  0  0  0  0  0  0
  -25.5520  -33.9140   24.1980 N   0  0  0  0  0  0  0  0  0  0  0  0
  -25.9010  -34.9570   23.4330 C   0  0  0  0  0  0  0  0  0  0  0  0
  -26.5850  -34.8380   22.4120 O   0  0  0  0  0  0  0  0  0  0  0  0
  -24.9490  -34.0810   24.9910 H   0  0  0  0  0  0  0  0  0  0  0  0
  -24.1980  -36.7610   23.0240 C   0  0  0  0  0  1  0  0  0  0  0  0
  -25.4150  -36.3520   23.8680 C   0  0  0  0  0  3  0  0  0  0  0  0
  -27.5360  -37.2260   24.7460 C   0  0  0  0  0  1  0  0  0  0  0  0
  -26.4590  -37.3950   23.7730 N   0  0  0  0  0  0  0  0  0  0  0  0
  -26.0570  -38.3200   23.9020 H   0  0  0  0  0  0  0  0  0  0  0  0
  1  4  1  0
  1  2  1  0
  2  5  1  0
  3  5  1  0
  4 51  1  0
  4  3  1  0
  6  7  1  0
  6  8  2  0
  7  9  2  0
  8  5  1  0
  8 10  1  0
  9 19  1  0
  9 10  1  0
 11 19  1  0
 12 17  1  0
 13 14  1  0
 13 12  1  0
 15 14  1  0
 15 24  1  0
 15 16  1  0
 17 11  1  0
 17 16  1  0
 18 11  2  0
 19 20  1  0
 21 22  2  0
 22 41  1  0
 23 22  1  0
 23 26  1  0
 24 21  1  0
 24 25  1  0
 25 23  2  0
 26 27  1  0
 27 28  2  0
 29 32  1  0
 29 28  1  0
 30 29  2  0
 31 30  1  0
 31 26  2  0
 32 33  1  0
 33 34  1  0
 34 35  2  0
 36 35  1  0
 36 40  1  0
 37 36  2  0
 38 33  2  0
 38 37  1  0
 39 38  1  0
 41 42  1  0
 42 45  1  0
 42 44  1  0
 43 41  2  0
 46 47  1  0
 46 21  1  0
 48 46  1  0
 51 49  1  6
 51 50  1  0
 52 51  1  0
 52 54  1  0
 53 52  2  0
 55 57  1  0
 55 54  1  0
 56 67  2  0
 57 62  1  0
 58 66  1  0
 58 68  1  0
 59 65  1  0
 59 61  1  0
 60 66  1  0
 61 60  1  0
 62 61  2  0
 63 64  1  0
 63 57  2  0
 64 59  2  0
 65 58  1  0
 66 56  1  0
 68 70  2  0
 69 68  1  0
 71 69  1  0
 72 81  2  0
 72 77  1  0
 73 69  1  0
 73 77  1  0
 74 73  1  0
 75 76  1  0
 75 74  1  0
 76 72  1  0
 77 78  2  0
 78 79  1  0
 80 79  2  0
 81 80  1  0
 82 56  1  0
 82 87  1  0
 82 83  1  0
 83 86  1  1
 83 84  1  0
 85 83  1  0
 87 90  1  0
 88 92  1  0
 88 87  1  0
 89 88  2  0
 92 91  1  0
 94 92  1  0
 94 95  1  0
 94 93  1  0
M  ISO  4  11 100  19 100  54 101  55 101
M  END
>  <TORSDO>  (51) 
F 20

>  <SCORE>  (51) 
-14.018

>  <name>  (51) 
50

>  <ligand_id>  (51) 
50

>  <original_smiles>  (51) 
[H]c1c(N([H])C(=O)N2C([H])([H])C([H])([H])C([H])([H])C([H])(n3nc(-c4c([H])c([H])c(Oc5c([H])c([H])c(F)c([H])c5F)c([H])c4[H])c(C(=O)N([H])[H])c3N([H])[H])C2([H])[H])oc(N2C([H])([H])C([H])([H])C([H])(C(C(=O)C([H])([H])Oc3c([H])c([H])c4c(c3[H])C([H])([H])N(C(=O)C([H])(N([H])C(=O)C([H])(N([H])C([H])([H])[H])C([H])([H])[H])C(C([H])([H])[H])(C([H])([H])[H])C([H])([H])[H])C([H])(C(=O)N([H])C3([H])c5c([H])c([H])c([H])c([H])c5C([H])([H])C([H])([H])C3([H])[H])C4([H])[H])(C([H])([H])[H])C([H])([H])[H])C2([H])[H])c1[H]

>  <smiles>  (51) 
[H]c1c(N([H])C(=O)N2C([H])([H])C([H])([H])C([H])([H])C([H])(n3nc(-c4c([H])c([H])c(Oc5c([H])c([H])c(F)c([H])c5F)c([H])c4[H])c(C(=O)N([H])[H])c3N([H])[H])C2([H])[H])oc(N2C([H])([H])C([H])([H])C([H])(C(C(=O)C([H])([H])Oc3c([H])c([H])c4c(c3[H])C([H])([H])N(C(=O)C([H])(N([H])C(=O)C([H])(N([H])C([H])([H])[H])C([H])([H])[H])C(C([H])([H])[H])(C([H])([H])[H])C([H])([H])[H])C([H])(C(=O)N([H])C3([H])c5c([H])c([H])c([H])c([H])c5C([H])([H])C([H])([H])C3([H])[H])C4([H])[H])(C([H])([H])[H])C([H])([H])[H])C2([H])[H])c1[H]

$$$$
51:0:0
     RDKit          3D

100109  0  0  1  0  0  0  0  0999 V2000
  -31.9590  -22.7920   22.2280 C   0  0  0  0  0  1  0  0  0  0  0  0
  -30.5670  -22.2230   21.8830 C   0  0  0  0  0  3  0  0  0  0  0  0
  -30.6550  -21.3830   20.6790 N   0  0  0  0  0  0  0  0  0  0  0  0
  -31.0190  -21.7940   19.8190 H   0  0  0  0  0  0  0  0  0  0  0  0
  -29.8280  -19.2960   19.7720 C   0  0  0  0  0  3  0  0  0  0  0  0
  -30.9210  -17.8050   21.8560 C   0  0  0  0  0  3  0  0  0  0  0  0
  -29.6030  -17.8960   19.7970 C   0  0  0  0  0  0  0  0  0  0  0  0
  -30.5560  -19.9740   20.7630 C   0  0  0  0  0  0  0  0  0  0  0  0
  -30.1260  -17.1340   20.8950 C   0  0  0  0  0  0  0  0  0  0  0  0
  -31.1490  -19.1970   21.7870 C   0  0  0  0  0  0  0  0  0  0  0  0
  -31.9540  -19.7700   22.7130 F   0  0  0  0  0  0  0  0  0  0  0  0
  -30.6380  -14.6900   21.1470 C   0  0  0  0  0  0  0  0  0  0  0  0
  -30.5580  -12.3690   20.3150 C   0  0  0  0  0  2  0  0  0  0  0  0
  -29.7560  -12.2830   18.9980 C   0  0  0  0  0  2  0  0  0  0  0  0
  -28.2300  -12.2230   19.2510 C   0  0  0  0  0  2  0  0  0  0  0  0
  -27.7200  -13.2040   20.3430 C   0  0  0  0  0  3  0  0  0  0  0  0
  -28.6490  -13.2030   21.5780 C   0  0  0  0  0  2  0  0  0  0  0  0
  -30.0180  -13.4790   21.1150 N   0  0  0  0  0  0  0  0  0  0  0  0
  -31.8450  -14.8290   20.9450 O   0  0  0  0  0  0  0  0  0  0  0  0
  -29.8020  -15.7560   21.1440 N   0  0  0  0  0  0  0  0  0  0  0  0
  -28.8230  -15.5320   21.2170 H   0  0  0  0  0  0  0  0  0  0  0  0
  -25.2700  -13.8160   20.8600 C   0  0  0  0  0  0  0  0  0  0  0  0
  -24.1710  -13.0450   21.1150 C   0  0  0  0  0  0  0  0  0  0  0  0
  -24.6270  -11.6910   21.1150 C   0  0  0  0  0  0  0  0  0  0  0  0
  -26.3290  -12.9340   20.7040 N   0  0  0  0  0  0  0  0  0  0  0  0
  -25.9400  -11.6500   20.9290 N   0  0  0  0  0  0  0  0  0  0  0  0
  -23.8820  -10.4300   21.2230 C   0  0  0  0  0  0  0  0  0  0  0  0
  -24.2590   -9.4210   22.1340 C   0  0  0  0  0  3  0  0  0  0  0  0
  -23.5110   -8.2270   22.2320 C   0  0  0  0  0  3  0  0  0  0  0  0
  -22.3750   -8.0330   21.4110 C   0  0  0  0  0  0  0  0  0  0  0  0
  -22.0180   -9.0310   20.4860 C   0  0  0  0  0  3  0  0  0  0  0  0
  -22.7680  -10.2130   20.3860 C   0  0  0  0  0  3  0  0  0  0  0  0
  -21.6070   -6.8940   21.4180 O   0  0  0  0  0  0  0  0  0  0  0  0
  -21.5490   -6.0740   22.5160 C   0  0  0  0  0  0  0  0  0  0  0  0
  -21.1180   -6.5430   23.7750 C   0  0  0  0  0  3  0  0  0  0  0  0
  -21.0010   -5.6500   24.8590 C   0  0  0  0  0  3  0  0  0  0  0  0
  -21.3080   -4.2860   24.6850 C   0  0  0  0  0  0  0  0  0  0  0  0
  -21.7400   -3.8160   23.4310 C   0  0  0  0  0  3  0  0  0  0  0  0
  -21.8530   -4.7070   22.3500 C   0  0  0  0  0  0  0  0  0  0  0  0
  -22.2450   -4.2450   21.1380 F   0  0  0  0  0  0  0  0  0  0  0  0
  -21.1900   -3.4240   25.7210 F   0  0  0  0  0  0  0  0  0  0  0  0
  -22.7530  -13.5210   21.2570 C   0  0  0  0  0  0  0  0  0  0  0  0
  -21.9500  -12.8350   22.0610 N   0  0  0  0  0  0  0  0  0  0  0  0
  -22.3610  -14.5430   20.6920 O   0  0  0  0  0  0  0  0  0  0  0  0
  -22.2760  -12.0090   22.5470 H   0  0  0  0  0  0  0  0  0  0  0  0
  -20.9950  -13.1390   22.1960 H   0  0  0  0  0  0  0  0  0  0  0  0
  -25.4480  -15.1900   20.7250 N   0  0  0  0  0  0  0  0  0  0  0  0
  -24.6690  -15.8340   20.8060 H   0  0  0  0  0  0  0  0  0  0  0  0
  -26.3150  -15.6500   20.4950 H   0  0  0  0  0  0  0  0  0  0  0  0
  -27.4220  -16.8880   18.6960 C   0  0  0  0  0  2  0  0  0  0  0  0
  -28.5270  -15.9700   18.2290 C   0  0  0  0  0  2  0  0  0  0  0  0
  -28.8330  -17.3960   18.5850 C   0  0  0  0  0  3  0  0  0  0  0  0
  -28.0380  -22.4540   21.7120 C   0  0  0  0  0  1  0  0  0  0  0  0
  -29.3480  -23.2560   21.9230 C   0  0  1  0  0  0  0  0  0  0  0  0
  -29.4950  -23.0130   24.5660 C   0  0  0  0  0  1  0  0  0  0  0  0
  -29.2830  -23.9230   23.3350 C   0  0  0  0  0  2  0  0  0  0  0  0
  -29.3820  -24.4330   20.8750 C   0  0  0  0  0  0  0  0  0  0  0  0
  -30.4090  -24.7230   20.2560 O   0  0  0  0  0  0  0  0  0  0  0  0
  -28.0950  -25.2680   20.6380 C   0  0  0  0  0  2  0  0  0  0  0  0
  -28.3600  -26.6490   20.2610 O   0  0  0  0  0  0  0  0  0  0  0  0
  -24.6000  -31.9060   23.2730 C   0  0  0  0  0  0  0  0  0  0  0  0
  -27.2330  -27.4470   20.1940 C   0  0  0  0  0  0  0  0  0  0  0  0
  -23.4020  -30.5330   21.6000 C   0  0  0  0  0  3  0  0  0  0  0  0
  -24.8640  -29.0070   20.1720 C   0  0  0  0  0  0  0  0  0  0  0  0
  -25.9340  -30.8730   21.4290 C   0  0  0  0  0  2  0  0  0  0  0  0
  -26.0200  -29.5040   20.7860 C   0  0  0  0  0  0  0  0  0  0  0  0
  -27.2110  -28.7330   20.7920 C   0  0  0  0  0  3  0  0  0  0  0  0
  -26.0590  -26.9830   19.5580 C   0  0  0  0  0  3  0  0  0  0  0  0
  -24.8810  -27.7510   19.5480 C   0  0  0  0  0  3  0  0  0  0  0  0
  -23.6240  -29.8700   20.2120 C   0  0  0  0  0  2  0  0  0  0  0  0
  -24.6640  -31.1180   22.1620 N   0  0  0  0  0  0  0  0  0  0  0  0
  -23.5140  -32.1790   23.8020 O   0  0  0  0  0  0  0  0  0  0  0  0
  -22.7270  -29.5080   22.5390 C   0  0  0  0  0  0  0  0  0  0  0  0
  -21.4080  -29.3200   22.3780 N   0  0  0  0  0  0  0  0  0  0  0  0
  -23.3940  -28.8790   23.3680 O   0  0  0  0  0  0  0  0  0  0  0  0
  -20.9340  -29.8840   21.6860 H   0  0  0  0  0  0  0  0  0  0  0  0
  -18.0370  -28.0740   22.7480 C   0  0  0  0  0  0  0  0  0  0  0  0
  -20.5770  -28.3760   23.1220 C   0  0  0  0  0  3  0  0  0  0  0  0
  -20.7240  -26.9430   22.5610 C   0  0  0  0  0  2  0  0  0  0  0  0
  -19.6710  -26.5940   21.5050 C   0  0  0  0  0  2  0  0  0  0  0  0
  -18.2620  -26.7230   22.0910 C   0  0  0  0  0  2  0  0  0  0  0  0
  -19.1250  -28.8580   23.2190 C   0  0  0  0  0  0  0  0  0  0  0  0
  -18.8600  -30.1210   23.7910 C   0  0  0  0  0  3  0  0  0  0  0  0
  -17.5420  -30.6010   23.8990 C   0  0  0  0  0  3  0  0  0  0  0  0
  -16.4690  -29.8150   23.4460 C   0  0  0  0  0  3  0  0  0  0  0  0
  -16.7170  -28.5540   22.8770 C   0  0  0  0  0  3  0  0  0  0  0  0
  -25.8860  -32.5200   23.9170 C   0  0  0  0  0  3  0  0  0  0  0  0
  -25.5730  -33.9050   24.3000 N   0  0  0  0  0  0  0  0  0  0  0  0
  -25.9080  -34.9860   23.5850 C   0  0  0  0  0  0  0  0  0  0  0  0
  -26.5880  -34.9240   22.5590 O   0  0  0  0  0  0  0  0  0  0  0  0
  -24.9780  -34.0280   25.1040 H   0  0  0  0  0  0  0  0  0  0  0  0
  -24.1830  -36.7970   23.2760 C   0  0  0  0  0  1  0  0  0  0  0  0
  -25.4100  -36.3520   24.0900 C   0  0  0  0  0  3  0  0  0  0  0  0
  -27.5290  -37.2030   24.9980 C   0  0  0  0  0  1  0  0  0  0  0  0
  -26.4420  -37.4090   24.0460 N   0  0  0  0  0  0  0  0  0  0  0  0
  -26.0280  -38.3200   24.2320 H   0  0  0  0  0  0  0  0  0  0  0  0
  -26.4100  -31.7020   25.1590 C   0  0  1  0  0  0  0  0  0  0  0  0
  -25.3280  -31.4260   26.2240 C   0  0  0  0  0  1  0  0  0  0  0  0
  -26.9860  -30.3380   24.7040 C   0  0  0  0  0  1  0  0  0  0  0  0
  -27.5580  -32.4740   25.8540 C   0  0  0  0  0  1  0  0  0  0  0  0
  2 54  1  0
  2  1  1  0
  3  8  1  0
  3  2  1  0
  4  3  1  0
  5  7  2  0
  5  8  1  0
  7  9  1  0
  8 10  2  0
  9 20  1  0
  9  6  2  0
 10  6  1  0
 10 11  1  0
 13 18  1  0
 14 15  1  0
 14 13  1  0
 16 15  1  0
 16 25  1  0
 16 17  1  0
 18 12  1  0
 18 17  1  0
 19 12  2  0
 20 12  1  0
 20 21  1  0
 22 23  2  0
 23 42  1  0
 24 23  1  0
 24 27  1  0
 25 22  1  0
 25 26  1  0
 26 24  2  0
 27 28  1  0
 28 29  2  0
 30 33  1  0
 30 29  1  0
 31 30  2  0
 32 31  1  0
 32 27  2  0
 33 34  1  0
 34 35  1  0
 35 36  2  0
 37 36  1  0
 37 41  1  0
 38 37  2  0
 39 34  2  0
 39 38  1  0
 40 39  1  0
 42 43  1  0
 43 46  1  0
 43 45  1  0
 44 42  2  0
 47 48  1  0
 47 22  1  0
 49 47  1  0
 51 52  1  0
 51 50  1  0
 52 50  1  0
 52  7  1  0
 54 53  1  6
 54 56  1  0
 56 55  1  0
 57 54  1  0
 58 57  2  0
 59 57  1  0
 60 59  1  0
 61 72  2  0
 62 60  1  0
 62 67  1  0
 63 71  1  0
 63 73  1  0
 64 70  1  0
 64 66  1  0
 65 71  1  0
 66 67  2  0
 66 65  1  0
 68 62  2  0
 69 68  1  0
 69 64  2  0
 70 63  1  0
 71 61  1  0
 73 75  2  0
 74 73  1  0
 76 74  1  0
 77 86  2  0
 77 82  1  0
 78 74  1  0
 78 82  1  0
 79 78  1  0
 80 81  1  0
 80 79  1  0
 81 77  1  0
 82 83  2  0
 83 84  1  0
 85 84  2  0
 86 85  1  0
 87 61  1  0
 87 88  1  0
 87 97  1  0
 88 91  1  0
 89 93  1  0
 89 88  1  0
 90 89  2  0
 93 92  1  0
 95 93  1  0
 95 96  1  0
 95 94  1  0
 97100  1  1
 97 98  1  0
 99 97  1  0
M  ISO  4  12 100  20 100  59 101  60 101
M  END
>  <TORSDO>  (52) 
F 23

>  <SCORE>  (52) 
-10.173

>  <name>  (52) 
51

>  <ligand_id>  (52) 
51

>  <original_smiles>  (52) 
[H]c1c([H])c([H])c2c(c1[H])C([H])([H])C([H])([H])C([H])([H])C2([H])N([H])C(=O)C1([H])N(C(=O)C([H])(N([H])C(=O)C([H])(N([H])C([H])([H])[H])C([H])([H])[H])C(C([H])([H])[H])(C([H])([H])[H])C([H])([H])[H])C([H])([H])c2c([H])c(OC([H])([H])C(=O)C(C([H])([H])[H])(C([H])([H])C([H])([H])[H])C([H])(N([H])c3c([H])c(C4([H])C([H])([H])C4([H])[H])c(N([H])C(=O)N4C([H])([H])C([H])([H])C([H])([H])C([H])(n5nc(-c6c([H])c([H])c(Oc7c([H])c([H])c(F)c([H])c7F)c([H])c6[H])c(C(=O)N([H])[H])c5N([H])[H])C4([H])[H])c([H])c3F)C([H])([H])[H])c([H])c([H])c2C1([H])[H]

>  <smiles>  (52) 
[H]c1c([H])c([H])c2c(c1[H])C([H])([H])C([H])([H])C([H])([H])C2([H])N([H])C(=O)C1([H])N(C(=O)C([H])(N([H])C(=O)C([H])(N([H])C([H])([H])[H])C([H])([H])[H])C(C([H])([H])[H])(C([H])([H])[H])C([H])([H])[H])C([H])([H])c2c([H])c(OC([H])([H])C(=O)C(C([H])([H])[H])(C([H])([H])C([H])([H])[H])C([H])(N([H])c3c([H])c(C4([H])C([H])([H])C4([H])[H])c(N([H])C(=O)N4C([H])([H])C([H])([H])C([H])([H])C([H])(n5nc(-c6c([H])c([H])c(Oc7c([H])c([H])c(F)c([H])c7F)c([H])c6[H])c(C(=O)N([H])[H])c5N([H])[H])C4([H])[H])c([H])c3F)C([H])([H])[H])c([H])c([H])c2C1([H])[H]

$$$$
52:0:0
     RDKit          3D

 97105  0  0  1  0  0  0  0  0999 V2000
  -29.1360  -22.2980   23.2390 C   0  0  0  0  0  1  0  0  0  0  0  0
  -31.1570  -23.5680   22.6150 C   0  0  0  0  0  1  0  0  0  0  0  0
  -29.9590  -22.7900   22.0180 C   0  0  1  0  0  0  0  0  0  0  0  0
  -30.4830  -21.5600   21.2180 C   0  0  0  0  0  0  0  0  0  0  0  0
  -29.7560  -20.4240   21.2360 N   0  0  0  0  0  0  0  0  0  0  0  0
  -31.5800  -21.6190   20.6550 O   0  0  0  0  0  0  0  0  0  0  0  0
  -28.9840  -20.4030   21.8880 H   0  0  0  0  0  0  0  0  0  0  0  0
  -30.4470  -18.2380   18.2730 C   0  0  0  0  0  3  0  0  0  0  0  0
  -30.2730  -19.3810   19.0690 C   0  0  0  0  0  3  0  0  0  0  0  0
  -30.3340  -16.9600   18.8450 C   0  0  0  0  0  3  0  0  0  0  0  0
  -29.8260  -17.9640   21.0100 C   0  0  0  0  0  3  0  0  0  0  0  0
  -29.9710  -19.2590   20.4440 C   0  0  0  0  0  0  0  0  0  0  0  0
  -30.0460  -16.8040   20.2240 C   0  0  0  0  0  0  0  0  0  0  0  0
  -30.6680  -14.4350   20.4070 C   0  0  0  0  0  0  0  0  0  0  0  0
  -30.3710  -12.2590   19.3180 C   0  0  0  0  0  2  0  0  0  0  0  0
  -29.4250  -12.4640   18.1170 C   0  0  0  0  0  2  0  0  0  0  0  0
  -27.9540  -12.3250   18.5560 C   0  0  0  0  0  2  0  0  0  0  0  0
  -27.6210  -13.1650   19.8200 C   0  0  0  0  0  3  0  0  0  0  0  0
  -28.6850  -12.9630   20.9220 C   0  0  0  0  0  2  0  0  0  0  0  0
  -30.0060  -13.2510   20.3410 N   0  0  0  0  0  0  0  0  0  0  0  0
  -31.8140  -14.5860   19.9730 O   0  0  0  0  0  0  0  0  0  0  0  0
  -29.9360  -15.4970   20.7950 N   0  0  0  0  0  0  0  0  0  0  0  0
  -29.0980  -15.3010   21.3220 H   0  0  0  0  0  0  0  0  0  0  0  0
  -25.2230  -13.7530   20.5460 C   0  0  0  0  0  0  0  0  0  0  0  0
  -24.1660  -12.9710   20.9270 C   0  0  0  0  0  0  0  0  0  0  0  0
  -24.6380  -11.6240   20.8960 C   0  0  0  0  0  0  0  0  0  0  0  0
  -26.2740  -12.8790   20.3100 N   0  0  0  0  0  0  0  0  0  0  0  0
  -25.9260  -11.5950   20.5770 N   0  0  0  0  0  0  0  0  0  0  0  0
  -23.9260  -10.3550   21.0970 C   0  0  0  0  0  0  0  0  0  0  0  0
  -24.3810   -9.3910   22.0240 C   0  0  0  0  0  3  0  0  0  0  0  0
  -23.6700   -8.1880   22.2130 C   0  0  0  0  0  3  0  0  0  0  0  0
  -22.4880   -7.9380   21.4750 C   0  0  0  0  0  0  0  0  0  0  0  0
  -22.0510   -8.8910   20.5380 C   0  0  0  0  0  3  0  0  0  0  0  0
  -22.7640  -10.0860   20.3460 C   0  0  0  0  0  3  0  0  0  0  0  0
  -21.7460   -6.7860   21.5740 O   0  0  0  0  0  0  0  0  0  0  0  0
  -21.7300   -6.0360   22.7230 C   0  0  0  0  0  0  0  0  0  0  0  0
  -21.3250   -6.5780   23.9630 C   0  0  0  0  0  3  0  0  0  0  0  0
  -21.2580   -5.7540   25.1030 C   0  0  0  0  0  3  0  0  0  0  0  0
  -21.5850   -4.3890   25.0070 C   0  0  0  0  0  0  0  0  0  0  0  0
  -21.9830   -3.8450   23.7710 C   0  0  0  0  0  3  0  0  0  0  0  0
  -22.0520   -4.6670   22.6330 C   0  0  0  0  0  0  0  0  0  0  0  0
  -22.4140   -4.1340   21.4420 F   0  0  0  0  0  0  0  0  0  0  0  0
  -21.5130   -3.5940   26.1000 F   0  0  0  0  0  0  0  0  0  0  0  0
  -22.7660  -13.4350   21.2090 C   0  0  0  0  0  0  0  0  0  0  0  0
  -22.0530  -12.7370   22.0870 N   0  0  0  0  0  0  0  0  0  0  0  0
  -22.3120  -14.4540   20.6890 O   0  0  0  0  0  0  0  0  0  0  0  0
  -22.4310  -11.9130   22.5290 H   0  0  0  0  0  0  0  0  0  0  0  0
  -21.1150  -13.0320   22.3200 H   0  0  0  0  0  0  0  0  0  0  0  0
  -25.3750  -15.1240   20.3640 N   0  0  0  0  0  0  0  0  0  0  0  0
  -24.6100  -15.7770   20.4960 H   0  0  0  0  0  0  0  0  0  0  0  0
  -26.2260  -15.5710   20.0440 H   0  0  0  0  0  0  0  0  0  0  0  0
  -29.0170  -23.7380   21.1820 C   0  0  0  0  0  2  0  0  0  0  0  0
  -30.6720  -25.2610   19.8640 C   0  0  0  0  0  1  0  0  0  0  0  0
  -29.5150  -23.3770   18.6730 C   0  0  0  0  0  1  0  0  0  0  0  0
  -29.3850  -24.4170   19.8100 C   0  0  1  0  0  0  0  0  0  0  0  0
  -28.1990  -25.3440   19.4010 C   0  0  0  0  0  2  0  0  0  0  0  0
  -28.1810  -26.6170   20.0640 O   0  0  0  0  0  0  0  0  0  0  0  0
  -24.5290  -31.8570   23.1970 C   0  0  0  0  0  0  0  0  0  0  0  0
  -27.0140  -27.3640   20.0430 C   0  0  0  0  0  0  0  0  0  0  0  0
  -23.2600  -30.4850   21.5790 C   0  0  0  0  0  3  0  0  0  0  0  0
  -24.6500  -28.9310   20.1140 C   0  0  0  0  0  0  0  0  0  0  0  0
  -25.7890  -30.7890   21.3320 C   0  0  0  0  0  2  0  0  0  0  0  0
  -25.8300  -29.4180   20.6860 C   0  0  0  0  0  0  0  0  0  0  0  0
  -27.0100  -28.6390   20.6560 C   0  0  0  0  0  3  0  0  0  0  0  0
  -25.8110  -26.9050   19.4490 C   0  0  0  0  0  3  0  0  0  0  0  0
  -24.6360  -27.6730   19.4950 C   0  0  0  0  0  3  0  0  0  0  0  0
  -23.4250  -29.8120   20.1920 C   0  0  0  0  0  2  0  0  0  0  0  0
  -24.5460  -31.0570   22.0930 N   0  0  0  0  0  0  0  0  0  0  0  0
  -23.4650  -32.1480   23.7610 O   0  0  0  0  0  0  0  0  0  0  0  0
  -22.6120  -29.4690   22.5490 C   0  0  0  0  0  0  0  0  0  0  0  0
  -21.2850  -29.2960   22.4370 N   0  0  0  0  0  0  0  0  0  0  0  0
  -23.2990  -28.8410   23.3580 O   0  0  0  0  0  0  0  0  0  0  0  0
  -20.7920  -29.8560   21.7550 H   0  0  0  0  0  0  0  0  0  0  0  0
  -17.9090  -28.1180   22.9570 C   0  0  0  0  0  0  0  0  0  0  0  0
  -20.4680  -28.3690   23.2190 C   0  0  0  0  0  3  0  0  0  0  0  0
  -20.5650  -26.9320   22.6580 C   0  0  0  0  0  2  0  0  0  0  0  0
  -19.4590  -26.6010   21.6500 C   0  0  0  0  0  2  0  0  0  0  0  0
  -18.0800  -26.7590   22.2970 C   0  0  0  0  0  2  0  0  0  0  0  0
  -19.0310  -28.8800   23.3750 C   0  0  0  0  0  0  0  0  0  0  0  0
  -18.8180  -30.1510   23.9510 C   0  0  0  0  0  3  0  0  0  0  0  0
  -17.5150  -30.6590   24.1140 C   0  0  0  0  0  3  0  0  0  0  0  0
  -16.4070  -29.8940   23.7110 C   0  0  0  0  0  3  0  0  0  0  0  0
  -16.6050  -28.6240   23.1380 C   0  0  0  0  0  3  0  0  0  0  0  0
  -25.8400  -32.4600   23.7890 C   0  0  0  0  0  3  0  0  0  0  0  0
  -25.5620  -33.8590   24.1390 N   0  0  0  0  0  0  0  0  0  0  0  0
  -25.8970  -34.9130   23.3820 C   0  0  0  0  0  0  0  0  0  0  0  0
  -26.5450  -34.8080   22.3370 O   0  0  0  0  0  0  0  0  0  0  0  0
  -24.9870  -34.0170   24.9530 H   0  0  0  0  0  0  0  0  0  0  0  0
  -24.1980  -36.7400   23.0700 C   0  0  0  0  0  1  0  0  0  0  0  0
  -25.4410  -36.3040   23.8610 C   0  0  0  0  0  3  0  0  0  0  0  0
  -27.6030  -37.1380   24.6730 C   0  0  0  0  0  1  0  0  0  0  0  0
  -26.4920  -37.3390   23.7460 N   0  0  0  0  0  0  0  0  0  0  0  0
  -26.1060  -38.2650   23.9110 H   0  0  0  0  0  0  0  0  0  0  0  0
  -26.3800  -31.6670   25.0420 C   0  0  1  0  0  0  0  0  0  0  0  0
  -25.3130  -31.4350   26.1380 C   0  0  0  0  0  1  0  0  0  0  0  0
  -26.9300  -30.2860   24.6180 C   0  0  0  0  0  1  0  0  0  0  0  0
  -27.5610  -32.4370   25.6800 C   0  0  0  0  0  1  0  0  0  0  0  0
  3  2  1  1
  3  1  1  0
  4  5  1  0
  4  3  1  0
  5  7  1  0
  6  4  2  0
  8 10  2  0
  8  9  1  0
  9 12  2  0
 10 13  1  0
 12 11  1  0
 12  5  1  0
 13 22  1  0
 13 11  2  0
 14 22  1  0
 15 20  1  0
 16 17  1  0
 16 15  1  0
 18 17  1  0
 18 27  1  0
 18 19  1  0
 20 14  1  0
 20 19  1  0
 21 14  2  0
 22 23  1  0
 24 25  2  0
 25 44  1  0
 26 25  1  0
 26 29  1  0
 27 24  1  0
 27 28  1  0
 28 26  2  0
 29 30  1  0
 30 31  2  0
 32 35  1  0
 32 31  1  0
 33 32  2  0
 34 33  1  0
 34 29  2  0
 35 36  1  0
 36 37  1  0
 37 38  2  0
 39 38  1  0
 39 43  1  0
 40 39  2  0
 41 36  2  0
 41 40  1  0
 42 41  1  0
 44 45  1  0
 45 48  1  0
 45 47  1  0
 46 44  2  0
 49 50  1  0
 49 24  1  0
 51 49  1  0
 52  3  1  0
 55 54  1  6
 55 53  1  0
 55 52  1  0
 56 55  1  0
 56 57  1  0
 58 69  2  0
 59 57  1  0
 59 64  1  0
 60 68  1  0
 60 70  1  0
 61 67  1  0
 61 63  1  0
 62 68  1  0
 63 62  1  0
 64 63  2  0
 65 66  1  0
 65 59  2  0
 66 61  2  0
 67 60  1  0
 68 58  1  0
 70 72  2  0
 71 70  1  0
 73 71  1  0
 74 83  2  0
 74 79  1  0
 75 71  1  0
 75 79  1  0
 76 75  1  0
 77 78  1  0
 77 76  1  0
 78 74  1  0
 79 80  2  0
 80 81  1  0
 82 81  2  0
 83 82  1  0
 84 58  1  0
 84 85  1  0
 84 94  1  0
 85 88  1  0
 86 90  1  0
 86 85  1  0
 87 86  2  0
 90 89  1  0
 92 90  1  0
 92 93  1  0
 92 91  1  0
 94 97  1  1
 94 95  1  0
 96 94  1  0
M  ISO  4  14 100  22 100  56 101  57 101
M  END
>  <TORSDO>  (53) 
F 21

>  <SCORE>  (53) 
-12.300

>  <name>  (53) 
52

>  <ligand_id>  (53) 
52

>  <original_smiles>  (53) 
[H]c1c([H])c(N([H])C(=O)N2C([H])([H])C([H])([H])C([H])([H])C([H])(n3nc(-c4c([H])c([H])c(Oc5c([H])c([H])c(F)c([H])c5F)c([H])c4[H])c(C(=O)N([H])[H])c3N([H])[H])C2([H])[H])c([H])c(N([H])C(=O)C(C([H])([H])[H])(C([H])([H])[H])C([H])([H])C(C([H])([H])[H])(C([H])([H])[H])C([H])([H])Oc2c([H])c([H])c3c(c2[H])C([H])([H])N(C(=O)C([H])(N([H])C(=O)C([H])(N([H])C([H])([H])[H])C([H])([H])[H])C(C([H])([H])[H])(C([H])([H])[H])C([H])([H])[H])C([H])(C(=O)N([H])C2([H])c4c([H])c([H])c([H])c([H])c4C([H])([H])C([H])([H])C2([H])[H])C3([H])[H])c1[H]

>  <smiles>  (53) 
[H]c1c([H])c(N([H])C(=O)N2C([H])([H])C([H])([H])C([H])([H])C([H])(n3nc(-c4c([H])c([H])c(Oc5c([H])c([H])c(F)c([H])c5F)c([H])c4[H])c(C(=O)N([H])[H])c3N([H])[H])C2([H])[H])c([H])c(N([H])C(=O)C(C([H])([H])[H])(C([H])([H])[H])C([H])([H])C(C([H])([H])[H])(C([H])([H])[H])C([H])([H])Oc2c([H])c([H])c3c(c2[H])C([H])([H])N(C(=O)C([H])(N([H])C(=O)C([H])(N([H])C([H])([H])[H])C([H])([H])[H])C(C([H])([H])[H])(C([H])([H])[H])C([H])([H])[H])C([H])(C(=O)N([H])C2([H])c4c([H])c([H])c([H])c([H])c4C([H])([H])C([H])([H])C2([H])[H])C3([H])[H])c1[H]

$$$$
53:0:0
     RDKit          3D

 98107  0  0  1  0  0  0  0  0999 V2000
  -29.6300  -23.5450   21.3580 C   0  0  0  0  0  0  0  0  0  0  0  0
  -29.4800  -23.9720   22.6280 C   0  0  0  0  0  0  0  0  0  0  0  0
  -30.1040  -21.2760   20.3320 C   0  0  0  0  0  3  0  0  0  0  0  0
  -29.6100  -22.8700   23.6390 C   0  0  0  0  0  3  0  0  0  0  0  0
  -29.8440  -21.6390   22.7620 C   0  0  0  0  0  3  0  0  0  0  0  0
  -29.2310  -25.3760   23.1590 C   0  0  0  0  0  1  0  0  0  0  0  0
  -29.8660  -22.1450   21.3660 N   0  0  0  0  0  0  0  0  0  0  0  0
  -30.3050  -21.7310   19.0980 N   0  0  0  0  0  0  0  0  0  0  0  0
  -30.4290  -21.0810   18.3380 H   0  0  0  0  0  0  0  0  0  0  0  0
  -30.4400  -22.7250   18.9360 H   0  0  0  0  0  0  0  0  0  0  0  0
  -29.0130  -19.0550   20.8560 C   0  0  0  0  0  3  0  0  0  0  0  0
  -31.3590  -19.0890   20.2430 C   0  0  0  0  0  3  0  0  0  0  0  0
  -29.0650  -17.6460   20.9710 C   0  0  0  0  0  3  0  0  0  0  0  0
  -31.4100  -17.6770   20.3470 C   0  0  0  0  0  3  0  0  0  0  0  0
  -30.1620  -19.8000   20.5010 C   0  0  0  0  0  0  0  0  0  0  0  0
  -30.2570  -16.9330   20.7020 C   0  0  0  0  0  0  0  0  0  0  0  0
  -30.8680  -14.5670   20.1040 C   0  0  0  0  0  0  0  0  0  0  0  0
  -30.5310  -12.4250   18.9190 C   0  0  0  0  0  2  0  0  0  0  0  0
  -29.5130  -12.6360   17.7780 C   0  0  0  0  0  2  0  0  0  0  0  0
  -28.0670  -12.4800   18.2920 C   0  0  0  0  0  2  0  0  0  0  0  0
  -27.8010  -13.2950   19.5860 C   0  0  0  0  0  3  0  0  0  0  0  0
  -28.9190  -13.0470   20.6250 C   0  0  0  0  0  2  0  0  0  0  0  0
  -30.2120  -13.3780   19.9950 N   0  0  0  0  0  0  0  0  0  0  0  0
  -31.9400  -14.7880   19.5310 O   0  0  0  0  0  0  0  0  0  0  0  0
  -30.2130  -15.5050   20.8160 N   0  0  0  0  0  0  0  0  0  0  0  0
  -29.3950  -15.1420   21.2790 H   0  0  0  0  0  0  0  0  0  0  0  0
  -25.4520  -13.8870   20.4580 C   0  0  0  0  0  0  0  0  0  0  0  0
  -24.4060  -13.1050   20.8710 C   0  0  0  0  0  0  0  0  0  0  0  0
  -24.8590  -11.7540   20.7680 C   0  0  0  0  0  0  0  0  0  0  0  0
  -26.4780  -13.0110   20.1360 N   0  0  0  0  0  0  0  0  0  0  0  0
  -26.1270  -11.7220   20.3780 N   0  0  0  0  0  0  0  0  0  0  0  0
  -24.1420  -10.4880   20.9640 C   0  0  0  0  0  0  0  0  0  0  0  0
  -24.5680   -9.5390   21.9190 C   0  0  0  0  0  3  0  0  0  0  0  0
  -23.8530   -8.3360   22.1020 C   0  0  0  0  0  3  0  0  0  0  0  0
  -22.6960   -8.0740   21.3300 C   0  0  0  0  0  0  0  0  0  0  0  0
  -22.2900   -9.0120   20.3630 C   0  0  0  0  0  3  0  0  0  0  0  0
  -23.0060  -10.2060   20.1790 C   0  0  0  0  0  3  0  0  0  0  0  0
  -21.9530   -6.9220   21.4200 O   0  0  0  0  0  0  0  0  0  0  0  0
  -21.8040   -6.2540   22.6090 C   0  0  0  0  0  0  0  0  0  0  0  0
  -21.2430   -6.8720   23.7470 C   0  0  0  0  0  3  0  0  0  0  0  0
  -21.0450   -6.1270   24.9280 C   0  0  0  0  0  3  0  0  0  0  0  0
  -21.3970   -4.7650   24.9690 C   0  0  0  0  0  0  0  0  0  0  0  0
  -21.9510   -4.1460   23.8330 C   0  0  0  0  0  3  0  0  0  0  0  0
  -22.1510   -4.8880   22.6560 C   0  0  0  0  0  0  0  0  0  0  0  0
  -22.6650   -4.2810   21.5590 F   0  0  0  0  0  0  0  0  0  0  0  0
  -21.2000   -4.0470   26.0990 F   0  0  0  0  0  0  0  0  0  0  0  0
  -23.0300  -13.5760   21.2450 C   0  0  0  0  0  0  0  0  0  0  0  0
  -22.3550  -12.8530   22.1320 N   0  0  0  0  0  0  0  0  0  0  0  0
  -22.5640  -14.6180   20.7870 O   0  0  0  0  0  0  0  0  0  0  0  0
  -22.7460  -12.0090   22.5240 H   0  0  0  0  0  0  0  0  0  0  0  0
  -21.4330  -13.1470   22.4220 H   0  0  0  0  0  0  0  0  0  0  0  0
  -25.6120  -15.2610   20.3110 N   0  0  0  0  0  0  0  0  0  0  0  0
  -24.8480  -15.9090   20.4680 H   0  0  0  0  0  0  0  0  0  0  0  0
  -26.4220  -15.6990   19.8910 H   0  0  0  0  0  0  0  0  0  0  0  0
  -29.5400  -24.4560   20.1720 C   0  0  0  0  0  0  0  0  0  0  0  0
  -30.4310  -24.5040   19.3170 O   0  0  0  0  0  0  0  0  0  0  0  0
  -28.2550  -25.2810   19.9570 C   0  0  0  0  0  2  0  0  0  0  0  0
  -28.4440  -26.7110   20.0470 O   0  0  0  0  0  0  0  0  0  0  0  0
  -24.5950  -31.8390   23.1880 C   0  0  0  0  0  0  0  0  0  0  0  0
  -27.2730  -27.4520   20.0330 C   0  0  0  0  0  0  0  0  0  0  0  0
  -23.3960  -30.4370   21.5430 C   0  0  0  0  0  3  0  0  0  0  0  0
  -24.8580  -28.9420   20.0860 C   0  0  0  0  0  0  0  0  0  0  0  0
  -25.9180  -30.8320   21.3280 C   0  0  0  0  0  2  0  0  0  0  0  0
  -26.0180  -29.4700   20.6690 C   0  0  0  0  0  0  0  0  0  0  0  0
  -27.2280  -28.7340   20.6370 C   0  0  0  0  0  3  0  0  0  0  0  0
  -26.0880  -26.9530   19.4380 C   0  0  0  0  0  3  0  0  0  0  0  0
  -24.8900  -27.6840   19.4690 C   0  0  0  0  0  3  0  0  0  0  0  0
  -23.6030  -29.7810   20.1540 C   0  0  0  0  0  2  0  0  0  0  0  0
  -24.6560  -31.0510   22.0770 N   0  0  0  0  0  0  0  0  0  0  0  0
  -23.5140  -32.0870   23.7400 O   0  0  0  0  0  0  0  0  0  0  0  0
  -22.7710  -29.3920   22.4970 C   0  0  0  0  0  0  0  0  0  0  0  0
  -21.4550  -29.1620   22.3530 N   0  0  0  0  0  0  0  0  0  0  0  0
  -23.4650  -28.7950   23.3230 O   0  0  0  0  0  0  0  0  0  0  0  0
  -20.9540  -29.6970   21.6580 H   0  0  0  0  0  0  0  0  0  0  0  0
  -18.1300  -27.8050   22.7670 C   0  0  0  0  0  0  0  0  0  0  0  0
  -20.6610  -28.1980   23.1170 C   0  0  0  0  0  3  0  0  0  0  0  0
  -20.8550  -26.7640   22.5730 C   0  0  0  0  0  2  0  0  0  0  0  0
  -19.8040  -26.3660   21.5310 C   0  0  0  0  0  2  0  0  0  0  0  0
  -18.3960  -26.4540   22.1270 C   0  0  0  0  0  2  0  0  0  0  0  0
  -19.1940  -28.6310   23.2180 C   0  0  0  0  0  0  0  0  0  0  0  0
  -18.8930  -29.8920   23.7730 C   0  0  0  0  0  3  0  0  0  0  0  0
  -17.5600  -30.3310   23.8860 C   0  0  0  0  0  3  0  0  0  0  0  0
  -16.5100  -29.5030   23.4550 C   0  0  0  0  0  3  0  0  0  0  0  0
  -16.7950  -28.2420   22.9000 C   0  0  0  0  0  3  0  0  0  0  0  0
  -25.8760  -32.4840   23.8010 C   0  0  0  0  0  3  0  0  0  0  0  0
  -26.4180  -31.7080   25.0640 C   0  0  1  0  0  0  0  0  0  0  0  0
  -25.3390  -31.4410   26.1380 C   0  0  0  0  0  1  0  0  0  0  0  0
  -27.0220  -30.3460   24.6500 C   0  0  0  0  0  1  0  0  0  0  0  0
  -27.5600  -32.5160   25.7230 C   0  0  0  0  0  1  0  0  0  0  0  0
  -25.5500  -33.8740   24.1450 N   0  0  0  0  0  0  0  0  0  0  0  0
  -25.8700  -34.9370   23.3960 C   0  0  0  0  0  0  0  0  0  0  0  0
  -26.5420  -34.8520   22.3640 O   0  0  0  0  0  0  0  0  0  0  0  0
  -24.9550  -34.0130   24.9480 H   0  0  0  0  0  0  0  0  0  0  0  0
  -24.1250  -36.7130   23.0480 C   0  0  0  0  0  1  0  0  0  0  0  0
  -25.3630  -36.3150   23.8660 C   0  0  0  0  0  3  0  0  0  0  0  0
  -27.4790  -37.2130   24.7280 C   0  0  0  0  0  1  0  0  0  0  0  0
  -26.3850  -37.3800   23.7740 N   0  0  0  0  0  0  0  0  0  0  0  0
  -25.9670  -38.2950   23.9270 H   0  0  0  0  0  0  0  0  0  0  0  0
  1  7  1  0
  1  2  2  0
  2  6  1  0
  2  4  1  0
  3  8  1  0
  3 15  1  0
  3  7  1  0
  5  4  2  0
  7  5  1  0
  9  8  1  0
 10  8  1  0
 11 13  1  0
 12 14  2  0
 12 15  1  0
 14 16  1  0
 15 11  2  0
 16 25  1  0
 16 13  2  0
 17 25  1  0
 18 23  1  0
 19 20  1  0
 19 18  1  0
 21 20  1  0
 21 30  1  0
 21 22  1  0
 23 17  1  0
 23 22  1  0
 24 17  2  0
 25 26  1  0
 27 28  2  0
 28 47  1  0
 29 28  1  0
 29 32  1  0
 30 31  1  0
 30 27  1  0
 31 29  2  0
 32 33  1  0
 33 34  2  0
 35 38  1  0
 35 34  1  0
 36 35  2  0
 37 36  1  0
 37 32  2  0
 38 39  1  0
 39 44  2  0
 39 40  1  0
 40 41  2  0
 41 42  1  0
 42 46  1  0
 43 42  2  0
 44 43  1  0
 45 44  1  0
 47 48  1  0
 48 51  1  0
 48 50  1  0
 49 47  2  0
 52 27  1  0
 52 53  1  0
 54 52  1  0
 55  1  1  0
 56 55  2  0
 57 58  1  0
 57 55  1  0
 59 70  2  0
 60 58  1  0
 60 65  1  0
 61 69  1  0
 61 71  1  0
 62 68  1  0
 62 64  1  0
 63 69  1  0
 64 63  1  0
 65 64  2  0
 66 67  1  0
 66 60  2  0
 67 62  2  0
 68 61  1  0
 69 59  1  0
 71 73  2  0
 72 71  1  0
 74 72  1  0
 75 84  2  0
 75 80  1  0
 76 72  1  0
 76 80  1  0
 77 76  1  0
 78 79  1  0
 78 77  1  0
 79 75  1  0
 80 81  2  0
 81 82  1  0
 83 82  2  0
 84 83  1  0
 85 59  1  0
 85 90  1  0
 85 86  1  0
 86 89  1  1
 86 87  1  0
 88 86  1  0
 90 93  1  0
 91 95  1  0
 91 90  1  0
 92 91  2  0
 95 94  1  0
 97 95  1  0
 97 98  1  0
 97 96  1  0
M  ISO  4  17 100  25 100  57 101  58 101
M  END
>  <TORSDO>  (54) 
F 19

>  <SCORE>  (54) 
-14.099

>  <name>  (54) 
53

>  <ligand_id>  (54) 
53

>  <original_smiles>  (54) 
[H]c1c([H])c([H])c2c(c1[H])C([H])([H])C([H])([H])C([H])([H])C2([H])N([H])C(=O)C1([H])N(C(=O)C([H])(N([H])C(=O)C([H])(N([H])C([H])([H])[H])C([H])([H])[H])C(C([H])([H])[H])(C([H])([H])[H])C([H])([H])[H])C([H])([H])c2c([H])c(OC([H])([H])C(=O)C3=C(C([H])([H])[H])C([H])([H])C([H])([H])N3C(c3c([H])c([H])c(N([H])C(=O)N4C([H])([H])C([H])([H])C([H])([H])C([H])(n5nc(-c6c([H])c([H])c(Oc7c([H])c([H])c(F)c([H])c7F)c([H])c6[H])c(C(=O)N([H])[H])c5N([H])[H])C4([H])[H])c([H])c3[H])=[N+]([H])[H])c([H])c([H])c2C1([H])[H]

>  <smiles>  (54) 
[H]c1c([H])c([H])c2c(c1[H])C([H])([H])C([H])([H])C([H])([H])C2([H])N([H])C(=O)C1([H])N(C(=O)C([H])(N([H])C(=O)C([H])(N([H])C([H])([H])[H])C([H])([H])[H])C(C([H])([H])[H])(C([H])([H])[H])C([H])([H])[H])C([H])([H])c2c([H])c(OC([H])([H])C(=O)C3=C(C([H])([H])[H])C([H])([H])C([H])([H])N3C(c3c([H])c([H])c(N([H])C(=O)N4C([H])([H])C([H])([H])C([H])([H])C([H])(n5nc(-c6c([H])c([H])c(Oc7c([H])c([H])c(F)c([H])c7F)c([H])c6[H])c(C(=O)N([H])[H])c5N([H])[H])C4([H])[H])c([H])c3[H])=[N+]([H])[H])c([H])c([H])c2C1([H])[H]

$$$$
54:0:0
     RDKit          3D

 96105  0  0  1  0  0  0  0  0999 V2000
  -31.0210  -23.9130   22.1520 C   0  0  0  0  0  2  0  0  0  0  0  0
  -29.7000  -22.6570   20.4520 C   0  0  0  0  0  2  0  0  0  0  0  0
  -31.2460  -25.0810   21.1780 C   0  0  0  0  0  2  0  0  0  0  0  0
  -29.8710  -23.8250   19.4480 C   0  0  0  0  0  2  0  0  0  0  0  0
  -30.9000  -22.5650   21.4140 C   0  0  0  0  0  3  0  0  0  0  0  0
  -30.1630  -25.2250   20.0770 C   0  0  2  0  0  0  0  0  0  0  0  0
  -30.7670  -26.1360   18.9800 C   0  0  0  0  0  1  0  0  0  0  0  0
  -29.4260  -21.3640   23.3050 O   0  0  0  0  0  0  0  0  0  0  0  0
  -31.9330  -21.2650   23.5300 O   0  0  0  0  0  0  0  0  0  0  0  0
  -30.7420  -21.2000   22.6630 S   0  0  2  0  0  0  0  0  0  0  0  0
  -29.5020  -17.6380   21.0620 C   0  0  0  0  0  3  0  0  0  0  0  0
  -31.9170  -17.4670   21.3360 C   0  0  0  0  0  3  0  0  0  0  0  0
  -29.5410  -18.9900   21.4580 C   0  0  0  0  0  3  0  0  0  0  0  0
  -31.9540  -18.8250   21.7490 C   0  0  0  0  0  3  0  0  0  0  0  0
  -30.6770  -16.8550   21.0250 C   0  0  0  0  0  0  0  0  0  0  0  0
  -30.7610  -19.5770   21.8460 C   0  0  0  0  0  0  0  0  0  0  0  0
  -31.1700  -14.5640   20.0310 C   0  0  0  0  0  0  0  0  0  0  0  0
  -30.7600  -12.4790   18.7560 C   0  0  0  0  0  2  0  0  0  0  0  0
  -29.7290  -12.7590   17.6410 C   0  0  0  0  0  2  0  0  0  0  0  0
  -28.2820  -12.6540   18.1700 C   0  0  0  0  0  2  0  0  0  0  0  0
  -28.0690  -13.4370   19.4920 C   0  0  0  0  0  3  0  0  0  0  0  0
  -29.1840  -13.0830   20.5010 C   0  0  0  0  0  2  0  0  0  0  0  0
  -30.4820  -13.3990   19.8690 N   0  0  0  0  0  0  0  0  0  0  0  0
  -32.2440  -14.8010   19.4670 O   0  0  0  0  0  0  0  0  0  0  0  0
  -30.4950  -15.4630   20.7720 N   0  0  0  0  0  0  0  0  0  0  0  0
  -29.6200  -15.0900   21.1050 H   0  0  0  0  0  0  0  0  0  0  0  0
  -25.7600  -14.1240   20.4030 C   0  0  0  0  0  0  0  0  0  0  0  0
  -24.6810  -13.3840   20.8100 C   0  0  0  0  0  0  0  0  0  0  0  0
  -25.0670  -12.0160   20.6690 C   0  0  0  0  0  0  0  0  0  0  0  0
  -26.7380  -13.2080   20.0490 N   0  0  0  0  0  0  0  0  0  0  0  0
  -26.3270  -11.9310   20.2620 N   0  0  0  0  0  0  0  0  0  0  0  0
  -24.2920  -10.7810   20.8420 C   0  0  0  0  0  0  0  0  0  0  0  0
  -24.6800   -9.7920   21.7720 C   0  0  0  0  0  3  0  0  0  0  0  0
  -23.9120   -8.6190   21.9330 C   0  0  0  0  0  3  0  0  0  0  0  0
  -22.7390   -8.4290   21.1630 C   0  0  0  0  0  0  0  0  0  0  0  0
  -22.3700   -9.4070   20.2220 C   0  0  0  0  0  3  0  0  0  0  0  0
  -23.1400  -10.5700   20.0590 C   0  0  0  0  0  3  0  0  0  0  0  0
  -21.9440   -7.3110   21.2340 O   0  0  0  0  0  0  0  0  0  0  0  0
  -21.7620   -6.6290   22.4110 C   0  0  0  0  0  0  0  0  0  0  0  0
  -21.2400   -7.2580   23.5620 C   0  0  0  0  0  3  0  0  0  0  0  0
  -21.0040   -6.5040   24.7300 C   0  0  0  0  0  3  0  0  0  0  0  0
  -21.2810   -5.1230   24.7450 C   0  0  0  0  0  0  0  0  0  0  0  0
  -21.7970   -4.4960   23.5970 C   0  0  0  0  0  3  0  0  0  0  0  0
  -22.0330   -5.2470   22.4320 C   0  0  0  0  0  0  0  0  0  0  0  0
  -22.5100   -4.6330   21.3230 F   0  0  0  0  0  0  0  0  0  0  0  0
  -21.0480   -4.3970   25.8630 F   0  0  0  0  0  0  0  0  0  0  0  0
  -23.3330  -13.9100   21.2130 C   0  0  0  0  0  0  0  0  0  0  0  0
  -22.6460  -13.2130   22.1100 N   0  0  0  0  0  0  0  0  0  0  0  0
  -22.9010  -14.9720   20.7660 O   0  0  0  0  0  0  0  0  0  0  0  0
  -23.0090  -12.3520   22.4930 H   0  0  0  0  0  0  0  0  0  0  0  0
  -21.7430  -13.5450   22.4210 H   0  0  0  0  0  0  0  0  0  0  0  0
  -25.9830  -15.4930   20.2870 N   0  0  0  0  0  0  0  0  0  0  0  0
  -25.2560  -16.1750   20.4700 H   0  0  0  0  0  0  0  0  0  0  0  0
  -26.8120  -15.9000   19.8720 H   0  0  0  0  0  0  0  0  0  0  0  0
  -28.8690  -25.9200   20.6230 C   0  0  0  0  0  2  0  0  0  0  0  0
  -28.1580  -26.4730   19.5180 O   0  0  0  0  0  0  0  0  0  0  0  0
  -24.5100  -31.5870   23.0280 C   0  0  0  0  0  0  0  0  0  0  0  0
  -27.0230  -27.2150   19.7410 C   0  0  0  0  0  0  0  0  0  0  0  0
  -23.2500  -30.2660   21.3600 C   0  0  0  0  0  3  0  0  0  0  0  0
  -24.6540  -28.7500   19.8640 C   0  0  0  0  0  0  0  0  0  0  0  0
  -25.7780  -30.5860   21.1300 C   0  0  0  0  0  2  0  0  0  0  0  0
  -25.8300  -29.2300   20.4550 C   0  0  0  0  0  0  0  0  0  0  0  0
  -27.0220  -28.4650   20.4040 C   0  0  0  0  0  3  0  0  0  0  0  0
  -25.8330  -26.7490   19.1510 C   0  0  0  0  0  3  0  0  0  0  0  0
  -24.6460  -27.5030   19.2170 C   0  0  0  0  0  3  0  0  0  0  0  0
  -23.4270  -29.6310   19.9560 C   0  0  0  0  0  2  0  0  0  0  0  0
  -24.5320  -30.8260   21.8970 N   0  0  0  0  0  0  0  0  0  0  0  0
  -23.4430  -31.8570   23.5990 O   0  0  0  0  0  0  0  0  0  0  0  0
  -22.6000  -29.2210   22.2950 C   0  0  0  0  0  0  0  0  0  0  0  0
  -21.2660  -29.0860   22.2080 N   0  0  0  0  0  0  0  0  0  0  0  0
  -23.2890  -28.5360   23.0560 O   0  0  0  0  0  0  0  0  0  0  0  0
  -20.7700  -29.6890   21.5670 H   0  0  0  0  0  0  0  0  0  0  0  0
  -17.8720  -27.9930   22.7930 C   0  0  0  0  0  0  0  0  0  0  0  0
  -20.4470  -28.1380   22.9640 C   0  0  0  0  0  3  0  0  0  0  0  0
  -20.4680  -26.7370   22.3090 C   0  0  0  0  0  2  0  0  0  0  0  0
  -19.3130  -26.5130   21.3290 C   0  0  0  0  0  2  0  0  0  0  0  0
  -17.9660  -26.6770   22.0400 C   0  0  0  0  0  2  0  0  0  0  0  0
  -19.0380  -28.6860   23.2130 C   0  0  0  0  0  0  0  0  0  0  0  0
  -18.8970  -29.9240   23.8780 C   0  0  0  0  0  3  0  0  0  0  0  0
  -17.6210  -30.4660   24.1280 C   0  0  0  0  0  3  0  0  0  0  0  0
  -16.4700  -29.7680   23.7230 C   0  0  0  0  0  3  0  0  0  0  0  0
  -16.5970  -28.5330   23.0610 C   0  0  0  0  0  3  0  0  0  0  0  0
  -25.8190  -32.1730   23.6440 C   0  0  0  0  0  3  0  0  0  0  0  0
  -26.3610  -31.3360   24.8660 C   0  0  1  0  0  0  0  0  0  0  0  0
  -25.2930  -31.0590   25.9500 C   0  0  0  0  0  1  0  0  0  0  0  0
  -26.9160  -29.9740   24.3900 C   0  0  0  0  0  1  0  0  0  0  0  0
  -27.5360  -32.0850   25.5350 C   0  0  0  0  0  1  0  0  0  0  0  0
  -25.5360  -33.5570   24.0460 N   0  0  0  0  0  0  0  0  0  0  0  0
  -25.8930  -34.6400   23.3430 C   0  0  0  0  0  0  0  0  0  0  0  0
  -26.5660  -34.5770   22.3110 O   0  0  0  0  0  0  0  0  0  0  0  0
  -24.9390  -33.6820   24.8500 H   0  0  0  0  0  0  0  0  0  0  0  0
  -24.2120  -36.4890   23.0600 C   0  0  0  0  0  1  0  0  0  0  0  0
  -25.4290  -36.0120   23.8700 C   0  0  0  0  0  3  0  0  0  0  0  0
  -27.5660  -36.7980   24.7870 C   0  0  0  0  0  1  0  0  0  0  0  0
  -26.4860  -37.0450   23.8340 N   0  0  0  0  0  0  0  0  0  0  0  0
  -26.0980  -37.9650   24.0250 H   0  0  0  0  0  0  0  0  0  0  0  0
  2  5  1  0
  3  1  1  0
  4  6  1  0
  4  2  1  0
  5  1  1  0
 10  5  1  6
  6  7  1  6
  6 55  1  0
  6  3  1  0
 10  8  2  0
 10  9  2  0
 11 13  1  0
 12 14  2  0
 13 16  2  0
 14 16  1  0
 15 11  2  0
 15 12  1  0
 16 10  1  0
 17 25  1  0
 18 23  1  0
 19 20  1  0
 19 18  1  0
 21 20  1  0
 21 30  1  0
 21 22  1  0
 23 17  1  0
 23 22  1  0
 24 17  2  0
 25 15  1  0
 25 26  1  0
 27 28  2  0
 28 47  1  0
 29 28  1  0
 29 32  1  0
 30 31  1  0
 30 27  1  0
 31 29  2  0
 32 33  1  0
 33 34  2  0
 35 38  1  0
 35 34  1  0
 36 35  2  0
 37 36  1  0
 37 32  2  0
 38 39  1  0
 39 44  2  0
 39 40  1  0
 40 41  2  0
 41 42  1  0
 42 46  1  0
 43 42  2  0
 44 43  1  0
 45 44  1  0
 47 48  1  0
 48 51  1  0
 48 50  1  0
 49 47  2  0
 52 27  1  0
 52 53  1  0
 54 52  1  0
 56 58  1  0
 56 55  1  0
 57 68  2  0
 58 63  1  0
 59 67  1  0
 59 69  1  0
 60 66  1  0
 60 62  1  0
 61 67  1  0
 62 61  1  0
 63 62  2  0
 64 65  1  0
 64 58  2  0
 65 60  2  0
 66 59  1  0
 67 57  1  0
 69 71  2  0
 70 69  1  0
 72 70  1  0
 73 82  2  0
 73 78  1  0
 74 70  1  0
 74 78  1  0
 75 74  1  0
 76 77  1  0
 76 75  1  0
 77 73  1  0
 78 79  2  0
 79 80  1  0
 81 80  2  0
 82 81  1  0
 83 57  1  0
 83 88  1  0
 83 84  1  0
 84 87  1  1
 84 85  1  0
 86 84  1  0
 88 91  1  0
 89 93  1  0
 89 88  1  0
 90 89  2  0
 93 92  1  0
 95 93  1  0
 95 96  1  0
 95 94  1  0
M  ISO  4  17 100  25 100  55 101  56 101
M  END
>  <TORSDO>  (55) 
F 19

>  <SCORE>  (55) 
-12.081

>  <name>  (55) 
54

>  <ligand_id>  (55) 
54

>  <original_smiles>  (55) 
[H]c1c([H])c([H])c2c(c1[H])C([H])([H])C([H])([H])C([H])([H])C2([H])N([H])C(=O)C1([H])N(C(=O)C([H])(N([H])C(=O)C([H])(N([H])C([H])([H])[H])C([H])([H])[H])C(C([H])([H])[H])(C([H])([H])[H])C([H])([H])[H])C([H])([H])c2c([H])c(OC([H])([H])C3(C([H])([H])[H])C([H])([H])C([H])([H])C([H])(S(=O)(=O)c4c([H])c([H])c(N([H])C(=O)N5C([H])([H])C([H])([H])C([H])([H])C([H])(n6nc(-c7c([H])c([H])c(Oc8c([H])c([H])c(F)c([H])c8F)c([H])c7[H])c(C(=O)N([H])[H])c6N([H])[H])C5([H])[H])c([H])c4[H])C([H])([H])C3([H])[H])c([H])c([H])c2C1([H])[H]

>  <smiles>  (55) 
[H]c1c([H])c([H])c2c(c1[H])C([H])([H])C([H])([H])C([H])([H])C2([H])N([H])C(=O)C1([H])N(C(=O)C([H])(N([H])C(=O)C([H])(N([H])C([H])([H])[H])C([H])([H])[H])C(C([H])([H])[H])(C([H])([H])[H])C([H])([H])[H])C([H])([H])c2c([H])c(OC([H])([H])C3(C([H])([H])[H])C([H])([H])C([H])([H])C([H])(S(=O)(=O)c4c([H])c([H])c(N([H])C(=O)N5C([H])([H])C([H])([H])C([H])([H])C([H])(n6nc(-c7c([H])c([H])c(Oc8c([H])c([H])c(F)c([H])c8F)c([H])c7[H])c(C(=O)N([H])[H])c6N([H])[H])C5([H])[H])c([H])c4[H])C([H])([H])C3([H])[H])c([H])c([H])c2C1([H])[H]

$$$$
55:0:0
     RDKit          3D

 97106  0  0  1  0  0  0  0  0999 V2000
  -32.1320  -21.2980   20.3360 C   0  0  0  0  0  0  0  0  0  0  0  0
  -33.0580  -22.4700   20.0420 C   0  0  0  0  0  2  0  0  0  0  0  0
  -33.2390  -22.3410   18.5290 C   0  0  0  0  0  2  0  0  0  0  0  0
  -31.8880  -21.7560   18.0900 C   0  0  0  0  0  3  0  0  0  0  0  0
  -31.6110  -20.7670   19.2070 N   0  0  0  0  0  0  0  0  0  0  0  0
  -31.9270  -20.9040   21.4880 O   0  0  0  0  0  0  0  0  0  0  0  0
  -32.7710  -18.4980   19.0460 C   0  0  0  0  0  3  0  0  0  0  0  0
  -32.7610  -17.0840   19.2830 C   0  0  0  0  0  3  0  0  0  0  0  0
  -30.4120  -18.5790   19.4700 C   0  0  0  0  0  3  0  0  0  0  0  0
  -30.3730  -17.1630   19.6990 C   0  0  0  0  0  0  0  0  0  0  0  0
  -31.5960  -19.2930   19.1600 C   0  0  0  0  0  0  0  0  0  0  0  0
  -31.5770  -16.3720   19.6320 C   0  0  0  0  0  0  0  0  0  0  0  0
  -32.2520  -13.8220   19.4200 C   0  0  0  0  0  0  0  0  0  0  0  0
  -31.9040  -11.4670   18.6750 C   0  0  0  0  0  2  0  0  0  0  0  0
  -30.8310  -11.4660   17.5620 C   0  0  0  0  0  2  0  0  0  0  0  0
  -29.4090  -11.4200   18.1600 C   0  0  0  0  0  2  0  0  0  0  0  0
  -29.2120  -12.4460   19.3070 C   0  0  0  0  0  3  0  0  0  0  0  0
  -30.3800  -12.3710   20.3170 C   0  0  0  0  0  2  0  0  0  0  0  0
  -31.6280  -12.6080   19.5720 N   0  0  0  0  0  0  0  0  0  0  0  0
  -33.3420  -13.9120   18.8450 O   0  0  0  0  0  0  0  0  0  0  0  0
  -31.5340  -14.9120   19.8460 N   0  0  0  0  0  0  0  0  0  0  0  0
  -30.7650  -14.6290   20.4430 H   0  0  0  0  0  0  0  0  0  0  0  0
  -26.9420  -13.2460   20.2120 C   0  0  0  0  0  0  0  0  0  0  0  0
  -25.8890  -12.5720   20.7700 C   0  0  0  0  0  0  0  0  0  0  0  0
  -26.2830  -11.2000   20.8230 C   0  0  0  0  0  0  0  0  0  0  0  0
  -27.9130  -12.2900   19.9580 N   0  0  0  0  0  0  0  0  0  0  0  0
  -27.5260  -11.0600   20.3820 N   0  0  0  0  0  0  0  0  0  0  0  0
  -25.5250  -10.0040   21.2140 C   0  0  0  0  0  0  0  0  0  0  0  0
  -25.5400   -9.5220   22.5420 C   0  0  0  0  0  3  0  0  0  0  0  0
  -24.7890   -8.3810   22.8980 C   0  0  0  0  0  3  0  0  0  0  0  0
  -24.0100   -7.7120   21.9240 C   0  0  0  0  0  0  0  0  0  0  0  0
  -24.0180   -8.1820   20.5990 C   0  0  0  0  0  3  0  0  0  0  0  0
  -24.7690   -9.3140   20.2450 C   0  0  0  0  0  3  0  0  0  0  0  0
  -23.2710   -6.5810   22.1730 O   0  0  0  0  0  0  0  0  0  0  0  0
  -22.2120   -6.5900   23.0440 C   0  0  0  0  0  0  0  0  0  0  0  0
  -21.2360   -7.6100   23.0200 C   0  0  0  0  0  3  0  0  0  0  0  0
  -20.1270   -7.5450   23.8870 C   0  0  0  0  0  3  0  0  0  0  0  0
  -19.9870   -6.4580   24.7720 C   0  0  0  0  0  0  0  0  0  0  0  0
  -20.9550   -5.4390   24.7930 C   0  0  0  0  0  3  0  0  0  0  0  0
  -22.0630   -5.5040   23.9300 C   0  0  0  0  0  0  0  0  0  0  0  0
  -22.9810   -4.5080   23.9410 F   0  0  0  0  0  0  0  0  0  0  0  0
  -18.9180   -6.3910   25.5990 F   0  0  0  0  0  0  0  0  0  0  0  0
  -24.5550  -13.1510   21.1440 C   0  0  0  0  0  0  0  0  0  0  0  0
  -23.9610  -12.6690   22.2300 N   0  0  0  0  0  0  0  0  0  0  0  0
  -24.0540  -14.0710   20.5000 O   0  0  0  0  0  0  0  0  0  0  0  0
  -24.3820  -11.9260   22.7690 H   0  0  0  0  0  0  0  0  0  0  0  0
  -23.0730  -13.0460   22.5270 H   0  0  0  0  0  0  0  0  0  0  0  0
  -27.1450  -14.5820   19.8780 N   0  0  0  0  0  2  0  0  0  0  0  0
  -26.4300  -15.2870   20.0120 H   0  0  0  0  0  0  0  0  0  0  0  0
  -27.9780  -14.9410   19.4300 H   0  0  0  0  0  0  0  0  0  0  0  0
  -29.0320  -16.5460   20.0160 C   0  0  0  0  0  3  0  0  0  0  0  0
  -28.2620  -17.0600   21.2300 C   0  0  0  0  0  1  0  0  0  0  0  0
  -28.5150  -15.6390   19.3580 O   0  0  0  0  0  0  0  0  0  0  0  0
  -30.8350  -22.9720   17.9130 C   0  0  0  0  0  0  0  0  0  0  0  0
  -29.7270  -22.9400   18.4580 O   0  0  0  0  0  0  0  0  0  0  0  0
  -31.2140  -24.2510   17.0540 C   0  0  0  0  0  2  0  0  0  0  0  0
  -31.0340  -25.5790   17.7020 O   0  0  0  0  0  0  0  0  0  0  0  0
  -25.8710  -28.0700   22.0730 C   0  0  0  0  0  0  0  0  0  0  0  0
  -29.7970  -26.2430   17.7950 C   0  0  0  0  0  0  0  0  0  0  0  0
  -25.2740  -27.8600   19.6850 C   0  0  0  0  0  3  0  0  0  0  0  0
  -27.2230  -27.4790   18.0730 C   0  0  0  0  0  0  0  0  0  0  0  0
  -27.7050  -28.3000   20.3790 C   0  0  0  0  0  2  0  0  0  0  0  0
  -28.1480  -27.5630   19.1200 C   0  0  0  0  0  0  0  0  0  0  0  0
  -29.4310  -26.9570   18.9810 C   0  0  0  0  0  3  0  0  0  0  0  0
  -28.8370  -26.2070   16.7550 C   0  0  0  0  0  3  0  0  0  0  0  0
  -27.5710  -26.8090   16.8890 C   0  0  0  0  0  3  0  0  0  0  0  0
  -25.8680  -28.1240   18.2750 C   0  0  0  0  0  2  0  0  0  0  0  0
  -26.2880  -28.0600   20.7720 N   0  0  0  0  0  0  0  0  0  0  0  0
  -24.6730  -27.9490   22.3680 O   0  0  0  0  0  0  0  0  0  0  0  0
  -24.6270  -26.4550   19.7020 C   0  0  0  0  0  0  0  0  0  0  0  0
  -23.3300  -26.3820   19.3540 N   0  0  0  0  0  0  0  0  0  0  0  0
  -25.2930  -25.4590   19.9980 O   0  0  0  0  0  0  0  0  0  0  0  0
  -22.8500  -27.2420   19.1340 H   0  0  0  0  0  0  0  0  0  0  0  0
  -19.9740  -25.1140   18.9070 C   0  0  0  0  0  0  0  0  0  0  0  0
  -22.5350  -25.1560   19.2610 C   0  0  0  0  0  3  0  0  0  0  0  0
  -22.6360  -24.5330   17.8490 C   0  0  0  0  0  2  0  0  0  0  0  0
  -21.5180  -24.9890   16.9060 C   0  0  0  0  0  2  0  0  0  0  0  0
  -20.1480  -24.6210   17.4810 C   0  0  0  0  0  2  0  0  0  0  0  0
  -21.0940  -25.3800   19.7380 C   0  0  0  0  0  0  0  0  0  0  0  0
  -20.8760  -25.8700   21.0440 C   0  0  0  0  0  3  0  0  0  0  0  0
  -19.5700  -26.0910   21.5210 C   0  0  0  0  0  3  0  0  0  0  0  0
  -18.4650  -25.8100   20.7010 C   0  0  0  0  0  3  0  0  0  0  0  0
  -18.6670  -25.3170   19.4000 C   0  0  0  0  0  3  0  0  0  0  0  0
  -26.8780  -28.2560   23.2500 C   0  0  0  0  0  3  0  0  0  0  0  0
  -27.4340  -26.8920   23.8150 C   0  0  1  0  0  0  0  0  0  0  0  0
  -26.3310  -25.8660   24.1630 C   0  0  0  0  0  1  0  0  0  0  0  0
  -28.3890  -26.2290   22.7960 C   0  0  0  0  0  1  0  0  0  0  0  0
  -28.2630  -27.1520   25.0940 C   0  0  0  0  0  1  0  0  0  0  0  0
  -26.1920  -29.0110   24.3080 N   0  0  0  0  0  0  0  0  0  0  0  0
  -26.4380  -30.2920   24.6110 C   0  0  0  0  0  0  0  0  0  0  0  0
  -27.3280  -30.9500   24.0660 O   0  0  0  0  0  0  0  0  0  0  0  0
  -25.4180  -28.5510   24.7630 H   0  0  0  0  0  0  0  0  0  0  0  0
  -24.5190  -31.8640   25.0230 C   0  0  0  0  0  1  0  0  0  0  0  0
  -25.5560  -30.9480   25.6920 C   0  0  0  0  0  3  0  0  0  0  0  0
  -27.1360  -30.8760   27.5700 C   0  0  0  0  0  1  0  0  0  0  0  0
  -26.3270  -31.7180   26.6930 N   0  0  0  0  0  0  0  0  0  0  0  0
  -25.7080  -32.2770   27.2740 H   0  0  0  0  0  0  0  0  0  0  0  0
  1  6  2  0
  2  1  1  0
  3  2  1  0
  4 54  1  0
  4  3  1  0
  4  5  1  0
  5  1  1  0
  7 11  2  0
  7  8  1  0
  8 12  2  0
  9 10  2  0
 10 51  1  0
 11  5  1  0
 11  9  1  0
 12 10  1  0
 12 21  1  0
 13 19  1  0
 13 21  1  0
 14 19  1  0
 15 16  1  0
 15 14  1  0
 17 16  1  0
 17 26  1  0
 17 18  1  0
 19 18  1  0
 20 13  2  0
 21 22  1  0
 23 24  2  0
 24 25  1  0
 24 43  1  0
 25 28  1  0
 26 23  1  0
 26 27  1  0
 27 25  2  0
 28 29  1  0
 29 30  2  0
 31 34  1  0
 31 30  1  0
 32 31  2  0
 33 32  1  0
 33 28  2  0
 34 35  1  0
 35 40  1  0
 36 35  2  0
 36 37  1  0
 37 38  2  0
 38 39  1  0
 38 42  1  0
 40 41  1  0
 40 39  2  0
 43 44  1  0
 44 47  1  0
 44 46  1  0
 45 43  2  0
 48 49  1  0
 48 23  1  0
 51 52  1  0
 53 50  1  0
 53 51  1  0
 54 55  2  0
 56 57  1  0
 56 54  1  0
 57 59  1  0
 58 69  2  0
 59 64  1  0
 60 70  1  0
 60 68  1  0
 61 67  1  0
 61 63  1  0
 62 68  1  0
 63 62  1  0
 64 63  2  0
 65 66  1  0
 65 59  2  0
 66 61  2  0
 67 60  1  0
 68 58  1  0
 70 72  2  0
 71 70  1  0
 73 71  1  0
 74 83  2  0
 74 79  1  0
 75 71  1  0
 75 79  1  0
 76 75  1  0
 77 78  1  0
 77 76  1  0
 78 74  1  0
 79 80  2  0
 80 81  1  0
 82 81  2  0
 83 82  1  0
 84 58  1  0
 84 85  1  0
 84 89  1  0
 85 86  1  1
 85 88  1  0
 87 85  1  0
 89 90  1  0
 89 92  1  0
 90 94  1  0
 91 90  2  0
 94 93  1  0
 94 96  1  0
 96 97  1  0
 96 95  1  0
M  ISO  4  13 100  21 100  56 101  57 101
M  END
>  <TORSDO>  (56) 
F 20

>  <SCORE>  (56) 
-5.657

>  <name>  (56) 
55

>  <ligand_id>  (56) 
55

>  <original_smiles>  (56) 
[H]c1c([H])c([H])c2c(c1[H])C([H])([H])C([H])([H])C([H])([H])C2([H])N([H])C(=O)C1([H])N(C(=O)C([H])(N([H])C(=O)C([H])(N([H])C([H])([H])[H])C([H])([H])[H])C(C([H])([H])[H])(C([H])([H])[H])C([H])([H])[H])C([H])([H])c2c([H])c(OC([H])([H])C(=O)C3([H])N(c4c([H])c([H])c(N([H])C(=O)N5C([H])([H])C([H])([H])C([H])([H])C([H])(n6nc(-c7c([H])c([H])c(Oc8c([H])c([H])c(F)c([H])c8F)c([H])c7[H])c(C(=O)N([H])[H])c6N([H])[H])C5([H])[H])c(C(=O)C([H])([H])[H])c4[H])C(=O)C([H])([H])C3([H])[H])c([H])c([H])c2C1([H])[H]

>  <smiles>  (56) 
[H]c1c([H])c([H])c2c(c1[H])C([H])([H])C([H])([H])C([H])([H])C2([H])N([H])C(=O)C1([H])N(C(=O)C([H])(N([H])C(=O)C([H])(N([H])C([H])([H])[H])C([H])([H])[H])C(C([H])([H])[H])(C([H])([H])[H])C([H])([H])[H])C([H])([H])c2c([H])c(OC([H])([H])C(=O)C3([H])N(c4c([H])c([H])c(N([H])C(=O)N5C([H])([H])C([H])([H])C([H])([H])C([H])(n6nc(-c7c([H])c([H])c(Oc8c([H])c([H])c(F)c([H])c8F)c([H])c7[H])c(C(=O)N([H])[H])c6N([H])[H])C5([H])[H])c(C(=O)C([H])([H])[H])c4[H])C(=O)C([H])([H])C3([H])[H])c([H])c([H])c2C1([H])[H]

$$$$
56:0:0
     RDKit          3D

104113  0  0  1  0  0  0  0  0999 V2000
  -29.9750  -21.8670   19.6130 C   0  0  0  0  0  0  0  0  0  0  0  0
  -31.0050  -21.0690   19.9280 N   0  0  0  0  0  0  0  0  0  0  0  0
  -28.8770  -21.7980   20.1730 O   0  0  0  0  0  0  0  0  0  0  0  0
  -31.8520  -21.2450   19.4070 H   0  0  0  0  0  0  0  0  0  0  0  0
  -30.3200  -18.1170   22.0800 C   0  0  0  0  0  3  0  0  0  0  0  0
  -30.5870  -19.4410   21.7030 C   0  0  0  0  0  3  0  0  0  0  0  0
  -30.3430  -17.4290   19.7140 C   0  0  0  0  0  0  0  0  0  0  0  0
  -30.7810  -18.7300   19.3610 C   0  0  0  0  0  0  0  0  0  0  0  0
  -30.2080  -17.1110   21.0990 C   0  0  0  0  0  0  0  0  0  0  0  0
  -30.8090  -19.7420   20.3460 C   0  0  0  0  0  0  0  0  0  0  0  0
  -31.1960  -19.0760   17.9310 C   0  0  0  0  0  1  0  0  0  0  0  0
  -30.7800  -14.7660   21.4550 C   0  0  0  0  0  0  0  0  0  0  0  0
  -30.7210  -12.4910   20.5560 C   0  0  0  0  0  2  0  0  0  0  0  0
  -29.9760  -12.5490   19.2080 C   0  0  0  0  0  2  0  0  0  0  0  0
  -28.4480  -12.4460   19.4120 C   0  0  0  0  0  2  0  0  0  0  0  0
  -27.9050  -13.3720   20.5350 C   0  0  0  0  0  3  0  0  0  0  0  0
  -28.7840  -13.2770   21.8010 C   0  0  0  0  0  2  0  0  0  0  0  0
  -30.1750  -13.5550   21.4070 N   0  0  0  0  0  0  0  0  0  0  0  0
  -31.9800  -14.9400   21.2260 O   0  0  0  0  0  0  0  0  0  0  0  0
  -29.9310  -15.7990   21.5520 N   0  0  0  0  0  0  0  0  0  0  0  0
  -28.9870  -15.5940   21.8420 H   0  0  0  0  0  0  0  0  0  0  0  0
  -25.4440  -13.9850   20.9890 C   0  0  0  0  0  0  0  0  0  0  0  0
  -24.3310  -13.2090   21.1740 C   0  0  0  0  0  0  0  0  0  0  0  0
  -24.7790  -11.8550   21.1040 C   0  0  0  0  0  0  0  0  0  0  0  0
  -26.5000  -13.1000   20.8260 N   0  0  0  0  0  0  0  0  0  0  0  0
  -26.0960  -11.8120   20.9510 N   0  0  0  0  0  0  0  0  0  0  0  0
  -24.0260  -10.5950   21.1160 C   0  0  0  0  0  0  0  0  0  0  0  0
  -24.3760   -9.5350   21.9810 C   0  0  0  0  0  3  0  0  0  0  0  0
  -23.6270   -8.3390   21.9860 C   0  0  0  0  0  3  0  0  0  0  0  0
  -22.5140   -8.1960   21.1250 C   0  0  0  0  0  0  0  0  0  0  0  0
  -22.1840   -9.2460   20.2490 C   0  0  0  0  0  3  0  0  0  0  0  0
  -22.9330  -10.4330   20.2410 C   0  0  0  0  0  3  0  0  0  0  0  0
  -21.7440   -7.0610   21.0440 O   0  0  0  0  0  0  0  0  0  0  0  0
  -21.6220   -6.1970   22.1020 C   0  0  0  0  0  0  0  0  0  0  0  0
  -21.1200   -6.6160   23.3530 C   0  0  0  0  0  3  0  0  0  0  0  0
  -20.9460   -5.6800   24.3910 C   0  0  0  0  0  3  0  0  0  0  0  0
  -21.2660   -4.3260   24.1800 C   0  0  0  0  0  0  0  0  0  0  0  0
  -21.7620   -3.9060   22.9330 C   0  0  0  0  0  3  0  0  0  0  0  0
  -21.9370   -4.8380   21.8960 C   0  0  0  0  0  0  0  0  0  0  0  0
  -22.3950   -4.4250   20.6900 F   0  0  0  0  0  0  0  0  0  0  0  0
  -21.0920   -3.4240   25.1740 F   0  0  0  0  0  0  0  0  0  0  0  0
  -22.9150  -13.6900   21.3120 C   0  0  0  0  0  0  0  0  0  0  0  0
  -22.0880  -12.9600   22.0500 N   0  0  0  0  0  0  0  0  0  0  0  0
  -22.5480  -14.7480   20.8010 O   0  0  0  0  0  0  0  0  0  0  0  0
  -22.3950  -12.1040   22.4900 H   0  0  0  0  0  0  0  0  0  0  0  0
  -21.1330  -13.2630   22.1820 H   0  0  0  0  0  0  0  0  0  0  0  0
  -25.6390  -15.3610   20.9280 N   0  0  0  0  0  0  0  0  0  0  0  0
  -24.8670  -16.0160   20.9880 H   0  0  0  0  0  0  0  0  0  0  0  0
  -26.5210  -15.8100   20.7170 H   0  0  0  0  0  0  0  0  0  0  0  0
  -29.1180  -16.8260   17.4310 C   0  0  0  0  0  2  0  0  0  0  0  0
  -28.5320  -15.9640   18.5030 C   0  0  0  0  0  2  0  0  0  0  0  0
  -29.9700  -16.4380   18.6320 C   0  0  0  0  0  3  0  0  0  0  0  0
  -30.2380  -22.8800   18.4850 C   0  0  0  0  0  2  0  0  0  0  0  0
  -30.4640  -25.1990   17.5560 C   0  0  0  0  0  1  0  0  0  0  0  0
  -30.0680  -24.3890   18.8090 C   0  0  1  0  0  0  0  0  0  0  0  0
  -28.6860  -24.6130   18.9690 O   0  0  0  0  0  0  0  0  0  0  0  0
  -28.5850  -25.5220   19.2620 H   0  0  0  0  0  0  0  0  0  0  0  0
  -32.3170  -24.4220   20.0860 C   0  0  0  0  0  1  0  0  0  0  0  0
  -30.8270  -24.8520   20.1000 C   0  0  0  0  0  3  0  0  0  0  0  0
  -30.8270  -26.3830   20.3650 C   0  0  0  0  0  2  0  0  0  0  0  0
  -30.1560  -28.5590   21.2190 C   0  0  0  0  0  1  0  0  0  0  0  0
  -29.2010  -26.4820   22.3320 C   0  0  0  0  0  1  0  0  0  0  0  0
  -29.6140  -27.1210   20.9940 C   0  0  2  0  0  0  0  0  0  0  0  0
  -28.5010  -27.0060   20.0730 O   0  0  0  0  0  0  0  0  0  0  0  0
  -24.5320  -32.0070   23.2730 C   0  0  0  0  0  0  0  0  0  0  0  0
  -27.3000  -27.6870   20.1970 C   0  0  0  0  0  0  0  0  0  0  0  0
  -23.3360  -30.5920   21.6200 C   0  0  0  0  0  3  0  0  0  0  0  0
  -24.8160  -29.0720   20.2010 C   0  0  0  0  0  0  0  0  0  0  0  0
  -25.8380  -31.0130   21.4110 C   0  0  0  0  0  2  0  0  0  0  0  0
  -25.9450  -29.6400   20.7930 C   0  0  0  0  0  0  0  0  0  0  0  0
  -27.1650  -28.9530   20.8040 C   0  0  0  0  0  3  0  0  0  0  0  0
  -26.1480  -27.1200   19.5990 C   0  0  0  0  0  3  0  0  0  0  0  0
  -24.9070  -27.7980   19.6050 C   0  0  0  0  0  3  0  0  0  0  0  0
  -23.5530  -29.9020   20.2420 C   0  0  0  0  0  2  0  0  0  0  0  0
  -24.5860  -31.2190   22.1630 N   0  0  0  0  0  0  0  0  0  0  0  0
  -23.4510  -32.2620   23.8220 O   0  0  0  0  0  0  0  0  0  0  0  0
  -22.7060  -29.5640   22.5820 C   0  0  0  0  0  0  0  0  0  0  0  0
  -21.3840  -29.3680   22.4560 N   0  0  0  0  0  0  0  0  0  0  0  0
  -23.4000  -28.9420   23.3910 O   0  0  0  0  0  0  0  0  0  0  0  0
  -20.8870  -29.9220   21.7730 H   0  0  0  0  0  0  0  0  0  0  0  0
  -18.0260  -28.1400   22.9390 C   0  0  0  0  0  0  0  0  0  0  0  0
  -20.5790  -28.4190   23.2220 C   0  0  0  0  0  3  0  0  0  0  0  0
  -20.6990  -26.9920   22.6410 C   0  0  0  0  0  2  0  0  0  0  0  0
  -19.6040  -26.6630   21.6210 C   0  0  0  0  0  2  0  0  0  0  0  0
  -18.2190  -26.7930   22.2600 C   0  0  0  0  0  2  0  0  0  0  0  0
  -19.1360  -28.9110   23.3760 C   0  0  0  0  0  0  0  0  0  0  0  0
  -18.9050  -30.1710   23.9670 C   0  0  0  0  0  3  0  0  0  0  0  0
  -17.5950  -30.6610   24.1270 C   0  0  0  0  0  3  0  0  0  0  0  0
  -16.4990  -29.8870   23.7080 C   0  0  0  0  0  3  0  0  0  0  0  0
  -16.7150  -28.6280   23.1190 C   0  0  0  0  0  3  0  0  0  0  0  0
  -25.8160  -32.6460   23.8940 C   0  0  0  0  0  3  0  0  0  0  0  0
  -25.5110  -34.0510   24.1920 N   0  0  0  0  0  0  0  0  0  0  0  0
  -25.8700  -35.0860   23.4200 C   0  0  0  0  0  0  0  0  0  0  0  0
  -26.5640  -34.9580   22.4070 O   0  0  0  0  0  0  0  0  0  0  0  0
  -24.8990  -34.2260   24.9750 H   0  0  0  0  0  0  0  0  0  0  0  0
  -24.1640  -36.8790   22.9820 C   0  0  0  0  0  1  0  0  0  0  0  0
  -25.3800  -36.4850   23.8360 C   0  0  0  0  0  3  0  0  0  0  0  0
  -27.4960  -37.3720   24.7080 C   0  0  0  0  0  1  0  0  0  0  0  0
  -26.4220  -37.5290   23.7310 N   0  0  0  0  0  0  0  0  0  0  0  0
  -26.0180  -38.4550   23.8490 H   0  0  0  0  0  0  0  0  0  0  0  0
  -26.3260  -31.8960   25.1860 C   0  0  1  0  0  0  0  0  0  0  0  0
  -25.2270  -31.6780   26.2510 C   0  0  0  0  0  1  0  0  0  0  0  0
  -26.9090  -30.5120   24.8150 C   0  0  0  0  0  1  0  0  0  0  0  0
  -27.4750  -32.6990   25.8410 C   0  0  0  0  0  1  0  0  0  0  0  0
  1  2  1  0
  1  3  2  0
  2 10  1  0
  4  2  1  0
  6  5  1  0
  7  9  1  0
  8  7  2  0
  8 10  1  0
  9 20  1  0
  9  5  2  0
 10  6  2  0
 11  8  1  0
 12 20  1  0
 13 18  1  0
 14 15  1  0
 14 13  1  0
 16 15  1  0
 16 25  1  0
 16 17  1  0
 18 12  1  0
 18 17  1  0
 19 12  2  0
 20 21  1  0
 22 23  2  0
 23 42  1  0
 24 27  1  0
 24 23  1  0
 25 26  1  0
 25 22  1  0
 26 24  2  0
 27 28  1  0
 28 29  2  0
 30 29  1  0
 31 30  2  0
 32 31  1  0
 32 27  2  0
 33 30  1  0
 33 34  1  0
 34 35  1  0
 35 36  2  0
 37 36  1  0
 37 41  1  0
 38 37  2  0
 39 34  2  0
 39 38  1  0
 40 39  1  0
 42 43  1  0
 43 46  1  0
 43 45  1  0
 44 42  2  0
 47 48  1  0
 47 22  1  0
 49 47  1  0
 50 51  1  0
 50 52  1  0
 51 52  1  0
 52  7  1  0
 53 55  1  0
 53  1  1  0
 55 54  1  6
 55 56  1  0
 55 59  1  0
 56 57  1  0
 59 58  1  0
 59 60  1  0
 60 63  1  0
 63 61  1  1
 63 62  1  0
 64 66  1  0
 64 63  1  0
 65 76  2  0
 66 71  1  0
 67 75  1  0
 67 77  1  0
 68 74  1  0
 68 70  1  0
 69 75  1  0
 70 71  2  0
 70 69  1  0
 72 73  1  0
 72 66  2  0
 73 68  2  0
 74 67  1  0
 75 65  1  0
 77 79  2  0
 78 77  1  0
 80 78  1  0
 81 90  2  0
 81 86  1  0
 82 78  1  0
 82 86  1  0
 83 82  1  0
 84 85  1  0
 84 83  1  0
 85 81  1  0
 86 87  2  0
 87 88  1  0
 89 88  2  0
 90 89  1  0
 91 65  1  0
 91 92  1  0
 91101  1  0
 92 95  1  0
 93 97  1  0
 93 92  1  0
 94 93  2  0
 97 96  1  0
 99 97  1  0
 99100  1  0
 99 98  1  0
101104  1  1
101102  1  0
103101  1  0
M  ISO  4  12 100  20 100  63 101  64 101
M  END
>  <TORSDO>  (57) 
F 24

>  <SCORE>  (57) 
-9.667

>  <name>  (57) 
56

>  <ligand_id>  (57) 
56

>  <original_smiles>  (57) 
[H]OC(C([H])([H])[H])(C([H])([H])C(=O)N([H])c1c([H])c([H])c(N([H])C(=O)N2C([H])([H])C([H])([H])C([H])([H])C([H])(n3nc(-c4c([H])c([H])c(Oc5c([H])c([H])c(F)c([H])c5F)c([H])c4[H])c(C(=O)N([H])[H])c3N([H])[H])C2([H])[H])c(C2([H])C([H])([H])C2([H])[H])c1C([H])([H])[H])C([H])(C([H])([H])[H])C([H])([H])C(Oc1c([H])c([H])c2c(c1[H])C([H])([H])N(C(=O)C([H])(N([H])C(=O)C([H])(N([H])C([H])([H])[H])C([H])([H])[H])C(C([H])([H])[H])(C([H])([H])[H])C([H])([H])[H])C([H])(C(=O)N([H])C1([H])c3c([H])c([H])c([H])c([H])c3C([H])([H])C([H])([H])C1([H])[H])C2([H])[H])(C([H])([H])[H])C([H])([H])[H]

>  <smiles>  (57) 
[H]OC(C([H])([H])[H])(C([H])([H])C(=O)N([H])c1c([H])c([H])c(N([H])C(=O)N2C([H])([H])C([H])([H])C([H])([H])C([H])(n3nc(-c4c([H])c([H])c(Oc5c([H])c([H])c(F)c([H])c5F)c([H])c4[H])c(C(=O)N([H])[H])c3N([H])[H])C2([H])[H])c(C2([H])C([H])([H])C2([H])[H])c1C([H])([H])[H])C([H])(C([H])([H])[H])C([H])([H])C(Oc1c([H])c([H])c2c(c1[H])C([H])([H])N(C(=O)C([H])(N([H])C(=O)C([H])(N([H])C([H])([H])[H])C([H])([H])[H])C(C([H])([H])[H])(C([H])([H])[H])C([H])([H])[H])C([H])(C(=O)N([H])C1([H])c3c([H])c([H])c([H])c([H])c3C([H])([H])C([H])([H])C1([H])[H])C2([H])[H])(C([H])([H])[H])C([H])([H])[H]

$$$$
57:0:0
     RDKit          3D

 93102  0  0  1  0  0  0  0  0999 V2000
  -28.1690  -22.3660   21.8680 C   0  0  0  0  0  1  0  0  0  0  0  0
  -28.7530  -22.7100   20.4860 C   0  0  0  0  0  3  0  0  0  0  0  0
  -29.1900  -24.2380   20.3670 C   0  0  0  0  0  0  0  0  0  0  0  0
  -30.2730  -24.5380   19.8560 O   0  0  0  0  0  0  0  0  0  0  0  0
  -28.5490  -25.6980   22.3770 C   0  0  0  0  0  1  0  0  0  0  0  0
  -28.2580  -25.3850   20.8960 C   0  0  0  0  0  3  0  0  0  0  0  0
  -28.4240  -26.6620   20.2030 O   0  0  0  0  0  0  0  0  0  0  0  0
  -24.6140  -31.9280   23.2470 C   0  0  0  0  0  0  0  0  0  0  0  0
  -27.2890  -27.4610   20.1840 C   0  0  0  0  0  0  0  0  0  0  0  0
  -23.4280  -30.5200   21.6000 C   0  0  0  0  0  3  0  0  0  0  0  0
  -24.8980  -28.9900   20.1800 C   0  0  0  0  0  0  0  0  0  0  0  0
  -25.9580  -30.8860   21.4150 C   0  0  0  0  0  2  0  0  0  0  0  0
  -26.0560  -29.5130   20.7700 C   0  0  0  0  0  0  0  0  0  0  0  0
  -27.2600  -28.7590   20.7600 C   0  0  0  0  0  3  0  0  0  0  0  0
  -26.1140  -26.9670   19.5820 C   0  0  0  0  0  3  0  0  0  0  0  0
  -24.9240  -27.7190   19.5830 C   0  0  0  0  0  3  0  0  0  0  0  0
  -23.6470  -29.8430   20.2220 C   0  0  0  0  0  2  0  0  0  0  0  0
  -24.6850  -31.1270   22.1460 N   0  0  0  0  0  0  0  0  0  0  0  0
  -23.5270  -32.1930   23.7800 O   0  0  0  0  0  0  0  0  0  0  0  0
  -22.7770  -29.4950   22.5580 C   0  0  0  0  0  0  0  0  0  0  0  0
  -21.4520  -29.3100   22.4280 N   0  0  0  0  0  0  0  0  0  0  0  0
  -23.4590  -28.8700   23.3730 O   0  0  0  0  0  0  0  0  0  0  0  0
  -20.9610  -29.8630   21.7400 H   0  0  0  0  0  0  0  0  0  0  0  0
  -18.0780  -28.1130   22.9250 C   0  0  0  0  0  0  0  0  0  0  0  0
  -20.6370  -28.3670   23.1940 C   0  0  0  0  0  3  0  0  0  0  0  0
  -20.7370  -26.9390   22.6070 C   0  0  0  0  0  2  0  0  0  0  0  0
  -19.6330  -26.6260   21.5920 C   0  0  0  0  0  2  0  0  0  0  0  0
  -18.2530  -26.7680   22.2390 C   0  0  0  0  0  2  0  0  0  0  0  0
  -19.1990  -28.8710   23.3580 C   0  0  0  0  0  0  0  0  0  0  0  0
  -18.9820  -30.1320   23.9570 C   0  0  0  0  0  3  0  0  0  0  0  0
  -17.6760  -30.6330   24.1260 C   0  0  0  0  0  3  0  0  0  0  0  0
  -16.5720  -29.8700   23.7100 C   0  0  0  0  0  3  0  0  0  0  0  0
  -16.7730  -28.6120   23.1140 C   0  0  0  0  0  3  0  0  0  0  0  0
  -25.8900  -32.5690   23.8750 C   0  0  0  0  0  3  0  0  0  0  0  0
  -26.4000  -31.8050   25.1580 C   0  0  1  0  0  0  0  0  0  0  0  0
  -25.3000  -31.5690   26.2190 C   0  0  0  0  0  1  0  0  0  0  0  0
  -26.9920  -30.4300   24.7760 C   0  0  0  0  0  1  0  0  0  0  0  0
  -27.5440  -32.6070   25.8220 C   0  0  0  0  0  1  0  0  0  0  0  0
  -25.5730  -33.9670   24.1960 N   0  0  0  0  0  0  0  0  0  0  0  0
  -25.9150  -35.0160   23.4360 C   0  0  0  0  0  0  0  0  0  0  0  0
  -26.5970  -34.9070   22.4140 O   0  0  0  0  0  0  0  0  0  0  0  0
  -24.9640  -34.1230   24.9840 H   0  0  0  0  0  0  0  0  0  0  0  0
  -24.1920  -36.8060   23.0410 C   0  0  0  0  0  1  0  0  0  0  0  0
  -25.4190  -36.4070   23.8780 C   0  0  0  0  0  3  0  0  0  0  0  0
  -27.5390  -37.2930   24.7440 C   0  0  0  0  0  1  0  0  0  0  0  0
  -26.4550  -37.4580   23.7790 N   0  0  0  0  0  0  0  0  0  0  0  0
  -26.0460  -38.3800   23.9150 H   0  0  0  0  0  0  0  0  0  0  0  0
  -29.8520  -21.7770   20.1380 N   0  0  0  0  0  0  0  0  0  0  0  0
  -30.4460  -22.1700   19.4090 H   0  0  0  0  0  0  0  0  0  0  0  0
  -30.7410  -14.6490   20.1940 C   0  0  0  0  0  0  0  0  0  0  0  0
  -30.4540  -12.4520   19.1150 C   0  0  0  0  0  2  0  0  0  0  0  0
  -29.4850  -12.6380   17.9290 C   0  0  0  0  0  2  0  0  0  0  0  0
  -28.0220  -12.4880   18.3930 C   0  0  0  0  0  2  0  0  0  0  0  0
  -27.7020  -13.3210   19.6630 C   0  0  0  0  0  3  0  0  0  0  0  0
  -28.7920  -13.1480   20.7440 C   0  0  0  0  0  2  0  0  0  0  0  0
  -30.0880  -13.4550   20.1270 N   0  0  0  0  0  0  0  0  0  0  0  0
  -31.9290  -14.7600   19.8680 O   0  0  0  0  0  0  0  0  0  0  0  0
  -29.7340  -19.4610   21.1820 C   0  0  0  0  0  3  0  0  0  0  0  0
  -29.7750  -18.0900   20.7400 C   0  0  0  0  0  0  0  0  0  0  0  0
  -29.7660  -17.9700   19.4080 C   0  0  0  0  0  0  0  0  0  0  0  0
  -29.7310  -20.3660   20.1270 C   0  0  0  0  0  0  0  0  0  0  0  0
  -29.8620  -16.7070   21.3440 C   0  0  0  0  0  3  0  0  0  0  0  0
  -29.8440  -16.5630   18.9450 C   0  0  0  0  0  3  0  0  0  0  0  0
  -29.9350  -15.7490   20.1940 N   0  0  0  0  0  0  0  0  0  0  0  0
  -29.7330  -19.5060   18.5840 S   0  0  0  0  0  0  0  0  0  0  0  0
  -25.3250  -13.9040   20.4460 C   0  0  0  0  0  0  0  0  0  0  0  0
  -24.2720  -13.1210   20.8320 C   0  0  0  0  0  0  0  0  0  0  0  0
  -24.7400  -11.7730   20.7790 C   0  0  0  0  0  0  0  0  0  0  0  0
  -26.3680  -13.0300   20.1810 N   0  0  0  0  0  0  0  0  0  0  0  0
  -26.0220  -11.7450   20.4420 N   0  0  0  0  0  0  0  0  0  0  0  0
  -24.0250  -10.5050   20.9760 C   0  0  0  0  0  0  0  0  0  0  0  0
  -24.4700   -9.5480   21.9160 C   0  0  0  0  0  3  0  0  0  0  0  0
  -23.7580   -8.3440   22.1000 C   0  0  0  0  0  3  0  0  0  0  0  0
  -22.5860   -8.0890   21.3450 C   0  0  0  0  0  0  0  0  0  0  0  0
  -22.1620   -9.0350   20.3970 C   0  0  0  0  0  3  0  0  0  0  0  0
  -22.8750  -10.2310   20.2110 C   0  0  0  0  0  3  0  0  0  0  0  0
  -21.8440   -6.9350   21.4400 O   0  0  0  0  0  0  0  0  0  0  0  0
  -21.7790   -6.2140   22.6050 C   0  0  0  0  0  0  0  0  0  0  0  0
  -21.3120   -6.7840   23.8110 C   0  0  0  0  0  3  0  0  0  0  0  0
  -21.1980   -5.9880   24.9680 C   0  0  0  0  0  3  0  0  0  0  0  0
  -21.5380   -4.6220   24.9180 C   0  0  0  0  0  0  0  0  0  0  0  0
  -21.9960   -4.0520   23.7190 C   0  0  0  0  0  3  0  0  0  0  0  0
  -22.1140   -4.8460   22.5640 C   0  0  0  0  0  0  0  0  0  0  0  0
  -22.5370   -4.2860   21.4040 F   0  0  0  0  0  0  0  0  0  0  0  0
  -21.4180   -3.8560   26.0270 F   0  0  0  0  0  0  0  0  0  0  0  0
  -22.8790  -13.5870   21.1400 C   0  0  0  0  0  0  0  0  0  0  0  0
  -22.1730  -12.8840   22.0190 N   0  0  0  0  0  0  0  0  0  0  0  0
  -22.4230  -14.6130   20.6340 O   0  0  0  0  0  0  0  0  0  0  0  0
  -22.5520  -12.0570   22.4530 H   0  0  0  0  0  0  0  0  0  0  0  0
  -21.2370  -13.1820   22.2600 H   0  0  0  0  0  0  0  0  0  0  0  0
  -25.4780  -15.2780   20.2760 N   0  0  0  0  0  0  0  0  0  0  0  0
  -24.7070  -15.9220   20.4160 H   0  0  0  0  0  0  0  0  0  0  0  0
  -26.3260  -15.7320   19.9660 H   0  0  0  0  0  0  0  0  0  0  0  0
  2  1  1  0
  3  2  1  0
  3  6  1  0
  4  3  2  0
  6  5  1  0
  7  6  1  0
  8 19  2  0
  9  7  1  0
  9 14  1  0
 10 18  1  0
 10 20  1  0
 11 17  1  0
 11 13  1  0
 12 18  1  0
 13 12  1  0
 14 13  2  0
 15 16  1  0
 15  9  2  0
 16 11  2  0
 17 10  1  0
 18  8  1  0
 20 22  2  0
 21 20  1  0
 23 21  1  0
 24 33  2  0
 24 29  1  0
 25 21  1  0
 25 29  1  0
 26 25  1  0
 27 28  1  0
 27 26  1  0
 28 24  1  0
 29 30  2  0
 30 31  1  0
 32 31  2  0
 33 32  1  0
 34  8  1  0
 34 39  1  0
 34 35  1  0
 35 38  1  1
 35 36  1  0
 37 35  1  0
 39 42  1  0
 40 44  1  0
 40 39  1  0
 41 40  2  0
 44 43  1  0
 46 44  1  0
 46 47  1  0
 46 45  1  0
 48  2  1  0
 49 48  1  0
 51 56  1  0
 52 53  1  0
 52 51  1  0
 54 53  1  0
 54 69  1  0
 54 55  1  0
 56 50  1  0
 56 55  1  0
 57 50  2  0
 59 58  1  0
 59 62  2  0
 60 59  1  0
 61 48  1  0
 61 58  2  0
 63 60  2  0
 63 64  1  0
 64 50  1  0
 64 62  1  0
 65 60  1  0
 65 61  1  0
 66 67  2  0
 67 86  1  0
 68 67  1  0
 68 71  1  0
 69 70  1  0
 69 66  1  0
 70 68  2  0
 71 72  1  0
 72 73  2  0
 74 77  1  0
 74 73  1  0
 75 74  2  0
 76 75  1  0
 76 71  2  0
 77 78  1  0
 78 79  1  0
 79 80  2  0
 81 80  1  0
 81 85  1  0
 82 81  2  0
 83 78  2  0
 83 82  1  0
 84 83  1  0
 86 87  1  0
 87 90  1  0
 87 89  1  0
 88 86  2  0
 91 92  1  0
 91 66  1  0
 93 91  1  0
M  ISO  4   6 101   7 101  50 100  64 100
M  END
>  <TORSDO>  (58) 
F 19

>  <SCORE>  (58) 
-14.314

>  <name>  (58) 
57

>  <ligand_id>  (58) 
57

>  <original_smiles>  (58) 
[H]c1c([H])c([H])c2c(c1[H])C([H])([H])C([H])([H])C([H])([H])C2([H])N([H])C(=O)C1([H])N(C(=O)C([H])(N([H])C(=O)C([H])(N([H])C([H])([H])[H])C([H])([H])[H])C(C([H])([H])[H])(C([H])([H])[H])C([H])([H])[H])C([H])([H])c2c([H])c(OC([H])(C(=O)C([H])(N([H])c3sc4c(c3[H])C([H])([H])N(C(=O)N3C([H])([H])C([H])([H])C([H])([H])C([H])(n5nc(-c6c([H])c([H])c(Oc7c([H])c([H])c(F)c([H])c7F)c([H])c6[H])c(C(=O)N([H])[H])c5N([H])[H])C3([H])[H])C4([H])[H])C([H])([H])[H])C([H])([H])[H])c([H])c([H])c2C1([H])[H]

>  <smiles>  (58) 
[H]c1c([H])c([H])c2c(c1[H])C([H])([H])C([H])([H])C([H])([H])C2([H])N([H])C(=O)C1([H])N(C(=O)C([H])(N([H])C(=O)C([H])(N([H])C([H])([H])[H])C([H])([H])[H])C(C([H])([H])[H])(C([H])([H])[H])C([H])([H])[H])C([H])([H])c2c([H])c(OC([H])(C(=O)C([H])(N([H])c3sc4c(c3[H])C([H])([H])N(C(=O)N3C([H])([H])C([H])([H])C([H])([H])C([H])(n5nc(-c6c([H])c([H])c(Oc7c([H])c([H])c(F)c([H])c7F)c([H])c6[H])c(C(=O)N([H])[H])c5N([H])[H])C3([H])[H])C4([H])[H])C([H])([H])[H])C([H])([H])[H])c([H])c([H])c2C1([H])[H]

$$$$
58:0:0
     RDKit          3D

 96104  0  0  1  0  0  0  0  0999 V2000
  -30.0040  -19.8400   18.8940 C   0  0  0  0  0  0  0  0  0  0  0  0
  -29.4060  -21.7240   20.4110 C   0  0  0  0  0  0  0  0  0  0  0  0
  -29.9230  -21.1240   19.3200 N   0  0  0  0  0  0  0  0  0  0  0  0
  -30.7180  -19.6000   17.9180 O   0  0  0  0  0  0  0  0  0  0  0  0
  -28.8220  -21.1490   21.3300 O   0  0  0  0  0  0  0  0  0  0  0  0
  -30.4120  -21.7570   18.7090 H   0  0  0  0  0  0  0  0  0  0  0  0
  -30.0350  -17.5320   19.9720 C   0  0  0  0  0  3  0  0  0  0  0  0
  -27.8770  -18.5860   19.5320 C   0  0  0  0  0  3  0  0  0  0  0  0
  -27.9700  -16.3450   20.4830 C   0  0  0  0  0  3  0  0  0  0  0  0
  -29.2890  -18.6650   19.5300 C   0  0  0  0  0  0  0  0  0  0  0  0
  -29.3810  -16.3570   20.4340 C   0  0  0  0  0  0  0  0  0  0  0  0
  -27.2240  -17.4480   20.0310 C   0  0  0  0  0  0  0  0  0  0  0  0
  -25.8710  -17.4020   20.0560 F   0  0  0  0  0  0  0  0  0  0  0  0
  -30.6130  -14.2130   20.0870 C   0  0  0  0  0  0  0  0  0  0  0  0
  -30.4740  -11.8430   19.3810 C   0  0  0  0  0  2  0  0  0  0  0  0
  -29.5450  -11.7310   18.1540 C   0  0  0  0  0  2  0  0  0  0  0  0
  -28.0730  -11.5950   18.5910 C   0  0  0  0  0  2  0  0  0  0  0  0
  -27.6690  -12.6690   19.6340 C   0  0  0  0  0  3  0  0  0  0  0  0
  -28.7030  -12.7260   20.7800 C   0  0  0  0  0  2  0  0  0  0  0  0
  -30.0330  -12.9850   20.1950 N   0  0  0  0  0  0  0  0  0  0  0  0
  -31.6210  -14.4320   19.4080 O   0  0  0  0  0  0  0  0  0  0  0  0
  -30.0400  -15.1590   20.8540 N   0  0  0  0  0  0  0  0  0  0  0  0
  -29.5750  -14.7240   21.6360 H   0  0  0  0  0  0  0  0  0  0  0  0
  -25.2960  -13.3600   20.3600 C   0  0  0  0  0  0  0  0  0  0  0  0
  -24.2170  -12.6270   20.7760 C   0  0  0  0  0  0  0  0  0  0  0  0
  -24.6440  -11.2640   20.7790 C   0  0  0  0  0  0  0  0  0  0  0  0
  -26.3160  -12.4460   20.1400 N   0  0  0  0  0  0  0  0  0  0  0  0
  -25.9260  -11.1810   20.4460 N   0  0  0  0  0  0  0  0  0  0  0  0
  -23.8920  -10.0280   21.0290 C   0  0  0  0  0  0  0  0  0  0  0  0
  -24.2950   -9.1090   22.0240 C   0  0  0  0  0  3  0  0  0  0  0  0
  -23.5500   -7.9340   22.2580 C   0  0  0  0  0  3  0  0  0  0  0  0
  -22.3860   -7.6690   21.4970 C   0  0  0  0  0  0  0  0  0  0  0  0
  -22.0010   -8.5750   20.4930 C   0  0  0  0  0  3  0  0  0  0  0  0
  -22.7470   -9.7420   20.2590 C   0  0  0  0  0  3  0  0  0  0  0  0
  -21.6140   -6.5410   21.6360 O   0  0  0  0  0  0  0  0  0  0  0  0
  -21.5060   -5.8860   22.8350 C   0  0  0  0  0  0  0  0  0  0  0  0
  -21.0200   -6.5280   23.9950 C   0  0  0  0  0  3  0  0  0  0  0  0
  -20.8610   -5.7990   25.1890 C   0  0  0  0  0  3  0  0  0  0  0  0
  -21.1740   -4.4270   25.2250 C   0  0  0  0  0  0  0  0  0  0  0  0
  -21.6520   -3.7840   24.0710 C   0  0  0  0  0  3  0  0  0  0  0  0
  -21.8150   -4.5110   22.8780 C   0  0  0  0  0  0  0  0  0  0  0  0
  -22.2560   -3.8810   21.7620 F   0  0  0  0  0  0  0  0  0  0  0  0
  -21.0130   -3.7240   26.3710 F   0  0  0  0  0  0  0  0  0  0  0  0
  -22.8380  -13.1470   21.0650 C   0  0  0  0  0  0  0  0  0  0  0  0
  -22.1190  -12.5010   21.9770 N   0  0  0  0  0  0  0  0  0  0  0  0
  -22.4080  -14.1600   20.5170 O   0  0  0  0  0  0  0  0  0  0  0  0
  -22.4810  -11.6810   22.4400 H   0  0  0  0  0  0  0  0  0  0  0  0
  -21.1930  -12.8300   22.2130 H   0  0  0  0  0  0  0  0  0  0  0  0
  -25.4920  -14.7190   20.1330 N   0  0  0  0  0  0  0  0  0  0  0  0
  -24.7460  -15.3980   20.2370 H   0  0  0  0  0  0  0  0  0  0  0  0
  -26.3530  -15.1230   19.7890 H   0  0  0  0  0  0  0  0  0  0  0  0
  -29.6410  -23.2480   20.5300 C   0  0  0  0  0  2  0  0  0  0  0  0
  -28.3570  -24.1030   20.7390 C   0  0  0  0  0  2  0  0  0  0  0  0
  -27.9650  -25.8500   22.5850 C   0  0  0  0  0  1  0  0  0  0  0  0
  -28.6250  -25.5580   21.2240 C   0  0  0  0  0  3  0  0  0  0  0  0
  -28.3770  -26.5550   20.2140 O   0  0  0  0  0  0  0  0  0  0  0  0
  -24.5760  -31.8040   23.2260 C   0  0  0  0  0  0  0  0  0  0  0  0
  -27.2050  -27.2820   20.2560 C   0  0  0  0  0  0  0  0  0  0  0  0
  -23.3710  -30.3930   21.5870 C   0  0  0  0  0  3  0  0  0  0  0  0
  -24.8240  -28.8060   20.2130 C   0  0  0  0  0  0  0  0  0  0  0  0
  -25.9020  -30.7180   21.4160 C   0  0  0  0  0  2  0  0  0  0  0  0
  -25.9790  -29.3340   20.8030 C   0  0  0  0  0  0  0  0  0  0  0  0
  -27.1740  -28.5810   20.8160 C   0  0  0  0  0  3  0  0  0  0  0  0
  -26.0370  -26.7640   19.6620 C   0  0  0  0  0  3  0  0  0  0  0  0
  -24.8460  -27.5200   19.6410 C   0  0  0  0  0  3  0  0  0  0  0  0
  -23.5900  -29.6830   20.2250 C   0  0  0  0  0  2  0  0  0  0  0  0
  -24.6340  -30.9870   22.1360 N   0  0  0  0  0  0  0  0  0  0  0  0
  -23.4920  -32.1030   23.7470 O   0  0  0  0  0  0  0  0  0  0  0  0
  -22.6920  -29.4000   22.5560 C   0  0  0  0  0  0  0  0  0  0  0  0
  -21.3660  -29.2440   22.4200 N   0  0  0  0  0  0  0  0  0  0  0  0
  -23.3560  -28.7680   23.3820 O   0  0  0  0  0  0  0  0  0  0  0  0
  -20.8940  -29.8040   21.7240 H   0  0  0  0  0  0  0  0  0  0  0  0
  -17.9540  -28.1740   22.9330 C   0  0  0  0  0  0  0  0  0  0  0  0
  -20.5210  -28.3320   23.1890 C   0  0  0  0  0  3  0  0  0  0  0  0
  -20.5650  -26.9020   22.6030 C   0  0  0  0  0  2  0  0  0  0  0  0
  -19.4440  -26.6290   21.5940 C   0  0  0  0  0  2  0  0  0  0  0  0
  -18.0740  -26.8210   22.2490 C   0  0  0  0  0  2  0  0  0  0  0  0
  -19.1030  -28.8900   23.3590 C   0  0  0  0  0  0  0  0  0  0  0  0
  -18.9380  -30.1580   23.9570 C   0  0  0  0  0  3  0  0  0  0  0  0
  -17.6560  -30.7090   24.1330 C   0  0  0  0  0  3  0  0  0  0  0  0
  -16.5190  -29.9890   23.7230 C   0  0  0  0  0  3  0  0  0  0  0  0
  -16.6700  -28.7220   23.1310 C   0  0  0  0  0  3  0  0  0  0  0  0
  -25.8640  -32.4230   23.8570 C   0  0  0  0  0  3  0  0  0  0  0  0
  -26.3750  -31.6340   25.1240 C   0  0  1  0  0  0  0  0  0  0  0  0
  -25.2770  -31.3770   26.1800 C   0  0  0  0  0  1  0  0  0  0  0  0
  -26.9650  -30.2660   24.7100 C   0  0  0  0  0  1  0  0  0  0  0  0
  -27.5170  -32.4250   25.8060 C   0  0  0  0  0  1  0  0  0  0  0  0
  -25.5620  -33.8180   24.1990 N   0  0  0  0  0  0  0  0  0  0  0  0
  -25.8970  -34.8750   23.4470 C   0  0  0  0  0  0  0  0  0  0  0  0
  -26.5610  -34.7760   22.4110 O   0  0  0  0  0  0  0  0  0  0  0  0
  -24.9630  -33.9670   24.9980 H   0  0  0  0  0  0  0  0  0  0  0  0
  -24.1640  -36.6650   23.1230 C   0  0  0  0  0  1  0  0  0  0  0  0
  -25.4150  -36.2590   23.9160 C   0  0  0  0  0  3  0  0  0  0  0  0
  -27.5600  -37.1410   24.7250 C   0  0  0  0  0  1  0  0  0  0  0  0
  -26.4460  -37.3130   23.7940 N   0  0  0  0  0  0  0  0  0  0  0  0
  -26.0430  -38.2340   23.9490 H   0  0  0  0  0  0  0  0  0  0  0  0
  1  3  1  0
  1 10  1  0
  2 52  1  0
  2  5  2  0
  3  2  1  0
  4  1  2  0
  6  3  1  0
  7 11  1  0
  8 12  2  0
 10  8  1  0
 10  7  2  0
 11  9  2  0
 11 22  1  0
 12 13  1  0
 12  9  1  0
 14 20  1  0
 14 22  1  0
 15 20  1  0
 16 17  1  0
 16 15  1  0
 18 17  1  0
 18 27  1  0
 18 19  1  0
 20 19  1  0
 21 14  2  0
 22 23  1  0
 24 25  2  0
 25 26  1  0
 25 44  1  0
 26 29  1  0
 27 24  1  0
 27 28  1  0
 28 26  2  0
 29 30  1  0
 30 31  2  0
 32 35  1  0
 32 31  1  0
 33 32  2  0
 34 33  1  0
 34 29  2  0
 35 36  1  0
 36 41  2  0
 36 37  1  0
 37 38  2  0
 38 39  1  0
 39 43  1  0
 40 39  2  0
 41 40  1  0
 42 41  1  0
 44 45  1  0
 45 48  1  0
 45 47  1  0
 46 44  2  0
 49 50  1  0
 49 24  1  0
 51 49  1  0
 52 53  1  0
 53 55  1  0
 55 54  1  0
 56 58  1  0
 56 55  1  0
 57 68  2  0
 58 63  1  0
 59 67  1  0
 59 69  1  0
 60 66  1  0
 60 62  1  0
 61 67  1  0
 62 63  2  0
 62 61  1  0
 64 58  2  0
 65 64  1  0
 65 60  2  0
 66 59  1  0
 67 57  1  0
 69 71  2  0
 70 69  1  0
 72 70  1  0
 73 82  2  0
 73 78  1  0
 74 70  1  0
 74 78  1  0
 75 74  1  0
 76 77  1  0
 76 75  1  0
 77 73  1  0
 78 79  2  0
 79 80  1  0
 81 80  2  0
 82 81  1  0
 83 57  1  0
 83 88  1  0
 83 84  1  0
 84 87  1  1
 84 85  1  0
 86 84  1  0
 88 91  1  0
 89 93  1  0
 89 88  1  0
 90 89  2  0
 93 92  1  0
 95 93  1  0
 95 96  1  0
 95 94  1  0
M  ISO  4  14 100  22 100  55 101  56 101
M  END
>  <TORSDO>  (59) 
F 20

>  <SCORE>  (59) 
-13.660

>  <name>  (59) 
58

>  <ligand_id>  (59) 
58

>  <original_smiles>  (59) 
[H]c1c([H])c([H])c2c(c1[H])C([H])([H])C([H])([H])C([H])([H])C2([H])N([H])C(=O)C1([H])N(C(=O)C([H])(N([H])C(=O)C([H])(N([H])C([H])([H])[H])C([H])([H])[H])C(C([H])([H])[H])(C([H])([H])[H])C([H])([H])[H])C([H])([H])c2c([H])c(OC([H])(C([H])([H])[H])C([H])([H])C([H])([H])C(=O)N([H])C(=O)c3c([H])c(F)c([H])c(N([H])C(=O)N4C([H])([H])C([H])([H])C([H])([H])C([H])(n5nc(-c6c([H])c([H])c(Oc7c([H])c([H])c(F)c([H])c7F)c([H])c6[H])c(C(=O)N([H])[H])c5N([H])[H])C4([H])[H])c3[H])c([H])c([H])c2C1([H])[H]

>  <smiles>  (59) 
[H]c1c([H])c([H])c2c(c1[H])C([H])([H])C([H])([H])C([H])([H])C2([H])N([H])C(=O)C1([H])N(C(=O)C([H])(N([H])C(=O)C([H])(N([H])C([H])([H])[H])C([H])([H])[H])C(C([H])([H])[H])(C([H])([H])[H])C([H])([H])[H])C([H])([H])c2c([H])c(OC([H])(C([H])([H])[H])C([H])([H])C([H])([H])C(=O)N([H])C(=O)c3c([H])c(F)c([H])c(N([H])C(=O)N4C([H])([H])C([H])([H])C([H])([H])C([H])(n5nc(-c6c([H])c([H])c(Oc7c([H])c([H])c(F)c([H])c7F)c([H])c6[H])c(C(=O)N([H])[H])c5N([H])[H])C4([H])[H])c3[H])c([H])c([H])c2C1([H])[H]

$$$$
59:0:0
     RDKit          3D

 98107  0  0  1  0  0  0  0  0999 V2000
  -31.3150  -17.6530   20.9290 C   0  0  0  0  0  3  0  0  0  0  0  0
  -28.9540  -19.0780   20.5930 C   0  0  0  0  0  3  0  0  0  0  0  0
  -31.3320  -19.0780   20.9580 C   0  0  0  0  0  0  0  0  0  0  0  0
  -30.1330  -19.8560   20.7630 C   0  0  0  0  0  0  0  0  0  0  0  0
  -30.1210  -16.9300   20.7380 C   0  0  0  0  0  0  0  0  0  0  0  0
  -28.9390  -17.6670   20.5790 C   0  0  0  0  0  0  0  0  0  0  0  0
  -27.7680  -17.0060   20.4130 F   0  0  0  0  0  0  0  0  0  0  0  0
  -30.6760  -14.5480   20.0910 C   0  0  0  0  0  0  0  0  0  0  0  0
  -30.3190  -12.4130   18.8930 C   0  0  0  0  0  2  0  0  0  0  0  0
  -29.2990  -12.6470   17.7590 C   0  0  0  0  0  2  0  0  0  0  0  0
  -27.8540  -12.4990   18.2770 C   0  0  0  0  0  2  0  0  0  0  0  0
  -27.6010  -13.3020   19.5820 C   0  0  0  0  0  3  0  0  0  0  0  0
  -28.7220  -13.0350   20.6110 C   0  0  0  0  0  2  0  0  0  0  0  0
  -30.0120  -13.3630   19.9750 N   0  0  0  0  0  0  0  0  0  0  0  0
  -31.7590  -14.7610   19.5390 O   0  0  0  0  0  0  0  0  0  0  0  0
  -30.0010  -15.5010   20.7670 N   0  0  0  0  0  0  0  0  0  0  0  0
  -29.1220  -15.1780   21.1400 H   0  0  0  0  0  0  0  0  0  0  0  0
  -25.2510  -13.9090   20.4410 C   0  0  0  0  0  0  0  0  0  0  0  0
  -24.2010  -13.1360   20.8560 C   0  0  0  0  0  0  0  0  0  0  0  0
  -24.6500  -11.7830   20.7730 C   0  0  0  0  0  0  0  0  0  0  0  0
  -26.2760  -13.0270   20.1340 N   0  0  0  0  0  0  0  0  0  0  0  0
  -25.9200  -11.7420   20.3880 N   0  0  0  0  0  0  0  0  0  0  0  0
  -23.9250  -10.5220   20.9840 C   0  0  0  0  0  0  0  0  0  0  0  0
  -24.3940   -9.5450   21.8910 C   0  0  0  0  0  3  0  0  0  0  0  0
  -23.6720   -8.3490   22.0890 C   0  0  0  0  0  3  0  0  0  0  0  0
  -22.4660   -8.1220   21.3830 C   0  0  0  0  0  0  0  0  0  0  0  0
  -22.0160   -9.0890   20.4660 C   0  0  0  0  0  3  0  0  0  0  0  0
  -22.7390  -10.2760   20.2660 C   0  0  0  0  0  3  0  0  0  0  0  0
  -21.7130   -6.9780   21.4920 O   0  0  0  0  0  0  0  0  0  0  0  0
  -21.6880   -6.2390   22.6480 C   0  0  0  0  0  0  0  0  0  0  0  0
  -21.2670   -6.7930   23.8760 C   0  0  0  0  0  3  0  0  0  0  0  0
  -21.1900   -5.9800   25.0240 C   0  0  0  0  0  3  0  0  0  0  0  0
  -21.5240   -4.6150   24.9470 C   0  0  0  0  0  0  0  0  0  0  0  0
  -21.9410   -4.0610   23.7230 C   0  0  0  0  0  3  0  0  0  0  0  0
  -22.0190   -4.8710   22.5770 C   0  0  0  0  0  0  0  0  0  0  0  0
  -22.4000   -4.3280   21.3960 F   0  0  0  0  0  0  0  0  0  0  0  0
  -21.4440   -3.8330   26.0480 F   0  0  0  0  0  0  0  0  0  0  0  0
  -22.8270  -13.6180   21.2260 C   0  0  0  0  0  0  0  0  0  0  0  0
  -22.1530  -12.9180   22.1320 N   0  0  0  0  0  0  0  0  0  0  0  0
  -22.3630  -14.6520   20.7480 O   0  0  0  0  0  0  0  0  0  0  0  0
  -22.5410  -12.0830   22.5440 H   0  0  0  0  0  0  0  0  0  0  0  0
  -21.2350  -13.2270   22.4200 H   0  0  0  0  0  0  0  0  0  0  0  0
  -25.4120  -15.2820   20.2900 N   0  0  0  0  0  0  0  0  0  0  0  0
  -24.6600  -15.9340   20.4820 H   0  0  0  0  0  0  0  0  0  0  0  0
  -26.2940  -15.7470   20.1040 H   0  0  0  0  0  0  0  0  0  0  0  0
  -32.6620  -19.6800   21.2400 C   0  0  0  0  0  0  0  0  0  0  0  0
  -33.7460  -19.4290   20.2130 C   0  0  0  0  0  1  0  0  0  0  0  0
  -32.9160  -20.3730   22.2690 N   0  0  0  0  0  0  0  0  0  0  0  0
  -32.0940  -20.4730   22.8560 H   0  0  0  0  0  0  0  0  0  0  0  0
  -30.9020  -22.0990   19.9300 C   0  0  0  0  0  2  0  0  0  0  0  0
  -28.8280  -21.9950   20.3640 C   0  0  0  0  0  2  0  0  0  0  0  0
  -29.6770  -22.9160   19.4530 C   0  0  2  0  0  0  0  0  0  0  0  0
  -30.0440  -21.3100   20.8040 N   0  0  0  0  0  0  0  0  0  0  0  0
  -30.4630  -23.3730   17.0270 C   0  0  0  0  0  1  0  0  0  0  0  0
  -29.4010  -22.7430   17.9460 C   0  0  0  0  0  2  0  0  0  0  0  0
  -29.6840  -24.4470   19.8000 C   0  0  0  0  0  2  0  0  0  0  0  0
  -28.3940  -25.2540   19.4570 C   0  0  0  0  0  2  0  0  0  0  0  0
  -28.4410  -26.6490   19.8330 O   0  0  0  0  0  0  0  0  0  0  0  0
  -24.5030  -31.6480   23.0610 C   0  0  0  0  0  0  0  0  0  0  0  0
  -27.2500  -27.3650   19.8210 C   0  0  0  0  0  0  0  0  0  0  0  0
  -23.3290  -30.2850   21.3650 C   0  0  0  0  0  3  0  0  0  0  0  0
  -24.8190  -28.8380   19.8820 C   0  0  0  0  0  0  0  0  0  0  0  0
  -25.8490  -30.7030   21.1840 C   0  0  0  0  0  2  0  0  0  0  0  0
  -25.9660  -29.3580   20.4930 C   0  0  0  0  0  0  0  0  0  0  0  0
  -27.1810  -28.6290   20.4590 C   0  0  0  0  0  3  0  0  0  0  0  0
  -26.0770  -26.8730   19.1960 C   0  0  0  0  0  3  0  0  0  0  0  0
  -24.8700  -27.5950   19.2310 C   0  0  0  0  0  3  0  0  0  0  0  0
  -23.5590  -29.6710   19.9580 C   0  0  0  0  0  2  0  0  0  0  0  0
  -24.5790  -30.8920   21.9300 N   0  0  0  0  0  0  0  0  0  0  0  0
  -23.4160  -31.8750   23.6110 O   0  0  0  0  0  0  0  0  0  0  0  0
  -22.7020  -29.2110   22.2840 C   0  0  0  0  0  0  0  0  0  0  0  0
  -21.3770  -29.0190   22.1660 N   0  0  0  0  0  0  0  0  0  0  0  0
  -23.4030  -28.5560   23.0610 O   0  0  0  0  0  0  0  0  0  0  0  0
  -20.8720  -29.6020   21.5130 H   0  0  0  0  0  0  0  0  0  0  0  0
  -18.0220  -27.7780   22.6700 C   0  0  0  0  0  0  0  0  0  0  0  0
  -20.5830  -28.0370   22.9030 C   0  0  0  0  0  3  0  0  0  0  0  0
  -20.6800  -26.6390   22.2510 C   0  0  0  0  0  2  0  0  0  0  0  0
  -19.5600  -26.3620   21.2430 C   0  0  0  0  0  2  0  0  0  0  0  0
  -18.1910  -26.4660   21.9230 C   0  0  0  0  0  2  0  0  0  0  0  0
  -19.1450  -28.5230   23.1180 C   0  0  0  0  0  0  0  0  0  0  0  0
  -18.9320  -29.7510   23.7800 C   0  0  0  0  0  3  0  0  0  0  0  0
  -17.6290  -30.2360   23.9970 C   0  0  0  0  0  3  0  0  0  0  0  0
  -16.5200  -29.4890   23.5630 C   0  0  0  0  0  3  0  0  0  0  0  0
  -16.7170  -28.2610   22.9060 C   0  0  0  0  0  3  0  0  0  0  0  0
  -25.7740  -32.2860   23.7060 C   0  0  0  0  0  3  0  0  0  0  0  0
  -25.4410  -33.6680   24.0710 N   0  0  0  0  0  0  0  0  0  0  0  0
  -25.7510  -34.7450   23.3360 C   0  0  0  0  0  0  0  0  0  0  0  0
  -26.4210  -34.6780   22.3020 O   0  0  0  0  0  0  0  0  0  0  0  0
  -24.8440  -33.7940   24.8760 H   0  0  0  0  0  0  0  0  0  0  0  0
  -23.9830  -36.5080   23.0290 C   0  0  0  0  0  1  0  0  0  0  0  0
  -25.2360  -36.1120   23.8260 C   0  0  0  0  0  3  0  0  0  0  0  0
  -27.3540  -37.0270   24.6700 C   0  0  0  0  0  1  0  0  0  0  0  0
  -26.2460  -37.1890   23.7310 N   0  0  0  0  0  0  0  0  0  0  0  0
  -25.8200  -38.0950   23.8990 H   0  0  0  0  0  0  0  0  0  0  0  0
  -26.3000  -31.4880   24.9610 C   0  0  1  0  0  0  0  0  0  0  0  0
  -25.2110  -31.2100   26.0230 C   0  0  0  0  0  1  0  0  0  0  0  0
  -26.8990  -30.1290   24.5310 C   0  0  0  0  0  1  0  0  0  0  0  0
  -27.4420  -32.2780   25.6440 C   0  0  0  0  0  1  0  0  0  0  0  0
  1  3  1  0
  2  4  1  0
  3 46  1  0
  4 53  1  0
  4  3  2  0
  5 16  1  0
  5  1  2  0
  6  2  2  0
  6  5  1  0
  7  6  1  0
  8 16  1  0
  9 14  1  0
 10 11  1  0
 10  9  1  0
 12 11  1  0
 12 21  1  0
 12 13  1  0
 14  8  1  0
 14 13  1  0
 15  8  2  0
 16 17  1  0
 18 19  2  0
 19 38  1  0
 20 19  1  0
 20 23  1  0
 21 22  1  0
 21 18  1  0
 22 20  2  0
 23 24  1  0
 24 25  2  0
 26 29  1  0
 26 25  1  0
 27 26  2  0
 28 27  1  0
 28 23  2  0
 29 30  1  0
 30 31  1  0
 31 32  2  0
 33 32  1  0
 33 37  1  0
 34 33  2  0
 35 30  2  0
 35 34  1  0
 36 35  1  0
 38 39  1  0
 39 42  1  0
 39 41  1  0
 40 38  2  0
 43 18  1  0
 43 44  1  0
 45 43  1  0
 46 48  2  0
 47 46  1  0
 48 49  1  0
 50 53  1  0
 51 53  1  0
 52 55  1  6
 52 56  1  0
 52 50  1  0
 52 51  1  0
 54 55  1  0
 57 56  1  0
 57 58  1  0
 59 70  2  0
 60 58  1  0
 60 65  1  0
 61 69  1  0
 61 71  1  0
 62 68  1  0
 62 64  1  0
 63 69  1  0
 64 63  1  0
 65 64  2  0
 66 67  1  0
 66 60  2  0
 67 62  2  0
 68 61  1  0
 69 59  1  0
 71 73  2  0
 72 71  1  0
 74 72  1  0
 75 84  2  0
 75 80  1  0
 76 72  1  0
 76 80  1  0
 77 76  1  0
 78 79  1  0
 78 77  1  0
 79 75  1  0
 80 81  2  0
 81 82  1  0
 83 82  2  0
 84 83  1  0
 85 59  1  0
 85 86  1  0
 85 95  1  0
 86 89  1  0
 87 91  1  0
 87 86  1  0
 88 87  2  0
 91 90  1  0
 93 91  1  0
 93 94  1  0
 93 92  1  0
 95 98  1  1
 95 96  1  0
 97 95  1  0
M  ISO  4   8 100  16 100  57 101  58 101
M  END
>  <TORSDO>  (60) 
F 21

>  <SCORE>  (60) 
-13.737

>  <name>  (60) 
59

>  <ligand_id>  (60) 
59

>  <original_smiles>  (60) 
[H]N=C(c1c([H])c(N([H])C(=O)N2C([H])([H])C([H])([H])C([H])([H])C([H])(n3nc(-c4c([H])c([H])c(Oc5c([H])c([H])c(F)c([H])c5F)c([H])c4[H])c(C(=O)N([H])[H])c3N([H])[H])C2([H])[H])c(F)c([H])c1N1C([H])([H])C(C([H])([H])C([H])([H])[H])(C([H])([H])C([H])([H])Oc2c([H])c([H])c3c(c2[H])C([H])([H])N(C(=O)C([H])(N([H])C(=O)C([H])(N([H])C([H])([H])[H])C([H])([H])[H])C(C([H])([H])[H])(C([H])([H])[H])C([H])([H])[H])C([H])(C(=O)N([H])C2([H])c4c([H])c([H])c([H])c([H])c4C([H])([H])C([H])([H])C2([H])[H])C3([H])[H])C1([H])[H])C([H])([H])[H]

>  <smiles>  (60) 
[H]N=C(c1c([H])c(N([H])C(=O)N2C([H])([H])C([H])([H])C([H])([H])C([H])(n3nc(-c4c([H])c([H])c(Oc5c([H])c([H])c(F)c([H])c5F)c([H])c4[H])c(C(=O)N([H])[H])c3N([H])[H])C2([H])[H])c(F)c([H])c1N1C([H])([H])C(C([H])([H])C([H])([H])[H])(C([H])([H])C([H])([H])Oc2c([H])c([H])c3c(c2[H])C([H])([H])N(C(=O)C([H])(N([H])C(=O)C([H])(N([H])C([H])([H])[H])C([H])([H])[H])C(C([H])([H])[H])(C([H])([H])[H])C([H])([H])[H])C([H])(C(=O)N([H])C2([H])c4c([H])c([H])c([H])c([H])c4C([H])([H])C([H])([H])C2([H])[H])C3([H])[H])C1([H])[H])C([H])([H])[H]

$$$$
60:0:0
     RDKit          3D

 92101  0  0  1  0  0  0  0  0999 V2000
  -27.9460  -21.9750   20.3250 C   0  0  0  0  0  2  0  0  0  0  0  0
  -29.8890  -22.5650   20.3460 C   0  0  0  0  0  2  0  0  0  0  0  0
  -28.5800  -23.3890   20.6910 C   0  0  2  0  0  0  0  0  0  0  0  0
  -29.1990  -21.2840   20.7070 N   0  0  0  0  0  0  0  0  0  0  0  0
  -29.4310  -18.5820   20.9100 C   0  0  0  0  0  3  0  0  0  0  0  0
  -29.5750  -19.9000   20.2130 C   0  0  0  0  0  0  0  0  0  0  0  0
  -30.1570  -19.6210   18.9900 C   0  0  0  0  0  0  0  0  0  0  0  0
  -29.9180  -17.3930   20.2990 C   0  0  0  0  0  0  0  0  0  0  0  0
  -30.4430  -20.5620   17.8660 C   0  0  0  0  0  1  0  0  0  0  0  0
  -30.5900  -17.9150   18.7740 S   0  0  0  0  0  0  0  0  0  0  0  0
  -30.5960  -14.8840   20.2970 C   0  0  0  0  0  0  0  0  0  0  0  0
  -30.4260  -12.5730   19.3170 C   0  0  0  0  0  2  0  0  0  0  0  0
  -29.4790  -12.6200   18.0960 C   0  0  0  0  0  2  0  0  0  0  0  0
  -28.0160  -12.4240   18.5330 C   0  0  0  0  0  2  0  0  0  0  0  0
  -27.6420  -13.3090   19.7510 C   0  0  0  0  0  3  0  0  0  0  0  0
  -28.7090  -13.2500   20.8670 C   0  0  0  0  0  2  0  0  0  0  0  0
  -29.9960  -13.6340   20.2680 N   0  0  0  0  0  0  0  0  0  0  0  0
  -31.7630  -14.9820   19.9010 O   0  0  0  0  0  0  0  0  0  0  0  0
  -29.8500  -16.0150   20.6680 N   0  0  0  0  0  0  0  0  0  0  0  0
  -29.0170  -15.7710   21.1840 H   0  0  0  0  0  0  0  0  0  0  0  0
  -25.2570  -13.8790   20.4930 C   0  0  0  0  0  0  0  0  0  0  0  0
  -24.2000  -13.0990   20.8710 C   0  0  0  0  0  0  0  0  0  0  0  0
  -24.6710  -11.7500   20.8370 C   0  0  0  0  0  0  0  0  0  0  0  0
  -26.3050  -13.0070   20.2510 N   0  0  0  0  0  0  0  0  0  0  0  0
  -25.9610  -11.7210   20.5200 N   0  0  0  0  0  0  0  0  0  0  0  0
  -23.9530  -10.4830   21.0300 C   0  0  0  0  0  0  0  0  0  0  0  0
  -24.3920   -9.5180   21.9630 C   0  0  0  0  0  3  0  0  0  0  0  0
  -23.6720   -8.3170   22.1440 C   0  0  0  0  0  3  0  0  0  0  0  0
  -22.4980   -8.0730   21.3920 C   0  0  0  0  0  0  0  0  0  0  0  0
  -22.0780   -9.0270   20.4490 C   0  0  0  0  0  3  0  0  0  0  0  0
  -22.7990  -10.2190   20.2650 C   0  0  0  0  0  3  0  0  0  0  0  0
  -21.7490   -6.9260   21.4840 O   0  0  0  0  0  0  0  0  0  0  0  0
  -21.7030   -6.1860   22.6380 C   0  0  0  0  0  0  0  0  0  0  0  0
  -21.2690   -6.7410   23.8630 C   0  0  0  0  0  3  0  0  0  0  0  0
  -21.1710   -5.9270   25.0080 C   0  0  0  0  0  3  0  0  0  0  0  0
  -21.4970   -4.5590   24.9320 C   0  0  0  0  0  0  0  0  0  0  0  0
  -21.9250   -4.0040   23.7130 C   0  0  0  0  0  3  0  0  0  0  0  0
  -22.0250   -4.8160   22.5690 C   0  0  0  0  0  0  0  0  0  0  0  0
  -22.4160   -4.2720   21.3900 F   0  0  0  0  0  0  0  0  0  0  0  0
  -21.3970   -3.7750   26.0310 F   0  0  0  0  0  0  0  0  0  0  0  0
  -22.8010  -13.5670   21.1500 C   0  0  0  0  0  0  0  0  0  0  0  0
  -22.0840  -12.8660   22.0210 N   0  0  0  0  0  0  0  0  0  0  0  0
  -22.3550  -14.5890   20.6320 O   0  0  0  0  0  0  0  0  0  0  0  0
  -22.4600  -12.0390   22.4610 H   0  0  0  0  0  0  0  0  0  0  0  0
  -21.1450  -13.1620   22.2520 H   0  0  0  0  0  0  0  0  0  0  0  0
  -25.4130  -15.2510   20.3130 N   0  0  0  0  0  0  0  0  0  0  0  0
  -24.6400  -15.9010   20.4130 H   0  0  0  0  0  0  0  0  0  0  0  0
  -26.2510  -15.6920   19.9570 H   0  0  0  0  0  0  0  0  0  0  0  0
  -28.4280  -23.7010   22.0620 O   0  0  0  0  0  0  0  0  0  0  0  0
  -28.6500  -22.8930   22.5120 H   0  0  0  0  0  0  0  0  0  0  0  0
  -28.0030  -24.7640   19.9640 C   0  0  0  0  0  2  0  0  0  0  0  0
  -28.2390  -26.2510   20.3030 O   0  0  0  0  0  0  0  0  0  0  0  0
  -24.6140  -31.8960   23.2440 C   0  0  0  0  0  0  0  0  0  0  0  0
  -27.1830  -27.2190   20.2010 C   0  0  0  0  0  0  0  0  0  0  0  0
  -23.4090  -30.5040   21.6060 C   0  0  0  0  0  3  0  0  0  0  0  0
  -24.8530  -28.9410   20.1740 C   0  0  0  0  0  0  0  0  0  0  0  0
  -25.9600  -30.7730   21.4400 C   0  0  0  0  0  2  0  0  0  0  0  0
  -26.0290  -29.3860   20.7900 C   0  0  0  0  0  0  0  0  0  0  0  0
  -27.1930  -28.5370   20.7980 C   0  0  0  0  0  3  0  0  0  0  0  0
  -25.9910  -26.8860   19.5130 C   0  0  0  0  0  3  0  0  0  0  0  0
  -24.8450  -27.7010   19.5230 C   0  0  0  0  0  3  0  0  0  0  0  0
  -23.6240  -29.8320   20.2250 C   0  0  0  0  0  2  0  0  0  0  0  0
  -24.6810  -31.0780   22.1520 N   0  0  0  0  0  0  0  0  0  0  0  0
  -23.5290  -32.1800   23.7730 O   0  0  0  0  0  0  0  0  0  0  0  0
  -22.7340  -29.4920   22.5660 C   0  0  0  0  0  0  0  0  0  0  0  0
  -21.4060  -29.3220   22.4370 N   0  0  0  0  0  0  0  0  0  0  0  0
  -23.4060  -28.8640   23.3870 O   0  0  0  0  0  0  0  0  0  0  0  0
  -20.9210  -29.8780   21.7470 H   0  0  0  0  0  0  0  0  0  0  0  0
  -18.0240  -28.1310   22.9440 C   0  0  0  0  0  0  0  0  0  0  0  0
  -20.5830  -28.3870   23.2100 C   0  0  0  0  0  3  0  0  0  0  0  0
  -20.6810  -26.9540   22.6360 C   0  0  0  0  0  2  0  0  0  0  0  0
  -19.5790  -26.6330   21.6230 C   0  0  0  0  0  2  0  0  0  0  0  0
  -18.1970  -26.7810   22.2660 C   0  0  0  0  0  2  0  0  0  0  0  0
  -19.1440  -28.8920   23.3720 C   0  0  0  0  0  0  0  0  0  0  0  0
  -18.9270  -30.1530   23.9660 C   0  0  0  0  0  3  0  0  0  0  0  0
  -17.6240  -30.6570   24.1330 C   0  0  0  0  0  3  0  0  0  0  0  0
  -16.5190  -29.8950   23.7180 C   0  0  0  0  0  3  0  0  0  0  0  0
  -16.7190  -28.6320   23.1330 C   0  0  0  0  0  3  0  0  0  0  0  0
  -25.8950  -32.5270   23.8690 C   0  0  0  0  0  3  0  0  0  0  0  0
  -26.4010  -31.7620   25.1530 C   0  0  1  0  0  0  0  0  0  0  0  0
  -25.3020  -31.5360   26.2170 C   0  0  0  0  0  1  0  0  0  0  0  0
  -26.9790  -30.3780   24.7770 C   0  0  0  0  0  1  0  0  0  0  0  0
  -27.5510  -32.5560   25.8160 C   0  0  0  0  0  1  0  0  0  0  0  0
  -25.5880  -33.9290   24.1950 N   0  0  0  0  0  0  0  0  0  0  0  0
  -25.9180  -34.9810   23.4330 C   0  0  0  0  0  0  0  0  0  0  0  0
  -26.5830  -34.8740   22.3990 O   0  0  0  0  0  0  0  0  0  0  0  0
  -24.9980  -34.0850   24.9990 H   0  0  0  0  0  0  0  0  0  0  0  0
  -24.1910  -36.7780   23.0880 C   0  0  0  0  0  1  0  0  0  0  0  0
  -25.4370  -36.3720   23.8910 C   0  0  0  0  0  3  0  0  0  0  0  0
  -27.5820  -37.2530   24.7040 C   0  0  0  0  0  1  0  0  0  0  0  0
  -26.4700  -37.4230   23.7710 N   0  0  0  0  0  0  0  0  0  0  0  0
  -26.0680  -38.3440   23.9240 H   0  0  0  0  0  0  0  0  0  0  0  0
  1  3  1  0
  1  4  1  0
  2  3  1  0
  2  4  1  0
  3 51  1  6
  3 49  1  0
  6  4  1  0
  6  5  1  0
  7  6  2  0
  8 19  1  0
  8  5  2  0
  9  7  1  0
 10  7  1  0
 10  8  1  0
 11 19  1  0
 12 17  1  0
 13 14  1  0
 13 12  1  0
 15 14  1  0
 15 24  1  0
 15 16  1  0
 17 11  1  0
 17 16  1  0
 18 11  2  0
 19 20  1  0
 21 22  2  0
 22 41  1  0
 23 22  1  0
 23 26  1  0
 24 21  1  0
 24 25  1  0
 25 23  2  0
 26 27  1  0
 27 28  2  0
 29 32  1  0
 29 28  1  0
 30 29  2  0
 31 30  1  0
 31 26  2  0
 32 33  1  0
 33 34  1  0
 34 35  2  0
 36 35  1  0
 36 40  1  0
 37 36  2  0
 38 33  2  0
 38 37  1  0
 39 38  1  0
 41 42  1  0
 42 45  1  0
 42 44  1  0
 43 41  2  0
 46 47  1  0
 46 21  1  0
 48 46  1  0
 49 50  1  0
 51 52  1  0
 53 64  2  0
 54 52  1  0
 54 59  1  0
 55 63  1  0
 55 65  1  0
 56 62  1  0
 56 58  1  0
 57 63  1  0
 58 59  2  0
 58 57  1  0
 60 61  1  0
 60 54  2  0
 61 56  2  0
 62 55  1  0
 63 53  1  0
 65 67  2  0
 66 65  1  0
 68 66  1  0
 69 78  2  0
 69 74  1  0
 70 66  1  0
 70 74  1  0
 71 70  1  0
 72 73  1  0
 72 71  1  0
 73 69  1  0
 74 75  2  0
 75 76  1  0
 77 76  2  0
 78 77  1  0
 79 53  1  0
 79 84  1  0
 79 80  1  0
 80 83  1  1
 80 81  1  0
 82 80  1  0
 84 87  1  0
 85 89  1  0
 85 84  1  0
 86 85  2  0
 89 88  1  0
 91 89  1  0
 91 92  1  0
 91 90  1  0
M  ISO  4  11 100  19 100  51 101  52 101
M  END
>  <TORSDO>  (61) 
F 19

>  <SCORE>  (61) 
-14.609

>  <name>  (61) 
60

>  <ligand_id>  (61) 
60

>  <original_smiles>  (61) 
[H]OC1(C([H])([H])Oc2c([H])c([H])c3c(c2[H])C([H])([H])N(C(=O)C([H])(N([H])C(=O)C([H])(N([H])C([H])([H])[H])C([H])([H])[H])C(C([H])([H])[H])(C([H])([H])[H])C([H])([H])[H])C([H])(C(=O)N([H])C2([H])c4c([H])c([H])c([H])c([H])c4C([H])([H])C([H])([H])C2([H])[H])C3([H])[H])C([H])([H])N(c2c(C([H])([H])[H])sc(N([H])C(=O)N3C([H])([H])C([H])([H])C([H])([H])C([H])(n4nc(-c5c([H])c([H])c(Oc6c([H])c([H])c(F)c([H])c6F)c([H])c5[H])c(C(=O)N([H])[H])c4N([H])[H])C3([H])[H])c2[H])C1([H])[H]

>  <smiles>  (61) 
[H]OC1(C([H])([H])Oc2c([H])c([H])c3c(c2[H])C([H])([H])N(C(=O)C([H])(N([H])C(=O)C([H])(N([H])C([H])([H])[H])C([H])([H])[H])C(C([H])([H])[H])(C([H])([H])[H])C([H])([H])[H])C([H])(C(=O)N([H])C2([H])c4c([H])c([H])c([H])c([H])c4C([H])([H])C([H])([H])C2([H])[H])C3([H])[H])C([H])([H])N(c2c(C([H])([H])[H])sc(N([H])C(=O)N3C([H])([H])C([H])([H])C([H])([H])C([H])(n4nc(-c5c([H])c([H])c(Oc6c([H])c([H])c(F)c([H])c6F)c([H])c5[H])c(C(=O)N([H])[H])c4N([H])[H])C3([H])[H])c2[H])C1([H])[H]

$$$$
61:0:0
     RDKit          3D

 89 98  0  0  1  0  0  0  0  0999 V2000
  -28.9580  -23.2660   20.2140 C   0  0  0  0  0  0  0  0  0  0  0  0
  -28.5280  -21.9060   20.0440 N   0  0  0  0  0  0  0  0  0  0  0  0
  -30.1240  -23.4940   20.5470 O   0  0  0  0  0  0  0  0  0  0  0  0
  -27.5420  -21.9500   19.8250 H   0  0  0  0  0  0  0  0  0  0  0  0
  -30.5310  -15.1690   19.9770 C   0  0  0  0  0  0  0  0  0  0  0  0
  -30.3990  -12.7880   19.0270 C   0  0  0  0  0  2  0  0  0  0  0  0
  -29.3920  -12.6520   17.8590 C   0  0  0  0  0  2  0  0  0  0  0  0
  -27.9720  -12.3810   18.3870 C   0  0  0  0  0  2  0  0  0  0  0  0
  -27.6000  -13.3210   19.5570 C   0  0  0  0  0  3  0  0  0  0  0  0
  -28.7250  -13.4000   20.6180 C   0  0  0  0  0  2  0  0  0  0  0  0
  -29.9330  -13.8910   19.9310 N   0  0  0  0  0  0  0  0  0  0  0  0
  -31.7280  -15.1950   19.6610 O   0  0  0  0  0  0  0  0  0  0  0  0
  -27.9990  -19.4870   20.4010 C   0  0  0  0  0  3  0  0  0  0  0  0
  -28.4840  -18.1080   20.3770 C   0  0  0  0  0  0  0  0  0  0  0  0
  -29.8490  -17.8470   20.0930 C   0  0  0  0  0  0  0  0  0  0  0  0
  -28.9470  -20.5030   20.1390 C   0  0  0  0  0  0  0  0  0  0  0  0
  -28.3090  -16.6040   20.4630 C   0  0  0  0  0  2  0  0  0  0  0  0
  -29.7790  -16.4040   20.1560 N   0  0  0  0  0  0  0  0  0  0  0  0
  -30.5520  -19.5330   19.8670 S   0  0  0  0  0  0  0  0  0  0  0  0
  -25.2700  -13.8880   20.4620 C   0  0  0  0  0  0  0  0  0  0  0  0
  -24.2310  -13.1050   20.8790 C   0  0  0  0  0  0  0  0  0  0  0  0
  -24.6900  -11.7570   20.7770 C   0  0  0  0  0  0  0  0  0  0  0  0
  -26.2970  -13.0170   20.1330 N   0  0  0  0  0  0  0  0  0  0  0  0
  -25.9610  -11.7280   20.3910 N   0  0  0  0  0  0  0  0  0  0  0  0
  -23.9700  -10.4940   20.9650 C   0  0  0  0  0  0  0  0  0  0  0  0
  -24.4130   -9.5240   21.8900 C   0  0  0  0  0  3  0  0  0  0  0  0
  -23.6910   -8.3250   22.0680 C   0  0  0  0  0  3  0  0  0  0  0  0
  -22.5120   -8.0890   21.3220 C   0  0  0  0  0  0  0  0  0  0  0  0
  -22.0880   -9.0490   20.3860 C   0  0  0  0  0  3  0  0  0  0  0  0
  -22.8110  -10.2390   20.2060 C   0  0  0  0  0  3  0  0  0  0  0  0
  -21.7590   -6.9440   21.4130 O   0  0  0  0  0  0  0  0  0  0  0  0
  -21.6660   -6.2360   22.5840 C   0  0  0  0  0  0  0  0  0  0  0  0
  -21.1590   -6.8160   23.7670 C   0  0  0  0  0  3  0  0  0  0  0  0
  -21.0160   -6.0340   24.9300 C   0  0  0  0  0  3  0  0  0  0  0  0
  -21.3690   -4.6710   24.9090 C   0  0  0  0  0  0  0  0  0  0  0  0
  -21.8680   -4.0900   23.7300 C   0  0  0  0  0  3  0  0  0  0  0  0
  -22.0140   -4.8710   22.5700 C   0  0  0  0  0  0  0  0  0  0  0  0
  -22.4760   -4.3010   21.4310 F   0  0  0  0  0  0  0  0  0  0  0  0
  -21.2230   -3.9160   26.0230 F   0  0  0  0  0  0  0  0  0  0  0  0
  -22.8540  -13.5810   21.2400 C   0  0  0  0  0  0  0  0  0  0  0  0
  -22.1750  -12.8650   22.1290 N   0  0  0  0  0  0  0  0  0  0  0  0
  -22.3930  -14.6210   20.7720 O   0  0  0  0  0  0  0  0  0  0  0  0
  -22.5630  -12.0230   22.5280 H   0  0  0  0  0  0  0  0  0  0  0  0
  -21.2540  -13.1640   22.4170 H   0  0  0  0  0  0  0  0  0  0  0  0
  -25.3950  -15.2610   20.3020 N   0  0  0  0  0  0  0  0  0  0  0  0
  -24.5840  -15.8570   20.4190 H   0  0  0  0  0  0  0  0  0  0  0  0
  -26.1110  -15.6840   19.7290 H   0  0  0  0  0  0  0  0  0  0  0  0
  -27.9340  -24.5920   19.9720 C   0  0  0  0  0  2  0  0  0  0  0  0
  -28.2480  -26.1220   20.2520 O   0  0  0  0  0  0  0  0  0  0  0  0
  -24.6370  -31.8810   23.2680 C   0  0  0  0  0  0  0  0  0  0  0  0
  -27.2100  -27.1480   20.1920 C   0  0  0  0  0  0  0  0  0  0  0  0
  -23.4380  -30.5040   21.6130 C   0  0  0  0  0  3  0  0  0  0  0  0
  -24.8850  -28.9340   20.1740 C   0  0  0  0  0  0  0  0  0  0  0  0
  -25.9960  -30.7530   21.4570 C   0  0  0  0  0  2  0  0  0  0  0  0
  -26.0690  -29.3610   20.7910 C   0  0  0  0  0  0  0  0  0  0  0  0
  -27.2290  -28.4860   20.7830 C   0  0  0  0  0  3  0  0  0  0  0  0
  -25.9970  -26.8430   19.5330 C   0  0  0  0  0  3  0  0  0  0  0  0
  -24.8670  -27.6910   19.5260 C   0  0  0  0  0  3  0  0  0  0  0  0
  -23.6610  -29.8380   20.2290 C   0  0  0  0  0  2  0  0  0  0  0  0
  -24.7110  -31.0680   22.1670 N   0  0  0  0  0  0  0  0  0  0  0  0
  -23.5510  -32.1630   23.7960 O   0  0  0  0  0  0  0  0  0  0  0  0
  -22.7510  -29.4930   22.5660 C   0  0  0  0  0  0  0  0  0  0  0  0
  -21.4230  -29.3230   22.4330 N   0  0  0  0  0  0  0  0  0  0  0  0
  -23.4180  -28.8600   23.3890 O   0  0  0  0  0  0  0  0  0  0  0  0
  -20.9390  -29.8840   21.7450 H   0  0  0  0  0  0  0  0  0  0  0  0
  -18.0380  -28.1260   22.9260 C   0  0  0  0  0  0  0  0  0  0  0  0
  -20.5980  -28.3810   23.1950 C   0  0  0  0  0  3  0  0  0  0  0  0
  -20.6960  -26.9530   22.6060 C   0  0  0  0  0  2  0  0  0  0  0  0
  -19.5940  -26.6450   21.5890 C   0  0  0  0  0  2  0  0  0  0  0  0
  -18.2120  -26.7850   22.2340 C   0  0  0  0  0  2  0  0  0  0  0  0
  -19.1580  -28.8830   23.3640 C   0  0  0  0  0  0  0  0  0  0  0  0
  -18.9390  -30.1360   23.9730 C   0  0  0  0  0  3  0  0  0  0  0  0
  -17.6350  -30.6360   24.1490 C   0  0  0  0  0  3  0  0  0  0  0  0
  -16.5300  -29.8770   23.7260 C   0  0  0  0  0  3  0  0  0  0  0  0
  -16.7330  -28.6240   23.1220 C   0  0  0  0  0  3  0  0  0  0  0  0
  -25.9150  -32.5090   23.9020 C   0  0  0  0  0  3  0  0  0  0  0  0
  -25.6090  -33.9100   24.2340 N   0  0  0  0  0  0  0  0  0  0  0  0
  -25.9240  -34.9640   23.4700 C   0  0  0  0  0  0  0  0  0  0  0  0
  -26.5680  -34.8590   22.4230 O   0  0  0  0  0  0  0  0  0  0  0  0
  -25.0350  -34.0650   25.0500 H   0  0  0  0  0  0  0  0  0  0  0  0
  -24.1760  -36.7520   23.1790 C   0  0  0  0  0  1  0  0  0  0  0  0
  -25.4520  -36.3550   23.9390 C   0  0  0  0  0  3  0  0  0  0  0  0
  -27.6120  -37.2620   24.6780 C   0  0  0  0  0  1  0  0  0  0  0  0
  -26.4750  -37.4110   23.7740 N   0  0  0  0  0  0  0  0  0  0  0  0
  -26.0710  -38.3310   23.9240 H   0  0  0  0  0  0  0  0  0  0  0  0
  -26.4100  -31.7380   25.1880 C   0  0  1  0  0  0  0  0  0  0  0  0
  -25.3020  -31.5120   26.2440 C   0  0  0  0  0  1  0  0  0  0  0  0
  -26.9880  -30.3550   24.8120 C   0  0  0  0  0  1  0  0  0  0  0  0
  -27.5590  -32.5260   25.8610 C   0  0  0  0  0  1  0  0  0  0  0  0
  1  3  2  0
  2 16  1  0
  2  1  1  0
  4  2  1  0
  5 18  1  0
  6 11  1  0
  7  8  1  0
  7  6  1  0
  9  8  1  0
  9 23  1  0
  9 10  1  0
 11  5  1  0
 11 10  1  0
 12  5  2  0
 14 13  1  0
 14 17  1  0
 15 18  1  0
 15 14  2  0
 16 13  2  0
 18 17  1  0
 19 15  1  0
 19 16  1  0
 20 21  2  0
 21 40  1  0
 22 21  1  0
 22 25  1  0
 23 24  1  0
 23 20  1  0
 24 22  2  0
 25 26  1  0
 26 27  2  0
 28 31  1  0
 28 27  1  0
 29 28  2  0
 30 29  1  0
 30 25  2  0
 31 32  1  0
 32 33  1  0
 33 34  2  0
 35 34  1  0
 35 39  1  0
 36 35  2  0
 37 32  2  0
 37 36  1  0
 38 37  1  0
 40 41  1  0
 41 44  1  0
 41 43  1  0
 42 40  2  0
 45 46  1  0
 45 20  1  0
 47 45  1  0
 48  1  1  0
 48 49  1  0
 50 61  2  0
 51 49  1  0
 51 56  1  0
 52 60  1  0
 52 62  1  0
 53 59  1  0
 53 55  1  0
 54 60  1  0
 55 54  1  0
 56 55  2  0
 57 51  2  0
 58 57  1  0
 58 53  2  0
 59 52  1  0
 60 50  1  0
 62 64  2  0
 63 62  1  0
 65 63  1  0
 66 75  2  0
 66 71  1  0
 67 63  1  0
 67 71  1  0
 68 67  1  0
 69 70  1  0
 69 68  1  0
 70 66  1  0
 71 72  2  0
 72 73  1  0
 74 73  2  0
 75 74  1  0
 76 50  1  0
 76 77  1  0
 76 86  1  0
 77 80  1  0
 78 82  1  0
 78 77  1  0
 79 78  2  0
 82 81  1  0
 84 85  1  0
 84 82  1  0
 84 83  1  0
 86 89  1  1
 86 87  1  0
 88 86  1  0
M  ISO  4   5 100  18 100  48 101  49 101
M  END
>  <TORSDO>  (62) 
F 17

>  <SCORE>  (62) 
-14.978

>  <name>  (62) 
61

>  <ligand_id>  (62) 
61

>  <original_smiles>  (62) 
[H]c1c([H])c([H])c2c(c1[H])C([H])([H])C([H])([H])C([H])([H])C2([H])N([H])C(=O)C1([H])N(C(=O)C([H])(N([H])C(=O)C([H])(N([H])C([H])([H])[H])C([H])([H])[H])C(C([H])([H])[H])(C([H])([H])[H])C([H])([H])[H])C([H])([H])c2c([H])c(OC([H])([H])C(=O)N([H])c3sc4c(c3[H])C([H])([H])N4C(=O)N3C([H])([H])C([H])([H])C([H])([H])C([H])(n4nc(-c5c([H])c([H])c(Oc6c([H])c([H])c(F)c([H])c6F)c([H])c5[H])c(C(=O)N([H])[H])c4N([H])[H])C3([H])[H])c([H])c([H])c2C1([H])[H]

>  <smiles>  (62) 
[H]c1c([H])c([H])c2c(c1[H])C([H])([H])C([H])([H])C([H])([H])C2([H])N([H])C(=O)C1([H])N(C(=O)C([H])(N([H])C(=O)C([H])(N([H])C([H])([H])[H])C([H])([H])[H])C(C([H])([H])[H])(C([H])([H])[H])C([H])([H])[H])C([H])([H])c2c([H])c(OC([H])([H])C(=O)N([H])c3sc4c(c3[H])C([H])([H])N4C(=O)N3C([H])([H])C([H])([H])C([H])([H])C([H])(n4nc(-c5c([H])c([H])c(Oc6c([H])c([H])c(F)c([H])c6F)c([H])c5[H])c(C(=O)N([H])[H])c4N([H])[H])C3([H])[H])c([H])c([H])c2C1([H])[H]

$$$$
62:0:0
     RDKit          3D

 97106  0  0  1  0  0  0  0  0999 V2000
  -30.1450  -23.4090   21.7970 C   0  0  0  0  0  0  0  0  0  0  0  0
  -30.8880  -22.1920   22.1530 C   0  0  0  0  0  0  0  0  0  0  0  0
  -30.8380  -24.3600   21.1210 C   0  0  0  0  0  3  0  0  0  0  0  0
  -28.6880  -23.5560   22.2550 C   0  0  0  0  0  2  0  0  0  0  0  0
  -27.9600  -22.2260   22.5110 C   0  0  0  0  0  2  0  0  0  0  0  0
  -28.7130  -21.0410   21.9030 C   0  0  0  0  0  2  0  0  0  0  0  0
  -30.1210  -21.0850   22.3120 N   0  0  0  0  0  0  0  0  0  0  0  0
  -32.1100  -22.1670   22.3380 O   0  0  0  0  0  0  0  0  0  0  0  0
  -31.6110  -26.4610   20.0370 C   0  0  0  0  0  1  0  0  0  0  0  0
  -30.0850  -26.5900   22.0170 C   0  0  0  0  0  1  0  0  0  0  0  0
  -30.4140  -25.7800   20.7400 C   0  0  2  0  0  0  0  0  0  0  0  0
  -29.2220  -25.7860   19.7440 C   0  0  0  0  0  2  0  0  0  0  0  0
  -28.9510  -27.1500   19.4690 O   0  0  0  0  0  0  0  0  0  0  0  0
  -24.7390  -31.6070   23.0170 C   0  0  0  0  0  0  0  0  0  0  0  0
  -27.6760  -27.6380   19.6090 C   0  0  0  0  0  0  0  0  0  0  0  0
  -23.6030  -30.2000   21.3220 C   0  0  0  0  0  3  0  0  0  0  0  0
  -25.1430  -28.8720   19.7810 C   0  0  0  0  0  0  0  0  0  0  0  0
  -26.0720  -30.7990   21.0810 C   0  0  0  0  0  2  0  0  0  0  0  0
  -26.2600  -29.4770   20.3700 C   0  0  0  0  0  0  0  0  0  0  0  0
  -27.5240  -28.8640   20.2820 C   0  0  0  0  0  3  0  0  0  0  0  0
  -26.5440  -27.0180   19.0370 C   0  0  0  0  0  3  0  0  0  0  0  0
  -25.2770  -27.6350   19.1180 C   0  0  0  0  0  3  0  0  0  0  0  0
  -23.8290  -29.6130   19.9010 C   0  0  0  0  0  2  0  0  0  0  0  0
  -24.8220  -30.8830   21.8660 N   0  0  0  0  0  0  0  0  0  0  0  0
  -23.6570  -31.7560   23.6020 O   0  0  0  0  0  0  0  0  0  0  0  0
  -23.0730  -29.0760   22.2380 C   0  0  0  0  0  0  0  0  0  0  0  0
  -21.7720  -28.7690   22.1100 N   0  0  0  0  0  0  0  0  0  0  0  0
  -23.8260  -28.4850   23.0180 O   0  0  0  0  0  0  0  0  0  0  0  0
  -21.2210  -29.3080   21.4550 H   0  0  0  0  0  0  0  0  0  0  0  0
  -18.5500  -27.1920   22.5180 C   0  0  0  0  0  0  0  0  0  0  0  0
  -21.0600  -27.7210   22.8370 C   0  0  0  0  0  3  0  0  0  0  0  0
  -21.3280  -26.3330   22.2110 C   0  0  0  0  0  2  0  0  0  0  0  0
  -20.2790  -25.9280   21.1700 C   0  0  0  0  0  2  0  0  0  0  0  0
  -18.8830  -25.8950   21.7990 C   0  0  0  0  0  2  0  0  0  0  0  0
  -19.5730  -28.0570   22.9900 C   0  0  0  0  0  0  0  0  0  0  0  0
  -19.2100  -29.2680   23.6190 C   0  0  0  0  0  3  0  0  0  0  0  0
  -17.8560  -29.6160   23.7840 C   0  0  0  0  0  3  0  0  0  0  0  0
  -16.8480  -28.7500   23.3300 C   0  0  0  0  0  3  0  0  0  0  0  0
  -17.1960  -27.5400   22.7020 C   0  0  0  0  0  3  0  0  0  0  0  0
  -25.9890  -32.3050   23.6420 C   0  0  0  0  0  3  0  0  0  0  0  0
  -26.5920  -31.5160   24.8680 C   0  0  1  0  0  0  0  0  0  0  0  0
  -25.5430  -31.1180   25.9320 C   0  0  0  0  0  1  0  0  0  0  0  0
  -27.2950  -30.2240   24.3890 C   0  0  0  0  0  1  0  0  0  0  0  0
  -27.6720  -32.3770   25.5670 C   0  0  0  0  0  1  0  0  0  0  0  0
  -25.5870  -33.6610   24.0380 N   0  0  0  0  0  0  0  0  0  0  0  0
  -25.8780  -34.7720   23.3450 C   0  0  0  0  0  0  0  0  0  0  0  0
  -26.5830  -34.7640   22.3310 O   0  0  0  0  0  0  0  0  0  0  0  0
  -24.9590  -33.7370   24.8230 H   0  0  0  0  0  0  0  0  0  0  0  0
  -24.0600  -36.4760   23.0160 C   0  0  0  0  0  1  0  0  0  0  0  0
  -25.2930  -36.1020   23.8550 C   0  0  0  0  0  3  0  0  0  0  0  0
  -27.3440  -37.0520   24.8140 C   0  0  0  0  0  1  0  0  0  0  0  0
  -26.2650  -37.2170   23.8420 N   0  0  0  0  0  0  0  0  0  0  0  0
  -25.8020  -38.1020   24.0300 H   0  0  0  0  0  0  0  0  0  0  0  0
  -30.6820  -19.8310   22.8290 C   0  0  0  0  0  2  0  0  0  0  0  0
  -31.2220  -17.4580   22.0310 C   0  0  0  0  0  3  0  0  0  0  0  0
  -31.0690  -17.4100   19.6890 C   0  0  0  0  0  3  0  0  0  0  0  0
  -31.3120  -16.6960   20.8330 C   0  0  0  0  0  0  0  0  0  0  0  0
  -30.9000  -18.7710   21.7890 C   0  0  0  0  0  0  0  0  0  0  0  0
  -30.7340  -19.0720   20.0660 S   0  0  0  0  0  0  0  0  0  0  0  0
  -31.8560  -14.5050   19.8600 C   0  0  0  0  0  0  0  0  0  0  0  0
  -31.3070  -12.4270   18.6480 C   0  0  0  0  0  2  0  0  0  0  0  0
  -30.3130  -12.7230   17.5040 C   0  0  0  0  0  2  0  0  0  0  0  0
  -28.8590  -12.7070   18.0150 C   0  0  0  0  0  2  0  0  0  0  0  0
  -28.6760  -13.5770   19.2880 C   0  0  0  0  0  3  0  0  0  0  0  0
  -29.7510  -13.2180   20.3360 C   0  0  0  0  0  2  0  0  0  0  0  0
  -31.0830  -13.3990   19.7250 N   0  0  0  0  0  0  0  0  0  0  0  0
  -32.8450  -14.7440   19.1560 O   0  0  0  0  0  0  0  0  0  0  0  0
  -31.4930  -15.2960   20.8810 N   0  0  0  0  0  0  0  0  0  0  0  0
  -30.9380  -14.8310   21.5830 H   0  0  0  0  0  0  0  0  0  0  0  0
  -26.4090  -14.4240   20.1810 C   0  0  0  0  0  0  0  0  0  0  0  0
  -25.2880  -13.7600   20.5990 C   0  0  0  0  0  0  0  0  0  0  0  0
  -25.5900  -12.3680   20.4870 C   0  0  0  0  0  0  0  0  0  0  0  0
  -27.3310  -13.4420   19.8430 N   0  0  0  0  0  0  0  0  0  0  0  0
  -26.8410  -12.1970   20.0800 N   0  0  0  0  0  0  0  0  0  0  0  0
  -24.7430  -11.1850   20.6850 C   0  0  0  0  0  0  0  0  0  0  0  0
  -25.0900  -10.1740   21.6080 C   0  0  0  0  0  3  0  0  0  0  0  0
  -24.2500   -9.0540   21.7920 C   0  0  0  0  0  3  0  0  0  0  0  0
  -23.0490   -8.9380   21.0510 C   0  0  0  0  0  0  0  0  0  0  0  0
  -22.7220   -9.9360   20.1160 C   0  0  0  0  0  3  0  0  0  0  0  0
  -23.5610  -11.0470   19.9310 C   0  0  0  0  0  3  0  0  0  0  0  0
  -22.1860   -7.8730   21.1420 O   0  0  0  0  0  0  0  0  0  0  0  0
  -21.9990   -7.1990   22.3220 C   0  0  0  0  0  0  0  0  0  0  0  0
  -21.5740   -7.8570   23.4960 C   0  0  0  0  0  3  0  0  0  0  0  0
  -21.3240   -7.1140   24.6680 C   0  0  0  0  0  3  0  0  0  0  0  0
  -21.4920   -5.7170   24.6660 C   0  0  0  0  0  0  0  0  0  0  0  0
  -21.9100   -5.0600   23.4940 C   0  0  0  0  0  3  0  0  0  0  0  0
  -22.1600   -5.7990   22.3250 C   0  0  0  0  0  0  0  0  0  0  0  0
  -22.5410   -5.1580   21.1930 F   0  0  0  0  0  0  0  0  0  0  0  0
  -21.2450   -5.0020   25.7870 F   0  0  0  0  0  0  0  0  0  0  0  0
  -23.9740  -14.3730   20.9940 C   0  0  0  0  0  0  0  0  0  0  0  0
  -23.2500  -13.7380   21.9090 N   0  0  0  0  0  0  0  0  0  0  0  0
  -23.6060  -15.4500   20.5240 O   0  0  0  0  0  0  0  0  0  0  0  0
  -23.5620  -12.8650   22.3080 H   0  0  0  0  0  0  0  0  0  0  0  0
  -22.3720  -14.1330   22.2150 H   0  0  0  0  0  0  0  0  0  0  0  0
  -26.7170  -15.7740   20.0450 N   0  0  0  0  0  0  0  0  0  0  0  0
  -26.0470  -16.5080   20.2470 H   0  0  0  0  0  0  0  0  0  0  0  0
  -27.5900  -16.1270   19.6770 H   0  0  0  0  0  0  0  0  0  0  0  0
  1  2  1  0
  1  4  1  0
  2  7  1  0
  2  8  2  0
  3  1  2  0
  4  5  1  0
  6  7  1  0
  6  5  1  0
  7 54  1  0
 11  9  1  6
 11  3  1  0
 11 10  1  0
 12 11  1  0
 13 15  1  0
 13 12  1  0
 14 25  2  0
 15 20  1  0
 16 24  1  0
 16 26  1  0
 17 23  1  0
 17 19  1  0
 18 24  1  0
 19 18  1  0
 20 19  2  0
 21 22  1  0
 21 15  2  0
 22 17  2  0
 23 16  1  0
 24 14  1  0
 26 28  2  0
 27 26  1  0
 29 27  1  0
 30 39  2  0
 30 35  1  0
 31 27  1  0
 31 35  1  0
 32 31  1  0
 33 34  1  0
 33 32  1  0
 34 30  1  0
 35 36  2  0
 36 37  1  0
 38 37  2  0
 39 38  1  0
 40 14  1  0
 40 45  1  0
 40 41  1  0
 41 44  1  1
 41 42  1  0
 43 41  1  0
 45 48  1  0
 46 50  1  0
 46 45  1  0
 47 46  2  0
 50 49  1  0
 52 50  1  0
 52 53  1  0
 52 51  1  0
 56 59  1  0
 56 57  2  0
 57 68  1  0
 57 55  1  0
 58 55  2  0
 58 54  1  0
 59 58  1  0
 60 68  1  0
 61 66  1  0
 62 63  1  0
 62 61  1  0
 64 63  1  0
 64 73  1  0
 64 65  1  0
 66 60  1  0
 66 65  1  0
 67 60  2  0
 68 69  1  0
 70 71  2  0
 71 90  1  0
 72 71  1  0
 72 75  1  0
 73 74  1  0
 73 70  1  0
 74 72  2  0
 75 76  1  0
 76 77  2  0
 78 81  1  0
 78 77  1  0
 79 78  2  0
 80 79  1  0
 80 75  2  0
 81 82  1  0
 82 87  2  0
 82 83  1  0
 83 84  2  0
 85 84  1  0
 85 89  1  0
 86 85  2  0
 87 86  1  0
 88 87  1  0
 90 91  1  0
 91 94  1  0
 91 93  1  0
 92 90  2  0
 95 70  1  0
 95 96  1  0
 97 95  1  0
M  ISO  4  12 101  13 101  60 100  68 100
M  END
>  <TORSDO>  (63) 
F 20

>  <SCORE>  (63) 
-9.714

>  <name>  (63) 
62

>  <ligand_id>  (63) 
62

>  <original_smiles>  (63) 
[H]C(=C1C(=O)N(C([H])([H])c2sc([H])c(N([H])C(=O)N3C([H])([H])C([H])([H])C([H])([H])C([H])(n4nc(-c5c([H])c([H])c(Oc6c([H])c([H])c(F)c([H])c6F)c([H])c5[H])c(C(=O)N([H])[H])c4N([H])[H])C3([H])[H])c2[H])C([H])([H])C([H])([H])C1([H])[H])C(C([H])([H])[H])(C([H])([H])[H])C([H])([H])Oc1c([H])c([H])c2c(c1[H])C([H])([H])N(C(=O)C([H])(N([H])C(=O)C([H])(N([H])C([H])([H])[H])C([H])([H])[H])C(C([H])([H])[H])(C([H])([H])[H])C([H])([H])[H])C([H])(C(=O)N([H])C1([H])c3c([H])c([H])c([H])c([H])c3C([H])([H])C([H])([H])C1([H])[H])C2([H])[H]

>  <smiles>  (63) 
[H]C(=C1C(=O)N(C([H])([H])c2sc([H])c(N([H])C(=O)N3C([H])([H])C([H])([H])C([H])([H])C([H])(n4nc(-c5c([H])c([H])c(Oc6c([H])c([H])c(F)c([H])c6F)c([H])c5[H])c(C(=O)N([H])[H])c4N([H])[H])C3([H])[H])c2[H])C([H])([H])C([H])([H])C1([H])[H])C(C([H])([H])[H])(C([H])([H])[H])C([H])([H])Oc1c([H])c([H])c2c(c1[H])C([H])([H])N(C(=O)C([H])(N([H])C(=O)C([H])(N([H])C([H])([H])[H])C([H])([H])[H])C(C([H])([H])[H])(C([H])([H])[H])C([H])([H])[H])C([H])(C(=O)N([H])C1([H])c3c([H])c([H])c([H])c([H])c3C([H])([H])C([H])([H])C1([H])[H])C2([H])[H]

$$$$
63:0:0
     RDKit          3D

 93101  0  0  1  0  0  0  0  0999 V2000
  -30.1620  -22.3190   21.7750 C   0  0  0  0  0  0  0  0  0  0  0  0
  -31.3420  -22.5930   21.5300 O   0  0  0  0  0  0  0  0  0  0  0  0
  -29.0070  -23.2440   21.4020 C   0  0  0  0  0  2  0  0  0  0  0  0
  -29.4010  -24.6310   20.8460 C   0  0  0  0  0  2  0  0  0  0  0  0
  -28.3100  -26.1520   22.5620 C   0  0  0  0  0  1  0  0  0  0  0  0
  -28.2840  -25.6530   21.1030 C   0  0  0  0  0  3  0  0  0  0  0  0
  -28.3960  -26.7640   20.2040 O   0  0  0  0  0  0  0  0  0  0  0  0
  -24.5680  -31.8910   23.2440 C   0  0  0  0  0  0  0  0  0  0  0  0
  -27.2440  -27.5100   20.1480 C   0  0  0  0  0  0  0  0  0  0  0  0
  -23.3700  -30.4870   21.5970 C   0  0  0  0  0  3  0  0  0  0  0  0
  -24.8350  -28.9690   20.1590 C   0  0  0  0  0  0  0  0  0  0  0  0
  -25.8880  -30.8750   21.3940 C   0  0  0  0  0  2  0  0  0  0  0  0
  -25.9850  -29.5100   20.7470 C   0  0  0  0  0  0  0  0  0  0  0  0
  -27.1960  -28.7900   20.7340 C   0  0  0  0  0  3  0  0  0  0  0  0
  -26.0840  -26.9760   19.5490 C   0  0  0  0  0  3  0  0  0  0  0  0
  -24.8770  -27.7000   19.5540 C   0  0  0  0  0  3  0  0  0  0  0  0
  -23.5800  -29.8110   20.2140 C   0  0  0  0  0  2  0  0  0  0  0  0
  -24.6280  -31.0970   22.1370 N   0  0  0  0  0  0  0  0  0  0  0  0
  -23.4880  -32.1500   23.7900 O   0  0  0  0  0  0  0  0  0  0  0  0
  -22.7300  -29.4560   22.5540 C   0  0  0  0  0  0  0  0  0  0  0  0
  -21.4050  -29.2700   22.4310 N   0  0  0  0  0  0  0  0  0  0  0  0
  -23.4200  -28.8270   23.3610 O   0  0  0  0  0  0  0  0  0  0  0  0
  -20.9110  -29.8300   21.7500 H   0  0  0  0  0  0  0  0  0  0  0  0
  -18.0350  -28.0720   22.9330 C   0  0  0  0  0  0  0  0  0  0  0  0
  -20.5930  -28.3270   23.1980 C   0  0  0  0  0  3  0  0  0  0  0  0
  -20.6940  -26.9000   22.6090 C   0  0  0  0  0  2  0  0  0  0  0  0
  -19.5890  -26.5860   21.5970 C   0  0  0  0  0  2  0  0  0  0  0  0
  -18.2100  -26.7270   22.2470 C   0  0  0  0  0  2  0  0  0  0  0  0
  -19.1550  -28.8290   23.3650 C   0  0  0  0  0  0  0  0  0  0  0  0
  -18.9400  -30.0910   23.9640 C   0  0  0  0  0  3  0  0  0  0  0  0
  -17.6360  -30.5910   24.1380 C   0  0  0  0  0  3  0  0  0  0  0  0
  -16.5310  -29.8290   23.7240 C   0  0  0  0  0  3  0  0  0  0  0  0
  -16.7300  -28.5730   23.1260 C   0  0  0  0  0  3  0  0  0  0  0  0
  -25.8520  -32.5250   23.8640 C   0  0  0  0  0  3  0  0  0  0  0  0
  -25.5390  -33.9220   24.1920 N   0  0  0  0  0  0  0  0  0  0  0  0
  -25.8800  -34.9760   23.4370 C   0  0  0  0  0  0  0  0  0  0  0  0
  -26.5630  -34.8740   22.4140 O   0  0  0  0  0  0  0  0  0  0  0  0
  -24.9320  -34.0720   24.9840 H   0  0  0  0  0  0  0  0  0  0  0  0
  -24.1650  -36.7740   23.0480 C   0  0  0  0  0  1  0  0  0  0  0  0
  -25.3840  -36.3620   23.8880 C   0  0  0  0  0  3  0  0  0  0  0  0
  -27.4980  -37.2390   24.7770 C   0  0  0  0  0  1  0  0  0  0  0  0
  -26.4220  -37.4130   23.8070 N   0  0  0  0  0  0  0  0  0  0  0  0
  -26.0140  -38.3340   23.9470 H   0  0  0  0  0  0  0  0  0  0  0  0
  -26.3740  -31.7530   25.1380 C   0  0  1  0  0  0  0  0  0  0  0  0
  -25.2850  -31.5090   26.2070 C   0  0  0  0  0  1  0  0  0  0  0  0
  -26.9630  -30.3790   24.7400 C   0  0  0  0  0  1  0  0  0  0  0  0
  -27.5200  -32.5530   25.8030 C   0  0  0  0  0  1  0  0  0  0  0  0
  -29.7790  -21.0110   22.4790 C   0  0  0  0  0  2  0  0  0  0  0  0
  -30.9330  -20.1460   22.7040 N   0  0  0  0  0  0  0  0  0  0  0  0
  -31.7550  -20.7280   22.5350 H   0  0  0  0  0  0  0  0  0  0  0  0
  -30.4130  -17.7850   22.0850 C   0  0  0  0  0  3  0  0  0  0  0  0
  -31.5160  -17.4380   20.0510 C   0  0  0  0  0  3  0  0  0  0  0  0
  -30.7340  -16.8730   21.0350 C   0  0  0  0  0  0  0  0  0  0  0  0
  -31.0060  -19.0130   21.9060 C   0  0  0  0  0  0  0  0  0  0  0  0
  -31.9300  -19.0820   20.4290 S   0  0  0  0  0  0  0  0  0  0  0  0
  -30.8140  -14.4900   20.3740 C   0  0  0  0  0  0  0  0  0  0  0  0
  -30.4080  -12.3670   19.2100 C   0  0  0  0  0  2  0  0  0  0  0  0
  -29.4710  -12.6100   18.0110 C   0  0  0  0  0  2  0  0  0  0  0  0
  -28.0020  -12.4830   18.4520 C   0  0  0  0  0  2  0  0  0  0  0  0
  -27.6800  -13.3160   19.7220 C   0  0  0  0  0  3  0  0  0  0  0  0
  -28.7440  -13.0960   20.8240 C   0  0  0  0  0  2  0  0  0  0  0  0
  -30.0730  -13.3570   20.2460 N   0  0  0  0  0  0  0  0  0  0  0  0
  -31.9240  -14.6030   19.8500 O   0  0  0  0  0  0  0  0  0  0  0  0
  -30.2460  -15.5250   21.0170 N   0  0  0  0  0  0  0  0  0  0  0  0
  -29.3870  -15.3330   21.5120 H   0  0  0  0  0  0  0  0  0  0  0  0
  -25.2810  -13.9190   20.4330 C   0  0  0  0  0  0  0  0  0  0  0  0
  -24.2170  -13.1460   20.8100 C   0  0  0  0  0  0  0  0  0  0  0  0
  -24.6820  -11.7950   20.7870 C   0  0  0  0  0  0  0  0  0  0  0  0
  -26.3300  -13.0390   20.2080 N   0  0  0  0  0  0  0  0  0  0  0  0
  -25.9720  -11.7580   20.4790 N   0  0  0  0  0  0  0  0  0  0  0  0
  -23.9600  -10.5320   20.9870 C   0  0  0  0  0  0  0  0  0  0  0  0
  -24.3970   -9.5740   21.9270 C   0  0  0  0  0  3  0  0  0  0  0  0
  -23.6770   -8.3750   22.1160 C   0  0  0  0  0  3  0  0  0  0  0  0
  -22.5050   -8.1240   21.3630 C   0  0  0  0  0  0  0  0  0  0  0  0
  -22.0870   -9.0710   20.4110 C   0  0  0  0  0  3  0  0  0  0  0  0
  -22.8080  -10.2620   20.2210 C   0  0  0  0  0  3  0  0  0  0  0  0
  -21.7550   -6.9760   21.4610 O   0  0  0  0  0  0  0  0  0  0  0  0
  -21.7070   -6.2440   22.6180 C   0  0  0  0  0  0  0  0  0  0  0  0
  -21.2670   -6.8040   23.8380 C   0  0  0  0  0  3  0  0  0  0  0  0
  -21.1680   -5.9970   24.9880 C   0  0  0  0  0  3  0  0  0  0  0  0
  -21.5010   -4.6300   24.9220 C   0  0  0  0  0  0  0  0  0  0  0  0
  -21.9340   -4.0690   23.7070 C   0  0  0  0  0  3  0  0  0  0  0  0
  -22.0360   -4.8750   22.5590 C   0  0  0  0  0  0  0  0  0  0  0  0
  -22.4330   -4.3260   21.3860 F   0  0  0  0  0  0  0  0  0  0  0  0
  -21.3980   -3.8520   26.0230 F   0  0  0  0  0  0  0  0  0  0  0  0
  -22.8200  -13.6200   21.0820 C   0  0  0  0  0  0  0  0  0  0  0  0
  -22.0950  -12.9240   21.9540 N   0  0  0  0  0  0  0  0  0  0  0  0
  -22.3760  -14.6400   20.5570 O   0  0  0  0  0  0  0  0  0  0  0  0
  -22.4680  -12.0990   22.3990 H   0  0  0  0  0  0  0  0  0  0  0  0
  -21.1570  -13.2220   22.1780 H   0  0  0  0  0  0  0  0  0  0  0  0
  -25.4440  -15.2880   20.2430 N   0  0  0  0  0  0  0  0  0  0  0  0
  -24.6820  -15.9500   20.3450 H   0  0  0  0  0  0  0  0  0  0  0  0
  -26.3010  -15.7200   19.9140 H   0  0  0  0  0  0  0  0  0  0  0  0
  1 48  1  0
  2  1  2  0
  3  1  1  0
  4  6  1  0
  4  3  1  0
  6  5  1  0
  7  6  1  0
  8 19  2  0
  9  7  1  0
  9 14  1  0
 10 18  1  0
 10 20  1  0
 11 17  1  0
 11 13  1  0
 12 18  1  0
 13 12  1  0
 14 13  2  0
 15 16  1  0
 15  9  2  0
 16 11  2  0
 17 10  1  0
 18  8  1  0
 20 22  2  0
 21 20  1  0
 23 21  1  0
 24 33  2  0
 24 29  1  0
 25 21  1  0
 25 29  1  0
 26 25  1  0
 27 28  1  0
 27 26  1  0
 28 24  1  0
 29 30  2  0
 30 31  1  0
 32 31  2  0
 33 32  1  0
 34  8  1  0
 34 35  1  0
 34 44  1  0
 35 38  1  0
 36 40  1  0
 36 35  1  0
 37 36  2  0
 40 39  1  0
 42 40  1  0
 42 43  1  0
 42 41  1  0
 44 47  1  1
 44 45  1  0
 46 44  1  0
 48 49  1  0
 50 49  1  0
 52 55  1  0
 52 53  2  0
 53 51  1  0
 54 51  2  0
 54 49  1  0
 55 54  1  0
 56 64  1  0
 57 62  1  0
 58 59  1  0
 58 57  1  0
 60 59  1  0
 60 69  1  0
 60 61  1  0
 62 56  1  0
 62 61  1  0
 63 56  2  0
 64 53  1  0
 64 65  1  0
 66 67  2  0
 67 86  1  0
 68 67  1  0
 68 71  1  0
 69 66  1  0
 69 70  1  0
 70 68  2  0
 71 72  1  0
 72 73  2  0
 74 77  1  0
 74 73  1  0
 75 74  2  0
 76 75  1  0
 76 71  2  0
 77 78  1  0
 78 79  1  0
 79 80  2  0
 81 80  1  0
 81 85  1  0
 82 81  2  0
 83 78  2  0
 83 82  1  0
 84 83  1  0
 86 87  1  0
 87 90  1  0
 87 89  1  0
 88 86  2  0
 91 92  1  0
 91 66  1  0
 93 91  1  0
M  ISO  4   6 101   7 101  56 100  64 100
M  END
>  <TORSDO>  (64) 
F 22

>  <SCORE>  (64) 
-13.186

>  <name>  (64) 
63

>  <ligand_id>  (64) 
63

>  <original_smiles>  (64) 
[H]c1sc(N([H])C([H])([H])C(=O)C([H])([H])C([H])([H])C([H])(Oc2c([H])c([H])c3c(c2[H])C([H])([H])N(C(=O)C([H])(N([H])C(=O)C([H])(N([H])C([H])([H])[H])C([H])([H])[H])C(C([H])([H])[H])(C([H])([H])[H])C([H])([H])[H])C([H])(C(=O)N([H])C2([H])c4c([H])c([H])c([H])c([H])c4C([H])([H])C([H])([H])C2([H])[H])C3([H])[H])C([H])([H])[H])c([H])c1N([H])C(=O)N1C([H])([H])C([H])([H])C([H])([H])C([H])(n2nc(-c3c([H])c([H])c(Oc4c([H])c([H])c(F)c([H])c4F)c([H])c3[H])c(C(=O)N([H])[H])c2N([H])[H])C1([H])[H]

>  <smiles>  (64) 
[H]c1sc(N([H])C([H])([H])C(=O)C([H])([H])C([H])([H])C([H])(Oc2c([H])c([H])c3c(c2[H])C([H])([H])N(C(=O)C([H])(N([H])C(=O)C([H])(N([H])C([H])([H])[H])C([H])([H])[H])C(C([H])([H])[H])(C([H])([H])[H])C([H])([H])[H])C([H])(C(=O)N([H])C2([H])c4c([H])c([H])c([H])c([H])c4C([H])([H])C([H])([H])C2([H])[H])C3([H])[H])C([H])([H])[H])c([H])c1N([H])C(=O)N1C([H])([H])C([H])([H])C([H])([H])C([H])(n2nc(-c3c([H])c([H])c(Oc4c([H])c([H])c(F)c([H])c4F)c([H])c3[H])c(C(=O)N([H])[H])c2N([H])[H])C1([H])[H]

$$$$
64:0:0
     RDKit          3D

104112  0  0  1  0  0  0  0  0999 V2000
  -28.0080  -22.6720   21.0210 C   0  0  0  0  0  3  0  0  0  0  0  0
  -26.9780  -21.6710   20.6720 N   0  0  0  0  0  4  0  0  0  0  0  0
  -27.0980  -20.8290   21.2040 H   0  0  0  0  0  0  0  0  0  0  0  0
  -27.0390  -21.4770   19.6850 H   0  0  0  0  0  0  0  0  0  0  0  0
  -26.0590  -22.0400   20.8440 H   0  0  0  0  0  0  0  0  0  0  0  0
  -30.4940  -22.9960   21.6420 C   0  0  0  0  0  1  0  0  0  0  0  0
  -29.4180  -20.8670   22.1410 C   0  0  0  0  0  1  0  0  0  0  0  0
  -29.4460  -22.0070   21.0820 C   0  0  1  0  0  0  0  0  0  0  0  0
  -29.9210  -21.3360   19.7460 C   0  0  0  0  0  2  0  0  0  0  0  0
  -30.6540  -22.1570   18.6580 C   0  0  0  0  0  0  0  0  0  0  0  0
  -31.4360  -23.0650   18.9430 O   0  0  0  0  0  0  0  0  0  0  0  0
  -30.4740  -21.7240   17.1880 C   0  0  0  0  0  2  0  0  0  0  0  0
  -31.1350  -20.4630   16.8580 N   0  0  0  0  0  0  0  0  0  0  0  0
  -31.3680  -20.3820   15.8720 H   0  0  0  0  0  0  0  0  0  0  0  0
  -29.0220  -17.6800   17.9820 C   0  0  0  0  0  3  0  0  0  0  0  0
  -29.3610  -18.7330   17.0890 C   0  0  0  0  0  3  0  0  0  0  0  0
  -30.0080  -17.4150   18.8990 C   0  0  0  0  0  0  0  0  0  0  0  0
  -30.5640  -19.3190   17.3950 C   0  0  0  0  0  0  0  0  0  0  0  0
  -31.3420  -18.5310   18.7330 S   0  0  0  0  0  0  0  0  0  0  0  0
  -30.8770  -15.3850   19.6190 C   0  0  0  0  0  0  0  0  0  0  0  0
  -30.9000  -12.9560   19.3160 C   0  0  0  0  0  2  0  0  0  0  0  0
  -29.9900  -12.5940   18.1260 C   0  0  0  0  0  2  0  0  0  0  0  0
  -28.5250  -12.4330   18.5820 C   0  0  0  0  0  2  0  0  0  0  0  0
  -28.0310  -13.6160   19.4570 C   0  0  0  0  0  3  0  0  0  0  0  0
  -29.0550  -13.9340   20.5710 C   0  0  0  0  0  2  0  0  0  0  0  0
  -30.3650  -14.1750   19.9350 N   0  0  0  0  0  0  0  0  0  0  0  0
  -31.9790  -15.5420   19.0840 O   0  0  0  0  0  0  0  0  0  0  0  0
  -30.0250  -16.4010   19.7850 N   0  0  0  0  0  0  0  0  0  0  0  0
  -29.1430  -16.1400   20.2030 H   0  0  0  0  0  0  0  0  0  0  0  0
  -25.6980  -14.2460   20.3470 C   0  0  0  0  0  0  0  0  0  0  0  0
  -24.6370  -13.4790   20.7490 C   0  0  0  0  0  0  0  0  0  0  0  0
  -25.0630  -12.1220   20.6230 C   0  0  0  0  0  0  0  0  0  0  0  0
  -26.7040  -13.3540   20.0050 N   0  0  0  0  0  0  0  0  0  0  0  0
  -26.3280  -12.0690   20.2280 N   0  0  0  0  0  0  0  0  0  0  0  0
  -24.3210  -10.8690   20.8050 C   0  0  0  0  0  0  0  0  0  0  0  0
  -24.7000   -9.9250   21.7850 C   0  0  0  0  0  3  0  0  0  0  0  0
  -23.9610   -8.7330   21.9520 C   0  0  0  0  0  3  0  0  0  0  0  0
  -22.8330   -8.4770   21.1370 C   0  0  0  0  0  0  0  0  0  0  0  0
  -22.4740   -9.4120   20.1500 C   0  0  0  0  0  3  0  0  0  0  0  0
  -23.2120  -10.5950   19.9810 C   0  0  0  0  0  3  0  0  0  0  0  0
  -22.0700   -7.3370   21.2120 O   0  0  0  0  0  0  0  0  0  0  0  0
  -21.8280   -6.7090   22.4080 C   0  0  0  0  0  0  0  0  0  0  0  0
  -21.1830   -7.3690   23.4760 C   0  0  0  0  0  3  0  0  0  0  0  0
  -20.8880   -6.6660   24.6620 C   0  0  0  0  0  3  0  0  0  0  0  0
  -21.2300   -5.3050   24.7790 C   0  0  0  0  0  0  0  0  0  0  0  0
  -21.8680   -4.6470   23.7140 C   0  0  0  0  0  3  0  0  0  0  0  0
  -22.1640   -5.3460   22.5310 C   0  0  0  0  0  0  0  0  0  0  0  0
  -22.7590   -4.7000   21.5000 F   0  0  0  0  0  0  0  0  0  0  0  0
  -20.9400   -4.6270   25.9140 F   0  0  0  0  0  0  0  0  0  0  0  0
  -23.2750  -13.9710   21.1380 C   0  0  0  0  0  0  0  0  0  0  0  0
  -22.5970  -13.2560   22.0300 N   0  0  0  0  0  0  0  0  0  0  0  0
  -22.8220  -15.0240   20.6910 O   0  0  0  0  0  0  0  0  0  0  0  0
  -22.9820  -12.4070   22.4180 H   0  0  0  0  0  0  0  0  0  0  0  0
  -21.6860  -13.5680   22.3360 H   0  0  0  0  0  0  0  0  0  0  0  0
  -25.8800  -15.6200   20.2290 N   0  0  0  0  0  0  0  0  0  0  0  0
  -26.6960  -16.0650   19.8300 H   0  0  0  0  0  0  0  0  0  0  0  0
  -25.1420  -16.2770   20.4540 H   0  0  0  0  0  0  0  0  0  0  0  0
  -27.7890  -23.7900   19.9610 C   0  0  0  0  0  0  0  0  0  0  0  0
  -27.4610  -23.4560   18.8190 O   0  0  0  0  0  0  0  0  0  0  0  0
  -29.3470  -25.6610   20.7750 C   0  0  0  0  0  1  0  0  0  0  0  0
  -26.9260  -25.6790   21.4240 C   0  0  0  0  0  1  0  0  0  0  0  0
  -27.9220  -25.3100   20.2950 C   0  0  2  0  0  0  0  0  0  0  0  0
  -27.6630  -26.1060   18.9630 C   0  0  0  0  0  2  0  0  0  0  0  0
  -27.7470  -27.5350   19.0440 O   0  0  0  0  0  0  0  0  0  0  0  0
  -24.5210  -32.1210   23.3520 C   0  0  0  0  0  0  0  0  0  0  0  0
  -26.5900  -28.2480   19.2560 C   0  0  0  0  0  0  0  0  0  0  0  0
  -23.0590  -30.9770   21.7220 C   0  0  0  0  0  3  0  0  0  0  0  0
  -24.2510  -29.7060   19.8660 C   0  0  0  0  0  0  0  0  0  0  0  0
  -25.5300  -31.3860   21.1970 C   0  0  0  0  0  2  0  0  0  0  0  0
  -25.4910  -30.1400   20.3470 C   0  0  0  0  0  0  0  0  0  0  0  0
  -26.6630  -29.4140   20.0450 C   0  0  0  0  0  3  0  0  0  0  0  0
  -25.3310  -27.8450   18.7480 C   0  0  0  0  0  3  0  0  0  0  0  0
  -24.1640  -28.5580   19.0640 C   0  0  0  0  0  3  0  0  0  0  0  0
  -23.0420  -30.5310   20.2380 C   0  0  0  0  0  2  0  0  0  0  0  0
  -24.3970  -31.5000   22.1460 N   0  0  0  0  0  0  0  0  0  0  0  0
  -23.5380  -32.2970   24.0860 O   0  0  0  0  0  0  0  0  0  0  0  0
  -22.5530  -29.8090   22.5980 C   0  0  0  0  0  0  0  0  0  0  0  0
  -21.2440  -29.5220   22.5140 N   0  0  0  0  0  0  0  0  0  0  0  0
  -23.3310  -29.1710   23.3130 O   0  0  0  0  0  0  0  0  0  0  0  0
  -20.6720  -30.0970   21.9110 H   0  0  0  0  0  0  0  0  0  0  0  0
  -18.0580  -27.8570   22.8700 C   0  0  0  0  0  0  0  0  0  0  0  0
  -20.5500  -28.4460   23.2220 C   0  0  0  0  0  3  0  0  0  0  0  0
  -20.8610  -27.0710   22.5880 C   0  0  0  0  0  2  0  0  0  0  0  0
  -19.8340  -26.6490   21.5330 C   0  0  0  0  0  2  0  0  0  0  0  0
  -18.4320  -26.5750   22.1460 C   0  0  0  0  0  2  0  0  0  0  0  0
  -19.0520  -28.7430   23.3620 C   0  0  0  0  0  0  0  0  0  0  0  0
  -18.6490  -29.9390   23.9970 C   0  0  0  0  0  3  0  0  0  0  0  0
  -17.2830  -30.2480   24.1480 C   0  0  0  0  0  3  0  0  0  0  0  0
  -16.3030  -29.3590   23.6700 C   0  0  0  0  0  3  0  0  0  0  0  0
  -16.6920  -28.1660   23.0360 C   0  0  0  0  0  3  0  0  0  0  0  0
  -25.8960  -32.6620   23.8520 C   0  0  0  0  0  3  0  0  0  0  0  0
  -26.5260  -31.7890   25.0060 C   0  0  1  0  0  0  0  0  0  0  0  0
  -25.5550  -31.5090   26.1780 C   0  0  0  0  0  1  0  0  0  0  0  0
  -27.0050  -30.4240   24.4560 C   0  0  0  0  0  1  0  0  0  0  0  0
  -27.7750  -32.4980   25.5770 C   0  0  0  0  0  1  0  0  0  0  0  0
  -25.6880  -34.0460   24.2960 N   0  0  0  0  0  0  0  0  0  0  0  0
  -26.0110  -35.1310   23.5810 C   0  0  0  0  0  0  0  0  0  0  0  0
  -26.5900  -35.0680   22.4930 O   0  0  0  0  0  0  0  0  0  0  0  0
  -25.1610  -34.1700   25.1490 H   0  0  0  0  0  0  0  0  0  0  0  0
  -24.3560  -37.0250   23.4870 C   0  0  0  0  0  1  0  0  0  0  0  0
  -25.6320  -36.5050   24.1660 C   0  0  0  0  0  3  0  0  0  0  0  0
  -27.8670  -37.2330   24.8790 C   0  0  0  0  0  1  0  0  0  0  0  0
  -26.7060  -37.5140   24.0400 N   0  0  0  0  0  0  0  0  0  0  0  0
  -26.3590  -38.4400   24.2780 H   0  0  0  0  0  0  0  0  0  0  0  0
  1 58  1  0
  1  8  1  0
  2  5  1  0
  2  1  1  0
  2  3  1  0
  4  2  1  0
  8  6  1  1
  8  7  1  0
  9  8  1  0
 10 11  2  0
 10  9  1  0
 12 10  1  0
 13 12  1  0
 13 18  1  0
 14 13  1  0
 15 17  2  0
 16 18  2  0
 16 15  1  0
 17 28  1  0
 18 19  1  0
 19 17  1  0
 20 28  1  0
 20 26  1  0
 21 26  1  0
 22 23  1  0
 22 21  1  0
 24 23  1  0
 24 33  1  0
 24 25  1  0
 26 25  1  0
 27 20  2  0
 28 29  1  0
 30 31  2  0
 31 50  1  0
 32 31  1  0
 32 35  1  0
 33 34  1  0
 33 30  1  0
 34 32  2  0
 35 36  1  0
 36 37  2  0
 38 41  1  0
 38 37  1  0
 39 38  2  0
 40 39  1  0
 40 35  2  0
 41 42  1  0
 42 47  2  0
 42 43  1  0
 43 44  2  0
 44 45  1  0
 45 49  1  0
 46 45  2  0
 47 46  1  0
 48 47  1  0
 50 51  1  0
 51 54  1  0
 51 53  1  0
 52 50  2  0
 55 30  1  0
 55 57  1  0
 56 55  1  0
 58 62  1  0
 59 58  2  0
 62 60  1  1
 62 61  1  0
 63 64  1  0
 63 62  1  0
 64 66  1  0
 65 76  2  0
 66 71  1  0
 67 75  1  0
 67 77  1  0
 68 74  1  0
 68 70  1  0
 69 75  1  0
 70 69  1  0
 71 70  2  0
 72 73  1  0
 72 66  2  0
 73 68  2  0
 74 67  1  0
 75 65  1  0
 77 79  2  0
 78 77  1  0
 80 78  1  0
 81 90  2  0
 81 86  1  0
 82 78  1  0
 82 86  1  0
 83 82  1  0
 84 85  1  0
 84 83  1  0
 85 81  1  0
 86 87  2  0
 87 88  1  0
 89 88  2  0
 90 89  1  0
 91 65  1  0
 91 96  1  0
 91 92  1  0
 92 95  1  1
 92 93  1  0
 94 92  1  0
 96 99  1  0
 97101  1  0
 97 96  1  0
 98 97  2  0
101100  1  0
103101  1  0
103104  1  0
103102  1  0
M  ISO  4  20 100  28 100  63 101  64 101
M  END
>  <TORSDO>  (65) 
F 26

>  <SCORE>  (65) 
-10.411

>  <name>  (65) 
64

>  <ligand_id>  (65) 
64

>  <original_smiles>  (65) 
[H]c1c(N([H])C(=O)N2C([H])([H])C([H])([H])C([H])([H])C([H])(n3nc(-c4c([H])c([H])c(Oc5c([H])c([H])c(F)c([H])c5F)c([H])c4[H])c(C(=O)N([H])[H])c3N([H])[H])C2([H])[H])sc(N([H])C([H])([H])C(=O)C([H])([H])C(C([H])([H])[H])(C([H])([H])[H])C([H])(C(=O)C(C([H])([H])[H])(C([H])([H])[H])C([H])([H])Oc2c([H])c([H])c3c(c2[H])C([H])([H])N(C(=O)C([H])(N([H])C(=O)C([H])(N([H])C([H])([H])[H])C([H])([H])[H])C(C([H])([H])[H])(C([H])([H])[H])C([H])([H])[H])C([H])(C(=O)N([H])C2([H])c4c([H])c([H])c([H])c([H])c4C([H])([H])C([H])([H])C2([H])[H])C3([H])[H])[N+]([H])([H])[H])c1[H]

>  <smiles>  (65) 
[H]c1c(N([H])C(=O)N2C([H])([H])C([H])([H])C([H])([H])C([H])(n3nc(-c4c([H])c([H])c(Oc5c([H])c([H])c(F)c([H])c5F)c([H])c4[H])c(C(=O)N([H])[H])c3N([H])[H])C2([H])[H])sc(N([H])C([H])([H])C(=O)C([H])([H])C(C([H])([H])[H])(C([H])([H])[H])C([H])(C(=O)C(C([H])([H])[H])(C([H])([H])[H])C([H])([H])Oc2c([H])c([H])c3c(c2[H])C([H])([H])N(C(=O)C([H])(N([H])C(=O)C([H])(N([H])C([H])([H])[H])C([H])([H])[H])C(C([H])([H])[H])(C([H])([H])[H])C([H])([H])[H])C([H])(C(=O)N([H])C2([H])c4c([H])c([H])c([H])c([H])c4C([H])([H])C([H])([H])C2([H])[H])C3([H])[H])[N+]([H])([H])[H])c1[H]

$$$$
65:0:0
     RDKit          3D

102110  0  0  1  0  0  0  0  0999 V2000
  -32.8950  -21.0620   19.5160 C   0  0  0  0  0  1  0  0  0  0  0  0
  -31.4620  -21.6320   19.5620 C   0  0  2  0  0  0  0  0  0  0  0  0
  -30.8650  -21.6850   18.1210 C   0  0  0  0  0  0  0  0  0  0  0  0
  -30.6760  -20.6530   17.4670 O   0  0  0  0  0  0  0  0  0  0  0  0
  -30.6030  -23.0470   17.4600 C   0  0  0  0  0  2  0  0  0  0  0  0
  -28.1380  -22.8160   18.3390 C   0  0  0  0  0  1  0  0  0  0  0  0
  -28.6460  -24.0860   16.2730 C   0  0  0  0  0  1  0  0  0  0  0  0
  -29.2050  -23.7240   17.6690 C   0  0  2  0  0  0  0  0  0  0  0  0
  -29.4220  -25.0650   18.4160 C   0  0  0  0  0  0  0  0  0  0  0  0
  -30.1760  -25.9200   17.9370 O   0  0  0  0  0  0  0  0  0  0  0  0
  -28.7290  -25.3240   19.7610 C   0  0  0  0  0  2  0  0  0  0  0  0
  -28.6220  -26.7310   19.9830 O   0  0  0  0  0  0  0  0  0  0  0  0
  -24.6280  -31.6710   23.0710 C   0  0  0  0  0  0  0  0  0  0  0  0
  -27.3890  -27.3470   19.9500 C   0  0  0  0  0  0  0  0  0  0  0  0
  -23.4480  -30.2630   21.4090 C   0  0  0  0  0  3  0  0  0  0  0  0
  -24.9350  -28.7590   19.9760 C   0  0  0  0  0  0  0  0  0  0  0  0
  -25.9590  -30.6810   21.2090 C   0  0  0  0  0  2  0  0  0  0  0  0
  -26.0730  -29.3170   20.5680 C   0  0  0  0  0  0  0  0  0  0  0  0
  -27.2930  -28.6120   20.5590 C   0  0  0  0  0  3  0  0  0  0  0  0
  -26.2350  -26.7960   19.3360 C   0  0  0  0  0  3  0  0  0  0  0  0
  -25.0090  -27.4950   19.3610 C   0  0  0  0  0  3  0  0  0  0  0  0
  -23.6700  -29.5870   20.0270 C   0  0  0  0  0  2  0  0  0  0  0  0
  -24.6960  -30.8900   21.9530 N   0  0  0  0  0  0  0  0  0  0  0  0
  -23.5440  -31.9170   23.6160 O   0  0  0  0  0  0  0  0  0  0  0  0
  -22.8210  -29.2230   22.3620 C   0  0  0  0  0  0  0  0  0  0  0  0
  -21.5020  -29.0170   22.2290 N   0  0  0  0  0  0  0  0  0  0  0  0
  -23.5180  -28.6020   23.1670 O   0  0  0  0  0  0  0  0  0  0  0  0
  -21.0050  -29.5750   21.5500 H   0  0  0  0  0  0  0  0  0  0  0  0
  -18.1540  -27.7520   22.7170 C   0  0  0  0  0  0  0  0  0  0  0  0
  -20.7070  -28.0510   22.9830 C   0  0  0  0  0  3  0  0  0  0  0  0
  -20.8330  -26.6320   22.3830 C   0  0  0  0  0  2  0  0  0  0  0  0
  -19.7340  -26.3050   21.3670 C   0  0  0  0  0  2  0  0  0  0  0  0
  -18.3530  -26.4160   22.0200 C   0  0  0  0  0  2  0  0  0  0  0  0
  -19.2600  -28.5270   23.1560 C   0  0  0  0  0  0  0  0  0  0  0  0
  -19.0210  -29.7770   23.7660 C   0  0  0  0  0  3  0  0  0  0  0  0
  -17.7100  -30.2530   23.9440 C   0  0  0  0  0  3  0  0  0  0  0  0
  -16.6180  -29.4760   23.5200 C   0  0  0  0  0  3  0  0  0  0  0  0
  -16.8410  -28.2270   22.9110 C   0  0  0  0  0  3  0  0  0  0  0  0
  -25.9050  -32.3190   23.6950 C   0  0  0  0  0  3  0  0  0  0  0  0
  -26.4670  -31.5170   24.9350 C   0  0  1  0  0  0  0  0  0  0  0  0
  -25.4010  -31.2070   26.0110 C   0  0  0  0  0  1  0  0  0  0  0  0
  -27.0800  -30.1730   24.4740 C   0  0  0  0  0  1  0  0  0  0  0  0
  -27.5980  -32.3270   25.6130 C   0  0  0  0  0  1  0  0  0  0  0  0
  -25.5590  -33.6940   24.0760 N   0  0  0  0  0  0  0  0  0  0  0  0
  -25.8480  -34.7810   23.3480 C   0  0  0  0  0  0  0  0  0  0  0  0
  -26.5090  -34.7320   22.3080 O   0  0  0  0  0  0  0  0  0  0  0  0
  -24.9750  -33.8030   24.8910 H   0  0  0  0  0  0  0  0  0  0  0  0
  -24.0560  -36.5270   23.0830 C   0  0  0  0  0  1  0  0  0  0  0  0
  -25.3240  -36.1350   23.8580 C   0  0  0  0  0  3  0  0  0  0  0  0
  -27.4420  -37.0690   24.6810 C   0  0  0  0  0  1  0  0  0  0  0  0
  -26.3170  -37.2250   23.7640 N   0  0  0  0  0  0  0  0  0  0  0  0
  -25.8800  -38.1250   23.9460 H   0  0  0  0  0  0  0  0  0  0  0  0
  -31.5750  -22.9270   20.1180 O   0  0  0  0  0  0  0  0  0  0  0  0
  -32.3370  -23.3350   19.7240 H   0  0  0  0  0  0  0  0  0  0  0  0
  -30.6160  -20.8200   20.5790 C   0  0  0  0  0  2  0  0  0  0  0  0
  -30.6190  -19.3990   20.2730 N   0  0  0  0  0  0  0  0  0  0  0  0
  -31.1550  -19.1620   19.4420 H   0  0  0  0  0  0  0  0  0  0  0  0
  -30.9910  -17.1470   20.8950 C   0  0  0  0  0  3  0  0  0  0  0  0
  -30.9130  -16.4140   23.2110 C   0  0  0  0  0  3  0  0  0  0  0  0
  -30.5070  -18.7570   22.6600 C   0  0  0  0  0  3  0  0  0  0  0  0
  -31.1070  -16.1130   21.8430 C   0  0  0  0  0  0  0  0  0  0  0  0
  -30.6990  -18.4610   21.2930 C   0  0  0  0  0  0  0  0  0  0  0  0
  -30.6210  -17.7300   23.6170 C   0  0  0  0  0  0  0  0  0  0  0  0
  -30.4420  -18.0110   24.9300 F   0  0  0  0  0  0  0  0  0  0  0  0
  -31.6390  -14.3120   20.2350 C   0  0  0  0  0  0  0  0  0  0  0  0
  -31.0520  -12.4940   18.6700 C   0  0  0  0  0  2  0  0  0  0  0  0
  -30.0600  -12.9510   17.5800 C   0  0  0  0  0  2  0  0  0  0  0  0
  -28.6060  -12.8820   18.0830 C   0  0  0  0  0  2  0  0  0  0  0  0
  -28.4260  -13.5780   19.4550 C   0  0  0  0  0  3  0  0  0  0  0  0
  -29.4830  -13.0570   20.4530 C   0  0  0  0  0  2  0  0  0  0  0  0
  -30.8290  -13.2850   19.8840 N   0  0  0  0  0  0  0  0  0  0  0  0
  -32.6040  -14.6920   19.5570 O   0  0  0  0  0  0  0  0  0  0  0  0
  -31.3870  -14.7730   21.4700 N   0  0  0  0  0  0  0  0  0  0  0  0
  -30.9100  -14.0910   22.0410 H   0  0  0  0  0  0  0  0  0  0  0  0
  -26.0910  -14.3380   20.2370 C   0  0  0  0  0  0  0  0  0  0  0  0
  -24.9870  -13.6300   20.6410 C   0  0  0  0  0  0  0  0  0  0  0  0
  -25.3650  -12.2550   20.5940 C   0  0  0  0  0  0  0  0  0  0  0  0
  -27.0700  -13.3930   19.9710 N   0  0  0  0  0  0  0  0  0  0  0  0
  -26.6370  -12.1350   20.2390 N   0  0  0  0  0  0  0  0  0  0  0  0
  -24.5710  -11.0350   20.8050 C   0  0  0  0  0  0  0  0  0  0  0  0
  -24.9450  -10.0640   21.7620 C   0  0  0  0  0  3  0  0  0  0  0  0
  -24.1560   -8.9110   21.9570 C   0  0  0  0  0  3  0  0  0  0  0  0
  -22.9810   -8.7190   21.1940 C   0  0  0  0  0  0  0  0  0  0  0  0
  -22.6240   -9.6750   20.2280 C   0  0  0  0  0  3  0  0  0  0  0  0
  -23.4130  -10.8200   20.0290 C   0  0  0  0  0  3  0  0  0  0  0  0
  -22.1690   -7.6150   21.2970 O   0  0  0  0  0  0  0  0  0  0  0  0
  -22.0180   -6.9410   22.4830 C   0  0  0  0  0  0  0  0  0  0  0  0
  -21.5990   -7.5930   23.6620 C   0  0  0  0  0  3  0  0  0  0  0  0
  -21.3900   -6.8490   24.8420 C   0  0  0  0  0  3  0  0  0  0  0  0
  -21.5920   -5.4550   24.8420 C   0  0  0  0  0  0  0  0  0  0  0  0
  -22.0040   -4.8030   23.6660 C   0  0  0  0  0  3  0  0  0  0  0  0
  -22.2140   -5.5460   22.4890 C   0  0  0  0  0  0  0  0  0  0  0  0
  -22.5910   -4.9090   21.3550 F   0  0  0  0  0  0  0  0  0  0  0  0
  -21.3850   -4.7410   25.9720 F   0  0  0  0  0  0  0  0  0  0  0  0
  -23.6310  -14.1880   20.9640 C   0  0  0  0  0  0  0  0  0  0  0  0
  -22.9070  -13.5500   21.8790 N   0  0  0  0  0  0  0  0  0  0  0  0
  -23.2240  -15.2240   20.4440 O   0  0  0  0  0  0  0  0  0  0  0  0
  -23.2470  -12.7070   22.3180 H   0  0  0  0  0  0  0  0  0  0  0  0
  -22.0010  -13.9090   22.1440 H   0  0  0  0  0  0  0  0  0  0  0  0
  -26.3380  -15.6940   20.0580 N   0  0  0  0  0  0  0  0  0  0  0  0
  -25.6340  -16.4080   20.2120 H   0  0  0  0  0  0  0  0  0  0  0  0
  -27.2140  -16.0710   19.7180 H   0  0  0  0  0  0  0  0  0  0  0  0
  2  1  1  6
  2 53  1  0
  2 55  1  0
  3  2  1  0
  4  3  2  0
  5  8  1  0
  5  3  1  0
  8  7  1  6
  8  6  1  0
  8  9  1  0
  9 11  1  0
 10  9  2  0
 11 12  1  0
 13 24  2  0
 14 12  1  0
 14 19  1  0
 15 23  1  0
 15 25  1  0
 16 22  1  0
 16 18  1  0
 17 23  1  0
 18 17  1  0
 19 18  2  0
 20 21  1  0
 20 14  2  0
 21 16  2  0
 22 15  1  0
 23 13  1  0
 25 27  2  0
 26 25  1  0
 28 26  1  0
 29 38  2  0
 29 34  1  0
 30 26  1  0
 30 34  1  0
 31 30  1  0
 32 33  1  0
 32 31  1  0
 33 29  1  0
 34 35  2  0
 35 36  1  0
 37 36  2  0
 38 37  1  0
 39 13  1  0
 39 44  1  0
 39 40  1  0
 40 43  1  1
 40 41  1  0
 42 40  1  0
 44 47  1  0
 45 49  1  0
 45 44  1  0
 46 45  2  0
 49 48  1  0
 51 49  1  0
 51 52  1  0
 51 50  1  0
 54 53  1  0
 56 55  1  0
 56 62  1  0
 57 56  1  0
 58 62  2  0
 58 61  1  0
 59 63  1  0
 60 63  2  0
 61 59  2  0
 62 60  1  0
 63 64  1  0
 65 73  1  0
 66 71  1  0
 67 68  1  0
 67 66  1  0
 69 68  1  0
 69 78  1  0
 69 70  1  0
 71 65  1  0
 71 70  1  0
 72 65  2  0
 73 61  1  0
 73 74  1  0
 75 76  2  0
 76 95  1  0
 77 76  1  0
 77 80  1  0
 78 75  1  0
 78 79  1  0
 79 77  2  0
 80 81  1  0
 81 82  2  0
 83 86  1  0
 83 82  1  0
 84 83  2  0
 85 84  1  0
 85 80  2  0
 86 87  1  0
 87 92  2  0
 87 88  1  0
 88 89  2  0
 90 89  1  0
 90 94  1  0
 91 90  2  0
 92 91  1  0
 93 92  1  0
 95 96  1  0
 96 99  1  0
 96 98  1  0
 97 95  2  0
100101  1  0
100 75  1  0
102100  1  0
M  ISO  4  11 101  12 101  65 100  73 100
M  END
>  <TORSDO>  (66) 
F 25

>  <SCORE>  (66) 
-8.958

>  <name>  (66) 
65

>  <ligand_id>  (66) 
65

>  <original_smiles>  (66) 
[H]OC(C(=O)C([H])([H])C(C(=O)C([H])([H])Oc1c([H])c([H])c2c(c1[H])C([H])([H])N(C(=O)C([H])(N([H])C(=O)C([H])(N([H])C([H])([H])[H])C([H])([H])[H])C(C([H])([H])[H])(C([H])([H])[H])C([H])([H])[H])C([H])(C(=O)N([H])C1([H])c3c([H])c([H])c([H])c([H])c3C([H])([H])C([H])([H])C1([H])[H])C2([H])[H])(C([H])([H])[H])C([H])([H])[H])(C([H])([H])[H])C([H])([H])N([H])c1c([H])c(F)c([H])c(N([H])C(=O)N2C([H])([H])C([H])([H])C([H])([H])C([H])(n3nc(-c4c([H])c([H])c(Oc5c([H])c([H])c(F)c([H])c5F)c([H])c4[H])c(C(=O)N([H])[H])c3N([H])[H])C2([H])[H])c1[H]

>  <smiles>  (66) 
[H]OC(C(=O)C([H])([H])C(C(=O)C([H])([H])Oc1c([H])c([H])c2c(c1[H])C([H])([H])N(C(=O)C([H])(N([H])C(=O)C([H])(N([H])C([H])([H])[H])C([H])([H])[H])C(C([H])([H])[H])(C([H])([H])[H])C([H])([H])[H])C([H])(C(=O)N([H])C1([H])c3c([H])c([H])c([H])c([H])c3C([H])([H])C([H])([H])C1([H])[H])C2([H])[H])(C([H])([H])[H])C([H])([H])[H])(C([H])([H])[H])C([H])([H])N([H])c1c([H])c(F)c([H])c(N([H])C(=O)N2C([H])([H])C([H])([H])C([H])([H])C([H])(n3nc(-c4c([H])c([H])c(Oc5c([H])c([H])c(F)c([H])c5F)c([H])c4[H])c(C(=O)N([H])[H])c3N([H])[H])C2([H])[H])c1[H]

$$$$
66:0:0
     RDKit          3D

 96104  0  0  1  0  0  0  0  0999 V2000
  -24.8560  -20.9060   18.1950 C   0  0  0  0  0  1  0  0  0  0  0  0
  -25.7480  -21.0540   19.4560 C   0  0  1  0  0  0  0  0  0  0  0  0
  -24.0040  -22.7670   20.4460 C   0  0  0  0  0  1  0  0  0  0  0  0
  -24.7950  -21.4540   20.6290 C   0  0  0  0  0  2  0  0  0  0  0  0
  -26.3580  -19.6170   19.6220 C   0  0  0  0  0  2  0  0  0  0  0  0
  -28.5030  -19.5120   22.8710 C   0  0  0  0  0  3  0  0  0  0  0  0
  -27.6620  -20.0170   21.8570 C   0  0  0  0  0  3  0  0  0  0  0  0
  -28.9490  -18.1780   22.8380 C   0  0  0  0  0  3  0  0  0  0  0  0
  -27.7580  -17.8630   20.7440 C   0  0  0  0  0  3  0  0  0  0  0  0
  -27.2840  -19.1950   20.7720 C   0  0  0  0  0  0  0  0  0  0  0  0
  -28.5600  -17.3380   21.7800 C   0  0  0  0  0  0  0  0  0  0  0  0
  -28.9380  -15.8640   21.7870 C   0  0  0  0  0  2  0  0  0  0  0  0
  -30.7240  -14.4420   20.5740 C   0  0  0  0  0  0  0  0  0  0  0  0
  -30.4280  -12.3030   19.3920 C   0  0  0  0  0  2  0  0  0  0  0  0
  -29.4820  -12.4910   18.1870 C   0  0  0  0  0  2  0  0  0  0  0  0
  -28.0060  -12.3510   18.6130 C   0  0  0  0  0  2  0  0  0  0  0  0
  -27.6670  -13.1780   19.8810 C   0  0  0  0  0  3  0  0  0  0  0  0
  -28.7240  -12.9010   20.9790 C   0  0  0  0  0  2  0  0  0  0  0  0
  -30.0290  -13.2800   20.4230 N   0  0  0  0  0  0  0  0  0  0  0  0
  -31.8630  -14.5860   20.1330 O   0  0  0  0  0  0  0  0  0  0  0  0
  -30.0740  -15.5740   20.9160 N   0  0  0  0  0  0  0  0  0  0  0  0
  -30.6450  -16.3870   20.7440 H   0  0  0  0  0  0  0  0  0  0  0  0
  -25.2630  -13.8060   20.5660 C   0  0  0  0  0  0  0  0  0  0  0  0
  -24.1850  -13.0390   20.9180 C   0  0  0  0  0  0  0  0  0  0  0  0
  -24.6390  -11.6850   20.8790 C   0  0  0  0  0  0  0  0  0  0  0  0
  -26.3060  -12.9180   20.3430 N   0  0  0  0  0  0  0  0  0  0  0  0
  -25.9310  -11.6370   20.5860 N   0  0  0  0  0  0  0  0  0  0  0  0
  -23.9030  -10.4270   21.0450 C   0  0  0  0  0  0  0  0  0  0  0  0
  -24.3590   -9.4190   21.9220 C   0  0  0  0  0  3  0  0  0  0  0  0
  -23.6270   -8.2220   22.0770 C   0  0  0  0  0  3  0  0  0  0  0  0
  -22.4260   -8.0270   21.3550 C   0  0  0  0  0  0  0  0  0  0  0  0
  -21.9890   -9.0240   20.4650 C   0  0  0  0  0  3  0  0  0  0  0  0
  -22.7210  -10.2130   20.3070 C   0  0  0  0  0  3  0  0  0  0  0  0
  -21.6620   -6.8870   21.4240 O   0  0  0  0  0  0  0  0  0  0  0  0
  -21.6830   -6.0720   22.5280 C   0  0  0  0  0  0  0  0  0  0  0  0
  -21.4000   -6.5630   23.8220 C   0  0  0  0  0  3  0  0  0  0  0  0
  -21.3660   -5.6780   24.9180 C   0  0  0  0  0  3  0  0  0  0  0  0
  -21.6040   -4.3050   24.7230 C   0  0  0  0  0  0  0  0  0  0  0  0
  -21.8810   -3.8130   23.4360 C   0  0  0  0  0  3  0  0  0  0  0  0
  -21.9190   -4.6950   22.3410 C   0  0  0  0  0  0  0  0  0  0  0  0
  -22.1650   -4.2120   21.1000 F   0  0  0  0  0  0  0  0  0  0  0  0
  -21.5640   -3.4540   25.7760 F   0  0  0  0  0  0  0  0  0  0  0  0
  -22.7880  -13.5240   21.1820 C   0  0  0  0  0  0  0  0  0  0  0  0
  -22.0470  -12.8300   22.0380 N   0  0  0  0  0  0  0  0  0  0  0  0
  -22.3600  -14.5530   20.6630 O   0  0  0  0  0  0  0  0  0  0  0  0
  -22.4030  -11.9940   22.4810 H   0  0  0  0  0  0  0  0  0  0  0  0
  -21.1090  -13.1340   22.2530 H   0  0  0  0  0  0  0  0  0  0  0  0
  -25.4340  -15.1750   20.3980 N   0  0  0  0  0  0  0  0  0  0  0  0
  -24.6680  -15.8270   20.5230 H   0  0  0  0  0  0  0  0  0  0  0  0
  -26.2830  -15.6160   20.0760 H   0  0  0  0  0  0  0  0  0  0  0  0
  -26.8210  -22.1390   19.0900 C   0  0  0  0  0  2  0  0  0  0  0  0
  -27.4710  -22.9890   20.2140 C   0  0  0  0  0  2  0  0  0  0  0  0
  -28.1160  -24.2910   19.7120 C   0  0  0  0  0  0  0  0  0  0  0  0
  -28.4750  -24.4190   18.5360 O   0  0  0  0  0  0  0  0  0  0  0  0
  -28.3010  -25.4260   20.7330 C   0  0  0  0  0  2  0  0  0  0  0  0
  -28.3930  -26.7120   20.1000 O   0  0  0  0  0  0  0  0  0  0  0  0
  -24.6100  -31.8680   23.2100 C   0  0  0  0  0  0  0  0  0  0  0  0
  -27.2270  -27.4410   20.1100 C   0  0  0  0  0  0  0  0  0  0  0  0
  -23.3970  -30.4870   21.5520 C   0  0  0  0  0  3  0  0  0  0  0  0
  -24.8440  -28.9560   20.1200 C   0  0  0  0  0  0  0  0  0  0  0  0
  -25.9220  -30.8400   21.3610 C   0  0  0  0  0  2  0  0  0  0  0  0
  -26.0030  -29.4730   20.7130 C   0  0  0  0  0  0  0  0  0  0  0  0
  -27.1980  -28.7200   20.7100 C   0  0  0  0  0  3  0  0  0  0  0  0
  -26.0540  -26.9380   19.5070 C   0  0  0  0  0  3  0  0  0  0  0  0
  -24.8630  -27.6870   19.5160 C   0  0  0  0  0  3  0  0  0  0  0  0
  -23.6080  -29.8200   20.1660 C   0  0  0  0  0  2  0  0  0  0  0  0
  -24.6610  -31.0770   22.1010 N   0  0  0  0  0  0  0  0  0  0  0  0
  -23.5290  -32.1430   23.7490 O   0  0  0  0  0  0  0  0  0  0  0  0
  -22.7340  -29.4630   22.5000 C   0  0  0  0  0  0  0  0  0  0  0  0
  -21.4090  -29.2960   22.3720 N   0  0  0  0  0  0  0  0  0  0  0  0
  -23.4110  -28.8170   23.3060 O   0  0  0  0  0  0  0  0  0  0  0  0
  -20.9190  -29.8700   21.7010 H   0  0  0  0  0  0  0  0  0  0  0  0
  -18.0240  -28.1340   22.8470 C   0  0  0  0  0  0  0  0  0  0  0  0
  -20.5820  -28.3570   23.1290 C   0  0  0  0  0  3  0  0  0  0  0  0
  -20.6710  -26.9320   22.5310 C   0  0  0  0  0  2  0  0  0  0  0  0
  -19.5630  -26.6340   21.5160 C   0  0  0  0  0  2  0  0  0  0  0  0
  -18.1850  -26.7900   22.1630 C   0  0  0  0  0  2  0  0  0  0  0  0
  -19.1490  -28.8790   23.2860 C   0  0  0  0  0  0  0  0  0  0  0  0
  -18.9420  -30.1380   23.8910 C   0  0  0  0  0  3  0  0  0  0  0  0
  -17.6450  -30.6550   24.0550 C   0  0  0  0  0  3  0  0  0  0  0  0
  -16.5330  -29.9050   23.6320 C   0  0  0  0  0  3  0  0  0  0  0  0
  -16.7220  -28.6470   23.0330 C   0  0  0  0  0  3  0  0  0  0  0  0
  -25.9000  -32.4830   23.8380 C   0  0  0  0  0  3  0  0  0  0  0  0
  -25.5870  -33.8630   24.2330 N   0  0  0  0  0  0  0  0  0  0  0  0
  -25.9020  -34.9490   23.5130 C   0  0  0  0  0  0  0  0  0  0  0  0
  -26.5570  -34.8920   22.4680 O   0  0  0  0  0  0  0  0  0  0  0  0
  -25.0100  -33.9840   25.0520 H   0  0  0  0  0  0  0  0  0  0  0  0
  -24.1490  -36.7300   23.2640 C   0  0  0  0  0  1  0  0  0  0  0  0
  -25.4100  -36.3120   24.0350 C   0  0  0  0  0  3  0  0  0  0  0  0
  -27.5570  -37.1820   24.8470 C   0  0  0  0  0  1  0  0  0  0  0  0
  -26.4280  -37.3800   23.9420 N   0  0  0  0  0  0  0  0  0  0  0  0
  -26.0170  -38.2870   24.1440 H   0  0  0  0  0  0  0  0  0  0  0  0
  -26.4470  -31.6620   25.0700 C   0  0  1  0  0  0  0  0  0  0  0  0
  -25.3730  -31.3700   26.1430 C   0  0  0  0  0  1  0  0  0  0  0  0
  -27.0280  -30.3070   24.6040 C   0  0  0  0  0  1  0  0  0  0  0  0
  -27.6050  -32.4310   25.7480 C   0  0  0  0  0  1  0  0  0  0  0  0
  2  1  1  6
  2  5  1  0
  2  4  1  0
  3  4  1  0
  5 10  1  0
  7  6  2  0
  8  6  1  0
  9 10  2  0
  9 11  1  0
 10  7  1  0
 11 12  1  0
 11  8  2  0
 13 21  1  0
 14 19  1  0
 15 16  1  0
 15 14  1  0
 17 16  1  0
 17 26  1  0
 17 18  1  0
 19 13  1  0
 19 18  1  0
 20 13  2  0
 21 12  1  0
 22 21  1  0
 23 24  2  0
 24 43  1  0
 25 24  1  0
 25 28  1  0
 26 23  1  0
 26 27  1  0
 27 25  2  0
 28 29  1  0
 29 30  2  0
 31 34  1  0
 31 30  1  0
 32 31  2  0
 33 32  1  0
 33 28  2  0
 34 35  1  0
 35 36  1  0
 36 37  2  0
 38 37  1  0
 38 42  1  0
 39 38  2  0
 40 35  2  0
 40 39  1  0
 41 40  1  0
 43 44  1  0
 44 47  1  0
 44 46  1  0
 45 43  2  0
 48 49  1  0
 48 23  1  0
 50 48  1  0
 51  2  1  0
 51 52  1  0
 53 52  1  0
 53 55  1  0
 54 53  2  0
 56 58  1  0
 56 55  1  0
 57 68  2  0
 58 63  1  0
 59 67  1  0
 59 69  1  0
 60 66  1  0
 60 62  1  0
 61 67  1  0
 62 61  1  0
 63 62  2  0
 64 65  1  0
 64 58  2  0
 65 60  2  0
 66 59  1  0
 67 57  1  0
 69 71  2  0
 70 69  1  0
 72 70  1  0
 73 82  2  0
 73 78  1  0
 74 70  1  0
 74 78  1  0
 75 74  1  0
 76 77  1  0
 76 75  1  0
 77 73  1  0
 78 79  2  0
 79 80  1  0
 81 80  2  0
 82 81  1  0
 83 57  1  0
 83 84  1  0
 83 93  1  0
 84 87  1  0
 85 89  1  0
 85 84  1  0
 86 85  2  0
 89 88  1  0
 91 89  1  0
 91 92  1  0
 91 90  1  0
 93 96  1  1
 93 94  1  0
 95 93  1  0
M  ISO  4  13 100  21 100  55 101  56 101
M  END
>  <TORSDO>  (67) 
F 24

>  <SCORE>  (67) 
6.032

>  <name>  (67) 
66

>  <ligand_id>  (67) 
66

>  <original_smiles>  (67) 
[H]c1c([H])c([H])c2c(c1[H])C([H])([H])C([H])([H])C([H])([H])C2([H])N([H])C(=O)C1([H])N(C(=O)C([H])(N([H])C(=O)C([H])(N([H])C([H])([H])[H])C([H])([H])[H])C(C([H])([H])[H])(C([H])([H])[H])C([H])([H])[H])C([H])([H])c2c([H])c(OC([H])([H])C(=O)C([H])([H])C([H])([H])C(C([H])([H])[H])(C([H])([H])c3c([H])c([H])c([H])c(C([H])([H])N([H])C(=O)N4C([H])([H])C([H])([H])C([H])([H])C([H])(n5nc(-c6c([H])c([H])c(Oc7c([H])c([H])c(F)c([H])c7F)c([H])c6[H])c(C(=O)N([H])[H])c5N([H])[H])C4([H])[H])c3[H])C([H])([H])C([H])([H])[H])c([H])c([H])c2C1([H])[H]

>  <smiles>  (67) 
[H]c1c([H])c([H])c2c(c1[H])C([H])([H])C([H])([H])C([H])([H])C2([H])N([H])C(=O)C1([H])N(C(=O)C([H])(N([H])C(=O)C([H])(N([H])C([H])([H])[H])C([H])([H])[H])C(C([H])([H])[H])(C([H])([H])[H])C([H])([H])[H])C([H])([H])c2c([H])c(OC([H])([H])C(=O)C([H])([H])C([H])([H])C(C([H])([H])[H])(C([H])([H])c3c([H])c([H])c([H])c(C([H])([H])N([H])C(=O)N4C([H])([H])C([H])([H])C([H])([H])C([H])(n5nc(-c6c([H])c([H])c(Oc7c([H])c([H])c(F)c([H])c7F)c([H])c6[H])c(C(=O)N([H])[H])c5N([H])[H])C4([H])[H])c3[H])C([H])([H])C([H])([H])[H])c([H])c([H])c2C1([H])[H]

$$$$
67:0:0
     RDKit          3D

 91100  0  0  1  0  0  0  0  0999 V2000
  -29.2030  -22.2390   19.8040 C   0  0  0  0  0  2  0  0  0  0  0  0
  -29.3690  -23.8110   21.9190 C   0  0  0  0  0  1  0  0  0  0  0  0
  -30.6280  -24.3460   19.8530 C   0  0  0  0  0  1  0  0  0  0  0  0
  -29.2860  -23.7950   20.3790 C   0  0  1  0  0  0  0  0  0  0  0  0
  -28.1690  -24.9040   19.9410 C   0  0  0  0  0  2  0  0  0  0  0  0
  -28.3640  -26.3860   20.1870 O   0  0  0  0  0  0  0  0  0  0  0  0
  -24.6370  -31.8660   23.1970 C   0  0  0  0  0  0  0  0  0  0  0  0
  -27.2660  -27.2840   20.1190 C   0  0  0  0  0  0  0  0  0  0  0  0
  -23.4470  -30.4790   21.5400 C   0  0  0  0  0  3  0  0  0  0  0  0
  -24.9080  -28.9400   20.1030 C   0  0  0  0  0  0  0  0  0  0  0  0
  -25.9910  -30.7880   21.3770 C   0  0  0  0  0  2  0  0  0  0  0  0
  -26.0760  -29.4120   20.7150 C   0  0  0  0  0  0  0  0  0  0  0  0
  -27.2570  -28.5970   20.7120 C   0  0  0  0  0  3  0  0  0  0  0  0
  -26.0730  -26.8890   19.4730 C   0  0  0  0  0  3  0  0  0  0  0  0
  -24.9130  -27.6870   19.4700 C   0  0  0  0  0  3  0  0  0  0  0  0
  -23.6720  -29.8180   20.1550 C   0  0  0  0  0  2  0  0  0  0  0  0
  -24.7100  -31.0640   22.0940 N   0  0  0  0  0  0  0  0  0  0  0  0
  -23.5500  -32.1400   23.7250 O   0  0  0  0  0  0  0  0  0  0  0  0
  -22.7780  -29.4550   22.4890 C   0  0  0  0  0  0  0  0  0  0  0  0
  -21.4530  -29.2720   22.3500 N   0  0  0  0  0  0  0  0  0  0  0  0
  -23.4500  -28.8290   23.3120 O   0  0  0  0  0  0  0  0  0  0  0  0
  -20.9680  -29.8310   21.6620 H   0  0  0  0  0  0  0  0  0  0  0  0
  -18.0790  -28.0440   22.8060 C   0  0  0  0  0  0  0  0  0  0  0  0
  -20.6320  -28.3250   23.1070 C   0  0  0  0  0  3  0  0  0  0  0  0
  -20.7530  -26.8970   22.5290 C   0  0  0  0  0  2  0  0  0  0  0  0
  -19.6670  -26.5690   21.4990 C   0  0  0  0  0  2  0  0  0  0  0  0
  -18.2760  -26.6990   22.1270 C   0  0  0  0  0  2  0  0  0  0  0  0
  -19.1850  -28.8140   23.2520 C   0  0  0  0  0  0  0  0  0  0  0  0
  -18.9490  -30.0720   23.8470 C   0  0  0  0  0  3  0  0  0  0  0  0
  -17.6380  -30.5620   24.0000 C   0  0  0  0  0  3  0  0  0  0  0  0
  -16.5450  -29.7890   23.5710 C   0  0  0  0  0  3  0  0  0  0  0  0
  -16.7660  -28.5320   22.9800 C   0  0  0  0  0  3  0  0  0  0  0  0
  -25.9140  -32.4990   23.8330 C   0  0  0  0  0  3  0  0  0  0  0  0
  -26.4300  -31.7130   25.1020 C   0  0  1  0  0  0  0  0  0  0  0  0
  -25.3340  -31.4570   26.1630 C   0  0  0  0  0  1  0  0  0  0  0  0
  -27.0210  -30.3440   24.6950 C   0  0  0  0  0  1  0  0  0  0  0  0
  -27.5750  -32.5030   25.7780 C   0  0  0  0  0  1  0  0  0  0  0  0
  -25.5950  -33.8900   24.1840 N   0  0  0  0  0  0  0  0  0  0  0  0
  -25.9170  -34.9580   23.4420 C   0  0  0  0  0  0  0  0  0  0  0  0
  -26.5820  -34.8740   22.4060 O   0  0  0  0  0  0  0  0  0  0  0  0
  -25.0010  -34.0280   24.9900 H   0  0  0  0  0  0  0  0  0  0  0  0
  -24.1740  -36.7440   23.1270 C   0  0  0  0  0  1  0  0  0  0  0  0
  -25.4230  -36.3360   23.9230 C   0  0  0  0  0  3  0  0  0  0  0  0
  -27.5570  -37.2230   24.7540 C   0  0  0  0  0  1  0  0  0  0  0  0
  -26.4480  -37.3980   23.8200 N   0  0  0  0  0  0  0  0  0  0  0  0
  -26.0360  -38.3130   23.9850 H   0  0  0  0  0  0  0  0  0  0  0  0
  -28.8880  -20.9280   20.6800 C   0  0  0  0  0  0  0  0  0  0  0  0
  -28.0560  -21.0790   21.5790 O   0  0  0  0  0  0  0  0  0  0  0  0
  -30.7080  -14.8160   19.9940 C   0  0  0  0  0  0  0  0  0  0  0  0
  -30.4270  -12.5630   18.9270 C   0  0  0  0  0  2  0  0  0  0  0  0
  -29.4160  -12.6480   17.7640 C   0  0  0  0  0  2  0  0  0  0  0  0
  -27.9770  -12.4620   18.2820 C   0  0  0  0  0  2  0  0  0  0  0  0
  -27.6790  -13.3270   19.5370 C   0  0  0  0  0  3  0  0  0  0  0  0
  -28.8040  -13.2230   20.5870 C   0  0  0  0  0  2  0  0  0  0  0  0
  -30.0560  -13.6010   19.9200 N   0  0  0  0  0  0  0  0  0  0  0  0
  -31.8580  -14.9030   19.5500 O   0  0  0  0  0  0  0  0  0  0  0  0
  -29.6690  -18.5360   19.5540 C   0  0  0  0  0  2  0  0  0  0  0  0
  -30.3940  -17.3710   20.0710 C   0  0  0  0  0  3  0  0  0  0  0  0
  -29.5220  -19.5190   20.5540 C   0  0  0  0  0  3  0  0  0  0  0  0
  -30.4470  -17.6790   21.4900 C   0  0  0  0  0  3  0  0  0  0  0  0
  -29.9360  -16.3110   21.8110 C   0  0  0  0  0  2  0  0  0  0  0  0
  -30.0030  -15.9690   20.3630 N   0  0  0  0  0  0  0  0  0  0  0  0
  -29.8080  -18.8700   21.7530 O   0  0  0  0  0  0  0  0  0  0  0  0
  -25.3430  -13.8980   20.4250 C   0  0  0  0  0  0  0  0  0  0  0  0
  -24.3000  -13.1140   20.8400 C   0  0  0  0  0  0  0  0  0  0  0  0
  -24.7610  -11.7640   20.7550 C   0  0  0  0  0  0  0  0  0  0  0  0
  -26.3690  -13.0240   20.1060 N   0  0  0  0  0  0  0  0  0  0  0  0
  -26.0310  -11.7350   20.3680 N   0  0  0  0  0  0  0  0  0  0  0  0
  -24.0470  -10.4970   20.9620 C   0  0  0  0  0  0  0  0  0  0  0  0
  -24.4980   -9.5400   21.8980 C   0  0  0  0  0  3  0  0  0  0  0  0
  -23.7830   -8.3390   22.0930 C   0  0  0  0  0  3  0  0  0  0  0  0
  -22.6030   -8.0870   21.3540 C   0  0  0  0  0  0  0  0  0  0  0  0
  -22.1710   -9.0330   20.4080 C   0  0  0  0  0  3  0  0  0  0  0  0
  -22.8870  -10.2250   20.2100 C   0  0  0  0  0  3  0  0  0  0  0  0
  -21.8570   -6.9370   21.4590 O   0  0  0  0  0  0  0  0  0  0  0  0
  -21.7790   -6.2360   22.6350 C   0  0  0  0  0  0  0  0  0  0  0  0
  -21.3120   -6.8300   23.8270 C   0  0  0  0  0  3  0  0  0  0  0  0
  -21.1810   -6.0540   24.9970 C   0  0  0  0  0  3  0  0  0  0  0  0
  -21.5070   -4.6840   24.9740 C   0  0  0  0  0  0  0  0  0  0  0  0
  -21.9650   -4.0900   23.7860 C   0  0  0  0  0  3  0  0  0  0  0  0
  -22.0980   -4.8630   22.6180 C   0  0  0  0  0  0  0  0  0  0  0  0
  -22.5200   -4.2800   21.4710 F   0  0  0  0  0  0  0  0  0  0  0  0
  -21.3730   -3.9370   26.0940 F   0  0  0  0  0  0  0  0  0  0  0  0
  -22.9230  -13.5840   21.2040 C   0  0  0  0  0  0  0  0  0  0  0  0
  -22.2540  -12.8800   22.1100 N   0  0  0  0  0  0  0  0  0  0  0  0
  -22.4490  -14.6120   20.7200 O   0  0  0  0  0  0  0  0  0  0  0  0
  -22.6510  -12.0480   22.5230 H   0  0  0  0  0  0  0  0  0  0  0  0
  -21.3320  -13.1770   22.3960 H   0  0  0  0  0  0  0  0  0  0  0  0
  -25.4980  -15.2720   20.2680 N   0  0  0  0  0  0  0  0  0  0  0  0
  -24.7440  -15.9260   20.4460 H   0  0  0  0  0  0  0  0  0  0  0  0
  -26.3360  -15.7200   19.9210 H   0  0  0  0  0  0  0  0  0  0  0  0
  1  4  1  0
  1 47  1  0
  4  3  1  6
  4  2  1  0
  5  6  1  0
  5  4  1  0
  7 18  2  0
  8  6  1  0
  8 13  1  0
  9 17  1  0
  9 19  1  0
 10 16  1  0
 10 12  1  0
 11 17  1  0
 12 11  1  0
 13 12  2  0
 14  8  2  0
 15 14  1  0
 15 10  2  0
 16  9  1  0
 17  7  1  0
 19 21  2  0
 20 19  1  0
 22 20  1  0
 23 32  2  0
 23 28  1  0
 24 20  1  0
 24 28  1  0
 25 24  1  0
 26 27  1  0
 26 25  1  0
 27 23  1  0
 28 29  2  0
 29 30  1  0
 31 30  2  0
 32 31  1  0
 33  7  1  0
 33 38  1  0
 33 34  1  0
 34 37  1  1
 34 35  1  0
 36 34  1  0
 38 41  1  0
 39 43  1  0
 39 38  1  0
 40 39  2  0
 43 42  1  0
 45 43  1  0
 45 46  1  0
 45 44  1  0
 47 48  2  0
 49 62  1  0
 50 55  1  0
 51 52  1  0
 51 50  1  0
 53 52  1  0
 53 67  1  0
 53 54  1  0
 55 49  1  0
 55 54  1  0
 56 49  2  0
 57 59  1  0
 58 57  1  0
 58 62  1  0
 58 60  1  0
 59 47  1  0
 59 63  1  0
 60 63  1  0
 60 61  1  0
 62 61  1  0
 64 65  2  0
 65 84  1  0
 66 65  1  0
 66 69  1  0
 67 68  1  0
 67 64  1  0
 68 66  2  0
 69 70  1  0
 70 71  2  0
 72 75  1  0
 72 71  1  0
 73 72  2  0
 74 73  1  0
 74 69  2  0
 75 76  1  0
 76 77  1  0
 77 78  2  0
 79 78  1  0
 79 83  1  0
 80 79  2  0
 81 76  2  0
 81 80  1  0
 82 81  1  0
 84 85  1  0
 85 88  1  0
 85 87  1  0
 86 84  2  0
 89 64  1  0
 89 90  1  0
 91 89  1  0
M  ISO  4   5 101   6 101  49 100  62 100
M  END
>  <TORSDO>  (68) 
F 19

>  <SCORE>  (68) 
-13.770

>  <name>  (68) 
67

>  <ligand_id>  (68) 
67

>  <original_smiles>  (68) 
[H]c1c([H])c([H])c2c(c1[H])C([H])([H])C([H])([H])C([H])([H])C2([H])N([H])C(=O)C1([H])N(C(=O)C([H])(N([H])C(=O)C([H])(N([H])C([H])([H])[H])C([H])([H])[H])C(C([H])([H])[H])(C([H])([H])[H])C([H])([H])[H])C([H])([H])c2c([H])c(OC([H])([H])C(C([H])([H])[H])(C([H])([H])[H])C([H])([H])C(=O)c3oc4c(c3[H])N(C(=O)N3C([H])([H])C([H])([H])C([H])([H])C([H])(n5nc(-c6c([H])c([H])c(Oc7c([H])c([H])c(F)c([H])c7F)c([H])c6[H])c(C(=O)N([H])[H])c5N([H])[H])C3([H])[H])C4([H])[H])c([H])c([H])c2C1([H])[H]

>  <smiles>  (68) 
[H]c1c([H])c([H])c2c(c1[H])C([H])([H])C([H])([H])C([H])([H])C2([H])N([H])C(=O)C1([H])N(C(=O)C([H])(N([H])C(=O)C([H])(N([H])C([H])([H])[H])C([H])([H])[H])C(C([H])([H])[H])(C([H])([H])[H])C([H])([H])[H])C([H])([H])c2c([H])c(OC([H])([H])C(C([H])([H])[H])(C([H])([H])[H])C([H])([H])C(=O)c3oc4c(c3[H])N(C(=O)N3C([H])([H])C([H])([H])C([H])([H])C([H])(n5nc(-c6c([H])c([H])c(Oc7c([H])c([H])c(F)c([H])c7F)c([H])c6[H])c(C(=O)N([H])[H])c5N([H])[H])C3([H])[H])C4([H])[H])c([H])c([H])c2C1([H])[H]

$$$$
68:0:0
     RDKit          3D

101110  0  0  1  0  0  0  0  0999 V2000
  -29.4510  -20.7300   21.7260 C   0  0  0  0  0  3  0  0  0  0  0  0
  -26.7950  -23.2680   21.2770 C   0  0  0  0  0  2  0  0  0  0  0  0
  -27.1120  -22.7500   19.8700 C   0  0  0  0  0  2  0  0  0  0  0  0
  -27.7770  -22.5220   22.1940 C   0  0  0  0  0  2  0  0  0  0  0  0
  -28.6030  -22.3720   19.9340 C   0  0  0  0  0  3  0  0  0  0  0  0
  -28.7050  -21.7910   21.2970 N   0  0  0  0  0  0  0  0  0  0  0  0
  -29.5070  -20.4980   23.0400 N   0  0  0  0  0  0  0  0  0  0  0  0
  -30.1110  -19.7630   23.3740 H   0  0  0  0  0  0  0  0  0  0  0  0
  -29.0880  -21.1160   23.7110 H   0  0  0  0  0  0  0  0  0  0  0  0
  -31.7290  -19.2200   19.0610 C   0  0  0  0  0  3  0  0  0  0  0  0
  -30.9870  -20.1740   19.7860 C   0  0  0  0  0  3  0  0  0  0  0  0
  -31.6990  -17.8590   19.4250 C   0  0  0  0  0  3  0  0  0  0  0  0
  -30.1460  -18.3910   21.2200 C   0  0  0  0  0  3  0  0  0  0  0  0
  -30.1880  -19.7700   20.8770 C   0  0  0  0  0  0  0  0  0  0  0  0
  -30.9130  -17.4290   20.5230 C   0  0  0  0  0  0  0  0  0  0  0  0
  -31.5460  -15.0050   20.5130 C   0  0  0  0  0  0  0  0  0  0  0  0
  -31.2760  -12.7440   19.5780 C   0  0  0  0  0  2  0  0  0  0  0  0
  -30.4050  -12.8600   18.3100 C   0  0  0  0  0  2  0  0  0  0  0  0
  -28.9050  -12.8060   18.6660 C   0  0  0  0  0  2  0  0  0  0  0  0
  -28.5280  -13.7640   19.8270 C   0  0  0  0  0  3  0  0  0  0  0  0
  -29.5120  -13.6060   21.0080 C   0  0  0  0  0  2  0  0  0  0  0  0
  -30.8760  -13.8220   20.4940 N   0  0  0  0  0  0  0  0  0  0  0  0
  -32.6990  -15.1280   20.0840 O   0  0  0  0  0  0  0  0  0  0  0  0
  -30.8150  -16.0580   20.9280 N   0  0  0  0  0  0  0  0  0  0  0  0
  -29.9780  -15.8090   21.4320 H   0  0  0  0  0  0  0  0  0  0  0  0
  -26.1450  -14.5210   20.4400 C   0  0  0  0  0  0  0  0  0  0  0  0
  -25.0180  -13.8150   20.7660 C   0  0  0  0  0  0  0  0  0  0  0  0
  -25.3960  -12.4380   20.7490 C   0  0  0  0  0  0  0  0  0  0  0  0
  -27.1420  -13.5770   20.2490 N   0  0  0  0  0  0  0  0  0  0  0  0
  -26.6910  -12.3190   20.4890 N   0  0  0  0  0  0  0  0  0  0  0  0
  -24.5870  -11.2220   20.9070 C   0  0  0  0  0  0  0  0  0  0  0  0
  -24.9390  -10.2170   21.8340 C   0  0  0  0  0  3  0  0  0  0  0  0
  -24.1370   -9.0650   21.9820 C   0  0  0  0  0  3  0  0  0  0  0  0
  -22.9680   -8.9110   21.1990 C   0  0  0  0  0  0  0  0  0  0  0  0
  -22.6340   -9.9030   20.2620 C   0  0  0  0  0  3  0  0  0  0  0  0
  -23.4370  -11.0460   20.1120 C   0  0  0  0  0  3  0  0  0  0  0  0
  -22.1430   -7.8140   21.2560 O   0  0  0  0  0  0  0  0  0  0  0  0
  -22.0180   -7.0640   22.3980 C   0  0  0  0  0  0  0  0  0  0  0  0
  -21.6040   -7.6350   23.6210 C   0  0  0  0  0  3  0  0  0  0  0  0
  -21.4220   -6.8150   24.7530 C   0  0  0  0  0  3  0  0  0  0  0  0
  -21.6440   -5.4290   24.6640 C   0  0  0  0  0  0  0  0  0  0  0  0
  -22.0500   -4.8580   23.4440 C   0  0  0  0  0  3  0  0  0  0  0  0
  -22.2330   -5.6740   22.3140 C   0  0  0  0  0  0  0  0  0  0  0  0
  -22.6050   -5.1170   21.1360 F   0  0  0  0  0  0  0  0  0  0  0  0
  -21.4610   -4.6400   25.7480 F   0  0  0  0  0  0  0  0  0  0  0  0
  -23.6420  -14.3760   20.9870 C   0  0  0  0  0  0  0  0  0  0  0  0
  -22.8510  -13.7410   21.8460 N   0  0  0  0  0  0  0  0  0  0  0  0
  -23.2780  -15.4130   20.4350 O   0  0  0  0  0  0  0  0  0  0  0  0
  -23.1570  -12.9010   22.3150 H   0  0  0  0  0  0  0  0  0  0  0  0
  -21.9270  -14.0990   22.0370 H   0  0  0  0  0  0  0  0  0  0  0  0
  -26.4010  -15.8790   20.2730 N   0  0  0  0  0  0  0  0  0  0  0  0
  -25.6700  -16.5790   20.3440 H   0  0  0  0  0  0  0  0  0  0  0  0
  -27.2850  -16.2600   19.9620 H   0  0  0  0  0  0  0  0  0  0  0  0
  -29.5630  -23.6030   19.7950 C   0  0  0  0  0  0  0  0  0  0  0  0
  -30.7550  -23.4970   20.0960 O   0  0  0  0  0  0  0  0  0  0  0  0
  -29.0010  -24.9700   19.3260 C   0  0  0  0  0  2  0  0  0  0  0  0
  -29.9810  -26.1860   19.3580 C   0  0  0  0  0  3  0  0  0  0  0  0
  -32.0310  -27.3310   18.3630 C   0  0  0  0  0  1  0  0  0  0  0  0
  -30.1250  -26.7410   16.8120 C   0  0  0  0  0  1  0  0  0  0  0  0
  -30.8730  -26.3540   18.0980 C   0  0  0  0  0  3  0  0  0  0  0  0
  -29.5030  -27.4330   19.9120 O   0  0  0  0  0  0  0  0  0  0  0  0
  -24.7110  -31.4860   23.2290 C   0  0  0  0  0  0  0  0  0  0  0  0
  -28.1930  -27.8750   19.8850 C   0  0  0  0  0  0  0  0  0  0  0  0
  -23.8170  -30.0390   21.4340 C   0  0  0  0  0  3  0  0  0  0  0  0
  -25.5560  -28.9180   19.9410 C   0  0  0  0  0  0  0  0  0  0  0  0
  -26.2380  -30.8640   21.3580 C   0  0  0  0  0  2  0  0  0  0  0  0
  -26.5850  -29.5920   20.6080 C   0  0  0  0  0  0  0  0  0  0  0  0
  -27.9010  -29.0790   20.5730 C   0  0  0  0  0  3  0  0  0  0  0  0
  -27.1350  -27.2040   19.2350 C   0  0  0  0  0  3  0  0  0  0  0  0
  -25.8260  -27.7220   19.2540 C   0  0  0  0  0  3  0  0  0  0  0  0
  -24.1760  -29.5320   20.0120 C   0  0  0  0  0  2  0  0  0  0  0  0
  -24.9360  -30.8090   22.0670 N   0  0  0  0  0  0  0  0  0  0  0  0
  -23.5860  -31.5110   23.7490 O   0  0  0  0  0  0  0  0  0  0  0  0
  -23.3440  -28.8370   22.2820 C   0  0  0  0  0  0  0  0  0  0  0  0
  -22.0900  -28.4090   22.0650 N   0  0  0  0  0  0  0  0  0  0  0  0
  -24.1040  -28.2930   23.0880 O   0  0  0  0  0  0  0  0  0  0  0  0
  -21.5280  -28.9140   21.3940 H   0  0  0  0  0  0  0  0  0  0  0  0
  -19.0140  -26.5210   22.2560 C   0  0  0  0  0  0  0  0  0  0  0  0
  -21.4440  -27.2710   22.7190 C   0  0  0  0  0  3  0  0  0  0  0  0
  -21.8720  -25.9370   22.0640 C   0  0  0  0  0  2  0  0  0  0  0  0
  -20.9170  -25.4750   20.9580 C   0  0  0  0  0  2  0  0  0  0  0  0
  -19.5030  -25.2890   21.5130 C   0  0  0  0  0  2  0  0  0  0  0  0
  -19.9260  -27.4600   22.8080 C   0  0  0  0  0  0  0  0  0  0  0  0
  -19.4190  -28.6060   23.4590 C   0  0  0  0  0  3  0  0  0  0  0  0
  -18.0320  -28.8210   23.5620 C   0  0  0  0  0  3  0  0  0  0  0  0
  -17.1340  -27.8810   23.0280 C   0  0  0  0  0  3  0  0  0  0  0  0
  -17.6250  -26.7330   22.3810 C   0  0  0  0  0  3  0  0  0  0  0  0
  -25.8460  -32.2820   23.9470 C   0  0  0  0  0  3  0  0  0  0  0  0
  -25.3400  -33.6360   24.2070 N   0  0  0  0  0  0  0  0  0  0  0  0
  -25.6020  -34.7040   23.4430 C   0  0  0  0  0  0  0  0  0  0  0  0
  -26.3630  -34.6620   22.4720 O   0  0  0  0  0  0  0  0  0  0  0  0
  -24.6680  -33.7330   24.9540 H   0  0  0  0  0  0  0  0  0  0  0  0
  -23.7000  -36.2540   22.8910 C   0  0  0  0  0  1  0  0  0  0  0  0
  -24.9090  -36.0300   23.8130 C   0  0  0  0  0  3  0  0  0  0  0  0
  -26.8460  -37.1910   24.7770 C   0  0  0  0  0  1  0  0  0  0  0  0
  -25.8100  -37.2030   23.7480 N   0  0  0  0  0  0  0  0  0  0  0  0
  -25.2820  -38.0670   23.8380 H   0  0  0  0  0  0  0  0  0  0  0  0
  -26.3310  -31.6010   25.2860 C   0  0  1  0  0  0  0  0  0  0  0  0
  -25.1800  -31.2550   26.2600 C   0  0  0  0  0  1  0  0  0  0  0  0
  -27.1020  -30.2950   24.9850 C   0  0  0  0  0  1  0  0  0  0  0  0
  -27.3200  -32.5360   26.0220 C   0  0  0  0  0  1  0  0  0  0  0  0
  1  7  1  0
  2  4  1  0
  3  5  1  0
  3  2  1  0
  5 54  1  0
  5  6  1  0
  6  1  1  0
  6  4  1  0
  7  8  1  0
  7  9  1  0
 10 12  2  0
 10 11  1  0
 11 14  2  0
 12 15  1  0
 14 13  1  0
 14  1  1  0
 15 24  1  0
 15 13  2  0
 16 24  1  0
 17 22  1  0
 18 19  1  0
 18 17  1  0
 20 19  1  0
 20 29  1  0
 20 21  1  0
 22 16  1  0
 22 21  1  0
 23 16  2  0
 24 25  1  0
 26 27  2  0
 27 46  1  0
 28 27  1  0
 28 31  1  0
 29 26  1  0
 29 30  1  0
 30 28  2  0
 31 32  1  0
 32 33  2  0
 34 37  1  0
 34 33  1  0
 35 34  2  0
 36 35  1  0
 36 31  2  0
 37 38  1  0
 38 39  1  0
 39 40  2  0
 41 40  1  0
 41 45  1  0
 42 41  2  0
 43 38  2  0
 43 42  1  0
 44 43  1  0
 46 47  1  0
 47 50  1  0
 47 49  1  0
 48 46  2  0
 51 52  1  0
 51 26  1  0
 53 51  1  0
 54 55  2  0
 56 54  1  0
 57 56  1  0
 57 61  1  0
 59 60  1  0
 60 58  1  0
 60 57  1  0
 62 73  2  0
 63 61  1  0
 63 68  1  0
 64 72  1  0
 64 74  1  0
 65 71  1  0
 65 67  1  0
 66 72  1  0
 67 66  1  0
 68 67  2  0
 69 70  1  0
 69 63  2  0
 70 65  2  0
 71 64  1  0
 72 62  1  0
 74 76  2  0
 75 74  1  0
 77 75  1  0
 78 87  2  0
 78 83  1  0
 79 75  1  0
 79 83  1  0
 80 79  1  0
 81 82  1  0
 81 80  1  0
 82 78  1  0
 83 84  2  0
 84 85  1  0
 86 85  2  0
 87 86  1  0
 88 62  1  0
 88 89  1  0
 88 98  1  0
 89 92  1  0
 90 94  1  0
 90 89  1  0
 91 90  2  0
 94 93  1  0
 96 94  1  0
 96 97  1  0
 96 95  1  0
 98101  1  1
 98 99  1  0
100 98  1  0
M  ISO  4  16 100  24 100  57 101  61 101
M  END
>  <TORSDO>  (69) 
F 21

>  <SCORE>  (69) 
-9.678

>  <name>  (69) 
68

>  <ligand_id>  (69) 
68

>  <original_smiles>  (69) 
[H]c1c([H])c(C(N2C([H])([H])C([H])([H])C([H])([H])C2([H])C(=O)C([H])([H])C([H])(Oc2c([H])c([H])c3c(c2[H])C([H])([H])N(C(=O)C([H])(N([H])C(=O)C([H])(N([H])C([H])([H])[H])C([H])([H])[H])C(C([H])([H])[H])(C([H])([H])[H])C([H])([H])[H])C([H])(C(=O)N([H])C2([H])c4c([H])c([H])c([H])c([H])c4C([H])([H])C([H])([H])C2([H])[H])C3([H])[H])C([H])(C([H])([H])[H])C([H])([H])[H])=[N+]([H])[H])c([H])c(N([H])C(=O)N2C([H])([H])C([H])([H])C([H])([H])C([H])(n3nc(-c4c([H])c([H])c(Oc5c([H])c([H])c(F)c([H])c5F)c([H])c4[H])c(C(=O)N([H])[H])c3N([H])[H])C2([H])[H])c1[H]

>  <smiles>  (69) 
[H]c1c([H])c(C(N2C([H])([H])C([H])([H])C([H])([H])C2([H])C(=O)C([H])([H])C([H])(Oc2c([H])c([H])c3c(c2[H])C([H])([H])N(C(=O)C([H])(N([H])C(=O)C([H])(N([H])C([H])([H])[H])C([H])([H])[H])C(C([H])([H])[H])(C([H])([H])[H])C([H])([H])[H])C([H])(C(=O)N([H])C2([H])c4c([H])c([H])c([H])c([H])c4C([H])([H])C([H])([H])C2([H])[H])C3([H])[H])C([H])(C([H])([H])[H])C([H])([H])[H])=[N+]([H])[H])c([H])c(N([H])C(=O)N2C([H])([H])C([H])([H])C([H])([H])C([H])(n3nc(-c4c([H])c([H])c(Oc5c([H])c([H])c(F)c([H])c5F)c([H])c4[H])c(C(=O)N([H])[H])c3N([H])[H])C2([H])[H])c1[H]

$$$$
69:0:0
     RDKit          3D

 97106  0  0  1  0  0  0  0  0999 V2000
  -26.9080  -24.8290   20.6340 C   0  0  0  0  0  3  0  0  0  0  0  0
  -28.1270  -24.6710   20.0980 C   0  0  0  0  0  0  0  0  0  0  0  0
  -28.3350  -20.7410   20.7880 C   0  0  0  0  0  3  0  0  0  0  0  0
  -26.0670  -23.6690   21.0590 C   0  0  0  0  0  2  0  0  0  0  0  0
  -28.7220  -23.2140   19.9300 C   0  0  0  0  0  2  0  0  0  0  0  0
  -26.9720  -22.6110   21.6790 C   0  0  0  0  0  2  0  0  0  0  0  0
  -28.0230  -22.1060   20.7300 N   0  0  0  0  0  0  0  0  0  0  0  0
  -27.7630  -20.0480   21.7780 N   0  0  0  0  0  0  0  0  0  0  0  0
  -27.9860  -19.0700   21.8740 H   0  0  0  0  0  0  0  0  0  0  0  0
  -27.1850  -20.4730   22.4800 H   0  0  0  0  0  0  0  0  0  0  0  0
  -29.2220  -18.4310   20.0980 C   0  0  0  0  0  3  0  0  0  0  0  0
  -30.2250  -20.4130   19.1020 C   0  0  0  0  0  3  0  0  0  0  0  0
  -31.1050  -18.1660   18.6030 C   0  0  0  0  0  3  0  0  0  0  0  0
  -29.2440  -19.8700   19.9560 C   0  0  0  0  0  0  0  0  0  0  0  0
  -30.1610  -17.5550   19.4620 C   0  0  0  0  0  0  0  0  0  0  0  0
  -31.1320  -19.5700   18.4270 C   0  0  0  0  0  0  0  0  0  0  0  0
  -32.0600  -20.1180   17.6060 F   0  0  0  0  0  0  0  0  0  0  0  0
  -30.9720  -15.0890   19.3720 C   0  0  0  0  0  0  0  0  0  0  0  0
  -30.8560  -12.7200   18.6380 C   0  0  0  0  0  2  0  0  0  0  0  0
  -29.7630  -12.6080   17.5510 C   0  0  0  0  0  2  0  0  0  0  0  0
  -28.3710  -12.4030   18.1890 C   0  0  0  0  0  2  0  0  0  0  0  0
  -28.0920  -13.3990   19.3460 C   0  0  0  0  0  3  0  0  0  0  0  0
  -29.2870  -13.4680   20.3230 C   0  0  0  0  0  2  0  0  0  0  0  0
  -30.4760  -13.8250   19.5390 N   0  0  0  0  0  0  0  0  0  0  0  0
  -32.0480  -15.2770   18.7950 O   0  0  0  0  0  0  0  0  0  0  0  0
  -30.1270  -16.1130   19.7250 N   0  0  0  0  0  0  0  0  0  0  0  0
  -29.2990  -15.7870   20.1980 H   0  0  0  0  0  0  0  0  0  0  0  0
  -25.9670  -13.9510   20.6790 C   0  0  0  0  0  0  0  0  0  0  0  0
  -24.9230  -13.1750   21.1020 C   0  0  0  0  0  0  0  0  0  0  0  0
  -25.2250  -11.8430   20.6810 C   0  0  0  0  0  0  0  0  0  0  0  0
  -26.8440  -13.0910   20.0390 N   0  0  0  0  0  0  0  0  0  0  0  0
  -26.4140  -11.8050   20.0930 N   0  0  0  0  0  0  0  0  0  0  0  0
  -24.4250  -10.6150   20.7530 C   0  0  0  0  0  0  0  0  0  0  0  0
  -24.8320   -9.5150   21.5410 C   0  0  0  0  0  3  0  0  0  0  0  0
  -24.0380   -8.3500   21.6080 C   0  0  0  0  0  3  0  0  0  0  0  0
  -22.8210   -8.2780   20.8880 C   0  0  0  0  0  0  0  0  0  0  0  0
  -22.4320   -9.3670   20.0890 C   0  0  0  0  0  3  0  0  0  0  0  0
  -23.2270  -10.5240   20.0180 C   0  0  0  0  0  3  0  0  0  0  0  0
  -21.9990   -7.1780   20.8730 O   0  0  0  0  0  0  0  0  0  0  0  0
  -21.7980   -6.4140   21.9940 C   0  0  0  0  0  0  0  0  0  0  0  0
  -21.2880   -6.9630   23.1890 C   0  0  0  0  0  3  0  0  0  0  0  0
  -21.0310   -6.1280   24.2960 C   0  0  0  0  0  3  0  0  0  0  0  0
  -21.2750   -4.7450   24.2060 C   0  0  0  0  0  0  0  0  0  0  0  0
  -21.7790   -4.1950   23.0140 C   0  0  0  0  0  3  0  0  0  0  0  0
  -22.0380   -5.0270   21.9110 C   0  0  0  0  0  0  0  0  0  0  0  0
  -22.5020   -4.4870   20.7580 F   0  0  0  0  0  0  0  0  0  0  0  0
  -21.0230   -3.9410   25.2660 F   0  0  0  0  0  0  0  0  0  0  0  0
  -23.6660  -13.6550   21.7690 C   0  0  0  0  0  0  0  0  0  0  0  0
  -23.0800  -12.8380   22.6360 N   0  0  0  0  0  0  0  0  0  0  0  0
  -23.2200  -14.7820   21.5550 O   0  0  0  0  0  0  0  0  0  0  0  0
  -23.4570  -11.9220   22.8290 H   0  0  0  0  0  0  0  0  0  0  0  0
  -22.2390  -13.1350   23.1120 H   0  0  0  0  0  0  0  0  0  0  0  0
  -26.2340  -15.3150   20.7630 N   0  0  0  0  0  0  0  0  0  0  0  0
  -25.5530  -15.9650   21.1430 H   0  0  0  0  0  0  0  0  0  0  0  0
  -26.9840  -15.7770   20.2670 H   0  0  0  0  0  0  0  0  0  0  0  0
  -29.0150  -25.9370   19.8710 C   0  0  0  0  0  2  0  0  0  0  0  0
  -28.5580  -27.0160   18.9850 O   0  0  0  0  0  0  0  0  0  0  0  0
  -24.6860  -31.6650   22.9300 C   0  0  0  0  0  0  0  0  0  0  0  0
  -27.3810  -27.7160   19.2280 C   0  0  0  0  0  0  0  0  0  0  0  0
  -23.4630  -30.3640   21.2200 C   0  0  0  0  0  3  0  0  0  0  0  0
  -24.9090  -29.0920   19.5410 C   0  0  0  0  0  0  0  0  0  0  0  0
  -25.9450  -30.9070   20.9060 C   0  0  0  0  0  2  0  0  0  0  0  0
  -26.0740  -29.6110   20.1230 C   0  0  0  0  0  0  0  0  0  0  0  0
  -27.3150  -28.9270   19.9720 C   0  0  0  0  0  3  0  0  0  0  0  0
  -26.2050  -27.2620   18.5980 C   0  0  0  0  0  3  0  0  0  0  0  0
  -24.9720  -27.9170   18.7750 C   0  0  0  0  0  3  0  0  0  0  0  0
  -23.6190  -29.8520   19.7620 C   0  0  0  0  0  2  0  0  0  0  0  0
  -24.7190  -30.9920   21.7440 N   0  0  0  0  0  0  0  0  0  0  0  0
  -23.6300  -31.7930   23.5670 O   0  0  0  0  0  0  0  0  0  0  0  0
  -22.9480  -29.2020   22.1010 C   0  0  0  0  0  0  0  0  0  0  0  0
  -21.6400  -28.9110   22.0160 N   0  0  0  0  0  0  0  0  0  0  0  0
  -23.7240  -28.5680   22.8210 O   0  0  0  0  0  0  0  0  0  0  0  0
  -21.0650  -29.4860   21.4160 H   0  0  0  0  0  0  0  0  0  0  0  0
  -18.4210  -27.3450   22.5170 C   0  0  0  0  0  0  0  0  0  0  0  0
  -20.9520  -27.8310   22.7230 C   0  0  0  0  0  3  0  0  0  0  0  0
  -21.1660  -26.4760   22.0090 C   0  0  0  0  0  2  0  0  0  0  0  0
  -20.0570  -26.1370   21.0090 C   0  0  0  0  0  2  0  0  0  0  0  0
  -18.6970  -26.0860   21.7110 C   0  0  0  0  0  2  0  0  0  0  0  0
  -19.4790  -28.1710   22.9790 C   0  0  0  0  0  0  0  0  0  0  0  0
  -19.1640  -29.3500   23.6920 C   0  0  0  0  0  3  0  0  0  0  0  0
  -17.8260  -29.7010   23.9490 C   0  0  0  0  0  3  0  0  0  0  0  0
  -16.7840  -28.8680   23.5040 C   0  0  0  0  0  3  0  0  0  0  0  0
  -17.0820  -27.6930   22.7920 C   0  0  0  0  0  3  0  0  0  0  0  0
  -25.9660  -32.3230   23.5310 C   0  0  0  0  0  3  0  0  0  0  0  0
  -25.6080  -33.6780   23.9710 N   0  0  0  0  0  0  0  0  0  0  0  0
  -25.8430  -34.7940   23.2660 C   0  0  0  0  0  0  0  0  0  0  0  0
  -26.4560  -34.7930   22.1950 O   0  0  0  0  0  0  0  0  0  0  0  0
  -25.0590  -33.7490   24.8150 H   0  0  0  0  0  0  0  0  0  0  0  0
  -24.0120  -36.5140   23.1170 C   0  0  0  0  0  1  0  0  0  0  0  0
  -25.3100  -36.1210   23.8410 C   0  0  0  0  0  3  0  0  0  0  0  0
  -27.4340  -37.0660   24.6340 C   0  0  0  0  0  1  0  0  0  0  0  0
  -26.2830  -37.2310   23.7520 N   0  0  0  0  0  0  0  0  0  0  0  0
  -25.8350  -38.1160   23.9790 H   0  0  0  0  0  0  0  0  0  0  0  0
  -26.5860  -31.4960   24.7240 C   0  0  1  0  0  0  0  0  0  0  0  0
  -25.5670  -31.1350   25.8290 C   0  0  0  0  0  1  0  0  0  0  0  0
  -27.2090  -30.1770   24.2090 C   0  0  0  0  0  1  0  0  0  0  0  0
  -27.7310  -32.3030   25.3810 C   0  0  0  0  0  1  0  0  0  0  0  0
  1  4  1  0
  2  1  2  0
  3  8  1  0
  4  6  1  0
  5  2  1  0
  5  7  1  0
  7  3  1  0
  7  6  1  0
  8  9  1  0
  8 10  1  0
 12 14  2  0
 13 15  1  0
 14 11  1  0
 14  3  1  0
 15 26  1  0
 15 11  2  0
 16 13  2  0
 16 12  1  0
 17 16  1  0
 18 24  1  0
 18 26  1  0
 19 24  1  0
 20 21  1  0
 20 19  1  0
 22 21  1  0
 22 31  1  0
 22 23  1  0
 24 23  1  0
 25 18  2  0
 26 27  1  0
 28 53  1  0
 28 29  2  0
 29 48  1  0
 30 33  1  0
 30 29  1  0
 31 32  1  0
 31 28  1  0
 32 30  2  0
 33 34  1  0
 34 35  2  0
 36 35  1  0
 37 36  2  0
 38 37  1  0
 38 33  2  0
 39 36  1  0
 39 40  1  0
 40 41  1  0
 41 42  2  0
 43 42  1  0
 43 47  1  0
 44 43  2  0
 45 40  2  0
 45 44  1  0
 46 45  1  0
 48 49  1  0
 49 51  1  0
 49 52  1  0
 50 48  2  0
 53 54  1  0
 55 53  1  0
 56  2  1  0
 57 59  1  0
 57 56  1  0
 58 69  2  0
 59 64  1  0
 60 68  1  0
 60 70  1  0
 61 67  1  0
 61 63  1  0
 62 68  1  0
 63 62  1  0
 64 63  2  0
 65 66  1  0
 65 59  2  0
 66 61  2  0
 67 60  1  0
 68 58  1  0
 70 72  2  0
 71 70  1  0
 73 71  1  0
 74 83  2  0
 74 79  1  0
 75 71  1  0
 75 79  1  0
 76 75  1  0
 77 78  1  0
 77 76  1  0
 78 74  1  0
 79 80  2  0
 80 81  1  0
 82 81  2  0
 83 82  1  0
 84 58  1  0
 84 85  1  0
 84 94  1  0
 85 88  1  0
 86 90  1  0
 86 85  1  0
 87 86  2  0
 90 89  1  0
 92 90  1  0
 92 93  1  0
 92 91  1  0
 94 97  1  1
 94 95  1  0
 96 94  1  0
M  ISO  4  18 100  26 100  56 101  57 101
M  END
>  <TORSDO>  (70) 
F 18

>  <SCORE>  (70) 
-9.374

>  <name>  (70) 
69

>  <ligand_id>  (70) 
69

>  <original_smiles>  (70) 
[H]C1=C(C([H])([H])Oc2c([H])c([H])c3c(c2[H])C([H])([H])N(C(=O)C([H])(N([H])C(=O)C([H])(N([H])C([H])([H])[H])C([H])([H])[H])C(C([H])([H])[H])(C([H])([H])[H])C([H])([H])[H])C([H])(C(=O)N([H])C2([H])c4c([H])c([H])c([H])c([H])c4C([H])([H])C([H])([H])C2([H])[H])C3([H])[H])C([H])([H])N(C(c2c([H])c(F)c([H])c(N([H])C(=O)N3C([H])([H])C([H])([H])C([H])([H])C([H])(n4nc(-c5c([H])c([H])c(Oc6c([H])c([H])c(F)c([H])c6F)c([H])c5[H])c(C(=O)N([H])[H])c4N([H])[H])C3([H])[H])c2[H])=[N+]([H])[H])C([H])([H])C1([H])[H]

>  <smiles>  (70) 
[H]C1=C(C([H])([H])Oc2c([H])c([H])c3c(c2[H])C([H])([H])N(C(=O)C([H])(N([H])C(=O)C([H])(N([H])C([H])([H])[H])C([H])([H])[H])C(C([H])([H])[H])(C([H])([H])[H])C([H])([H])[H])C([H])(C(=O)N([H])C2([H])c4c([H])c([H])c([H])c([H])c4C([H])([H])C([H])([H])C2([H])[H])C3([H])[H])C([H])([H])N(C(c2c([H])c(F)c([H])c(N([H])C(=O)N3C([H])([H])C([H])([H])C([H])([H])C([H])(n4nc(-c5c([H])c([H])c(Oc6c([H])c([H])c(F)c([H])c6F)c([H])c5[H])c(C(=O)N([H])[H])c4N([H])[H])C3([H])[H])c2[H])=[N+]([H])[H])C([H])([H])C1([H])[H]

$$$$
70:0:0
     RDKit          3D

 99108  0  0  1  0  0  0  0  0999 V2000
  -29.5990  -22.7810   20.2410 C   0  0  0  0  0  0  0  0  0  0  0  0
  -30.1450  -20.7090   21.7420 C   0  0  0  0  0  3  0  0  0  0  0  0
  -29.4990  -24.3880   21.9600 C   0  0  0  0  0  2  0  0  0  0  0  0
  -30.1670  -23.1110   22.4940 C   0  0  0  0  0  2  0  0  0  0  0  0
  -29.6670  -24.3400   20.4480 C   0  0  1  0  0  0  0  0  0  0  0  0
  -31.1110  -24.7600   20.0490 C   0  0  0  0  0  1  0  0  0  0  0  0
  -29.9710  -22.0610   21.4650 N   0  0  0  0  0  0  0  0  0  0  0  0
  -30.7720  -20.4100   22.8970 N   0  0  0  0  0  0  0  0  0  0  0  0
  -29.3880  -22.2350   19.1570 O   0  0  0  0  0  0  0  0  0  0  0  0
  -30.9140  -19.4390   23.1230 H   0  0  0  0  0  0  0  0  0  0  0  0
  -31.2350  -21.0880   23.4810 H   0  0  0  0  0  0  0  0  0  0  0  0
  -30.2420  -18.1770   21.1800 C   0  0  0  0  0  3  0  0  0  0  0  0
  -28.5070  -19.5900   20.1940 C   0  0  0  0  0  3  0  0  0  0  0  0
  -28.4780  -17.1810   19.8480 C   0  0  0  0  0  3  0  0  0  0  0  0
  -29.6790  -19.4960   20.9770 C   0  0  0  0  0  0  0  0  0  0  0  0
  -29.6310  -16.9920   20.6410 C   0  0  0  0  0  0  0  0  0  0  0  0
  -27.9340  -18.4530   19.6120 C   0  0  0  0  0  0  0  0  0  0  0  0
  -26.8090  -18.5800   18.8640 F   0  0  0  0  0  0  0  0  0  0  0  0
  -30.6410  -14.6630   20.3620 C   0  0  0  0  0  0  0  0  0  0  0  0
  -30.4160  -12.4750   19.1960 C   0  0  0  0  0  2  0  0  0  0  0  0
  -29.4320  -12.6440   18.0140 C   0  0  0  0  0  2  0  0  0  0  0  0
  -27.9590  -12.4930   18.4580 C   0  0  0  0  0  2  0  0  0  0  0  0
  -27.6480  -13.2730   19.7630 C   0  0  0  0  0  3  0  0  0  0  0  0
  -28.7400  -13.0500   20.8320 C   0  0  0  0  0  2  0  0  0  0  0  0
  -30.0360  -13.4380   20.2490 N   0  0  0  0  0  0  0  0  0  0  0  0
  -31.7370  -14.8940   19.8390 O   0  0  0  0  0  0  0  0  0  0  0  0
  -29.9560  -15.6260   21.0460 N   0  0  0  0  0  0  0  0  0  0  0  0
  -29.2160  -15.1930   21.5810 H   0  0  0  0  0  0  0  0  0  0  0  0
  -25.2710  -13.8740   20.5520 C   0  0  0  0  0  0  0  0  0  0  0  0
  -24.2140  -13.0990   20.9430 C   0  0  0  0  0  0  0  0  0  0  0  0
  -24.6690  -11.7470   20.8660 C   0  0  0  0  0  0  0  0  0  0  0  0
  -26.3070  -12.9960   20.2710 N   0  0  0  0  0  0  0  0  0  0  0  0
  -25.9500  -11.7090   20.5180 N   0  0  0  0  0  0  0  0  0  0  0  0
  -23.9430  -10.4840   21.0470 C   0  0  0  0  0  0  0  0  0  0  0  0
  -24.3850   -9.5080   21.9660 C   0  0  0  0  0  3  0  0  0  0  0  0
  -23.6640   -8.3080   22.1380 C   0  0  0  0  0  3  0  0  0  0  0  0
  -22.4830   -8.0790   21.3910 C   0  0  0  0  0  0  0  0  0  0  0  0
  -22.0590   -9.0450   20.4620 C   0  0  0  0  0  3  0  0  0  0  0  0
  -22.7820  -10.2360   20.2880 C   0  0  0  0  0  3  0  0  0  0  0  0
  -21.7260   -6.9360   21.4790 O   0  0  0  0  0  0  0  0  0  0  0  0
  -21.6630   -6.1970   22.6330 C   0  0  0  0  0  0  0  0  0  0  0  0
  -21.1780   -6.7420   23.8420 C   0  0  0  0  0  3  0  0  0  0  0  0
  -21.0660   -5.9290   24.9860 C   0  0  0  0  0  3  0  0  0  0  0  0
  -21.4270   -4.5700   24.9220 C   0  0  0  0  0  0  0  0  0  0  0  0
  -21.9030   -4.0220   23.7150 C   0  0  0  0  0  3  0  0  0  0  0  0
  -22.0170   -4.8330   22.5760 C   0  0  0  0  0  0  0  0  0  0  0  0
  -22.4580   -4.2970   21.4110 F   0  0  0  0  0  0  0  0  0  0  0  0
  -21.3130   -3.7840   26.0170 F   0  0  0  0  0  0  0  0  0  0  0  0
  -22.8290  -13.5760   21.2680 C   0  0  0  0  0  0  0  0  0  0  0  0
  -22.1200  -12.8710   22.1420 N   0  0  0  0  0  0  0  0  0  0  0  0
  -22.3830  -14.6150   20.7810 O   0  0  0  0  0  0  0  0  0  0  0  0
  -22.4940  -12.0420   22.5830 H   0  0  0  0  0  0  0  0  0  0  0  0
  -21.1860  -13.1740   22.3810 H   0  0  0  0  0  0  0  0  0  0  0  0
  -25.4160  -15.2480   20.3930 N   0  0  0  0  0  0  0  0  0  0  0  0
  -24.5980  -15.8420   20.4850 H   0  0  0  0  0  0  0  0  0  0  0  0
  -26.1260  -15.6670   19.8130 H   0  0  0  0  0  0  0  0  0  0  0  0
  -28.7890  -25.3510   18.2180 C   0  0  0  0  0  1  0  0  0  0  0  0
  -28.5600  -25.2600   19.7380 C   0  0  0  0  0  3  0  0  0  0  0  0
  -28.4720  -26.6420   20.2390 O   0  0  0  0  0  0  0  0  0  0  0  0
  -24.5950  -31.8800   23.2560 C   0  0  0  0  0  0  0  0  0  0  0  0
  -27.2850  -27.3930   20.1760 C   0  0  0  0  0  0  0  0  0  0  0  0
  -23.4030  -30.4780   21.6030 C   0  0  0  0  0  3  0  0  0  0  0  0
  -24.8760  -28.9440   20.1680 C   0  0  0  0  0  0  0  0  0  0  0  0
  -25.9340  -30.8270   21.4250 C   0  0  0  0  0  2  0  0  0  0  0  0
  -26.0260  -29.4520   20.7750 C   0  0  0  0  0  0  0  0  0  0  0  0
  -27.2240  -28.6850   20.7820 C   0  0  0  0  0  3  0  0  0  0  0  0
  -26.1060  -26.9310   19.5380 C   0  0  0  0  0  3  0  0  0  0  0  0
  -24.9150  -27.6890   19.5360 C   0  0  0  0  0  3  0  0  0  0  0  0
  -23.6180  -29.7870   20.2260 C   0  0  0  0  0  2  0  0  0  0  0  0
  -24.6630  -31.0790   22.1530 N   0  0  0  0  0  0  0  0  0  0  0  0
  -23.5110  -32.1500   23.7930 O   0  0  0  0  0  0  0  0  0  0  0  0
  -22.7470  -29.4610   22.5610 C   0  0  0  0  0  0  0  0  0  0  0  0
  -21.4220  -29.2790   22.4340 N   0  0  0  0  0  0  0  0  0  0  0  0
  -23.4280  -28.8330   23.3760 O   0  0  0  0  0  0  0  0  0  0  0  0
  -20.9310  -29.8350   21.7460 H   0  0  0  0  0  0  0  0  0  0  0  0
  -18.0490  -28.0980   22.9520 C   0  0  0  0  0  0  0  0  0  0  0  0
  -20.6110  -28.3400   23.2040 C   0  0  0  0  0  3  0  0  0  0  0  0
  -20.6980  -26.9150   22.6130 C   0  0  0  0  0  2  0  0  0  0  0  0
  -19.5880  -26.6100   21.6020 C   0  0  0  0  0  2  0  0  0  0  0  0
  -18.2120  -26.7570   22.2590 C   0  0  0  0  0  2  0  0  0  0  0  0
  -19.1750  -28.8480   23.3830 C   0  0  0  0  0  0  0  0  0  0  0  0
  -18.9690  -30.1040   23.9920 C   0  0  0  0  0  3  0  0  0  0  0  0
  -17.6700  -30.6120   24.1730 C   0  0  0  0  0  3  0  0  0  0  0  0
  -16.5560  -29.8600   23.7570 C   0  0  0  0  0  3  0  0  0  0  0  0
  -16.7480  -28.6040   23.1530 C   0  0  0  0  0  3  0  0  0  0  0  0
  -25.8760  -32.5140   23.8840 C   0  0  0  0  0  3  0  0  0  0  0  0
  -25.5690  -33.9130   24.2070 N   0  0  0  0  0  0  0  0  0  0  0  0
  -25.9130  -34.9620   23.4490 C   0  0  0  0  0  0  0  0  0  0  0  0
  -26.5920  -34.8550   22.4240 O   0  0  0  0  0  0  0  0  0  0  0  0
  -24.9640  -34.0720   25.0000 H   0  0  0  0  0  0  0  0  0  0  0  0
  -24.1990  -36.7570   23.0580 C   0  0  0  0  0  1  0  0  0  0  0  0
  -25.4240  -36.3540   23.8960 C   0  0  0  0  0  3  0  0  0  0  0  0
  -27.5420  -37.2310   24.7740 C   0  0  0  0  0  1  0  0  0  0  0  0
  -26.4640  -37.4010   23.8020 N   0  0  0  0  0  0  0  0  0  0  0  0
  -26.0610  -38.3250   23.9310 H   0  0  0  0  0  0  0  0  0  0  0  0
  -26.3900  -31.7470   25.1630 C   0  0  1  0  0  0  0  0  0  0  0  0
  -25.2850  -31.5060   26.2180 C   0  0  0  0  0  1  0  0  0  0  0  0
  -26.9840  -30.3720   24.7780 C   0  0  0  0  0  1  0  0  0  0  0  0
  -27.5380  -32.5450   25.8280 C   0  0  0  0  0  1  0  0  0  0  0  0
  1  5  1  0
  1  7  1  0
  2  8  1  0
  3  4  1  0
  5  6  1  1
  5  3  1  0
  7  2  1  0
  7  4  1  0
  8 10  1  0
  8 11  1  0
  9  1  2  0
 13 15  2  0
 14 16  1  0
 15 12  1  0
 15  2  1  0
 16 27  1  0
 16 12  2  0
 17 14  2  0
 17 13  1  0
 18 17  1  0
 19 27  1  0
 20 25  1  0
 21 22  1  0
 21 20  1  0
 23 22  1  0
 23 32  1  0
 23 24  1  0
 25 19  1  0
 25 24  1  0
 26 19  2  0
 27 28  1  0
 29 30  2  0
 30 49  1  0
 31 30  1  0
 31 34  1  0
 32 33  1  0
 32 29  1  0
 33 31  2  0
 34 35  1  0
 35 36  2  0
 37 40  1  0
 37 36  1  0
 38 37  2  0
 39 38  1  0
 39 34  2  0
 40 41  1  0
 41 42  1  0
 42 43  2  0
 44 43  1  0
 44 48  1  0
 45 44  2  0
 46 41  2  0
 46 45  1  0
 47 46  1  0
 49 50  1  0
 50 53  1  0
 50 52  1  0
 51 49  2  0
 54 55  1  0
 54 29  1  0
 56 54  1  0
 58 57  1  0
 58 59  1  0
 58  5  1  0
 60 71  2  0
 61 59  1  0
 61 66  1  0
 62 70  1  0
 62 72  1  0
 63 69  1  0
 63 65  1  0
 64 70  1  0
 65 66  2  0
 65 64  1  0
 67 61  2  0
 68 67  1  0
 68 63  2  0
 69 62  1  0
 70 60  1  0
 72 74  2  0
 73 72  1  0
 75 73  1  0
 76 85  2  0
 76 81  1  0
 77 73  1  0
 77 81  1  0
 78 77  1  0
 79 80  1  0
 79 78  1  0
 80 76  1  0
 81 82  2  0
 82 83  1  0
 84 83  2  0
 85 84  1  0
 86 60  1  0
 86 87  1  0
 86 96  1  0
 87 90  1  0
 88 92  1  0
 88 87  1  0
 89 88  2  0
 92 91  1  0
 94 92  1  0
 94 95  1  0
 94 93  1  0
 96 99  1  1
 96 97  1  0
 98 96  1  0
M  ISO  4  19 100  27 100  58 101  59 101
M  END
>  <TORSDO>  (71) 
F 18

>  <SCORE>  (71) 
-15.517

>  <name>  (71) 
70

>  <ligand_id>  (71) 
70

>  <original_smiles>  (71) 
[H]c1c([H])c([H])c2c(c1[H])C([H])([H])C([H])([H])C([H])([H])C2([H])N([H])C(=O)C1([H])N(C(=O)C([H])(N([H])C(=O)C([H])(N([H])C([H])([H])[H])C([H])([H])[H])C(C([H])([H])[H])(C([H])([H])[H])C([H])([H])[H])C([H])([H])c2c([H])c(OC([H])(C([H])([H])[H])C3(C([H])([H])[H])C(=O)N(C(c4c([H])c(F)c([H])c(N([H])C(=O)N5C([H])([H])C([H])([H])C([H])([H])C([H])(n6nc(-c7c([H])c([H])c(Oc8c([H])c([H])c(F)c([H])c8F)c([H])c7[H])c(C(=O)N([H])[H])c6N([H])[H])C5([H])[H])c4[H])=[N+]([H])[H])C([H])([H])C3([H])[H])c([H])c([H])c2C1([H])[H]

>  <smiles>  (71) 
[H]c1c([H])c([H])c2c(c1[H])C([H])([H])C([H])([H])C([H])([H])C2([H])N([H])C(=O)C1([H])N(C(=O)C([H])(N([H])C(=O)C([H])(N([H])C([H])([H])[H])C([H])([H])[H])C(C([H])([H])[H])(C([H])([H])[H])C([H])([H])[H])C([H])([H])c2c([H])c(OC([H])(C([H])([H])[H])C3(C([H])([H])[H])C(=O)N(C(c4c([H])c(F)c([H])c(N([H])C(=O)N5C([H])([H])C([H])([H])C([H])([H])C([H])(n6nc(-c7c([H])c([H])c(Oc8c([H])c([H])c(F)c([H])c8F)c([H])c7[H])c(C(=O)N([H])[H])c6N([H])[H])C5([H])[H])c4[H])=[N+]([H])[H])C([H])([H])C3([H])[H])c([H])c([H])c2C1([H])[H]

$$$$
71:0:0
     RDKit          3D

 96105  0  0  1  0  0  0  0  0999 V2000
  -28.9510  -20.6160   20.1340 C   0  0  0  0  0  3  0  0  0  0  0  0
  -28.4270  -23.1650   19.7480 C   0  0  0  0  0  2  0  0  0  0  0  0
  -29.1740  -22.8260   21.6490 C   0  0  0  0  0  2  0  0  0  0  0  0
  -28.2020  -23.9220   21.0840 C   0  0  2  0  0  0  0  0  0  0  0  0
  -26.7660  -23.8120   21.6220 C   0  0  0  0  0  1  0  0  0  0  0  0
  -28.8250  -21.9470   20.5130 N   0  0  0  0  0  0  0  0  0  0  0  0
  -28.3310  -20.3320   18.9820 N   0  0  0  0  0  0  0  0  0  0  0  0
  -28.2780  -19.3740   18.6780 H   0  0  0  0  0  0  0  0  0  0  0  0
  -27.7340  -21.0130   18.5420 H   0  0  0  0  0  0  0  0  0  0  0  0
  -31.0640  -17.2030   21.9310 C   0  0  0  0  0  3  0  0  0  0  0  0
  -31.3100  -18.5130   22.3890 C   0  0  0  0  0  3  0  0  0  0  0  0
  -29.4380  -18.1060   20.3630 C   0  0  0  0  0  3  0  0  0  0  0  0
  -29.6640  -19.4590   20.8130 C   0  0  0  0  0  0  0  0  0  0  0  0
  -30.1370  -16.9790   20.8940 C   0  0  0  0  0  0  0  0  0  0  0  0
  -30.6380  -19.6260   21.8390 C   0  0  0  0  0  0  0  0  0  0  0  0
  -30.9710  -20.8470   22.3160 F   0  0  0  0  0  0  0  0  0  0  0  0
  -30.6320  -14.5950   20.1490 C   0  0  0  0  0  0  0  0  0  0  0  0
  -30.3370  -12.4080   19.0040 C   0  0  0  0  0  2  0  0  0  0  0  0
  -29.3390  -12.6000   17.8340 C   0  0  0  0  0  2  0  0  0  0  0  0
  -27.8770  -12.4840   18.3180 C   0  0  0  0  0  2  0  0  0  0  0  0
  -27.6050  -13.3020   19.6100 C   0  0  0  0  0  3  0  0  0  0  0  0
  -28.7100  -13.0500   20.6610 C   0  0  0  0  0  2  0  0  0  0  0  0
  -29.9930  -13.3940   20.0350 N   0  0  0  0  0  0  0  0  0  0  0  0
  -31.7860  -14.7680   19.7460 O   0  0  0  0  0  0  0  0  0  0  0  0
  -29.8190  -15.6360   20.4770 N   0  0  0  0  0  0  0  0  0  0  0  0
  -28.8380  -15.4080   20.4790 H   0  0  0  0  0  0  0  0  0  0  0  0
  -25.2540  -13.9390   20.4400 C   0  0  0  0  0  0  0  0  0  0  0  0
  -24.1900  -13.1700   20.8400 C   0  0  0  0  0  0  0  0  0  0  0  0
  -24.6300  -11.8140   20.7710 C   0  0  0  0  0  0  0  0  0  0  0  0
  -26.2740  -13.0430   20.1510 N   0  0  0  0  0  0  0  0  0  0  0  0
  -25.9060  -11.7620   20.4050 N   0  0  0  0  0  0  0  0  0  0  0  0
  -23.8980  -10.5570   20.9750 C   0  0  0  0  0  0  0  0  0  0  0  0
  -24.3550   -9.5820   21.8880 C   0  0  0  0  0  3  0  0  0  0  0  0
  -23.6270   -8.3900   22.0860 C   0  0  0  0  0  3  0  0  0  0  0  0
  -22.4280   -8.1630   21.3720 C   0  0  0  0  0  0  0  0  0  0  0  0
  -21.9870   -9.1270   20.4500 C   0  0  0  0  0  3  0  0  0  0  0  0
  -22.7140  -10.3130   20.2490 C   0  0  0  0  0  3  0  0  0  0  0  0
  -21.6710   -7.0210   21.4780 O   0  0  0  0  0  0  0  0  0  0  0  0
  -21.6530   -6.2750   22.6320 C   0  0  0  0  0  0  0  0  0  0  0  0
  -21.2530   -6.8260   23.8680 C   0  0  0  0  0  3  0  0  0  0  0  0
  -21.1760   -6.0080   25.0130 C   0  0  0  0  0  3  0  0  0  0  0  0
  -21.4950   -4.6400   24.9200 C   0  0  0  0  0  0  0  0  0  0  0  0
  -21.8890   -4.0860   23.6900 C   0  0  0  0  0  3  0  0  0  0  0  0
  -21.9640   -4.9050   22.5470 C   0  0  0  0  0  0  0  0  0  0  0  0
  -22.3260   -4.3640   21.3590 F   0  0  0  0  0  0  0  0  0  0  0  0
  -21.4120   -3.8500   26.0180 F   0  0  0  0  0  0  0  0  0  0  0  0
  -22.8110  -13.6640   21.1640 C   0  0  0  0  0  0  0  0  0  0  0  0
  -22.1050  -12.9720   22.0540 N   0  0  0  0  0  0  0  0  0  0  0  0
  -22.3670  -14.6950   20.6650 O   0  0  0  0  0  0  0  0  0  0  0  0
  -22.4720  -12.1370   22.4820 H   0  0  0  0  0  0  0  0  0  0  0  0
  -21.1780  -13.2860   22.3060 H   0  0  0  0  0  0  0  0  0  0  0  0
  -25.4310  -15.3080   20.2760 N   0  0  0  0  0  0  0  0  0  0  0  0
  -24.6870  -15.9690   20.4720 H   0  0  0  0  0  0  0  0  0  0  0  0
  -26.2600  -15.7510   19.9030 H   0  0  0  0  0  0  0  0  0  0  0  0
  -28.6320  -25.4540   21.2670 C   0  0  0  0  0  2  0  0  0  0  0  0
  -28.3970  -26.5010   20.2570 O   0  0  0  0  0  0  0  0  0  0  0  0
  -24.6040  -31.8900   23.2510 C   0  0  0  0  0  0  0  0  0  0  0  0
  -27.2670  -27.3210   20.2980 C   0  0  0  0  0  0  0  0  0  0  0  0
  -23.4240  -30.4730   21.6000 C   0  0  0  0  0  3  0  0  0  0  0  0
  -24.9030  -28.9160   20.2090 C   0  0  0  0  0  0  0  0  0  0  0  0
  -25.9570  -30.8060   21.4500 C   0  0  0  0  0  2  0  0  0  0  0  0
  -26.0530  -29.4150   20.8370 C   0  0  0  0  0  0  0  0  0  0  0  0
  -27.2370  -28.6230   20.8840 C   0  0  0  0  0  3  0  0  0  0  0  0
  -26.1070  -26.8830   19.6280 C   0  0  0  0  0  3  0  0  0  0  0  0
  -24.9300  -27.6540   19.5970 C   0  0  0  0  0  3  0  0  0  0  0  0
  -23.6640  -29.7890   20.2260 C   0  0  0  0  0  2  0  0  0  0  0  0
  -24.6820  -31.0740   22.1600 N   0  0  0  0  0  0  0  0  0  0  0  0
  -23.5160  -32.1640   23.7730 O   0  0  0  0  0  0  0  0  0  0  0  0
  -22.7530  -29.4640   22.5620 C   0  0  0  0  0  0  0  0  0  0  0  0
  -21.4270  -29.2870   22.4290 N   0  0  0  0  0  0  0  0  0  0  0  0
  -23.4270  -28.8430   23.3890 O   0  0  0  0  0  0  0  0  0  0  0  0
  -20.9380  -29.8370   21.7360 H   0  0  0  0  0  0  0  0  0  0  0  0
  -18.0520  -28.1020   22.9370 C   0  0  0  0  0  0  0  0  0  0  0  0
  -20.6110  -28.3520   23.2030 C   0  0  0  0  0  3  0  0  0  0  0  0
  -20.7050  -26.9190   22.6300 C   0  0  0  0  0  2  0  0  0  0  0  0
  -19.6060  -26.6020   21.6130 C   0  0  0  0  0  2  0  0  0  0  0  0
  -18.2220  -26.7520   22.2540 C   0  0  0  0  0  2  0  0  0  0  0  0
  -19.1740  -28.8570   23.3690 C   0  0  0  0  0  0  0  0  0  0  0  0
  -18.9660  -30.1190   23.9680 C   0  0  0  0  0  3  0  0  0  0  0  0
  -17.6680  -30.6280   24.1430 C   0  0  0  0  0  3  0  0  0  0  0  0
  -16.5580  -29.8700   23.7290 C   0  0  0  0  0  3  0  0  0  0  0  0
  -16.7510  -28.6130   23.1290 C   0  0  0  0  0  3  0  0  0  0  0  0
  -25.8810  -32.5310   23.8790 C   0  0  0  0  0  3  0  0  0  0  0  0
  -25.5690  -33.9330   24.1960 N   0  0  0  0  0  0  0  0  0  0  0  0
  -25.9070  -34.9800   23.4310 C   0  0  0  0  0  0  0  0  0  0  0  0
  -26.5910  -34.8690   22.4110 O   0  0  0  0  0  0  0  0  0  0  0  0
  -24.9750  -34.0920   24.9950 H   0  0  0  0  0  0  0  0  0  0  0  0
  -24.1920  -36.7720   23.0260 C   0  0  0  0  0  1  0  0  0  0  0  0
  -25.4130  -36.3710   23.8700 C   0  0  0  0  0  3  0  0  0  0  0  0
  -27.5230  -37.2590   24.7560 C   0  0  0  0  0  1  0  0  0  0  0  0
  -26.4510  -37.4220   23.7780 N   0  0  0  0  0  0  0  0  0  0  0  0
  -26.0400  -38.3430   23.9140 H   0  0  0  0  0  0  0  0  0  0  0  0
  -26.3870  -31.7700   25.1660 C   0  0  1  0  0  0  0  0  0  0  0  0
  -25.2820  -31.5390   26.2240 C   0  0  0  0  0  1  0  0  0  0  0  0
  -26.9810  -30.3910   24.7950 C   0  0  0  0  0  1  0  0  0  0  0  0
  -27.5260  -32.5730   25.8380 C   0  0  0  0  0  1  0  0  0  0  0  0
  1  7  1  0
  1  6  1  0
  1 13  1  0
  2  6  1  0
  2  4  1  0
  4 55  1  0
  4  5  1  1
  4  3  1  0
  6  3  1  0
  8  7  1  0
  9  7  1  0
 10 11  1  0
 12 13  2  0
 12 14  1  0
 13 15  1  0
 14 10  2  0
 15 16  1  0
 15 11  2  0
 17 25  1  0
 18 23  1  0
 19 20  1  0
 19 18  1  0
 21 20  1  0
 21 30  1  0
 21 22  1  0
 23 17  1  0
 23 22  1  0
 24 17  2  0
 25 26  1  0
 25 14  1  0
 27 28  2  0
 28 47  1  0
 29 28  1  0
 29 32  1  0
 30 31  1  0
 30 27  1  0
 31 29  2  0
 32 33  1  0
 33 34  2  0
 35 38  1  0
 35 34  1  0
 36 35  2  0
 37 36  1  0
 37 32  2  0
 38 39  1  0
 39 40  1  0
 40 41  2  0
 42 41  1  0
 42 46  1  0
 43 42  2  0
 44 39  2  0
 44 43  1  0
 45 44  1  0
 47 48  1  0
 48 51  1  0
 48 50  1  0
 49 47  2  0
 52 27  1  0
 52 53  1  0
 54 52  1  0
 56 58  1  0
 56 55  1  0
 57 68  2  0
 58 63  1  0
 59 67  1  0
 59 69  1  0
 60 66  1  0
 60 62  1  0
 61 67  1  0
 62 63  2  0
 62 61  1  0
 64 58  2  0
 65 64  1  0
 65 60  2  0
 66 59  1  0
 67 57  1  0
 69 71  2  0
 70 69  1  0
 72 70  1  0
 73 82  2  0
 73 78  1  0
 74 70  1  0
 74 78  1  0
 75 74  1  0
 76 77  1  0
 76 75  1  0
 77 73  1  0
 78 79  2  0
 79 80  1  0
 81 80  2  0
 82 81  1  0
 83 57  1  0
 83 84  1  0
 83 93  1  0
 84 87  1  0
 85 89  1  0
 85 84  1  0
 86 85  2  0
 89 88  1  0
 91 89  1  0
 91 92  1  0
 91 90  1  0
 93 96  1  1
 93 94  1  0
 95 93  1  0
M  ISO  4  17 100  25 100  55 101  56 101
M  END
>  <TORSDO>  (72) 
F 18

>  <SCORE>  (72) 
-14.925

>  <name>  (72) 
71

>  <ligand_id>  (72) 
71

>  <original_smiles>  (72) 
[H]c1c([H])c([H])c2c(c1[H])C([H])([H])C([H])([H])C([H])([H])C2([H])N([H])C(=O)C1([H])N(C(=O)C([H])(N([H])C(=O)C([H])(N([H])C([H])([H])[H])C([H])([H])[H])C(C([H])([H])[H])(C([H])([H])[H])C([H])([H])[H])C([H])([H])c2c([H])c(OC([H])([H])C3(C([H])([H])[H])C([H])([H])N(C(c4c([H])c(N([H])C(=O)N5C([H])([H])C([H])([H])C([H])([H])C([H])(n6nc(-c7c([H])c([H])c(Oc8c([H])c([H])c(F)c([H])c8F)c([H])c7[H])c(C(=O)N([H])[H])c6N([H])[H])C5([H])[H])c([H])c([H])c4F)=[N+]([H])[H])C3([H])[H])c([H])c([H])c2C1([H])[H]

>  <smiles>  (72) 
[H]c1c([H])c([H])c2c(c1[H])C([H])([H])C([H])([H])C([H])([H])C2([H])N([H])C(=O)C1([H])N(C(=O)C([H])(N([H])C(=O)C([H])(N([H])C([H])([H])[H])C([H])([H])[H])C(C([H])([H])[H])(C([H])([H])[H])C([H])([H])[H])C([H])([H])c2c([H])c(OC([H])([H])C3(C([H])([H])[H])C([H])([H])N(C(c4c([H])c(N([H])C(=O)N5C([H])([H])C([H])([H])C([H])([H])C([H])(n6nc(-c7c([H])c([H])c(Oc8c([H])c([H])c(F)c([H])c8F)c([H])c7[H])c(C(=O)N([H])[H])c6N([H])[H])C5([H])[H])c([H])c([H])c4F)=[N+]([H])[H])C3([H])[H])c([H])c([H])c2C1([H])[H]

$$$$
72:0:0
     RDKit          3D

100109  0  0  1  0  0  0  0  0999 V2000
  -31.6210  -20.9040   19.8820 C   0  0  0  0  0  3  0  0  0  0  0  0
  -32.6070  -24.1000   21.4120 C   0  0  0  0  0  2  0  0  0  0  0  0
  -31.6010  -23.4480   22.3680 C   0  0  0  0  0  2  0  0  0  0  0  0
  -32.6390  -23.1580   20.1980 C   0  0  0  0  0  2  0  0  0  0  0  0
  -30.6180  -22.7220   21.4270 C   0  0  0  0  0  3  0  0  0  0  0  0
  -31.5720  -22.1520   20.4410 N   0  0  0  0  0  0  0  0  0  0  0  0
  -32.4620  -20.7240   18.8630 N   0  0  0  0  0  0  0  0  0  0  0  0
  -32.5620  -19.7980   18.4800 H   0  0  0  0  0  0  0  0  0  0  0  0
  -33.0190  -21.4710   18.4880 H   0  0  0  0  0  0  0  0  0  0  0  0
  -31.0670  -19.1420   21.6170 C   0  0  0  0  0  3  0  0  0  0  0  0
  -30.3370  -18.8340   19.3220 C   0  0  0  0  0  3  0  0  0  0  0  0
  -30.7270  -17.7900   21.8990 C   0  0  0  0  0  3  0  0  0  0  0  0
  -30.0180  -17.4830   19.5970 C   0  0  0  0  0  3  0  0  0  0  0  0
  -30.9210  -19.6650   20.3080 C   0  0  0  0  0  0  0  0  0  0  0  0
  -30.2610  -16.9270   20.8750 C   0  0  0  0  0  0  0  0  0  0  0  0
  -30.6930  -14.5100   20.5590 C   0  0  0  0  0  0  0  0  0  0  0  0
  -30.4200  -12.3290   19.4340 C   0  0  0  0  0  2  0  0  0  0  0  0
  -29.4940  -12.5150   18.2130 C   0  0  0  0  0  2  0  0  0  0  0  0
  -28.0180  -12.3620   18.6250 C   0  0  0  0  0  2  0  0  0  0  0  0
  -27.6580  -13.2120   19.8750 C   0  0  0  0  0  3  0  0  0  0  0  0
  -28.7000  -13.0170   21.0010 C   0  0  0  0  0  2  0  0  0  0  0  0
  -30.0300  -13.3230   20.4500 N   0  0  0  0  0  0  0  0  0  0  0  0
  -31.8150  -14.6820   20.0760 O   0  0  0  0  0  0  0  0  0  0  0  0
  -30.0150  -15.5360   21.1250 N   0  0  0  0  0  0  0  0  0  0  0  0
  -29.1520  -15.3040   21.5910 H   0  0  0  0  0  0  0  0  0  0  0  0
  -25.2560  -13.8170   20.5670 C   0  0  0  0  0  0  0  0  0  0  0  0
  -24.1820  -13.0440   20.9180 C   0  0  0  0  0  0  0  0  0  0  0  0
  -24.6380  -11.6910   20.8730 C   0  0  0  0  0  0  0  0  0  0  0  0
  -26.3000  -12.9340   20.3360 N   0  0  0  0  0  0  0  0  0  0  0  0
  -25.9310  -11.6490   20.5770 N   0  0  0  0  0  0  0  0  0  0  0  0
  -23.9050  -10.4280   21.0390 C   0  0  0  0  0  0  0  0  0  0  0  0
  -24.3610   -9.4210   21.9190 C   0  0  0  0  0  3  0  0  0  0  0  0
  -23.6280   -8.2240   22.0760 C   0  0  0  0  0  3  0  0  0  0  0  0
  -22.4270   -8.0280   21.3540 C   0  0  0  0  0  0  0  0  0  0  0  0
  -21.9900   -9.0260   20.4650 C   0  0  0  0  0  3  0  0  0  0  0  0
  -22.7220  -10.2140   20.3050 C   0  0  0  0  0  3  0  0  0  0  0  0
  -21.6630   -6.8890   21.4230 O   0  0  0  0  0  0  0  0  0  0  0  0
  -21.6850   -6.0740   22.5270 C   0  0  0  0  0  0  0  0  0  0  0  0
  -21.4010   -6.5640   23.8210 C   0  0  0  0  0  3  0  0  0  0  0  0
  -21.3660   -5.6790   24.9180 C   0  0  0  0  0  3  0  0  0  0  0  0
  -21.6050   -4.3050   24.7210 C   0  0  0  0  0  0  0  0  0  0  0  0
  -21.8820   -3.8150   23.4330 C   0  0  0  0  0  3  0  0  0  0  0  0
  -21.9190   -4.6970   22.3390 C   0  0  0  0  0  0  0  0  0  0  0  0
  -22.1660   -4.2160   21.0970 F   0  0  0  0  0  0  0  0  0  0  0  0
  -21.5620   -3.4550   25.7720 F   0  0  0  0  0  0  0  0  0  0  0  0
  -22.7850  -13.5240   21.1840 C   0  0  0  0  0  0  0  0  0  0  0  0
  -22.0490  -12.8250   22.0400 N   0  0  0  0  0  0  0  0  0  0  0  0
  -22.3550  -14.5560   20.6710 O   0  0  0  0  0  0  0  0  0  0  0  0
  -22.4090  -11.9910   22.4800 H   0  0  0  0  0  0  0  0  0  0  0  0
  -21.1120  -13.1300   22.2610 H   0  0  0  0  0  0  0  0  0  0  0  0
  -25.4290  -15.1890   20.4090 N   0  0  0  0  0  0  0  0  0  0  0  0
  -24.6640  -15.8450   20.5190 H   0  0  0  0  0  0  0  0  0  0  0  0
  -26.2840  -15.6290   20.0930 H   0  0  0  0  0  0  0  0  0  0  0  0
  -29.6170  -23.7630   20.7730 C   0  0  0  0  0  0  0  0  0  0  0  0
  -29.5390  -23.8620   19.5460 O   0  0  0  0  0  0  0  0  0  0  0  0
  -28.3030  -25.8670   21.3970 C   0  0  0  0  0  3  0  0  0  0  0  0
  -28.8200  -24.6440   21.6850 C   0  0  0  0  0  0  0  0  0  0  0  0
  -28.5920  -24.1610   22.9180 O   0  0  0  0  0  0  0  0  0  0  0  0
  -29.0100  -23.3130   22.9820 H   0  0  0  0  0  0  0  0  0  0  0  0
  -28.3320  -26.5950   20.2200 O   0  0  0  0  0  0  0  0  0  0  0  0
  -24.6170  -31.8680   23.2100 C   0  0  0  0  0  0  0  0  0  0  0  0
  -27.2420  -27.4340   20.1010 C   0  0  0  0  0  0  0  0  0  0  0  0
  -23.4060  -30.4900   21.5500 C   0  0  0  0  0  3  0  0  0  0  0  0
  -24.8580  -28.9610   20.1050 C   0  0  0  0  0  0  0  0  0  0  0  0
  -25.9350  -30.8340   21.3630 C   0  0  0  0  0  2  0  0  0  0  0  0
  -26.0180  -29.4730   20.7040 C   0  0  0  0  0  0  0  0  0  0  0  0
  -27.2160  -28.7200   20.6950 C   0  0  0  0  0  3  0  0  0  0  0  0
  -26.0730  -26.9420   19.4880 C   0  0  0  0  0  3  0  0  0  0  0  0
  -24.8840  -27.6970   19.4880 C   0  0  0  0  0  3  0  0  0  0  0  0
  -23.6150  -29.8230   20.1630 C   0  0  0  0  0  2  0  0  0  0  0  0
  -24.6700  -31.0790   22.0990 N   0  0  0  0  0  0  0  0  0  0  0  0
  -23.5350  -32.1410   23.7500 O   0  0  0  0  0  0  0  0  0  0  0  0
  -22.7430  -29.4650   22.4980 C   0  0  0  0  0  0  0  0  0  0  0  0
  -21.4150  -29.3040   22.3720 N   0  0  0  0  0  0  0  0  0  0  0  0
  -23.4200  -28.8210   23.3030 O   0  0  0  0  0  0  0  0  0  0  0  0
  -20.9300  -29.8740   21.6930 H   0  0  0  0  0  0  0  0  0  0  0  0
  -18.0290  -28.1390   22.8520 C   0  0  0  0  0  0  0  0  0  0  0  0
  -20.5880  -28.3680   23.1320 C   0  0  0  0  0  3  0  0  0  0  0  0
  -20.6780  -26.9410   22.5430 C   0  0  0  0  0  2  0  0  0  0  0  0
  -19.5740  -26.6390   21.5230 C   0  0  0  0  0  2  0  0  0  0  0  0
  -18.1920  -26.7940   22.1640 C   0  0  0  0  0  2  0  0  0  0  0  0
  -19.1540  -28.8840   23.2930 C   0  0  0  0  0  0  0  0  0  0  0  0
  -18.9450  -30.1450   23.8930 C   0  0  0  0  0  3  0  0  0  0  0  0
  -17.6450  -30.6580   24.0580 C   0  0  0  0  0  3  0  0  0  0  0  0
  -16.5340  -29.9090   23.6330 C   0  0  0  0  0  3  0  0  0  0  0  0
  -16.7280  -28.6510   23.0370 C   0  0  0  0  0  3  0  0  0  0  0  0
  -25.9050  -32.4820   23.8400 C   0  0  0  0  0  3  0  0  0  0  0  0
  -26.4480  -31.6600   25.0720 C   0  0  1  0  0  0  0  0  0  0  0  0
  -25.3760  -31.3690   26.1480 C   0  0  0  0  0  1  0  0  0  0  0  0
  -27.0310  -30.3040   24.6080 C   0  0  0  0  0  1  0  0  0  0  0  0
  -27.6070  -32.4320   25.7480 C   0  0  0  0  0  1  0  0  0  0  0  0
  -25.5910  -33.8610   24.2340 N   0  0  0  0  0  0  0  0  0  0  0  0
  -25.9030  -34.9470   23.5130 C   0  0  0  0  0  0  0  0  0  0  0  0
  -26.5580  -34.8930   22.4690 O   0  0  0  0  0  0  0  0  0  0  0  0
  -25.0120  -33.9770   25.0530 H   0  0  0  0  0  0  0  0  0  0  0  0
  -24.1480  -36.7300   23.2640 C   0  0  0  0  0  1  0  0  0  0  0  0
  -25.4100  -36.3120   24.0350 C   0  0  0  0  0  3  0  0  0  0  0  0
  -27.5590  -37.1810   24.8470 C   0  0  0  0  0  1  0  0  0  0  0  0
  -26.4290  -37.3800   23.9420 N   0  0  0  0  0  0  0  0  0  0  0  0
  -26.0180  -38.2880   24.1410 H   0  0  0  0  0  0  0  0  0  0  0  0
  1  7  1  0
  1 14  1  0
  1  6  1  0
  2  3  1  0
  4  6  1  0
  4  2  1  0
  5 54  1  0
  5  3  1  0
  6  5  1  0
  8  7  1  0
  9  7  1  0
 10 12  1  0
 11 13  2  0
 11 14  1  0
 13 15  1  0
 14 10  2  0
 15 24  1  0
 15 12  2  0
 16 24  1  0
 17 22  1  0
 18 19  1  0
 18 17  1  0
 20 19  1  0
 20 29  1  0
 20 21  1  0
 22 16  1  0
 22 21  1  0
 23 16  2  0
 24 25  1  0
 26 27  2  0
 27 46  1  0
 28 27  1  0
 28 31  1  0
 29 26  1  0
 29 30  1  0
 30 28  2  0
 31 32  1  0
 32 33  2  0
 34 37  1  0
 34 33  1  0
 35 34  2  0
 36 35  1  0
 36 31  2  0
 37 38  1  0
 38 39  1  0
 39 40  2  0
 41 40  1  0
 41 45  1  0
 42 41  2  0
 43 38  2  0
 43 42  1  0
 44 43  1  0
 46 47  1  0
 47 50  1  0
 47 49  1  0
 48 46  2  0
 51 52  1  0
 51 26  1  0
 53 51  1  0
 54 57  1  0
 55 54  2  0
 56 57  2  0
 57 58  1  0
 58 59  1  0
 60 56  1  0
 61 72  2  0
 62 60  1  0
 62 67  1  0
 63 71  1  0
 63 73  1  0
 64 70  1  0
 64 66  1  0
 65 71  1  0
 66 65  1  0
 67 66  2  0
 68 62  2  0
 69 68  1  0
 69 64  2  0
 70 63  1  0
 71 61  1  0
 73 75  2  0
 74 73  1  0
 76 74  1  0
 77 86  2  0
 77 82  1  0
 78 74  1  0
 78 82  1  0
 79 78  1  0
 80 81  1  0
 80 79  1  0
 81 77  1  0
 82 83  2  0
 83 84  1  0
 85 84  2  0
 86 85  1  0
 87 61  1  0
 87 92  1  0
 87 88  1  0
 88 91  1  1
 88 89  1  0
 90 88  1  0
 92 95  1  0
 93 97  1  0
 93 92  1  0
 94 93  2  0
 97 96  1  0
 99 97  1  0
 99100  1  0
 99 98  1  0
M  ISO  4  16 100  24 100  56 101  60 101
M  END
>  <TORSDO>  (73) 
F 20

>  <SCORE>  (73) 
-10.965

>  <name>  (73) 
72

>  <ligand_id>  (73) 
72

>  <original_smiles>  (73) 
[H]OC(C(=O)C1([H])N(C(c2c([H])c([H])c(N([H])C(=O)N3C([H])([H])C([H])([H])C([H])([H])C([H])(n4nc(-c5c([H])c([H])c(Oc6c([H])c([H])c(F)c([H])c6F)c([H])c5[H])c(C(=O)N([H])[H])c4N([H])[H])C3([H])[H])c([H])c2[H])=[N+]([H])[H])C([H])([H])C([H])([H])C1([H])[H])=C([H])Oc1c([H])c([H])c2c(c1[H])C([H])([H])N(C(=O)C([H])(N([H])C(=O)C([H])(N([H])C([H])([H])[H])C([H])([H])[H])C(C([H])([H])[H])(C([H])([H])[H])C([H])([H])[H])C([H])(C(=O)N([H])C1([H])c3c([H])c([H])c([H])c([H])c3C([H])([H])C([H])([H])C1([H])[H])C2([H])[H]

>  <smiles>  (73) 
[H]OC(C(=O)C1([H])N(C(c2c([H])c([H])c(N([H])C(=O)N3C([H])([H])C([H])([H])C([H])([H])C([H])(n4nc(-c5c([H])c([H])c(Oc6c([H])c([H])c(F)c([H])c6F)c([H])c5[H])c(C(=O)N([H])[H])c4N([H])[H])C3([H])[H])c([H])c2[H])=[N+]([H])[H])C([H])([H])C([H])([H])C1([H])[H])=C([H])Oc1c([H])c([H])c2c(c1[H])C([H])([H])N(C(=O)C([H])(N([H])C(=O)C([H])(N([H])C([H])([H])[H])C([H])([H])[H])C(C([H])([H])[H])(C([H])([H])[H])C([H])([H])[H])C([H])(C(=O)N([H])C1([H])c3c([H])c([H])c([H])c([H])c3C([H])([H])C([H])([H])C1([H])[H])C2([H])[H]

$$$$
73:0:0
     RDKit          3D

100108  0  0  1  0  0  0  0  0999 V2000
  -28.1310  -22.9710   21.4500 C   0  0  0  0  0  3  0  0  0  0  0  0
  -27.1020  -22.1300   21.2270 C   0  0  0  0  0  0  0  0  0  0  0  0
  -25.8050  -22.4840   21.2870 O   0  0  0  0  0  0  0  0  0  0  0  0
  -25.2740  -21.7180   21.0960 H   0  0  0  0  0  0  0  0  0  0  0  0
  -27.9410  -24.3820   21.8070 C   0  0  0  0  0  0  0  0  0  0  0  0
  -27.8710  -24.7720   22.9760 O   0  0  0  0  0  0  0  0  0  0  0  0
  -27.7790  -25.3810   20.6540 C   0  0  0  0  0  2  0  0  0  0  0  0
  -30.0580  -25.3540   19.5240 C   0  0  0  0  0  1  0  0  0  0  0  0
  -29.7210  -26.8920   21.4790 C   0  0  0  0  0  1  0  0  0  0  0  0
  -29.0310  -26.2280   20.2670 C   0  0  2  0  0  0  0  0  0  0  0  0
  -28.6940  -27.2520   19.3120 O   0  0  0  0  0  0  0  0  0  0  0  0
  -24.5430  -31.6010   23.1320 C   0  0  0  0  0  0  0  0  0  0  0  0
  -27.4760  -27.8780   19.4580 C   0  0  0  0  0  0  0  0  0  0  0  0
  -23.4100  -30.2870   21.3670 C   0  0  0  0  0  3  0  0  0  0  0  0
  -24.9450  -29.0920   19.7200 C   0  0  0  0  0  0  0  0  0  0  0  0
  -25.8740  -30.9320   21.1390 C   0  0  0  0  0  2  0  0  0  0  0  0
  -26.0660  -29.6660   20.3370 C   0  0  0  0  0  0  0  0  0  0  0  0
  -27.3380  -29.0650   20.2090 C   0  0  0  0  0  3  0  0  0  0  0  0
  -26.3460  -27.3210   18.8250 C   0  0  0  0  0  3  0  0  0  0  0  0
  -25.0800  -27.9180   18.9550 C   0  0  0  0  0  3  0  0  0  0  0  0
  -23.6250  -29.7980   19.9070 C   0  0  0  0  0  2  0  0  0  0  0  0
  -24.6270  -30.9470   21.9380 N   0  0  0  0  0  0  0  0  0  0  0  0
  -23.4660  -31.6980   23.7330 O   0  0  0  0  0  0  0  0  0  0  0  0
  -22.9050  -29.1010   22.2150 C   0  0  0  0  0  0  0  0  0  0  0  0
  -21.6330  -28.7250   22.0110 N   0  0  0  0  0  0  0  0  0  0  0  0
  -23.6560  -28.5240   23.0050 O   0  0  0  0  0  0  0  0  0  0  0  0
  -21.0840  -29.2580   21.3460 H   0  0  0  0  0  0  0  0  0  0  0  0
  -18.5020  -26.9290   22.2030 C   0  0  0  0  0  0  0  0  0  0  0  0
  -20.9540  -27.6050   22.6580 C   0  0  0  0  0  3  0  0  0  0  0  0
  -21.3380  -26.2610   21.9940 C   0  0  0  0  0  2  0  0  0  0  0  0
  -20.3630  -25.8230   20.8960 C   0  0  0  0  0  2  0  0  0  0  0  0
  -18.9450  -25.6830   21.4580 C   0  0  0  0  0  2  0  0  0  0  0  0
  -19.4410  -27.8430   22.7470 C   0  0  0  0  0  0  0  0  0  0  0  0
  -18.9710  -29.0080   23.3930 C   0  0  0  0  0  3  0  0  0  0  0  0
  -17.5890  -29.2670   23.4950 C   0  0  0  0  0  3  0  0  0  0  0  0
  -16.6630  -28.3480   22.9680 C   0  0  0  0  0  3  0  0  0  0  0  0
  -17.1190  -27.1790   22.3340 C   0  0  0  0  0  3  0  0  0  0  0  0
  -25.7900  -32.2780   23.7880 C   0  0  0  0  0  3  0  0  0  0  0  0
  -25.4170  -33.6570   24.1250 N   0  0  0  0  0  0  0  0  0  0  0  0
  -25.7300  -34.7330   23.3890 C   0  0  0  0  0  0  0  0  0  0  0  0
  -26.4350  -34.6710   22.3770 O   0  0  0  0  0  0  0  0  0  0  0  0
  -24.7980  -33.7780   24.9130 H   0  0  0  0  0  0  0  0  0  0  0  0
  -23.9470  -36.4590   22.9940 C   0  0  0  0  0  1  0  0  0  0  0  0
  -25.1740  -36.0930   23.8450 C   0  0  0  0  0  3  0  0  0  0  0  0
  -27.2520  -37.0350   24.7520 C   0  0  0  0  0  1  0  0  0  0  0  0
  -26.1680  -37.1860   23.7840 N   0  0  0  0  0  0  0  0  0  0  0  0
  -25.7250  -38.0860   23.9470 H   0  0  0  0  0  0  0  0  0  0  0  0
  -26.3180  -31.5090   25.0620 C   0  0  1  0  0  0  0  0  0  0  0  0
  -25.2080  -31.1550   26.0790 C   0  0  0  0  0  1  0  0  0  0  0  0
  -27.0230  -30.1940   24.6520 C   0  0  0  0  0  1  0  0  0  0  0  0
  -27.3770  -32.3700   25.7900 C   0  0  0  0  0  1  0  0  0  0  0  0
  -27.2390  -20.6600   20.8640 C   0  0  0  0  0  2  0  0  0  0  0  0
  -27.5720  -21.1330   18.3550 C   0  0  0  0  0  1  0  0  0  0  0  0
  -28.0930  -20.4150   19.6040 C   0  0  0  0  0  3  0  0  0  0  0  0
  -28.1660  -18.9860   19.3560 N   0  0  0  0  0  0  0  0  0  0  0  0
  -27.3080  -18.4720   19.1710 H   0  0  0  0  0  0  0  0  0  0  0  0
  -31.1890  -18.2860   17.2880 C   0  0  0  0  0  3  0  0  0  0  0  0
  -31.8270  -17.3230   18.0980 C   0  0  0  0  0  3  0  0  0  0  0  0
  -29.9720  -18.8620   17.7010 C   0  0  0  0  0  3  0  0  0  0  0  0
  -30.0150  -17.5000   19.7270 C   0  0  0  0  0  3  0  0  0  0  0  0
  -31.2360  -16.9280   19.3240 C   0  0  0  0  0  0  0  0  0  0  0  0
  -29.3790  -18.4600   18.9180 C   0  0  0  0  0  0  0  0  0  0  0  0
  -32.3070  -14.8000   19.6970 C   0  0  0  0  0  0  0  0  0  0  0  0
  -31.6900  -12.5750   18.8830 C   0  0  0  0  0  2  0  0  0  0  0  0
  -30.7140  -12.7570   17.7020 C   0  0  0  0  0  2  0  0  0  0  0  0
  -29.2610  -12.8560   18.2030 C   0  0  0  0  0  2  0  0  0  0  0  0
  -29.0900  -13.8810   19.3540 C   0  0  0  0  0  3  0  0  0  0  0  0
  -30.1750  -13.6780   20.4410 C   0  0  0  0  0  2  0  0  0  0  0  0
  -31.5030  -13.7120   19.7920 N   0  0  0  0  0  0  0  0  0  0  0  0
  -33.3910  -14.8190   19.1060 O   0  0  0  0  0  0  0  0  0  0  0  0
  -31.7680  -15.9220   20.1690 N   0  0  0  0  0  0  0  0  0  0  0  0
  -31.2080  -15.7580   20.9910 H   0  0  0  0  0  0  0  0  0  0  0  0
  -26.9110  -14.8580   20.3250 C   0  0  0  0  0  0  0  0  0  0  0  0
  -25.7320  -14.2730   20.6970 C   0  0  0  0  0  0  0  0  0  0  0  0
  -25.9060  -12.8720   20.4860 C   0  0  0  0  0  0  0  0  0  0  0  0
  -27.7420  -13.8250   19.9180 N   0  0  0  0  0  0  0  0  0  0  0  0
  -27.1390  -12.6170   20.0660 N   0  0  0  0  0  0  0  0  0  0  0  0
  -24.9480  -11.7640   20.6050 C   0  0  0  0  0  0  0  0  0  0  0  0
  -25.2900  -10.5550   21.2510 C   0  0  0  0  0  3  0  0  0  0  0  0
  -24.3490   -9.5100   21.3650 C   0  0  0  0  0  3  0  0  0  0  0  0
  -23.0450   -9.6670   20.8360 C   0  0  0  0  0  0  0  0  0  0  0  0
  -22.7160  -10.8640   20.1750 C   0  0  0  0  0  3  0  0  0  0  0  0
  -23.6570  -11.9000   20.0580 C   0  0  0  0  0  3  0  0  0  0  0  0
  -22.0740   -8.6970   20.8790 O   0  0  0  0  0  0  0  0  0  0  0  0
  -22.0680   -7.7300   21.8520 C   0  0  0  0  0  0  0  0  0  0  0  0
  -22.0660   -8.0530   23.2270 C   0  0  0  0  0  3  0  0  0  0  0  0
  -21.9880   -7.0280   24.1910 C   0  0  0  0  0  3  0  0  0  0  0  0
  -21.9000   -5.6830   23.7850 C   0  0  0  0  0  0  0  0  0  0  0  0
  -21.9010   -5.3600   22.4170 C   0  0  0  0  0  3  0  0  0  0  0  0
  -21.9800   -6.3810   21.4530 C   0  0  0  0  0  0  0  0  0  0  0  0
  -21.9540   -6.0640   20.1360 F   0  0  0  0  0  0  0  0  0  0  0  0
  -21.8200   -4.7000   24.7110 F   0  0  0  0  0  0  0  0  0  0  0  0
  -24.4820  -14.9780   21.1420 C   0  0  0  0  0  0  0  0  0  0  0  0
  -23.6860  -14.3370   21.9920 N   0  0  0  0  0  0  0  0  0  0  0  0
  -24.2280  -16.1250   20.7770 O   0  0  0  0  0  0  0  0  0  0  0  0
  -23.9030  -13.4020   22.3010 H   0  0  0  0  0  0  0  0  0  0  0  0
  -22.8510  -14.7890   22.3380 H   0  0  0  0  0  0  0  0  0  0  0  0
  -27.3350  -16.1800   20.2720 N   0  0  0  0  0  0  0  0  0  0  0  0
  -26.7030  -16.9450   20.4780 H   0  0  0  0  0  0  0  0  0  0  0  0
  -28.2380  -16.4830   19.9300 H   0  0  0  0  0  0  0  0  0  0  0  0
  1  5  1  0
  2  3  1  0
  2  1  2  0
  4  3  1  0
  5  6  2  0
  7  5  1  0
 10  8  1  6
 10  7  1  0
 10  9  1  0
 11 13  1  0
 11 10  1  0
 12 23  2  0
 13 18  1  0
 14 22  1  0
 14 24  1  0
 15 21  1  0
 15 17  1  0
 16 22  1  0
 17 16  1  0
 18 17  2  0
 19 20  1  0
 19 13  2  0
 20 15  2  0
 21 14  1  0
 22 12  1  0
 24 26  2  0
 25 24  1  0
 27 25  1  0
 28 37  2  0
 28 33  1  0
 29 25  1  0
 29 33  1  0
 30 29  1  0
 31 32  1  0
 31 30  1  0
 32 28  1  0
 33 34  2  0
 34 35  1  0
 36 35  2  0
 37 36  1  0
 38 12  1  0
 38 39  1  0
 38 48  1  0
 39 42  1  0
 40 44  1  0
 40 39  1  0
 41 40  2  0
 44 43  1  0
 46 44  1  0
 46 47  1  0
 46 45  1  0
 48 51  1  1
 48 49  1  0
 50 48  1  0
 52  2  1  0
 54 53  1  0
 54 52  1  0
 55 54  1  0
 56 55  1  0
 57 59  2  0
 57 58  1  0
 58 61  2  0
 59 62  1  0
 61 60  1  0
 61 71  1  0
 62 55  1  0
 62 60  2  0
 63 69  1  0
 63 71  1  0
 64 69  1  0
 65 66  1  0
 65 64  1  0
 67 66  1  0
 67 76  1  0
 67 68  1  0
 69 68  1  0
 70 63  2  0
 71 72  1  0
 73 74  2  0
 74 93  1  0
 75 78  1  0
 75 74  1  0
 76 77  1  0
 76 73  1  0
 77 75  2  0
 78 79  1  0
 79 80  2  0
 81 84  1  0
 81 80  1  0
 82 81  2  0
 83 82  1  0
 83 78  2  0
 84 85  1  0
 85 86  1  0
 86 87  2  0
 88 87  1  0
 88 92  1  0
 89 88  2  0
 90 85  2  0
 90 89  1  0
 91 90  1  0
 93 94  1  0
 94 96  1  0
 94 97  1  0
 95 93  2  0
 98 73  1  0
 98 99  1  0
100 98  1  0
M  ISO  4  10 101  11 101  63 100  71 100
M  END
>  <TORSDO>  (74) 
F 24

>  <SCORE>  (74) 
-8.174

>  <name>  (74) 
73

>  <ligand_id>  (74) 
73

>  <original_smiles>  (74) 
[H]OC(=C([H])C(=O)C([H])([H])C(Oc1c([H])c([H])c2c(c1[H])C([H])([H])N(C(=O)C([H])(N([H])C(=O)C([H])(N([H])C([H])([H])[H])C([H])([H])[H])C(C([H])([H])[H])(C([H])([H])[H])C([H])([H])[H])C([H])(C(=O)N([H])C1([H])c3c([H])c([H])c([H])c([H])c3C([H])([H])C([H])([H])C1([H])[H])C2([H])[H])(C([H])([H])[H])C([H])([H])[H])C([H])([H])C([H])(N([H])c1c([H])c([H])c([H])c(N([H])C(=O)N2C([H])([H])C([H])([H])C([H])([H])C([H])(n3nc(-c4c([H])c([H])c(Oc5c([H])c([H])c(F)c([H])c5F)c([H])c4[H])c(C(=O)N([H])[H])c3N([H])[H])C2([H])[H])c1[H])C([H])([H])[H]

>  <smiles>  (74) 
[H]OC(=C([H])C(=O)C([H])([H])C(Oc1c([H])c([H])c2c(c1[H])C([H])([H])N(C(=O)C([H])(N([H])C(=O)C([H])(N([H])C([H])([H])[H])C([H])([H])[H])C(C([H])([H])[H])(C([H])([H])[H])C([H])([H])[H])C([H])(C(=O)N([H])C1([H])c3c([H])c([H])c([H])c([H])c3C([H])([H])C([H])([H])C1([H])[H])C2([H])[H])(C([H])([H])[H])C([H])([H])[H])C([H])([H])C([H])(N([H])c1c([H])c([H])c([H])c(N([H])C(=O)N2C([H])([H])C([H])([H])C([H])([H])C([H])(n3nc(-c4c([H])c([H])c(Oc5c([H])c([H])c(F)c([H])c5F)c([H])c4[H])c(C(=O)N([H])[H])c3N([H])[H])C2([H])[H])c1[H])C([H])([H])[H]

$$$$
74:0:0
     RDKit          3D

 97105  0  0  1  0  0  0  0  0999 V2000
  -32.1480  -24.1550   21.4110 C   0  0  0  0  0  1  0  0  0  0  0  0
  -31.1880  -22.1160   22.4870 C   0  0  0  0  0  1  0  0  0  0  0  0
  -31.0570  -23.0640   21.2660 C   0  0  1  0  0  0  0  0  0  0  0  0
  -29.6800  -23.7940   21.2880 C   0  0  0  0  0  0  0  0  0  0  0  0
  -28.8450  -23.5350   22.1590 O   0  0  0  0  0  0  0  0  0  0  0  0
  -29.4160  -24.9070   20.2500 C   0  0  0  0  0  2  0  0  0  0  0  0
  -27.0550  -24.2200   19.4980 C   0  0  0  0  0  1  0  0  0  0  0  0
  -27.9370  -25.3450   20.0830 C   0  0  0  0  0  3  0  0  0  0  0  0
  -27.8960  -26.5110   19.2380 O   0  0  0  0  0  0  0  0  0  0  0  0
  -24.5110  -31.3410   23.2200 C   0  0  0  0  0  0  0  0  0  0  0  0
  -26.7910  -27.3190   19.3920 C   0  0  0  0  0  0  0  0  0  0  0  0
  -23.1800  -30.3140   21.4030 C   0  0  0  0  0  3  0  0  0  0  0  0
  -24.5020  -28.9460   19.7020 C   0  0  0  0  0  0  0  0  0  0  0  0
  -25.7180  -30.5460   21.1880 C   0  0  0  0  0  2  0  0  0  0  0  0
  -25.7010  -29.2930   20.3390 C   0  0  0  0  0  0  0  0  0  0  0  0
  -26.8490  -28.4850   20.1870 C   0  0  0  0  0  3  0  0  0  0  0  0
  -25.5860  -27.0040   18.7280 C   0  0  0  0  0  3  0  0  0  0  0  0
  -24.4370  -27.8000   18.8930 C   0  0  0  0  0  3  0  0  0  0  0  0
  -23.3190  -29.8610   19.9230 C   0  0  0  0  0  2  0  0  0  0  0  0
  -24.4920  -30.7360   21.9980 N   0  0  0  0  0  0  0  0  0  0  0  0
  -23.4620  -31.5850   23.8310 O   0  0  0  0  0  0  0  0  0  0  0  0
  -22.4800  -29.1900   22.2010 C   0  0  0  0  0  0  0  0  0  0  0  0
  -21.1420  -29.1330   22.1060 N   0  0  0  0  0  0  0  0  0  0  0  0
  -23.1380  -28.3830   22.8610 O   0  0  0  0  0  0  0  0  0  0  0  0
  -20.6750  -29.8360   21.5490 H   0  0  0  0  0  0  0  0  0  0  0  0
  -17.6950  -28.1820   22.6230 C   0  0  0  0  0  0  0  0  0  0  0  0
  -20.2780  -28.1380   22.7390 C   0  0  0  0  0  3  0  0  0  0  0  0
  -20.1920  -26.8520   21.8850 C   0  0  0  0  0  2  0  0  0  0  0  0
  -19.0030  -26.8470   20.9170 C   0  0  0  0  0  2  0  0  0  0  0  0
  -17.6860  -26.9880   21.6850 C   0  0  0  0  0  2  0  0  0  0  0  0
  -18.9120  -28.7320   23.1060 C   0  0  0  0  0  0  0  0  0  0  0  0
  -18.8660  -29.8630   23.9490 C   0  0  0  0  0  3  0  0  0  0  0  0
  -17.6350  -30.4410   24.3130 C   0  0  0  0  0  3  0  0  0  0  0  0
  -16.4320  -29.8860   23.8430 C   0  0  0  0  0  3  0  0  0  0  0  0
  -16.4650  -28.7560   23.0050 C   0  0  0  0  0  3  0  0  0  0  0  0
  -25.8500  -31.7750   23.8960 C   0  0  0  0  0  3  0  0  0  0  0  0
  -25.6750  -33.1520   24.3760 N   0  0  0  0  0  0  0  0  0  0  0  0
  -26.1250  -34.2410   23.7380 C   0  0  0  0  0  0  0  0  0  0  0  0
  -26.8010  -34.1830   22.7060 O   0  0  0  0  0  0  0  0  0  0  0  0
  -25.0940  -33.2780   25.1910 H   0  0  0  0  0  0  0  0  0  0  0  0
  -24.5950  -36.2280   23.5640 C   0  0  0  0  0  1  0  0  0  0  0  0
  -25.7710  -35.6130   24.3410 C   0  0  0  0  0  3  0  0  0  0  0  0
  -27.9590  -36.1840   25.3010 C   0  0  0  0  0  1  0  0  0  0  0  0
  -26.9090  -36.5600   24.3570 N   0  0  0  0  0  0  0  0  0  0  0  0
  -26.5940  -37.4980   24.5930 H   0  0  0  0  0  0  0  0  0  0  0  0
  -26.2920  -30.8210   25.0720 C   0  0  1  0  0  0  0  0  0  0  0  0
  -25.1810  -30.5700   26.1190 C   0  0  0  0  0  1  0  0  0  0  0  0
  -26.7370  -29.4470   24.5200 C   0  0  0  0  0  1  0  0  0  0  0  0
  -27.5150  -31.4200   25.8060 C   0  0  0  0  0  1  0  0  0  0  0  0
  -31.3100  -22.2550   19.9440 C   0  0  0  0  0  2  0  0  0  0  0  0
  -30.4780  -20.9740   19.6960 C   0  0  0  0  0  0  0  0  0  0  0  0
  -31.1100  -19.7770   19.7780 N   0  0  0  0  0  0  0  0  0  0  0  0
  -29.2890  -21.0940   19.3960 O   0  0  0  0  0  0  0  0  0  0  0  0
  -32.0840  -19.8180   20.0510 H   0  0  0  0  0  0  0  0  0  0  0  0
  -29.4760  -18.1710   18.8820 C   0  0  0  0  0  3  0  0  0  0  0  0
  -29.3530  -16.7590   18.9910 C   0  0  0  0  0  3  0  0  0  0  0  0
  -30.6160  -18.5160   19.5730 C   0  0  0  0  0  0  0  0  0  0  0  0
  -30.4440  -16.3410   19.7000 C   0  0  0  0  0  0  0  0  0  0  0  0
  -31.2430  -17.3930   20.0750 O   0  0  0  0  0  0  0  0  0  0  0  0
  -31.1780  -14.0360   19.3810 C   0  0  0  0  0  0  0  0  0  0  0  0
  -30.8250  -11.7070   18.6060 C   0  0  0  0  0  2  0  0  0  0  0  0
  -29.7530  -11.6840   17.4950 C   0  0  0  0  0  2  0  0  0  0  0  0
  -28.3330  -11.6170   18.0920 C   0  0  0  0  0  2  0  0  0  0  0  0
  -28.1100  -12.6720   19.2070 C   0  0  0  0  0  3  0  0  0  0  0  0
  -29.2680  -12.6170   20.2300 C   0  0  0  0  0  2  0  0  0  0  0  0
  -30.5340  -12.8390   19.5020 N   0  0  0  0  0  0  0  0  0  0  0  0
  -32.1890  -14.1920   18.6890 O   0  0  0  0  0  0  0  0  0  0  0  0
  -30.5910  -15.0370   20.0600 N   0  0  0  0  0  0  0  0  0  0  0  0
  -29.8470  -14.6930   20.6450 H   0  0  0  0  0  0  0  0  0  0  0  0
  -25.8710  -13.4570   20.2140 C   0  0  0  0  0  0  0  0  0  0  0  0
  -24.8080  -12.7650   20.7260 C   0  0  0  0  0  0  0  0  0  0  0  0
  -25.1560  -11.3830   20.6310 C   0  0  0  0  0  0  0  0  0  0  0  0
  -26.8090  -12.5000   19.8510 N   0  0  0  0  0  0  0  0  0  0  0  0
  -26.3860  -11.2470   20.1540 N   0  0  0  0  0  0  0  0  0  0  0  0
  -24.3650  -10.1770   20.9110 C   0  0  0  0  0  0  0  0  0  0  0  0
  -24.7740   -9.2310   21.8770 C   0  0  0  0  0  3  0  0  0  0  0  0
  -23.9880   -8.0880   22.1400 C   0  0  0  0  0  3  0  0  0  0  0  0
  -22.7780   -7.8840   21.4330 C   0  0  0  0  0  0  0  0  0  0  0  0
  -22.3880   -8.8150   20.4530 C   0  0  0  0  0  3  0  0  0  0  0  0
  -23.1750   -9.9480   20.1910 C   0  0  0  0  0  3  0  0  0  0  0  0
  -21.9640   -6.7900   21.6030 O   0  0  0  0  0  0  0  0  0  0  0  0
  -21.8320   -6.1720   22.8210 C   0  0  0  0  0  0  0  0  0  0  0  0
  -21.3520   -6.8590   23.9570 C   0  0  0  0  0  3  0  0  0  0  0  0
  -21.1690   -6.1690   25.1730 C   0  0  0  0  0  3  0  0  0  0  0  0
  -21.4550   -4.7930   25.2510 C   0  0  0  0  0  0  0  0  0  0  0  0
  -21.9280   -4.1060   24.1190 C   0  0  0  0  0  3  0  0  0  0  0  0
  -22.1140   -4.7940   22.9060 C   0  0  0  0  0  0  0  0  0  0  0  0
  -22.5510   -4.1220   21.8140 F   0  0  0  0  0  0  0  0  0  0  0  0
  -21.2720   -4.1280   26.4150 F   0  0  0  0  0  0  0  0  0  0  0  0
  -23.4970  -13.3430   21.1820 C   0  0  0  0  0  0  0  0  0  0  0  0
  -22.8480  -12.7060   22.1500 N   0  0  0  0  0  0  0  0  0  0  0  0
  -23.0650  -14.3930   20.7110 O   0  0  0  0  0  0  0  0  0  0  0  0
  -23.2130  -11.8550   22.5490 H   0  0  0  0  0  0  0  0  0  0  0  0
  -21.9750  -13.0790   22.4980 H   0  0  0  0  0  0  0  0  0  0  0  0
  -26.1100  -14.8110   20.0050 N   0  0  0  0  0  0  0  0  0  0  0  0
  -25.3900  -15.5050   20.1750 H   0  0  0  0  0  0  0  0  0  0  0  0
  -26.8690  -15.1610   19.4350 H   0  0  0  0  0  0  0  0  0  0  0  0
  3  4  1  0
  3  1  1  1
  3  2  1  0
  4  5  2  0
  6  4  1  0
  8  7  1  0
  8  6  1  0
  9 11  1  0
  9  8  1  0
 10 21  2  0
 11 16  1  0
 12 20  1  0
 12 22  1  0
 13 19  1  0
 13 15  1  0
 14 20  1  0
 15 14  1  0
 16 15  2  0
 17 18  1  0
 17 11  2  0
 18 13  2  0
 19 12  1  0
 20 10  1  0
 22 24  2  0
 23 22  1  0
 25 23  1  0
 26 35  2  0
 26 31  1  0
 27 23  1  0
 27 31  1  0
 28 27  1  0
 29 30  1  0
 29 28  1  0
 30 26  1  0
 31 32  2  0
 32 33  1  0
 34 33  2  0
 35 34  1  0
 36 10  1  0
 36 37  1  0
 36 46  1  0
 37 40  1  0
 38 42  1  0
 38 37  1  0
 39 38  2  0
 42 41  1  0
 42 44  1  0
 44 45  1  0
 44 43  1  0
 46 49  1  1
 46 47  1  0
 48 46  1  0
 50  3  1  0
 51 52  1  0
 51 50  1  0
 52 54  1  0
 53 51  2  0
 55 56  1  0
 55 57  2  0
 56 58  2  0
 57 52  1  0
 57 59  1  0
 58 68  1  0
 58 59  1  0
 60 66  1  0
 60 68  1  0
 61 66  1  0
 62 63  1  0
 62 61  1  0
 64 63  1  0
 64 73  1  0
 64 65  1  0
 66 65  1  0
 67 60  2  0
 68 69  1  0
 70 71  2  0
 71 90  1  0
 72 71  1  0
 72 75  1  0
 73 74  1  0
 73 70  1  0
 74 72  2  0
 75 76  1  0
 76 77  2  0
 78 81  1  0
 78 77  1  0
 79 78  2  0
 80 79  1  0
 80 75  2  0
 81 82  1  0
 82 87  2  0
 82 83  1  0
 83 84  2  0
 84 85  1  0
 85 89  1  0
 86 85  2  0
 87 86  1  0
 88 87  1  0
 90 91  1  0
 91 94  1  0
 91 93  1  0
 92 90  2  0
 95 96  1  0
 95 70  1  0
 97 95  1  0
M  ISO  4   8 101   9 101  60 100  68 100
M  END
>  <TORSDO>  (75) 
F 22

>  <SCORE>  (75) 
-9.980

>  <name>  (75) 
74

>  <ligand_id>  (75) 
74

>  <original_smiles>  (75) 
[H]c1c(N([H])C(=O)N2C([H])([H])C([H])([H])C([H])([H])C([H])(n3nc(-c4c([H])c([H])c(Oc5c([H])c([H])c(F)c([H])c5F)c([H])c4[H])c(C(=O)N([H])[H])c3N([H])[H])C2([H])[H])oc(N([H])C(=O)C([H])([H])C(C(=O)C([H])([H])C([H])(Oc2c([H])c([H])c3c(c2[H])C([H])([H])N(C(=O)C([H])(N([H])C(=O)C([H])(N([H])C([H])([H])[H])C([H])([H])[H])C(C([H])([H])[H])(C([H])([H])[H])C([H])([H])[H])C([H])(C(=O)N([H])C2([H])c4c([H])c([H])c([H])c([H])c4C([H])([H])C([H])([H])C2([H])[H])C3([H])[H])C([H])([H])[H])(C([H])([H])[H])C([H])([H])[H])c1[H]

>  <smiles>  (75) 
[H]c1c(N([H])C(=O)N2C([H])([H])C([H])([H])C([H])([H])C([H])(n3nc(-c4c([H])c([H])c(Oc5c([H])c([H])c(F)c([H])c5F)c([H])c4[H])c(C(=O)N([H])[H])c3N([H])[H])C2([H])[H])oc(N([H])C(=O)C([H])([H])C(C(=O)C([H])([H])C([H])(Oc2c([H])c([H])c3c(c2[H])C([H])([H])N(C(=O)C([H])(N([H])C(=O)C([H])(N([H])C([H])([H])[H])C([H])([H])[H])C(C([H])([H])[H])(C([H])([H])[H])C([H])([H])[H])C([H])(C(=O)N([H])C2([H])c4c([H])c([H])c([H])c([H])c4C([H])([H])C([H])([H])C2([H])[H])C3([H])[H])C([H])([H])[H])(C([H])([H])[H])C([H])([H])[H])c1[H]

$$$$
75:0:0
     RDKit          3D

 95103  0  0  1  0  0  0  0  0999 V2000
  -29.3980  -22.0520   18.8880 C   0  0  0  0  0  2  0  0  0  0  0  0
  -29.3610  -20.9060   19.9170 C   0  0  0  0  0  0  0  0  0  0  0  0
  -30.1330  -19.8330   19.6650 N   0  0  0  0  0  0  0  0  0  0  0  0
  -28.6370  -21.0150   20.9090 O   0  0  0  0  0  0  0  0  0  0  0  0
  -30.6480  -19.8390   18.7950 H   0  0  0  0  0  0  0  0  0  0  0  0
  -30.6420  -17.4860   19.9660 C   0  0  0  0  0  3  0  0  0  0  0  0
  -30.0720  -17.3880   22.1510 C   0  0  0  0  0  3  0  0  0  0  0  0
  -30.4900  -16.6250   21.0960 C   0  0  0  0  0  0  0  0  0  0  0  0
  -30.2400  -18.7140   20.4270 C   0  0  0  0  0  0  0  0  0  0  0  0
  -29.9170  -18.6810   21.7520 O   0  0  0  0  0  0  0  0  0  0  0  0
  -31.0960  -14.4040   20.1940 C   0  0  0  0  0  0  0  0  0  0  0  0
  -30.6860  -12.3440   18.9070 C   0  0  0  0  0  2  0  0  0  0  0  0
  -29.6900  -12.6400   17.7650 C   0  0  0  0  0  2  0  0  0  0  0  0
  -28.2350  -12.5130   18.2500 C   0  0  0  0  0  2  0  0  0  0  0  0
  -27.9730  -13.2920   19.5640 C   0  0  0  0  0  3  0  0  0  0  0  0
  -29.0640  -12.9690   20.6110 C   0  0  0  0  0  2  0  0  0  0  0  0
  -30.3880  -13.2560   20.0220 N   0  0  0  0  0  0  0  0  0  0  0  0
  -32.1050  -14.6860   19.5380 O   0  0  0  0  0  0  0  0  0  0  0  0
  -30.6390  -15.2100   21.1630 N   0  0  0  0  0  0  0  0  0  0  0  0
  -30.0440  -14.7500   21.8320 H   0  0  0  0  0  0  0  0  0  0  0  0
  -25.6010  -13.9410   20.3420 C   0  0  0  0  0  0  0  0  0  0  0  0
  -24.5260  -13.1880   20.7350 C   0  0  0  0  0  0  0  0  0  0  0  0
  -24.9590  -11.8270   20.6800 C   0  0  0  0  0  0  0  0  0  0  0  0
  -26.6240  -13.0440   20.0780 N   0  0  0  0  0  0  0  0  0  0  0  0
  -26.2380  -11.7650   20.3300 N   0  0  0  0  0  0  0  0  0  0  0  0
  -24.2130  -10.5790   20.8880 C   0  0  0  0  0  0  0  0  0  0  0  0
  -24.6100   -9.6360   21.8610 C   0  0  0  0  0  3  0  0  0  0  0  0
  -23.8710   -8.4490   22.0550 C   0  0  0  0  0  3  0  0  0  0  0  0
  -22.7190   -8.1950   21.2720 C   0  0  0  0  0  0  0  0  0  0  0  0
  -22.3380   -9.1280   20.2930 C   0  0  0  0  0  3  0  0  0  0  0  0
  -23.0780  -10.3060   20.0980 C   0  0  0  0  0  3  0  0  0  0  0  0
  -21.9540   -7.0570   21.3710 O   0  0  0  0  0  0  0  0  0  0  0  0
  -21.8050   -6.3920   22.5620 C   0  0  0  0  0  0  0  0  0  0  0  0
  -21.2810   -7.0280   23.7090 C   0  0  0  0  0  3  0  0  0  0  0  0
  -21.0760   -6.2880   24.8910 C   0  0  0  0  0  3  0  0  0  0  0  0
  -21.3870   -4.9150   24.9260 C   0  0  0  0  0  0  0  0  0  0  0  0
  -21.9030   -4.2800   23.7830 C   0  0  0  0  0  3  0  0  0  0  0  0
  -22.1100   -5.0180   22.6040 C   0  0  0  0  0  0  0  0  0  0  0  0
  -22.5880   -4.3970   21.4970 F   0  0  0  0  0  0  0  0  0  0  0  0
  -21.1840   -4.2010   26.0580 F   0  0  0  0  0  0  0  0  0  0  0  0
  -23.1470  -13.6940   21.0530 C   0  0  0  0  0  0  0  0  0  0  0  0
  -22.4370  -13.0230   21.9530 N   0  0  0  0  0  0  0  0  0  0  0  0
  -22.7070  -14.7210   20.5400 O   0  0  0  0  0  0  0  0  0  0  0  0
  -22.8000  -12.1950   22.4020 H   0  0  0  0  0  0  0  0  0  0  0  0
  -21.5140  -13.3510   22.2000 H   0  0  0  0  0  0  0  0  0  0  0  0
  -25.7870  -15.3090   20.1740 N   0  0  0  0  0  0  0  0  0  0  0  0
  -25.0380  -15.9810   20.3040 H   0  0  0  0  0  0  0  0  0  0  0  0
  -26.6520  -15.7380   19.8660 H   0  0  0  0  0  0  0  0  0  0  0  0
  -30.2980  -24.3050   18.2880 C   0  0  0  0  0  1  0  0  0  0  0  0
  -30.7890  -23.3930   20.5860 C   0  0  0  0  0  1  0  0  0  0  0  0
  -29.7190  -23.4820   19.4610 C   0  0  2  0  0  0  0  0  0  0  0  0
  -28.4230  -24.2160   19.9330 C   0  0  0  0  0  0  0  0  0  0  0  0
  -27.3100  -23.8060   19.5880 O   0  0  0  0  0  0  0  0  0  0  0  0
  -28.5080  -25.4850   20.8150 C   0  0  0  0  0  2  0  0  0  0  0  0
  -28.4810  -26.6920   20.0350 O   0  0  0  0  0  0  0  0  0  0  0  0
  -24.6450  -31.8090   23.1980 C   0  0  0  0  0  0  0  0  0  0  0  0
  -27.3030  -27.4030   20.0800 C   0  0  0  0  0  0  0  0  0  0  0  0
  -23.4410  -30.4170   21.5450 C   0  0  0  0  0  3  0  0  0  0  0  0
  -24.8990  -28.8910   20.1130 C   0  0  0  0  0  0  0  0  0  0  0  0
  -25.9630  -30.7870   21.3430 C   0  0  0  0  0  2  0  0  0  0  0  0
  -26.0550  -29.4160   20.7040 C   0  0  0  0  0  0  0  0  0  0  0  0
  -27.2610  -28.6790   20.6860 C   0  0  0  0  0  3  0  0  0  0  0  0
  -26.1330  -26.8920   19.4780 C   0  0  0  0  0  3  0  0  0  0  0  0
  -24.9310  -27.6260   19.5000 C   0  0  0  0  0  3  0  0  0  0  0  0
  -23.6570  -29.7560   20.1590 C   0  0  0  0  0  2  0  0  0  0  0  0
  -24.7020  -31.0160   22.0900 N   0  0  0  0  0  0  0  0  0  0  0  0
  -23.5620  -32.0740   23.7390 O   0  0  0  0  0  0  0  0  0  0  0  0
  -22.7920  -29.3830   22.4950 C   0  0  0  0  0  0  0  0  0  0  0  0
  -21.4690  -29.1970   22.3660 N   0  0  0  0  0  0  0  0  0  0  0  0
  -23.4770  -28.7560   23.3080 O   0  0  0  0  0  0  0  0  0  0  0  0
  -20.9750  -29.7620   21.6900 H   0  0  0  0  0  0  0  0  0  0  0  0
  -18.1040  -27.9680   22.8280 C   0  0  0  0  0  0  0  0  0  0  0  0
  -20.6550  -28.2510   23.1300 C   0  0  0  0  0  3  0  0  0  0  0  0
  -20.7790  -26.8210   22.5550 C   0  0  0  0  0  2  0  0  0  0  0  0
  -19.6890  -26.4850   21.5310 C   0  0  0  0  0  2  0  0  0  0  0  0
  -18.3010  -26.6180   22.1600 C   0  0  0  0  0  2  0  0  0  0  0  0
  -19.2110  -28.7390   23.2710 C   0  0  0  0  0  0  0  0  0  0  0  0
  -18.9720  -30.0010   23.8590 C   0  0  0  0  0  3  0  0  0  0  0  0
  -17.6610  -30.4910   24.0080 C   0  0  0  0  0  3  0  0  0  0  0  0
  -16.5690  -29.7160   23.5810 C   0  0  0  0  0  3  0  0  0  0  0  0
  -16.7910  -28.4570   22.9950 C   0  0  0  0  0  3  0  0  0  0  0  0
  -25.9280  -32.4390   23.8210 C   0  0  0  0  0  3  0  0  0  0  0  0
  -25.6130  -33.8300   24.1730 N   0  0  0  0  0  0  0  0  0  0  0  0
  -25.9330  -34.8930   23.4230 C   0  0  0  0  0  0  0  0  0  0  0  0
  -26.5960  -34.8050   22.3860 O   0  0  0  0  0  0  0  0  0  0  0  0
  -25.0260  -33.9680   24.9810 H   0  0  0  0  0  0  0  0  0  0  0  0
  -24.1920  -36.6760   23.0990 C   0  0  0  0  0  1  0  0  0  0  0  0
  -25.4390  -36.2720   23.9000 C   0  0  0  0  0  3  0  0  0  0  0  0
  -27.5740  -37.1600   24.7270 C   0  0  0  0  0  1  0  0  0  0  0  0
  -26.4630  -37.3330   23.7940 N   0  0  0  0  0  0  0  0  0  0  0  0
  -26.0520  -38.2470   23.9570 H   0  0  0  0  0  0  0  0  0  0  0  0
  -26.4610  -31.6460   25.0770 C   0  0  1  0  0  0  0  0  0  0  0  0
  -25.3790  -31.3780   26.1500 C   0  0  0  0  0  1  0  0  0  0  0  0
  -27.0510  -30.2830   24.6480 C   0  0  0  0  0  1  0  0  0  0  0  0
  -27.6140  -32.4330   25.7430 C   0  0  0  0  0  1  0  0  0  0  0  0
  1 51  1  0
  1  2  1  0
  2  4  2  0
  3  2  1  0
  3  9  1  0
  5  3  1  0
  6  9  2  0
  6  8  1  0
  8 19  1  0
  8  7  2  0
  9 10  1  0
 10  7  1  0
 11 19  1  0
 12 17  1  0
 13 14  1  0
 13 12  1  0
 15 14  1  0
 15 24  1  0
 15 16  1  0
 17 11  1  0
 17 16  1  0
 18 11  2  0
 19 20  1  0
 21 22  2  0
 22 41  1  0
 23 22  1  0
 23 26  1  0
 24 25  1  0
 24 21  1  0
 25 23  2  0
 26 27  1  0
 27 28  2  0
 29 32  1  0
 29 28  1  0
 30 29  2  0
 31 30  1  0
 31 26  2  0
 32 33  1  0
 33 38  2  0
 33 34  1  0
 34 35  2  0
 35 36  1  0
 36 40  1  0
 37 36  2  0
 38 37  1  0
 39 38  1  0
 41 42  1  0
 42 45  1  0
 42 44  1  0
 43 41  2  0
 46 47  1  0
 46 21  1  0
 48 46  1  0
 51 49  1  6
 51 52  1  0
 51 50  1  0
 52 54  1  0
 53 52  2  0
 55 57  1  0
 55 54  1  0
 56 67  2  0
 57 62  1  0
 58 66  1  0
 58 68  1  0
 59 65  1  0
 59 61  1  0
 60 66  1  0
 61 60  1  0
 62 61  2  0
 63 64  1  0
 63 57  2  0
 64 59  2  0
 65 58  1  0
 66 56  1  0
 68 70  2  0
 69 68  1  0
 71 69  1  0
 72 81  2  0
 72 77  1  0
 73 69  1  0
 73 77  1  0
 74 73  1  0
 75 76  1  0
 75 74  1  0
 76 72  1  0
 77 78  2  0
 78 79  1  0
 80 79  2  0
 81 80  1  0
 82 56  1  0
 82 83  1  0
 82 92  1  0
 83 86  1  0
 84 88  1  0
 84 83  1  0
 85 84  2  0
 88 87  1  0
 90 88  1  0
 90 91  1  0
 90 89  1  0
 92 95  1  1
 92 93  1  0
 94 92  1  0
M  ISO  4  11 100  19 100  54 101  55 101
M  END
>  <TORSDO>  (76) 
F 21

>  <SCORE>  (76) 
-13.088

>  <name>  (76) 
75

>  <ligand_id>  (76) 
75

>  <original_smiles>  (76) 
[H]c1oc(N([H])C(=O)C([H])([H])C(C(=O)C([H])([H])Oc2c([H])c([H])c3c(c2[H])C([H])([H])N(C(=O)C([H])(N([H])C(=O)C([H])(N([H])C([H])([H])[H])C([H])([H])[H])C(C([H])([H])[H])(C([H])([H])[H])C([H])([H])[H])C([H])(C(=O)N([H])C2([H])c4c([H])c([H])c([H])c([H])c4C([H])([H])C([H])([H])C2([H])[H])C3([H])[H])(C([H])([H])[H])C([H])([H])[H])c([H])c1N([H])C(=O)N1C([H])([H])C([H])([H])C([H])([H])C([H])(n2nc(-c3c([H])c([H])c(Oc4c([H])c([H])c(F)c([H])c4F)c([H])c3[H])c(C(=O)N([H])[H])c2N([H])[H])C1([H])[H]

>  <smiles>  (76) 
[H]c1oc(N([H])C(=O)C([H])([H])C(C(=O)C([H])([H])Oc2c([H])c([H])c3c(c2[H])C([H])([H])N(C(=O)C([H])(N([H])C(=O)C([H])(N([H])C([H])([H])[H])C([H])([H])[H])C(C([H])([H])[H])(C([H])([H])[H])C([H])([H])[H])C([H])(C(=O)N([H])C2([H])c4c([H])c([H])c([H])c([H])c4C([H])([H])C([H])([H])C2([H])[H])C3([H])[H])(C([H])([H])[H])C([H])([H])[H])c([H])c1N([H])C(=O)N1C([H])([H])C([H])([H])C([H])([H])C([H])(n2nc(-c3c([H])c([H])c(Oc4c([H])c([H])c(F)c([H])c4F)c([H])c3[H])c(C(=O)N([H])[H])c2N([H])[H])C1([H])[H]

$$$$
76:0:0
     RDKit          3D

102111  0  0  1  0  0  0  0  0999 V2000
  -30.2620  -18.7610   17.7880 C   0  0  0  0  0  3  0  0  0  0  0  0
  -27.4050  -20.8050   16.7530 C   0  0  0  0  0  2  0  0  0  0  0  0
  -28.6330  -19.9900   16.3100 C   0  0  0  0  0  2  0  0  0  0  0  0
  -28.9460  -20.7200   18.5470 C   0  0  0  0  0  2  0  0  0  0  0  0
  -27.4410  -20.8970   18.3040 C   0  0  2  0  0  0  0  0  0  0  0  0
  -26.6760  -19.7200   18.9580 C   0  0  0  0  0  1  0  0  0  0  0  0
  -29.3820  -19.7500   17.5520 N   0  0  0  0  0  0  0  0  0  0  0  0
  -30.7130  -18.0410   16.7700 N   0  0  0  0  0  0  0  0  0  0  0  0
  -31.4820  -17.4040   16.9220 H   0  0  0  0  0  0  0  0  0  0  0  0
  -30.4390  -18.2500   15.8260 H   0  0  0  0  0  0  0  0  0  0  0  0
  -30.1910  -17.1530   19.6210 C   0  0  0  0  0  3  0  0  0  0  0  0
  -31.5110  -19.1790   19.9430 C   0  0  0  0  0  3  0  0  0  0  0  0
  -31.4630  -17.4500   21.6800 C   0  0  0  0  0  3  0  0  0  0  0  0
  -30.6660  -18.3840   19.1380 C   0  0  0  0  0  0  0  0  0  0  0  0
  -30.6020  -16.6710   20.8780 C   0  0  0  0  0  0  0  0  0  0  0  0
  -31.9180  -18.7040   21.2060 C   0  0  0  0  0  0  0  0  0  0  0  0
  -32.7700  -19.4390   21.9570 F   0  0  0  0  0  0  0  0  0  0  0  0
  -30.7710  -14.3200   20.5580 C   0  0  0  0  0  0  0  0  0  0  0  0
  -30.3390  -12.2180   19.3750 C   0  0  0  0  0  2  0  0  0  0  0  0
  -29.4400  -12.4970   18.1610 C   0  0  0  0  0  2  0  0  0  0  0  0
  -27.9580  -12.3960   18.5570 C   0  0  0  0  0  2  0  0  0  0  0  0
  -27.6240  -13.2170   19.8320 C   0  0  0  0  0  3  0  0  0  0  0  0
  -28.6620  -12.9840   20.9580 C   0  0  0  0  0  2  0  0  0  0  0  0
  -30.0120  -13.2030   20.4140 N   0  0  0  0  0  0  0  0  0  0  0  0
  -31.8640  -14.4600   20.0020 O   0  0  0  0  0  0  0  0  0  0  0  0
  -30.2430  -15.3440   21.2390 N   0  0  0  0  0  0  0  0  0  0  0  0
  -29.3760  -15.1930   21.7320 H   0  0  0  0  0  0  0  0  0  0  0  0
  -25.2190  -13.8460   20.4990 C   0  0  0  0  0  0  0  0  0  0  0  0
  -24.1400  -13.0870   20.8590 C   0  0  0  0  0  0  0  0  0  0  0  0
  -24.5870  -11.7290   20.8450 C   0  0  0  0  0  0  0  0  0  0  0  0
  -26.2600  -12.9530   20.2900 N   0  0  0  0  0  0  0  0  0  0  0  0
  -25.8810  -11.6780   20.5570 N   0  0  0  0  0  0  0  0  0  0  0  0
  -23.8510  -10.4720   21.0340 C   0  0  0  0  0  0  0  0  0  0  0  0
  -24.2770   -9.5030   21.9670 C   0  0  0  0  0  3  0  0  0  0  0  0
  -23.5420   -8.3110   22.1500 C   0  0  0  0  0  3  0  0  0  0  0  0
  -22.3660   -8.0790   21.3980 C   0  0  0  0  0  0  0  0  0  0  0  0
  -21.9550   -9.0380   20.4550 C   0  0  0  0  0  3  0  0  0  0  0  0
  -22.6910  -10.2230   20.2700 C   0  0  0  0  0  3  0  0  0  0  0  0
  -21.6050   -6.9370   21.4850 O   0  0  0  0  0  0  0  0  0  0  0  0
  -21.5640   -6.1870   22.6330 C   0  0  0  0  0  0  0  0  0  0  0  0
  -21.1740   -6.7390   23.8740 C   0  0  0  0  0  3  0  0  0  0  0  0
  -21.0830   -5.9150   25.0140 C   0  0  0  0  0  3  0  0  0  0  0  0
  -21.3670   -4.5400   24.9130 C   0  0  0  0  0  0  0  0  0  0  0  0
  -21.7510   -3.9880   23.6780 C   0  0  0  0  0  3  0  0  0  0  0  0
  -21.8450   -4.8090   22.5420 C   0  0  0  0  0  0  0  0  0  0  0  0
  -22.1920   -4.2670   21.3510 F   0  0  0  0  0  0  0  0  0  0  0  0
  -21.2680   -3.7490   26.0060 F   0  0  0  0  0  0  0  0  0  0  0  0
  -22.7430  -13.5730   21.1120 C   0  0  0  0  0  0  0  0  0  0  0  0
  -22.0010  -12.8860   21.9720 N   0  0  0  0  0  0  0  0  0  0  0  0
  -22.3180  -14.5940   20.5750 O   0  0  0  0  0  0  0  0  0  0  0  0
  -22.3580  -12.0590   22.4280 H   0  0  0  0  0  0  0  0  0  0  0  0
  -21.0590  -13.1860   22.1750 H   0  0  0  0  0  0  0  0  0  0  0  0
  -25.4080  -15.2120   20.3080 N   0  0  0  0  0  0  0  0  0  0  0  0
  -24.6550  -15.8850   20.3890 H   0  0  0  0  0  0  0  0  0  0  0  0
  -26.2790  -15.6340   20.0030 H   0  0  0  0  0  0  0  0  0  0  0  0
  -27.6370  -22.8680   19.8590 C   0  0  0  0  0  3  0  0  0  0  0  0
  -26.9700  -22.2530   18.8550 C   0  0  0  0  0  0  0  0  0  0  0  0
  -25.7560  -22.9010   18.1920 C   0  0  0  0  0  1  0  0  0  0  0  0
  -27.6780  -24.2150   21.9760 C   0  0  0  0  0  1  0  0  0  0  0  0
  -27.3850  -24.2410   20.4470 C   0  0  0  0  0  3  0  0  0  0  0  0
  -28.2140  -25.2710   19.6030 C   0  0  0  0  0  2  0  0  0  0  0  0
  -28.3070  -26.6010   20.1400 O   0  0  0  0  0  0  0  0  0  0  0  0
  -24.6190  -31.8660   23.2460 C   0  0  0  0  0  0  0  0  0  0  0  0
  -27.1680  -27.3750   20.1330 C   0  0  0  0  0  0  0  0  0  0  0  0
  -23.4070  -30.4820   21.6080 C   0  0  0  0  0  3  0  0  0  0  0  0
  -24.8220  -28.9550   20.1780 C   0  0  0  0  0  0  0  0  0  0  0  0
  -25.9420  -30.8080   21.4130 C   0  0  0  0  0  2  0  0  0  0  0  0
  -25.9970  -29.4370   20.7700 C   0  0  0  0  0  0  0  0  0  0  0  0
  -27.1700  -28.6480   20.7590 C   0  0  0  0  0  3  0  0  0  0  0  0
  -25.9670  -26.9360   19.5230 C   0  0  0  0  0  3  0  0  0  0  0  0
  -24.8000  -27.7000   19.5660 C   0  0  0  0  0  3  0  0  0  0  0  0
  -23.6020  -29.8340   20.2220 C   0  0  0  0  0  2  0  0  0  0  0  0
  -24.6770  -31.0680   22.1440 N   0  0  0  0  0  0  0  0  0  0  0  0
  -23.5360  -32.1400   23.7840 O   0  0  0  0  0  0  0  0  0  0  0  0
  -22.7560  -29.4460   22.5570 C   0  0  0  0  0  0  0  0  0  0  0  0
  -21.4290  -29.2620   22.4280 N   0  0  0  0  0  0  0  0  0  0  0  0
  -23.4370  -28.8150   23.3710 O   0  0  0  0  0  0  0  0  0  0  0  0
  -20.9390  -29.8270   21.7480 H   0  0  0  0  0  0  0  0  0  0  0  0
  -18.0490  -28.0840   22.9240 C   0  0  0  0  0  0  0  0  0  0  0  0
  -20.6080  -28.3220   23.1920 C   0  0  0  0  0  3  0  0  0  0  0  0
  -20.6980  -26.8930   22.6090 C   0  0  0  0  0  2  0  0  0  0  0  0
  -19.5920  -26.5820   21.5960 C   0  0  0  0  0  2  0  0  0  0  0  0
  -18.2130  -26.7360   22.2420 C   0  0  0  0  0  2  0  0  0  0  0  0
  -19.1760  -28.8380   23.3530 C   0  0  0  0  0  0  0  0  0  0  0  0
  -18.9640  -30.1030   23.9430 C   0  0  0  0  0  3  0  0  0  0  0  0
  -17.6620  -30.6090   24.1160 C   0  0  0  0  0  3  0  0  0  0  0  0
  -16.5510  -29.8520   23.7040 C   0  0  0  0  0  3  0  0  0  0  0  0
  -16.7490  -28.5910   23.1120 C   0  0  0  0  0  3  0  0  0  0  0  0
  -25.9060  -32.4940   23.8660 C   0  0  0  0  0  3  0  0  0  0  0  0
  -26.4240  -31.7120   25.1300 C   0  0  1  0  0  0  0  0  0  0  0  0
  -25.3400  -31.4570   26.2010 C   0  0  0  0  0  1  0  0  0  0  0  0
  -27.0100  -30.3420   24.7240 C   0  0  0  0  0  1  0  0  0  0  0  0
  -27.5790  -32.5000   25.7880 C   0  0  0  0  0  1  0  0  0  0  0  0
  -25.6010  -33.8910   24.2020 N   0  0  0  0  0  0  0  0  0  0  0  0
  -25.9200  -34.9450   23.4390 C   0  0  0  0  0  0  0  0  0  0  0  0
  -26.5790  -34.8450   22.4000 O   0  0  0  0  0  0  0  0  0  0  0  0
  -25.0220  -34.0460   25.0160 H   0  0  0  0  0  0  0  0  0  0  0  0
  -24.1770  -36.7250   23.1000 C   0  0  0  0  0  1  0  0  0  0  0  0
  -25.4270  -36.3300   23.9030 C   0  0  0  0  0  3  0  0  0  0  0  0
  -27.5630  -37.2110   24.7250 C   0  0  0  0  0  1  0  0  0  0  0  0
  -26.4550  -37.3870   23.7890 N   0  0  0  0  0  0  0  0  0  0  0  0
  -26.0470  -38.3060   23.9510 H   0  0  0  0  0  0  0  0  0  0  0  0
  1  8  1  0
  1 14  1  0
  2  5  1  0
  3  2  1  0
  3  7  1  0
  5  4  1  0
  5 57  1  0
  5  6  1  1
  7  1  1  0
  7  4  1  0
  8  9  1  0
 10  8  1  0
 11 15  1  0
 12 16  2  0
 14 11  2  0
 14 12  1  0
 15 26  1  0
 15 13  2  0
 16 13  1  0
 16 17  1  0
 18 26  1  0
 19 24  1  0
 20 21  1  0
 20 19  1  0
 22 21  1  0
 22 31  1  0
 22 23  1  0
 24 18  1  0
 24 23  1  0
 25 18  2  0
 26 27  1  0
 28 29  2  0
 29 48  1  0
 30 29  1  0
 30 33  1  0
 31 28  1  0
 31 32  1  0
 32 30  2  0
 33 34  1  0
 34 35  2  0
 36 39  1  0
 36 35  1  0
 37 36  2  0
 38 37  1  0
 38 33  2  0
 39 40  1  0
 40 41  1  0
 41 42  2  0
 43 42  1  0
 43 47  1  0
 44 43  2  0
 45 40  2  0
 45 44  1  0
 46 45  1  0
 48 49  1  0
 49 52  1  0
 49 51  1  0
 50 48  2  0
 53 54  1  0
 53 28  1  0
 55 53  1  0
 56 60  1  0
 57 56  2  0
 58 57  1  0
 60 59  1  0
 61 62  1  0
 61 60  1  0
 63 74  2  0
 64 62  1  0
 64 69  1  0
 65 73  1  0
 65 75  1  0
 66 72  1  0
 66 68  1  0
 67 73  1  0
 68 67  1  0
 69 68  2  0
 70 71  1  0
 70 64  2  0
 71 66  2  0
 72 65  1  0
 73 63  1  0
 75 77  2  0
 76 75  1  0
 78 76  1  0
 79 88  2  0
 79 84  1  0
 80 76  1  0
 80 84  1  0
 81 80  1  0
 82 83  1  0
 82 81  1  0
 83 79  1  0
 84 85  2  0
 85 86  1  0
 87 86  2  0
 88 87  1  0
 89 63  1  0
 89 94  1  0
 89 90  1  0
 90 93  1  1
 90 91  1  0
 92 90  1  0
 94 97  1  0
 95 99  1  0
 95 94  1  0
 96 95  2  0
 99 98  1  0
101 99  1  0
101102  1  0
101100  1  0
M  ISO  4  18 100  26 100  61 101  62 101
M  END
>  <TORSDO>  (77) 
F 20

>  <SCORE>  (77) 
-13.784

>  <name>  (77) 
76

>  <ligand_id>  (77) 
76

>  <original_smiles>  (77) 
[H]C(=C(C([H])([H])[H])C1(C([H])([H])[H])C([H])([H])N(C(c2c([H])c(F)c([H])c(N([H])C(=O)N3C([H])([H])C([H])([H])C([H])([H])C([H])(n4nc(-c5c([H])c([H])c(Oc6c([H])c([H])c(F)c([H])c6F)c([H])c5[H])c(C(=O)N([H])[H])c4N([H])[H])C3([H])[H])c2[H])=[N+]([H])[H])C([H])([H])C1([H])[H])C([H])(C([H])([H])[H])C([H])([H])Oc1c([H])c([H])c2c(c1[H])C([H])([H])N(C(=O)C([H])(N([H])C(=O)C([H])(N([H])C([H])([H])[H])C([H])([H])[H])C(C([H])([H])[H])(C([H])([H])[H])C([H])([H])[H])C([H])(C(=O)N([H])C1([H])c3c([H])c([H])c([H])c([H])c3C([H])([H])C([H])([H])C1([H])[H])C2([H])[H]

>  <smiles>  (77) 
[H]C(=C(C([H])([H])[H])C1(C([H])([H])[H])C([H])([H])N(C(c2c([H])c(F)c([H])c(N([H])C(=O)N3C([H])([H])C([H])([H])C([H])([H])C([H])(n4nc(-c5c([H])c([H])c(Oc6c([H])c([H])c(F)c([H])c6F)c([H])c5[H])c(C(=O)N([H])[H])c4N([H])[H])C3([H])[H])c2[H])=[N+]([H])[H])C([H])([H])C1([H])[H])C([H])(C([H])([H])[H])C([H])([H])Oc1c([H])c([H])c2c(c1[H])C([H])([H])N(C(=O)C([H])(N([H])C(=O)C([H])(N([H])C([H])([H])[H])C([H])([H])[H])C(C([H])([H])[H])(C([H])([H])[H])C([H])([H])[H])C([H])(C(=O)N([H])C1([H])c3c([H])c([H])c([H])c([H])c3C([H])([H])C([H])([H])C1([H])[H])C2([H])[H]

$$$$
77:0:0
     RDKit          3D

 96105  0  0  1  0  0  0  0  0999 V2000
  -30.4910  -20.5780   22.5350 C   0  0  0  0  0  3  0  0  0  0  0  0
  -28.9640  -23.9460   22.1650 C   0  0  0  0  0  2  0  0  0  0  0  0
  -29.7150  -22.9130   23.0260 C   0  0  0  0  0  2  0  0  0  0  0  0
  -29.6790  -22.2000   20.7320 C   0  0  0  0  0  2  0  0  0  0  0  0
  -29.5520  -23.7550   20.7550 C   0  0  2  0  0  0  0  0  0  0  0  0
  -30.9580  -24.4080   20.6840 C   0  0  0  0  0  1  0  0  0  0  0  0
  -30.0190  -21.7910   22.1100 N   0  0  0  0  0  0  0  0  0  0  0  0
  -30.9100  -20.4840   23.8100 N   0  0  0  0  0  0  0  0  0  0  0  0
  -31.3390  -19.6290   24.1310 H   0  0  0  0  0  0  0  0  0  0  0  0
  -30.9040  -21.2680   24.4460 H   0  0  0  0  0  0  0  0  0  0  0  0
  -30.9410  -19.1460   20.4130 C   0  0  0  0  0  3  0  0  0  0  0  0
  -31.0190  -17.7600   20.0460 C   0  0  0  0  0  3  0  0  0  0  0  0
  -30.5880  -19.3550   21.7250 C   0  0  0  0  0  0  0  0  0  0  0  0
  -30.7100  -16.8880   21.0660 C   0  0  0  0  0  0  0  0  0  0  0  0
  -30.2800  -17.8060   22.4930 S   0  0  0  0  0  0  0  0  0  0  0  0
  -31.2710  -14.6130   20.3090 C   0  0  0  0  0  0  0  0  0  0  0  0
  -30.9650  -12.4230   19.1870 C   0  0  0  0  0  2  0  0  0  0  0  0
  -30.0060  -12.5880   17.9880 C   0  0  0  0  0  2  0  0  0  0  0  0
  -28.5320  -12.4890   18.4320 C   0  0  0  0  0  2  0  0  0  0  0  0
  -28.2240  -13.3860   19.6590 C   0  0  0  0  0  3  0  0  0  0  0  0
  -29.2730  -13.1490   20.7650 C   0  0  0  0  0  2  0  0  0  0  0  0
  -30.6080  -13.4270   20.2020 N   0  0  0  0  0  0  0  0  0  0  0  0
  -32.3430  -14.8390   19.7360 O   0  0  0  0  0  0  0  0  0  0  0  0
  -30.6420  -15.5240   21.0810 N   0  0  0  0  0  0  0  0  0  0  0  0
  -29.8980  -15.1410   21.6450 H   0  0  0  0  0  0  0  0  0  0  0  0
  -25.8970  -14.1000   20.4970 C   0  0  0  0  0  0  0  0  0  0  0  0
  -24.7880  -13.3730   20.8430 C   0  0  0  0  0  0  0  0  0  0  0  0
  -25.1530  -12.0010   20.6930 C   0  0  0  0  0  0  0  0  0  0  0  0
  -26.8680  -13.1700   20.1590 N   0  0  0  0  0  0  0  0  0  0  0  0
  -26.4260  -11.9000   20.3320 N   0  0  0  0  0  0  0  0  0  0  0  0
  -24.3480  -10.7770   20.8100 C   0  0  0  0  0  0  0  0  0  0  0  0
  -24.6940   -9.7520   21.7170 C   0  0  0  0  0  3  0  0  0  0  0  0
  -23.8990   -8.5910   21.8240 C   0  0  0  0  0  3  0  0  0  0  0  0
  -22.7430   -8.4490   21.0210 C   0  0  0  0  0  0  0  0  0  0  0  0
  -22.4140   -9.4620   20.1030 C   0  0  0  0  0  3  0  0  0  0  0  0
  -23.2100  -10.6150   19.9950 C   0  0  0  0  0  3  0  0  0  0  0  0
  -21.9240   -7.3460   21.0390 O   0  0  0  0  0  0  0  0  0  0  0  0
  -21.6910   -6.6410   22.1920 C   0  0  0  0  0  0  0  0  0  0  0  0
  -21.0990   -7.2400   23.3260 C   0  0  0  0  0  3  0  0  0  0  0  0
  -20.8150   -6.4610   24.4650 C   0  0  0  0  0  3  0  0  0  0  0  0
  -21.1090   -5.0850   24.4700 C   0  0  0  0  0  0  0  0  0  0  0  0
  -21.6930   -4.4850   23.3410 C   0  0  0  0  0  3  0  0  0  0  0  0
  -21.9810   -5.2610   22.2040 C   0  0  0  0  0  0  0  0  0  0  0  0
  -22.5230   -4.6750   21.1090 F   0  0  0  0  0  0  0  0  0  0  0  0
  -20.8290   -4.3330   25.5610 F   0  0  0  0  0  0  0  0  0  0  0  0
  -23.4350  -13.9180   21.2060 C   0  0  0  0  0  0  0  0  0  0  0  0
  -22.7050  -13.2190   22.0680 N   0  0  0  0  0  0  0  0  0  0  0  0
  -23.0390  -14.9930   20.7610 O   0  0  0  0  0  0  0  0  0  0  0  0
  -23.0400  -12.3440   22.4450 H   0  0  0  0  0  0  0  0  0  0  0  0
  -21.7980  -13.5620   22.3530 H   0  0  0  0  0  0  0  0  0  0  0  0
  -26.1590  -15.4630   20.4190 N   0  0  0  0  0  0  0  0  0  0  0  0
  -25.4510  -16.1720   20.5900 H   0  0  0  0  0  0  0  0  0  0  0  0
  -27.0330  -15.8510   20.0880 H   0  0  0  0  0  0  0  0  0  0  0  0
  -28.6100  -24.2940   19.6180 C   0  0  0  0  0  2  0  0  0  0  0  0
  -28.8890  -25.7000   18.9900 C   0  0  0  0  0  2  0  0  0  0  0  0
  -28.6830  -26.8490   19.8270 O   0  0  0  0  0  0  0  0  0  0  0  0
  -24.5930  -31.6510   23.1080 C   0  0  0  0  0  0  0  0  0  0  0  0
  -27.4680  -27.5130   19.8120 C   0  0  0  0  0  0  0  0  0  0  0  0
  -23.4730  -30.3010   21.3640 C   0  0  0  0  0  3  0  0  0  0  0  0
  -25.0120  -28.9210   19.8690 C   0  0  0  0  0  0  0  0  0  0  0  0
  -25.9840  -30.7820   21.2290 C   0  0  0  0  0  2  0  0  0  0  0  0
  -26.1360  -29.4560   20.5080 C   0  0  0  0  0  0  0  0  0  0  0  0
  -27.3650  -28.7570   20.4810 C   0  0  0  0  0  3  0  0  0  0  0  0
  -26.3200  -26.9950   19.1720 C   0  0  0  0  0  3  0  0  0  0  0  0
  -25.0990  -27.6920   19.1970 C   0  0  0  0  0  3  0  0  0  0  0  0
  -23.7330  -29.7200   19.9490 C   0  0  0  0  0  2  0  0  0  0  0  0
  -24.7020  -30.9230   21.9610 N   0  0  0  0  0  0  0  0  0  0  0  0
  -23.4930  -31.8400   23.6460 O   0  0  0  0  0  0  0  0  0  0  0  0
  -22.8600  -29.1950   22.2490 C   0  0  0  0  0  0  0  0  0  0  0  0
  -21.5430  -28.9690   22.0970 N   0  0  0  0  0  0  0  0  0  0  0  0
  -23.5620  -28.5490   23.0340 O   0  0  0  0  0  0  0  0  0  0  0  0
  -21.0350  -29.5460   21.4400 H   0  0  0  0  0  0  0  0  0  0  0  0
  -18.2120  -27.6290   22.4890 C   0  0  0  0  0  0  0  0  0  0  0  0
  -20.7580  -27.9520   22.7970 C   0  0  0  0  0  3  0  0  0  0  0  0
  -20.9150  -26.5710   22.1210 C   0  0  0  0  0  2  0  0  0  0  0  0
  -19.8280  -26.2820   21.0820 C   0  0  0  0  0  2  0  0  0  0  0  0
  -18.4390  -26.3370   21.7240 C   0  0  0  0  0  2  0  0  0  0  0  0
  -19.3030  -28.3950   22.9810 C   0  0  0  0  0  0  0  0  0  0  0  0
  -19.0420  -29.6040   23.6570 C   0  0  0  0  0  3  0  0  0  0  0  0
  -17.7210  -30.0500   23.8510 C   0  0  0  0  0  3  0  0  0  0  0  0
  -16.6440  -29.2790   23.3830 C   0  0  0  0  0  3  0  0  0  0  0  0
  -16.8900  -28.0720   22.7060 C   0  0  0  0  0  3  0  0  0  0  0  0
  -25.8380  -32.3030   23.7840 C   0  0  0  0  0  3  0  0  0  0  0  0
  -26.3170  -31.5270   25.0730 C   0  0  1  0  0  0  0  0  0  0  0  0
  -25.1840  -31.2470   26.0870 C   0  0  0  0  0  1  0  0  0  0  0  0
  -26.9510  -30.1720   24.6850 C   0  0  0  0  0  1  0  0  0  0  0  0
  -27.4200  -32.3400   25.7940 C   0  0  0  0  0  1  0  0  0  0  0  0
  -25.4900  -33.6900   24.1140 N   0  0  0  0  0  0  0  0  0  0  0  0
  -25.8410  -34.7560   23.3860 C   0  0  0  0  0  0  0  0  0  0  0  0
  -26.5630  -34.6740   22.3860 O   0  0  0  0  0  0  0  0  0  0  0  0
  -24.8590  -33.8260   24.8910 H   0  0  0  0  0  0  0  0  0  0  0  0
  -24.0980  -36.5150   22.9670 C   0  0  0  0  0  1  0  0  0  0  0  0
  -25.3070  -36.1300   23.8320 C   0  0  0  0  0  3  0  0  0  0  0  0
  -27.3780  -37.0470   24.7740 C   0  0  0  0  0  1  0  0  0  0  0  0
  -26.3210  -37.2040   23.7770 N   0  0  0  0  0  0  0  0  0  0  0  0
  -25.8900  -38.1160   23.9130 H   0  0  0  0  0  0  0  0  0  0  0  0
  1  8  1  0
  2  3  1  0
  4  5  1  0
  4  7  1  0
  5  6  1  1
  5  2  1  0
  7  1  1  0
  7  3  1  0
  8  9  1  0
  8 10  1  0
 11 13  2  0
 12 11  1  0
 12 14  2  0
 13 15  1  0
 13  1  1  0
 14 24  1  0
 14 15  1  0
 16 24  1  0
 17 22  1  0
 18 19  1  0
 18 17  1  0
 20 19  1  0
 20 29  1  0
 20 21  1  0
 22 16  1  0
 22 21  1  0
 23 16  2  0
 24 25  1  0
 26 27  2  0
 27 46  1  0
 28 31  1  0
 28 27  1  0
 29 30  1  0
 29 26  1  0
 30 28  2  0
 31 32  1  0
 32 33  2  0
 34 37  1  0
 34 33  1  0
 35 34  2  0
 36 35  1  0
 36 31  2  0
 37 38  1  0
 38 43  2  0
 38 39  1  0
 39 40  2  0
 40 41  1  0
 41 45  1  0
 42 41  2  0
 43 42  1  0
 44 43  1  0
 46 47  1  0
 47 50  1  0
 47 49  1  0
 48 46  2  0
 51 26  1  0
 51 52  1  0
 53 51  1  0
 54  5  1  0
 55 54  1  0
 55 56  1  0
 57 68  2  0
 58 56  1  0
 58 63  1  0
 59 67  1  0
 59 69  1  0
 60 66  1  0
 60 62  1  0
 61 67  1  0
 62 61  1  0
 63 62  2  0
 64 65  1  0
 64 58  2  0
 65 60  2  0
 66 59  1  0
 67 57  1  0
 69 71  2  0
 70 69  1  0
 72 70  1  0
 73 82  2  0
 73 78  1  0
 74 70  1  0
 74 78  1  0
 75 74  1  0
 76 77  1  0
 76 75  1  0
 77 73  1  0
 78 79  2  0
 79 80  1  0
 81 80  2  0
 82 81  1  0
 83 57  1  0
 83 88  1  0
 83 84  1  0
 84 87  1  1
 84 85  1  0
 86 84  1  0
 88 91  1  0
 89 93  1  0
 89 88  1  0
 90 89  2  0
 93 92  1  0
 95 93  1  0
 95 96  1  0
 95 94  1  0
M  ISO  4  16 100  24 100  55 101  56 101
M  END
>  <TORSDO>  (78) 
F 19

>  <SCORE>  (78) 
-12.999

>  <name>  (78) 
77

>  <ligand_id>  (78) 
77

>  <original_smiles>  (78) 
[H]c1c(C(N2C([H])([H])C([H])([H])C(C([H])([H])[H])(C([H])([H])C([H])([H])Oc3c([H])c([H])c4c(c3[H])C([H])([H])N(C(=O)C([H])(N([H])C(=O)C([H])(N([H])C([H])([H])[H])C([H])([H])[H])C(C([H])([H])[H])(C([H])([H])[H])C([H])([H])[H])C([H])(C(=O)N([H])C3([H])c5c([H])c([H])c([H])c([H])c5C([H])([H])C([H])([H])C3([H])[H])C4([H])[H])C2([H])[H])=[N+]([H])[H])sc(N([H])C(=O)N2C([H])([H])C([H])([H])C([H])([H])C([H])(n3nc(-c4c([H])c([H])c(Oc5c([H])c([H])c(F)c([H])c5F)c([H])c4[H])c(C(=O)N([H])[H])c3N([H])[H])C2([H])[H])c1[H]

>  <smiles>  (78) 
[H]c1c(C(N2C([H])([H])C([H])([H])C(C([H])([H])[H])(C([H])([H])C([H])([H])Oc3c([H])c([H])c4c(c3[H])C([H])([H])N(C(=O)C([H])(N([H])C(=O)C([H])(N([H])C([H])([H])[H])C([H])([H])[H])C(C([H])([H])[H])(C([H])([H])[H])C([H])([H])[H])C([H])(C(=O)N([H])C3([H])c5c([H])c([H])c([H])c([H])c5C([H])([H])C([H])([H])C3([H])[H])C4([H])[H])C2([H])[H])=[N+]([H])[H])sc(N([H])C(=O)N2C([H])([H])C([H])([H])C([H])([H])C([H])(n3nc(-c4c([H])c([H])c(Oc5c([H])c([H])c(F)c([H])c5F)c([H])c4[H])c(C(=O)N([H])[H])c3N([H])[H])C2([H])[H])c1[H]

$$$$
78:0:0
     RDKit          3D

 96104  0  0  1  0  0  0  0  0999 V2000
  -29.6750  -22.9190   21.1930 C   0  0  0  0  0  0  0  0  0  0  0  0
  -30.8110  -22.2130   21.0010 N   0  0  0  0  0  0  0  0  0  0  0  0
  -28.5990  -22.3940   21.4940 O   0  0  0  0  0  0  0  0  0  0  0  0
  -31.6540  -22.7690   20.9440 H   0  0  0  0  0  0  0  0  0  0  0  0
  -30.0580  -19.8590   20.6330 C   0  0  0  0  0  3  0  0  0  0  0  0
  -30.6210  -18.5400   20.4500 C   0  0  0  0  0  0  0  0  0  0  0  0
  -32.0050  -18.5510   20.4700 C   0  0  0  0  0  0  0  0  0  0  0  0
  -30.9750  -20.8690   20.8050 C   0  0  0  0  0  0  0  0  0  0  0  0
  -32.5800  -20.1940   20.6700 S   0  0  0  0  0  0  0  0  0  0  0  0
  -29.8090  -17.3250   20.3110 C   0  0  0  0  0  0  0  0  0  0  0  0
  -28.2960  -17.5150   20.3350 C   0  0  0  0  0  1  0  0  0  0  0  0
  -30.2400  -16.1760   20.1900 O   0  0  0  0  0  0  0  0  0  0  0  0
  -33.0350  -17.4300   20.4900 C   0  0  0  0  0  2  0  0  0  0  0  0
  -33.1900  -15.3970   19.0280 C   0  0  0  0  0  0  0  0  0  0  0  0
  -33.2510  -13.2660   17.7690 C   0  0  0  0  0  2  0  0  0  0  0  0
  -31.9750  -13.1140   16.9160 C   0  0  0  0  0  2  0  0  0  0  0  0
  -30.8470  -12.4660   17.7390 C   0  0  0  0  0  2  0  0  0  0  0  0
  -30.6540  -13.1430   19.1230 C   0  0  0  0  0  3  0  0  0  0  0  0
  -32.0040  -13.3220   19.8510 C   0  0  0  0  0  2  0  0  0  0  0  0
  -32.9070  -14.0660   18.9560 N   0  0  0  0  0  0  0  0  0  0  0  0
  -33.9130  -15.9600   18.2010 O   0  0  0  0  0  0  0  0  0  0  0  0
  -32.6310  -16.0850   20.0410 N   0  0  0  0  0  0  0  0  0  0  0  0
  -32.0410  -15.5640   20.6800 H   0  0  0  0  0  0  0  0  0  0  0  0
  -28.4990  -12.8570   20.4990 C   0  0  0  0  0  0  0  0  0  0  0  0
  -27.9370  -11.7650   21.1050 C   0  0  0  0  0  0  0  0  0  0  0  0
  -28.8390  -10.6820   20.8750 C   0  0  0  0  0  0  0  0  0  0  0  0
  -29.6890  -12.4140   19.9420 N   0  0  0  0  0  0  0  0  0  0  0  0
  -29.9140  -11.1070   20.2240 N   0  0  0  0  0  0  0  0  0  0  0  0
  -28.7200   -9.2530   21.1900 C   0  0  0  0  0  0  0  0  0  0  0  0
  -29.8260   -8.5050   21.6480 C   0  0  0  0  0  3  0  0  0  0  0  0
  -29.6820   -7.1370   21.9650 C   0  0  0  0  0  3  0  0  0  0  0  0
  -28.4220   -6.5060   21.8290 C   0  0  0  0  0  0  0  0  0  0  0  0
  -27.3300   -7.2510   21.3550 C   0  0  0  0  0  3  0  0  0  0  0  0
  -27.4750   -8.6130   21.0360 C   0  0  0  0  0  3  0  0  0  0  0  0
  -28.1950   -5.1760   22.0880 O   0  0  0  0  0  0  0  0  0  0  0  0
  -29.0770   -4.4250   22.8190 C   0  0  0  0  0  0  0  0  0  0  0  0
  -29.6850   -4.9210   23.9940 C   0  0  0  0  0  3  0  0  0  0  0  0
  -30.5310   -4.0900   24.7540 C   0  0  0  0  0  3  0  0  0  0  0  0
  -30.7630   -2.7620   24.3520 C   0  0  0  0  0  0  0  0  0  0  0  0
  -30.1520   -2.2630   23.1880 C   0  0  0  0  0  3  0  0  0  0  0  0
  -29.3100   -3.0900   22.4270 C   0  0  0  0  0  0  0  0  0  0  0  0
  -28.7070   -2.5980   21.3180 F   0  0  0  0  0  0  0  0  0  0  0  0
  -31.5700   -1.9620   25.0880 F   0  0  0  0  0  0  0  0  0  0  0  0
  -26.5950  -11.7070   21.7770 C   0  0  0  0  0  0  0  0  0  0  0  0
  -26.4480  -10.8350   22.7680 N   0  0  0  0  0  0  0  0  0  0  0  0
  -25.6850  -12.4700   21.4590 O   0  0  0  0  0  0  0  0  0  0  0  0
  -27.2020  -10.2200   23.0390 H   0  0  0  0  0  0  0  0  0  0  0  0
  -25.5680  -10.7820   23.2620 H   0  0  0  0  0  0  0  0  0  0  0  0
  -28.0920  -14.1820   20.3620 N   0  0  0  0  0  0  0  0  0  0  0  0
  -27.2340  -14.5310   20.7730 H   0  0  0  0  0  0  0  0  0  0  0  0
  -28.6440  -14.9030   19.9140 H   0  0  0  0  0  0  0  0  0  0  0  0
  -29.7560  -24.4530   21.0340 C   0  0  0  0  0  3  0  0  0  0  0  0
  -28.6220  -25.2640   21.7390 C   0  0  0  0  0  3  0  0  0  0  0  0
  -29.5910  -27.6100   22.0340 C   0  0  0  0  0  1  0  0  0  0  0  0
  -28.5250  -26.7600   21.3230 C   0  0  0  0  0  3  0  0  0  0  0  0
  -28.7840  -26.8690   19.9200 O   0  0  0  0  0  0  0  0  0  0  0  0
  -22.1520  -26.3070   17.1240 C   0  0  0  0  0  0  0  0  0  0  0  0
  -27.8310  -27.1320   18.9560 C   0  0  0  0  0  0  0  0  0  0  0  0
  -23.9340  -27.1380   15.6140 C   0  0  0  0  0  3  0  0  0  0  0  0
  -26.1400  -27.7240   16.7570 C   0  0  0  0  0  0  0  0  0  0  0  0
  -24.0750  -27.5070   18.1450 C   0  0  0  0  0  2  0  0  0  0  0  0
  -25.5860  -27.4620   18.0170 C   0  0  0  0  0  0  0  0  0  0  0  0
  -26.4260  -27.1660   19.1240 C   0  0  0  0  0  3  0  0  0  0  0  0
  -28.3630  -27.4090   17.6800 C   0  0  0  0  0  3  0  0  0  0  0  0
  -27.5340  -27.6880   16.5790 C   0  0  0  0  0  3  0  0  0  0  0  0
  -25.1840  -28.0550   15.6310 C   0  0  0  0  0  2  0  0  0  0  0  0
  -23.3510  -26.9410   16.9840 N   0  0  0  0  0  0  0  0  0  0  0  0
  -21.5100  -25.9270   16.1370 O   0  0  0  0  0  0  0  0  0  0  0  0
  -24.3030  -25.8120   14.9160 C   0  0  0  0  0  0  0  0  0  0  0  0
  -23.9180  -25.6720   13.6380 N   0  0  0  0  0  0  0  0  0  0  0  0
  -24.9580  -24.9500   15.5120 O   0  0  0  0  0  0  0  0  0  0  0  0
  -23.3830  -26.4220   13.2200 H   0  0  0  0  0  0  0  0  0  0  0  0
  -22.9720  -24.0600   10.5520 C   0  0  0  0  0  0  0  0  0  0  0  0
  -24.1960  -24.5250   12.7770 C   0  0  0  0  0  3  0  0  0  0  0  0
  -25.4570  -24.7670   11.9170 C   0  0  0  0  0  2  0  0  0  0  0  0
  -25.1440  -25.3640   10.5430 C   0  0  0  0  0  2  0  0  0  0  0  0
  -24.2130  -24.4350    9.7570 C   0  0  0  0  0  2  0  0  0  0  0  0
  -22.9620  -24.1160   11.9710 C   0  0  0  0  0  0  0  0  0  0  0  0
  -21.7760  -23.7910   12.6640 C   0  0  0  0  0  3  0  0  0  0  0  0
  -20.6160  -23.4120   11.9650 C   0  0  0  0  0  3  0  0  0  0  0  0
  -20.6350  -23.3390   10.5610 C   0  0  0  0  0  3  0  0  0  0  0  0
  -21.8090  -23.6620    9.8570 C   0  0  0  0  0  3  0  0  0  0  0  0
  -21.5220  -26.0520   18.5290 C   0  0  0  0  0  3  0  0  0  0  0  0
  -20.0950  -25.7720   18.3260 N   0  0  0  0  0  0  0  0  0  0  0  0
  -19.1310  -26.7050   18.3620 C   0  0  0  0  0  0  0  0  0  0  0  0
  -19.3460  -27.8880   18.6380 O   0  0  0  0  0  0  0  0  0  0  0  0
  -19.8490  -24.8380   18.0410 H   0  0  0  0  0  0  0  0  0  0  0  0
  -17.3760  -26.5640   16.5740 C   0  0  0  0  0  1  0  0  0  0  0  0
  -17.6970  -26.2470   18.0420 C   0  0  0  0  0  3  0  0  0  0  0  0
  -16.7300  -26.3850   20.2940 C   0  0  0  0  0  1  0  0  0  0  0  0
  -16.6730  -26.8600   18.9140 N   0  0  0  0  0  0  0  0  0  0  0  0
  -15.7410  -26.6800   18.5560 H   0  0  0  0  0  0  0  0  0  0  0  0
  -22.2160  -24.8790   19.3240 C   0  0  1  0  0  0  0  0  0  0  0  0
  -22.3730  -23.5800   18.4970 C   0  0  0  0  0  1  0  0  0  0  0  0
  -23.6140  -25.3080   19.8250 C   0  0  0  0  0  1  0  0  0  0  0  0
  -21.3960  -24.5590   20.5950 C   0  0  0  0  0  1  0  0  0  0  0  0
  1  3  2  0
  2  1  1  0
  4  2  1  0
  5  8  2  0
  6  7  2  0
  6  5  1  0
  7 13  1  0
  7  9  1  0
  8  2  1  0
  9  8  1  0
 10 11  1  0
 10  6  1  0
 12 10  2  0
 14 22  1  0
 15 20  1  0
 16 17  1  0
 16 15  1  0
 18 17  1  0
 18 19  1  0
 18 27  1  0
 20 14  1  0
 20 19  1  0
 21 14  2  0
 22 13  1  0
 22 23  1  0
 24 25  2  0
 25 44  1  0
 26 25  1  0
 26 29  1  0
 27 28  1  0
 27 24  1  0
 28 26  2  0
 29 30  1  0
 30 31  2  0
 32 31  1  0
 32 35  1  0
 33 32  2  0
 34 29  2  0
 34 33  1  0
 35 36  1  0
 36 37  1  0
 37 38  2  0
 39 38  1  0
 39 43  1  0
 40 39  2  0
 41 36  2  0
 41 40  1  0
 42 41  1  0
 44 45  1  0
 45 47  1  0
 45 48  1  0
 46 44  2  0
 49 24  1  0
 49 50  1  0
 51 49  1  0
 52  1  1  0
 52 53  2  0
 55 53  1  0
 55 54  1  0
 56 55  1  0
 58 63  1  0
 58 56  1  0
 59 69  1  0
 59 66  1  0
 59 67  1  0
 60 62  1  0
 62 61  1  0
 62 63  2  0
 64 58  2  0
 65 60  2  0
 65 64  1  0
 66 60  1  0
 67 57  1  0
 67 61  1  0
 68 57  2  0
 69 71  2  0
 70 69  1  0
 72 70  1  0
 73 78  1  0
 74 70  1  0
 75 74  1  0
 76 75  1  0
 77 76  1  0
 77 73  1  0
 78 79  2  0
 78 74  1  0
 80 79  1  0
 81 80  2  0
 82 73  2  0
 82 81  1  0
 83 57  1  0
 83 93  1  0
 84 85  1  0
 84 83  1  0
 85 86  2  0
 87 84  1  0
 89 88  1  0
 89 85  1  0
 89 91  1  0
 91 90  1  0
 92 91  1  0
 93 95  1  1
 93 96  1  0
 94 93  1  0
M  ISO  4  14 100  22 100  55 101  56 101
M  END
>  <TORSDO>  (79) 
F 22

>  <SCORE>  (79) 
-3.223

>  <name>  (79) 
78

>  <ligand_id>  (79) 
78

>  <original_smiles>  (79) 
[H]c1c([H])c([H])c2c(c1[H])C([H])([H])C([H])([H])C([H])([H])C2([H])N([H])C(=O)C1([H])N(C(=O)C([H])(N([H])C(=O)C([H])(N([H])C([H])([H])[H])C([H])([H])[H])C(C([H])([H])[H])(C([H])([H])[H])C([H])([H])[H])C([H])([H])c2c([H])c(OC([H])(C([H])([H])[H])C([H])([H])C([H])([H])C(=O)N([H])c3sc(C([H])([H])N([H])C(=O)N4C([H])([H])C([H])([H])C([H])([H])C([H])(n5nc(-c6c([H])c([H])c(Oc7c([H])c([H])c(F)c([H])c7F)c([H])c6[H])c(C(=O)N([H])[H])c5N([H])[H])C4([H])[H])c(C(=O)C([H])([H])[H])c3[H])c([H])c([H])c2C1([H])[H]

>  <smiles>  (79) 
[H]c1c([H])c([H])c2c(c1[H])C([H])([H])C([H])([H])C([H])([H])C2([H])N([H])C(=O)C1([H])N(C(=O)C([H])(N([H])C(=O)C([H])(N([H])C([H])([H])[H])C([H])([H])[H])C(C([H])([H])[H])(C([H])([H])[H])C([H])([H])[H])C([H])([H])c2c([H])c(OC([H])(C([H])([H])[H])C([H])([H])C([H])([H])C(=O)N([H])c3sc(C([H])([H])N([H])C(=O)N4C([H])([H])C([H])([H])C([H])([H])C([H])(n5nc(-c6c([H])c([H])c(Oc7c([H])c([H])c(F)c([H])c7F)c([H])c6[H])c(C(=O)N([H])[H])c5N([H])[H])C4([H])[H])c(C(=O)C([H])([H])[H])c3[H])c([H])c([H])c2C1([H])[H]

$$$$
79:0:0
     RDKit          3D

 95104  0  0  1  0  0  0  0  0999 V2000
  -31.2680  -18.2400   19.6340 C   0  0  0  0  0  3  0  0  0  0  0  0
  -28.8970  -18.0640   19.8520 C   0  0  0  0  0  3  0  0  0  0  0  0
  -31.1460  -19.6780   19.5530 C   0  0  0  0  0  0  0  0  0  0  0  0
  -29.8850  -20.3600   19.6320 C   0  0  0  0  0  0  0  0  0  0  0  0
  -30.1440  -17.3780   19.8030 C   0  0  0  0  0  0  0  0  0  0  0  0
  -28.7600  -19.4920   19.7750 C   0  0  0  0  0  0  0  0  0  0  0  0
  -32.4160  -20.4990   19.4320 C   0  0  0  0  0  1  0  0  0  0  0  0
  -30.8950  -14.8370   19.4400 C   0  0  0  0  0  0  0  0  0  0  0  0
  -30.5990  -12.5370   18.4890 C   0  0  0  0  0  2  0  0  0  0  0  0
  -29.5310  -12.5980   17.3710 C   0  0  0  0  0  2  0  0  0  0  0  0
  -28.1090  -12.4660   17.9530 C   0  0  0  0  0  2  0  0  0  0  0  0
  -27.8840  -13.3880   19.1790 C   0  0  0  0  0  3  0  0  0  0  0  0
  -29.0490  -13.2660   20.1890 C   0  0  0  0  0  2  0  0  0  0  0  0
  -30.2900  -13.5980   19.4740 N   0  0  0  0  0  0  0  0  0  0  0  0
  -32.0010  -14.9790   18.9080 O   0  0  0  0  0  0  0  0  0  0  0  0
  -30.1320  -15.8930   19.9080 N   0  0  0  0  0  0  0  0  0  0  0  0
  -29.3100  -15.5410   20.3720 H   0  0  0  0  0  0  0  0  0  0  0  0
  -25.6530  -14.0780   20.2440 C   0  0  0  0  0  0  0  0  0  0  0  0
  -24.5810  -13.3490   20.6830 C   0  0  0  0  0  0  0  0  0  0  0  0
  -24.9290  -11.9780   20.4830 C   0  0  0  0  0  0  0  0  0  0  0  0
  -26.5880  -13.1540   19.8060 N   0  0  0  0  0  0  0  0  0  0  0  0
  -26.1640  -11.8790   20.0080 N   0  0  0  0  0  0  0  0  0  0  0  0
  -24.1340  -10.7560   20.6600 C   0  0  0  0  0  0  0  0  0  0  0  0
  -24.6300   -9.6530   21.3880 C   0  0  0  0  0  3  0  0  0  0  0  0
  -23.8390   -8.4950   21.5600 C   0  0  0  0  0  3  0  0  0  0  0  0
  -22.5390   -8.4350   21.0040 C   0  0  0  0  0  0  0  0  0  0  0  0
  -22.0610   -9.5280   20.2600 C   0  0  0  0  0  3  0  0  0  0  0  0
  -22.8500  -10.6760   20.0850 C   0  0  0  0  0  3  0  0  0  0  0  0
  -21.7090   -7.3440   21.1010 O   0  0  0  0  0  0  0  0  0  0  0  0
  -21.8480   -6.4200   22.1050 C   0  0  0  0  0  0  0  0  0  0  0  0
  -21.7840   -6.7850   23.4670 C   0  0  0  0  0  3  0  0  0  0  0  0
  -21.8620   -5.7950   24.4670 C   0  0  0  0  0  3  0  0  0  0  0  0
  -21.9930   -4.4400   24.1070 C   0  0  0  0  0  0  0  0  0  0  0  0
  -22.0520   -4.0740   22.7510 C   0  0  0  0  0  3  0  0  0  0  0  0
  -21.9770   -5.0610   21.7520 C   0  0  0  0  0  0  0  0  0  0  0  0
  -22.0120   -4.7010   20.4470 F   0  0  0  0  0  0  0  0  0  0  0  0
  -22.0610   -3.4870   25.0650 F   0  0  0  0  0  0  0  0  0  0  0  0
  -23.2700  -13.8920   21.1710 C   0  0  0  0  0  0  0  0  0  0  0  0
  -22.6090  -13.1760   22.0740 N   0  0  0  0  0  0  0  0  0  0  0  0
  -22.8490  -14.9830   20.7900 O   0  0  0  0  0  0  0  0  0  0  0  0
  -22.9670  -12.2900   22.4000 H   0  0  0  0  0  0  0  0  0  0  0  0
  -21.7330  -13.5160   22.4440 H   0  0  0  0  0  0  0  0  0  0  0  0
  -25.9010  -15.4450   20.1560 N   0  0  0  0  0  0  0  0  0  0  0  0
  -25.1960  -16.1340   20.3960 H   0  0  0  0  0  0  0  0  0  0  0  0
  -26.7140  -15.8520   19.7120 H   0  0  0  0  0  0  0  0  0  0  0  0
  -28.8870  -24.1520   19.9110 C   0  0  0  0  0  0  0  0  0  0  0  0
  -28.4670  -25.4780   19.7940 C   0  0  0  0  0  3  0  0  0  0  0  0
  -29.3490  -23.6550   21.2670 C   0  0  0  0  0  2  0  0  0  0  0  0
  -29.0610  -22.8940   18.9810 C   0  0  0  0  0  2  0  0  0  0  0  0
  -30.2030  -22.3960   21.0320 C   0  0  0  0  0  2  0  0  0  0  0  0
  -29.7410  -21.8080   19.7820 N   0  0  0  0  0  0  0  0  0  0  0  0
  -28.0630  -26.3190   18.7390 O   0  0  0  0  0  0  0  0  0  0  0  0
  -24.7340  -31.4200   22.7460 C   0  0  0  0  0  0  0  0  0  0  0  0
  -27.0050  -27.2210   18.9660 C   0  0  0  0  0  0  0  0  0  0  0  0
  -23.3740  -30.2350   21.0610 C   0  0  0  0  0  3  0  0  0  0  0  0
  -24.6790  -28.8500   19.3440 C   0  0  0  0  0  0  0  0  0  0  0  0
  -25.8970  -30.5510   20.7020 C   0  0  0  0  0  2  0  0  0  0  0  0
  -25.9010  -29.2530   19.8960 C   0  0  0  0  0  0  0  0  0  0  0  0
  -27.0710  -28.4500   19.7010 C   0  0  0  0  0  3  0  0  0  0  0  0
  -25.7610  -26.8770   18.4030 C   0  0  0  0  0  3  0  0  0  0  0  0
  -24.6080  -27.6690   18.5890 C   0  0  0  0  0  3  0  0  0  0  0  0
  -23.4640  -29.7240   19.5990 C   0  0  0  0  0  2  0  0  0  0  0  0
  -24.6910  -30.7470   21.5590 N   0  0  0  0  0  0  0  0  0  0  0  0
  -23.7030  -31.6400   23.4010 O   0  0  0  0  0  0  0  0  0  0  0  0
  -22.7750  -29.1180   21.9500 C   0  0  0  0  0  0  0  0  0  0  0  0
  -21.4390  -28.9710   21.9230 N   0  0  0  0  0  0  0  0  0  0  0  0
  -23.5090  -28.3910   22.6240 O   0  0  0  0  0  0  0  0  0  0  0  0
  -20.9010  -29.6090   21.3540 H   0  0  0  0  0  0  0  0  0  0  0  0
  -18.0930  -27.7660   22.5960 C   0  0  0  0  0  0  0  0  0  0  0  0
  -20.6730  -27.9560   22.6470 C   0  0  0  0  0  3  0  0  0  0  0  0
  -20.6820  -26.6060   21.8920 C   0  0  0  0  0  2  0  0  0  0  0  0
  -19.4820  -26.4290   20.9560 C   0  0  0  0  0  2  0  0  0  0  0  0
  -18.1710  -26.5110   21.7430 C   0  0  0  0  0  2  0  0  0  0  0  0
  -19.2680  -28.4530   23.0070 C   0  0  0  0  0  0  0  0  0  0  0  0
  -19.1370  -29.6320   23.7720 C   0  0  0  0  0  3  0  0  0  0  0  0
  -17.8670  -30.1250   24.1250 C   0  0  0  0  0  3  0  0  0  0  0  0
  -16.7100  -29.4330   23.7270 C   0  0  0  0  0  3  0  0  0  0  0  0
  -16.8240  -28.2550   22.9680 C   0  0  0  0  0  3  0  0  0  0  0  0
  -26.0750  -31.9660   23.3270 C   0  0  0  0  0  3  0  0  0  0  0  0
  -25.8010  -33.2860   23.9150 N   0  0  0  0  0  0  0  0  0  0  0  0
  -26.1170  -34.4550   23.3410 C   0  0  0  0  0  0  0  0  0  0  0  0
  -26.7370  -34.5330   22.2780 O   0  0  0  0  0  0  0  0  0  0  0  0
  -25.2480  -33.3000   24.7590 H   0  0  0  0  0  0  0  0  0  0  0  0
  -24.4080  -36.2990   23.3880 C   0  0  0  0  0  1  0  0  0  0  0  0
  -25.6720  -35.7420   24.0610 C   0  0  0  0  0  3  0  0  0  0  0  0
  -27.8550  -36.4380   24.9490 C   0  0  0  0  0  1  0  0  0  0  0  0
  -26.7200  -36.7870   24.0980 N   0  0  0  0  0  0  0  0  0  0  0  0
  -26.3360  -37.6680   24.4290 H   0  0  0  0  0  0  0  0  0  0  0  0
  -26.7240  -31.0060   24.3980 C   0  0  1  0  0  0  0  0  0  0  0  0
  -25.7540  -30.5890   25.5290 C   0  0  0  0  0  1  0  0  0  0  0  0
  -27.2510  -29.7150   23.7300 C   0  0  0  0  0  1  0  0  0  0  0  0
  -27.9450  -31.6970   25.0510 C   0  0  0  0  0  1  0  0  0  0  0  0
  -26.5220  -19.4770   20.7570 C   0  0  0  0  0  1  0  0  0  0  0  0
  -27.4970  -20.0960   19.8650 N   0  0  0  0  0  0  0  0  0  0  0  0
  -27.6120  -21.1060   19.9570 H   0  0  0  0  0  0  0  0  0  0  0  0
  1  5  1  0
  3  4  1  0
  3  1  2  0
  4  6  2  0
  4 51  1  0
  5  2  2  0
  5 16  1  0
  6  2  1  0
  6 94  1  0
  7  3  1  0
  8 14  1  0
  8 16  1  0
  9 14  1  0
 10 11  1  0
 10  9  1  0
 12 11  1  0
 12 21  1  0
 12 13  1  0
 14 13  1  0
 15  8  2  0
 16 17  1  0
 18 19  2  0
 19 38  1  0
 20 23  1  0
 20 19  1  0
 21 22  1  0
 21 18  1  0
 22 20  2  0
 23 24  1  0
 24 25  2  0
 26 29  1  0
 26 25  1  0
 27 26  2  0
 28 27  1  0
 28 23  2  0
 29 30  1  0
 30 31  1  0
 31 32  2  0
 33 32  1  0
 33 37  1  0
 34 33  2  0
 35 30  2  0
 35 34  1  0
 36 35  1  0
 38 39  1  0
 39 41  1  0
 39 42  1  0
 40 38  2  0
 43 18  1  0
 43 44  1  0
 45 43  1  0
 46 48  1  0
 47 46  2  0
 49 51  1  0
 49 46  1  0
 50 48  1  0
 51 50  1  0
 52 54  1  0
 52 47  1  0
 53 64  2  0
 54 59  1  0
 55 63  1  0
 55 65  1  0
 56 62  1  0
 56 58  1  0
 57 63  1  0
 58 57  1  0
 59 58  2  0
 60 61  1  0
 60 54  2  0
 61 56  2  0
 62 55  1  0
 63 53  1  0
 65 67  2  0
 66 65  1  0
 68 66  1  0
 69 78  2  0
 69 74  1  0
 70 66  1  0
 70 74  1  0
 71 70  1  0
 72 73  1  0
 72 71  1  0
 73 69  1  0
 74 75  2  0
 75 76  1  0
 77 76  2  0
 78 77  1  0
 79 53  1  0
 79 80  1  0
 79 89  1  0
 80 83  1  0
 81 80  1  0
 81 85  1  0
 82 81  2  0
 85 84  1  0
 85 87  1  0
 87 88  1  0
 87 86  1  0
 89 92  1  1
 89 90  1  0
 91 89  1  0
 94 95  1  0
 94 93  1  0
M  ISO  4   8 100  16 100  47 101  52 101
M  END
>  <TORSDO>  (80) 
F 18

>  <SCORE>  (80) 
-10.021

>  <name>  (80) 
79

>  <ligand_id>  (80) 
79

>  <original_smiles>  (80) 
[H]C(Oc1c([H])c([H])c2c(c1[H])C([H])([H])N(C(=O)C([H])(N([H])C(=O)C([H])(N([H])C([H])([H])[H])C([H])([H])[H])C(C([H])([H])[H])(C([H])([H])[H])C([H])([H])[H])C([H])(C(=O)N([H])C1([H])c3c([H])c([H])c([H])c([H])c3C([H])([H])C([H])([H])C1([H])[H])C2([H])[H])=C1C([H])([H])N(c2c(N([H])C([H])([H])[H])c([H])c(N([H])C(=O)N3C([H])([H])C([H])([H])C([H])([H])C([H])(n4nc(-c5c([H])c([H])c(Oc6c([H])c([H])c(F)c([H])c6F)c([H])c5[H])c(C(=O)N([H])[H])c4N([H])[H])C3([H])[H])c([H])c2C([H])([H])[H])C([H])([H])C1([H])[H]

>  <smiles>  (80) 
[H]C(Oc1c([H])c([H])c2c(c1[H])C([H])([H])N(C(=O)C([H])(N([H])C(=O)C([H])(N([H])C([H])([H])[H])C([H])([H])[H])C(C([H])([H])[H])(C([H])([H])[H])C([H])([H])[H])C([H])(C(=O)N([H])C1([H])c3c([H])c([H])c([H])c([H])c3C([H])([H])C([H])([H])C1([H])[H])C2([H])[H])=C1C([H])([H])N(c2c(N([H])C([H])([H])[H])c([H])c(N([H])C(=O)N3C([H])([H])C([H])([H])C([H])([H])C([H])(n4nc(-c5c([H])c([H])c(Oc6c([H])c([H])c(F)c([H])c6F)c([H])c5[H])c(C(=O)N([H])[H])c4N([H])[H])C3([H])[H])c([H])c2C([H])([H])[H])C([H])([H])C1([H])[H]

$$$$
80:0:0
     RDKit          3D

 98106  0  0  1  0  0  0  0  0999 V2000
  -29.4680  -20.4410   21.2370 C   0  0  0  0  0  0  0  0  0  0  0  0
  -28.8600  -22.8710   21.0980 C   0  0  0  0  0  0  0  0  0  0  0  0
  -29.7330  -21.7390   20.9770 N   0  0  0  0  0  0  0  0  0  0  0  0
  -28.2690  -20.0360   21.6710 N   0  0  0  0  0  4  0  0  0  0  0  0
  -27.6560  -22.7660   21.3630 O   0  0  0  0  0  0  0  0  0  0  0  0
  -30.6930  -21.8580   20.6920 H   0  0  0  0  0  0  0  0  0  0  0  0
  -28.1140  -19.0790   21.9460 H   0  0  0  0  0  0  0  0  0  0  0  0
  -27.5340  -20.7220   21.7840 H   0  0  0  0  0  0  0  0  0  0  0  0
  -32.9020  -18.8530   20.9100 C   0  0  0  0  0  3  0  0  0  0  0  0
  -31.8920  -19.8180   21.0970 C   0  0  0  0  0  3  0  0  0  0  0  0
  -32.5650  -17.5030   20.6930 C   0  0  0  0  0  3  0  0  0  0  0  0
  -30.1960  -18.0820   20.8440 C   0  0  0  0  0  3  0  0  0  0  0  0
  -30.5300  -19.4390   21.0560 C   0  0  0  0  0  0  0  0  0  0  0  0
  -31.2060  -17.1110   20.6600 C   0  0  0  0  0  0  0  0  0  0  0  0
  -31.4470  -14.7650   19.8720 C   0  0  0  0  0  0  0  0  0  0  0  0
  -31.1800  -12.4620   19.0200 C   0  0  0  0  0  2  0  0  0  0  0  0
  -30.1990  -12.4390   17.8310 C   0  0  0  0  0  2  0  0  0  0  0  0
  -28.7430  -12.3260   18.3190 C   0  0  0  0  0  2  0  0  0  0  0  0
  -28.4050  -13.3520   19.4340 C   0  0  0  0  0  3  0  0  0  0  0  0
  -29.4870  -13.3220   20.5360 C   0  0  0  0  0  2  0  0  0  0  0  0
  -30.7950  -13.5730   19.9010 N   0  0  0  0  0  0  0  0  0  0  0  0
  -32.4980  -14.9440   19.2480 O   0  0  0  0  0  0  0  0  0  0  0  0
  -30.8090  -15.7570   20.5120 N   0  0  0  0  0  0  0  0  0  0  0  0
  -29.8980  -15.5130   20.8680 H   0  0  0  0  0  0  0  0  0  0  0  0
  -26.0760  -14.0470   20.2840 C   0  0  0  0  0  0  0  0  0  0  0  0
  -24.9990  -13.3110   20.7020 C   0  0  0  0  0  0  0  0  0  0  0  0
  -25.4000  -11.9430   20.6190 C   0  0  0  0  0  0  0  0  0  0  0  0
  -27.0680  -13.1280   19.9800 N   0  0  0  0  0  0  0  0  0  0  0  0
  -26.6670  -11.8560   20.2340 N   0  0  0  0  0  0  0  0  0  0  0  0
  -24.6350  -10.7070   20.8270 C   0  0  0  0  0  0  0  0  0  0  0  0
  -25.0030   -9.7690   21.8170 C   0  0  0  0  0  3  0  0  0  0  0  0
  -24.2410   -8.5960   22.0090 C   0  0  0  0  0  3  0  0  0  0  0  0
  -23.0970   -8.3550   21.2120 C   0  0  0  0  0  0  0  0  0  0  0  0
  -22.7480   -9.2810   20.2120 C   0  0  0  0  0  3  0  0  0  0  0  0
  -23.5110  -10.4450   20.0180 C   0  0  0  0  0  3  0  0  0  0  0  0
  -22.3110   -7.2320   21.3110 O   0  0  0  0  0  0  0  0  0  0  0  0
  -22.0860   -6.6160   22.5160 C   0  0  0  0  0  0  0  0  0  0  0  0
  -21.4590   -7.2840   23.5890 C   0  0  0  0  0  3  0  0  0  0  0  0
  -21.1840   -6.5920   24.7860 C   0  0  0  0  0  3  0  0  0  0  0  0
  -21.5260   -5.2320   24.9070 C   0  0  0  0  0  0  0  0  0  0  0  0
  -22.1460   -4.5630   23.8360 C   0  0  0  0  0  3  0  0  0  0  0  0
  -22.4220   -5.2520   22.6430 C   0  0  0  0  0  0  0  0  0  0  0  0
  -23.0000   -4.5980   21.6080 F   0  0  0  0  0  0  0  0  0  0  0  0
  -21.2550   -4.5640   26.0530 F   0  0  0  0  0  0  0  0  0  0  0  0
  -23.6400  -13.8390   21.0640 C   0  0  0  0  0  0  0  0  0  0  0  0
  -22.9400  -13.1600   21.9670 N   0  0  0  0  0  0  0  0  0  0  0  0
  -23.2110  -14.8860   20.5820 O   0  0  0  0  0  0  0  0  0  0  0  0
  -23.3000  -12.3120   22.3770 H   0  0  0  0  0  0  0  0  0  0  0  0
  -22.0300  -13.4940   22.2520 H   0  0  0  0  0  0  0  0  0  0  0  0
  -26.2870  -15.4130   20.1220 N   0  0  0  0  0  0  0  0  0  0  0  0
  -25.5500  -16.0940   20.2700 H   0  0  0  0  0  0  0  0  0  0  0  0
  -27.1250  -15.8190   19.7240 H   0  0  0  0  0  0  0  0  0  0  0  0
  -29.5510  -24.2250   20.9320 C   0  0  0  0  0  2  0  0  0  0  0  0
  -28.6930  -25.2900   20.2080 C   0  0  0  0  0  2  0  0  0  0  0  0
  -29.1750  -27.2980   21.7240 C   0  0  0  0  0  1  0  0  0  0  0  0
  -30.7330  -26.7780   19.8270 C   0  0  0  0  0  1  0  0  0  0  0  0
  -29.2660  -26.7280   20.2900 C   0  0  1  0  0  0  0  0  0  0  0  0
  -28.6110  -27.5280   19.2950 O   0  0  0  0  0  0  0  0  0  0  0  0
  -24.4470  -31.8340   23.1610 C   0  0  0  0  0  0  0  0  0  0  0  0
  -27.3680  -28.0680   19.5280 C   0  0  0  0  0  0  0  0  0  0  0  0
  -23.3010  -30.5080   21.4120 C   0  0  0  0  0  3  0  0  0  0  0  0
  -24.8300  -29.2790   19.7820 C   0  0  0  0  0  0  0  0  0  0  0  0
  -25.7610  -31.1490   21.1610 C   0  0  0  0  0  2  0  0  0  0  0  0
  -25.9510  -29.8680   20.3790 C   0  0  0  0  0  0  0  0  0  0  0  0
  -27.2210  -29.2770   20.2410 C   0  0  0  0  0  3  0  0  0  0  0  0
  -26.2350  -27.4830   18.9260 C   0  0  0  0  0  3  0  0  0  0  0  0
  -24.9650  -28.0820   19.0530 C   0  0  0  0  0  3  0  0  0  0  0  0
  -23.5110  -29.9970   19.9600 C   0  0  0  0  0  2  0  0  0  0  0  0
  -24.5230  -31.1730   21.9720 N   0  0  0  0  0  0  0  0  0  0  0  0
  -23.3730  -31.9370   23.7690 O   0  0  0  0  0  0  0  0  0  0  0  0
  -22.7960  -29.3310   22.2750 C   0  0  0  0  0  0  0  0  0  0  0  0
  -21.4960  -29.0190   22.1540 N   0  0  0  0  0  0  0  0  0  0  0  0
  -23.5680  -28.7040   23.0060 O   0  0  0  0  0  0  0  0  0  0  0  0
  -20.9280  -29.5860   21.5400 H   0  0  0  0  0  0  0  0  0  0  0  0
  -18.2880  -27.4160   22.5750 C   0  0  0  0  0  0  0  0  0  0  0  0
  -20.8080  -27.9240   22.8360 C   0  0  0  0  0  3  0  0  0  0  0  0
  -21.0490  -26.5780   22.1120 C   0  0  0  0  0  2  0  0  0  0  0  0
  -19.9630  -26.2420   21.0860 C   0  0  0  0  0  2  0  0  0  0  0  0
  -18.5900  -26.1690   21.7610 C   0  0  0  0  0  2  0  0  0  0  0  0
  -19.3270  -28.2490   23.0660 C   0  0  0  0  0  0  0  0  0  0  0  0
  -18.9910  -29.4150   23.7850 C   0  0  0  0  0  3  0  0  0  0  0  0
  -17.6440  -29.7530   24.0180 C   0  0  0  0  0  3  0  0  0  0  0  0
  -16.6180  -28.9180   23.5440 C   0  0  0  0  0  3  0  0  0  0  0  0
  -16.9410  -27.7500   22.8290 C   0  0  0  0  0  3  0  0  0  0  0  0
  -25.6990  -32.5140   23.8030 C   0  0  0  0  0  3  0  0  0  0  0  0
  -26.2240  -31.7650   25.0900 C   0  0  1  0  0  0  0  0  0  0  0  0
  -25.1120  -31.4330   26.1100 C   0  0  0  0  0  1  0  0  0  0  0  0
  -26.9220  -30.4400   24.7010 C   0  0  0  0  0  1  0  0  0  0  0  0
  -27.2860  -32.6320   25.8050 C   0  0  0  0  0  1  0  0  0  0  0  0
  -25.3350  -33.9010   24.1200 N   0  0  0  0  0  0  0  0  0  0  0  0
  -25.6660  -34.9630   23.3710 C   0  0  0  0  0  0  0  0  0  0  0  0
  -26.3790  -34.8790   22.3680 O   0  0  0  0  0  0  0  0  0  0  0  0
  -24.7060  -34.0380   24.8960 H   0  0  0  0  0  0  0  0  0  0  0  0
  -23.8970  -36.6970   22.9410 C   0  0  0  0  0  1  0  0  0  0  0  0
  -25.1150  -36.3340   23.8040 C   0  0  0  0  0  3  0  0  0  0  0  0
  -27.1830  -37.2890   24.7250 C   0  0  0  0  0  1  0  0  0  0  0  0
  -26.1180  -37.4200   23.7330 N   0  0  0  0  0  0  0  0  0  0  0  0
  -25.6760  -38.3270   23.8610 H   0  0  0  0  0  0  0  0  0  0  0  0
  1  4  2  0
  2  5  2  0
  3  2  1  0
  3  1  1  0
  4  8  1  0
  4  7  1  0
  6  3  1  0
  9 10  1  0
 11  9  2  0
 12 13  1  0
 13 10  2  0
 13  1  1  0
 14 11  1  0
 14 12  2  0
 15 21  1  0
 15 23  1  0
 16 21  1  0
 17 18  1  0
 17 16  1  0
 19 18  1  0
 19 28  1  0
 19 20  1  0
 21 20  1  0
 22 15  2  0
 23 14  1  0
 23 24  1  0
 25 26  2  0
 26 45  1  0
 27 26  1  0
 27 30  1  0
 28 29  1  0
 28 25  1  0
 29 27  2  0
 30 31  1  0
 31 32  2  0
 33 36  1  0
 33 32  1  0
 34 33  2  0
 35 34  1  0
 35 30  2  0
 36 37  1  0
 37 42  2  0
 37 38  1  0
 38 39  2  0
 39 40  1  0
 40 44  1  0
 41 40  2  0
 42 41  1  0
 43 42  1  0
 45 46  1  0
 46 49  1  0
 46 48  1  0
 47 45  2  0
 50 51  1  0
 50 25  1  0
 52 50  1  0
 53  2  1  0
 54 57  1  0
 54 53  1  0
 57 56  1  6
 57 55  1  0
 58 60  1  0
 58 57  1  0
 59 70  2  0
 60 65  1  0
 61 69  1  0
 61 71  1  0
 62 68  1  0
 62 64  1  0
 63 69  1  0
 64 63  1  0
 65 64  2  0
 66 67  1  0
 66 60  2  0
 67 62  2  0
 68 61  1  0
 69 59  1  0
 71 73  2  0
 72 71  1  0
 74 72  1  0
 75 84  2  0
 75 80  1  0
 76 72  1  0
 76 80  1  0
 77 76  1  0
 78 79  1  0
 78 77  1  0
 79 75  1  0
 80 81  2  0
 81 82  1  0
 83 82  2  0
 84 83  1  0
 85 59  1  0
 85 90  1  0
 85 86  1  0
 86 89  1  1
 86 87  1  0
 88 86  1  0
 90 93  1  0
 91 95  1  0
 91 90  1  0
 92 91  2  0
 95 94  1  0
 97 95  1  0
 97 98  1  0
 97 96  1  0
M  ISO  4  15 100  23 100  57 101  58 101
M  END
>  <TORSDO>  (81) 
F 20

>  <SCORE>  (81) 
-11.356

>  <name>  (81) 
80

>  <ligand_id>  (81) 
80

>  <original_smiles>  (81) 
[H]c1c([H])c(C(N([H])C(=O)C([H])([H])C([H])([H])C(Oc2c([H])c([H])c3c(c2[H])C([H])([H])N(C(=O)C([H])(N([H])C(=O)C([H])(N([H])C([H])([H])[H])C([H])([H])[H])C(C([H])([H])[H])(C([H])([H])[H])C([H])([H])[H])C([H])(C(=O)N([H])C2([H])c4c([H])c([H])c([H])c([H])c4C([H])([H])C([H])([H])C2([H])[H])C3([H])[H])(C([H])([H])[H])C([H])([H])[H])=[N+]([H])[H])c([H])c(N([H])C(=O)N2C([H])([H])C([H])([H])C([H])([H])C([H])(n3nc(-c4c([H])c([H])c(Oc5c([H])c([H])c(F)c([H])c5F)c([H])c4[H])c(C(=O)N([H])[H])c3N([H])[H])C2([H])[H])c1[H]

>  <smiles>  (81) 
[H]c1c([H])c(C(N([H])C(=O)C([H])([H])C([H])([H])C(Oc2c([H])c([H])c3c(c2[H])C([H])([H])N(C(=O)C([H])(N([H])C(=O)C([H])(N([H])C([H])([H])[H])C([H])([H])[H])C(C([H])([H])[H])(C([H])([H])[H])C([H])([H])[H])C([H])(C(=O)N([H])C2([H])c4c([H])c([H])c([H])c([H])c4C([H])([H])C([H])([H])C2([H])[H])C3([H])[H])(C([H])([H])[H])C([H])([H])[H])=[N+]([H])[H])c([H])c(N([H])C(=O)N2C([H])([H])C([H])([H])C([H])([H])C([H])(n3nc(-c4c([H])c([H])c(Oc5c([H])c([H])c(F)c([H])c5F)c([H])c4[H])c(C(=O)N([H])[H])c3N([H])[H])C2([H])[H])c1[H]

$$$$
81:0:0
     RDKit          3D

 97105  0  0  1  0  0  0  0  0999 V2000
  -31.1560  -24.7060   23.5760 C   0  0  0  0  0  1  0  0  0  0  0  0
  -30.7760  -23.7200   22.4540 C   0  0  0  0  0  3  0  0  0  0  0  0
  -29.9200  -24.3630   21.3330 C   0  0  0  0  0  0  0  0  0  0  0  0
  -28.8960  -23.8140   20.9220 O   0  0  0  0  0  0  0  0  0  0  0  0
  -30.4120  -25.6640   20.6660 C   0  0  0  0  0  2  0  0  0  0  0  0
  -29.2350  -27.1150   22.3730 C   0  0  0  0  0  1  0  0  0  0  0  0
  -30.2850  -28.1130   20.2620 C   0  0  0  0  0  1  0  0  0  0  0  0
  -29.5090  -26.9150   20.8530 C   0  0  1  0  0  0  0  0  0  0  0  0
  -28.3450  -26.6530   20.0310 O   0  0  0  0  0  0  0  0  0  0  0  0
  -24.5070  -31.7870   23.1200 C   0  0  0  0  0  0  0  0  0  0  0  0
  -27.2030  -27.4320   20.0420 C   0  0  0  0  0  0  0  0  0  0  0  0
  -23.2950  -30.3830   21.4730 C   0  0  0  0  0  3  0  0  0  0  0  0
  -24.7530  -28.8610   20.0380 C   0  0  0  0  0  0  0  0  0  0  0  0
  -25.8000  -30.7920   21.2430 C   0  0  0  0  0  2  0  0  0  0  0  0
  -25.8970  -29.4240   20.6080 C   0  0  0  0  0  0  0  0  0  0  0  0
  -27.1180  -28.7290   20.5890 C   0  0  0  0  0  3  0  0  0  0  0  0
  -26.0410  -26.8800   19.4560 C   0  0  0  0  0  3  0  0  0  0  0  0
  -24.8190  -27.5860   19.4480 C   0  0  0  0  0  3  0  0  0  0  0  0
  -23.4980  -29.6970   20.0920 C   0  0  0  0  0  2  0  0  0  0  0  0
  -24.5530  -31.0010   22.0080 N   0  0  0  0  0  0  0  0  0  0  0  0
  -23.4310  -32.0470   23.6750 O   0  0  0  0  0  0  0  0  0  0  0  0
  -22.6580  -29.3580   22.4390 C   0  0  0  0  0  0  0  0  0  0  0  0
  -21.3330  -29.1750   22.3220 N   0  0  0  0  0  0  0  0  0  0  0  0
  -23.3510  -28.7300   23.2430 O   0  0  0  0  0  0  0  0  0  0  0  0
  -20.8350  -29.7390   21.6490 H   0  0  0  0  0  0  0  0  0  0  0  0
  -17.9700  -27.9640   22.8200 C   0  0  0  0  0  0  0  0  0  0  0  0
  -20.5260  -28.2290   23.0910 C   0  0  0  0  0  3  0  0  0  0  0  0
  -20.6330  -26.8010   22.5090 C   0  0  0  0  0  2  0  0  0  0  0  0
  -19.5320  -26.4770   21.4950 C   0  0  0  0  0  2  0  0  0  0  0  0
  -18.1500  -26.6160   22.1410 C   0  0  0  0  0  2  0  0  0  0  0  0
  -19.0860  -28.7280   23.2520 C   0  0  0  0  0  0  0  0  0  0  0  0
  -18.8670  -29.9900   23.8460 C   0  0  0  0  0  3  0  0  0  0  0  0
  -17.5620  -30.4880   24.0130 C   0  0  0  0  0  3  0  0  0  0  0  0
  -16.4580  -29.7210   23.6000 C   0  0  0  0  0  3  0  0  0  0  0  0
  -16.6630  -28.4620   23.0090 C   0  0  0  0  0  3  0  0  0  0  0  0
  -25.7980  -32.4200   23.7360 C   0  0  0  0  0  3  0  0  0  0  0  0
  -25.4850  -33.8090   24.0900 N   0  0  0  0  0  0  0  0  0  0  0  0
  -25.8240  -34.8750   23.3530 C   0  0  0  0  0  0  0  0  0  0  0  0
  -26.5030  -34.7920   22.3260 O   0  0  0  0  0  0  0  0  0  0  0  0
  -24.8870  -33.9470   24.8900 H   0  0  0  0  0  0  0  0  0  0  0  0
  -24.0970  -36.6680   23.0140 C   0  0  0  0  0  1  0  0  0  0  0  0
  -25.3290  -36.2520   23.8320 C   0  0  0  0  0  3  0  0  0  0  0  0
  -27.4520  -37.1270   24.6980 C   0  0  0  0  0  1  0  0  0  0  0  0
  -26.3590  -37.3090   23.7480 N   0  0  0  0  0  0  0  0  0  0  0  0
  -25.9500  -38.2250   23.9090 H   0  0  0  0  0  0  0  0  0  0  0  0
  -26.3410  -31.6310   24.9890 C   0  0  1  0  0  0  0  0  0  0  0  0
  -25.2680  -31.3630   26.0700 C   0  0  0  0  0  1  0  0  0  0  0  0
  -26.9320  -30.2700   24.5530 C   0  0  0  0  0  1  0  0  0  0  0  0
  -27.4910  -32.4250   25.6530 C   0  0  0  0  0  1  0  0  0  0  0  0
  -30.1350  -22.4390   23.0810 C   0  0  0  0  0  2  0  0  0  0  0  0
  -30.3010  -20.0780   23.8580 C   0  0  0  0  0  1  0  0  0  0  0  0
  -32.3960  -21.3020   23.2720 C   0  0  0  0  0  1  0  0  0  0  0  0
  -30.9120  -21.1100   22.8870 C   0  0  2  0  0  0  0  0  0  0  0  0
  -30.7790  -20.6150   21.4160 C   0  0  0  0  0  2  0  0  0  0  0  0
  -32.1860  -17.2380   20.7610 C   0  0  0  0  0  3  0  0  0  0  0  0
  -30.9330  -16.6770   20.9090 C   0  0  0  0  0  0  0  0  0  0  0  0
  -31.0200  -19.1480   21.1870 C   0  0  0  0  0  0  0  0  0  0  0  0
  -32.2190  -18.6280   20.9140 N   0  0  0  0  0  0  0  0  0  0  0  0
  -29.7570  -17.9210   21.2750 S   0  0  0  0  0  0  0  0  0  0  0  0
  -31.1490  -14.3870   20.1340 C   0  0  0  0  0  0  0  0  0  0  0  0
  -30.7150  -12.2720   18.9430 C   0  0  0  0  0  2  0  0  0  0  0  0
  -29.7430  -12.5250   17.7730 C   0  0  0  0  0  2  0  0  0  0  0  0
  -28.2780  -12.4550   18.2470 C   0  0  0  0  0  2  0  0  0  0  0  0
  -28.0170  -13.2910   19.5280 C   0  0  0  0  0  3  0  0  0  0  0  0
  -29.0920  -13.0020   20.5990 C   0  0  0  0  0  2  0  0  0  0  0  0
  -30.4130  -13.2520   19.9970 N   0  0  0  0  0  0  0  0  0  0  0  0
  -32.2430  -14.5420   19.5830 O   0  0  0  0  0  0  0  0  0  0  0  0
  -30.5450  -15.3760   20.8170 N   0  0  0  0  0  0  0  0  0  0  0  0
  -29.6260  -15.1550   21.1710 H   0  0  0  0  0  0  0  0  0  0  0  0
  -25.6600  -13.9930   20.2950 C   0  0  0  0  0  0  0  0  0  0  0  0
  -24.5730  -13.2640   20.6970 C   0  0  0  0  0  0  0  0  0  0  0  0
  -24.9810  -11.8940   20.6580 C   0  0  0  0  0  0  0  0  0  0  0  0
  -26.6660  -13.0720   20.0430 N   0  0  0  0  0  0  0  0  0  0  0  0
  -26.2610  -11.8050   20.3160 N   0  0  0  0  0  0  0  0  0  0  0  0
  -24.2140  -10.6610   20.8720 C   0  0  0  0  0  0  0  0  0  0  0  0
  -24.6080   -9.7030   21.8330 C   0  0  0  0  0  3  0  0  0  0  0  0
  -23.8420   -8.5350   22.0350 C   0  0  0  0  0  3  0  0  0  0  0  0
  -22.6690   -8.3150   21.2770 C   0  0  0  0  0  0  0  0  0  0  0  0
  -22.2930   -9.2610   20.3060 C   0  0  0  0  0  3  0  0  0  0  0  0
  -23.0580  -10.4210   20.1030 C   0  0  0  0  0  3  0  0  0  0  0  0
  -21.8780   -7.1970   21.3850 O   0  0  0  0  0  0  0  0  0  0  0  0
  -21.7560   -6.5140   22.5690 C   0  0  0  0  0  0  0  0  0  0  0  0
  -21.3000   -7.1430   23.7470 C   0  0  0  0  0  3  0  0  0  0  0  0
  -21.1240   -6.3880   24.9230 C   0  0  0  0  0  3  0  0  0  0  0  0
  -21.3930   -5.0060   24.9220 C   0  0  0  0  0  0  0  0  0  0  0  0
  -21.8410   -4.3780   23.7470 C   0  0  0  0  0  3  0  0  0  0  0  0
  -22.0190   -5.1300   22.5720 C   0  0  0  0  0  0  0  0  0  0  0  0
  -22.4310   -4.5150   21.4370 F   0  0  0  0  0  0  0  0  0  0  0  0
  -21.2150   -4.2790   26.0500 F   0  0  0  0  0  0  0  0  0  0  0  0
  -23.2020  -13.7940   21.0030 C   0  0  0  0  0  0  0  0  0  0  0  0
  -22.4750  -13.1330   21.8980 N   0  0  0  0  0  0  0  0  0  0  0  0
  -22.7860  -14.8290   20.4850 O   0  0  0  0  0  0  0  0  0  0  0  0
  -22.8240  -12.2960   22.3380 H   0  0  0  0  0  0  0  0  0  0  0  0
  -21.5550  -13.4710   22.1420 H   0  0  0  0  0  0  0  0  0  0  0  0
  -25.8720  -15.3560   20.1030 N   0  0  0  0  0  0  0  0  0  0  0  0
  -25.1320  -16.0390   20.2240 H   0  0  0  0  0  0  0  0  0  0  0  0
  -26.7220  -15.7590   19.7300 H   0  0  0  0  0  0  0  0  0  0  0  0
  2 50  1  0
  2  1  1  0
  3  2  1  0
  4  3  2  0
  5  8  1  0
  5  3  1  0
  8  7  1  6
  8  6  1  0
  9 11  1  0
  9  8  1  0
 10 21  2  0
 11 16  1  0
 12 20  1  0
 12 22  1  0
 13 19  1  0
 13 15  1  0
 14 20  1  0
 15 14  1  0
 16 15  2  0
 17 11  2  0
 18 17  1  0
 18 13  2  0
 19 12  1  0
 20 10  1  0
 22 24  2  0
 23 22  1  0
 25 23  1  0
 26 35  2  0
 26 31  1  0
 27 23  1  0
 27 31  1  0
 28 27  1  0
 29 30  1  0
 29 28  1  0
 30 26  1  0
 31 32  2  0
 32 33  1  0
 34 33  2  0
 35 34  1  0
 36 10  1  0
 36 37  1  0
 36 46  1  0
 37 40  1  0
 38 42  1  0
 38 37  1  0
 39 38  2  0
 42 41  1  0
 44 42  1  0
 44 45  1  0
 44 43  1  0
 46 49  1  1
 46 47  1  0
 48 46  1  0
 53 50  1  0
 53 52  1  1
 53 51  1  0
 54 53  1  0
 55 56  2  0
 55 58  1  0
 56 59  1  0
 57 59  1  0
 57 54  1  0
 58 57  2  0
 60 68  1  0
 61 66  1  0
 62 63  1  0
 62 61  1  0
 64 63  1  0
 64 73  1  0
 64 65  1  0
 66 60  1  0
 66 65  1  0
 67 60  2  0
 68 56  1  0
 68 69  1  0
 70 71  2  0
 71 90  1  0
 72 71  1  0
 72 75  1  0
 73 70  1  0
 73 74  1  0
 74 72  2  0
 75 76  1  0
 76 77  2  0
 78 81  1  0
 78 77  1  0
 79 78  2  0
 80 79  1  0
 80 75  2  0
 81 82  1  0
 82 87  2  0
 82 83  1  0
 83 84  2  0
 85 84  1  0
 85 89  1  0
 86 85  2  0
 87 86  1  0
 88 87  1  0
 90 91  1  0
 91 94  1  0
 91 93  1  0
 92 90  2  0
 95 96  1  0
 95 70  1  0
 97 95  1  0
M  ISO  4   8 101   9 101  60 100  68 100
M  END
>  <TORSDO>  (82) 
F 23

>  <SCORE>  (82) 
-9.113

>  <name>  (82) 
81

>  <ligand_id>  (82) 
81

>  <original_smiles>  (82) 
[H]c1nc(C([H])([H])C(C([H])([H])[H])(C([H])([H])[H])C([H])([H])C([H])(C(=O)C([H])([H])C(Oc2c([H])c([H])c3c(c2[H])C([H])([H])N(C(=O)C([H])(N([H])C(=O)C([H])(N([H])C([H])([H])[H])C([H])([H])[H])C(C([H])([H])[H])(C([H])([H])[H])C([H])([H])[H])C([H])(C(=O)N([H])C2([H])c4c([H])c([H])c([H])c([H])c4C([H])([H])C([H])([H])C2([H])[H])C3([H])[H])(C([H])([H])[H])C([H])([H])[H])C([H])([H])[H])sc1N([H])C(=O)N1C([H])([H])C([H])([H])C([H])([H])C([H])(n2nc(-c3c([H])c([H])c(Oc4c([H])c([H])c(F)c([H])c4F)c([H])c3[H])c(C(=O)N([H])[H])c2N([H])[H])C1([H])[H]

>  <smiles>  (82) 
[H]c1nc(C([H])([H])C(C([H])([H])[H])(C([H])([H])[H])C([H])([H])C([H])(C(=O)C([H])([H])C(Oc2c([H])c([H])c3c(c2[H])C([H])([H])N(C(=O)C([H])(N([H])C(=O)C([H])(N([H])C([H])([H])[H])C([H])([H])[H])C(C([H])([H])[H])(C([H])([H])[H])C([H])([H])[H])C([H])(C(=O)N([H])C2([H])c4c([H])c([H])c([H])c([H])c4C([H])([H])C([H])([H])C2([H])[H])C3([H])[H])(C([H])([H])[H])C([H])([H])[H])C([H])([H])[H])sc1N([H])C(=O)N1C([H])([H])C([H])([H])C([H])([H])C([H])(n2nc(-c3c([H])c([H])c(Oc4c([H])c([H])c(F)c([H])c4F)c([H])c3[H])c(C(=O)N([H])[H])c2N([H])[H])C1([H])[H]

$$$$
82:0:0
     RDKit          3D

 99108  0  0  1  0  0  0  0  0999 V2000
  -30.9750  -23.2350   19.7630 C   0  0  0  0  0  0  0  0  0  0  0  0
  -30.4570  -24.3800   20.2640 C   0  0  0  0  0  2  0  0  0  0  0  0
  -31.0860  -19.6750   18.7020 C   0  0  0  0  0  3  0  0  0  0  0  0
  -32.1470  -23.2440   18.8180 C   0  0  0  0  0  3  0  0  0  0  0  0
  -30.4800  -21.8070   19.9310 C   0  0  0  0  0  3  0  0  0  0  0  0
  -32.2160  -21.8460   18.2130 C   0  0  0  0  0  3  0  0  0  0  0  0
  -31.2320  -21.0100   18.9340 N   0  0  0  0  0  0  0  0  0  0  0  0
  -31.8340  -19.1250   17.7460 N   0  0  0  0  0  0  0  0  0  0  0  0
  -31.6900  -18.1540   17.5180 H   0  0  0  0  0  0  0  0  0  0  0  0
  -32.4720  -19.6600   17.1850 H   0  0  0  0  0  0  0  0  0  0  0  0
  -27.9290  -18.1630   20.2050 C   0  0  0  0  0  3  0  0  0  0  0  0
  -28.7880  -19.0660   19.5490 C   0  0  0  0  0  3  0  0  0  0  0  0
  -28.4230  -16.9380   20.6890 C   0  0  0  0  0  3  0  0  0  0  0  0
  -30.6560  -17.5410   19.9190 C   0  0  0  0  0  3  0  0  0  0  0  0
  -30.1660  -18.7760   19.4230 C   0  0  0  0  0  0  0  0  0  0  0  0
  -29.7810  -16.5980   20.5140 C   0  0  0  0  0  0  0  0  0  0  0  0
  -30.7670  -14.3830   20.1380 C   0  0  0  0  0  0  0  0  0  0  0  0
  -30.4270  -12.2030   19.0380 C   0  0  0  0  0  2  0  0  0  0  0  0
  -29.4310  -12.3750   17.8720 C   0  0  0  0  0  2  0  0  0  0  0  0
  -27.9750  -12.2570   18.3650 C   0  0  0  0  0  2  0  0  0  0  0  0
  -27.6960  -13.1380   19.6100 C   0  0  0  0  0  3  0  0  0  0  0  0
  -28.7890  -12.9200   20.6810 C   0  0  0  0  0  2  0  0  0  0  0  0
  -30.1020  -13.2000   20.0680 N   0  0  0  0  0  0  0  0  0  0  0  0
  -31.8040  -14.6180   19.5070 O   0  0  0  0  0  0  0  0  0  0  0  0
  -30.1890  -15.2990   20.9310 N   0  0  0  0  0  0  0  0  0  0  0  0
  -29.5480  -14.8670   21.5800 H   0  0  0  0  0  0  0  0  0  0  0  0
  -25.3530  -13.8010   20.4540 C   0  0  0  0  0  0  0  0  0  0  0  0
  -24.2830  -13.0510   20.8650 C   0  0  0  0  0  0  0  0  0  0  0  0
  -24.7000  -11.6870   20.7750 C   0  0  0  0  0  0  0  0  0  0  0  0
  -26.3570  -12.8950   20.1480 N   0  0  0  0  0  0  0  0  0  0  0  0
  -25.9690  -11.6180   20.3940 N   0  0  0  0  0  0  0  0  0  0  0  0
  -23.9480  -10.4420   20.9730 C   0  0  0  0  0  0  0  0  0  0  0  0
  -24.3710   -9.4650   21.9010 C   0  0  0  0  0  3  0  0  0  0  0  0
  -23.6220   -8.2830   22.0870 C   0  0  0  0  0  3  0  0  0  0  0  0
  -22.4350   -8.0710   21.3450 C   0  0  0  0  0  0  0  0  0  0  0  0
  -22.0310   -9.0370   20.4060 C   0  0  0  0  0  3  0  0  0  0  0  0
  -22.7810  -10.2090   20.2190 C   0  0  0  0  0  3  0  0  0  0  0  0
  -21.6580   -6.9430   21.4420 O   0  0  0  0  0  0  0  0  0  0  0  0
  -21.5660   -6.2280   22.6090 C   0  0  0  0  0  0  0  0  0  0  0  0
  -21.1130   -6.8170   23.8090 C   0  0  0  0  0  3  0  0  0  0  0  0
  -20.9690   -6.0290   24.9690 C   0  0  0  0  0  3  0  0  0  0  0  0
  -21.2680   -4.6530   24.9300 C   0  0  0  0  0  0  0  0  0  0  0  0
  -21.7150   -4.0650   23.7320 C   0  0  0  0  0  3  0  0  0  0  0  0
  -21.8600   -4.8500   22.5750 C   0  0  0  0  0  0  0  0  0  0  0  0
  -22.2710   -4.2730   21.4200 F   0  0  0  0  0  0  0  0  0  0  0  0
  -21.1220   -3.8950   26.0410 F   0  0  0  0  0  0  0  0  0  0  0  0
  -22.9170  -13.5610   21.2260 C   0  0  0  0  0  0  0  0  0  0  0  0
  -22.2180  -12.8630   22.1140 N   0  0  0  0  0  0  0  0  0  0  0  0
  -22.4810  -14.6100   20.7560 O   0  0  0  0  0  0  0  0  0  0  0  0
  -22.5840  -12.0130   22.5170 H   0  0  0  0  0  0  0  0  0  0  0  0
  -21.3020  -13.1830   22.3960 H   0  0  0  0  0  0  0  0  0  0  0  0
  -25.5480  -15.1700   20.2960 N   0  0  0  0  0  0  0  0  0  0  0  0
  -24.7910  -15.8330   20.4290 H   0  0  0  0  0  0  0  0  0  0  0  0
  -26.3610  -15.5800   19.8560 H   0  0  0  0  0  0  0  0  0  0  0  0
  -29.7240  -25.6450   22.2890 C   0  0  0  0  0  1  0  0  0  0  0  0
  -28.7620  -23.3830   21.9340 C   0  0  0  0  0  1  0  0  0  0  0  0
  -29.2760  -24.6430   21.2040 C   0  0  2  0  0  0  0  0  0  0  0  0
  -28.1070  -25.2450   20.3900 C   0  0  0  0  0  2  0  0  0  0  0  0
  -28.3270  -26.6060   19.9930 O   0  0  0  0  0  0  0  0  0  0  0  0
  -24.5250  -31.7200   23.1150 C   0  0  0  0  0  0  0  0  0  0  0  0
  -27.1720  -27.3550   19.9540 C   0  0  0  0  0  0  0  0  0  0  0  0
  -23.3190  -30.3480   21.4470 C   0  0  0  0  0  3  0  0  0  0  0  0
  -24.7750  -28.8450   19.9900 C   0  0  0  0  0  0  0  0  0  0  0  0
  -25.8430  -30.7210   21.2520 C   0  0  0  0  0  2  0  0  0  0  0  0
  -25.9330  -29.3660   20.5840 C   0  0  0  0  0  0  0  0  0  0  0  0
  -27.1370  -28.6280   20.5590 C   0  0  0  0  0  3  0  0  0  0  0  0
  -26.0010  -26.8490   19.3460 C   0  0  0  0  0  3  0  0  0  0  0  0
  -24.8030  -27.5860   19.3660 C   0  0  0  0  0  3  0  0  0  0  0  0
  -23.5280  -29.6960   20.0540 C   0  0  0  0  0  2  0  0  0  0  0  0
  -24.5800  -30.9430   21.9960 N   0  0  0  0  0  0  0  0  0  0  0  0
  -23.4440  -31.9810   23.6620 O   0  0  0  0  0  0  0  0  0  0  0  0
  -22.6730  -29.3060   22.3870 C   0  0  0  0  0  0  0  0  0  0  0  0
  -21.3460  -29.1340   22.2680 N   0  0  0  0  0  0  0  0  0  0  0  0
  -23.3590  -28.6550   23.1800 O   0  0  0  0  0  0  0  0  0  0  0  0
  -20.8540  -29.7100   21.5990 H   0  0  0  0  0  0  0  0  0  0  0  0
  -17.9640  -27.9780   22.7880 C   0  0  0  0  0  0  0  0  0  0  0  0
  -20.5300  -28.1850   23.0220 C   0  0  0  0  0  3  0  0  0  0  0  0
  -20.5990  -26.7720   22.3960 C   0  0  0  0  0  2  0  0  0  0  0  0
  -19.4740  -26.5020   21.3920 C   0  0  0  0  0  2  0  0  0  0  0  0
  -18.1070  -26.6480   22.0660 C   0  0  0  0  0  2  0  0  0  0  0  0
  -19.1030  -28.7060   23.2230 C   0  0  0  0  0  0  0  0  0  0  0  0
  -18.9180  -29.9550   23.8570 C   0  0  0  0  0  3  0  0  0  0  0  0
  -17.6250  -30.4730   24.0620 C   0  0  0  0  0  3  0  0  0  0  0  0
  -16.5010  -29.7400   23.6450 C   0  0  0  0  0  3  0  0  0  0  0  0
  -16.6700  -28.4950   23.0130 C   0  0  0  0  0  3  0  0  0  0  0  0
  -25.8120  -32.3390   23.7460 C   0  0  0  0  0  3  0  0  0  0  0  0
  -26.3380  -31.5400   25.0000 C   0  0  1  0  0  0  0  0  0  0  0  0
  -25.2500  -31.2740   26.0660 C   0  0  0  0  0  1  0  0  0  0  0  0
  -26.9240  -30.1750   24.5670 C   0  0  0  0  0  1  0  0  0  0  0  0
  -27.4890  -32.3220   25.6740 C   0  0  0  0  0  1  0  0  0  0  0  0
  -25.5030  -33.7290   24.1080 N   0  0  0  0  0  0  0  0  0  0  0  0
  -25.8280  -34.7970   23.3670 C   0  0  0  0  0  0  0  0  0  0  0  0
  -26.4950  -34.7170   22.3310 O   0  0  0  0  0  0  0  0  0  0  0  0
  -24.9140  -33.8640   24.9160 H   0  0  0  0  0  0  0  0  0  0  0  0
  -24.0920  -36.5860   23.0570 C   0  0  0  0  0  1  0  0  0  0  0  0
  -25.3390  -36.1740   23.8540 C   0  0  0  0  0  3  0  0  0  0  0  0
  -27.4720  -37.0520   24.6930 C   0  0  0  0  0  1  0  0  0  0  0  0
  -26.3670  -37.2320   23.7560 N   0  0  0  0  0  0  0  0  0  0  0  0
  -25.9570  -38.1470   23.9220 H   0  0  0  0  0  0  0  0  0  0  0  0
  1  5  2  0
  1  2  1  0
  2 57  1  0
  3  8  1  0
  3  7  1  0
  3 15  1  0
  4  1  1  0
  6  4  2  0
  6  7  1  0
  7  5  1  0
  9  8  1  0
 10  8  1  0
 11 13  1  0
 12 11  2  0
 14 16  1  0
 15 12  1  0
 15 14  2  0
 16 13  2  0
 16 25  1  0
 17 25  1  0
 18 23  1  0
 19 20  1  0
 19 18  1  0
 21 20  1  0
 21 30  1  0
 21 22  1  0
 23 17  1  0
 23 22  1  0
 24 17  2  0
 25 26  1  0
 27 28  2  0
 28 47  1  0
 29 28  1  0
 29 32  1  0
 30 31  1  0
 30 27  1  0
 31 29  2  0
 32 33  1  0
 33 34  2  0
 35 38  1  0
 35 34  1  0
 36 35  2  0
 37 36  1  0
 37 32  2  0
 38 39  1  0
 39 40  1  0
 40 41  2  0
 42 41  1  0
 42 46  1  0
 43 42  2  0
 44 39  2  0
 44 43  1  0
 45 44  1  0
 47 48  1  0
 48 51  1  0
 48 50  1  0
 49 47  2  0
 52 53  1  0
 52 27  1  0
 54 52  1  0
 57 56  1  1
 57 55  1  0
 58 57  1  0
 59 58  1  0
 60 71  2  0
 61 59  1  0
 61 66  1  0
 62 70  1  0
 62 72  1  0
 63 69  1  0
 63 65  1  0
 64 70  1  0
 65 64  1  0
 66 65  2  0
 67 68  1  0
 67 61  2  0
 68 63  2  0
 69 62  1  0
 70 60  1  0
 72 74  2  0
 73 72  1  0
 75 73  1  0
 76 85  2  0
 76 81  1  0
 77 73  1  0
 77 81  1  0
 78 77  1  0
 79 80  1  0
 79 78  1  0
 80 76  1  0
 81 82  2  0
 82 83  1  0
 84 83  2  0
 85 84  1  0
 86 60  1  0
 86 91  1  0
 86 87  1  0
 87 90  1  1
 87 88  1  0
 89 87  1  0
 91 94  1  0
 92 96  1  0
 92 91  1  0
 93 92  2  0
 96 95  1  0
 98 96  1  0
 98 99  1  0
 98 97  1  0
M  ISO  4  17 100  25 100  58 101  59 101
M  END
>  <TORSDO>  (83) 
F 19

>  <SCORE>  (83) 
-14.308

>  <name>  (83) 
82

>  <ligand_id>  (83) 
82

>  <original_smiles>  (83) 
[H]C(=C1C([H])([H])N(C(c2c([H])c([H])c([H])c(N([H])C(=O)N3C([H])([H])C([H])([H])C([H])([H])C([H])(n4nc(-c5c([H])c([H])c(Oc6c([H])c([H])c(F)c([H])c6F)c([H])c5[H])c(C(=O)N([H])[H])c4N([H])[H])C3([H])[H])c2[H])=[N+]([H])[H])C([H])([H])C1([H])[H])C(C([H])([H])[H])(C([H])([H])[H])C([H])([H])Oc1c([H])c([H])c2c(c1[H])C([H])([H])N(C(=O)C([H])(N([H])C(=O)C([H])(N([H])C([H])([H])[H])C([H])([H])[H])C(C([H])([H])[H])(C([H])([H])[H])C([H])([H])[H])C([H])(C(=O)N([H])C1([H])c3c([H])c([H])c([H])c([H])c3C([H])([H])C([H])([H])C1([H])[H])C2([H])[H]

>  <smiles>  (83) 
[H]C(=C1C([H])([H])N(C(c2c([H])c([H])c([H])c(N([H])C(=O)N3C([H])([H])C([H])([H])C([H])([H])C([H])(n4nc(-c5c([H])c([H])c(Oc6c([H])c([H])c(F)c([H])c6F)c([H])c5[H])c(C(=O)N([H])[H])c4N([H])[H])C3([H])[H])c2[H])=[N+]([H])[H])C([H])([H])C1([H])[H])C(C([H])([H])[H])(C([H])([H])[H])C([H])([H])Oc1c([H])c([H])c2c(c1[H])C([H])([H])N(C(=O)C([H])(N([H])C(=O)C([H])(N([H])C([H])([H])[H])C([H])([H])[H])C(C([H])([H])[H])(C([H])([H])[H])C([H])([H])[H])C([H])(C(=O)N([H])C1([H])c3c([H])c([H])c([H])c([H])c3C([H])([H])C([H])([H])C1([H])[H])C2([H])[H]

$$$$
83:0:0
     RDKit          3D

 96105  0  0  1  0  0  0  0  0999 V2000
  -29.2560  -23.2060   21.2460 C   0  0  0  0  0  2  0  0  0  0  0  0
  -28.9080  -24.1670   18.9800 C   0  0  0  0  0  2  0  0  0  0  0  0
  -30.1500  -22.1120   20.6310 C   0  0  0  0  0  2  0  0  0  0  0  0
  -29.8120  -23.0670   18.3920 C   0  0  0  0  0  2  0  0  0  0  0  0
  -29.2900  -24.5150   20.4290 C   0  0  0  0  0  3  0  0  0  0  0  0
  -29.8000  -21.8190   19.2110 N   0  0  1  0  0  4  0  0  0  0  0  0
  -28.8490  -21.4860   19.2110 H   0  0  0  0  0  0  0  0  0  0  0  0
  -30.4210  -20.4740   17.1250 C   0  0  0  0  0  1  0  0  0  0  0  0
  -30.6290  -20.7100   18.6380 C   0  0  0  0  0  3  0  0  0  0  0  0
  -31.4920  -18.7900   20.0780 C   0  0  0  0  0  3  0  0  0  0  0  0
  -29.1770  -18.7140   19.3270 C   0  0  0  0  0  3  0  0  0  0  0  0
  -31.3480  -17.5100   20.6520 C   0  0  0  0  0  3  0  0  0  0  0  0
  -29.0300  -17.4370   19.9070 C   0  0  0  0  0  3  0  0  0  0  0  0
  -30.4180  -19.3870   19.3820 C   0  0  0  0  0  0  0  0  0  0  0  0
  -30.1280  -16.8060   20.5290 C   0  0  0  0  0  0  0  0  0  0  0  0
  -30.6910  -14.4460   20.4680 C   0  0  0  0  0  0  0  0  0  0  0  0
  -30.3620  -12.3090   19.3040 C   0  0  0  0  0  2  0  0  0  0  0  0
  -29.4220  -12.5540   18.1050 C   0  0  0  0  0  2  0  0  0  0  0  0
  -27.9480  -12.4270   18.5340 C   0  0  0  0  0  2  0  0  0  0  0  0
  -27.6210  -13.2480   19.8100 C   0  0  0  0  0  3  0  0  0  0  0  0
  -28.6760  -12.9980   20.9130 C   0  0  0  0  0  2  0  0  0  0  0  0
  -30.0060  -13.2790   20.3480 N   0  0  0  0  0  0  0  0  0  0  0  0
  -31.8260  -14.6080   20.0100 O   0  0  0  0  0  0  0  0  0  0  0  0
  -29.9870  -15.4690   20.9800 N   0  0  0  0  0  0  0  0  0  0  0  0
  -29.0680  -15.2030   21.3030 H   0  0  0  0  0  0  0  0  0  0  0  0
  -25.2190  -13.8620   20.5080 C   0  0  0  0  0  0  0  0  0  0  0  0
  -24.1500  -13.0930   20.8800 C   0  0  0  0  0  0  0  0  0  0  0  0
  -24.6100  -11.7400   20.8550 C   0  0  0  0  0  0  0  0  0  0  0  0
  -26.2650  -12.9790   20.2850 N   0  0  0  0  0  0  0  0  0  0  0  0
  -25.9010  -11.6990   20.5510 N   0  0  0  0  0  0  0  0  0  0  0  0
  -23.8830  -10.4790   21.0500 C   0  0  0  0  0  0  0  0  0  0  0  0
  -24.3230   -9.5090   21.9770 C   0  0  0  0  0  3  0  0  0  0  0  0
  -23.5970   -8.3120   22.1600 C   0  0  0  0  0  3  0  0  0  0  0  0
  -22.4160   -8.0780   21.4150 C   0  0  0  0  0  0  0  0  0  0  0  0
  -21.9950   -9.0370   20.4780 C   0  0  0  0  0  3  0  0  0  0  0  0
  -22.7220  -10.2250   20.2930 C   0  0  0  0  0  3  0  0  0  0  0  0
  -21.6610   -6.9330   21.5070 O   0  0  0  0  0  0  0  0  0  0  0  0
  -21.6340   -6.1790   22.6530 C   0  0  0  0  0  0  0  0  0  0  0  0
  -21.2400   -6.7250   23.8940 C   0  0  0  0  0  3  0  0  0  0  0  0
  -21.1600   -5.8970   25.0320 C   0  0  0  0  0  3  0  0  0  0  0  0
  -21.4630   -4.5260   24.9300 C   0  0  0  0  0  0  0  0  0  0  0  0
  -21.8490   -3.9800   23.6940 C   0  0  0  0  0  3  0  0  0  0  0  0
  -21.9320   -4.8050   22.5570 C   0  0  0  0  0  0  0  0  0  0  0  0
  -22.2850   -4.2710   21.3640 F   0  0  0  0  0  0  0  0  0  0  0  0
  -21.3780   -3.7290   26.0210 F   0  0  0  0  0  0  0  0  0  0  0  0
  -22.7530  -13.5720   21.1470 C   0  0  0  0  0  0  0  0  0  0  0  0
  -22.0230  -12.8800   22.0160 N   0  0  0  0  0  0  0  0  0  0  0  0
  -22.3160  -14.5950   20.6220 O   0  0  0  0  0  0  0  0  0  0  0  0
  -22.3880  -12.0520   22.4630 H   0  0  0  0  0  0  0  0  0  0  0  0
  -21.0850  -13.1840   22.2390 H   0  0  0  0  0  0  0  0  0  0  0  0
  -25.3840  -15.2310   20.3210 N   0  0  0  0  0  0  0  0  0  0  0  0
  -24.6130  -15.8830   20.4150 H   0  0  0  0  0  0  0  0  0  0  0  0
  -26.2280  -15.6630   19.9720 H   0  0  0  0  0  0  0  0  0  0  0  0
  -28.7790  -26.0660   22.4210 C   0  0  0  0  0  1  0  0  0  0  0  0
  -28.3610  -25.6060   21.0130 C   0  0  0  0  0  3  0  0  0  0  0  0
  -28.3950  -26.7540   20.1600 O   0  0  0  0  0  0  0  0  0  0  0  0
  -24.5790  -31.8890   23.2330 C   0  0  0  0  0  0  0  0  0  0  0  0
  -27.2300  -27.4800   20.1530 C   0  0  0  0  0  0  0  0  0  0  0  0
  -23.3710  -30.4830   21.5930 C   0  0  0  0  0  3  0  0  0  0  0  0
  -24.8270  -28.9510   20.1640 C   0  0  0  0  0  0  0  0  0  0  0  0
  -25.8910  -30.8600   21.3830 C   0  0  0  0  0  2  0  0  0  0  0  0
  -25.9810  -29.4910   20.7460 C   0  0  0  0  0  0  0  0  0  0  0  0
  -27.1890  -28.7640   20.7340 C   0  0  0  0  0  3  0  0  0  0  0  0
  -26.0650  -26.9460   19.5640 C   0  0  0  0  0  3  0  0  0  0  0  0
  -24.8620  -27.6770   19.5690 C   0  0  0  0  0  3  0  0  0  0  0  0
  -23.5770  -29.8000   20.2130 C   0  0  0  0  0  2  0  0  0  0  0  0
  -24.6320  -31.0910   22.1280 N   0  0  0  0  0  0  0  0  0  0  0  0
  -23.5000  -32.1580   23.7770 O   0  0  0  0  0  0  0  0  0  0  0  0
  -22.7260  -29.4600   22.5560 C   0  0  0  0  0  0  0  0  0  0  0  0
  -21.4030  -29.2750   22.4310 N   0  0  0  0  0  0  0  0  0  0  0  0
  -23.4140  -28.8380   23.3690 O   0  0  0  0  0  0  0  0  0  0  0  0
  -20.9100  -29.8300   21.7450 H   0  0  0  0  0  0  0  0  0  0  0  0
  -18.0310  -28.0820   22.9350 C   0  0  0  0  0  0  0  0  0  0  0  0
  -20.5880  -28.3370   23.2030 C   0  0  0  0  0  3  0  0  0  0  0  0
  -20.6900  -26.9070   22.6240 C   0  0  0  0  0  2  0  0  0  0  0  0
  -19.5870  -26.5860   21.6120 C   0  0  0  0  0  2  0  0  0  0  0  0
  -18.2060  -26.7320   22.2580 C   0  0  0  0  0  2  0  0  0  0  0  0
  -19.1500  -28.8430   23.3640 C   0  0  0  0  0  0  0  0  0  0  0  0
  -18.9340  -30.1070   23.9550 C   0  0  0  0  0  3  0  0  0  0  0  0
  -17.6310  -30.6100   24.1210 C   0  0  0  0  0  3  0  0  0  0  0  0
  -16.5250  -29.8460   23.7110 C   0  0  0  0  0  3  0  0  0  0  0  0
  -16.7260  -28.5840   23.1230 C   0  0  0  0  0  3  0  0  0  0  0  0
  -25.8670  -32.5210   23.8480 C   0  0  0  0  0  3  0  0  0  0  0  0
  -26.3930  -31.7480   25.1190 C   0  0  1  0  0  0  0  0  0  0  0  0
  -25.3070  -31.5070   26.1930 C   0  0  0  0  0  1  0  0  0  0  0  0
  -26.9760  -30.3730   24.7180 C   0  0  0  0  0  1  0  0  0  0  0  0
  -27.5470  -32.5430   25.7770 C   0  0  0  0  0  1  0  0  0  0  0  0
  -25.5600  -33.9190   24.1780 N   0  0  0  0  0  0  0  0  0  0  0  0
  -25.8950  -34.9710   23.4200 C   0  0  0  0  0  0  0  0  0  0  0  0
  -26.5700  -34.8670   22.3910 O   0  0  0  0  0  0  0  0  0  0  0  0
  -24.9630  -34.0730   24.9780 H   0  0  0  0  0  0  0  0  0  0  0  0
  -24.1720  -36.7630   23.0510 C   0  0  0  0  0  1  0  0  0  0  0  0
  -25.4040  -36.3590   23.8740 C   0  0  0  0  0  3  0  0  0  0  0  0
  -27.5340  -37.2370   24.7240 C   0  0  0  0  0  1  0  0  0  0  0  0
  -26.4390  -37.4100   23.7720 N   0  0  0  0  0  0  0  0  0  0  0  0
  -26.0330  -38.3310   23.9200 H   0  0  0  0  0  0  0  0  0  0  0  0
  2  5  1  0
  3  1  1  0
  4  2  1  0
  4  6  1  0
  5 55  1  0
  5  1  1  0
  6  7  1  1
  6  3  1  0
  9  8  1  0
  9  6  1  0
  9 14  1  0
 10 12  1  0
 11 14  1  0
 11 13  2  0
 13 15  1  0
 14 10  2  0
 15 12  2  0
 15 24  1  0
 16 24  1  0
 17 22  1  0
 18 19  1  0
 18 17  1  0
 20 19  1  0
 20 29  1  0
 20 21  1  0
 22 16  1  0
 22 21  1  0
 23 16  2  0
 24 25  1  0
 26 27  2  0
 27 46  1  0
 28 27  1  0
 28 31  1  0
 29 26  1  0
 29 30  1  0
 30 28  2  0
 31 32  1  0
 32 33  2  0
 34 37  1  0
 34 33  1  0
 35 34  2  0
 36 35  1  0
 36 31  2  0
 37 38  1  0
 38 39  1  0
 39 40  2  0
 41 40  1  0
 41 45  1  0
 42 41  2  0
 43 38  2  0
 43 42  1  0
 44 43  1  0
 46 47  1  0
 47 50  1  0
 47 49  1  0
 48 46  2  0
 51 52  1  0
 51 26  1  0
 53 51  1  0
 55 54  1  0
 56 55  1  0
 57 68  2  0
 58 56  1  0
 58 63  1  0
 59 67  1  0
 59 69  1  0
 60 66  1  0
 60 62  1  0
 61 67  1  0
 62 61  1  0
 63 62  2  0
 64 65  1  0
 64 58  2  0
 65 60  2  0
 66 59  1  0
 67 57  1  0
 69 71  2  0
 70 69  1  0
 72 70  1  0
 73 82  2  0
 73 78  1  0
 74 70  1  0
 74 78  1  0
 75 74  1  0
 76 77  1  0
 76 75  1  0
 77 73  1  0
 78 79  2  0
 79 80  1  0
 81 80  2  0
 82 81  1  0
 83 57  1  0
 83 88  1  0
 83 84  1  0
 84 87  1  1
 84 85  1  0
 86 84  1  0
 88 91  1  0
 89 93  1  0
 89 88  1  0
 90 89  2  0
 93 92  1  0
 95 93  1  0
 95 96  1  0
 95 94  1  0
M  ISO  4  16 100  24 100  55 101  56 101
M  END
>  <TORSDO>  (84) 
F 19

>  <SCORE>  (84) 
-14.534

>  <name>  (84) 
83

>  <ligand_id>  (84) 
83

>  <original_smiles>  (84) 
[H]c1c([H])c([H])c2c(c1[H])C([H])([H])C([H])([H])C([H])([H])C2([H])N([H])C(=O)C1([H])N(C(=O)C([H])(N([H])C(=O)C([H])(N([H])C([H])([H])[H])C([H])([H])[H])C(C([H])([H])[H])(C([H])([H])[H])C([H])([H])[H])C([H])([H])c2c([H])c(OC([H])(C([H])([H])[H])C3([H])C([H])([H])C([H])([H])[N+]([H])(C([H])(c4c([H])c([H])c(N([H])C(=O)N5C([H])([H])C([H])([H])C([H])([H])C([H])(n6nc(-c7c([H])c([H])c(Oc8c([H])c([H])c(F)c([H])c8F)c([H])c7[H])c(C(=O)N([H])[H])c6N([H])[H])C5([H])[H])c([H])c4[H])C([H])([H])[H])C([H])([H])C3([H])[H])c([H])c([H])c2C1([H])[H]

>  <smiles>  (84) 
[H]c1c([H])c([H])c2c(c1[H])C([H])([H])C([H])([H])C([H])([H])C2([H])N([H])C(=O)C1([H])N(C(=O)C([H])(N([H])C(=O)C([H])(N([H])C([H])([H])[H])C([H])([H])[H])C(C([H])([H])[H])(C([H])([H])[H])C([H])([H])[H])C([H])([H])c2c([H])c(OC([H])(C([H])([H])[H])C3([H])C([H])([H])C([H])([H])[N+]([H])(C([H])(c4c([H])c([H])c(N([H])C(=O)N5C([H])([H])C([H])([H])C([H])([H])C([H])(n6nc(-c7c([H])c([H])c(Oc8c([H])c([H])c(F)c([H])c8F)c([H])c7[H])c(C(=O)N([H])[H])c6N([H])[H])C5([H])[H])c([H])c4[H])C([H])([H])[H])C([H])([H])C3([H])[H])c([H])c([H])c2C1([H])[H]

$$$$
84:0:0
     RDKit          3D

 96105  0  0  1  0  0  0  0  0999 V2000
  -28.4270  -22.7550   19.3470 C   0  0  0  0  0  0  0  0  0  0  0  0
  -28.2110  -24.1110   19.2480 C   0  0  0  0  0  0  0  0  0  0  0  0
  -28.4080  -21.8150   18.1520 C   0  0  0  0  0  2  0  0  0  0  0  0
  -28.6190  -21.8640   20.5780 C   0  0  0  0  0  2  0  0  0  0  0  0
  -28.2960  -20.3830   18.7070 C   0  0  0  0  0  2  0  0  0  0  0  0
  -27.9050  -24.6900   17.8730 C   0  0  0  0  0  1  0  0  0  0  0  0
  -28.6100  -20.4420   20.1330 N   0  0  0  0  0  0  0  0  0  0  0  0
  -30.8800  -19.8490   20.8730 C   0  0  0  0  0  3  0  0  0  0  0  0
  -29.2550  -18.0610   20.5500 C   0  0  0  0  0  3  0  0  0  0  0  0
  -31.5250  -17.5080   21.2090 C   0  0  0  0  0  3  0  0  0  0  0  0
  -29.5650  -19.4630   20.5380 C   0  0  0  0  0  0  0  0  0  0  0  0
  -31.8490  -18.8810   21.2170 C   0  0  0  0  0  0  0  0  0  0  0  0
  -30.2340  -17.0580   20.8520 C   0  0  0  0  0  0  0  0  0  0  0  0
  -30.6430  -14.5870   20.3800 C   0  0  0  0  0  0  0  0  0  0  0  0
  -30.3530  -12.3940   19.2480 C   0  0  0  0  0  2  0  0  0  0  0  0
  -29.3850  -12.5620   18.0560 C   0  0  0  0  0  2  0  0  0  0  0  0
  -27.9190  -12.4150   18.5140 C   0  0  0  0  0  2  0  0  0  0  0  0
  -27.5980  -13.2670   19.7690 C   0  0  0  0  0  3  0  0  0  0  0  0
  -28.6750  -13.0730   20.8610 C   0  0  0  0  0  2  0  0  0  0  0  0
  -29.9810  -13.3960   20.2660 N   0  0  0  0  0  0  0  0  0  0  0  0
  -31.7850  -14.7360   19.9360 O   0  0  0  0  0  0  0  0  0  0  0  0
  -29.9000  -15.6410   20.8310 N   0  0  0  0  0  0  0  0  0  0  0  0
  -28.9470  -15.4070   21.0590 H   0  0  0  0  0  0  0  0  0  0  0  0
  -25.2220  -13.8760   20.5520 C   0  0  0  0  0  0  0  0  0  0  0  0
  -24.1600  -13.1050   20.9370 C   0  0  0  0  0  0  0  0  0  0  0  0
  -24.6080  -11.7480   20.8680 C   0  0  0  0  0  0  0  0  0  0  0  0
  -26.2550  -12.9900   20.2770 N   0  0  0  0  0  0  0  0  0  0  0  0
  -25.8900  -11.7060   20.5280 N   0  0  0  0  0  0  0  0  0  0  0  0
  -23.8770  -10.4900   21.0560 C   0  0  0  0  0  0  0  0  0  0  0  0
  -24.3160   -9.5080   21.9720 C   0  0  0  0  0  3  0  0  0  0  0  0
  -23.5850   -8.3130   22.1440 C   0  0  0  0  0  3  0  0  0  0  0  0
  -22.4020   -8.0910   21.3990 C   0  0  0  0  0  0  0  0  0  0  0  0
  -21.9860   -9.0590   20.4690 C   0  0  0  0  0  3  0  0  0  0  0  0
  -22.7160  -10.2460   20.2950 C   0  0  0  0  0  3  0  0  0  0  0  0
  -21.6430   -6.9460   21.4840 O   0  0  0  0  0  0  0  0  0  0  0  0
  -21.5930   -6.2020   22.6360 C   0  0  0  0  0  0  0  0  0  0  0  0
  -21.1280   -6.7440   23.8550 C   0  0  0  0  0  3  0  0  0  0  0  0
  -21.0250   -5.9240   24.9960 C   0  0  0  0  0  3  0  0  0  0  0  0
  -21.3760   -4.5630   24.9190 C   0  0  0  0  0  0  0  0  0  0  0  0
  -21.8290   -4.0190   23.7040 C   0  0  0  0  0  3  0  0  0  0  0  0
  -21.9360   -4.8360   22.5650 C   0  0  0  0  0  0  0  0  0  0  0  0
  -22.3560   -4.3040   21.3920 F   0  0  0  0  0  0  0  0  0  0  0  0
  -21.2690   -3.7720   26.0130 F   0  0  0  0  0  0  0  0  0  0  0  0
  -22.7720  -13.5860   21.2520 C   0  0  0  0  0  0  0  0  0  0  0  0
  -22.0550  -12.8800   22.1180 N   0  0  0  0  0  0  0  0  0  0  0  0
  -22.3340  -14.6270   20.7620 O   0  0  0  0  0  0  0  0  0  0  0  0
  -22.4190  -12.0390   22.5440 H   0  0  0  0  0  0  0  0  0  0  0  0
  -21.1250  -13.1860   22.3660 H   0  0  0  0  0  0  0  0  0  0  0  0
  -25.3880  -15.2470   20.3860 N   0  0  0  0  0  0  0  0  0  0  0  0
  -24.6130  -15.8910   20.4890 H   0  0  0  0  0  0  0  0  0  0  0  0
  -26.2060  -15.6780   19.9780 H   0  0  0  0  0  0  0  0  0  0  0  0
  -33.1400  -19.2860   21.5520 N   0  0  0  0  0  0  0  0  0  0  0  0
  -33.3230  -20.2650   21.7530 H   0  0  0  0  0  0  0  0  0  0  0  0
  -33.7750  -18.6480   22.0280 H   0  0  0  0  0  0  0  0  0  0  0  0
  -28.1150  -25.1280   20.4280 C   0  0  0  0  0  2  0  0  0  0  0  0
  -28.3130  -26.5620   20.1320 O   0  0  0  0  0  0  0  0  0  0  0  0
  -24.5670  -31.9040   23.2210 C   0  0  0  0  0  0  0  0  0  0  0  0
  -27.1850  -27.3860   20.1260 C   0  0  0  0  0  0  0  0  0  0  0  0
  -23.3620  -30.5000   21.5880 C   0  0  0  0  0  3  0  0  0  0  0  0
  -24.8120  -28.9640   20.1540 C   0  0  0  0  0  0  0  0  0  0  0  0
  -25.9060  -30.8350   21.3970 C   0  0  0  0  0  2  0  0  0  0  0  0
  -25.9840  -29.4650   20.7350 C   0  0  0  0  0  0  0  0  0  0  0  0
  -27.1820  -28.6890   20.6990 C   0  0  0  0  0  3  0  0  0  0  0  0
  -25.9860  -26.9250   19.5470 C   0  0  0  0  0  3  0  0  0  0  0  0
  -24.8130  -27.6990   19.5490 C   0  0  0  0  0  3  0  0  0  0  0  0
  -23.5690  -29.8270   20.2040 C   0  0  0  0  0  2  0  0  0  0  0  0
  -24.6290  -31.0930   22.1260 N   0  0  0  0  0  0  0  0  0  0  0  0
  -23.4830  -32.1850   23.7560 O   0  0  0  0  0  0  0  0  0  0  0  0
  -22.7100  -29.4790   22.5500 C   0  0  0  0  0  0  0  0  0  0  0  0
  -21.3830  -29.2980   22.4350 N   0  0  0  0  0  0  0  0  0  0  0  0
  -23.3980  -28.8560   23.3630 O   0  0  0  0  0  0  0  0  0  0  0  0
  -20.8900  -29.8610   21.7570 H   0  0  0  0  0  0  0  0  0  0  0  0
  -18.0040  -28.1100   22.9530 C   0  0  0  0  0  0  0  0  0  0  0  0
  -20.5650  -28.3570   23.2050 C   0  0  0  0  0  3  0  0  0  0  0  0
  -20.6560  -26.9240   22.6260 C   0  0  0  0  0  2  0  0  0  0  0  0
  -19.5440  -26.6120   21.6200 C   0  0  0  0  0  2  0  0  0  0  0  0
  -18.1680  -26.7620   22.2740 C   0  0  0  0  0  2  0  0  0  0  0  0
  -19.1280  -28.8660   23.3760 C   0  0  0  0  0  0  0  0  0  0  0  0
  -18.9140  -30.1320   23.9660 C   0  0  0  0  0  3  0  0  0  0  0  0
  -17.6110  -30.6360   24.1390 C   0  0  0  0  0  3  0  0  0  0  0  0
  -16.5040  -29.8720   23.7340 C   0  0  0  0  0  3  0  0  0  0  0  0
  -16.7020  -28.6120   23.1460 C   0  0  0  0  0  3  0  0  0  0  0  0
  -25.8520  -32.5390   23.8370 C   0  0  0  0  0  3  0  0  0  0  0  0
  -26.3760  -31.7740   25.1150 C   0  0  1  0  0  0  0  0  0  0  0  0
  -25.2880  -31.5310   26.1860 C   0  0  0  0  0  1  0  0  0  0  0  0
  -26.9670  -30.3990   24.7270 C   0  0  0  0  0  1  0  0  0  0  0  0
  -27.5200  -32.5780   25.7780 C   0  0  0  0  0  1  0  0  0  0  0  0
  -25.5350  -33.9360   24.1710 N   0  0  0  0  0  0  0  0  0  0  0  0
  -25.8520  -34.9940   23.4140 C   0  0  0  0  0  0  0  0  0  0  0  0
  -26.5130  -34.8950   22.3770 O   0  0  0  0  0  0  0  0  0  0  0  0
  -24.9510  -34.0800   24.9800 H   0  0  0  0  0  0  0  0  0  0  0  0
  -24.1180  -36.7860   23.0750 C   0  0  0  0  0  1  0  0  0  0  0  0
  -25.3620  -36.3810   23.8820 C   0  0  0  0  0  3  0  0  0  0  0  0
  -27.4900  -37.2790   24.7190 C   0  0  0  0  0  1  0  0  0  0  0  0
  -26.3910  -37.4370   23.7670 N   0  0  0  0  0  0  0  0  0  0  0  0
  -25.9870  -38.3600   23.8970 H   0  0  0  0  0  0  0  0  0  0  0  0
  1  4  1  0
  2  1  2  0
  2 55  1  0
  3  5  1  0
  3  1  1  0
  5  7  1  0
  6  2  1  0
  7 11  1  0
  7  4  1  0
  8 12  1  0
  9 13  2  0
 10 12  2  0
 11  9  1  0
 11  8  2  0
 12 52  1  0
 13 10  1  0
 14 22  1  0
 15 20  1  0
 16 17  1  0
 16 15  1  0
 18 17  1  0
 18 27  1  0
 18 19  1  0
 20 14  1  0
 20 19  1  0
 21 14  2  0
 22 13  1  0
 22 23  1  0
 24 25  2  0
 25 44  1  0
 26 25  1  0
 26 29  1  0
 27 28  1  0
 27 24  1  0
 28 26  2  0
 29 30  1  0
 30 31  2  0
 32 35  1  0
 32 31  1  0
 33 32  2  0
 34 33  1  0
 34 29  2  0
 35 36  1  0
 36 37  1  0
 37 38  2  0
 39 38  1  0
 39 43  1  0
 40 39  2  0
 41 36  2  0
 41 40  1  0
 42 41  1  0
 44 45  1  0
 45 48  1  0
 45 47  1  0
 46 44  2  0
 49 50  1  0
 49 24  1  0
 51 49  1  0
 52 53  1  0
 52 54  1  0
 56 55  1  0
 57 68  2  0
 58 56  1  0
 58 63  1  0
 59 67  1  0
 59 69  1  0
 60 66  1  0
 60 62  1  0
 61 67  1  0
 62 61  1  0
 63 62  2  0
 64 65  1  0
 64 58  2  0
 65 60  2  0
 66 59  1  0
 67 57  1  0
 69 71  2  0
 70 69  1  0
 72 70  1  0
 73 82  2  0
 73 78  1  0
 74 70  1  0
 74 78  1  0
 75 74  1  0
 76 77  1  0
 76 75  1  0
 77 73  1  0
 78 79  2  0
 79 80  1  0
 81 80  2  0
 82 81  1  0
 83 57  1  0
 83 88  1  0
 83 84  1  0
 84 87  1  1
 84 85  1  0
 86 84  1  0
 88 91  1  0
 89 93  1  0
 89 88  1  0
 90 89  2  0
 93 92  1  0
 95 93  1  0
 95 96  1  0
 95 94  1  0
M  ISO  4  14 100  22 100  55 101  56 101
M  END
>  <TORSDO>  (85) 
F 19

>  <SCORE>  (85) 
-14.965

>  <name>  (85) 
84

>  <ligand_id>  (85) 
84

>  <original_smiles>  (85) 
[H]c1c([H])c([H])c2c(c1[H])C([H])([H])C([H])([H])C([H])([H])C2([H])N([H])C(=O)C1([H])N(C(=O)C([H])(N([H])C(=O)C([H])(N([H])C([H])([H])[H])C([H])([H])[H])C(C([H])([H])[H])(C([H])([H])[H])C([H])([H])[H])C([H])([H])c2c([H])c(OC([H])([H])C(=C3C([H])([H])N(c4c([H])c(N([H])[H])c([H])c(N([H])C(=O)N5C([H])([H])C([H])([H])C([H])([H])C([H])(n6nc(-c7c([H])c([H])c(Oc8c([H])c([H])c(F)c([H])c8F)c([H])c7[H])c(C(=O)N([H])[H])c6N([H])[H])C5([H])[H])c4[H])C([H])([H])C3([H])[H])C([H])([H])[H])c([H])c([H])c2C1([H])[H]

>  <smiles>  (85) 
[H]c1c([H])c([H])c2c(c1[H])C([H])([H])C([H])([H])C([H])([H])C2([H])N([H])C(=O)C1([H])N(C(=O)C([H])(N([H])C(=O)C([H])(N([H])C([H])([H])[H])C([H])([H])[H])C(C([H])([H])[H])(C([H])([H])[H])C([H])([H])[H])C([H])([H])c2c([H])c(OC([H])([H])C(=C3C([H])([H])N(c4c([H])c(N([H])[H])c([H])c(N([H])C(=O)N5C([H])([H])C([H])([H])C([H])([H])C([H])(n6nc(-c7c([H])c([H])c(Oc8c([H])c([H])c(F)c([H])c8F)c([H])c7[H])c(C(=O)N([H])[H])c6N([H])[H])C5([H])[H])c4[H])C([H])([H])C3([H])[H])C([H])([H])[H])c([H])c([H])c2C1([H])[H]

$$$$
85:0:0
     RDKit          3D

 98106  0  0  1  0  0  0  0  0999 V2000
  -30.4450  -20.8260   23.0620 C   0  0  0  0  0  2  0  0  0  0  0  0
  -32.5330  -21.9840   23.9690 C   0  0  0  0  0  1  0  0  0  0  0  0
  -31.1020  -22.1750   23.4320 C   0  0  0  0  0  3  0  0  0  0  0  0
  -31.0660  -23.2040   22.2740 C   0  0  0  0  0  2  0  0  0  0  0  0
  -29.7010  -23.8530   22.0130 C   0  0  0  0  0  0  0  0  0  0  0  0
  -28.7470  -23.6930   22.7790 O   0  0  0  0  0  0  0  0  0  0  0  0
  -29.5710  -24.7130   20.7520 C   0  0  0  0  0  2  0  0  0  0  0  0
  -28.7810  -26.0150   20.9710 C   0  0  0  0  0  2  0  0  0  0  0  0
  -28.3490  -26.5190   19.7080 O   0  0  0  0  0  0  0  0  0  0  0  0
  -24.7660  -31.5820   23.1910 C   0  0  0  0  0  0  0  0  0  0  0  0
  -27.2260  -27.3010   19.7890 C   0  0  0  0  0  0  0  0  0  0  0  0
  -23.4880  -30.3250   21.4840 C   0  0  0  0  0  3  0  0  0  0  0  0
  -24.8720  -28.8420   19.9350 C   0  0  0  0  0  0  0  0  0  0  0  0
  -26.0130  -30.6330   21.2570 C   0  0  0  0  0  2  0  0  0  0  0  0
  -26.0490  -29.3020   20.5400 C   0  0  0  0  0  0  0  0  0  0  0  0
  -27.2300  -28.5340   20.4740 C   0  0  0  0  0  3  0  0  0  0  0  0
  -26.0420  -26.8510   19.1730 C   0  0  0  0  0  3  0  0  0  0  0  0
  -24.8590  -27.6130   19.2510 C   0  0  0  0  0  3  0  0  0  0  0  0
  -23.6510  -29.7280   20.0600 C   0  0  0  0  0  2  0  0  0  0  0  0
  -24.7760  -30.8570   22.0370 N   0  0  0  0  0  0  0  0  0  0  0  0
  -23.7050  -31.8510   23.7710 O   0  0  0  0  0  0  0  0  0  0  0  0
  -22.8220  -29.2650   22.3900 C   0  0  0  0  0  0  0  0  0  0  0  0
  -21.4930  -29.1260   22.2690 N   0  0  0  0  0  0  0  0  0  0  0  0
  -23.5000  -28.5720   23.1540 O   0  0  0  0  0  0  0  0  0  0  0  0
  -21.0090  -29.7380   21.6270 H   0  0  0  0  0  0  0  0  0  0  0  0
  -18.0920  -28.0100   22.7490 C   0  0  0  0  0  0  0  0  0  0  0  0
  -20.6610  -28.1640   22.9910 C   0  0  0  0  0  3  0  0  0  0  0  0
  -20.7060  -26.7730   22.3190 C   0  0  0  0  0  2  0  0  0  0  0  0
  -19.5770  -26.5560   21.3050 C   0  0  0  0  0  2  0  0  0  0  0  0
  -18.2110  -26.7040   21.9820 C   0  0  0  0  0  2  0  0  0  0  0  0
  -19.2420  -28.7030   23.2080 C   0  0  0  0  0  0  0  0  0  0  0  0
  -19.0770  -29.9330   23.8820 C   0  0  0  0  0  3  0  0  0  0  0  0
  -17.7940  -30.4670   24.1040 C   0  0  0  0  0  3  0  0  0  0  0  0
  -16.6560  -29.7680   23.6620 C   0  0  0  0  0  3  0  0  0  0  0  0
  -16.8070  -28.5410   22.9890 C   0  0  0  0  0  3  0  0  0  0  0  0
  -26.0840  -32.1300   23.8240 C   0  0  0  0  0  3  0  0  0  0  0  0
  -25.8360  -33.5190   24.2300 N   0  0  0  0  0  0  0  0  0  0  0  0
  -26.2150  -34.5950   23.5280 C   0  0  0  0  0  0  0  0  0  0  0  0
  -26.8830  -34.5190   22.4920 O   0  0  0  0  0  0  0  0  0  0  0  0
  -25.2480  -33.6560   25.0400 H   0  0  0  0  0  0  0  0  0  0  0  0
  -24.5610  -36.4700   23.2700 C   0  0  0  0  0  1  0  0  0  0  0  0
  -25.7850  -35.9750   24.0580 C   0  0  0  0  0  3  0  0  0  0  0  0
  -27.9500  -36.7330   24.9340 C   0  0  0  0  0  1  0  0  0  0  0  0
  -26.8600  -36.9900   23.9970 N   0  0  0  0  0  0  0  0  0  0  0  0
  -26.4900  -37.9190   24.1880 H   0  0  0  0  0  0  0  0  0  0  0  0
  -26.5920  -31.2710   25.0460 C   0  0  1  0  0  0  0  0  0  0  0  0
  -25.5060  -31.0130   26.1160 C   0  0  0  0  0  1  0  0  0  0  0  0
  -27.1200  -29.8990   24.5630 C   0  0  0  0  0  1  0  0  0  0  0  0
  -27.7790  -31.9860   25.7330 C   0  0  0  0  0  1  0  0  0  0  0  0
  -31.2500  -20.0650   22.1110 N   0  0  0  0  0  0  0  0  0  0  0  0
  -32.2570  -20.1750   22.1930 H   0  0  0  0  0  0  0  0  0  0  0  0
  -29.6240  -18.4900   21.1350 C   0  0  0  0  0  3  0  0  0  0  0  0
  -31.3470  -16.3680   21.7540 C   0  0  0  0  0  3  0  0  0  0  0  0
  -29.2590  -17.1730   20.7790 C   0  0  0  0  0  0  0  0  0  0  0  0
  -30.8500  -18.7610   21.7770 C   0  0  0  0  0  0  0  0  0  0  0  0
  -30.1290  -16.0900   21.0830 C   0  0  0  0  0  0  0  0  0  0  0  0
  -31.7090  -17.6880   22.0850 C   0  0  0  0  0  0  0  0  0  0  0  0
  -32.8870  -17.9280   22.7140 F   0  0  0  0  0  0  0  0  0  0  0  0
  -30.1320  -13.9830   19.7230 C   0  0  0  0  0  0  0  0  0  0  0  0
  -29.5920  -11.9780   18.3880 C   0  0  0  0  0  2  0  0  0  0  0  0
  -28.4530  -12.2930   17.3980 C   0  0  0  0  0  2  0  0  0  0  0  0
  -27.0780  -12.0870   18.0630 C   0  0  0  0  0  2  0  0  0  0  0  0
  -26.9710  -12.7910   19.4420 C   0  0  0  0  0  3  0  0  0  0  0  0
  -28.2010  -12.4650   20.3180 C   0  0  0  0  0  2  0  0  0  0  0  0
  -29.4170  -12.8370   19.5690 N   0  0  0  0  0  0  0  0  0  0  0  0
  -31.0560  -14.2980   18.9670 O   0  0  0  0  0  0  0  0  0  0  0  0
  -29.7330  -14.7600   20.7460 N   0  0  0  0  0  0  0  0  0  0  0  0
  -28.9390  -14.3960   21.2470 H   0  0  0  0  0  0  0  0  0  0  0  0
  -24.6990  -13.2830   20.5510 C   0  0  0  0  0  0  0  0  0  0  0  0
  -23.7300  -12.4600   21.0590 C   0  0  0  0  0  0  0  0  0  0  0  0
  -24.2170  -11.1290   20.8890 C   0  0  0  0  0  0  0  0  0  0  0  0
  -25.7200  -12.4500   20.1180 N   0  0  0  0  0  0  0  0  0  0  0  0
  -25.4390  -11.1460   20.3710 N   0  0  0  0  0  0  0  0  0  0  0  0
  -23.5670   -9.8360   21.1350 C   0  0  0  0  0  0  0  0  0  0  0  0
  -24.1330   -8.8790   22.0050 C   0  0  0  0  0  3  0  0  0  0  0  0
  -23.4790   -7.6500   22.2410 C   0  0  0  0  0  3  0  0  0  0  0  0
  -22.2460   -7.3700   21.6080 C   0  0  0  0  0  0  0  0  0  0  0  0
  -21.6970   -8.3170   20.7250 C   0  0  0  0  0  3  0  0  0  0  0  0
  -22.3510   -9.5380   20.4870 C   0  0  0  0  0  3  0  0  0  0  0  0
  -21.5520   -6.1940   21.7560 O   0  0  0  0  0  0  0  0  0  0  0  0
  -21.5900   -5.4790   22.9260 C   0  0  0  0  0  0  0  0  0  0  0  0
  -21.2170   -6.0520   24.1610 C   0  0  0  0  0  3  0  0  0  0  0  0
  -21.2040   -5.2630   25.3290 C   0  0  0  0  0  3  0  0  0  0  0  0
  -21.5540   -3.9010   25.2620 C   0  0  0  0  0  0  0  0  0  0  0  0
  -21.9200   -3.3270   24.0320 C   0  0  0  0  0  3  0  0  0  0  0  0
  -21.9350   -4.1140   22.8670 C   0  0  0  0  0  0  0  0  0  0  0  0
  -22.2690   -3.5510   21.6800 F   0  0  0  0  0  0  0  0  0  0  0  0
  -21.5330   -3.1400   26.3810 F   0  0  0  0  0  0  0  0  0  0  0  0
  -22.3860  -12.8780   21.5820 C   0  0  0  0  0  0  0  0  0  0  0  0
  -21.8460  -12.1400   22.5440 N   0  0  0  0  0  0  0  0  0  0  0  0
  -21.8280  -13.8960   21.1700 O   0  0  0  0  0  0  0  0  0  0  0  0
  -22.3140  -11.3180   22.8960 H   0  0  0  0  0  0  0  0  0  0  0  0
  -20.9530  -12.4020   22.9370 H   0  0  0  0  0  0  0  0  0  0  0  0
  -24.7880  -14.6620   20.4050 N   0  0  0  0  0  0  0  0  0  0  0  0
  -24.0250  -15.2780   20.6600 H   0  0  0  0  0  0  0  0  0  0  0  0
  -25.5540  -15.1430   19.9530 H   0  0  0  0  0  0  0  0  0  0  0  0
  -28.0430  -17.3800   18.5640 C   0  0  0  0  0  1  0  0  0  0  0  0
  -27.9340  -16.9930   20.0460 C   0  0  0  0  0  2  0  0  0  0  0  0
  1  3  1  0
  3  2  1  0
  4  3  1  0
  5  4  1  0
  5  6  2  0
  7  8  1  0
  7  5  1  0
  9 11  1  0
  9  8  1  0
 10 21  2  0
 11 16  1  0
 12 20  1  0
 12 22  1  0
 13 19  1  0
 13 15  1  0
 14 20  1  0
 15 14  1  0
 16 15  2  0
 17 18  1  0
 17 11  2  0
 18 13  2  0
 19 12  1  0
 20 10  1  0
 22 24  2  0
 23 22  1  0
 25 23  1  0
 26 35  2  0
 26 31  1  0
 27 23  1  0
 27 31  1  0
 28 27  1  0
 29 30  1  0
 29 28  1  0
 30 26  1  0
 31 32  2  0
 32 33  1  0
 34 33  2  0
 35 34  1  0
 36 10  1  0
 36 37  1  0
 36 46  1  0
 37 40  1  0
 38 42  1  0
 38 37  1  0
 39 38  2  0
 42 41  1  0
 44 42  1  0
 44 45  1  0
 44 43  1  0
 46 49  1  1
 46 47  1  0
 48 46  1  0
 50 51  1  0
 50  1  1  0
 52 55  1  0
 53 57  1  0
 54 56  1  0
 54 52  2  0
 55 57  2  0
 55 50  1  0
 56 53  2  0
 57 58  1  0
 59 67  1  0
 60 65  1  0
 61 62  1  0
 61 60  1  0
 63 62  1  0
 63 72  1  0
 63 64  1  0
 65 59  1  0
 65 64  1  0
 66 59  2  0
 67 56  1  0
 67 68  1  0
 69 70  2  0
 70 89  1  0
 71 70  1  0
 71 74  1  0
 72 73  1  0
 72 69  1  0
 73 71  2  0
 74 75  1  0
 75 76  2  0
 77 80  1  0
 77 76  1  0
 78 77  2  0
 79 78  1  0
 79 74  2  0
 80 81  1  0
 81 82  1  0
 82 83  2  0
 84 83  1  0
 84 88  1  0
 85 84  2  0
 86 81  2  0
 86 85  1  0
 87 86  1  0
 89 90  1  0
 90 92  1  0
 90 93  1  0
 91 89  2  0
 94 69  1  0
 94 95  1  0
 96 94  1  0
 97 98  1  0
 98 54  1  0
M  ISO  4   8 101   9 101  59 100  67 100
M  END
>  <TORSDO>  (86) 
F 24

>  <SCORE>  (86) 
-6.844

>  <name>  (86) 
85

>  <ligand_id>  (86) 
85

>  <original_smiles>  (86) 
[H]c1c([H])c([H])c2c(c1[H])C([H])([H])C([H])([H])C([H])([H])C2([H])N([H])C(=O)C1([H])N(C(=O)C([H])(N([H])C(=O)C([H])(N([H])C([H])([H])[H])C([H])([H])[H])C(C([H])([H])[H])(C([H])([H])[H])C([H])([H])[H])C([H])([H])c2c([H])c(OC([H])([H])C([H])([H])C(=O)C([H])([H])C([H])(C([H])([H])[H])C([H])([H])N([H])c3c([H])c(C([H])([H])C([H])([H])[H])c(N([H])C(=O)N4C([H])([H])C([H])([H])C([H])([H])C([H])(n5nc(-c6c([H])c([H])c(Oc7c([H])c([H])c(F)c([H])c7F)c([H])c6[H])c(C(=O)N([H])[H])c5N([H])[H])C4([H])[H])c([H])c3F)c([H])c([H])c2C1([H])[H]

>  <smiles>  (86) 
[H]c1c([H])c([H])c2c(c1[H])C([H])([H])C([H])([H])C([H])([H])C2([H])N([H])C(=O)C1([H])N(C(=O)C([H])(N([H])C(=O)C([H])(N([H])C([H])([H])[H])C([H])([H])[H])C(C([H])([H])[H])(C([H])([H])[H])C([H])([H])[H])C([H])([H])c2c([H])c(OC([H])([H])C([H])([H])C(=O)C([H])([H])C([H])(C([H])([H])[H])C([H])([H])N([H])c3c([H])c(C([H])([H])C([H])([H])[H])c(N([H])C(=O)N4C([H])([H])C([H])([H])C([H])([H])C([H])(n5nc(-c6c([H])c([H])c(Oc7c([H])c([H])c(F)c([H])c7F)c([H])c6[H])c(C(=O)N([H])[H])c5N([H])[H])C4([H])[H])c([H])c3F)c([H])c([H])c2C1([H])[H]

$$$$
86:0:0
     RDKit          3D

 93102  0  0  1  0  0  0  0  0999 V2000
  -27.0970  -22.6880   19.8380 C   0  0  0  0  0  2  0  0  0  0  0  0
  -27.4370  -21.2090   20.2260 C   0  0  0  0  0  2  0  0  0  0  0  0
  -29.4150  -22.4280   20.0120 C   0  0  0  0  0  2  0  0  0  0  0  0
  -28.3200  -23.5800   20.2080 C   0  0  0  0  0  3  0  0  0  0  0  0
  -28.8910  -21.0430   20.2870 N   0  0  0  0  0  0  0  0  0  0  0  0
  -29.1470  -18.4160   20.5240 C   0  0  0  0  0  3  0  0  0  0  0  0
  -29.5350  -19.7410   19.9770 C   0  0  0  0  0  0  0  0  0  0  0  0
  -30.5730  -19.5560   19.0770 C   0  0  0  0  0  0  0  0  0  0  0  0
  -29.9100  -17.2790   20.1370 C   0  0  0  0  0  0  0  0  0  0  0  0
  -31.2240  -20.5470   18.1440 C   0  0  0  0  0  1  0  0  0  0  0  0
  -31.1130  -17.8790   19.0160 S   0  0  0  0  0  0  0  0  0  0  0  0
  -30.5960  -14.8020   20.1730 C   0  0  0  0  0  0  0  0  0  0  0  0
  -30.4070  -12.5330   19.1410 C   0  0  0  0  0  2  0  0  0  0  0  0
  -29.4340  -12.6570   17.9470 C   0  0  0  0  0  2  0  0  0  0  0  0
  -27.9650  -12.5080   18.3970 C   0  0  0  0  0  2  0  0  0  0  0  0
  -27.6430  -13.3280   19.6750 C   0  0  0  0  0  3  0  0  0  0  0  0
  -28.7340  -13.1620   20.7510 C   0  0  0  0  0  2  0  0  0  0  0  0
  -30.0100  -13.5560   20.1360 N   0  0  0  0  0  0  0  0  0  0  0  0
  -31.7740  -14.9290   19.8150 O   0  0  0  0  0  0  0  0  0  0  0  0
  -29.7810  -15.9040   20.4530 N   0  0  0  0  0  0  0  0  0  0  0  0
  -28.8830  -15.6310   20.8340 H   0  0  0  0  0  0  0  0  0  0  0  0
  -25.2740  -13.9020   20.4560 C   0  0  0  0  0  0  0  0  0  0  0  0
  -24.2240  -13.1260   20.8460 C   0  0  0  0  0  0  0  0  0  0  0  0
  -24.6860  -11.7760   20.7980 C   0  0  0  0  0  0  0  0  0  0  0  0
  -26.3130  -13.0300   20.1920 N   0  0  0  0  0  0  0  0  0  0  0  0
  -25.9670  -11.7420   20.4550 N   0  0  0  0  0  0  0  0  0  0  0  0
  -23.9630  -10.5190   20.9970 C   0  0  0  0  0  0  0  0  0  0  0  0
  -24.4130   -9.5480   21.9180 C   0  0  0  0  0  3  0  0  0  0  0  0
  -23.6960   -8.3460   22.1020 C   0  0  0  0  0  3  0  0  0  0  0  0
  -22.5110   -8.1070   21.3590 C   0  0  0  0  0  0  0  0  0  0  0  0
  -22.0870   -9.0610   20.4130 C   0  0  0  0  0  3  0  0  0  0  0  0
  -22.8090  -10.2540   20.2320 C   0  0  0  0  0  3  0  0  0  0  0  0
  -21.7580   -6.9630   21.4560 O   0  0  0  0  0  0  0  0  0  0  0  0
  -21.7090   -6.2290   22.6130 C   0  0  0  0  0  0  0  0  0  0  0  0
  -21.2590   -6.7880   23.8310 C   0  0  0  0  0  3  0  0  0  0  0  0
  -21.1620   -5.9810   24.9810 C   0  0  0  0  0  3  0  0  0  0  0  0
  -21.4990   -4.6150   24.9120 C   0  0  0  0  0  0  0  0  0  0  0  0
  -21.9370   -4.0540   23.7000 C   0  0  0  0  0  3  0  0  0  0  0  0
  -22.0380   -4.8590   22.5510 C   0  0  0  0  0  0  0  0  0  0  0  0
  -22.4440   -4.3130   21.3800 F   0  0  0  0  0  0  0  0  0  0  0  0
  -21.3950   -3.8320   26.0120 F   0  0  0  0  0  0  0  0  0  0  0  0
  -22.8350  -13.5930   21.1610 C   0  0  0  0  0  0  0  0  0  0  0  0
  -22.1270  -12.8850   22.0280 N   0  0  0  0  0  0  0  0  0  0  0  0
  -22.3800  -14.6260   20.6690 O   0  0  0  0  0  0  0  0  0  0  0  0
  -22.5170  -12.0510   22.4420 H   0  0  0  0  0  0  0  0  0  0  0  0
  -21.1950  -13.1750   22.2840 H   0  0  0  0  0  0  0  0  0  0  0  0
  -25.4300  -15.2790   20.2830 N   0  0  0  0  0  0  0  0  0  0  0  0
  -24.6460  -15.9120   20.3780 H   0  0  0  0  0  0  0  0  0  0  0  0
  -26.2500  -15.7240   19.8970 H   0  0  0  0  0  0  0  0  0  0  0  0
  -30.0890  -25.1690   19.2680 C   0  0  0  0  0  1  0  0  0  0  0  0
  -28.0630  -24.9450   17.9500 C   0  0  0  0  0  1  0  0  0  0  0  0
  -28.5500  -25.0300   19.4340 C   0  0  1  0  0  0  0  0  0  0  0  0
  -28.3360  -26.3880   20.1200 O   0  0  0  0  0  0  0  0  0  0  0  0
  -24.6210  -31.8890   23.2390 C   0  0  0  0  0  0  0  0  0  0  0  0
  -27.2150  -27.2650   20.1060 C   0  0  0  0  0  0  0  0  0  0  0  0
  -23.4200  -30.4940   21.5970 C   0  0  0  0  0  3  0  0  0  0  0  0
  -24.8700  -28.9530   20.1430 C   0  0  0  0  0  0  0  0  0  0  0  0
  -25.9740  -30.7690   21.4460 C   0  0  0  0  0  2  0  0  0  0  0  0
  -26.0410  -29.4010   20.7640 C   0  0  0  0  0  0  0  0  0  0  0  0
  -27.2110  -28.5670   20.7400 C   0  0  0  0  0  3  0  0  0  0  0  0
  -26.0100  -26.8930   19.4830 C   0  0  0  0  0  3  0  0  0  0  0  0
  -24.8700  -27.7160   19.4800 C   0  0  0  0  0  3  0  0  0  0  0  0
  -23.6320  -29.8290   20.2110 C   0  0  0  0  0  2  0  0  0  0  0  0
  -24.6890  -31.0750   22.1440 N   0  0  0  0  0  0  0  0  0  0  0  0
  -23.5370  -32.1680   23.7690 O   0  0  0  0  0  0  0  0  0  0  0  0
  -22.7560  -29.4770   22.5550 C   0  0  0  0  0  0  0  0  0  0  0  0
  -21.4300  -29.2950   22.4280 N   0  0  0  0  0  0  0  0  0  0  0  0
  -23.4340  -28.8520   23.3760 O   0  0  0  0  0  0  0  0  0  0  0  0
  -20.9360  -29.8430   21.7350 H   0  0  0  0  0  0  0  0  0  0  0  0
  -18.0620  -28.0820   22.9490 C   0  0  0  0  0  0  0  0  0  0  0  0
  -20.6190  -28.3550   23.2050 C   0  0  0  0  0  3  0  0  0  0  0  0
  -20.7240  -26.9240   22.6290 C   0  0  0  0  0  2  0  0  0  0  0  0
  -19.6200  -26.5960   21.6200 C   0  0  0  0  0  2  0  0  0  0  0  0
  -18.2400  -26.7370   22.2690 C   0  0  0  0  0  2  0  0  0  0  0  0
  -19.1780  -28.8480   23.3750 C   0  0  0  0  0  0  0  0  0  0  0  0
  -18.9560  -30.1090   23.9710 C   0  0  0  0  0  3  0  0  0  0  0  0
  -17.6500  -30.6050   24.1440 C   0  0  0  0  0  3  0  0  0  0  0  0
  -16.5470  -29.8370   23.7340 C   0  0  0  0  0  3  0  0  0  0  0  0
  -16.7560  -28.5760   23.1440 C   0  0  0  0  0  3  0  0  0  0  0  0
  -25.9000  -32.5270   23.8610 C   0  0  0  0  0  3  0  0  0  0  0  0
  -25.5840  -33.9240   24.1860 N   0  0  0  0  0  0  0  0  0  0  0  0
  -25.9140  -34.9820   23.4300 C   0  0  0  0  0  0  0  0  0  0  0  0
  -26.5810  -34.8800   22.3960 O   0  0  0  0  0  0  0  0  0  0  0  0
  -24.9910  -34.0810   24.9880 H   0  0  0  0  0  0  0  0  0  0  0  0
  -24.1770  -36.7660   23.0800 C   0  0  0  0  0  1  0  0  0  0  0  0
  -25.4200  -36.3670   23.8890 C   0  0  0  0  0  3  0  0  0  0  0  0
  -27.5490  -37.2600   24.7240 C   0  0  0  0  0  1  0  0  0  0  0  0
  -26.4470  -37.4250   23.7810 N   0  0  0  0  0  0  0  0  0  0  0  0
  -26.0370  -38.3420   23.9360 H   0  0  0  0  0  0  0  0  0  0  0  0
  -26.4120  -31.7670   25.1470 C   0  0  1  0  0  0  0  0  0  0  0  0
  -25.3130  -31.5320   26.2080 C   0  0  0  0  0  1  0  0  0  0  0  0
  -27.0040  -30.3860   24.7830 C   0  0  0  0  0  1  0  0  0  0  0  0
  -27.5540  -32.5720   25.8100 C   0  0  0  0  0  1  0  0  0  0  0  0
  1  4  1  0
  1  2  1  0
  2  5  1  0
  3  4  1  0
  3  5  1  0
  4 52  1  0
  7  5  1  0
  7  6  1  0
  8  7  2  0
  9 20  1  0
  9  6  2  0
 10  8  1  0
 11  8  1  0
 11  9  1  0
 12 20  1  0
 13 18  1  0
 14 15  1  0
 14 13  1  0
 16 15  1  0
 16 25  1  0
 16 17  1  0
 18 12  1  0
 18 17  1  0
 19 12  2  0
 20 21  1  0
 22 23  2  0
 23 42  1  0
 24 23  1  0
 24 27  1  0
 25 26  1  0
 25 22  1  0
 26 24  2  0
 27 28  1  0
 28 29  2  0
 30 33  1  0
 30 29  1  0
 31 30  2  0
 32 31  1  0
 32 27  2  0
 33 34  1  0
 34 35  1  0
 35 36  2  0
 37 36  1  0
 37 41  1  0
 38 37  2  0
 39 34  2  0
 39 38  1  0
 40 39  1  0
 42 43  1  0
 43 46  1  0
 43 45  1  0
 44 42  2  0
 47 48  1  0
 47 22  1  0
 49 47  1  0
 52 50  1  6
 51 52  1  0
 52 53  1  0
 54 65  2  0
 55 53  1  0
 55 60  1  0
 56 64  1  0
 56 66  1  0
 57 63  1  0
 57 59  1  0
 58 64  1  0
 59 58  1  0
 60 59  2  0
 61 55  2  0
 62 61  1  0
 62 57  2  0
 63 56  1  0
 64 54  1  0
 66 68  2  0
 67 66  1  0
 69 67  1  0
 70 79  2  0
 70 75  1  0
 71 67  1  0
 71 75  1  0
 72 71  1  0
 73 74  1  0
 73 72  1  0
 74 70  1  0
 75 76  2  0
 76 77  1  0
 78 77  2  0
 79 78  1  0
 80 54  1  0
 80 81  1  0
 80 90  1  0
 81 84  1  0
 82 86  1  0
 82 81  1  0
 83 82  2  0
 86 85  1  0
 88 86  1  0
 88 89  1  0
 88 87  1  0
 90 93  1  1
 90 91  1  0
 92 90  1  0
M  ISO  4  12 100  20 100  52 101  53 101
M  END
>  <TORSDO>  (87) 
F 18

>  <SCORE>  (87) 
-14.582

>  <name>  (87) 
86

>  <ligand_id>  (87) 
86

>  <original_smiles>  (87) 
[H]c1c([H])c([H])c2c(c1[H])C([H])([H])C([H])([H])C([H])([H])C2([H])N([H])C(=O)C1([H])N(C(=O)C([H])(N([H])C(=O)C([H])(N([H])C([H])([H])[H])C([H])([H])[H])C(C([H])([H])[H])(C([H])([H])[H])C([H])([H])[H])C([H])([H])c2c([H])c(OC(C([H])([H])[H])(C([H])([H])[H])C3([H])C([H])([H])N(c4c(C([H])([H])[H])sc(N([H])C(=O)N5C([H])([H])C([H])([H])C([H])([H])C([H])(n6nc(-c7c([H])c([H])c(Oc8c([H])c([H])c(F)c([H])c8F)c([H])c7[H])c(C(=O)N([H])[H])c6N([H])[H])C5([H])[H])c4[H])C([H])([H])C3([H])[H])c([H])c([H])c2C1([H])[H]

>  <smiles>  (87) 
[H]c1c([H])c([H])c2c(c1[H])C([H])([H])C([H])([H])C([H])([H])C2([H])N([H])C(=O)C1([H])N(C(=O)C([H])(N([H])C(=O)C([H])(N([H])C([H])([H])[H])C([H])([H])[H])C(C([H])([H])[H])(C([H])([H])[H])C([H])([H])[H])C([H])([H])c2c([H])c(OC(C([H])([H])[H])(C([H])([H])[H])C3([H])C([H])([H])N(c4c(C([H])([H])[H])sc(N([H])C(=O)N5C([H])([H])C([H])([H])C([H])([H])C([H])(n6nc(-c7c([H])c([H])c(Oc8c([H])c([H])c(F)c([H])c8F)c([H])c7[H])c(C(=O)N([H])[H])c6N([H])[H])C5([H])[H])c4[H])C([H])([H])C3([H])[H])c([H])c([H])c2C1([H])[H]

$$$$
87:0:0
     RDKit          3D

 91100  0  0  1  0  0  0  0  0999 V2000
  -30.1630  -22.1100   21.2990 C   0  0  0  0  0  2  0  0  0  0  0  0
  -28.3930  -21.3310   19.7720 C   0  0  0  0  0  2  0  0  0  0  0  0
  -30.0220  -23.5800   20.7750 C   0  0  0  0  0  2  0  0  0  0  0  0
  -28.2350  -22.7900   19.2190 C   0  0  0  0  0  2  0  0  0  0  0  0
  -29.8390  -21.0250   20.2250 C   0  0  0  0  0  3  0  0  0  0  0  0
  -28.6220  -23.9460   20.1940 C   0  0  0  0  0  3  0  0  0  0  0  0
  -29.5340  -18.3370   20.4280 C   0  0  0  0  0  3  0  0  0  0  0  0
  -31.5830  -17.5110   21.2110 C   0  0  0  0  0  3  0  0  0  0  0  0
  -30.3380  -17.1620   20.7550 C   0  0  0  0  0  0  0  0  0  0  0  0
  -30.2010  -19.5560   20.5840 C   0  0  0  0  0  0  0  0  0  0  0  0
  -31.8150  -19.2410   21.1960 S   0  0  0  0  0  0  0  0  0  0  0  0
  -30.6300  -14.6510   20.3590 C   0  0  0  0  0  0  0  0  0  0  0  0
  -30.3400  -12.4400   19.2670 C   0  0  0  0  0  2  0  0  0  0  0  0
  -29.3820  -12.5850   18.0670 C   0  0  0  0  0  2  0  0  0  0  0  0
  -27.9190  -12.4220   18.5220 C   0  0  0  0  0  2  0  0  0  0  0  0
  -27.5810  -13.2780   19.7720 C   0  0  0  0  0  3  0  0  0  0  0  0
  -28.6600  -13.1380   20.8690 C   0  0  0  0  0  2  0  0  0  0  0  0
  -29.9570  -13.4630   20.2600 N   0  0  0  0  0  0  0  0  0  0  0  0
  -31.8030  -14.7420   19.9870 O   0  0  0  0  0  0  0  0  0  0  0  0
  -29.8950  -15.7730   20.6560 N   0  0  0  0  0  0  0  0  0  0  0  0
  -28.9040  -15.6150   20.7590 H   0  0  0  0  0  0  0  0  0  0  0  0
  -25.2000  -13.8610   20.5340 C   0  0  0  0  0  0  0  0  0  0  0  0
  -24.1420  -13.0830   20.9150 C   0  0  0  0  0  0  0  0  0  0  0  0
  -24.6080  -11.7340   20.8700 C   0  0  0  0  0  0  0  0  0  0  0  0
  -26.2440  -12.9860   20.2790 N   0  0  0  0  0  0  0  0  0  0  0  0
  -25.8950  -11.7010   20.5420 N   0  0  0  0  0  0  0  0  0  0  0  0
  -23.8890  -10.4680   21.0620 C   0  0  0  0  0  0  0  0  0  0  0  0
  -24.3410   -9.4930   21.9790 C   0  0  0  0  0  3  0  0  0  0  0  0
  -23.6210   -8.2930   22.1600 C   0  0  0  0  0  3  0  0  0  0  0  0
  -22.4340   -8.0580   21.4250 C   0  0  0  0  0  0  0  0  0  0  0  0
  -22.0020   -9.0210   20.4970 C   0  0  0  0  0  3  0  0  0  0  0  0
  -22.7220  -10.2140   20.3140 C   0  0  0  0  0  3  0  0  0  0  0  0
  -21.6830   -6.9120   21.5160 O   0  0  0  0  0  0  0  0  0  0  0  0
  -21.6630   -6.1540   22.6600 C   0  0  0  0  0  0  0  0  0  0  0  0
  -21.2650   -6.6920   23.9030 C   0  0  0  0  0  3  0  0  0  0  0  0
  -21.1930   -5.8600   25.0390 C   0  0  0  0  0  3  0  0  0  0  0  0
  -21.5080   -4.4920   24.9320 C   0  0  0  0  0  0  0  0  0  0  0  0
  -21.8990   -3.9550   23.6940 C   0  0  0  0  0  3  0  0  0  0  0  0
  -21.9740   -4.7820   22.5600 C   0  0  0  0  0  0  0  0  0  0  0  0
  -22.3310   -4.2550   21.3640 F   0  0  0  0  0  0  0  0  0  0  0  0
  -21.4320   -3.6920   26.0210 F   0  0  0  0  0  0  0  0  0  0  0  0
  -22.7480  -13.5540   21.2100 C   0  0  0  0  0  0  0  0  0  0  0  0
  -22.0310  -12.8490   22.0770 N   0  0  0  0  0  0  0  0  0  0  0  0
  -22.3020  -14.5840   20.7040 O   0  0  0  0  0  0  0  0  0  0  0  0
  -22.4050  -12.0140   22.5050 H   0  0  0  0  0  0  0  0  0  0  0  0
  -21.0960  -13.1460   22.3150 H   0  0  0  0  0  0  0  0  0  0  0  0
  -25.3580  -15.2340   20.3620 N   0  0  0  0  0  0  0  0  0  0  0  0
  -24.5880  -15.8840   20.4850 H   0  0  0  0  0  0  0  0  0  0  0  0
  -26.1930  -15.6780   20.0030 H   0  0  0  0  0  0  0  0  0  0  0  0
  -28.5630  -25.3660   19.4730 C   0  0  0  0  0  2  0  0  0  0  0  0
  -28.3870  -26.6050   20.2400 O   0  0  0  0  0  0  0  0  0  0  0  0
  -24.5910  -31.9040   23.2430 C   0  0  0  0  0  0  0  0  0  0  0  0
  -27.2180  -27.3740   20.1830 C   0  0  0  0  0  0  0  0  0  0  0  0
  -23.3800  -30.4980   21.6110 C   0  0  0  0  0  3  0  0  0  0  0  0
  -24.8300  -28.9470   20.1850 C   0  0  0  0  0  0  0  0  0  0  0  0
  -25.9130  -30.8330   21.4110 C   0  0  0  0  0  2  0  0  0  0  0  0
  -25.9960  -29.4550   20.7700 C   0  0  0  0  0  0  0  0  0  0  0  0
  -27.1870  -28.6770   20.7620 C   0  0  0  0  0  3  0  0  0  0  0  0
  -26.0180  -26.8980   19.6040 C   0  0  0  0  0  3  0  0  0  0  0  0
  -24.8410  -27.6720   19.5980 C   0  0  0  0  0  3  0  0  0  0  0  0
  -23.5850  -29.8100   20.2350 C   0  0  0  0  0  2  0  0  0  0  0  0
  -24.6470  -31.0950   22.1460 N   0  0  0  0  0  0  0  0  0  0  0  0
  -23.5100  -32.1810   23.7840 O   0  0  0  0  0  0  0  0  0  0  0  0
  -22.7260  -29.4840   22.5780 C   0  0  0  0  0  0  0  0  0  0  0  0
  -21.4000  -29.3010   22.4540 N   0  0  0  0  0  0  0  0  0  0  0  0
  -23.4100  -28.8630   23.3960 O   0  0  0  0  0  0  0  0  0  0  0  0
  -20.9060  -29.8550   21.7680 H   0  0  0  0  0  0  0  0  0  0  0  0
  -18.0290  -28.1000   22.9630 C   0  0  0  0  0  0  0  0  0  0  0  0
  -20.5860  -28.3650   23.2300 C   0  0  0  0  0  3  0  0  0  0  0  0
  -20.6900  -26.9300   22.6620 C   0  0  0  0  0  2  0  0  0  0  0  0
  -19.5880  -26.6010   21.6490 C   0  0  0  0  0  2  0  0  0  0  0  0
  -18.2070  -26.7480   22.2930 C   0  0  0  0  0  2  0  0  0  0  0  0
  -19.1460  -28.8660   23.3880 C   0  0  0  0  0  0  0  0  0  0  0  0
  -18.9260  -30.1330   23.9730 C   0  0  0  0  0  3  0  0  0  0  0  0
  -17.6210  -30.6330   24.1350 C   0  0  0  0  0  3  0  0  0  0  0  0
  -16.5180  -29.8630   23.7270 C   0  0  0  0  0  3  0  0  0  0  0  0
  -16.7230  -28.5980   23.1480 C   0  0  0  0  0  3  0  0  0  0  0  0
  -25.8760  -32.5390   23.8580 C   0  0  0  0  0  3  0  0  0  0  0  0
  -25.5680  -33.9400   24.1830 N   0  0  0  0  0  0  0  0  0  0  0  0
  -25.9030  -34.9900   23.4220 C   0  0  0  0  0  0  0  0  0  0  0  0
  -26.5740  -34.8820   22.3920 O   0  0  0  0  0  0  0  0  0  0  0  0
  -24.9690  -34.0960   24.9810 H   0  0  0  0  0  0  0  0  0  0  0  0
  -24.1780  -36.7830   23.0620 C   0  0  0  0  0  1  0  0  0  0  0  0
  -25.4180  -36.3790   23.8760 C   0  0  0  0  0  3  0  0  0  0  0  0
  -27.5540  -37.2590   24.7070 C   0  0  0  0  0  1  0  0  0  0  0  0
  -26.4510  -37.4320   23.7650 N   0  0  0  0  0  0  0  0  0  0  0  0
  -26.0460  -38.3510   23.9220 H   0  0  0  0  0  0  0  0  0  0  0  0
  -26.3990  -31.7750   25.1360 C   0  0  1  0  0  0  0  0  0  0  0  0
  -25.3100  -31.5400   26.2090 C   0  0  0  0  0  1  0  0  0  0  0  0
  -26.9840  -30.3980   24.7490 C   0  0  0  0  0  1  0  0  0  0  0  0
  -27.5520  -32.5740   25.7890 C   0  0  0  0  0  1  0  0  0  0  0  0
  2  5  1  0
  3  1  1  0
  4  2  1  0
  4  6  1  0
  5 10  1  0
  5  1  1  0
  6 50  1  0
  6  3  1  0
  7 10  2  0
  7  9  1  0
  9  8  2  0
 10 11  1  0
 11  8  1  0
 12 20  1  0
 13 18  1  0
 14 15  1  0
 14 13  1  0
 16 15  1  0
 16 25  1  0
 16 17  1  0
 18 12  1  0
 18 17  1  0
 19 12  2  0
 20  9  1  0
 20 21  1  0
 22 23  2  0
 23 42  1  0
 24 23  1  0
 24 27  1  0
 25 22  1  0
 25 26  1  0
 26 24  2  0
 27 28  1  0
 28 29  2  0
 30 33  1  0
 30 29  1  0
 31 30  2  0
 32 31  1  0
 32 27  2  0
 33 34  1  0
 34 35  1  0
 35 36  2  0
 37 36  1  0
 37 41  1  0
 38 37  2  0
 39 34  2  0
 39 38  1  0
 40 39  1  0
 42 43  1  0
 43 46  1  0
 43 45  1  0
 44 42  2  0
 47 48  1  0
 47 22  1  0
 49 47  1  0
 50 51  1  0
 52 63  2  0
 53 51  1  0
 53 58  1  0
 54 62  1  0
 54 64  1  0
 55 61  1  0
 55 57  1  0
 56 62  1  0
 57 56  1  0
 58 57  2  0
 59 53  2  0
 60 59  1  0
 60 55  2  0
 61 54  1  0
 62 52  1  0
 64 66  2  0
 65 64  1  0
 67 65  1  0
 68 77  2  0
 68 73  1  0
 69 65  1  0
 69 73  1  0
 70 69  1  0
 71 72  1  0
 71 70  1  0
 72 68  1  0
 73 74  2  0
 74 75  1  0
 76 75  2  0
 77 76  1  0
 78 52  1  0
 78 79  1  0
 78 88  1  0
 79 82  1  0
 80 84  1  0
 80 79  1  0
 81 80  2  0
 84 83  1  0
 86 84  1  0
 86 87  1  0
 86 85  1  0
 88 91  1  1
 88 89  1  0
 90 88  1  0
M  ISO  4  12 100  20 100  50 101  51 101
M  END
>  <TORSDO>  (88) 
F 18

>  <SCORE>  (88) 
-14.822

>  <name>  (88) 
87

>  <ligand_id>  (88) 
87

>  <original_smiles>  (88) 
[H]c1sc(C2([H])C([H])([H])C([H])([H])C([H])(C([H])([H])Oc3c([H])c([H])c4c(c3[H])C([H])([H])N(C(=O)C([H])(N([H])C(=O)C([H])(N([H])C([H])([H])[H])C([H])([H])[H])C(C([H])([H])[H])(C([H])([H])[H])C([H])([H])[H])C([H])(C(=O)N([H])C3([H])c5c([H])c([H])c([H])c([H])c5C([H])([H])C([H])([H])C3([H])[H])C4([H])[H])C([H])([H])C2([H])[H])c([H])c1N([H])C(=O)N1C([H])([H])C([H])([H])C([H])([H])C([H])(n2nc(-c3c([H])c([H])c(Oc4c([H])c([H])c(F)c([H])c4F)c([H])c3[H])c(C(=O)N([H])[H])c2N([H])[H])C1([H])[H]

>  <smiles>  (88) 
[H]c1sc(C2([H])C([H])([H])C([H])([H])C([H])(C([H])([H])Oc3c([H])c([H])c4c(c3[H])C([H])([H])N(C(=O)C([H])(N([H])C(=O)C([H])(N([H])C([H])([H])[H])C([H])([H])[H])C(C([H])([H])[H])(C([H])([H])[H])C([H])([H])[H])C([H])(C(=O)N([H])C3([H])c5c([H])c([H])c([H])c([H])c5C([H])([H])C([H])([H])C3([H])[H])C4([H])[H])C([H])([H])C2([H])[H])c([H])c1N([H])C(=O)N1C([H])([H])C([H])([H])C([H])([H])C([H])(n2nc(-c3c([H])c([H])c(Oc4c([H])c([H])c(F)c([H])c4F)c([H])c3[H])c(C(=O)N([H])[H])c2N([H])[H])C1([H])[H]

$$$$
88:0:0
     RDKit          3D

107115  0  0  1  0  0  0  0  0999 V2000
  -30.3320  -22.7750   19.7400 C   0  0  0  0  0  3  0  0  0  0  0  0
  -29.0620  -23.4890   21.8490 C   0  0  0  0  0  0  0  0  0  0  0  0
  -30.0060  -22.8080   21.1710 N   0  0  0  0  0  0  0  0  0  0  0  0
  -28.8900  -23.2530   23.0440 O   0  0  0  0  0  0  0  0  0  0  0  0
  -30.5200  -22.1490   21.7380 H   0  0  0  0  0  0  0  0  0  0  0  0
  -28.1940  -24.5710   21.1790 C   0  0  0  0  0  2  0  0  0  0  0  0
  -28.1630  -26.5810   22.8150 C   0  0  0  0  0  1  0  0  0  0  0  0
  -28.6990  -25.9970   21.4810 C   0  0  0  0  0  3  0  0  0  0  0  0
  -28.5070  -26.7960   20.3020 O   0  0  0  0  0  0  0  0  0  0  0  0
  -24.6130  -31.8810   23.2400 C   0  0  0  0  0  0  0  0  0  0  0  0
  -27.3300  -27.4880   20.2390 C   0  0  0  0  0  0  0  0  0  0  0  0
  -23.4330  -30.4550   21.5960 C   0  0  0  0  0  3  0  0  0  0  0  0
  -24.9110  -28.9200   20.1930 C   0  0  0  0  0  0  0  0  0  0  0  0
  -25.9420  -30.8610   21.4010 C   0  0  0  0  0  2  0  0  0  0  0  0
  -26.0480  -29.4870   20.7820 C   0  0  0  0  0  0  0  0  0  0  0  0
  -27.2630  -28.7820   20.7900 C   0  0  0  0  0  3  0  0  0  0  0  0
  -26.1890  -26.9250   19.6310 C   0  0  0  0  0  3  0  0  0  0  0  0
  -24.9770  -27.6430   19.6060 C   0  0  0  0  0  3  0  0  0  0  0  0
  -23.6510  -29.7510   20.2260 C   0  0  0  0  0  2  0  0  0  0  0  0
  -24.6820  -31.0760   22.1420 N   0  0  0  0  0  0  0  0  0  0  0  0
  -23.5250  -32.1500   23.7650 O   0  0  0  0  0  0  0  0  0  0  0  0
  -22.7800  -29.4440   22.5630 C   0  0  0  0  0  0  0  0  0  0  0  0
  -21.4550  -29.2730   22.4340 N   0  0  0  0  0  0  0  0  0  0  0  0
  -23.4610  -28.8150   23.3760 O   0  0  0  0  0  0  0  0  0  0  0  0
  -20.9750  -29.8290   21.7420 H   0  0  0  0  0  0  0  0  0  0  0  0
  -18.0640  -28.1320   22.9380 C   0  0  0  0  0  0  0  0  0  0  0  0
  -20.6260  -28.3410   23.1970 C   0  0  0  0  0  3  0  0  0  0  0  0
  -20.7040  -26.9150   22.6040 C   0  0  0  0  0  2  0  0  0  0  0  0
  -19.5870  -26.6190   21.5980 C   0  0  0  0  0  2  0  0  0  0  0  0
  -18.2110  -26.7840   22.2500 C   0  0  0  0  0  2  0  0  0  0  0  0
  -19.1990  -28.8700   23.3680 C   0  0  0  0  0  0  0  0  0  0  0  0
  -19.0060  -30.1320   23.9690 C   0  0  0  0  0  3  0  0  0  0  0  0
  -17.7110  -30.6550   24.1450 C   0  0  0  0  0  3  0  0  0  0  0  0
  -16.5900  -29.9120   23.7350 C   0  0  0  0  0  3  0  0  0  0  0  0
  -16.7690  -28.6530   23.1360 C   0  0  0  0  0  3  0  0  0  0  0  0
  -25.8880  -32.5230   23.8710 C   0  0  0  0  0  3  0  0  0  0  0  0
  -25.5680  -33.9210   24.1950 N   0  0  0  0  0  0  0  0  0  0  0  0
  -25.9080  -34.9710   23.4390 C   0  0  0  0  0  0  0  0  0  0  0  0
  -26.5940  -34.8670   22.4170 O   0  0  0  0  0  0  0  0  0  0  0  0
  -24.9660  -34.0760   24.9900 H   0  0  0  0  0  0  0  0  0  0  0  0
  -24.1830  -36.7550   23.0390 C   0  0  0  0  0  1  0  0  0  0  0  0
  -25.4070  -36.3570   23.8810 C   0  0  0  0  0  3  0  0  0  0  0  0
  -27.5170  -37.2470   24.7640 C   0  0  0  0  0  1  0  0  0  0  0  0
  -26.4380  -37.4140   23.7950 N   0  0  0  0  0  0  0  0  0  0  0  0
  -26.0260  -38.3340   23.9320 H   0  0  0  0  0  0  0  0  0  0  0  0
  -26.3970  -31.7570   25.1530 C   0  0  1  0  0  0  0  0  0  0  0  0
  -25.2960  -31.5140   26.2130 C   0  0  0  0  0  1  0  0  0  0  0  0
  -26.9920  -30.3850   24.7570 C   0  0  0  0  0  1  0  0  0  0  0  0
  -27.5430  -32.5570   25.8190 C   0  0  0  0  0  1  0  0  0  0  0  0
  -31.6940  -23.4720   19.4180 C   0  0  0  0  0  3  0  0  0  0  0  0
  -31.8510  -24.9290   19.9190 C   0  0  0  0  0  3  0  0  0  0  0  0
  -33.3610  -26.8970   20.4170 C   0  0  0  0  0  1  0  0  0  0  0  0
  -34.3870  -24.8000   19.5840 C   0  0  0  0  0  1  0  0  0  0  0  0
  -33.1350  -25.7040   19.4620 C   0  0  1  0  0  0  0  0  0  0  0  0
  -33.0220  -26.2470   18.0070 C   0  0  0  0  0  0  0  0  0  0  0  0
  -31.7940  -27.0580   17.6030 C   0  0  0  0  0  1  0  0  0  0  0  0
  -33.9270  -26.0870   17.1840 O   0  0  0  0  0  0  0  0  0  0  0  0
  -30.2550  -21.3010   19.2340 C   0  0  0  0  0  3  0  0  0  0  0  0
  -30.3170  -21.3400   17.8180 O   0  0  0  0  0  0  0  0  0  0  0  0
  -29.4750  -21.6540   17.5000 H   0  0  0  0  0  0  0  0  0  0  0  0
  -31.3240  -20.3520   19.8510 C   0  0  0  0  0  2  0  0  0  0  0  0
  -32.2580  -18.7620   18.1510 C   0  0  0  0  0  3  0  0  0  0  0  0
  -31.5850  -16.4580   18.1450 C   0  0  0  0  0  3  0  0  0  0  0  0
  -32.3600  -17.4910   17.5810 C   0  0  0  0  0  0  0  0  0  0  0  0
  -31.3950  -18.9630   19.2380 C   0  0  0  0  0  0  0  0  0  0  0  0
  -30.7870  -16.7040   19.2950 C   0  0  0  0  0  0  0  0  0  0  0  0
  -30.6670  -17.9620   19.7950 N   0  0  0  0  0  0  0  0  0  0  0  0
  -30.7830  -14.4640   20.2510 C   0  0  0  0  0  0  0  0  0  0  0  0
  -30.3530  -12.3000   19.2440 C   0  0  0  0  0  2  0  0  0  0  0  0
  -29.4310  -12.5320   18.0330 C   0  0  0  0  0  2  0  0  0  0  0  0
  -27.9570  -12.4400   18.4690 C   0  0  0  0  0  2  0  0  0  0  0  0
  -27.6260  -13.2980   19.7220 C   0  0  0  0  0  3  0  0  0  0  0  0
  -28.6980  -13.1410   20.8260 C   0  0  0  0  0  2  0  0  0  0  0  0
  -30.0230  -13.3400   20.2210 N   0  0  0  0  0  0  0  0  0  0  0  0
  -32.0080  -14.4360   20.1920 O   0  0  0  0  0  0  0  0  0  0  0  0
  -30.1410  -15.6050   19.9400 N   0  0  0  0  0  0  0  0  0  0  0  0
  -29.1390  -15.6190   20.0090 H   0  0  0  0  0  0  0  0  0  0  0  0
  -25.2400  -13.9100   20.4490 C   0  0  0  0  0  0  0  0  0  0  0  0
  -24.1690  -13.1440   20.8200 C   0  0  0  0  0  0  0  0  0  0  0  0
  -24.6240  -11.7890   20.7950 C   0  0  0  0  0  0  0  0  0  0  0  0
  -26.2810  -13.0240   20.2200 N   0  0  0  0  0  0  0  0  0  0  0  0
  -25.9140  -11.7440   20.4860 N   0  0  0  0  0  0  0  0  0  0  0  0
  -23.8900  -10.5320   20.9840 C   0  0  0  0  0  0  0  0  0  0  0  0
  -24.3130   -9.5690   21.9260 C   0  0  0  0  0  3  0  0  0  0  0  0
  -23.5830   -8.3760   22.1060 C   0  0  0  0  0  3  0  0  0  0  0  0
  -22.4150   -8.1360   21.3450 C   0  0  0  0  0  0  0  0  0  0  0  0
  -22.0100   -9.0890   20.3930 C   0  0  0  0  0  3  0  0  0  0  0  0
  -22.7410  -10.2760   20.2120 C   0  0  0  0  0  3  0  0  0  0  0  0
  -21.6570   -6.9950   21.4340 O   0  0  0  0  0  0  0  0  0  0  0  0
  -21.5940   -6.2580   22.5900 C   0  0  0  0  0  0  0  0  0  0  0  0
  -21.1490   -6.8190   23.8080 C   0  0  0  0  0  3  0  0  0  0  0  0
  -21.0380   -6.0100   24.9570 C   0  0  0  0  0  3  0  0  0  0  0  0
  -21.3570   -4.6400   24.8890 C   0  0  0  0  0  0  0  0  0  0  0  0
  -21.7900   -4.0790   23.6730 C   0  0  0  0  0  3  0  0  0  0  0  0
  -21.9060   -4.8860   22.5280 C   0  0  0  0  0  0  0  0  0  0  0  0
  -22.3050   -4.3330   21.3560 F   0  0  0  0  0  0  0  0  0  0  0  0
  -21.2410   -3.8590   25.9880 F   0  0  0  0  0  0  0  0  0  0  0  0
  -22.7740  -13.6300   21.0890 C   0  0  0  0  0  0  0  0  0  0  0  0
  -22.0370  -12.9370   21.9500 N   0  0  0  0  0  0  0  0  0  0  0  0
  -22.3460  -14.6590   20.5680 O   0  0  0  0  0  0  0  0  0  0  0  0
  -22.3930  -12.1080   22.3990 H   0  0  0  0  0  0  0  0  0  0  0  0
  -21.1010  -13.2470   22.1630 H   0  0  0  0  0  0  0  0  0  0  0  0
  -25.4110  -15.2800   20.2650 N   0  0  0  0  0  0  0  0  0  0  0  0
  -24.6470  -15.9400   20.3710 H   0  0  0  0  0  0  0  0  0  0  0  0
  -26.2660  -15.7180   19.9480 H   0  0  0  0  0  0  0  0  0  0  0  0
  -34.7900  -17.3800   16.8960 C   0  0  0  0  0  1  0  0  0  0  0  0
  -33.3310  -17.2490   16.4390 C   0  0  0  0  0  2  0  0  0  0  0  0
  1 50  1  0
  1  3  1  0
  2  4  2  0
  3  5  1  0
  3  2  1  0
  6  8  1  0
  6  2  1  0
  8  7  1  0
  9  8  1  0
 10 21  2  0
 11  9  1  0
 11 16  1  0
 12 20  1  0
 12 22  1  0
 13 19  1  0
 13 15  1  0
 14 20  1  0
 15 16  2  0
 15 14  1  0
 17 11  2  0
 18 17  1  0
 18 13  2  0
 19 12  1  0
 20 10  1  0
 22 24  2  0
 23 22  1  0
 25 23  1  0
 26 35  2  0
 26 31  1  0
 27 23  1  0
 27 31  1  0
 28 27  1  0
 29 30  1  0
 29 28  1  0
 30 26  1  0
 31 32  2  0
 32 33  1  0
 34 33  2  0
 35 34  1  0
 36 10  1  0
 36 37  1  0
 36 46  1  0
 37 40  1  0
 38 42  1  0
 38 37  1  0
 39 38  2  0
 42 41  1  0
 44 42  1  0
 44 45  1  0
 44 43  1  0
 46 49  1  1
 46 47  1  0
 48 46  1  0
 50 51  2  0
 54 53  1  6
 54 51  1  0
 54 52  1  0
 55 54  1  0
 56 55  1  0
 57 55  2  0
 58  1  1  0
 58 61  1  0
 59 58  1  0
 60 59  1  0
 62 65  1  0
 63 66  2  0
 64 63  1  0
 64 62  2  0
 65 67  2  0
 65 61  1  0
 66 67  1  0
 66 76  1  0
 69 74  1  0
 70 71  1  0
 70 69  1  0
 72 71  1  0
 72 81  1  0
 72 73  1  0
 74 68  1  0
 74 73  1  0
 75 68  2  0
 76 77  1  0
 76 68  1  0
 78 79  2  0
 79 98  1  0
 80 79  1  0
 80 83  1  0
 81 78  1  0
 81 82  1  0
 82 80  2  0
 83 84  1  0
 84 85  2  0
 86 89  1  0
 86 85  1  0
 87 86  2  0
 88 87  1  0
 88 83  2  0
 89 90  1  0
 90 91  1  0
 91 92  2  0
 93 92  1  0
 93 97  1  0
 94 93  2  0
 95 90  2  0
 95 94  1  0
 96 95  1  0
 98 99  1  0
 99102  1  0
 99101  1  0
100 98  2  0
103104  1  0
103 78  1  0
105103  1  0
107106  1  0
107 64  1  0
M  ISO  4   8 101   9 101  68 100  76 100
M  END
>  <TORSDO>  (89) 
F 28

>  <SCORE>  (89) 
-11.699

>  <name>  (89) 
88

>  <ligand_id>  (89) 
88

>  <original_smiles>  (89) 
[H]OC([H])(C([H])([H])c1nc(N([H])C(=O)N2C([H])([H])C([H])([H])C([H])([H])C([H])(n3nc(-c4c([H])c([H])c(Oc5c([H])c([H])c(F)c([H])c5F)c([H])c4[H])c(C(=O)N([H])[H])c3N([H])[H])C2([H])[H])c([H])c(C([H])([H])C([H])([H])[H])c1[H])C([H])(N([H])C(=O)C([H])([H])C([H])(Oc1c([H])c([H])c2c(c1[H])C([H])([H])N(C(=O)C([H])(N([H])C(=O)C([H])(N([H])C([H])([H])[H])C([H])([H])[H])C(C([H])([H])[H])(C([H])([H])[H])C([H])([H])[H])C([H])(C(=O)N([H])C1([H])c3c([H])c([H])c([H])c([H])c3C([H])([H])C([H])([H])C1([H])[H])C2([H])[H])C([H])([H])[H])C([H])([H])C([H])([H])C(C(=O)C([H])([H])[H])(C([H])([H])[H])C([H])([H])[H]

>  <smiles>  (89) 
[H]OC([H])(C([H])([H])c1nc(N([H])C(=O)N2C([H])([H])C([H])([H])C([H])([H])C([H])(n3nc(-c4c([H])c([H])c(Oc5c([H])c([H])c(F)c([H])c5F)c([H])c4[H])c(C(=O)N([H])[H])c3N([H])[H])C2([H])[H])c([H])c(C([H])([H])C([H])([H])[H])c1[H])C([H])(N([H])C(=O)C([H])([H])C([H])(Oc1c([H])c([H])c2c(c1[H])C([H])([H])N(C(=O)C([H])(N([H])C(=O)C([H])(N([H])C([H])([H])[H])C([H])([H])[H])C(C([H])([H])[H])(C([H])([H])[H])C([H])([H])[H])C([H])(C(=O)N([H])C1([H])c3c([H])c([H])c([H])c([H])c3C([H])([H])C([H])([H])C1([H])[H])C2([H])[H])C([H])([H])[H])C([H])([H])C([H])([H])C(C(=O)C([H])([H])[H])(C([H])([H])[H])C([H])([H])[H]

$$$$
89:0:0
     RDKit          3D

 99107  0  0  1  0  0  0  0  0999 V2000
  -27.9390  -22.8470   21.0670 C   0  0  0  0  0  2  0  0  0  0  0  0
  -25.8250  -24.1100   21.8160 C   0  0  0  0  0  1  0  0  0  0  0  0
  -25.7370  -22.6480   19.8060 C   0  0  0  0  0  1  0  0  0  0  0  0
  -26.6630  -23.6080   20.6090 C   0  0  2  0  0  0  0  0  0  0  0  0
  -27.1110  -24.7340   19.6180 C   0  0  0  0  0  0  0  0  0  0  0  0
  -26.7470  -24.6570   18.4370 O   0  0  0  0  0  0  0  0  0  0  0  0
  -28.0950  -26.4140   21.4480 C   0  0  0  0  0  1  0  0  0  0  0  0
  -29.4770  -25.5120   19.5970 C   0  0  0  0  0  1  0  0  0  0  0  0
  -28.0450  -25.9340   19.9850 C   0  0  1  0  0  0  0  0  0  0  0  0
  -27.7760  -27.0700   19.1320 O   0  0  0  0  0  0  0  0  0  0  0  0
  -24.3800  -31.8930   23.1460 C   0  0  0  0  0  0  0  0  0  0  0  0
  -26.6220  -27.7910   19.3590 C   0  0  0  0  0  0  0  0  0  0  0  0
  -22.9830  -30.6360   21.5440 C   0  0  0  0  0  3  0  0  0  0  0  0
  -24.2510  -29.2530   19.8190 C   0  0  0  0  0  0  0  0  0  0  0  0
  -25.4720  -31.0310   21.0800 C   0  0  0  0  0  2  0  0  0  0  0  0
  -25.4730  -29.7270   20.3110 C   0  0  0  0  0  0  0  0  0  0  0  0
  -26.6630  -29.0000   20.0890 C   0  0  0  0  0  3  0  0  0  0  0  0
  -25.3870  -27.3590   18.8280 C   0  0  0  0  0  3  0  0  0  0  0  0
  -24.2000  -28.0610   19.0840 C   0  0  0  0  0  3  0  0  0  0  0  0
  -23.0210  -30.0880   20.0950 C   0  0  0  0  0  2  0  0  0  0  0  0
  -24.3040  -31.1960   21.9780 N   0  0  0  0  0  0  0  0  0  0  0  0
  -23.3720  -32.1070   23.8310 O   0  0  0  0  0  0  0  0  0  0  0  0
  -22.4510  -29.5230   22.4760 C   0  0  0  0  0  0  0  0  0  0  0  0
  -21.1480  -29.2150   22.3520 N   0  0  0  0  0  0  0  0  0  0  0  0
  -23.2050  -28.9420   23.2590 O   0  0  0  0  0  0  0  0  0  0  0  0
  -20.5990  -29.7400   21.6850 H   0  0  0  0  0  0  0  0  0  0  0  0
  -17.9460  -27.5950   22.7400 C   0  0  0  0  0  0  0  0  0  0  0  0
  -20.4360  -28.1810   23.1000 C   0  0  0  0  0  3  0  0  0  0  0  0
  -20.7470  -26.7750   22.5390 C   0  0  0  0  0  2  0  0  0  0  0  0
  -19.7350  -26.3110   21.4870 C   0  0  0  0  0  2  0  0  0  0  0  0
  -18.3220  -26.2760   22.0820 C   0  0  0  0  0  2  0  0  0  0  0  0
  -18.9410  -28.4950   23.2020 C   0  0  0  0  0  0  0  0  0  0  0  0
  -18.5420  -29.7220   23.7760 C   0  0  0  0  0  3  0  0  0  0  0  0
  -17.1790  -30.0520   23.8900 C   0  0  0  0  0  3  0  0  0  0  0  0
  -16.1980  -29.1510   23.4460 C   0  0  0  0  0  3  0  0  0  0  0  0
  -16.5810  -27.9240   22.8750 C   0  0  0  0  0  3  0  0  0  0  0  0
  -25.7310  -32.4740   23.6590 C   0  0  0  0  0  3  0  0  0  0  0  0
  -25.4930  -33.8750   24.0270 N   0  0  0  0  0  0  0  0  0  0  0  0
  -25.8780  -34.9300   23.2960 C   0  0  0  0  0  0  0  0  0  0  0  0
  -26.5420  -34.8210   22.2600 O   0  0  0  0  0  0  0  0  0  0  0  0
  -24.8940  -34.0420   24.8220 H   0  0  0  0  0  0  0  0  0  0  0  0
  -24.2640  -36.8330   22.9650 C   0  0  0  0  0  1  0  0  0  0  0  0
  -25.4570  -36.3280   23.7910 C   0  0  0  0  0  3  0  0  0  0  0  0
  -27.6260  -37.0450   24.6900 C   0  0  0  0  0  1  0  0  0  0  0  0
  -26.5490  -37.3240   23.7430 N   0  0  0  0  0  0  0  0  0  0  0  0
  -26.1940  -38.2580   23.9310 H   0  0  0  0  0  0  0  0  0  0  0  0
  -26.3330  -31.6680   24.8730 C   0  0  1  0  0  0  0  0  0  0  0  0
  -25.3260  -31.4280   26.0210 C   0  0  0  0  0  1  0  0  0  0  0  0
  -26.8540  -30.2890   24.4070 C   0  0  0  0  0  1  0  0  0  0  0  0
  -27.5510  -32.4260   25.4510 C   0  0  0  0  0  1  0  0  0  0  0  0
  -27.8830  -21.3140   21.0030 C   0  0  0  0  0  0  0  0  0  0  0  0
  -27.1420  -20.6700   21.7500 O   0  0  0  0  0  0  0  0  0  0  0  0
  -28.0330  -19.4220   19.3480 C   0  0  0  0  0  1  0  0  0  0  0  0
  -28.7860  -20.6120   19.9790 C   0  0  0  0  0  3  0  0  0  0  0  0
  -30.1460  -20.1920   20.6020 C   0  0  0  0  0  2  0  0  0  0  0  0
  -31.4610  -20.2090   18.3270 C   0  0  0  0  0  3  0  0  0  0  0  0
  -32.5150  -21.0020   20.2370 C   0  0  0  0  0  3  0  0  0  0  0  0
  -31.3550  -20.4640   19.7350 C   0  0  0  0  0  0  0  0  0  0  0  0
  -32.6620  -20.5890   17.7890 C   0  0  0  0  0  0  0  0  0  0  0  0
  -33.7180  -21.2520   19.0030 S   0  0  0  0  0  0  0  0  0  0  0  0
  -33.1160  -20.4310   16.3770 C   0  0  0  0  0  2  0  0  0  0  0  0
  -34.4610  -18.7140   15.1710 C   0  0  0  0  0  0  0  0  0  0  0  0
  -35.7240  -16.8010   14.2610 C   0  0  0  0  0  2  0  0  0  0  0  0
  -34.7920  -15.6090   13.9820 C   0  0  0  0  0  2  0  0  0  0  0  0
  -34.5810  -14.7510   15.2490 C   0  0  0  0  0  2  0  0  0  0  0  0
  -34.2020  -15.6030   16.4870 C   0  0  0  0  0  3  0  0  0  0  0  0
  -35.1770  -16.7890   16.6350 C   0  0  0  0  0  2  0  0  0  0  0  0
  -35.1560  -17.5680   15.3780 N   0  0  0  0  0  0  0  0  0  0  0  0
  -34.3390  -19.2590   14.0700 O   0  0  0  0  0  0  0  0  0  0  0  0
  -33.9000  -19.2160   16.2690 N   0  0  0  0  0  0  0  0  0  0  0  0
  -34.0310  -18.6940   17.1210 H   0  0  0  0  0  0  0  0  0  0  0  0
  -33.1020  -14.5560   18.5670 C   0  0  0  0  0  0  0  0  0  0  0  0
  -33.5760  -13.6710   19.5040 C   0  0  0  0  0  0  0  0  0  0  0  0
  -34.9300  -13.3980   19.1450 C   0  0  0  0  0  0  0  0  0  0  0  0
  -34.1620  -14.7920   17.7020 N   0  0  0  0  0  0  0  0  0  0  0  0
  -35.2810  -14.1180   18.0890 N   0  0  0  0  0  0  0  0  0  0  0  0
  -35.8960  -12.4430   19.7100 C   0  0  0  0  0  0  0  0  0  0  0  0
  -37.2330  -12.8120   19.9690 C   0  0  0  0  0  3  0  0  0  0  0  0
  -38.1370  -11.8840   20.5300 C   0  0  0  0  0  3  0  0  0  0  0  0
  -37.7060  -10.5720   20.8370 C   0  0  0  0  0  0  0  0  0  0  0  0
  -36.3780  -10.2070   20.5540 C   0  0  0  0  0  3  0  0  0  0  0  0
  -35.4820  -11.1260   19.9910 C   0  0  0  0  0  3  0  0  0  0  0  0
  -38.5190   -9.5960   21.3620 O   0  0  0  0  0  0  0  0  0  0  0  0
  -39.6810   -9.9070   22.0230 C   0  0  0  0  0  0  0  0  0  0  0  0
  -39.7100  -10.8430   23.0800 C   0  0  0  0  0  3  0  0  0  0  0  0
  -40.9060  -11.0780   23.7850 C   0  0  0  0  0  3  0  0  0  0  0  0
  -42.0770  -10.3760   23.4400 C   0  0  0  0  0  0  0  0  0  0  0  0
  -42.0510   -9.4420   22.3890 C   0  0  0  0  0  3  0  0  0  0  0  0
  -40.8570   -9.2060   21.6870 C   0  0  0  0  0  0  0  0  0  0  0  0
  -40.8330   -8.2890   20.6910 F   0  0  0  0  0  0  0  0  0  0  0  0
  -43.2320  -10.5950   24.1150 F   0  0  0  0  0  0  0  0  0  0  0  0
  -32.7900  -13.0430   20.6160 C   0  0  0  0  0  0  0  0  0  0  0  0
  -33.4490  -12.7370   21.7290 N   0  0  0  0  0  0  0  0  0  0  0  0
  -31.5770  -12.8680   20.5250 O   0  0  0  0  0  0  0  0  0  0  0  0
  -34.4460  -12.8990   21.8020 H   0  0  0  0  0  0  0  0  0  0  0  0
  -32.9500  -12.3600   22.5210 H   0  0  0  0  0  0  0  0  0  0  0  0
  -31.8660  -15.1620   18.3700 N   0  0  0  0  0  0  0  0  0  0  0  0
  -31.0740  -14.9710   18.9750 H   0  0  0  0  0  0  0  0  0  0  0  0
  -31.6480  -15.8060   17.6180 H   0  0  0  0  0  0  0  0  0  0  0  0
  4  3  1  6
  4  1  1  0
  4  2  1  0
  5  9  1  0
  5  4  1  0
  6  5  2  0
  9  8  1  6
  9  7  1  0
 10 12  1  0
 10  9  1  0
 11 22  2  0
 12 17  1  0
 13 21  1  0
 13 23  1  0
 14 20  1  0
 14 16  1  0
 15 21  1  0
 16 15  1  0
 17 16  2  0
 18 19  1  0
 18 12  2  0
 19 14  2  0
 20 13  1  0
 21 11  1  0
 23 25  2  0
 24 23  1  0
 26 24  1  0
 27 36  2  0
 27 32  1  0
 28 24  1  0
 28 32  1  0
 29 28  1  0
 30 31  1  0
 30 29  1  0
 31 27  1  0
 32 33  2  0
 33 34  1  0
 35 34  2  0
 36 35  1  0
 37 11  1  0
 37 38  1  0
 37 47  1  0
 38 41  1  0
 39 43  1  0
 39 38  1  0
 40 39  2  0
 43 42  1  0
 45 43  1  0
 45 46  1  0
 45 44  1  0
 47 50  1  1
 47 48  1  0
 49 47  1  0
 51  1  1  0
 51 52  2  0
 54 53  1  0
 54 55  1  0
 54 51  1  0
 56 58  1  0
 58 57  2  0
 58 55  1  0
 59 56  2  0
 59 60  1  0
 60 57  1  0
 61 59  1  0
 62 68  1  0
 62 70  1  0
 63 68  1  0
 64 63  1  0
 64 65  1  0
 66 65  1  0
 66 67  1  0
 66 75  1  0
 68 67  1  0
 69 62  2  0
 70 61  1  0
 70 71  1  0
 72 73  2  0
 73 92  1  0
 74 73  1  0
 74 77  1  0
 75 76  1  0
 75 72  1  0
 76 74  2  0
 77 78  2  0
 77 82  1  0
 78 79  1  0
 79 80  2  0
 80 83  1  0
 81 80  1  0
 82 81  2  0
 83 84  1  0
 84 85  1  0
 85 86  2  0
 87 86  1  0
 87 91  1  0
 88 87  2  0
 89 84  2  0
 89 88  1  0
 90 89  1  0
 92 93  1  0
 93 95  1  0
 93 96  1  0
 94 92  2  0
 97 72  1  0
 97 98  1  0
 99 97  1  0
M  ISO  4   9 101  10 101  62 100  70 100
M  END
>  <TORSDO>  (90) 
F 24

>  <SCORE>  (90) 
-5.678

>  <name>  (90) 
89

>  <ligand_id>  (90) 
89

>  <original_smiles>  (90) 
[H]c1sc(C([H])([H])N([H])C(=O)N2C([H])([H])C([H])([H])C([H])([H])C([H])(n3nc(-c4c([H])c([H])c(Oc5c([H])c([H])c(F)c([H])c5F)c([H])c4[H])c(C(=O)N([H])[H])c3N([H])[H])C2([H])[H])c([H])c1C([H])([H])C([H])(C(=O)C([H])([H])C(C(=O)C(Oc1c([H])c([H])c2c(c1[H])C([H])([H])N(C(=O)C([H])(N([H])C(=O)C([H])(N([H])C([H])([H])[H])C([H])([H])[H])C(C([H])([H])[H])(C([H])([H])[H])C([H])([H])[H])C([H])(C(=O)N([H])C1([H])c3c([H])c([H])c([H])c([H])c3C([H])([H])C([H])([H])C1([H])[H])C2([H])[H])(C([H])([H])[H])C([H])([H])[H])(C([H])([H])[H])C([H])([H])[H])C([H])([H])[H]

>  <smiles>  (90) 
[H]c1sc(C([H])([H])N([H])C(=O)N2C([H])([H])C([H])([H])C([H])([H])C([H])(n3nc(-c4c([H])c([H])c(Oc5c([H])c([H])c(F)c([H])c5F)c([H])c4[H])c(C(=O)N([H])[H])c3N([H])[H])C2([H])[H])c([H])c1C([H])([H])C([H])(C(=O)C([H])([H])C(C(=O)C(Oc1c([H])c([H])c2c(c1[H])C([H])([H])N(C(=O)C([H])(N([H])C(=O)C([H])(N([H])C([H])([H])[H])C([H])([H])[H])C(C([H])([H])[H])(C([H])([H])[H])C([H])([H])[H])C([H])(C(=O)N([H])C1([H])c3c([H])c([H])c([H])c([H])c3C([H])([H])C([H])([H])C1([H])[H])C2([H])[H])(C([H])([H])[H])C([H])([H])[H])(C([H])([H])[H])C([H])([H])[H])C([H])([H])[H]

$$$$
90:0:0
     RDKit          3D

 96104  0  0  1  0  0  0  0  0999 V2000
  -31.0610  -22.4060   22.9840 C   0  0  0  0  0  1  0  0  0  0  0  0
  -30.4910  -22.3520   21.5410 C   0  0  0  0  0  3  0  0  0  0  0  0
  -31.6470  -21.7470   20.6920 C   0  0  0  0  0  2  0  0  0  0  0  0
  -31.3880  -21.4730   19.2270 C   0  0  0  0  0  3  0  0  0  0  0  0
  -30.9450  -20.4400   18.6260 N   0  0  0  0  0  0  0  0  0  0  0  0
  -29.3300  -18.6850   18.6280 C   0  0  0  0  0  3  0  0  0  0  0  0
  -29.0620  -17.3640   19.0800 C   0  0  0  0  0  0  0  0  0  0  0  0
  -30.4560  -19.2550   19.1320 C   0  0  0  0  0  0  0  0  0  0  0  0
  -29.9610  -16.8980   20.0210 C   0  0  0  0  0  0  0  0  0  0  0  0
  -27.8990  -16.6250   18.4990 C   0  0  0  0  0  1  0  0  0  0  0  0
  -31.2080  -18.1340   20.2730 S   0  0  0  0  0  0  0  0  0  0  0  0
  -30.7480  -14.6780   20.7290 C   0  0  0  0  0  0  0  0  0  0  0  0
  -30.6380  -12.4070   19.8040 C   0  0  0  0  0  2  0  0  0  0  0  0
  -29.7660  -12.4900   18.5310 C   0  0  0  0  0  2  0  0  0  0  0  0
  -28.2700  -12.3370   18.8710 C   0  0  0  0  0  2  0  0  0  0  0  0
  -27.8250  -13.2320   20.0590 C   0  0  0  0  0  3  0  0  0  0  0  0
  -28.8180  -13.1350   21.2380 C   0  0  0  0  0  2  0  0  0  0  0  0
  -30.1600  -13.4500   20.7210 N   0  0  0  0  0  0  0  0  0  0  0  0
  -31.9580  -14.8390   20.5320 O   0  0  0  0  0  0  0  0  0  0  0  0
  -29.8700  -15.7090   20.7040 N   0  0  0  0  0  0  0  0  0  0  0  0
  -28.9250  -15.3960   20.8600 H   0  0  0  0  0  0  0  0  0  0  0  0
  -25.3800  -13.8440   20.5980 C   0  0  0  0  0  0  0  0  0  0  0  0
  -24.2930  -13.0730   20.9000 C   0  0  0  0  0  0  0  0  0  0  0  0
  -24.7710  -11.7280   20.9390 C   0  0  0  0  0  0  0  0  0  0  0  0
  -26.4470  -12.9670   20.4600 N   0  0  0  0  0  0  0  0  0  0  0  0
  -26.0800  -11.6910   20.7300 N   0  0  0  0  0  0  0  0  0  0  0  0
  -24.0460  -10.4670   21.1130 C   0  0  0  0  0  0  0  0  0  0  0  0
  -24.4160   -9.5430   22.1130 C   0  0  0  0  0  3  0  0  0  0  0  0
  -23.6960   -8.3410   22.2760 C   0  0  0  0  0  3  0  0  0  0  0  0
  -22.5910   -8.0570   21.4380 C   0  0  0  0  0  0  0  0  0  0  0  0
  -22.2430   -8.9730   20.4290 C   0  0  0  0  0  3  0  0  0  0  0  0
  -22.9640  -10.1660   20.2650 C   0  0  0  0  0  3  0  0  0  0  0  0
  -21.8460   -6.9060   21.5100 O   0  0  0  0  0  0  0  0  0  0  0  0
  -21.7120   -6.2090   22.6830 C   0  0  0  0  0  0  0  0  0  0  0  0
  -21.1610   -6.7960   23.8430 C   0  0  0  0  0  3  0  0  0  0  0  0
  -20.9730   -6.0180   25.0040 C   0  0  0  0  0  3  0  0  0  0  0  0
  -21.3290   -4.6560   25.0040 C   0  0  0  0  0  0  0  0  0  0  0  0
  -21.8720   -4.0690   23.8480 C   0  0  0  0  0  3  0  0  0  0  0  0
  -22.0600   -4.8430   22.6890 C   0  0  0  0  0  0  0  0  0  0  0  0
  -22.5630   -4.2670   21.5710 F   0  0  0  0  0  0  0  0  0  0  0  0
  -21.1410   -3.9070   26.1160 F   0  0  0  0  0  0  0  0  0  0  0  0
  -22.8760  -13.5420   21.0550 C   0  0  0  0  0  0  0  0  0  0  0  0
  -22.0950  -12.8620   21.8860 N   0  0  0  0  0  0  0  0  0  0  0  0
  -22.4660  -14.5470   20.4720 O   0  0  0  0  0  0  0  0  0  0  0  0
  -22.4380  -12.0480   22.3750 H   0  0  0  0  0  0  0  0  0  0  0  0
  -21.1400  -13.1520   22.0330 H   0  0  0  0  0  0  0  0  0  0  0  0
  -25.5380  -15.2120   20.4220 N   0  0  0  0  0  0  0  0  0  0  0  0
  -24.7620  -15.8580   20.5050 H   0  0  0  0  0  0  0  0  0  0  0  0
  -26.4190  -15.6690   20.2430 H   0  0  0  0  0  0  0  0  0  0  0  0
  -29.8500  -23.7040   21.0060 C   0  0  0  0  0  2  0  0  0  0  0  0
  -27.8590  -23.3270   22.5620 C   0  0  0  0  0  1  0  0  0  0  0  0
  -29.4180  -25.3220   22.9370 C   0  0  0  0  0  1  0  0  0  0  0  0
  -28.7340  -24.4250   21.8700 C   0  0  1  0  0  0  0  0  0  0  0  0
  -26.5020  -25.7390   21.9930 C   0  0  0  0  0  1  0  0  0  0  0  0
  -27.7220  -25.3590   21.0530 C   0  0  0  0  0  3  0  0  0  0  0  0
  -28.2690  -26.5450   20.3570 O   0  0  0  0  0  0  0  0  0  0  0  0
  -24.6060  -31.8060   23.2240 C   0  0  0  0  0  0  0  0  0  0  0  0
  -27.2760  -27.4600   20.0380 C   0  0  0  0  0  0  0  0  0  0  0  0
  -23.4270  -30.4710   21.5070 C   0  0  0  0  0  3  0  0  0  0  0  0
  -24.9090  -29.0090   20.0150 C   0  0  0  0  0  0  0  0  0  0  0  0
  -25.9580  -30.8330   21.3690 C   0  0  0  0  0  2  0  0  0  0  0  0
  -26.0540  -29.4950   20.6600 C   0  0  0  0  0  0  0  0  0  0  0  0
  -27.2440  -28.7260   20.6700 C   0  0  0  0  0  3  0  0  0  0  0  0
  -26.1460  -27.0390   19.2960 C   0  0  0  0  0  3  0  0  0  0  0  0
  -24.9560  -27.7920   19.3110 C   0  0  0  0  0  3  0  0  0  0  0  0
  -23.6560  -29.8530   20.1020 C   0  0  0  0  0  2  0  0  0  0  0  0
  -24.6820  -31.0450   22.0960 N   0  0  0  0  0  0  0  0  0  0  0  0
  -23.5150  -32.0680   23.7490 O   0  0  0  0  0  0  0  0  0  0  0  0
  -22.7460  -29.4220   22.4160 C   0  0  0  0  0  0  0  0  0  0  0  0
  -21.4170  -29.2840   22.2820 N   0  0  0  0  0  0  0  0  0  0  0  0
  -23.4130  -28.7400   23.1980 O   0  0  0  0  0  0  0  0  0  0  0  0
  -20.9420  -29.8880   21.6260 H   0  0  0  0  0  0  0  0  0  0  0  0
  -18.0070  -28.1810   22.7550 C   0  0  0  0  0  0  0  0  0  0  0  0
  -20.5750  -28.3270   23.0030 C   0  0  0  0  0  3  0  0  0  0  0  0
  -20.6160  -26.9350   22.3330 C   0  0  0  0  0  2  0  0  0  0  0  0
  -19.4900  -26.7180   21.3180 C   0  0  0  0  0  2  0  0  0  0  0  0
  -18.1220  -26.8720   21.9920 C   0  0  0  0  0  2  0  0  0  0  0  0
  -19.1590  -28.8710   23.2160 C   0  0  0  0  0  0  0  0  0  0  0  0
  -18.9950  -30.1000   23.8910 C   0  0  0  0  0  3  0  0  0  0  0  0
  -17.7120  -30.6360   24.1080 C   0  0  0  0  0  3  0  0  0  0  0  0
  -16.5740  -29.9420   23.6610 C   0  0  0  0  0  3  0  0  0  0  0  0
  -16.7230  -28.7150   22.9910 C   0  0  0  0  0  3  0  0  0  0  0  0
  -25.8830  -32.4010   23.8950 C   0  0  0  0  0  3  0  0  0  0  0  0
  -25.5890  -33.7970   24.2460 N   0  0  0  0  0  0  0  0  0  0  0  0
  -25.9630  -34.8580   23.5180 C   0  0  0  0  0  0  0  0  0  0  0  0
  -26.6600  -34.7630   22.5030 O   0  0  0  0  0  0  0  0  0  0  0  0
  -24.9720  -33.9520   25.0290 H   0  0  0  0  0  0  0  0  0  0  0  0
  -24.2800  -36.6910   23.1450 C   0  0  0  0  0  1  0  0  0  0  0  0
  -25.4850  -36.2460   23.9890 C   0  0  0  0  0  3  0  0  0  0  0  0
  -27.6050  -37.0750   24.9110 C   0  0  0  0  0  1  0  0  0  0  0  0
  -26.5400  -37.2800   23.9340 N   0  0  0  0  0  0  0  0  0  0  0  0
  -26.1450  -38.2040   24.0830 H   0  0  0  0  0  0  0  0  0  0  0  0
  -26.3560  -31.5910   25.1640 C   0  0  1  0  0  0  0  0  0  0  0  0
  -25.2340  -31.3510   26.2010 C   0  0  0  0  0  1  0  0  0  0  0  0
  -26.9200  -30.2110   24.7500 C   0  0  0  0  0  1  0  0  0  0  0  0
  -27.5050  -32.3480   25.8740 C   0  0  0  0  0  1  0  0  0  0  0  0
  2  1  1  0
  3  2  1  0
  4  3  1  0
  5  8  1  0
  5  4  2  0
  6  7  1  0
  6  8  2  0
  7  9  2  0
  8 11  1  0
  9 11  1  0
  9 20  1  0
 10  7  1  0
 13 18  1  0
 14 15  1  0
 14 13  1  0
 16 15  1  0
 16 25  1  0
 16 17  1  0
 18 12  1  0
 18 17  1  0
 19 12  2  0
 20 12  1  0
 20 21  1  0
 22 23  2  0
 23 24  1  0
 23 42  1  0
 24 27  1  0
 25 22  1  0
 25 26  1  0
 26 24  2  0
 27 28  1  0
 28 29  2  0
 30 33  1  0
 30 29  1  0
 31 30  2  0
 32 31  1  0
 32 27  2  0
 33 34  1  0
 34 39  2  0
 34 35  1  0
 35 36  2  0
 36 37  1  0
 37 41  1  0
 38 37  2  0
 39 38  1  0
 40 39  1  0
 42 43  1  0
 43 46  1  0
 43 45  1  0
 44 42  2  0
 47 48  1  0
 47 22  1  0
 49 47  1  0
 50  2  1  0
 50 53  1  0
 53 51  1  1
 53 52  1  0
 55 53  1  0
 55 54  1  0
 56 55  1  0
 57 68  2  0
 58 56  1  0
 58 63  1  0
 59 67  1  0
 59 69  1  0
 60 66  1  0
 60 62  1  0
 61 67  1  0
 62 63  2  0
 62 61  1  0
 64 65  1  0
 64 58  2  0
 65 60  2  0
 66 59  1  0
 67 57  1  0
 69 71  2  0
 70 69  1  0
 72 70  1  0
 73 82  2  0
 73 78  1  0
 74 70  1  0
 74 78  1  0
 75 74  1  0
 76 77  1  0
 76 75  1  0
 77 73  1  0
 78 79  2  0
 79 80  1  0
 81 80  2  0
 82 81  1  0
 83 57  1  0
 83 84  1  0
 83 93  1  0
 84 87  1  0
 85 89  1  0
 85 84  1  0
 86 85  2  0
 89 88  1  0
 91 89  1  0
 91 92  1  0
 91 90  1  0
 93 96  1  1
 93 94  1  0
 95 93  1  0
M  ISO  4  12 100  20 100  55 101  56 101
M  END
>  <TORSDO>  (91) 
F 22

>  <SCORE>  (91) 
-12.254

>  <name>  (91) 
90

>  <ligand_id>  (91) 
90

>  <original_smiles>  (91) 
[H]C(=Nc1sc(N([H])C(=O)N2C([H])([H])C([H])([H])C([H])([H])C([H])(n3nc(-c4c([H])c([H])c(Oc5c([H])c([H])c(F)c([H])c5F)c([H])c4[H])c(C(=O)N([H])[H])c3N([H])[H])C2([H])[H])c(C([H])([H])[H])c1[H])C([H])([H])C([H])(C([H])([H])[H])C([H])([H])C(C([H])([H])[H])(C([H])([H])[H])C([H])(Oc1c([H])c([H])c2c(c1[H])C([H])([H])N(C(=O)C([H])(N([H])C(=O)C([H])(N([H])C([H])([H])[H])C([H])([H])[H])C(C([H])([H])[H])(C([H])([H])[H])C([H])([H])[H])C([H])(C(=O)N([H])C1([H])c3c([H])c([H])c([H])c([H])c3C([H])([H])C([H])([H])C1([H])[H])C2([H])[H])C([H])([H])[H]

>  <smiles>  (91) 
[H]C(=Nc1sc(N([H])C(=O)N2C([H])([H])C([H])([H])C([H])([H])C([H])(n3nc(-c4c([H])c([H])c(Oc5c([H])c([H])c(F)c([H])c5F)c([H])c4[H])c(C(=O)N([H])[H])c3N([H])[H])C2([H])[H])c(C([H])([H])[H])c1[H])C([H])([H])C([H])(C([H])([H])[H])C([H])([H])C(C([H])([H])[H])(C([H])([H])[H])C([H])(Oc1c([H])c([H])c2c(c1[H])C([H])([H])N(C(=O)C([H])(N([H])C(=O)C([H])(N([H])C([H])([H])[H])C([H])([H])[H])C(C([H])([H])[H])(C([H])([H])[H])C([H])([H])[H])C([H])(C(=O)N([H])C1([H])c3c([H])c([H])c([H])c([H])c3C([H])([H])C([H])([H])C1([H])[H])C2([H])[H])C([H])([H])[H]

$$$$
92:0:0
     RDKit          3D

 97106  0  0  1  0  0  0  0  0999 V2000
  -29.7430  -21.1100   19.5090 C   0  0  0  0  0  3  0  0  0  0  0  0
  -30.0580  -23.2850   22.5030 C   0  0  0  0  0  2  0  0  0  0  0  0
  -30.5380  -24.1690   21.3530 C   0  0  0  0  0  2  0  0  0  0  0  0
  -29.9030  -21.8960   21.8780 C   0  0  0  0  0  2  0  0  0  0  0  0
  -29.8520  -23.5760   20.1160 C   0  0  0  0  0  3  0  0  0  0  0  0
  -29.7480  -22.1220   20.4250 N   0  0  0  0  0  0  0  0  0  0  0  0
  -29.6470  -21.4450   18.2220 N   0  0  0  0  0  0  0  0  0  0  0  0
  -29.7390  -20.7220   17.5260 H   0  0  0  0  0  0  0  0  0  0  0  0
  -29.5130  -22.3910   17.9140 H   0  0  0  0  0  0  0  0  0  0  0  0
  -28.9810  -19.0580   20.7840 C   0  0  0  0  0  3  0  0  0  0  0  0
  -29.0720  -17.6730   21.0650 C   0  0  0  0  0  3  0  0  0  0  0  0
  -30.8940  -17.4680   19.4810 C   0  0  0  0  0  3  0  0  0  0  0  0
  -29.8520  -19.6690   19.8520 C   0  0  0  0  0  0  0  0  0  0  0  0
  -30.0240  -16.8540   20.4160 C   0  0  0  0  0  0  0  0  0  0  0  0
  -30.8110  -18.8510   19.2040 C   0  0  0  0  0  0  0  0  0  0  0  0
  -31.6570  -19.3770   18.2830 F   0  0  0  0  0  0  0  0  0  0  0  0
  -30.6940  -14.4510   20.1080 C   0  0  0  0  0  0  0  0  0  0  0  0
  -30.3200  -12.3290   18.9180 C   0  0  0  0  0  2  0  0  0  0  0  0
  -29.3100  -12.5940   17.7810 C   0  0  0  0  0  2  0  0  0  0  0  0
  -27.8630  -12.4560   18.2920 C   0  0  0  0  0  2  0  0  0  0  0  0
  -27.6110  -13.2480   19.6030 C   0  0  0  0  0  3  0  0  0  0  0  0
  -28.7250  -12.9650   20.6360 C   0  0  0  0  0  2  0  0  0  0  0  0
  -30.0210  -13.2730   20.0060 N   0  0  0  0  0  0  0  0  0  0  0  0
  -31.8030  -14.6300   19.5960 O   0  0  0  0  0  0  0  0  0  0  0  0
  -30.0030  -15.4470   20.6980 N   0  0  0  0  0  0  0  0  0  0  0  0
  -29.2070  -15.1280   21.2290 H   0  0  0  0  0  0  0  0  0  0  0  0
  -25.2590  -13.8550   20.4570 C   0  0  0  0  0  0  0  0  0  0  0  0
  -24.2070  -13.0790   20.8670 C   0  0  0  0  0  0  0  0  0  0  0  0
  -24.6550  -11.7260   20.7740 C   0  0  0  0  0  0  0  0  0  0  0  0
  -26.2830  -12.9720   20.1460 N   0  0  0  0  0  0  0  0  0  0  0  0
  -25.9250  -11.6870   20.3930 N   0  0  0  0  0  0  0  0  0  0  0  0
  -23.9310  -10.4630   20.9700 C   0  0  0  0  0  0  0  0  0  0  0  0
  -24.3740   -9.4930   21.8970 C   0  0  0  0  0  3  0  0  0  0  0  0
  -23.6510   -8.2960   22.0790 C   0  0  0  0  0  3  0  0  0  0  0  0
  -22.4710   -8.0590   21.3350 C   0  0  0  0  0  0  0  0  0  0  0  0
  -22.0480   -9.0170   20.3960 C   0  0  0  0  0  3  0  0  0  0  0  0
  -22.7720  -10.2060   20.2110 C   0  0  0  0  0  3  0  0  0  0  0  0
  -21.7160   -6.9150   21.4280 O   0  0  0  0  0  0  0  0  0  0  0  0
  -21.6340   -6.1990   22.5950 C   0  0  0  0  0  0  0  0  0  0  0  0
  -21.1340   -6.7720   23.7860 C   0  0  0  0  0  3  0  0  0  0  0  0
  -21.0040   -5.9820   24.9460 C   0  0  0  0  0  3  0  0  0  0  0  0
  -21.3620   -4.6210   24.9160 C   0  0  0  0  0  0  0  0  0  0  0  0
  -21.8530   -4.0480   23.7290 C   0  0  0  0  0  3  0  0  0  0  0  0
  -21.9860   -4.8350   22.5720 C   0  0  0  0  0  0  0  0  0  0  0  0
  -22.4420   -4.2730   21.4260 F   0  0  0  0  0  0  0  0  0  0  0  0
  -21.2280   -3.8600   26.0270 F   0  0  0  0  0  0  0  0  0  0  0  0
  -22.8310  -13.5570   21.2300 C   0  0  0  0  0  0  0  0  0  0  0  0
  -22.1450  -12.8370   22.1110 N   0  0  0  0  0  0  0  0  0  0  0  0
  -22.3730  -14.6020   20.7680 O   0  0  0  0  0  0  0  0  0  0  0  0
  -22.5270  -11.9900   22.5040 H   0  0  0  0  0  0  0  0  0  0  0  0
  -21.2240  -13.1370   22.3970 H   0  0  0  0  0  0  0  0  0  0  0  0
  -25.4240  -15.2290   20.3020 N   0  0  0  0  0  0  0  0  0  0  0  0
  -24.6590  -15.8810   20.4410 H   0  0  0  0  0  0  0  0  0  0  0  0
  -26.2420  -15.6600   19.8920 H   0  0  0  0  0  0  0  0  0  0  0  0
  -28.4950  -24.2670   19.8090 C   0  0  0  0  0  2  0  0  0  0  0  0
  -28.6600  -25.6810   19.1910 C   0  0  0  0  0  2  0  0  0  0  0  0
  -28.4330  -26.7490   20.1210 O   0  0  0  0  0  0  0  0  0  0  0  0
  -24.5490  -31.8650   23.1810 C   0  0  0  0  0  0  0  0  0  0  0  0
  -27.2290  -27.4290   20.1120 C   0  0  0  0  0  0  0  0  0  0  0  0
  -23.3570  -30.4670   21.5230 C   0  0  0  0  0  3  0  0  0  0  0  0
  -24.8220  -28.9250   20.1170 C   0  0  0  0  0  0  0  0  0  0  0  0
  -25.8840  -30.8220   21.3530 C   0  0  0  0  0  2  0  0  0  0  0  0
  -25.9740  -29.4500   20.7170 C   0  0  0  0  0  0  0  0  0  0  0  0
  -27.1750  -28.7050   20.7180 C   0  0  0  0  0  3  0  0  0  0  0  0
  -26.0490  -26.9050   19.5340 C   0  0  0  0  0  3  0  0  0  0  0  0
  -24.8540  -27.6490   19.5300 C   0  0  0  0  0  3  0  0  0  0  0  0
  -23.5790  -29.7840   20.1470 C   0  0  0  0  0  2  0  0  0  0  0  0
  -24.6130  -31.0660   22.0780 N   0  0  0  0  0  0  0  0  0  0  0  0
  -23.4620  -32.1400   23.7110 O   0  0  0  0  0  0  0  0  0  0  0  0
  -22.6930  -29.4470   22.4770 C   0  0  0  0  0  0  0  0  0  0  0  0
  -21.3650  -29.2880   22.3510 N   0  0  0  0  0  0  0  0  0  0  0  0
  -23.3690  -28.8020   23.2820 O   0  0  0  0  0  0  0  0  0  0  0  0
  -20.8840  -29.8610   21.6730 H   0  0  0  0  0  0  0  0  0  0  0  0
  -17.9670  -28.1870   22.8890 C   0  0  0  0  0  0  0  0  0  0  0  0
  -20.5360  -28.3560   23.1140 C   0  0  0  0  0  3  0  0  0  0  0  0
  -20.5810  -26.9380   22.4990 C   0  0  0  0  0  2  0  0  0  0  0  0
  -19.4480  -26.6790   21.4990 C   0  0  0  0  0  2  0  0  0  0  0  0
  -18.0850  -26.8520   22.1750 C   0  0  0  0  0  2  0  0  0  0  0  0
  -19.1180  -28.9010   23.3160 C   0  0  0  0  0  0  0  0  0  0  0  0
  -18.9530  -30.1560   23.9420 C   0  0  0  0  0  3  0  0  0  0  0  0
  -17.6690  -30.6940   24.1480 C   0  0  0  0  0  3  0  0  0  0  0  0
  -16.5330  -29.9750   23.7380 C   0  0  0  0  0  3  0  0  0  0  0  0
  -16.6830  -28.7240   23.1140 C   0  0  0  0  0  3  0  0  0  0  0  0
  -25.8310  -32.4910   23.8160 C   0  0  0  0  0  3  0  0  0  0  0  0
  -26.3390  -31.7130   25.0910 C   0  0  1  0  0  0  0  0  0  0  0  0
  -25.2350  -31.4590   26.1440 C   0  0  0  0  0  1  0  0  0  0  0  0
  -26.9360  -30.3440   24.6940 C   0  0  0  0  0  1  0  0  0  0  0  0
  -27.4770  -32.5090   25.7730 C   0  0  0  0  0  1  0  0  0  0  0  0
  -25.5220  -33.8880   24.1480 N   0  0  0  0  0  0  0  0  0  0  0  0
  -25.8700  -34.9430   23.3990 C   0  0  0  0  0  0  0  0  0  0  0  0
  -26.5570  -34.8420   22.3780 O   0  0  0  0  0  0  0  0  0  0  0  0
  -24.9220  -34.0420   24.9440 H   0  0  0  0  0  0  0  0  0  0  0  0
  -24.1670  -36.7510   23.0030 C   0  0  0  0  0  1  0  0  0  0  0  0
  -25.3770  -36.3310   23.8530 C   0  0  0  0  0  3  0  0  0  0  0  0
  -27.4830  -37.1930   24.7710 C   0  0  0  0  0  1  0  0  0  0  0  0
  -26.4200  -37.3770   23.7870 N   0  0  0  0  0  0  0  0  0  0  0  0
  -26.0150  -38.2980   23.9300 H   0  0  0  0  0  0  0  0  0  0  0  0
  1  7  1  0
  1 13  1  0
  1  6  1  0
  3  2  1  0
  4  2  1  0
  5 55  1  0
  5  6  1  0
  5  3  1  0
  6  4  1  0
  8  7  1  0
  9  7  1  0
 10 11  1  0
 12 14  1  0
 13 10  2  0
 14 25  1  0
 14 11  2  0
 15 12  2  0
 15 13  1  0
 16 15  1  0
 17 25  1  0
 18 23  1  0
 19 20  1  0
 19 18  1  0
 21 20  1  0
 21 30  1  0
 21 22  1  0
 23 17  1  0
 23 22  1  0
 24 17  2  0
 25 26  1  0
 27 28  2  0
 28 47  1  0
 29 28  1  0
 29 32  1  0
 30 31  1  0
 30 27  1  0
 31 29  2  0
 32 33  1  0
 33 34  2  0
 35 38  1  0
 35 34  1  0
 36 35  2  0
 37 36  1  0
 37 32  2  0
 38 39  1  0
 39 40  1  0
 40 41  2  0
 42 41  1  0
 42 46  1  0
 43 42  2  0
 44 39  2  0
 44 43  1  0
 45 44  1  0
 47 48  1  0
 48 51  1  0
 48 50  1  0
 49 47  2  0
 52 53  1  0
 52 27  1  0
 54 52  1  0
 56 55  1  0
 56 57  1  0
 58 69  2  0
 59 57  1  0
 59 64  1  0
 60 68  1  0
 60 70  1  0
 61 67  1  0
 61 63  1  0
 62 68  1  0
 63 64  2  0
 63 62  1  0
 65 59  2  0
 66 65  1  0
 66 61  2  0
 67 60  1  0
 68 58  1  0
 70 72  2  0
 71 70  1  0
 73 71  1  0
 74 83  2  0
 74 79  1  0
 75 71  1  0
 75 79  1  0
 76 75  1  0
 77 78  1  0
 77 76  1  0
 78 74  1  0
 79 80  2  0
 80 81  1  0
 82 81  2  0
 83 82  1  0
 84 58  1  0
 84 89  1  0
 84 85  1  0
 85 88  1  1
 85 86  1  0
 87 85  1  0
 89 92  1  0
 90 94  1  0
 90 89  1  0
 91 90  2  0
 94 93  1  0
 96 94  1  0
 96 97  1  0
 96 95  1  0
M  ISO  4  17 100  25 100  56 101  57 101
M  END
>  <TORSDO>  (92) 
F 19

>  <SCORE>  (92) 
-14.291

>  <name>  (92) 
92

>  <ligand_id>  (92) 
92

>  <original_smiles>  (92) 
[H]c1c([H])c([H])c2c(c1[H])C([H])([H])C([H])([H])C([H])([H])C2([H])N([H])C(=O)C1([H])N(C(=O)C([H])(N([H])C(=O)C([H])(N([H])C([H])([H])[H])C([H])([H])[H])C(C([H])([H])[H])(C([H])([H])[H])C([H])([H])[H])C([H])([H])c2c([H])c(OC([H])([H])C([H])([H])C3([H])N(C(c4c([H])c([H])c(N([H])C(=O)N5C([H])([H])C([H])([H])C([H])([H])C([H])(n6nc(-c7c([H])c([H])c(Oc8c([H])c([H])c(F)c([H])c8F)c([H])c7[H])c(C(=O)N([H])[H])c6N([H])[H])C5([H])[H])c([H])c4F)=[N+]([H])[H])C([H])([H])C([H])([H])C3([H])[H])c([H])c([H])c2C1([H])[H]

>  <smiles>  (92) 
[H]c1c([H])c([H])c2c(c1[H])C([H])([H])C([H])([H])C([H])([H])C2([H])N([H])C(=O)C1([H])N(C(=O)C([H])(N([H])C(=O)C([H])(N([H])C([H])([H])[H])C([H])([H])[H])C(C([H])([H])[H])(C([H])([H])[H])C([H])([H])[H])C([H])([H])c2c([H])c(OC([H])([H])C([H])([H])C3([H])N(C(c4c([H])c([H])c(N([H])C(=O)N5C([H])([H])C([H])([H])C([H])([H])C([H])(n6nc(-c7c([H])c([H])c(Oc8c([H])c([H])c(F)c([H])c8F)c([H])c7[H])c(C(=O)N([H])[H])c6N([H])[H])C5([H])[H])c([H])c4F)=[N+]([H])[H])C([H])([H])C([H])([H])C3([H])[H])c([H])c([H])c2C1([H])[H]

$$$$
93:0:0
     RDKit          3D

 97105  0  0  1  0  0  0  0  0999 V2000
  -32.6120  -23.7970   20.2280 C   0  0  0  0  0  1  0  0  0  0  0  0
  -31.3270  -22.7610   22.0900 C   0  0  0  0  0  1  0  0  0  0  0  0
  -31.1900  -23.3860   20.6790 C   0  0  2  0  0  0  0  0  0  0  0  0
  -30.6270  -22.3650   19.6360 C   0  0  0  0  0  2  0  0  0  0  0  0
  -31.1370  -20.9260   19.7890 C   0  0  0  0  0  0  0  0  0  0  0  0
  -30.3050  -20.0670   20.4000 N   0  0  0  0  0  0  0  0  0  0  0  0
  -32.2460  -20.6050   19.3560 O   0  0  0  0  0  0  0  0  0  0  0  0
  -29.3490  -20.3670   20.5440 H   0  0  0  0  0  0  0  0  0  0  0  0
  -31.8030  -18.3270   21.2840 C   0  0  0  0  0  3  0  0  0  0  0  0
  -31.7860  -16.9240   21.5100 C   0  0  0  0  0  3  0  0  0  0  0  0
  -30.6140  -18.8130   20.7920 C   0  0  0  0  0  0  0  0  0  0  0  0
  -30.5800  -16.3470   21.1970 C   0  0  0  0  0  0  0  0  0  0  0  0
  -29.4120  -17.5540   20.7450 S   0  0  0  0  0  0  0  0  0  0  0  0
  -30.6620  -14.2420   20.1530 C   0  0  0  0  0  0  0  0  0  0  0  0
  -30.1990  -12.1980   18.8690 C   0  0  0  0  0  2  0  0  0  0  0  0
  -29.1870  -12.4730   17.7420 C   0  0  0  0  0  2  0  0  0  0  0  0
  -27.7400  -12.3460   18.2550 C   0  0  0  0  0  2  0  0  0  0  0  0
  -27.5010  -13.1310   19.5700 C   0  0  0  0  0  3  0  0  0  0  0  0
  -28.6120  -12.8430   20.6030 C   0  0  0  0  0  2  0  0  0  0  0  0
  -29.9190  -13.1230   19.9740 N   0  0  0  0  0  0  0  0  0  0  0  0
  -31.6560  -14.5120   19.4630 O   0  0  0  0  0  0  0  0  0  0  0  0
  -30.2640  -15.0380   21.1510 N   0  0  0  0  0  0  0  0  0  0  0  0
  -29.4080  -14.7540   21.6050 H   0  0  0  0  0  0  0  0  0  0  0  0
  -25.1500  -13.7430   20.4240 C   0  0  0  0  0  0  0  0  0  0  0  0
  -24.1040  -12.9750   20.8540 C   0  0  0  0  0  0  0  0  0  0  0  0
  -24.5570  -11.6200   20.7870 C   0  0  0  0  0  0  0  0  0  0  0  0
  -26.1750  -12.8600   20.1250 N   0  0  0  0  0  0  0  0  0  0  0  0
  -25.8230  -11.5770   20.3950 N   0  0  0  0  0  0  0  0  0  0  0  0
  -23.8410  -10.3590   21.0170 C   0  0  0  0  0  0  0  0  0  0  0  0
  -24.2970   -9.4140   21.9620 C   0  0  0  0  0  3  0  0  0  0  0  0
  -23.5820   -8.2160   22.1790 C   0  0  0  0  0  3  0  0  0  0  0  0
  -22.3950   -7.9560   21.4500 C   0  0  0  0  0  0  0  0  0  0  0  0
  -21.9590   -8.8920   20.4970 C   0  0  0  0  0  3  0  0  0  0  0  0
  -22.6750  -10.0800   20.2780 C   0  0  0  0  0  3  0  0  0  0  0  0
  -21.6480   -6.8110   21.5760 O   0  0  0  0  0  0  0  0  0  0  0  0
  -21.6000   -6.1080   22.7520 C   0  0  0  0  0  0  0  0  0  0  0  0
  -21.1630   -6.7000   23.9580 C   0  0  0  0  0  3  0  0  0  0  0  0
  -21.0630   -5.9220   25.1280 C   0  0  0  0  0  3  0  0  0  0  0  0
  -21.3890   -4.5540   25.0950 C   0  0  0  0  0  0  0  0  0  0  0  0
  -21.8160   -3.9610   23.8950 C   0  0  0  0  0  3  0  0  0  0  0  0
  -21.9200   -4.7350   22.7260 C   0  0  0  0  0  0  0  0  0  0  0  0
  -22.3140   -4.1550   21.5680 F   0  0  0  0  0  0  0  0  0  0  0  0
  -21.2860   -3.8050   26.2180 F   0  0  0  0  0  0  0  0  0  0  0  0
  -22.7280  -13.4550   21.2190 C   0  0  0  0  0  0  0  0  0  0  0  0
  -22.0500  -12.7510   22.1180 N   0  0  0  0  0  0  0  0  0  0  0  0
  -22.2650  -14.4880   20.7390 O   0  0  0  0  0  0  0  0  0  0  0  0
  -22.4360  -11.9140   22.5270 H   0  0  0  0  0  0  0  0  0  0  0  0
  -21.1270  -13.0530   22.3970 H   0  0  0  0  0  0  0  0  0  0  0  0
  -25.3140  -15.1160   20.2460 N   0  0  0  0  0  0  0  0  0  0  0  0
  -24.5640  -15.7790   20.4080 H   0  0  0  0  0  0  0  0  0  0  0  0
  -26.1500  -15.5500   19.8780 H   0  0  0  0  0  0  0  0  0  0  0  0
  -30.3540  -24.7110   20.6950 C   0  0  0  0  0  2  0  0  0  0  0  0
  -27.9100  -23.8850   21.0600 C   0  0  0  0  0  1  0  0  0  0  0  0
  -29.1880  -24.7730   23.0070 C   0  0  0  0  0  1  0  0  0  0  0  0
  -29.0080  -24.8820   21.4750 C   0  0  1  0  0  0  0  0  0  0  0  0
  -28.4980  -26.3220   21.2140 C   0  0  0  0  0  2  0  0  0  0  0  0
  -28.0460  -26.5400   19.8710 O   0  0  0  0  0  0  0  0  0  0  0  0
  -24.4510  -31.7200   23.0790 C   0  0  0  0  0  0  0  0  0  0  0  0
  -26.9400  -27.3510   19.8300 C   0  0  0  0  0  0  0  0  0  0  0  0
  -23.1760  -30.3950   21.4150 C   0  0  0  0  0  3  0  0  0  0  0  0
  -24.5690  -28.8750   19.9120 C   0  0  0  0  0  0  0  0  0  0  0  0
  -25.6990  -30.7220   21.1770 C   0  0  0  0  0  2  0  0  0  0  0  0
  -25.7430  -29.3760   20.4890 C   0  0  0  0  0  0  0  0  0  0  0  0
  -26.9330  -28.6250   20.4400 C   0  0  0  0  0  3  0  0  0  0  0  0
  -25.7610  -26.8610   19.2360 C   0  0  0  0  0  3  0  0  0  0  0  0
  -24.5730  -27.6170   19.2790 C   0  0  0  0  0  3  0  0  0  0  0  0
  -23.3400  -29.7460   20.0120 C   0  0  0  0  0  2  0  0  0  0  0  0
  -24.4600  -30.9570   21.9500 N   0  0  0  0  0  0  0  0  0  0  0  0
  -23.3890  -31.9980   23.6500 O   0  0  0  0  0  0  0  0  0  0  0  0
  -22.5260  -29.3630   22.3630 C   0  0  0  0  0  0  0  0  0  0  0  0
  -21.1920  -29.2360   22.2740 N   0  0  0  0  0  0  0  0  0  0  0  0
  -23.2130  -28.6870   23.1330 O   0  0  0  0  0  0  0  0  0  0  0  0
  -20.7030  -29.8280   21.6180 H   0  0  0  0  0  0  0  0  0  0  0  0
  -17.7910  -28.1660   22.8570 C   0  0  0  0  0  0  0  0  0  0  0  0
  -20.3660  -28.3020   23.0350 C   0  0  0  0  0  3  0  0  0  0  0  0
  -20.3830  -26.8950   22.3950 C   0  0  0  0  0  2  0  0  0  0  0  0
  -19.2310  -26.6660   21.4130 C   0  0  0  0  0  2  0  0  0  0  0  0
  -17.8810  -26.8420   22.1140 C   0  0  0  0  0  2  0  0  0  0  0  0
  -18.9580  -28.8590   23.2730 C   0  0  0  0  0  0  0  0  0  0  0  0
  -18.8210  -30.1020   23.9270 C   0  0  0  0  0  3  0  0  0  0  0  0
  -17.5490  -30.6530   24.1660 C   0  0  0  0  0  3  0  0  0  0  0  0
  -16.3950  -29.9580   23.7630 C   0  0  0  0  0  3  0  0  0  0  0  0
  -16.5170  -28.7140   23.1190 C   0  0  0  0  0  3  0  0  0  0  0  0
  -25.7670  -32.2990   23.6860 C   0  0  0  0  0  3  0  0  0  0  0  0
  -25.4990  -33.6910   24.0700 N   0  0  0  0  0  0  0  0  0  0  0  0
  -25.8530  -34.7620   23.3440 C   0  0  0  0  0  0  0  0  0  0  0  0
  -26.5140  -34.6790   22.3060 O   0  0  0  0  0  0  0  0  0  0  0  0
  -24.9090  -33.8310   24.8770 H   0  0  0  0  0  0  0  0  0  0  0  0
  -24.1710  -36.6100   23.0620 C   0  0  0  0  0  1  0  0  0  0  0  0
  -25.4040  -36.1440   23.8540 C   0  0  0  0  0  3  0  0  0  0  0  0
  -27.5650  -36.9380   24.7110 C   0  0  0  0  0  1  0  0  0  0  0  0
  -26.4630  -37.1750   23.7820 N   0  0  0  0  0  0  0  0  0  0  0  0
  -26.0790  -38.0960   23.9780 H   0  0  0  0  0  0  0  0  0  0  0  0
  -26.3020  -31.4680   24.9200 C   0  0  1  0  0  0  0  0  0  0  0  0
  -25.2330  -31.2170   26.0080 C   0  0  0  0  0  1  0  0  0  0  0  0
  -26.8390  -30.0890   24.4660 C   0  0  0  0  0  1  0  0  0  0  0  0
  -27.4870  -32.2110   25.5820 C   0  0  0  0  0  1  0  0  0  0  0  0
  3  1  1  6
  3 52  1  0
  3  2  1  0
  4  5  1  0
  4  3  1  0
  5  6  1  0
  6  8  1  0
  6 11  1  0
  7  5  2  0
  9 10  1  0
 11  9  2  0
 12 10  2  0
 13 11  1  0
 13 12  1  0
 14 22  1  0
 15 20  1  0
 16 17  1  0
 16 15  1  0
 18 17  1  0
 18 27  1  0
 18 19  1  0
 20 14  1  0
 20 19  1  0
 21 14  2  0
 22 12  1  0
 22 23  1  0
 24 25  2  0
 25 44  1  0
 26 25  1  0
 26 29  1  0
 27 28  1  0
 27 24  1  0
 28 26  2  0
 29 30  1  0
 30 31  2  0
 32 35  1  0
 32 31  1  0
 33 32  2  0
 34 33  1  0
 34 29  2  0
 35 36  1  0
 36 37  1  0
 37 38  2  0
 39 38  1  0
 39 43  1  0
 40 39  2  0
 41 36  2  0
 41 40  1  0
 42 41  1  0
 44 45  1  0
 45 48  1  0
 45 47  1  0
 46 44  2  0
 49 50  1  0
 49 24  1  0
 51 49  1  0
 52 55  1  0
 55 53  1  6
 55 54  1  0
 56 55  1  0
 57 56  1  0
 58 69  2  0
 59 57  1  0
 59 64  1  0
 60 68  1  0
 60 70  1  0
 61 67  1  0
 61 63  1  0
 62 68  1  0
 63 62  1  0
 64 63  2  0
 65 66  1  0
 65 59  2  0
 66 61  2  0
 67 60  1  0
 68 58  1  0
 70 72  2  0
 71 70  1  0
 73 71  1  0
 74 83  2  0
 74 79  1  0
 75 71  1  0
 75 79  1  0
 76 75  1  0
 77 78  1  0
 77 76  1  0
 78 74  1  0
 79 80  2  0
 80 81  1  0
 82 81  2  0
 83 82  1  0
 84 58  1  0
 84 85  1  0
 84 94  1  0
 85 88  1  0
 86 90  1  0
 86 85  1  0
 87 86  2  0
 90 89  1  0
 92 90  1  0
 92 93  1  0
 92 91  1  0
 94 97  1  1
 94 95  1  0
 96 94  1  0
M  ISO  4  14 100  22 100  56 101  57 101
M  END
>  <TORSDO>  (93) 
F 22

>  <SCORE>  (93) 
-12.212

>  <name>  (93) 
93

>  <ligand_id>  (93) 
93

>  <original_smiles>  (93) 
[H]c1c(N([H])C(=O)N2C([H])([H])C([H])([H])C([H])([H])C([H])(n3nc(-c4c([H])c([H])c(Oc5c([H])c([H])c(F)c([H])c5F)c([H])c4[H])c(C(=O)N([H])[H])c3N([H])[H])C2([H])[H])sc(N([H])C(=O)C([H])([H])C(C([H])([H])[H])(C([H])([H])[H])C([H])([H])C(C([H])([H])[H])(C([H])([H])[H])C([H])([H])Oc2c([H])c([H])c3c(c2[H])C([H])([H])N(C(=O)C([H])(N([H])C(=O)C([H])(N([H])C([H])([H])[H])C([H])([H])[H])C(C([H])([H])[H])(C([H])([H])[H])C([H])([H])[H])C([H])(C(=O)N([H])C2([H])c4c([H])c([H])c([H])c([H])c4C([H])([H])C([H])([H])C2([H])[H])C3([H])[H])c1[H]

>  <smiles>  (93) 
[H]c1c(N([H])C(=O)N2C([H])([H])C([H])([H])C([H])([H])C([H])(n3nc(-c4c([H])c([H])c(Oc5c([H])c([H])c(F)c([H])c5F)c([H])c4[H])c(C(=O)N([H])[H])c3N([H])[H])C2([H])[H])sc(N([H])C(=O)C([H])([H])C(C([H])([H])[H])(C([H])([H])[H])C([H])([H])C(C([H])([H])[H])(C([H])([H])[H])C([H])([H])Oc2c([H])c([H])c3c(c2[H])C([H])([H])N(C(=O)C([H])(N([H])C(=O)C([H])(N([H])C([H])([H])[H])C([H])([H])[H])C(C([H])([H])[H])(C([H])([H])[H])C([H])([H])[H])C([H])(C(=O)N([H])C2([H])c4c([H])c([H])c([H])c([H])c4C([H])([H])C([H])([H])C2([H])[H])C3([H])[H])c1[H]

$$$$
94:0:0
     RDKit          3D

 97106  0  0  1  0  0  0  0  0999 V2000
  -30.7790  -22.0170   19.4200 C   0  0  0  0  0  0  0  0  0  0  0  0
  -30.0910  -20.9260   20.1210 C   0  0  0  0  0  0  0  0  0  0  0  0
  -30.6110  -23.3840   19.4820 C   0  0  0  0  0  0  0  0  0  0  0  0
  -31.8510  -21.3810   18.5580 C   0  0  0  0  0  2  0  0  0  0  0  0
  -31.9440  -19.9470   19.0470 C   0  0  0  0  0  2  0  0  0  0  0  0
  -31.5420  -24.2170   18.5900 C   0  0  0  0  0  1  0  0  0  0  0  0
  -30.8210  -19.7850   19.9570 N   0  0  0  0  0  0  0  0  0  0  0  0
  -28.9840  -20.9490   20.6580 O   0  0  0  0  0  0  0  0  0  0  0  0
  -29.9430  -18.2730   21.6830 C   0  0  0  0  0  3  0  0  0  0  0  0
  -29.9590  -16.8580   21.8460 C   0  0  0  0  0  0  0  0  0  0  0  0
  -30.5940  -18.5490   20.5060 C   0  0  0  0  0  0  0  0  0  0  0  0
  -30.6410  -16.3880   20.7550 C   0  0  0  0  0  0  0  0  0  0  0  0
  -29.3450  -16.0740   22.9770 C   0  0  0  0  0  1  0  0  0  0  0  0
  -31.0480  -17.3910   19.9170 O   0  0  0  0  0  0  0  0  0  0  0  0
  -31.1500  -14.3960   19.4340 C   0  0  0  0  0  0  0  0  0  0  0  0
  -30.5590  -12.4330   18.0420 C   0  0  0  0  0  2  0  0  0  0  0  0
  -29.3980  -12.7920   17.0900 C   0  0  0  0  0  2  0  0  0  0  0  0
  -28.0310  -12.6280   17.7850 C   0  0  0  0  0  2  0  0  0  0  0  0
  -27.9860  -13.3150   19.1740 C   0  0  0  0  0  3  0  0  0  0  0  0
  -29.2130  -12.8890   20.0090 C   0  0  0  0  0  2  0  0  0  0  0  0
  -30.4340  -13.2510   19.2580 N   0  0  0  0  0  0  0  0  0  0  0  0
  -32.0490  -14.7610   18.6660 O   0  0  0  0  0  0  0  0  0  0  0  0
  -30.8250  -15.0560   20.5570 N   0  0  0  0  0  0  0  0  0  0  0  0
  -30.3030  -14.4800   21.1970 H   0  0  0  0  0  0  0  0  0  0  0  0
  -25.7800  -13.9080   20.3700 C   0  0  0  0  0  0  0  0  0  0  0  0
  -24.7760  -13.1260   20.8750 C   0  0  0  0  0  0  0  0  0  0  0  0
  -25.1780  -11.7740   20.6470 C   0  0  0  0  0  0  0  0  0  0  0  0
  -26.7340  -13.0310   19.8750 N   0  0  0  0  0  0  0  0  0  0  0  0
  -26.3820  -11.7370   20.0920 N   0  0  0  0  0  0  0  0  0  0  0  0
  -24.4600  -10.5120   20.8710 C   0  0  0  0  0  0  0  0  0  0  0  0
  -24.8980   -9.5750   21.8330 C   0  0  0  0  0  3  0  0  0  0  0  0
  -24.1810   -8.3780   22.0430 C   0  0  0  0  0  3  0  0  0  0  0  0
  -23.0140   -8.1070   21.2890 C   0  0  0  0  0  0  0  0  0  0  0  0
  -22.5970   -9.0320   20.3160 C   0  0  0  0  0  3  0  0  0  0  0  0
  -23.3140  -10.2220   20.1050 C   0  0  0  0  0  3  0  0  0  0  0  0
  -22.2690   -6.9590   21.4060 O   0  0  0  0  0  0  0  0  0  0  0  0
  -22.0320   -6.3750   22.6240 C   0  0  0  0  0  0  0  0  0  0  0  0
  -21.4030   -7.0750   23.6760 C   0  0  0  0  0  3  0  0  0  0  0  0
  -21.1170   -6.4170   24.8880 C   0  0  0  0  0  3  0  0  0  0  0  0
  -21.4480   -5.0580   25.0490 C   0  0  0  0  0  0  0  0  0  0  0  0
  -22.0690   -4.3570   24.0000 C   0  0  0  0  0  3  0  0  0  0  0  0
  -22.3580   -5.0130   22.7910 C   0  0  0  0  0  0  0  0  0  0  0  0
  -22.9370   -4.3270   21.7760 F   0  0  0  0  0  0  0  0  0  0  0  0
  -21.1660   -4.4230   26.2100 F   0  0  0  0  0  0  0  0  0  0  0  0
  -23.4730  -13.6000   21.4510 C   0  0  0  0  0  0  0  0  0  0  0  0
  -22.9300  -12.8720   22.4210 N   0  0  0  0  0  0  0  0  0  0  0  0
  -22.9520  -14.6500   21.0760 O   0  0  0  0  0  0  0  0  0  0  0  0
  -23.3660  -12.0210   22.7420 H   0  0  0  0  0  0  0  0  0  0  0  0
  -22.0650  -13.1710   22.8500 H   0  0  0  0  0  0  0  0  0  0  0  0
  -25.9560  -15.2850   20.2770 N   0  0  0  0  0  0  0  0  0  0  0  0
  -25.2480  -15.9450   20.5810 H   0  0  0  0  0  0  0  0  0  0  0  0
  -26.7520  -15.7330   19.8400 H   0  0  0  0  0  0  0  0  0  0  0  0
  -28.9210  -23.6460   21.5190 C   0  0  0  0  0  1  0  0  0  0  0  0
  -30.6800  -25.2820   21.1450 C   0  0  0  0  0  1  0  0  0  0  0  0
  -29.7250  -24.3210   20.3860 C   0  0  1  0  0  0  0  0  0  0  0  0
  -28.6950  -25.1360   19.5170 C   0  0  0  0  0  2  0  0  0  0  0  0
  -28.6270  -26.5350   19.8750 O   0  0  0  0  0  0  0  0  0  0  0  0
  -24.7760  -31.6430   22.9880 C   0  0  0  0  0  0  0  0  0  0  0  0
  -27.4250  -27.2230   19.8540 C   0  0  0  0  0  0  0  0  0  0  0  0
  -23.5540  -30.2140   21.3810 C   0  0  0  0  0  3  0  0  0  0  0  0
  -25.0010  -28.7000   19.9210 C   0  0  0  0  0  0  0  0  0  0  0  0
  -26.0690  -30.6140   21.1190 C   0  0  0  0  0  2  0  0  0  0  0  0
  -26.1620  -29.2410   20.4820 C   0  0  0  0  0  0  0  0  0  0  0  0
  -27.3730  -28.5070   20.4490 C   0  0  0  0  0  3  0  0  0  0  0  0
  -26.2430  -26.7130   19.2660 C   0  0  0  0  0  3  0  0  0  0  0  0
  -25.0360  -27.4360   19.3100 C   0  0  0  0  0  3  0  0  0  0  0  0
  -23.7420  -29.5350   19.9980 C   0  0  0  0  0  2  0  0  0  0  0  0
  -24.8190  -30.8400   21.8870 N   0  0  0  0  0  0  0  0  0  0  0  0
  -23.7040  -31.8990   23.5550 O   0  0  0  0  0  0  0  0  0  0  0  0
  -22.9480  -29.1820   22.3590 C   0  0  0  0  0  0  0  0  0  0  0  0
  -21.6270  -28.9630   22.2540 N   0  0  0  0  0  0  0  0  0  0  0  0
  -23.6620  -28.5810   23.1670 O   0  0  0  0  0  0  0  0  0  0  0  0
  -21.1100  -29.5040   21.5750 H   0  0  0  0  0  0  0  0  0  0  0  0
  -18.2960  -27.6830   22.8140 C   0  0  0  0  0  0  0  0  0  0  0  0
  -20.8490  -28.0110   23.0470 C   0  0  0  0  0  3  0  0  0  0  0  0
  -20.9830  -26.5790   22.4810 C   0  0  0  0  0  2  0  0  0  0  0  0
  -19.8760  -26.2190   21.4850 C   0  0  0  0  0  2  0  0  0  0  0  0
  -18.5000  -26.3320   22.1470 C   0  0  0  0  0  2  0  0  0  0  0  0
  -19.4000  -28.4780   23.2210 C   0  0  0  0  0  0  0  0  0  0  0  0
  -19.1560  -29.7430   23.8010 C   0  0  0  0  0  3  0  0  0  0  0  0
  -17.8410  -30.2120   23.9810 C   0  0  0  0  0  3  0  0  0  0  0  0
  -16.7520  -29.4150   23.5900 C   0  0  0  0  0  3  0  0  0  0  0  0
  -16.9800  -28.1530   23.0130 C   0  0  0  0  0  3  0  0  0  0  0  0
  -26.0670  -32.3000   23.5710 C   0  0  0  0  0  3  0  0  0  0  0  0
  -26.7300  -31.4490   24.7240 C   0  0  1  0  0  0  0  0  0  0  0  0
  -25.7370  -31.0230   25.8280 C   0  0  0  0  0  1  0  0  0  0  0  0
  -27.3780  -30.1680   24.1490 C   0  0  0  0  0  1  0  0  0  0  0  0
  -27.8630  -32.2640   25.3910 C   0  0  0  0  0  1  0  0  0  0  0  0
  -25.7040  -33.6380   24.0570 N   0  0  0  0  0  0  0  0  0  0  0  0
  -25.8960  -34.7730   23.3720 C   0  0  0  0  0  0  0  0  0  0  0  0
  -26.4740  -34.8070   22.2810 O   0  0  0  0  0  0  0  0  0  0  0  0
  -25.1840  -33.6800   24.9200 H   0  0  0  0  0  0  0  0  0  0  0  0
  -24.0340  -36.4600   23.3310 C   0  0  0  0  0  1  0  0  0  0  0  0
  -25.3660  -36.0770   23.9960 C   0  0  0  0  0  3  0  0  0  0  0  0
  -27.5000  -37.0420   24.7350 C   0  0  0  0  0  1  0  0  0  0  0  0
  -26.3160  -37.2070   23.8960 N   0  0  0  0  0  0  0  0  0  0  0  0
  -25.8640  -38.0790   24.1540 H   0  0  0  0  0  0  0  0  0  0  0  0
  1  3  2  0
  1  2  1  0
  2  8  2  0
  3 55  1  0
  4  5  1  0
  4  1  1  0
  5  7  1  0
  6  3  1  0
  7  2  1  0
  7 11  1  0
  9 10  1  0
 10 13  1  0
 11  9  2  0
 12 10  2  0
 14 11  1  0
 14 12  1  0
 15 23  1  0
 16 21  1  0
 17 18  1  0
 17 16  1  0
 19 18  1  0
 19 28  1  0
 19 20  1  0
 21 15  1  0
 21 20  1  0
 22 15  2  0
 23 12  1  0
 23 24  1  0
 25 26  2  0
 26 45  1  0
 27 30  1  0
 27 26  1  0
 28 29  1  0
 28 25  1  0
 29 27  2  0
 30 31  1  0
 31 32  2  0
 33 36  1  0
 33 32  1  0
 34 33  2  0
 35 34  1  0
 35 30  2  0
 36 37  1  0
 37 42  2  0
 37 38  1  0
 38 39  2  0
 39 40  1  0
 40 44  1  0
 41 40  2  0
 42 41  1  0
 43 42  1  0
 45 46  1  0
 46 48  1  0
 46 49  1  0
 47 45  2  0
 50 25  1  0
 50 51  1  0
 52 50  1  0
 55 54  1  1
 55 53  1  0
 56 57  1  0
 56 55  1  0
 58 69  2  0
 59 57  1  0
 59 64  1  0
 60 68  1  0
 60 70  1  0
 61 67  1  0
 61 63  1  0
 62 68  1  0
 63 62  1  0
 64 63  2  0
 65 66  1  0
 65 59  2  0
 66 61  2  0
 67 60  1  0
 68 58  1  0
 70 72  2  0
 71 70  1  0
 73 71  1  0
 74 83  2  0
 74 79  1  0
 75 71  1  0
 75 79  1  0
 76 75  1  0
 77 78  1  0
 77 76  1  0
 78 74  1  0
 79 80  2  0
 80 81  1  0
 82 81  2  0
 83 82  1  0
 84 58  1  0
 84 89  1  0
 84 85  1  0
 85 88  1  1
 85 86  1  0
 87 85  1  0
 89 92  1  0
 90 94  1  0
 90 89  1  0
 91 90  2  0
 94 93  1  0
 96 94  1  0
 96 97  1  0
 96 95  1  0
M  ISO  4  15 100  23 100  56 101  57 101
M  END
>  <TORSDO>  (94) 
F 19

>  <SCORE>  (94) 
-8.047

>  <name>  (94) 
94

>  <ligand_id>  (94) 
94

>  <original_smiles>  (94) 
[H]c1c([H])c([H])c2c(c1[H])C([H])([H])C([H])([H])C([H])([H])C2([H])N([H])C(=O)C1([H])N(C(=O)C([H])(N([H])C(=O)C([H])(N([H])C([H])([H])[H])C([H])([H])[H])C(C([H])([H])[H])(C([H])([H])[H])C([H])([H])[H])C([H])([H])c2c([H])c(OC([H])([H])C(C(=C3C(=O)N(c4oc(N([H])C(=O)N5C([H])([H])C([H])([H])C([H])([H])C([H])(n6nc(-c7c([H])c([H])c(Oc8c([H])c([H])c(F)c([H])c8F)c([H])c7[H])c(C(=O)N([H])[H])c6N([H])[H])C5([H])[H])c(C([H])([H])[H])c4[H])C([H])([H])C3([H])[H])C([H])([H])[H])(C([H])([H])[H])C([H])([H])[H])c([H])c([H])c2C1([H])[H]

>  <smiles>  (94) 
[H]c1c([H])c([H])c2c(c1[H])C([H])([H])C([H])([H])C([H])([H])C2([H])N([H])C(=O)C1([H])N(C(=O)C([H])(N([H])C(=O)C([H])(N([H])C([H])([H])[H])C([H])([H])[H])C(C([H])([H])[H])(C([H])([H])[H])C([H])([H])[H])C([H])([H])c2c([H])c(OC([H])([H])C(C(=C3C(=O)N(c4oc(N([H])C(=O)N5C([H])([H])C([H])([H])C([H])([H])C([H])(n6nc(-c7c([H])c([H])c(Oc8c([H])c([H])c(F)c([H])c8F)c([H])c7[H])c(C(=O)N([H])[H])c6N([H])[H])C5([H])[H])c(C([H])([H])[H])c4[H])C([H])([H])C3([H])[H])C([H])([H])[H])(C([H])([H])[H])C([H])([H])[H])c([H])c([H])c2C1([H])[H]

$$$$
95:0:0
     RDKit          3D

 96105  0  0  1  0  0  0  0  0999 V2000
  -31.4920  -23.2240   20.8400 N   0  0  0  0  0  4  0  0  0  0  0  0
  -31.2230  -23.1700   19.8730 H   0  0  0  0  0  0  0  0  0  0  0  0
  -32.4990  -23.1800   20.8490 H   0  0  0  0  0  0  0  0  0  0  0  0
  -29.5020  -21.9290   21.7650 C   0  0  0  0  0  2  0  0  0  0  0  0
  -30.1810  -21.0950   20.6980 C   0  0  0  0  0  3  0  0  0  0  0  0
  -31.0040  -22.0260   21.5690 C   0  0  0  0  0  3  0  0  0  0  0  0
  -31.2670  -18.9000   20.1330 C   0  0  0  0  0  3  0  0  0  0  0  0
  -29.3030  -18.8670   21.5580 C   0  0  0  0  0  3  0  0  0  0  0  0
  -31.3180  -17.4930   20.1660 C   0  0  0  0  0  3  0  0  0  0  0  0
  -29.3560  -17.4590   21.6020 C   0  0  0  0  0  3  0  0  0  0  0  0
  -30.2550  -19.6000   20.8180 C   0  0  0  0  0  0  0  0  0  0  0  0
  -30.3540  -16.7550   20.8950 C   0  0  0  0  0  0  0  0  0  0  0  0
  -30.8910  -14.4280   20.1400 C   0  0  0  0  0  0  0  0  0  0  0  0
  -30.5300  -12.3130   18.9310 C   0  0  0  0  0  2  0  0  0  0  0  0
  -29.5230  -12.5580   17.7900 C   0  0  0  0  0  2  0  0  0  0  0  0
  -28.0740  -12.4050   18.2920 C   0  0  0  0  0  2  0  0  0  0  0  0
  -27.8070  -13.2010   19.5970 C   0  0  0  0  0  3  0  0  0  0  0  0
  -28.9180  -12.9330   20.6380 C   0  0  0  0  0  2  0  0  0  0  0  0
  -30.2180  -13.2540   20.0160 N   0  0  0  0  0  0  0  0  0  0  0  0
  -31.9460  -14.6550   19.5410 O   0  0  0  0  0  0  0  0  0  0  0  0
  -30.2910  -15.3320   20.9330 N   0  0  0  0  0  0  0  0  0  0  0  0
  -29.5180  -14.9510   21.4590 H   0  0  0  0  0  0  0  0  0  0  0  0
  -25.4510  -13.7830   20.4590 C   0  0  0  0  0  0  0  0  0  0  0  0
  -24.4030  -12.9980   20.8610 C   0  0  0  0  0  0  0  0  0  0  0  0
  -24.8600  -11.6480   20.7540 C   0  0  0  0  0  0  0  0  0  0  0  0
  -26.4800  -12.9110   20.1380 N   0  0  0  0  0  0  0  0  0  0  0  0
  -26.1300  -11.6200   20.3690 N   0  0  0  0  0  0  0  0  0  0  0  0
  -24.1450  -10.3790   20.9410 C   0  0  0  0  0  0  0  0  0  0  0  0
  -24.5670   -9.4280   21.8970 C   0  0  0  0  0  3  0  0  0  0  0  0
  -23.8530   -8.2240   22.0710 C   0  0  0  0  0  3  0  0  0  0  0  0
  -22.7040   -7.9600   21.2890 C   0  0  0  0  0  0  0  0  0  0  0  0
  -22.3010   -8.8990   20.3230 C   0  0  0  0  0  3  0  0  0  0  0  0
  -23.0150  -10.0960   20.1470 C   0  0  0  0  0  3  0  0  0  0  0  0
  -21.9640   -6.8050   21.3710 O   0  0  0  0  0  0  0  0  0  0  0  0
  -21.8090   -6.1310   22.5560 C   0  0  0  0  0  0  0  0  0  0  0  0
  -21.2360   -6.7430   23.6920 C   0  0  0  0  0  3  0  0  0  0  0  0
  -21.0320   -5.9940   24.8670 C   0  0  0  0  0  3  0  0  0  0  0  0
  -21.3920   -4.6340   24.9080 C   0  0  0  0  0  0  0  0  0  0  0  0
  -21.9580   -4.0210   23.7760 C   0  0  0  0  0  3  0  0  0  0  0  0
  -22.1630   -4.7680   22.6020 C   0  0  0  0  0  0  0  0  0  0  0  0
  -22.6890   -4.1680   21.5070 F   0  0  0  0  0  0  0  0  0  0  0  0
  -21.1890   -3.9110   26.0340 F   0  0  0  0  0  0  0  0  0  0  0  0
  -23.0260  -13.4640   21.2340 C   0  0  0  0  0  0  0  0  0  0  0  0
  -22.3560  -12.7450   22.1280 N   0  0  0  0  0  0  0  0  0  0  0  0
  -22.5530  -14.4990   20.7670 O   0  0  0  0  0  0  0  0  0  0  0  0
  -22.7520  -11.9070   22.5260 H   0  0  0  0  0  0  0  0  0  0  0  0
  -21.4330  -13.0370   22.4190 H   0  0  0  0  0  0  0  0  0  0  0  0
  -25.6070  -15.1600   20.3230 N   0  0  0  0  0  0  0  0  0  0  0  0
  -24.8510  -15.8110   20.5010 H   0  0  0  0  0  0  0  0  0  0  0  0
  -26.4450  -15.6100   19.9750 H   0  0  0  0  0  0  0  0  0  0  0  0
  -31.1020  -24.5480   21.3750 C   0  0  0  0  0  2  0  0  0  0  0  0
  -30.0470  -25.2170   20.4620 C   0  0  0  0  0  2  0  0  0  0  0  0
  -28.7110  -26.3930   22.2930 C   0  0  0  0  0  1  0  0  0  0  0  0
  -30.4780  -27.6780   20.9510 C   0  0  0  0  0  1  0  0  0  0  0  0
  -29.4180  -26.5570   20.9280 C   0  0  1  0  0  0  0  0  0  0  0  0
  -28.4860  -26.7520   19.8520 O   0  0  0  0  0  0  0  0  0  0  0  0
  -24.6120  -31.8320   23.0810 C   0  0  0  0  0  0  0  0  0  0  0  0
  -27.3310  -27.4920   19.9710 C   0  0  0  0  0  0  0  0  0  0  0  0
  -23.4140  -30.4200   21.4350 C   0  0  0  0  0  3  0  0  0  0  0  0
  -24.8880  -28.9120   20.0010 C   0  0  0  0  0  0  0  0  0  0  0  0
  -25.9250  -30.8360   21.2190 C   0  0  0  0  0  2  0  0  0  0  0  0
  -26.0330  -29.4680   20.5860 C   0  0  0  0  0  0  0  0  0  0  0  0
  -27.2530  -28.7670   20.5730 C   0  0  0  0  0  3  0  0  0  0  0  0
  -26.1710  -26.9440   19.3830 C   0  0  0  0  0  3  0  0  0  0  0  0
  -24.9480  -27.6430   19.4020 C   0  0  0  0  0  3  0  0  0  0  0  0
  -23.6260  -29.7420   20.0540 C   0  0  0  0  0  2  0  0  0  0  0  0
  -24.6680  -31.0430   21.9700 N   0  0  0  0  0  0  0  0  0  0  0  0
  -23.5320  -32.0820   23.6340 O   0  0  0  0  0  0  0  0  0  0  0  0
  -22.7870  -29.3840   22.3970 C   0  0  0  0  0  0  0  0  0  0  0  0
  -21.4650  -29.1880   22.2800 N   0  0  0  0  0  0  0  0  0  0  0  0
  -23.4870  -28.7600   23.2000 O   0  0  0  0  0  0  0  0  0  0  0  0
  -20.9630  -29.7460   21.6040 H   0  0  0  0  0  0  0  0  0  0  0  0
  -18.1060  -27.9740   22.8110 C   0  0  0  0  0  0  0  0  0  0  0  0
  -20.6650  -28.2370   23.0500 C   0  0  0  0  0  3  0  0  0  0  0  0
  -20.7650  -26.8140   22.4520 C   0  0  0  0  0  2  0  0  0  0  0  0
  -19.6490  -26.5020   21.4490 C   0  0  0  0  0  2  0  0  0  0  0  0
  -18.2770  -26.6350   22.1160 C   0  0  0  0  0  2  0  0  0  0  0  0
  -19.2280  -28.7340   23.2360 C   0  0  0  0  0  0  0  0  0  0  0  0
  -19.0140  -29.9900   23.8450 C   0  0  0  0  0  3  0  0  0  0  0  0
  -17.7110  -30.4840   24.0370 C   0  0  0  0  0  3  0  0  0  0  0  0
  -16.6030  -29.7210   23.6280 C   0  0  0  0  0  3  0  0  0  0  0  0
  -16.8020  -28.4680   23.0220 C   0  0  0  0  0  3  0  0  0  0  0  0
  -25.8950  -32.4730   23.6970 C   0  0  0  0  0  3  0  0  0  0  0  0
  -25.5670  -33.8590   24.0550 N   0  0  0  0  0  0  0  0  0  0  0  0
  -25.8970  -34.9290   23.3200 C   0  0  0  0  0  0  0  0  0  0  0  0
  -26.5810  -34.8550   22.2950 O   0  0  0  0  0  0  0  0  0  0  0  0
  -24.9580  -33.9890   24.8490 H   0  0  0  0  0  0  0  0  0  0  0  0
  -24.1720  -36.7220   22.9540 C   0  0  0  0  0  1  0  0  0  0  0  0
  -25.3860  -36.3010   23.7990 C   0  0  0  0  0  3  0  0  0  0  0  0
  -27.4850  -37.1720   24.7310 C   0  0  0  0  0  1  0  0  0  0  0  0
  -26.4160  -37.3620   23.7530 N   0  0  0  0  0  0  0  0  0  0  0  0
  -26.0010  -38.2770   23.9100 H   0  0  0  0  0  0  0  0  0  0  0  0
  -26.4470  -31.6870   24.9480 C   0  0  1  0  0  0  0  0  0  0  0  0
  -25.3720  -31.3910   26.0200 C   0  0  0  0  0  1  0  0  0  0  0  0
  -27.0690  -30.3380   24.5130 C   0  0  0  0  0  1  0  0  0  0  0  0
  -27.5790  -32.4990   25.6180 C   0  0  0  0  0  1  0  0  0  0  0  0
  1  3  1  0
  1 51  1  0
  2  1  1  0
  5 11  1  0
  5  6  1  0
  5  4  1  0
  6  1  1  0
  6  4  1  0
  7  9  2  0
  7 11  1  0
  8 10  1  0
  9 12  1  0
 11  8  2  0
 12 21  1  0
 12 10  2  0
 13 21  1  0
 14 19  1  0
 15 16  1  0
 15 14  1  0
 17 16  1  0
 17 26  1  0
 17 18  1  0
 19 13  1  0
 19 18  1  0
 20 13  2  0
 21 22  1  0
 23 24  2  0
 24 43  1  0
 25 24  1  0
 25 28  1  0
 26 27  1  0
 26 23  1  0
 27 25  2  0
 28 29  1  0
 29 30  2  0
 31 34  1  0
 31 30  1  0
 32 31  2  0
 33 32  1  0
 33 28  2  0
 34 35  1  0
 35 40  2  0
 35 36  1  0
 36 37  2  0
 37 38  1  0
 38 42  1  0
 39 38  2  0
 40 39  1  0
 41 40  1  0
 43 44  1  0
 44 47  1  0
 44 46  1  0
 45 43  2  0
 48 23  1  0
 48 49  1  0
 50 48  1  0
 52 55  1  0
 52 51  1  0
 55 54  1  1
 55 53  1  0
 56 58  1  0
 56 55  1  0
 57 68  2  0
 58 63  1  0
 59 67  1  0
 59 69  1  0
 60 66  1  0
 60 62  1  0
 61 67  1  0
 62 61  1  0
 63 62  2  0
 64 65  1  0
 64 58  2  0
 65 60  2  0
 66 59  1  0
 67 57  1  0
 69 71  2  0
 70 69  1  0
 72 70  1  0
 73 82  2  0
 73 78  1  0
 74 70  1  0
 74 78  1  0
 75 74  1  0
 76 77  1  0
 76 75  1  0
 77 73  1  0
 78 79  2  0
 79 80  1  0
 81 80  2  0
 82 81  1  0
 83 57  1  0
 83 84  1  0
 83 93  1  0
 84 87  1  0
 85 89  1  0
 85 84  1  0
 86 85  2  0
 89 88  1  0
 91 89  1  0
 91 92  1  0
 91 90  1  0
 93 96  1  1
 93 94  1  0
 95 93  1  0
M  ISO  4  13 100  21 100  55 101  56 101
M  END
>  <TORSDO>  (95) 
F 21

>  <SCORE>  (95) 
-12.414

>  <name>  (95) 
95

>  <ligand_id>  (95) 
95

>  <original_smiles>  (95) 
[H]c1c([H])c([H])c2c(c1[H])C([H])([H])C([H])([H])C([H])([H])C2([H])N([H])C(=O)C1([H])N(C(=O)C([H])(N([H])C(=O)C([H])(N([H])C([H])([H])[H])C([H])([H])[H])C(C([H])([H])[H])(C([H])([H])[H])C([H])([H])[H])C([H])([H])c2c([H])c(OC(C([H])([H])[H])(C([H])([H])[H])C([H])([H])C([H])([H])[N+]([H])([H])C3([H])C([H])([H])C3([H])c3c([H])c([H])c(N([H])C(=O)N4C([H])([H])C([H])([H])C([H])([H])C([H])(n5nc(-c6c([H])c([H])c(Oc7c([H])c([H])c(F)c([H])c7F)c([H])c6[H])c(C(=O)N([H])[H])c5N([H])[H])C4([H])[H])c([H])c3[H])c([H])c([H])c2C1([H])[H]

>  <smiles>  (95) 
[H]c1c([H])c([H])c2c(c1[H])C([H])([H])C([H])([H])C([H])([H])C2([H])N([H])C(=O)C1([H])N(C(=O)C([H])(N([H])C(=O)C([H])(N([H])C([H])([H])[H])C([H])([H])[H])C(C([H])([H])[H])(C([H])([H])[H])C([H])([H])[H])C([H])([H])c2c([H])c(OC(C([H])([H])[H])(C([H])([H])[H])C([H])([H])C([H])([H])[N+]([H])([H])C3([H])C([H])([H])C3([H])c3c([H])c([H])c(N([H])C(=O)N4C([H])([H])C([H])([H])C([H])([H])C([H])(n5nc(-c6c([H])c([H])c(Oc7c([H])c([H])c(F)c([H])c7F)c([H])c6[H])c(C(=O)N([H])[H])c5N([H])[H])C4([H])[H])c([H])c3[H])c([H])c([H])c2C1([H])[H]

$$$$
96:0:0
     RDKit          3D

 97106  0  0  1  0  0  0  0  0999 V2000
  -30.0280  -20.7280   20.5730 C   0  0  0  0  0  3  0  0  0  0  0  0
  -27.4540  -23.1310   19.3860 C   0  0  0  0  0  2  0  0  0  0  0  0
  -28.1490  -21.7510   19.2670 C   0  0  0  0  0  2  0  0  0  0  0  0
  -29.7240  -23.2720   20.1280 C   0  0  0  0  0  3  0  0  0  0  0  0
  -28.3960  -24.0820   20.1850 C   0  0  2  0  0  0  0  0  0  0  0  0
  -30.8520  -23.7210   21.0790 C   0  0  0  0  0  1  0  0  0  0  0  0
  -27.8680  -24.1750   21.6370 C   0  0  0  0  0  1  0  0  0  0  0  0
  -29.3450  -21.8300   20.1240 N   0  0  0  0  0  0  0  0  0  0  0  0
  -30.8730  -20.8520   21.5920 N   0  0  0  0  0  0  0  0  0  0  0  0
  -31.4410  -20.0650   21.8650 H   0  0  0  0  0  0  0  0  0  0  0  0
  -30.9600  -21.7150   22.0990 H   0  0  0  0  0  0  0  0  0  0  0  0
  -30.3340  -18.1290   17.8650 C   0  0  0  0  0  3  0  0  0  0  0  0
  -30.1800  -19.3580   18.5280 C   0  0  0  0  0  3  0  0  0  0  0  0
  -30.2590  -16.9200   18.5830 C   0  0  0  0  0  3  0  0  0  0  0  0
  -29.8480  -18.1710   20.6420 C   0  0  0  0  0  3  0  0  0  0  0  0
  -29.9570  -19.4000   19.9210 C   0  0  0  0  0  0  0  0  0  0  0  0
  -30.0160  -16.9170   19.9810 C   0  0  0  0  0  0  0  0  0  0  0  0
  -30.6540  -14.5600   20.4420 C   0  0  0  0  0  0  0  0  0  0  0  0
  -30.3900  -12.3620   19.3820 C   0  0  0  0  0  2  0  0  0  0  0  0
  -29.4660  -12.5390   18.1590 C   0  0  0  0  0  2  0  0  0  0  0  0
  -27.9830  -12.4170   18.5650 C   0  0  0  0  0  2  0  0  0  0  0  0
  -27.6220  -13.2750   19.8030 C   0  0  0  0  0  3  0  0  0  0  0  0
  -28.6620  -13.0880   20.9340 C   0  0  0  0  0  2  0  0  0  0  0  0
  -29.9930  -13.3720   20.3790 N   0  0  0  0  0  0  0  0  0  0  0  0
  -31.8350  -14.6800   20.1010 O   0  0  0  0  0  0  0  0  0  0  0  0
  -29.8960  -15.6590   20.6790 N   0  0  0  0  0  0  0  0  0  0  0  0
  -29.0030  -15.4850   21.1110 H   0  0  0  0  0  0  0  0  0  0  0  0
  -25.2140  -13.9000   20.4600 C   0  0  0  0  0  0  0  0  0  0  0  0
  -24.1330  -13.1390   20.8200 C   0  0  0  0  0  0  0  0  0  0  0  0
  -24.5880  -11.7840   20.8200 C   0  0  0  0  0  0  0  0  0  0  0  0
  -26.2560  -13.0130   20.2610 N   0  0  0  0  0  0  0  0  0  0  0  0
  -25.8840  -11.7350   20.5380 N   0  0  0  0  0  0  0  0  0  0  0  0
  -23.8520  -10.5250   21.0150 C   0  0  0  0  0  0  0  0  0  0  0  0
  -24.2680   -9.5650   21.9650 C   0  0  0  0  0  3  0  0  0  0  0  0
  -23.5370   -8.3710   22.1470 C   0  0  0  0  0  3  0  0  0  0  0  0
  -22.3740   -8.1270   21.3790 C   0  0  0  0  0  0  0  0  0  0  0  0
  -21.9740   -9.0780   20.4230 C   0  0  0  0  0  3  0  0  0  0  0  0
  -22.7050  -10.2620   20.2400 C   0  0  0  0  0  3  0  0  0  0  0  0
  -21.6150   -6.9860   21.4680 O   0  0  0  0  0  0  0  0  0  0  0  0
  -21.5610   -6.2470   22.6240 C   0  0  0  0  0  0  0  0  0  0  0  0
  -21.1420   -6.8120   23.8470 C   0  0  0  0  0  3  0  0  0  0  0  0
  -21.0340   -6.0020   24.9950 C   0  0  0  0  0  3  0  0  0  0  0  0
  -21.3340   -4.6290   24.9200 C   0  0  0  0  0  0  0  0  0  0  0  0
  -21.7460   -4.0640   23.7000 C   0  0  0  0  0  3  0  0  0  0  0  0
  -21.8580   -4.8720   22.5540 C   0  0  0  0  0  0  0  0  0  0  0  0
  -22.2370   -4.3200   21.3760 F   0  0  0  0  0  0  0  0  0  0  0  0
  -21.2210   -3.8500   26.0200 F   0  0  0  0  0  0  0  0  0  0  0  0
  -22.7300  -13.6260   21.0450 C   0  0  0  0  0  0  0  0  0  0  0  0
  -21.9710  -12.9560   21.9030 N   0  0  0  0  0  0  0  0  0  0  0  0
  -22.3120  -14.6430   20.4910 O   0  0  0  0  0  0  0  0  0  0  0  0
  -22.3150  -12.1400   22.3870 H   0  0  0  0  0  0  0  0  0  0  0  0
  -21.0270  -13.2710   22.0810 H   0  0  0  0  0  0  0  0  0  0  0  0
  -25.3940  -15.2650   20.2550 N   0  0  0  0  0  0  0  0  0  0  0  0
  -24.6220  -15.9230   20.3130 H   0  0  0  0  0  0  0  0  0  0  0  0
  -26.2360  -15.6770   19.8730 H   0  0  0  0  0  0  0  0  0  0  0  0
  -28.5560  -25.4930   19.4830 C   0  0  0  0  0  2  0  0  0  0  0  0
  -28.3820  -26.6980   20.2530 O   0  0  0  0  0  0  0  0  0  0  0  0
  -24.5830  -31.9000   23.2500 C   0  0  0  0  0  0  0  0  0  0  0  0
  -27.2020  -27.4240   20.1890 C   0  0  0  0  0  0  0  0  0  0  0  0
  -23.3690  -30.4970   21.6160 C   0  0  0  0  0  3  0  0  0  0  0  0
  -24.8120  -28.9610   20.1790 C   0  0  0  0  0  0  0  0  0  0  0  0
  -25.8930  -30.8530   21.4020 C   0  0  0  0  0  2  0  0  0  0  0  0
  -25.9710  -29.4760   20.7710 C   0  0  0  0  0  0  0  0  0  0  0  0
  -27.1620  -28.7140   20.7730 C   0  0  0  0  0  3  0  0  0  0  0  0
  -26.0200  -26.9250   19.5930 C   0  0  0  0  0  3  0  0  0  0  0  0
  -24.8340  -27.6880   19.5820 C   0  0  0  0  0  3  0  0  0  0  0  0
  -23.5670  -29.8190   20.2320 C   0  0  0  0  0  2  0  0  0  0  0  0
  -24.6330  -31.0990   22.1470 N   0  0  0  0  0  0  0  0  0  0  0  0
  -23.5040  -32.1740   23.7960 O   0  0  0  0  0  0  0  0  0  0  0  0
  -22.7230  -29.4750   22.5800 C   0  0  0  0  0  0  0  0  0  0  0  0
  -21.4010  -29.2900   22.4570 N   0  0  0  0  0  0  0  0  0  0  0  0
  -23.4110  -28.8550   23.3950 O   0  0  0  0  0  0  0  0  0  0  0  0
  -20.9070  -29.8370   21.7680 H   0  0  0  0  0  0  0  0  0  0  0  0
  -18.0300  -28.0850   22.9560 C   0  0  0  0  0  0  0  0  0  0  0  0
  -20.5860  -28.3520   23.2320 C   0  0  0  0  0  3  0  0  0  0  0  0
  -20.6940  -26.9200   22.6620 C   0  0  0  0  0  2  0  0  0  0  0  0
  -19.5940  -26.5900   21.6460 C   0  0  0  0  0  2  0  0  0  0  0  0
  -18.2100  -26.7320   22.2870 C   0  0  0  0  0  2  0  0  0  0  0  0
  -19.1450  -28.8510   23.3840 C   0  0  0  0  0  0  0  0  0  0  0  0
  -18.9220  -30.1160   23.9690 C   0  0  0  0  0  3  0  0  0  0  0  0
  -17.6150  -30.6130   24.1330 C   0  0  0  0  0  3  0  0  0  0  0  0
  -16.5140  -29.8410   23.7240 C   0  0  0  0  0  3  0  0  0  0  0  0
  -16.7220  -28.5810   23.1380 C   0  0  0  0  0  3  0  0  0  0  0  0
  -25.8700  -32.5310   23.8630 C   0  0  0  0  0  3  0  0  0  0  0  0
  -25.5650  -33.9300   24.1910 N   0  0  0  0  0  0  0  0  0  0  0  0
  -25.9000  -34.9800   23.4290 C   0  0  0  0  0  0  0  0  0  0  0  0
  -26.5730  -34.8710   22.4000 O   0  0  0  0  0  0  0  0  0  0  0  0
  -24.9710  -34.0850   24.9910 H   0  0  0  0  0  0  0  0  0  0  0  0
  -24.1810  -36.7750   23.0610 C   0  0  0  0  0  1  0  0  0  0  0  0
  -25.4150  -36.3720   23.8810 C   0  0  0  0  0  3  0  0  0  0  0  0
  -27.5490  -37.2480   24.7210 C   0  0  0  0  0  1  0  0  0  0  0  0
  -26.4510  -37.4230   23.7730 N   0  0  0  0  0  0  0  0  0  0  0  0
  -26.0480  -38.3450   23.9190 H   0  0  0  0  0  0  0  0  0  0  0  0
  -26.3920  -31.7630   25.1390 C   0  0  1  0  0  0  0  0  0  0  0  0
  -25.3050  -31.5300   26.2140 C   0  0  0  0  0  1  0  0  0  0  0  0
  -26.9710  -30.3840   24.7420 C   0  0  0  0  0  1  0  0  0  0  0  0
  -27.5530  -32.5550   25.7880 C   0  0  0  0  0  1  0  0  0  0  0  0
  1  9  1  0
  2  5  1  0
  3  2  1  0
  3  8  1  0
  4  5  1  0
  4  6  1  0
  5  7  1  1
  8  4  1  0
  8  1  1  0
  9 10  1  0
  9 11  1  0
 12 13  2  0
 12 14  1  0
 13 16  1  0
 14 17  2  0
 16  1  1  0
 16 15  2  0
 17 15  1  0
 17 26  1  0
 18 26  1  0
 19 24  1  0
 20 21  1  0
 20 19  1  0
 22 21  1  0
 22 31  1  0
 22 23  1  0
 24 18  1  0
 24 23  1  0
 25 18  2  0
 26 27  1  0
 28 29  2  0
 29 48  1  0
 30 29  1  0
 30 33  1  0
 31 28  1  0
 31 32  1  0
 32 30  2  0
 33 34  1  0
 34 35  2  0
 36 39  1  0
 36 35  1  0
 37 36  2  0
 38 37  1  0
 38 33  2  0
 39 40  1  0
 40 41  1  0
 41 42  2  0
 43 42  1  0
 43 47  1  0
 44 43  2  0
 45 40  2  0
 45 44  1  0
 46 45  1  0
 48 49  1  0
 49 52  1  0
 49 51  1  0
 50 48  2  0
 53 54  1  0
 53 28  1  0
 55 53  1  0
 56  5  1  0
 56 57  1  0
 58 69  2  0
 59 57  1  0
 59 64  1  0
 60 68  1  0
 60 70  1  0
 61 67  1  0
 61 63  1  0
 62 68  1  0
 63 64  2  0
 63 62  1  0
 65 59  2  0
 66 65  1  0
 66 61  2  0
 67 60  1  0
 68 58  1  0
 70 72  2  0
 71 70  1  0
 73 71  1  0
 74 83  2  0
 74 79  1  0
 75 71  1  0
 75 79  1  0
 76 75  1  0
 77 78  1  0
 77 76  1  0
 78 74  1  0
 79 80  2  0
 80 81  1  0
 82 81  2  0
 83 82  1  0
 84 58  1  0
 84 85  1  0
 84 94  1  0
 85 88  1  0
 86 90  1  0
 86 85  1  0
 87 86  2  0
 90 89  1  0
 92 90  1  0
 92 93  1  0
 92 91  1  0
 94 97  1  1
 94 95  1  0
 96 94  1  0
M  ISO  4  18 100  26 100  56 101  57 101
M  END
>  <TORSDO>  (96) 
F 18

>  <SCORE>  (96) 
-14.809

>  <name>  (96) 
96

>  <ligand_id>  (96) 
96

>  <original_smiles>  (96) 
[H]c1c([H])c(C(N2C([H])([H])C([H])([H])C(C([H])([H])[H])(C([H])([H])Oc3c([H])c([H])c4c(c3[H])C([H])([H])N(C(=O)C([H])(N([H])C(=O)C([H])(N([H])C([H])([H])[H])C([H])([H])[H])C(C([H])([H])[H])(C([H])([H])[H])C([H])([H])[H])C([H])(C(=O)N([H])C3([H])c5c([H])c([H])c([H])c([H])c5C([H])([H])C([H])([H])C3([H])[H])C4([H])[H])C2([H])C([H])([H])[H])=[N+]([H])[H])c([H])c(N([H])C(=O)N2C([H])([H])C([H])([H])C([H])([H])C([H])(n3nc(-c4c([H])c([H])c(Oc5c([H])c([H])c(F)c([H])c5F)c([H])c4[H])c(C(=O)N([H])[H])c3N([H])[H])C2([H])[H])c1[H]

>  <smiles>  (96) 
[H]c1c([H])c(C(N2C([H])([H])C([H])([H])C(C([H])([H])[H])(C([H])([H])Oc3c([H])c([H])c4c(c3[H])C([H])([H])N(C(=O)C([H])(N([H])C(=O)C([H])(N([H])C([H])([H])[H])C([H])([H])[H])C(C([H])([H])[H])(C([H])([H])[H])C([H])([H])[H])C([H])(C(=O)N([H])C3([H])c5c([H])c([H])c([H])c([H])c5C([H])([H])C([H])([H])C3([H])[H])C4([H])[H])C2([H])C([H])([H])[H])=[N+]([H])[H])c([H])c(N([H])C(=O)N2C([H])([H])C([H])([H])C([H])([H])C([H])(n3nc(-c4c([H])c([H])c(Oc5c([H])c([H])c(F)c([H])c5F)c([H])c4[H])c(C(=O)N([H])[H])c3N([H])[H])C2([H])[H])c1[H]

$$$$
97:0:0
     RDKit          3D

 89 97  0  0  1  0  0  0  0  0999 V2000
  -28.6130  -22.3730   18.1280 C   0  0  0  0  0  1  0  0  0  0  0  0
  -28.5830  -22.2730   19.6720 C   0  0  0  0  0  3  0  0  0  0  0  0
  -29.3760  -19.6430   19.3930 C   0  0  0  0  0  3  0  0  0  0  0  0
  -29.5470  -20.4440   21.4140 C   0  0  0  0  0  3  0  0  0  0  0  0
  -29.1880  -20.8720   20.1570 C   0  0  0  0  0  0  0  0  0  0  0  0
  -29.8150  -18.5940   20.1900 C   0  0  0  0  0  0  0  0  0  0  0  0
  -29.8910  -19.0980   21.4580 O   0  0  0  0  0  0  0  0  0  0  0  0
  -30.2190  -17.1830   19.9360 C   0  0  0  0  0  3  0  0  0  0  0  0
  -30.1210  -15.9630   20.5890 C   0  0  0  0  0  3  0  0  0  0  0  0
  -30.8110  -14.7170   20.1040 C   0  0  0  0  0  0  0  0  0  0  0  0
  -30.4930  -12.4790   19.0640 C   0  0  0  0  0  2  0  0  0  0  0  0
  -29.5260  -12.6250   17.8680 C   0  0  0  0  0  2  0  0  0  0  0  0
  -28.0660  -12.4790   18.3390 C   0  0  0  0  0  2  0  0  0  0  0  0
  -27.7570  -13.3500   19.5870 C   0  0  0  0  0  3  0  0  0  0  0  0
  -28.8440  -13.1980   20.6760 C   0  0  0  0  0  2  0  0  0  0  0  0
  -30.1390  -13.5170   20.0630 N   0  0  0  0  0  0  0  0  0  0  0  0
  -31.9570  -14.7730   19.6470 O   0  0  0  0  0  0  0  0  0  0  0  0
  -25.3990  -13.9720   20.3780 C   0  0  0  0  0  0  0  0  0  0  0  0
  -24.3350  -13.2110   20.7790 C   0  0  0  0  0  0  0  0  0  0  0  0
  -24.7780  -11.8540   20.7370 C   0  0  0  0  0  0  0  0  0  0  0  0
  -26.4240  -13.0790   20.1140 N   0  0  0  0  0  0  0  0  0  0  0  0
  -26.0590  -11.8010   20.3930 N   0  0  0  0  0  0  0  0  0  0  0  0
  -24.0430  -10.6000   20.9470 C   0  0  0  0  0  0  0  0  0  0  0  0
  -24.4810   -9.6300   21.8740 C   0  0  0  0  0  3  0  0  0  0  0  0
  -23.7440   -8.4420   22.0680 C   0  0  0  0  0  3  0  0  0  0  0  0
  -22.5540   -8.2160   21.3370 C   0  0  0  0  0  0  0  0  0  0  0  0
  -22.1350   -9.1720   20.3960 C   0  0  0  0  0  3  0  0  0  0  0  0
  -22.8750  -10.3520   20.2000 C   0  0  0  0  0  3  0  0  0  0  0  0
  -21.7860   -7.0800   21.4440 O   0  0  0  0  0  0  0  0  0  0  0  0
  -21.7330   -6.3540   22.6060 C   0  0  0  0  0  0  0  0  0  0  0  0
  -21.3110   -6.9250   23.8260 C   0  0  0  0  0  3  0  0  0  0  0  0
  -21.2090   -6.1240   24.9810 C   0  0  0  0  0  3  0  0  0  0  0  0
  -21.5170   -4.7520   24.9160 C   0  0  0  0  0  0  0  0  0  0  0  0
  -21.9310   -4.1790   23.7010 C   0  0  0  0  0  3  0  0  0  0  0  0
  -22.0340   -4.9770   22.5490 C   0  0  0  0  0  0  0  0  0  0  0  0
  -22.4140   -4.4160   21.3750 F   0  0  0  0  0  0  0  0  0  0  0  0
  -21.4080   -3.9790   26.0220 F   0  0  0  0  0  0  0  0  0  0  0  0
  -22.9540  -13.7050   21.0950 C   0  0  0  0  0  0  0  0  0  0  0  0
  -22.2470  -13.0200   21.9870 N   0  0  0  0  0  0  0  0  0  0  0  0
  -22.5110  -14.7320   20.5810 O   0  0  0  0  0  0  0  0  0  0  0  0
  -22.6180  -12.1860   22.4220 H   0  0  0  0  0  0  0  0  0  0  0  0
  -21.3220  -13.3340   22.2420 H   0  0  0  0  0  0  0  0  0  0  0  0
  -25.5850  -15.3410   20.2020 N   0  0  0  0  0  0  0  0  0  0  0  0
  -24.8470  -16.0200   20.3540 H   0  0  0  0  0  0  0  0  0  0  0  0
  -26.4540  -15.7570   19.8870 H   0  0  0  0  0  0  0  0  0  0  0  0
  -28.9890  -23.7010   20.2800 C   0  0  0  0  0  0  0  0  0  0  0  0
  -30.0810  -23.8680   20.8320 O   0  0  0  0  0  0  0  0  0  0  0  0
  -27.9380  -24.8920   20.1440 C   0  0  0  0  0  2  0  0  0  0  0  0
  -28.3520  -26.3360   20.2260 O   0  0  0  0  0  0  0  0  0  0  0  0
  -24.6270  -31.8340   23.1710 C   0  0  0  0  0  0  0  0  0  0  0  0
  -27.2860  -27.2650   20.1290 C   0  0  0  0  0  0  0  0  0  0  0  0
  -23.4570  -30.4430   21.5050 C   0  0  0  0  0  3  0  0  0  0  0  0
  -24.9360  -28.9150   20.0880 C   0  0  0  0  0  0  0  0  0  0  0  0
  -26.0060  -30.7630   21.3690 C   0  0  0  0  0  2  0  0  0  0  0  0
  -26.0990  -29.3860   20.7110 C   0  0  0  0  0  0  0  0  0  0  0  0
  -27.2790  -28.5740   20.7190 C   0  0  0  0  0  3  0  0  0  0  0  0
  -26.1030  -26.8800   19.4550 C   0  0  0  0  0  3  0  0  0  0  0  0
  -24.9440  -27.6740   19.4460 C   0  0  0  0  0  3  0  0  0  0  0  0
  -23.6960  -29.7830   20.1230 C   0  0  0  0  0  2  0  0  0  0  0  0
  -24.7150  -31.0320   22.0690 N   0  0  0  0  0  0  0  0  0  0  0  0
  -23.5310  -32.1000   23.6890 O   0  0  0  0  0  0  0  0  0  0  0  0
  -22.7850  -29.4140   22.4490 C   0  0  0  0  0  0  0  0  0  0  0  0
  -21.4580  -29.2400   22.3120 N   0  0  0  0  0  0  0  0  0  0  0  0
  -23.4580  -28.7790   23.2630 O   0  0  0  0  0  0  0  0  0  0  0  0
  -20.9740  -29.8010   21.6240 H   0  0  0  0  0  0  0  0  0  0  0  0
  -18.0770  -28.0430   22.7930 C   0  0  0  0  0  0  0  0  0  0  0  0
  -20.6360  -28.2970   23.0730 C   0  0  0  0  0  3  0  0  0  0  0  0
  -20.7370  -26.8710   22.4790 C   0  0  0  0  0  2  0  0  0  0  0  0
  -19.6390  -26.5660   21.4530 C   0  0  0  0  0  2  0  0  0  0  0  0
  -18.2550  -26.7050   22.0960 C   0  0  0  0  0  2  0  0  0  0  0  0
  -19.1950  -28.7990   23.2340 C   0  0  0  0  0  0  0  0  0  0  0  0
  -18.9770  -30.0570   23.8410 C   0  0  0  0  0  3  0  0  0  0  0  0
  -17.6700  -30.5590   24.0060 C   0  0  0  0  0  3  0  0  0  0  0  0
  -16.5670  -29.7960   23.5780 C   0  0  0  0  0  3  0  0  0  0  0  0
  -16.7710  -28.5410   22.9810 C   0  0  0  0  0  3  0  0  0  0  0  0
  -25.8920  -32.4750   23.8190 C   0  0  0  0  0  3  0  0  0  0  0  0
  -26.3980  -31.6960   25.0940 C   0  0  1  0  0  0  0  0  0  0  0  0
  -25.2940  -31.4390   26.1460 C   0  0  0  0  0  1  0  0  0  0  0  0
  -26.9990  -30.3270   24.6990 C   0  0  0  0  0  1  0  0  0  0  0  0
  -27.5350  -32.4920   25.7740 C   0  0  0  0  0  1  0  0  0  0  0  0
  -25.5610  -33.8660   24.1560 N   0  0  0  0  0  0  0  0  0  0  0  0
  -25.8850  -34.9290   23.4050 C   0  0  0  0  0  0  0  0  0  0  0  0
  -26.5570  -34.8420   22.3750 O   0  0  0  0  0  0  0  0  0  0  0  0
  -24.9660  -34.0090   24.9600 H   0  0  0  0  0  0  0  0  0  0  0  0
  -24.1340  -36.7030   23.0680 C   0  0  0  0  0  1  0  0  0  0  0  0
  -25.3790  -36.3070   23.8770 C   0  0  0  0  0  3  0  0  0  0  0  0
  -27.5010  -37.2130   24.7170 C   0  0  0  0  0  1  0  0  0  0  0  0
  -26.3980  -37.3740   23.7720 N   0  0  0  0  0  0  0  0  0  0  0  0
  -25.9800  -38.2880   23.9220 H   0  0  0  0  0  0  0  0  0  0  0  0
  2  1  1  0
  2  5  1  0
  2 46  1  0
  3  5  1  0
  3  6  2  0
  4  7  1  0
  5  4  2  0
  6  7  1  0
  8  6  1  0
  8  9  2  0
 10  9  1  0
 11 16  1  0
 12 13  1  0
 12 11  1  0
 14 13  1  0
 14 21  1  0
 14 15  1  0
 16 10  1  0
 16 15  1  0
 17 10  2  0
 18 19  2  0
 19 38  1  0
 20 19  1  0
 20 23  1  0
 21 18  1  0
 21 22  1  0
 22 20  2  0
 23 24  1  0
 24 25  2  0
 26 29  1  0
 26 25  1  0
 27 26  2  0
 28 27  1  0
 28 23  2  0
 29 30  1  0
 30 31  1  0
 31 32  2  0
 33 32  1  0
 33 37  1  0
 34 33  2  0
 35 30  2  0
 35 34  1  0
 36 35  1  0
 38 39  1  0
 39 42  1  0
 39 41  1  0
 40 38  2  0
 43 44  1  0
 43 18  1  0
 45 43  1  0
 46 47  2  0
 48 49  1  0
 48 46  1  0
 50 61  2  0
 51 49  1  0
 51 56  1  0
 52 60  1  0
 52 62  1  0
 53 59  1  0
 53 55  1  0
 54 60  1  0
 55 56  2  0
 55 54  1  0
 57 51  2  0
 58 57  1  0
 58 53  2  0
 59 52  1  0
 60 50  1  0
 62 64  2  0
 63 62  1  0
 65 63  1  0
 66 75  2  0
 66 71  1  0
 67 63  1  0
 67 71  1  0
 68 67  1  0
 69 70  1  0
 69 68  1  0
 70 66  1  0
 71 72  2  0
 72 73  1  0
 74 73  2  0
 75 74  1  0
 76 50  1  0
 76 81  1  0
 76 77  1  0
 77 80  1  1
 77 78  1  0
 79 77  1  0
 81 84  1  0
 82 86  1  0
 82 81  1  0
 83 82  2  0
 86 85  1  0
 88 86  1  0
 88 89  1  0
 88 87  1  0
M  ISO  4   9 100  10 100  48 101  49 101
M  END
>  <TORSDO>  (97) 
F 20

>  <SCORE>  (97) 
-13.598

>  <name>  (97) 
97

>  <ligand_id>  (97) 
97

>  <original_smiles>  (97) 
[H]C(C(=O)N1C([H])([H])C([H])([H])C([H])([H])C([H])(n2nc(-c3c([H])c([H])c(Oc4c([H])c([H])c(F)c([H])c4F)c([H])c3[H])c(C(=O)N([H])[H])c2N([H])[H])C1([H])[H])=C([H])c1oc([H])c(C([H])(C(=O)C([H])([H])Oc2c([H])c([H])c3c(c2[H])C([H])([H])N(C(=O)C([H])(N([H])C(=O)C([H])(N([H])C([H])([H])[H])C([H])([H])[H])C(C([H])([H])[H])(C([H])([H])[H])C([H])([H])[H])C([H])(C(=O)N([H])C2([H])c4c([H])c([H])c([H])c([H])c4C([H])([H])C([H])([H])C2([H])[H])C3([H])[H])C([H])([H])[H])c1[H]

>  <smiles>  (97) 
[H]C(C(=O)N1C([H])([H])C([H])([H])C([H])([H])C([H])(n2nc(-c3c([H])c([H])c(Oc4c([H])c([H])c(F)c([H])c4F)c([H])c3[H])c(C(=O)N([H])[H])c2N([H])[H])C1([H])[H])=C([H])c1oc([H])c(C([H])(C(=O)C([H])([H])Oc2c([H])c([H])c3c(c2[H])C([H])([H])N(C(=O)C([H])(N([H])C(=O)C([H])(N([H])C([H])([H])[H])C([H])([H])[H])C(C([H])([H])[H])(C([H])([H])[H])C([H])([H])[H])C([H])(C(=O)N([H])C2([H])c4c([H])c([H])c([H])c([H])c4C([H])([H])C([H])([H])C2([H])[H])C3([H])[H])C([H])([H])[H])c1[H]

$$$$
