0:0:0
     RDKit          3D

 97105  0  0  1  0  0  0  0  0999 V2000
  -30.3190  -20.6470   20.7680 C   0  0  0  0  0  0  0  0  0  0  0  0
  -29.7250  -21.7860   20.3130 N   0  0  0  0  0  0  0  0  0  0  0  0
  -31.3970  -20.7920   21.5360 N   0  0  0  0  0  4  0  0  0  0  0  0
  -29.0340  -21.7050   19.5740 H   0  0  0  0  0  0  0  0  0  0  0  0
  -31.8200  -21.6850   21.7280 H   0  0  0  0  0  0  0  0  0  0  0  0
  -31.8800  -19.9530   21.8330 H   0  0  0  0  0  0  0  0  0  0  0  0
  -27.7190  -18.0030   20.0200 C   0  0  0  0  0  3  0  0  0  0  0  0
  -28.3950  -19.2260   20.1220 C   0  0  0  0  0  3  0  0  0  0  0  0
  -28.3870  -16.8070   20.3250 C   0  0  0  0  0  3  0  0  0  0  0  0
  -29.7520  -19.2810   20.5180 C   0  0  0  0  0  0  0  0  0  0  0  0
  -29.7510  -16.7800   20.6620 C   0  0  0  0  0  0  0  0  0  0  0  0
  -30.4410  -18.0350   20.7650 C   0  0  0  0  0  0  0  0  0  0  0  0
  -31.7320  -18.0450   21.1820 F   0  0  0  0  0  0  0  0  0  0  0  0
  -30.7780  -14.5340   20.2290 C   0  0  0  0  0  0  0  0  0  0  0  0
  -30.4230  -12.3430   19.1070 C   0  0  0  0  0  2  0  0  0  0  0  0
  -29.4480  -12.5120   17.9210 C   0  0  0  0  0  2  0  0  0  0  0  0
  -27.9890  -12.3710   18.3920 C   0  0  0  0  0  2  0  0  0  0  0  0
  -27.6860  -13.2440   19.6360 C   0  0  0  0  0  3  0  0  0  0  0  0
  -28.7710  -13.0590   20.7260 C   0  0  0  0  0  2  0  0  0  0  0  0
  -30.0920  -13.3520   20.1360 N   0  0  0  0  0  0  0  0  0  0  0  0
  -31.8280  -14.7340   19.6140 O   0  0  0  0  0  0  0  0  0  0  0  0
  -30.2530  -15.4780   21.0450 N   0  0  0  0  0  0  0  0  0  0  0  0
  -29.6210  -15.0190   21.6820 H   0  0  0  0  0  0  0  0  0  0  0  0
  -25.3100  -13.8940   20.4080 C   0  0  0  0  0  0  0  0  0  0  0  0
  -24.2450  -13.1460   20.8240 C   0  0  0  0  0  0  0  0  0  0  0  0
  -24.6790  -11.7870   20.7740 C   0  0  0  0  0  0  0  0  0  0  0  0
  -26.3380  -12.9970   20.1510 N   0  0  0  0  0  0  0  0  0  0  0  0
  -25.9590  -11.7230   20.4280 N   0  0  0  0  0  0  0  0  0  0  0  0
  -23.9290  -10.5410   20.9760 C   0  0  0  0  0  0  0  0  0  0  0  0
  -24.3630   -9.5600   21.8930 C   0  0  0  0  0  3  0  0  0  0  0  0
  -23.6130   -8.3790   22.0850 C   0  0  0  0  0  3  0  0  0  0  0  0
  -22.4160   -8.1730   21.3590 C   0  0  0  0  0  0  0  0  0  0  0  0
  -22.0000   -9.1430   20.4310 C   0  0  0  0  0  3  0  0  0  0  0  0
  -22.7500  -10.3150   20.2380 C   0  0  0  0  0  3  0  0  0  0  0  0
  -21.6380   -7.0450   21.4600 O   0  0  0  0  0  0  0  0  0  0  0  0
  -21.6030   -6.2990   22.6100 C   0  0  0  0  0  0  0  0  0  0  0  0
  -21.2120   -6.8550   23.8490 C   0  0  0  0  0  3  0  0  0  0  0  0
  -21.1240   -6.0340   24.9900 C   0  0  0  0  0  3  0  0  0  0  0  0
  -21.4160   -4.6600   24.8960 C   0  0  0  0  0  0  0  0  0  0  0  0
  -21.7990   -4.1040   23.6630 C   0  0  0  0  0  3  0  0  0  0  0  0
  -21.8900   -4.9220   22.5230 C   0  0  0  0  0  0  0  0  0  0  0  0
  -22.2420   -4.3790   21.3320 F   0  0  0  0  0  0  0  0  0  0  0  0
  -21.3240   -3.8700   25.9910 F   0  0  0  0  0  0  0  0  0  0  0  0
  -22.8690  -13.6560   21.1360 C   0  0  0  0  0  0  0  0  0  0  0  0
  -22.1460  -12.9800   22.0210 N   0  0  0  0  0  0  0  0  0  0  0  0
  -22.4420  -14.6930   20.6280 O   0  0  0  0  0  0  0  0  0  0  0  0
  -22.5020  -12.1410   22.4550 H   0  0  0  0  0  0  0  0  0  0  0  0
  -21.2230  -13.3080   22.2700 H   0  0  0  0  0  0  0  0  0  0  0  0
  -25.4610  -15.2570   20.1930 N   0  0  0  0  0  0  0  0  0  0  0  0
  -24.6170  -15.8180   20.2120 H   0  0  0  0  0  0  0  0  0  0  0  0
  -26.1250  -15.5830   19.5030 H   0  0  0  0  0  0  0  0  0  0  0  0
  -29.9750  -23.2190   20.6820 C   0  0  0  0  0  2  0  0  0  0  0  0
  -28.9410  -24.1700   20.0300 C   0  0  0  0  0  0  0  0  0  0  0  0
  -28.5130  -23.9330   18.8600 N   0  0  0  0  0  0  0  0  0  0  0  0
  -27.8520  -24.6450   18.5720 H   0  0  0  0  0  0  0  0  0  0  0  0
  -28.4200  -25.3820   20.8560 C   0  0  0  0  0  2  0  0  0  0  0  0
  -28.4150  -26.6660   20.1690 O   0  0  0  0  0  0  0  0  0  0  0  0
  -24.5650  -31.8990   23.2200 C   0  0  0  0  0  0  0  0  0  0  0  0
  -27.2420  -27.4070   20.2030 C   0  0  0  0  0  0  0  0  0  0  0  0
  -23.3730  -30.4860   21.5790 C   0  0  0  0  0  3  0  0  0  0  0  0
  -24.8410  -28.9290   20.1810 C   0  0  0  0  0  0  0  0  0  0  0  0
  -25.9020  -30.8380   21.3970 C   0  0  0  0  0  2  0  0  0  0  0  0
  -25.9960  -29.4560   20.7710 C   0  0  0  0  0  0  0  0  0  0  0  0
  -27.2000  -28.7070   20.7710 C   0  0  0  0  0  3  0  0  0  0  0  0
  -26.0660  -26.8970   19.6130 C   0  0  0  0  0  3  0  0  0  0  0  0
  -24.8720  -27.6490   19.5970 C   0  0  0  0  0  3  0  0  0  0  0  0
  -23.5940  -29.7910   20.2080 C   0  0  0  0  0  2  0  0  0  0  0  0
  -24.6310  -31.0910   22.1240 N   0  0  0  0  0  0  0  0  0  0  0  0
  -23.4790  -32.1750   23.7510 O   0  0  0  0  0  0  0  0  0  0  0  0
  -22.7120  -29.4750   22.5440 C   0  0  0  0  0  0  0  0  0  0  0  0
  -21.3850  -29.3040   22.4180 N   0  0  0  0  0  0  0  0  0  0  0  0
  -23.3900  -28.8460   23.3610 O   0  0  0  0  0  0  0  0  0  0  0  0
  -20.9000  -29.8620   21.7280 H   0  0  0  0  0  0  0  0  0  0  0  0
  -17.9960  -28.1550   22.9340 C   0  0  0  0  0  0  0  0  0  0  0  0
  -20.5600  -28.3740   23.1880 C   0  0  0  0  0  3  0  0  0  0  0  0
  -20.6370  -26.9450   22.6010 C   0  0  0  0  0  2  0  0  0  0  0  0
  -19.5230  -26.6450   21.5950 C   0  0  0  0  0  2  0  0  0  0  0  0
  -18.1470  -26.8070   22.2500 C   0  0  0  0  0  2  0  0  0  0  0  0
  -19.1300  -28.8980   23.3610 C   0  0  0  0  0  0  0  0  0  0  0  0
  -18.9340  -30.1610   23.9610 C   0  0  0  0  0  3  0  0  0  0  0  0
  -17.6380  -30.6790   24.1410 C   0  0  0  0  0  3  0  0  0  0  0  0
  -16.5190  -29.9330   23.7310 C   0  0  0  0  0  3  0  0  0  0  0  0
  -16.6990  -28.6730   23.1310 C   0  0  0  0  0  3  0  0  0  0  0  0
  -25.8450  -32.5360   23.8470 C   0  0  0  0  0  3  0  0  0  0  0  0
  -26.3540  -31.7720   25.1300 C   0  0  1  0  0  0  0  0  0  0  0  0
  -25.2540  -31.5350   26.1920 C   0  0  0  0  0  1  0  0  0  0  0  0
  -26.9420  -30.3950   24.7450 C   0  0  0  0  0  1  0  0  0  0  0  0
  -27.4960  -32.5730   25.7980 C   0  0  0  0  0  1  0  0  0  0  0  0
  -25.5310  -33.9360   24.1690 N   0  0  0  0  0  0  0  0  0  0  0  0
  -25.8800  -34.9860   23.4140 C   0  0  0  0  0  0  0  0  0  0  0  0
  -26.5700  -34.8790   22.3950 O   0  0  0  0  0  0  0  0  0  0  0  0
  -24.9230  -34.0920   24.9570 H   0  0  0  0  0  0  0  0  0  0  0  0
  -24.1730  -36.7880   23.0110 C   0  0  0  0  0  1  0  0  0  0  0  0
  -25.3860  -36.3760   23.8580 C   0  0  0  0  0  3  0  0  0  0  0  0
  -27.4970  -37.2510   24.7580 C   0  0  0  0  0  1  0  0  0  0  0  0
  -26.4280  -37.4230   23.7790 N   0  0  0  0  0  0  0  0  0  0  0  0
  -26.0220  -38.3460   23.9080 H   0  0  0  0  0  0  0  0  0  0  0  0
  1  3  2  0
  2 52  1  0
  2  1  1  0
  3  5  1  0
  3  6  1  0
  4  2  1  0
  7  8  2  0
  7  9  1  0
  8 10  1  0
  9 11  2  0
 10 12  2  0
 10  1  1  0
 11 12  1  0
 11 22  1  0
 12 13  1  0
 14 22  1  0
 15 20  1  0
 16 17  1  0
 16 15  1  0
 18 17  1  0
 18 27  1  0
 18 19  1  0
 20 14  1  0
 20 19  1  0
 21 14  2  0
 22 23  1  0
 24 25  2  0
 25 44  1  0
 26 25  1  0
 26 29  1  0
 27 24  1  0
 27 28  1  0
 28 26  2  0
 29 30  1  0
 30 31  2  0
 32 35  1  0
 32 31  1  0
 33 32  2  0
 34 33  1  0
 34 29  2  0
 35 36  1  0
 36 37  1  0
 37 38  2  0
 39 38  1  0
 39 43  1  0
 40 39  2  0
 41 36  2  0
 41 40  1  0
 42 41  1  0
 44 45  1  0
 45 48  1  0
 45 47  1  0
 46 44  2  0
 49 50  1  0
 49 24  1  0
 51 49  1  0
 53 52  1  0
 53 56  1  0
 54 53  2  0
 55 54  1  0
 57 59  1  0
 57 56  1  0
 58 69  2  0
 59 64  1  0
 60 68  1  0
 60 70  1  0
 61 67  1  0
 61 63  1  0
 62 68  1  0
 63 62  1  0
 64 63  2  0
 65 59  2  0
 66 65  1  0
 66 61  2  0
 67 60  1  0
 68 58  1  0
 70 72  2  0
 71 70  1  0
 73 71  1  0
 74 83  2  0
 74 79  1  0
 75 71  1  0
 75 79  1  0
 76 75  1  0
 77 78  1  0
 77 76  1  0
 78 74  1  0
 79 80  2  0
 80 81  1  0
 82 81  2  0
 83 82  1  0
 84 58  1  0
 84 89  1  0
 84 85  1  0
 85 88  1  1
 85 86  1  0
 87 85  1  0
 89 92  1  0
 90 94  1  0
 90 89  1  0
 91 90  2  0
 94 93  1  0
 96 94  1  0
 96 97  1  0
 96 95  1  0
M  ISO  4  14 100  22 100  56 101  57 101
M  END
>  <TORSDO>  (1) 
F 20

>  <SCORE>  (1) 
-14.407

>  <name>  (1) 
0

>  <ligand_id>  (1) 
0

>  <original_smiles>  (1) 
[H]N=C(C([H])([H])Oc1c([H])c([H])c2c(c1[H])C([H])([H])N(C(=O)C([H])(N([H])C(=O)C([H])(N([H])C([H])([H])[H])C([H])([H])[H])C(C([H])([H])[H])(C([H])([H])[H])C([H])([H])[H])C([H])(C(=O)N([H])C1([H])c3c([H])c([H])c([H])c([H])c3C([H])([H])C([H])([H])C1([H])[H])C2([H])[H])C([H])([H])N([H])C(c1c([H])c([H])c([H])c(N([H])C(=O)N2C([H])([H])C([H])([H])C([H])([H])C([H])(n3nc(-c4c([H])c([H])c(Oc5c([H])c([H])c(F)c([H])c5F)c([H])c4[H])c(C(=O)N([H])[H])c3N([H])[H])C2([H])[H])c1F)=[N+]([H])[H]

>  <smiles>  (1) 
[H]N=C(C([H])([H])Oc1c([H])c([H])c2c(c1[H])C([H])([H])N(C(=O)C([H])(N([H])C(=O)C([H])(N([H])C([H])([H])[H])C([H])([H])[H])C(C([H])([H])[H])(C([H])([H])[H])C([H])([H])[H])C([H])(C(=O)N([H])C1([H])c3c([H])c([H])c([H])c([H])c3C([H])([H])C([H])([H])C1([H])[H])C2([H])[H])C([H])([H])N([H])C(c1c([H])c([H])c([H])c(N([H])C(=O)N2C([H])([H])C([H])([H])C([H])([H])C([H])(n3nc(-c4c([H])c([H])c(Oc5c([H])c([H])c(F)c([H])c5F)c([H])c4[H])c(C(=O)N([H])[H])c3N([H])[H])C2([H])[H])c1F)=[N+]([H])[H]

$$$$
1:0:0
     RDKit          3D

 93101  0  0  1  0  0  0  0  0999 V2000
  -30.8840  -18.1780   20.3770 C   0  0  0  0  0  0  0  0  0  0  0  0
  -29.8050  -17.2820   20.3700 C   0  0  0  0  0  0  0  0  0  0  0  0
  -29.2380  -19.8410   20.2310 C   0  0  0  0  0  0  0  0  0  0  0  0
  -30.5420  -19.5620   20.2310 N   0  0  0  0  0  0  0  0  0  0  0  0
  -28.6560  -21.1610   20.1820 N   0  0  0  0  0  0  0  0  0  0  0  0
  -28.3270  -18.2980   20.3110 S   0  0  0  0  0  0  0  0  0  0  0  0
  -27.6470  -21.1230   20.3030 H   0  0  0  0  0  0  0  0  0  0  0  0
  -30.4550  -14.8080   20.0120 C   0  0  0  0  0  0  0  0  0  0  0  0
  -30.1990  -12.5740   18.9250 C   0  0  0  0  0  2  0  0  0  0  0  0
  -29.1750  -12.7040   17.7760 C   0  0  0  0  0  2  0  0  0  0  0  0
  -27.7380  -12.5140   18.2980 C   0  0  0  0  0  2  0  0  0  0  0  0
  -27.4540  -13.3430   19.5790 C   0  0  0  0  0  3  0  0  0  0  0  0
  -28.5890  -13.1950   20.6180 C   0  0  0  0  0  2  0  0  0  0  0  0
  -29.8450  -13.5750   19.9570 N   0  0  0  0  0  0  0  0  0  0  0  0
  -31.5760  -14.9570   19.5220 O   0  0  0  0  0  0  0  0  0  0  0  0
  -29.6890  -15.8760   20.4550 N   0  0  0  0  0  0  0  0  0  0  0  0
  -28.7850  -15.5630   20.7770 H   0  0  0  0  0  0  0  0  0  0  0  0
  -25.1160  -13.8950   20.4800 C   0  0  0  0  0  0  0  0  0  0  0  0
  -24.0820  -13.1020   20.8990 C   0  0  0  0  0  0  0  0  0  0  0  0
  -24.5500  -11.7570   20.7960 C   0  0  0  0  0  0  0  0  0  0  0  0
  -26.1470  -13.0310   20.1480 N   0  0  0  0  0  0  0  0  0  0  0  0
  -25.8170  -11.7390   20.3990 N   0  0  0  0  0  0  0  0  0  0  0  0
  -23.8460  -10.4840   20.9970 C   0  0  0  0  0  0  0  0  0  0  0  0
  -24.3260   -9.5070   21.8980 C   0  0  0  0  0  3  0  0  0  0  0  0
  -23.6190   -8.3000   22.0880 C   0  0  0  0  0  3  0  0  0  0  0  0
  -22.4200   -8.0600   21.3770 C   0  0  0  0  0  0  0  0  0  0  0  0
  -21.9590   -9.0250   20.4640 C   0  0  0  0  0  3  0  0  0  0  0  0
  -22.6660  -10.2240   20.2720 C   0  0  0  0  0  3  0  0  0  0  0  0
  -21.6810   -6.9050   21.4780 O   0  0  0  0  0  0  0  0  0  0  0  0
  -21.6670   -6.1590   22.6300 C   0  0  0  0  0  0  0  0  0  0  0  0
  -21.2350   -6.6970   23.8610 C   0  0  0  0  0  3  0  0  0  0  0  0
  -21.1690   -5.8750   25.0040 C   0  0  0  0  0  3  0  0  0  0  0  0
  -21.5280   -4.5170   24.9170 C   0  0  0  0  0  0  0  0  0  0  0  0
  -21.9530   -3.9780   23.6900 C   0  0  0  0  0  3  0  0  0  0  0  0
  -22.0190   -4.7970   22.5490 C   0  0  0  0  0  0  0  0  0  0  0  0
  -22.4100   -4.2680   21.3650 F   0  0  0  0  0  0  0  0  0  0  0  0
  -21.4580   -3.7260   26.0120 F   0  0  0  0  0  0  0  0  0  0  0  0
  -22.7040  -13.5610   21.2790 C   0  0  0  0  0  0  0  0  0  0  0  0
  -22.0380  -12.8290   22.1660 N   0  0  0  0  0  0  0  0  0  0  0  0
  -22.2280  -14.6010   20.8260 O   0  0  0  0  0  0  0  0  0  0  0  0
  -22.4360  -11.9860   22.5530 H   0  0  0  0  0  0  0  0  0  0  0  0
  -21.1160  -13.1170   22.4620 H   0  0  0  0  0  0  0  0  0  0  0  0
  -25.2580  -15.2720   20.3320 N   0  0  0  0  0  0  0  0  0  0  0  0
  -24.4910  -15.9120   20.5100 H   0  0  0  0  0  0  0  0  0  0  0  0
  -26.0630  -15.7280   19.9220 H   0  0  0  0  0  0  0  0  0  0  0  0
  -32.2890  -17.8440   20.6340 C   0  0  0  0  0  0  0  0  0  0  0  0
  -33.3130  -18.7150   19.9170 C   0  0  0  0  0  1  0  0  0  0  0  0
  -32.6930  -16.9780   21.4180 O   0  0  0  0  0  0  0  0  0  0  0  0
  -29.0810  -22.5670   19.8060 C   0  0  0  0  0  2  0  0  0  0  0  0
  -28.2470  -23.8450   20.2950 C   0  0  0  0  0  0  0  0  0  0  0  0
  -27.5420  -23.7500   21.3040 O   0  0  0  0  0  0  0  0  0  0  0  0
  -28.2970  -25.2180   19.4740 C   0  0  0  0  0  2  0  0  0  0  0  0
  -28.1650  -26.5190   20.2050 O   0  0  0  0  0  0  0  0  0  0  0  0
  -24.5100  -31.9570   23.2460 C   0  0  0  0  0  0  0  0  0  0  0  0
  -27.0370  -27.3620   20.1360 C   0  0  0  0  0  0  0  0  0  0  0  0
  -23.2670  -30.5720   21.6210 C   0  0  0  0  0  3  0  0  0  0  0  0
  -24.6820  -29.0080   20.1660 C   0  0  0  0  0  0  0  0  0  0  0  0
  -25.8070  -30.8630   21.4000 C   0  0  0  0  0  2  0  0  0  0  0  0
  -25.8630  -29.4830   20.7470 C   0  0  0  0  0  0  0  0  0  0  0  0
  -27.0390  -28.6700   20.7240 C   0  0  0  0  0  3  0  0  0  0  0  0
  -25.8290  -26.9420   19.5370 C   0  0  0  0  0  3  0  0  0  0  0  0
  -24.6690  -27.7440   19.5530 C   0  0  0  0  0  3  0  0  0  0  0  0
  -23.4550  -29.8950   20.2360 C   0  0  0  0  0  2  0  0  0  0  0  0
  -24.5480  -31.1490   22.1460 N   0  0  0  0  0  0  0  0  0  0  0  0
  -23.4360  -32.2420   23.7980 O   0  0  0  0  0  0  0  0  0  0  0  0
  -22.6100  -29.5610   22.5910 C   0  0  0  0  0  0  0  0  0  0  0  0
  -21.2830  -29.3820   22.4710 N   0  0  0  0  0  0  0  0  0  0  0  0
  -23.2920  -28.9420   23.4110 O   0  0  0  0  0  0  0  0  0  0  0  0
  -20.7910  -29.9340   21.7820 H   0  0  0  0  0  0  0  0  0  0  0  0
  -17.9130  -28.1670   22.9760 C   0  0  0  0  0  0  0  0  0  0  0  0
  -20.4690  -28.4480   23.2510 C   0  0  0  0  0  3  0  0  0  0  0  0
  -20.5820  -27.0110   22.6910 C   0  0  0  0  0  2  0  0  0  0  0  0
  -19.4850  -26.6690   21.6780 C   0  0  0  0  0  2  0  0  0  0  0  0
  -18.1010  -26.8120   22.3160 C   0  0  0  0  0  2  0  0  0  0  0  0
  -19.0250  -28.9420   23.4010 C   0  0  0  0  0  0  0  0  0  0  0  0
  -18.7950  -30.2100   23.9780 C   0  0  0  0  0  3  0  0  0  0  0  0
  -17.4860  -30.7030   24.1370 C   0  0  0  0  0  3  0  0  0  0  0  0
  -16.3880  -29.9260   23.7290 C   0  0  0  0  0  3  0  0  0  0  0  0
  -16.6020  -28.6600   23.1540 C   0  0  0  0  0  3  0  0  0  0  0  0
  -25.8060  -32.5780   23.8510 C   0  0  0  0  0  3  0  0  0  0  0  0
  -26.3260  -31.8090   25.1280 C   0  0  1  0  0  0  0  0  0  0  0  0
  -25.2390  -31.5850   26.2040 C   0  0  0  0  0  1  0  0  0  0  0  0
  -26.8980  -30.4260   24.7410 C   0  0  0  0  0  1  0  0  0  0  0  0
  -27.4870  -32.5990   25.7770 C   0  0  0  0  0  1  0  0  0  0  0  0
  -25.5190  -33.9820   24.1760 N   0  0  0  0  0  0  0  0  0  0  0  0
  -25.8580  -35.0280   23.4100 C   0  0  0  0  0  0  0  0  0  0  0  0
  -26.5170  -34.9110   22.3730 O   0  0  0  0  0  0  0  0  0  0  0  0
  -24.9370  -34.1480   24.9840 H   0  0  0  0  0  0  0  0  0  0  0  0
  -24.1630  -36.8510   23.0510 C   0  0  0  0  0  1  0  0  0  0  0  0
  -25.3950  -36.4250   23.8650 C   0  0  0  0  0  3  0  0  0  0  0  0
  -27.5390  -37.2750   24.7050 C   0  0  0  0  0  1  0  0  0  0  0  0
  -26.4460  -37.4600   23.7550 N   0  0  0  0  0  0  0  0  0  0  0  0
  -26.0540  -38.3880   23.8990 H   0  0  0  0  0  0  0  0  0  0  0  0
  1 46  1  0
  2  1  2  0
  2 16  1  0
  3  6  1  0
  4  3  2  0
  4  1  1  0
  5  3  1  0
  5  7  1  0
  6  2  1  0
  8 16  1  0
  9 14  1  0
 10 11  1  0
 10  9  1  0
 12 11  1  0
 12 21  1  0
 12 13  1  0
 14  8  1  0
 14 13  1  0
 15  8  2  0
 16 17  1  0
 18 19  2  0
 19 38  1  0
 20 19  1  0
 20 23  1  0
 21 22  1  0
 21 18  1  0
 22 20  2  0
 23 24  1  0
 24 25  2  0
 26 29  1  0
 26 25  1  0
 27 26  2  0
 28 27  1  0
 28 23  2  0
 29 30  1  0
 30 31  1  0
 31 32  2  0
 33 32  1  0
 33 37  1  0
 34 33  2  0
 35 30  2  0
 35 34  1  0
 36 35  1  0
 38 39  1  0
 39 42  1  0
 39 41  1  0
 40 38  2  0
 43 18  1  0
 43 44  1  0
 45 43  1  0
 46 48  2  0
 47 46  1  0
 49  5  1  0
 49 50  1  0
 50 51  2  0
 52 53  1  0
 52 50  1  0
 54 65  2  0
 55 53  1  0
 55 60  1  0
 56 64  1  0
 56 66  1  0
 57 63  1  0
 57 59  1  0
 58 64  1  0
 59 58  1  0
 60 59  2  0
 61 62  1  0
 61 55  2  0
 62 57  2  0
 63 56  1  0
 64 54  1  0
 66 68  2  0
 67 66  1  0
 69 67  1  0
 70 79  2  0
 70 75  1  0
 71 67  1  0
 71 75  1  0
 72 71  1  0
 73 74  1  0
 73 72  1  0
 74 70  1  0
 75 76  2  0
 76 77  1  0
 78 77  2  0
 79 78  1  0
 80 54  1  0
 80 85  1  0
 80 81  1  0
 81 84  1  1
 81 82  1  0
 83 81  1  0
 85 88  1  0
 86 90  1  0
 86 85  1  0
 87 86  2  0
 90 89  1  0
 92 90  1  0
 92 93  1  0
 92 91  1  0
M  ISO  4   8 100  16 100  52 101  53 101
M  END
>  <TORSDO>  (2) 
F 20

>  <SCORE>  (2) 
-13.247

>  <name>  (2) 
1

>  <ligand_id>  (2) 
1

>  <original_smiles>  (2) 
[H]c1c([H])c([H])c2c(c1[H])C([H])([H])C([H])([H])C([H])([H])C2([H])N([H])C(=O)C1([H])N(C(=O)C([H])(N([H])C(=O)C([H])(N([H])C([H])([H])[H])C([H])([H])[H])C(C([H])([H])[H])(C([H])([H])[H])C([H])([H])[H])C([H])([H])c2c([H])c(OC([H])([H])C(=O)C([H])([H])N([H])c3nc(C(=O)C([H])([H])[H])c(N([H])C(=O)N4C([H])([H])C([H])([H])C([H])([H])C([H])(n5nc(-c6c([H])c([H])c(Oc7c([H])c([H])c(F)c([H])c7F)c([H])c6[H])c(C(=O)N([H])[H])c5N([H])[H])C4([H])[H])s3)c([H])c([H])c2C1([H])[H]

>  <smiles>  (2) 
[H]c1c([H])c([H])c2c(c1[H])C([H])([H])C([H])([H])C([H])([H])C2([H])N([H])C(=O)C1([H])N(C(=O)C([H])(N([H])C(=O)C([H])(N([H])C([H])([H])[H])C([H])([H])[H])C(C([H])([H])[H])(C([H])([H])[H])C([H])([H])[H])C([H])([H])c2c([H])c(OC([H])([H])C(=O)C([H])([H])N([H])c3nc(C(=O)C([H])([H])[H])c(N([H])C(=O)N4C([H])([H])C([H])([H])C([H])([H])C([H])(n5nc(-c6c([H])c([H])c(Oc7c([H])c([H])c(F)c([H])c7F)c([H])c6[H])c(C(=O)N([H])[H])c5N([H])[H])C4([H])[H])s3)c([H])c([H])c2C1([H])[H]

$$$$
2:0:0
     RDKit          3D

 98106  0  0  1  0  0  0  0  0999 V2000
  -29.0910  -20.6280   20.8610 C   0  0  0  0  0  0  0  0  0  0  0  0
  -29.3980  -21.9010   20.5090 N   0  0  0  0  0  0  0  0  0  0  0  0
  -27.9390  -20.3470   21.4830 N   0  0  0  0  0  4  0  0  0  0  0  0
  -30.3130  -22.0200   20.0910 H   0  0  0  0  0  0  0  0  0  0  0  0
  -27.7950  -19.3900   21.7660 H   0  0  0  0  0  0  0  0  0  0  0  0
  -27.2300  -21.0250   21.6910 H   0  0  0  0  0  0  0  0  0  0  0  0
  -30.9880  -14.7180   20.0480 C   0  0  0  0  0  0  0  0  0  0  0  0
  -30.6320  -12.5130   18.9940 C   0  0  0  0  0  2  0  0  0  0  0  0
  -29.6480  -12.6740   17.8170 C   0  0  0  0  0  2  0  0  0  0  0  0
  -28.1920  -12.5470   18.3090 C   0  0  0  0  0  2  0  0  0  0  0  0
  -27.9010  -13.4270   19.5560 C   0  0  0  0  0  3  0  0  0  0  0  0
  -29.0010  -13.2620   20.6290 C   0  0  0  0  0  2  0  0  0  0  0  0
  -30.2990  -13.5410   19.9960 N   0  0  0  0  0  0  0  0  0  0  0  0
  -32.1130  -14.8170   19.5460 O   0  0  0  0  0  0  0  0  0  0  0  0
  -29.6410  -18.1500   20.6550 C   0  0  0  0  0  3  0  0  0  0  0  0
  -30.0240  -19.5130   20.6090 C   0  0  0  0  0  0  0  0  0  0  0  0
  -30.6590  -17.1830   20.4890 C   0  0  0  0  0  0  0  0  0  0  0  0
  -32.1640  -18.9220   20.2950 C   0  0  0  0  0  0  0  0  0  0  0  0
  -31.2980  -19.8980   20.4270 N   0  0  0  0  0  0  0  0  0  0  0  0
  -31.9300  -17.6240   20.3250 N   0  0  0  0  0  0  0  0  0  0  0  0
  -33.4580  -19.2950   20.1350 N   0  0  0  0  0  0  0  0  0  0  0  0
  -30.3010  -15.7890   20.5190 N   0  0  0  0  0  0  0  0  0  0  0  0
  -33.6180  -20.2430   19.8250 H   0  0  0  0  0  0  0  0  0  0  0  0
  -34.0800  -18.6010   19.7450 H   0  0  0  0  0  0  0  0  0  0  0  0
  -29.3710  -15.5820   20.8420 H   0  0  0  0  0  0  0  0  0  0  0  0
  -25.5500  -14.0530   20.3900 C   0  0  0  0  0  0  0  0  0  0  0  0
  -24.4910  -13.2900   20.8010 C   0  0  0  0  0  0  0  0  0  0  0  0
  -24.9300  -11.9330   20.7300 C   0  0  0  0  0  0  0  0  0  0  0  0
  -26.5700  -13.1610   20.0970 N   0  0  0  0  0  0  0  0  0  0  0  0
  -26.2040  -11.8810   20.3590 N   0  0  0  0  0  0  0  0  0  0  0  0
  -24.1960  -10.6780   20.9360 C   0  0  0  0  0  0  0  0  0  0  0  0
  -24.6140   -9.7260   21.8910 C   0  0  0  0  0  3  0  0  0  0  0  0
  -23.8800   -8.5350   22.0830 C   0  0  0  0  0  3  0  0  0  0  0  0
  -22.7130   -8.2890   21.3210 C   0  0  0  0  0  0  0  0  0  0  0  0
  -22.3150   -9.2310   20.3560 C   0  0  0  0  0  3  0  0  0  0  0  0
  -23.0490  -10.4120   20.1610 C   0  0  0  0  0  3  0  0  0  0  0  0
  -21.9530   -7.1500   21.4230 O   0  0  0  0  0  0  0  0  0  0  0  0
  -21.8400   -6.4620   22.6040 C   0  0  0  0  0  0  0  0  0  0  0  0
  -21.2960   -7.0560   23.7640 C   0  0  0  0  0  3  0  0  0  0  0  0
  -21.1350   -6.2910   24.9360 C   0  0  0  0  0  3  0  0  0  0  0  0
  -21.5100   -4.9350   24.9500 C   0  0  0  0  0  0  0  0  0  0  0  0
  -22.0470   -4.3400   23.7950 C   0  0  0  0  0  3  0  0  0  0  0  0
  -22.2090   -5.1020   22.6250 C   0  0  0  0  0  0  0  0  0  0  0  0
  -22.7080   -4.5190   21.5080 F   0  0  0  0  0  0  0  0  0  0  0  0
  -21.3480   -4.1980   26.0750 F   0  0  0  0  0  0  0  0  0  0  0  0
  -23.1150  -13.7830   21.1460 C   0  0  0  0  0  0  0  0  0  0  0  0
  -22.4240  -13.0910   22.0450 N   0  0  0  0  0  0  0  0  0  0  0  0
  -22.6640  -14.8170   20.6530 O   0  0  0  0  0  0  0  0  0  0  0  0
  -22.8020  -12.2550   22.4640 H   0  0  0  0  0  0  0  0  0  0  0  0
  -21.5030  -13.4030   22.3180 H   0  0  0  0  0  0  0  0  0  0  0  0
  -25.7260  -15.4240   20.2210 N   0  0  0  0  0  0  0  0  0  0  0  0
  -24.9650  -16.0800   20.3550 H   0  0  0  0  0  0  0  0  0  0  0  0
  -26.5440  -15.8480   19.8020 H   0  0  0  0  0  0  0  0  0  0  0  0
  -28.6140  -23.1310   20.7860 C   0  0  0  0  0  2  0  0  0  0  0  0
  -29.2490  -24.4570   20.3150 C   0  0  0  0  0  0  0  0  0  0  0  0
  -30.1610  -24.4730   19.4800 O   0  0  0  0  0  0  0  0  0  0  0  0
  -28.6980  -25.7520   20.9590 C   0  0  0  0  0  2  0  0  0  0  0  0
  -28.8340  -26.9330   20.1350 O   0  0  0  0  0  0  0  0  0  0  0  0
  -24.7220  -31.8570   23.2510 C   0  0  0  0  0  0  0  0  0  0  0  0
  -27.6720  -27.6720   20.0900 C   0  0  0  0  0  0  0  0  0  0  0  0
  -23.6410  -30.4750   21.5080 C   0  0  0  0  0  3  0  0  0  0  0  0
  -25.2160  -29.0740   20.0690 C   0  0  0  0  0  0  0  0  0  0  0  0
  -26.1530  -30.9590   21.4180 C   0  0  0  0  0  2  0  0  0  0  0  0
  -26.3280  -29.6230   20.7220 C   0  0  0  0  0  0  0  0  0  0  0  0
  -27.5630  -28.9310   20.7280 C   0  0  0  0  0  3  0  0  0  0  0  0
  -26.5470  -27.1430   19.4230 C   0  0  0  0  0  3  0  0  0  0  0  0
  -25.3210  -27.8340   19.4150 C   0  0  0  0  0  3  0  0  0  0  0  0
  -23.9290  -29.8700   20.1090 C   0  0  0  0  0  2  0  0  0  0  0  0
  -24.8540  -31.1100   22.1190 N   0  0  0  0  0  0  0  0  0  0  0  0
  -23.6110  -32.0550   23.7640 O   0  0  0  0  0  0  0  0  0  0  0  0
  -23.0060  -29.3840   22.4000 C   0  0  0  0  0  0  0  0  0  0  0  0
  -21.6940  -29.1570   22.2270 N   0  0  0  0  0  0  0  0  0  0  0  0
  -23.6920  -28.7460   23.2030 O   0  0  0  0  0  0  0  0  0  0  0  0
  -21.2000  -29.7260   21.5540 H   0  0  0  0  0  0  0  0  0  0  0  0
  -18.3470  -27.8480   22.6110 C   0  0  0  0  0  0  0  0  0  0  0  0
  -20.8950  -28.1510   22.9270 C   0  0  0  0  0  3  0  0  0  0  0  0
  -21.0400  -26.7630   22.2630 C   0  0  0  0  0  2  0  0  0  0  0  0
  -19.9550  -26.4780   21.2190 C   0  0  0  0  0  2  0  0  0  0  0  0
  -18.5640  -26.5480   21.8550 C   0  0  0  0  0  2  0  0  0  0  0  0
  -19.4410  -28.6080   23.1010 C   0  0  0  0  0  0  0  0  0  0  0  0
  -19.1850  -29.8260   23.7680 C   0  0  0  0  0  3  0  0  0  0  0  0
  -17.8670  -30.2850   23.9490 C   0  0  0  0  0  3  0  0  0  0  0  0
  -16.7870  -29.5200   23.4760 C   0  0  0  0  0  3  0  0  0  0  0  0
  -17.0270  -28.3030   22.8130 C   0  0  0  0  0  3  0  0  0  0  0  0
  -25.9550  -32.5180   23.9450 C   0  0  0  0  0  3  0  0  0  0  0  0
  -26.4120  -31.7640   25.2520 C   0  0  1  0  0  0  0  0  0  0  0  0
  -25.2620  -31.4990   26.2510 C   0  0  0  0  0  1  0  0  0  0  0  0
  -27.0550  -30.4010   24.9000 C   0  0  0  0  0  1  0  0  0  0  0  0
  -27.4990  -32.5890   25.9810 C   0  0  0  0  0  1  0  0  0  0  0  0
  -25.5990  -33.9100   24.2450 N   0  0  0  0  0  0  0  0  0  0  0  0
  -25.9490  -34.9640   23.4940 C   0  0  0  0  0  0  0  0  0  0  0  0
  -26.6740  -34.8660   22.5000 O   0  0  0  0  0  0  0  0  0  0  0  0
  -24.9600  -34.0590   25.0120 H   0  0  0  0  0  0  0  0  0  0  0  0
  -24.2030  -36.7130   23.0280 C   0  0  0  0  0  1  0  0  0  0  0  0
  -25.4060  -36.3450   23.9110 C   0  0  0  0  0  3  0  0  0  0  0  0
  -27.4650  -37.2890   24.8580 C   0  0  0  0  0  1  0  0  0  0  0  0
  -26.4200  -37.4190   23.8460 N   0  0  0  0  0  0  0  0  0  0  0  0
  -25.9850  -38.3320   23.9540 H   0  0  0  0  0  0  0  0  0  0  0  0
  1  3  2  0
  2 54  1  0
  2  1  1  0
  3  6  1  0
  3  5  1  0
  4  2  1  0
  7 22  1  0
  8 13  1  0
  9 10  1  0
  9  8  1  0
 11 10  1  0
 11 29  1  0
 11 12  1  0
 13  7  1  0
 13 12  1  0
 14  7  2  0
 16 15  2  0
 16  1  1  0
 17 22  1  0
 17 15  1  0
 18 20  1  0
 18 19  2  0
 19 16  1  0
 20 17  2  0
 21 18  1  0
 22 25  1  0
 23 21  1  0
 24 21  1  0
 26 27  2  0
 27 46  1  0
 28 27  1  0
 28 31  1  0
 29 30  1  0
 29 26  1  0
 30 28  2  0
 31 32  1  0
 32 33  2  0
 34 37  1  0
 34 33  1  0
 35 34  2  0
 36 35  1  0
 36 31  2  0
 37 38  1  0
 38 43  2  0
 38 39  1  0
 39 40  2  0
 40 41  1  0
 41 45  1  0
 42 41  2  0
 43 42  1  0
 44 43  1  0
 46 47  1  0
 47 50  1  0
 47 49  1  0
 48 46  2  0
 51 52  1  0
 51 26  1  0
 53 51  1  0
 55 54  1  0
 55 57  1  0
 56 55  2  0
 58 57  1  0
 59 70  2  0
 60 58  1  0
 60 65  1  0
 61 69  1  0
 61 71  1  0
 62 68  1  0
 62 64  1  0
 63 69  1  0
 64 65  2  0
 64 63  1  0
 66 60  2  0
 67 66  1  0
 67 62  2  0
 68 61  1  0
 69 59  1  0
 71 73  2  0
 72 71  1  0
 74 72  1  0
 75 84  2  0
 75 80  1  0
 76 72  1  0
 76 80  1  0
 77 76  1  0
 78 79  1  0
 78 77  1  0
 79 75  1  0
 80 81  2  0
 81 82  1  0
 83 82  2  0
 84 83  1  0
 85 59  1  0
 85 90  1  0
 85 86  1  0
 86 89  1  1
 86 87  1  0
 88 86  1  0
 90 93  1  0
 91 95  1  0
 91 90  1  0
 92 91  2  0
 95 94  1  0
 97 95  1  0
 97 98  1  0
 97 96  1  0
M  ISO  4   7 100  22 100  57 101  58 101
M  END
>  <TORSDO>  (3) 
F 19

>  <SCORE>  (3) 
-13.643

>  <name>  (3) 
2

>  <ligand_id>  (3) 
2

>  <original_smiles>  (3) 
[H]c1c(C(N([H])C([H])([H])C(=O)C([H])([H])Oc2c([H])c([H])c3c(c2[H])C([H])([H])N(C(=O)C([H])(N([H])C(=O)C([H])(N([H])C([H])([H])[H])C([H])([H])[H])C(C([H])([H])[H])(C([H])([H])[H])C([H])([H])[H])C([H])(C(=O)N([H])C2([H])c4c([H])c([H])c([H])c([H])c4C([H])([H])C([H])([H])C2([H])[H])C3([H])[H])=[N+]([H])[H])nc(N([H])[H])nc1N([H])C(=O)N1C([H])([H])C([H])([H])C([H])([H])C([H])(n2nc(-c3c([H])c([H])c(Oc4c([H])c([H])c(F)c([H])c4F)c([H])c3[H])c(C(=O)N([H])[H])c2N([H])[H])C1([H])[H]

>  <smiles>  (3) 
[H]c1c(C(N([H])C([H])([H])C(=O)C([H])([H])Oc2c([H])c([H])c3c(c2[H])C([H])([H])N(C(=O)C([H])(N([H])C(=O)C([H])(N([H])C([H])([H])[H])C([H])([H])[H])C(C([H])([H])[H])(C([H])([H])[H])C([H])([H])[H])C([H])(C(=O)N([H])C2([H])c4c([H])c([H])c([H])c([H])c4C([H])([H])C([H])([H])C2([H])[H])C3([H])[H])=[N+]([H])[H])nc(N([H])[H])nc1N([H])C(=O)N1C([H])([H])C([H])([H])C([H])([H])C([H])(n2nc(-c3c([H])c([H])c(Oc4c([H])c([H])c(F)c([H])c4F)c([H])c3[H])c(C(=O)N([H])[H])c2N([H])[H])C1([H])[H]

$$$$
3:0:0
     RDKit          3D

 99107  0  0  1  0  0  0  0  0999 V2000
  -29.3350  -20.8590   21.0440 C   0  0  0  0  0  0  0  0  0  0  0  0
  -29.9950  -21.9930   21.0540 N   0  0  0  0  0  2  0  0  0  0  0  0
  -27.9620  -20.7670   20.9450 N   0  0  0  0  0  4  0  0  0  0  0  0
  -27.4400  -19.9050   21.0380 H   0  0  0  0  0  0  0  0  0  0  0  0
  -27.3390  -21.5190   20.6960 H   0  0  0  0  0  0  0  0  0  0  0  0
  -31.1660  -17.0850   22.3700 C   0  0  0  0  0  3  0  0  0  0  0  0
  -31.5040  -18.3220   22.9490 C   0  0  0  0  0  3  0  0  0  0  0  0
  -30.0390  -19.5270   21.3770 C   0  0  0  0  0  0  0  0  0  0  0  0
  -30.2970  -17.0240   21.2580 C   0  0  0  0  0  0  0  0  0  0  0  0
  -30.9450  -19.5200   22.4690 C   0  0  0  0  0  0  0  0  0  0  0  0
  -29.7480  -18.2500   20.7660 C   0  0  0  0  0  0  0  0  0  0  0  0
  -31.2350  -20.6560   23.1490 F   0  0  0  0  0  0  0  0  0  0  0  0
  -28.8960  -18.1870   19.7120 F   0  0  0  0  0  0  0  0  0  0  0  0
  -30.5710  -14.6880   20.2630 C   0  0  0  0  0  0  0  0  0  0  0  0
  -30.2560  -12.5450   19.0250 C   0  0  0  0  0  2  0  0  0  0  0  0
  -29.2610  -12.7650   17.8690 C   0  0  0  0  0  2  0  0  0  0  0  0
  -27.8120  -12.5820   18.3600 C   0  0  0  0  0  2  0  0  0  0  0  0
  -27.5190  -13.3550   19.6710 C   0  0  0  0  0  3  0  0  0  0  0  0
  -28.6330  -13.1170   20.7160 C   0  0  0  0  0  2  0  0  0  0  0  0
  -29.9080  -13.5020   20.0950 N   0  0  0  0  0  0  0  0  0  0  0  0
  -31.7040  -14.8620   19.8040 O   0  0  0  0  0  0  0  0  0  0  0  0
  -29.8500  -15.7270   20.7690 N   0  0  0  0  0  0  0  0  0  0  0  0
  -28.8610  -15.5620   20.8410 H   0  0  0  0  0  0  0  0  0  0  0  0
  -25.1360  -13.9050   20.4670 C   0  0  0  0  0  0  0  0  0  0  0  0
  -24.0940  -13.1090   20.8600 C   0  0  0  0  0  0  0  0  0  0  0  0
  -24.5750  -11.7660   20.7860 C   0  0  0  0  0  0  0  0  0  0  0  0
  -26.1870  -13.0480   20.1930 N   0  0  0  0  0  0  0  0  0  0  0  0
  -25.8570  -11.7520   20.4410 N   0  0  0  0  0  0  0  0  0  0  0  0
  -23.8710  -10.4900   20.9760 C   0  0  0  0  0  0  0  0  0  0  0  0
  -24.3170   -9.5350   21.9150 C   0  0  0  0  0  3  0  0  0  0  0  0
  -23.6130   -8.3250   22.0920 C   0  0  0  0  0  3  0  0  0  0  0  0
  -22.4470   -8.0630   21.3340 C   0  0  0  0  0  0  0  0  0  0  0  0
  -22.0230   -9.0100   20.3840 C   0  0  0  0  0  3  0  0  0  0  0  0
  -22.7290  -10.2110   20.2060 C   0  0  0  0  0  3  0  0  0  0  0  0
  -21.7150   -6.9040   21.4240 O   0  0  0  0  0  0  0  0  0  0  0  0
  -21.6440   -6.1860   22.5940 C   0  0  0  0  0  0  0  0  0  0  0  0
  -21.1400   -6.7500   23.7870 C   0  0  0  0  0  3  0  0  0  0  0  0
  -21.0230   -5.9560   24.9450 C   0  0  0  0  0  3  0  0  0  0  0  0
  -21.3960   -4.5990   24.9110 C   0  0  0  0  0  0  0  0  0  0  0  0
  -21.8930   -4.0360   23.7220 C   0  0  0  0  0  3  0  0  0  0  0  0
  -22.0140   -4.8270   22.5660 C   0  0  0  0  0  0  0  0  0  0  0  0
  -22.4740   -4.2720   21.4180 F   0  0  0  0  0  0  0  0  0  0  0  0
  -21.2780   -3.8350   26.0200 F   0  0  0  0  0  0  0  0  0  0  0  0
  -22.7010  -13.5610   21.1840 C   0  0  0  0  0  0  0  0  0  0  0  0
  -22.0050  -12.8420   22.0590 N   0  0  0  0  0  0  0  0  0  0  0  0
  -22.2360  -14.5940   20.6980 O   0  0  0  0  0  0  0  0  0  0  0  0
  -22.3930  -12.0100   22.4820 H   0  0  0  0  0  0  0  0  0  0  0  0
  -21.0710  -13.1320   22.3140 H   0  0  0  0  0  0  0  0  0  0  0  0
  -25.2600  -15.2800   20.2950 N   0  0  0  0  0  0  0  0  0  0  0  0
  -24.4610  -15.8930   20.4200 H   0  0  0  0  0  0  0  0  0  0  0  0
  -26.0670  -15.7560   19.9090 H   0  0  0  0  0  0  0  0  0  0  0  0
  -29.3250  -23.2710   21.4450 C   0  0  0  0  0  2  0  0  0  0  0  0
  -29.3030  -24.4450   20.3940 C   0  0  0  0  0  3  0  0  0  0  0  0
  -30.6550  -24.6990   19.8300 N   0  0  0  0  0  4  0  0  0  0  0  0
  -31.0080  -23.8540   19.4060 H   0  0  0  0  0  0  0  0  0  0  0  0
  -31.3280  -24.9750   20.5260 H   0  0  0  0  0  0  0  0  0  0  0  0
  -30.6350  -25.4250   19.1360 H   0  0  0  0  0  0  0  0  0  0  0  0
  -28.6640  -25.7650   20.9890 C   0  0  0  0  0  2  0  0  0  0  0  0
  -28.4480  -26.8130   20.0220 O   0  0  0  0  0  0  0  0  0  0  0  0
  -24.5610  -31.9640   23.1800 C   0  0  0  0  0  0  0  0  0  0  0  0
  -27.2680  -27.5300   20.1210 C   0  0  0  0  0  0  0  0  0  0  0  0
  -23.3640  -30.5470   21.5430 C   0  0  0  0  0  3  0  0  0  0  0  0
  -24.8400  -28.9950   20.1430 C   0  0  0  0  0  0  0  0  0  0  0  0
  -25.8850  -30.9180   21.3370 C   0  0  0  0  0  2  0  0  0  0  0  0
  -25.9920  -29.5350   20.7260 C   0  0  0  0  0  0  0  0  0  0  0  0
  -27.2090  -28.8100   20.7220 C   0  0  0  0  0  3  0  0  0  0  0  0
  -26.0980  -27.0000   19.5350 C   0  0  0  0  0  3  0  0  0  0  0  0
  -24.8910  -27.7210   19.5460 C   0  0  0  0  0  3  0  0  0  0  0  0
  -23.5800  -29.8370   20.1780 C   0  0  0  0  0  2  0  0  0  0  0  0
  -24.6210  -31.1550   22.0800 N   0  0  0  0  0  0  0  0  0  0  0  0
  -23.4800  -32.2300   23.7230 O   0  0  0  0  0  0  0  0  0  0  0  0
  -22.7160  -29.5350   22.5160 C   0  0  0  0  0  0  0  0  0  0  0  0
  -21.3940  -29.3400   22.3940 N   0  0  0  0  0  0  0  0  0  0  0  0
  -23.3990  -28.9200   23.3380 O   0  0  0  0  0  0  0  0  0  0  0  0
  -20.8990  -29.8490   21.6730 H   0  0  0  0  0  0  0  0  0  0  0  0
  -18.0340  -28.1480   22.9200 C   0  0  0  0  0  0  0  0  0  0  0  0
  -20.5890  -28.4130   23.1880 C   0  0  0  0  0  3  0  0  0  0  0  0
  -20.6920  -26.9790   22.6220 C   0  0  0  0  0  2  0  0  0  0  0  0
  -19.6060  -26.6700   21.5870 C   0  0  0  0  0  2  0  0  0  0  0  0
  -18.2140  -26.8200   22.2070 C   0  0  0  0  0  2  0  0  0  0  0  0
  -19.1500  -28.9080   23.3610 C   0  0  0  0  0  0  0  0  0  0  0  0
  -18.9270  -30.1560   23.9790 C   0  0  0  0  0  3  0  0  0  0  0  0
  -17.6190  -30.6480   24.1660 C   0  0  0  0  0  3  0  0  0  0  0  0
  -16.5200  -29.8840   23.7380 C   0  0  0  0  0  3  0  0  0  0  0  0
  -16.7290  -28.6400   23.1160 C   0  0  0  0  0  3  0  0  0  0  0  0
  -25.8420  -32.6100   23.7930 C   0  0  0  0  0  3  0  0  0  0  0  0
  -25.5210  -33.9990   24.1410 N   0  0  0  0  0  0  0  0  0  0  0  0
  -25.8210  -35.0630   23.3820 C   0  0  0  0  0  0  0  0  0  0  0  0
  -26.4910  -34.9810   22.3480 O   0  0  0  0  0  0  0  0  0  0  0  0
  -24.9410  -34.1360   24.9540 H   0  0  0  0  0  0  0  0  0  0  0  0
  -24.0870  -36.8460   23.0400 C   0  0  0  0  0  1  0  0  0  0  0  0
  -25.3230  -36.4410   23.8580 C   0  0  0  0  0  3  0  0  0  0  0  0
  -27.4400  -37.3420   24.7230 C   0  0  0  0  0  1  0  0  0  0  0  0
  -26.3490  -37.5080   23.7620 N   0  0  0  0  0  0  0  0  0  0  0  0
  -25.9320  -38.4250   23.9080 H   0  0  0  0  0  0  0  0  0  0  0  0
  -26.3870  -31.8340   25.0530 C   0  0  1  0  0  0  0  0  0  0  0  0
  -25.3080  -31.5590   26.1290 C   0  0  0  0  0  1  0  0  0  0  0  0
  -26.9920  -30.4730   24.6370 C   0  0  0  0  0  1  0  0  0  0  0  0
  -27.5290  -32.6450   25.7090 C   0  0  0  0  0  1  0  0  0  0  0  0
  1  2  1  0
  1  8  1  0
  2 52  1  0
  3  4  1  0
  3  1  2  0
  5  3  1  0
  6  7  1  0
  8 10  1  0
  9  6  2  0
 10  7  2  0
 10 12  1  0
 11  9  1  0
 11  8  2  0
 13 11  1  0
 14 22  1  0
 15 20  1  0
 16 17  1  0
 16 15  1  0
 18 17  1  0
 18 27  1  0
 18 19  1  0
 20 14  1  0
 20 19  1  0
 21 14  2  0
 22 23  1  0
 22  9  1  0
 24 25  2  0
 25 44  1  0
 26 25  1  0
 26 29  1  0
 27 28  1  0
 27 24  1  0
 28 26  2  0
 29 30  1  0
 30 31  2  0
 32 35  1  0
 32 31  1  0
 33 32  2  0
 34 33  1  0
 34 29  2  0
 35 36  1  0
 36 37  1  0
 37 38  2  0
 39 38  1  0
 39 43  1  0
 40 39  2  0
 41 36  2  0
 41 40  1  0
 42 41  1  0
 44 45  1  0
 45 48  1  0
 45 47  1  0
 46 44  2  0
 49 50  1  0
 49 24  1  0
 51 49  1  0
 53 58  1  0
 53 52  1  0
 54 53  1  0
 54 56  1  0
 55 54  1  0
 57 54  1  0
 59 61  1  0
 59 58  1  0
 60 71  2  0
 61 66  1  0
 62 70  1  0
 62 72  1  0
 63 69  1  0
 63 65  1  0
 64 70  1  0
 65 64  1  0
 66 65  2  0
 67 68  1  0
 67 61  2  0
 68 63  2  0
 69 62  1  0
 70 60  1  0
 72 74  2  0
 73 72  1  0
 75 73  1  0
 76 85  2  0
 76 81  1  0
 77 73  1  0
 77 81  1  0
 78 77  1  0
 79 80  1  0
 79 78  1  0
 80 76  1  0
 81 82  2  0
 82 83  1  0
 84 83  2  0
 85 84  1  0
 86 60  1  0
 86 87  1  0
 86 96  1  0
 87 90  1  0
 88 92  1  0
 88 87  1  0
 89 88  2  0
 92 91  1  0
 94 92  1  0
 94 95  1  0
 94 93  1  0
 96 99  1  1
 96 97  1  0
 98 96  1  0
M  ISO  4  14 100  22 100  58 101  59 101
M  END
>  <TORSDO>  (4) 
F 21

>  <SCORE>  (4) 
-13.444

>  <name>  (4) 
3

>  <ligand_id>  (4) 
3

>  <original_smiles>  (4) 
[H]c1c([H])c([H])c2c(c1[H])C([H])([H])C([H])([H])C([H])([H])C2([H])N([H])C(=O)C1([H])N(C(=O)C([H])(N([H])C(=O)C([H])(N([H])C([H])([H])[H])C([H])([H])[H])C(C([H])([H])[H])(C([H])([H])[H])C([H])([H])[H])C([H])([H])c2c([H])c(OC([H])([H])C([H])(C([H])([H])N=C(c3c(F)c([H])c([H])c(N([H])C(=O)N4C([H])([H])C([H])([H])C([H])([H])C([H])(n5nc(-c6c([H])c([H])c(Oc7c([H])c([H])c(F)c([H])c7F)c([H])c6[H])c(C(=O)N([H])[H])c5N([H])[H])C4([H])[H])c3F)N([H])[H])[N+]([H])([H])[H])c([H])c([H])c2C1([H])[H]

>  <smiles>  (4) 
[H]c1c([H])c([H])c2c(c1[H])C([H])([H])C([H])([H])C([H])([H])C2([H])N([H])C(=O)C1([H])N(C(=O)C([H])(N([H])C(=O)C([H])(N([H])C([H])([H])[H])C([H])([H])[H])C(C([H])([H])[H])(C([H])([H])[H])C([H])([H])[H])C([H])([H])c2c([H])c(OC([H])([H])C([H])(C([H])([H])N=C(c3c(F)c([H])c([H])c(N([H])C(=O)N4C([H])([H])C([H])([H])C([H])([H])C([H])(n5nc(-c6c([H])c([H])c(Oc7c([H])c([H])c(F)c([H])c7F)c([H])c6[H])c(C(=O)N([H])[H])c5N([H])[H])C4([H])[H])c3F)N([H])[H])[N+]([H])([H])[H])c([H])c([H])c2C1([H])[H]

$$$$
4:0:0
     RDKit          3D

 94102  0  0  1  0  0  0  0  0999 V2000
  -29.3620  -20.5130   21.1160 C   0  0  0  0  0  0  0  0  0  0  0  0
  -29.2130  -21.7230   20.5060 N   0  0  0  0  0  0  0  0  0  0  0  0
  -29.0550  -20.3800   22.4130 N   0  0  0  0  0  4  0  0  0  0  0  0
  -29.4390  -21.7960   19.5230 H   0  0  0  0  0  0  0  0  0  0  0  0
  -29.1830  -19.4720   22.8350 H   0  0  0  0  0  0  0  0  0  0  0  0
  -28.7100  -21.1260   22.9930 H   0  0  0  0  0  0  0  0  0  0  0  0
  -30.7120  -19.1090   19.3630 C   0  0  0  0  0  3  0  0  0  0  0  0
  -30.9160  -17.7000   19.2460 C   0  0  0  0  0  3  0  0  0  0  0  0
  -29.8830  -19.3230   20.4320 C   0  0  0  0  0  0  0  0  0  0  0  0
  -30.2010  -17.1230   20.2650 C   0  0  0  0  0  0  0  0  0  0  0  0
  -29.5490  -18.0970   20.9870 O   0  0  0  0  0  0  0  0  0  0  0  0
  -30.7750  -14.7320   20.0420 C   0  0  0  0  0  0  0  0  0  0  0  0
  -30.4590  -12.5470   18.9350 C   0  0  0  0  0  2  0  0  0  0  0  0
  -29.4610  -12.7360   17.7710 C   0  0  0  0  0  2  0  0  0  0  0  0
  -28.0100  -12.5840   18.2680 C   0  0  0  0  0  2  0  0  0  0  0  0
  -27.7230  -13.4180   19.5450 C   0  0  0  0  0  3  0  0  0  0  0  0
  -28.8310  -13.2170   20.6060 C   0  0  0  0  0  2  0  0  0  0  0  0
  -30.1220  -13.5340   19.9760 N   0  0  0  0  0  0  0  0  0  0  0  0
  -31.9040  -14.8790   19.5630 O   0  0  0  0  0  0  0  0  0  0  0  0
  -30.0600  -15.7800   20.5300 N   0  0  0  0  0  0  0  0  0  0  0  0
  -29.2290  -15.5250   21.0400 H   0  0  0  0  0  0  0  0  0  0  0  0
  -25.3640  -14.0080   20.3860 C   0  0  0  0  0  0  0  0  0  0  0  0
  -24.3150  -13.2270   20.7890 C   0  0  0  0  0  0  0  0  0  0  0  0
  -24.7720  -11.8770   20.7080 C   0  0  0  0  0  0  0  0  0  0  0  0
  -26.3950  -13.1320   20.0850 N   0  0  0  0  0  0  0  0  0  0  0  0
  -26.0460  -11.8430   20.3370 N   0  0  0  0  0  0  0  0  0  0  0  0
  -24.0540  -10.6100   20.9050 C   0  0  0  0  0  0  0  0  0  0  0  0
  -24.5090   -9.6370   21.8210 C   0  0  0  0  0  3  0  0  0  0  0  0
  -23.7920   -8.4360   22.0060 C   0  0  0  0  0  3  0  0  0  0  0  0
  -22.6030   -8.2000   21.2750 C   0  0  0  0  0  0  0  0  0  0  0  0
  -22.1660   -9.1620   20.3470 C   0  0  0  0  0  3  0  0  0  0  0  0
  -22.8860  -10.3540   20.1600 C   0  0  0  0  0  3  0  0  0  0  0  0
  -21.8540   -7.0520   21.3700 O   0  0  0  0  0  0  0  0  0  0  0  0
  -21.8160   -6.3120   22.5250 C   0  0  0  0  0  0  0  0  0  0  0  0
  -21.3630   -6.8580   23.7460 C   0  0  0  0  0  3  0  0  0  0  0  0
  -21.2740   -6.0430   24.8910 C   0  0  0  0  0  3  0  0  0  0  0  0
  -21.6270   -4.6830   24.8180 C   0  0  0  0  0  0  0  0  0  0  0  0
  -22.0730   -4.1350   23.6020 C   0  0  0  0  0  3  0  0  0  0  0  0
  -22.1640   -4.9470   22.4580 C   0  0  0  0  0  0  0  0  0  0  0  0
  -22.5730   -4.4100   21.2830 F   0  0  0  0  0  0  0  0  0  0  0  0
  -21.5350   -3.8980   25.9160 F   0  0  0  0  0  0  0  0  0  0  0  0
  -22.9330  -13.6990   21.1390 C   0  0  0  0  0  0  0  0  0  0  0  0
  -22.2460  -12.9820   22.0220 N   0  0  0  0  0  0  0  0  0  0  0  0
  -22.4720  -14.7370   20.6660 O   0  0  0  0  0  0  0  0  0  0  0  0
  -22.6310  -12.1410   22.4250 H   0  0  0  0  0  0  0  0  0  0  0  0
  -21.3210  -13.2780   22.2980 H   0  0  0  0  0  0  0  0  0  0  0  0
  -25.5250  -15.3820   20.2280 N   0  0  0  0  0  0  0  0  0  0  0  0
  -24.7670  -16.0370   20.3830 H   0  0  0  0  0  0  0  0  0  0  0  0
  -26.3560  -15.8210   19.8510 H   0  0  0  0  0  0  0  0  0  0  0  0
  -28.7500  -22.9980   21.1410 C   0  0  0  0  0  2  0  0  0  0  0  0
  -28.7770  -24.2760   20.2600 C   0  0  0  0  0  0  0  0  0  0  0  0
  -29.0920  -24.2200   19.0640 O   0  0  0  0  0  0  0  0  0  0  0  0
  -28.3880  -25.6170   20.9510 C   0  0  0  0  0  2  0  0  0  0  0  0
  -28.4750  -26.7960   20.1030 O   0  0  0  0  0  0  0  0  0  0  0  0
  -24.6380  -31.9550   23.2470 C   0  0  0  0  0  0  0  0  0  0  0  0
  -27.3300  -27.5700   20.1080 C   0  0  0  0  0  0  0  0  0  0  0  0
  -23.4460  -30.5520   21.5960 C   0  0  0  0  0  3  0  0  0  0  0  0
  -24.9180  -29.0570   20.1410 C   0  0  0  0  0  0  0  0  0  0  0  0
  -25.9650  -30.9540   21.3840 C   0  0  0  0  0  2  0  0  0  0  0  0
  -26.0730  -29.5890   20.7280 C   0  0  0  0  0  0  0  0  0  0  0  0
  -27.2870  -28.8550   20.7050 C   0  0  0  0  0  3  0  0  0  0  0  0
  -26.1610  -27.0600   19.5090 C   0  0  0  0  0  3  0  0  0  0  0  0
  -24.9580  -27.7930   19.5230 C   0  0  0  0  0  3  0  0  0  0  0  0
  -23.6590  -29.8940   20.2070 C   0  0  0  0  0  2  0  0  0  0  0  0
  -24.7020  -31.1680   22.1350 N   0  0  0  0  0  0  0  0  0  0  0  0
  -23.5560  -32.2020   23.7980 O   0  0  0  0  0  0  0  0  0  0  0  0
  -22.8160  -29.5090   22.5490 C   0  0  0  0  0  0  0  0  0  0  0  0
  -21.4990  -29.2900   22.4130 N   0  0  0  0  0  0  0  0  0  0  0  0
  -23.5120  -28.9020   23.3670 O   0  0  0  0  0  0  0  0  0  0  0  0
  -20.9980  -29.8340   21.7250 H   0  0  0  0  0  0  0  0  0  0  0  0
  -18.1610  -27.9750   22.8620 C   0  0  0  0  0  0  0  0  0  0  0  0
  -20.7030  -28.3250   23.1740 C   0  0  0  0  0  3  0  0  0  0  0  0
  -20.8660  -26.8980   22.6020 C   0  0  0  0  0  2  0  0  0  0  0  0
  -19.7920  -26.5340   21.5710 C   0  0  0  0  0  2  0  0  0  0  0  0
  -18.3960  -26.6300   22.1930 C   0  0  0  0  0  2  0  0  0  0  0  0
  -19.2450  -28.7770   23.3070 C   0  0  0  0  0  0  0  0  0  0  0  0
  -18.9720  -30.0330   23.8910 C   0  0  0  0  0  3  0  0  0  0  0  0
  -17.6490  -30.4890   24.0350 C   0  0  0  0  0  3  0  0  0  0  0  0
  -16.5790  -29.6840   23.6070 C   0  0  0  0  0  3  0  0  0  0  0  0
  -16.8350  -28.4300   23.0260 C   0  0  0  0  0  3  0  0  0  0  0  0
  -25.9160  -32.6020   23.8670 C   0  0  0  0  0  3  0  0  0  0  0  0
  -26.4310  -31.8480   25.1550 C   0  0  1  0  0  0  0  0  0  0  0  0
  -25.3330  -31.6160   26.2190 C   0  0  0  0  0  1  0  0  0  0  0  0
  -27.0260  -30.4710   24.7790 C   0  0  0  0  0  1  0  0  0  0  0  0
  -27.5730  -32.6570   25.8130 C   0  0  0  0  0  1  0  0  0  0  0  0
  -25.6000  -34.0020   24.1760 N   0  0  0  0  0  0  0  0  0  0  0  0
  -25.9380  -35.0450   23.4060 C   0  0  0  0  0  0  0  0  0  0  0  0
  -26.6210  -34.9290   22.3830 O   0  0  0  0  0  0  0  0  0  0  0  0
  -24.9960  -34.1660   24.9680 H   0  0  0  0  0  0  0  0  0  0  0  0
  -24.2170  -36.8330   22.9960 C   0  0  0  0  0  1  0  0  0  0  0  0
  -25.4400  -36.4380   23.8380 C   0  0  0  0  0  3  0  0  0  0  0  0
  -27.5550  -37.3330   24.7090 C   0  0  0  0  0  1  0  0  0  0  0  0
  -26.4760  -37.4900   23.7370 N   0  0  0  0  0  0  0  0  0  0  0  0
  -26.0670  -38.4120   23.8630 H   0  0  0  0  0  0  0  0  0  0  0  0
  1  3  2  0
  2  1  1  0
  2 50  1  0
  3  5  1  0
  3  6  1  0
  4  2  1  0
  7  9  2  0
  8  7  1  0
  8 10  2  0
  9 11  1  0
  9  1  1  0
 10 20  1  0
 10 11  1  0
 12 20  1  0
 13 18  1  0
 14 15  1  0
 14 13  1  0
 16 15  1  0
 16 25  1  0
 16 17  1  0
 18 12  1  0
 18 17  1  0
 19 12  2  0
 20 21  1  0
 22 23  2  0
 23 42  1  0
 24 23  1  0
 24 27  1  0
 25 26  1  0
 25 22  1  0
 26 24  2  0
 27 28  1  0
 28 29  2  0
 30 33  1  0
 30 29  1  0
 31 30  2  0
 32 31  1  0
 32 27  2  0
 33 34  1  0
 34 35  1  0
 35 36  2  0
 37 36  1  0
 37 41  1  0
 38 37  2  0
 39 34  2  0
 39 38  1  0
 40 39  1  0
 42 43  1  0
 43 46  1  0
 43 45  1  0
 44 42  2  0
 47 48  1  0
 47 22  1  0
 49 47  1  0
 51 53  1  0
 51 50  1  0
 52 51  2  0
 54 56  1  0
 54 53  1  0
 55 66  2  0
 56 61  1  0
 57 65  1  0
 57 67  1  0
 58 64  1  0
 58 60  1  0
 59 65  1  0
 60 59  1  0
 61 60  2  0
 62 63  1  0
 62 56  2  0
 63 58  2  0
 64 57  1  0
 65 55  1  0
 67 69  2  0
 68 67  1  0
 70 68  1  0
 71 80  2  0
 71 76  1  0
 72 68  1  0
 72 76  1  0
 73 72  1  0
 74 75  1  0
 74 73  1  0
 75 71  1  0
 76 77  2  0
 77 78  1  0
 79 78  2  0
 80 79  1  0
 81 55  1  0
 81 86  1  0
 81 82  1  0
 82 85  1  1
 82 83  1  0
 84 82  1  0
 86 89  1  0
 87 91  1  0
 87 86  1  0
 88 87  2  0
 91 90  1  0
 93 91  1  0
 93 94  1  0
 93 92  1  0
M  ISO  4  12 100  20 100  53 101  54 101
M  END
>  <TORSDO>  (5) 
F 20

>  <SCORE>  (5) 
-12.876

>  <name>  (5) 
4

>  <ligand_id>  (5) 
4

>  <original_smiles>  (5) 
[H]c1c(C(N([H])C([H])([H])C(=O)C([H])([H])Oc2c([H])c([H])c3c(c2[H])C([H])([H])N(C(=O)C([H])(N([H])C(=O)C([H])(N([H])C([H])([H])[H])C([H])([H])[H])C(C([H])([H])[H])(C([H])([H])[H])C([H])([H])[H])C([H])(C(=O)N([H])C2([H])c4c([H])c([H])c([H])c([H])c4C([H])([H])C([H])([H])C2([H])[H])C3([H])[H])=[N+]([H])[H])oc(N([H])C(=O)N2C([H])([H])C([H])([H])C([H])([H])C([H])(n3nc(-c4c([H])c([H])c(Oc5c([H])c([H])c(F)c([H])c5F)c([H])c4[H])c(C(=O)N([H])[H])c3N([H])[H])C2([H])[H])c1[H]

>  <smiles>  (5) 
[H]c1c(C(N([H])C([H])([H])C(=O)C([H])([H])Oc2c([H])c([H])c3c(c2[H])C([H])([H])N(C(=O)C([H])(N([H])C(=O)C([H])(N([H])C([H])([H])[H])C([H])([H])[H])C(C([H])([H])[H])(C([H])([H])[H])C([H])([H])[H])C([H])(C(=O)N([H])C2([H])c4c([H])c([H])c([H])c([H])c4C([H])([H])C([H])([H])C2([H])[H])C3([H])[H])=[N+]([H])[H])oc(N([H])C(=O)N2C([H])([H])C([H])([H])C([H])([H])C([H])(n3nc(-c4c([H])c([H])c(Oc5c([H])c([H])c(F)c([H])c5F)c([H])c4[H])c(C(=O)N([H])[H])c3N([H])[H])C2([H])[H])c1[H]

$$$$
5:0:0
     RDKit          3D

 97105  0  0  1  0  0  0  0  0999 V2000
  -30.1540  -19.8480   18.7580 C   0  0  0  0  0  3  0  0  0  0  0  0
  -30.5560  -17.4200   18.8040 C   0  0  0  0  0  3  0  0  0  0  0  0
  -29.4250  -18.5150   20.6540 C   0  0  0  0  0  3  0  0  0  0  0  0
  -30.6550  -18.6700   18.1600 C   0  0  0  0  0  0  0  0  0  0  0  0
  -29.5190  -19.8360   20.0250 C   0  0  0  0  0  0  0  0  0  0  0  0
  -29.9470  -17.2790   20.0700 C   0  0  0  0  0  0  0  0  0  0  0  0
  -30.5720  -14.7590   20.3770 C   0  0  0  0  0  0  0  0  0  0  0  0
  -30.3740  -12.4760   19.3920 C   0  0  0  0  0  2  0  0  0  0  0  0
  -29.4490  -12.5610   18.1570 C   0  0  0  0  0  2  0  0  0  0  0  0
  -27.9750  -12.3940   18.5740 C   0  0  0  0  0  2  0  0  0  0  0  0
  -27.5960  -13.2770   19.7940 C   0  0  0  0  0  3  0  0  0  0  0  0
  -28.6460  -13.1840   20.9240 C   0  0  0  0  0  2  0  0  0  0  0  0
  -29.9490  -13.5310   20.3430 N   0  0  0  0  0  0  0  0  0  0  0  0
  -31.7550  -14.8440   20.0290 O   0  0  0  0  0  0  0  0  0  0  0  0
  -29.8180  -15.9010   20.6350 N   0  0  0  0  0  0  0  0  0  0  0  0
  -28.9570  -15.7240   21.1290 H   0  0  0  0  0  0  0  0  0  0  0  0
  -25.2030  -13.8720   20.5010 C   0  0  0  0  0  0  0  0  0  0  0  0
  -24.1350  -13.0990   20.8670 C   0  0  0  0  0  0  0  0  0  0  0  0
  -24.5970  -11.7470   20.8430 C   0  0  0  0  0  0  0  0  0  0  0  0
  -26.2480  -12.9900   20.2750 N   0  0  0  0  0  0  0  0  0  0  0  0
  -25.8910  -11.7080   20.5440 N   0  0  0  0  0  0  0  0  0  0  0  0
  -23.8680  -10.4870   21.0330 C   0  0  0  0  0  0  0  0  0  0  0  0
  -24.2910   -9.5220   21.9750 C   0  0  0  0  0  3  0  0  0  0  0  0
  -23.5630   -8.3270   22.1540 C   0  0  0  0  0  3  0  0  0  0  0  0
  -22.3960   -8.0860   21.3890 C   0  0  0  0  0  0  0  0  0  0  0  0
  -21.9920   -9.0390   20.4370 C   0  0  0  0  0  3  0  0  0  0  0  0
  -22.7210  -10.2260   20.2580 C   0  0  0  0  0  3  0  0  0  0  0  0
  -21.6400   -6.9430   21.4750 O   0  0  0  0  0  0  0  0  0  0  0  0
  -21.5780   -6.2050   22.6310 C   0  0  0  0  0  0  0  0  0  0  0  0
  -21.1330   -6.7650   23.8480 C   0  0  0  0  0  3  0  0  0  0  0  0
  -21.0200   -5.9540   24.9960 C   0  0  0  0  0  3  0  0  0  0  0  0
  -21.3410   -4.5850   24.9260 C   0  0  0  0  0  0  0  0  0  0  0  0
  -21.7790   -4.0250   23.7120 C   0  0  0  0  0  3  0  0  0  0  0  0
  -21.8940   -4.8330   22.5670 C   0  0  0  0  0  0  0  0  0  0  0  0
  -22.2960   -4.2850   21.3960 F   0  0  0  0  0  0  0  0  0  0  0  0
  -21.2250   -3.8040   26.0250 F   0  0  0  0  0  0  0  0  0  0  0  0
  -22.7360  -13.5790   21.1250 C   0  0  0  0  0  0  0  0  0  0  0  0
  -21.9980  -12.8840   21.9820 N   0  0  0  0  0  0  0  0  0  0  0  0
  -22.3060  -14.6050   20.6000 O   0  0  0  0  0  0  0  0  0  0  0  0
  -22.3590  -12.0550   22.4300 H   0  0  0  0  0  0  0  0  0  0  0  0
  -21.0590  -13.1890   22.1980 H   0  0  0  0  0  0  0  0  0  0  0  0
  -25.3690  -15.2410   20.3190 N   0  0  0  0  0  0  0  0  0  0  0  0
  -24.5950  -15.8910   20.4180 H   0  0  0  0  0  0  0  0  0  0  0  0
  -26.2100  -15.6790   19.9660 H   0  0  0  0  0  0  0  0  0  0  0  0
  -31.2840  -18.7430   16.8430 C   0  0  0  0  0  0  0  0  0  0  0  0
  -32.4310  -18.1110   16.6040 N   0  0  0  0  0  0  0  0  0  0  0  0
  -30.7150  -19.4380   15.8610 N   0  0  0  0  0  4  0  0  0  0  0  0
  -32.8970  -18.1400   15.7120 H   0  0  0  0  0  0  0  0  0  0  0  0
  -32.8870  -17.6220   17.3620 H   0  0  0  0  0  0  0  0  0  0  0  0
  -29.8150  -19.8660   16.0230 H   0  0  0  0  0  0  0  0  0  0  0  0
  -31.1100  -19.4980   14.9370 H   0  0  0  0  0  0  0  0  0  0  0  0
  -28.9670  -22.2780   20.0550 C   0  0  0  0  0  3  0  0  0  0  0  0
  -29.0650  -21.0890   20.6380 N   0  0  0  0  0  0  0  0  0  0  0  0
  -29.7330  -24.0230   21.7700 C   0  0  0  0  0  1  0  0  0  0  0  0
  -28.6450  -23.7080   20.7300 C   0  0  0  0  0  3  0  0  0  0  0  0
  -28.4450  -25.0050   19.7680 C   0  0  0  0  0  2  0  0  0  0  0  0
  -28.3630  -26.4170   20.3040 O   0  0  0  0  0  0  0  0  0  0  0  0
  -24.5960  -31.8780   23.2400 C   0  0  0  0  0  0  0  0  0  0  0  0
  -27.2330  -27.2680   20.2190 C   0  0  0  0  0  0  0  0  0  0  0  0
  -23.4090  -30.4720   21.5970 C   0  0  0  0  0  3  0  0  0  0  0  0
  -24.8720  -28.9150   20.1850 C   0  0  0  0  0  0  0  0  0  0  0  0
  -25.9540  -30.7800   21.4360 C   0  0  0  0  0  2  0  0  0  0  0  0
  -26.0380  -29.3970   20.7910 C   0  0  0  0  0  0  0  0  0  0  0  0
  -27.2160  -28.5840   20.7970 C   0  0  0  0  0  3  0  0  0  0  0  0
  -26.0360  -26.8500   19.5930 C   0  0  0  0  0  3  0  0  0  0  0  0
  -24.8760  -27.6500   19.5770 C   0  0  0  0  0  3  0  0  0  0  0  0
  -23.6350  -29.7930   20.2210 C   0  0  0  0  0  2  0  0  0  0  0  0
  -24.6720  -31.0630   22.1470 N   0  0  0  0  0  0  0  0  0  0  0  0
  -23.5070  -32.1560   23.7640 O   0  0  0  0  0  0  0  0  0  0  0  0
  -22.7390  -29.4590   22.5550 C   0  0  0  0  0  0  0  0  0  0  0  0
  -21.4130  -29.2810   22.4210 N   0  0  0  0  0  0  0  0  0  0  0  0
  -23.4110  -28.8350   23.3810 O   0  0  0  0  0  0  0  0  0  0  0  0
  -20.9280  -29.8350   21.7300 H   0  0  0  0  0  0  0  0  0  0  0  0
  -18.0320  -28.0860   22.9090 C   0  0  0  0  0  0  0  0  0  0  0  0
  -20.5900  -28.3440   23.1890 C   0  0  0  0  0  3  0  0  0  0  0  0
  -20.6930  -26.9120   22.6160 C   0  0  0  0  0  2  0  0  0  0  0  0
  -19.5950  -26.5900   21.5960 C   0  0  0  0  0  2  0  0  0  0  0  0
  -18.2100  -26.7360   22.2350 C   0  0  0  0  0  2  0  0  0  0  0  0
  -19.1500  -28.8490   23.3430 C   0  0  0  0  0  0  0  0  0  0  0  0
  -18.9280  -30.1120   23.9320 C   0  0  0  0  0  3  0  0  0  0  0  0
  -17.6230  -30.6130   24.0930 C   0  0  0  0  0  3  0  0  0  0  0  0
  -16.5200  -29.8480   23.6740 C   0  0  0  0  0  3  0  0  0  0  0  0
  -16.7260  -28.5860   23.0890 C   0  0  0  0  0  3  0  0  0  0  0  0
  -25.8700  -32.5180   23.8710 C   0  0  0  0  0  3  0  0  0  0  0  0
  -26.3700  -31.7610   25.1640 C   0  0  1  0  0  0  0  0  0  0  0  0
  -25.2630  -31.5390   26.2210 C   0  0  0  0  0  1  0  0  0  0  0  0
  -26.9560  -30.3780   24.7970 C   0  0  0  0  0  1  0  0  0  0  0  0
  -27.5120  -32.5620   25.8320 C   0  0  0  0  0  1  0  0  0  0  0  0
  -25.5560  -33.9190   24.1860 N   0  0  0  0  0  0  0  0  0  0  0  0
  -25.8880  -34.9670   23.4190 C   0  0  0  0  0  0  0  0  0  0  0  0
  -26.5590  -34.8540   22.3900 O   0  0  0  0  0  0  0  0  0  0  0  0
  -24.9610  -34.0800   24.9850 H   0  0  0  0  0  0  0  0  0  0  0  0
  -24.1570  -36.7540   23.0470 C   0  0  0  0  0  1  0  0  0  0  0  0
  -25.3990  -36.3590   23.8620 C   0  0  0  0  0  3  0  0  0  0  0  0
  -27.5300  -37.2580   24.6880 C   0  0  0  0  0  1  0  0  0  0  0  0
  -26.4300  -37.4130   23.7400 N   0  0  0  0  0  0  0  0  0  0  0  0
  -26.0220  -38.3330   23.8740 H   0  0  0  0  0  0  0  0  0  0  0  0
  1  5  1  0
  2  6  2  0
  4  1  2  0
  4  2  1  0
  5 53  1  0
  5  3  2  0
  6 15  1  0
  6  3  1  0
  7 15  1  0
  8 13  1  0
  9 10  1  0
  9  8  1  0
 11 10  1  0
 11 20  1  0
 11 12  1  0
 13  7  1  0
 13 12  1  0
 14  7  2  0
 15 16  1  0
 17 18  2  0
 18 37  1  0
 19 18  1  0
 19 22  1  0
 20 17  1  0
 20 21  1  0
 21 19  2  0
 22 23  1  0
 23 24  2  0
 25 28  1  0
 25 24  1  0
 26 25  2  0
 27 26  1  0
 27 22  2  0
 28 29  1  0
 29 30  1  0
 30 31  2  0
 32 31  1  0
 32 36  1  0
 33 32  2  0
 34 29  2  0
 34 33  1  0
 35 34  1  0
 37 38  1  0
 38 41  1  0
 38 40  1  0
 39 37  2  0
 42 43  1  0
 42 17  1  0
 44 42  1  0
 45  4  1  0
 46 45  1  0
 46 49  1  0
 47 50  1  0
 47 45  2  0
 48 46  1  0
 51 47  1  0
 52 53  2  0
 52 55  1  0
 55 54  1  0
 56 57  1  0
 56 55  1  0
 58 69  2  0
 59 57  1  0
 59 64  1  0
 60 68  1  0
 60 70  1  0
 61 67  1  0
 61 63  1  0
 62 68  1  0
 63 64  2  0
 63 62  1  0
 65 59  2  0
 66 65  1  0
 66 61  2  0
 67 60  1  0
 68 58  1  0
 70 72  2  0
 71 70  1  0
 73 71  1  0
 74 83  2  0
 74 79  1  0
 75 71  1  0
 75 79  1  0
 76 75  1  0
 77 78  1  0
 77 76  1  0
 78 74  1  0
 79 80  2  0
 80 81  1  0
 82 81  2  0
 83 82  1  0
 84 58  1  0
 84 89  1  0
 84 85  1  0
 85 88  1  1
 85 86  1  0
 87 85  1  0
 89 92  1  0
 90 94  1  0
 90 89  1  0
 91 90  2  0
 94 93  1  0
 96 94  1  0
 96 97  1  0
 96 95  1  0
M  ISO  4   7 100  15 100  56 101  57 101
M  END
>  <TORSDO>  (6) 
F 20

>  <SCORE>  (6) 
-14.014

>  <name>  (6) 
5

>  <ligand_id>  (6) 
5

>  <original_smiles>  (6) 
[H]C(=Nc1c([H])c(C(N([H])[H])=[N+]([H])[H])c([H])c(N([H])C(=O)N2C([H])([H])C([H])([H])C([H])([H])C([H])(n3nc(-c4c([H])c([H])c(Oc5c([H])c([H])c(F)c([H])c5F)c([H])c4[H])c(C(=O)N([H])[H])c3N([H])[H])C2([H])[H])c1[H])C([H])(C([H])([H])[H])C([H])([H])Oc1c([H])c([H])c2c(c1[H])C([H])([H])N(C(=O)C([H])(N([H])C(=O)C([H])(N([H])C([H])([H])[H])C([H])([H])[H])C(C([H])([H])[H])(C([H])([H])[H])C([H])([H])[H])C([H])(C(=O)N([H])C1([H])c3c([H])c([H])c([H])c([H])c3C([H])([H])C([H])([H])C1([H])[H])C2([H])[H]

>  <smiles>  (6) 
[H]C(=Nc1c([H])c(C(N([H])[H])=[N+]([H])[H])c([H])c(N([H])C(=O)N2C([H])([H])C([H])([H])C([H])([H])C([H])(n3nc(-c4c([H])c([H])c(Oc5c([H])c([H])c(F)c([H])c5F)c([H])c4[H])c(C(=O)N([H])[H])c3N([H])[H])C2([H])[H])c1[H])C([H])(C([H])([H])[H])C([H])([H])Oc1c([H])c([H])c2c(c1[H])C([H])([H])N(C(=O)C([H])(N([H])C(=O)C([H])(N([H])C([H])([H])[H])C([H])([H])[H])C(C([H])([H])[H])(C([H])([H])[H])C([H])([H])[H])C([H])(C(=O)N([H])C1([H])c3c([H])c([H])c([H])c([H])c3C([H])([H])C([H])([H])C1([H])[H])C2([H])[H]

$$$$
6:0:0
     RDKit          3D

 99107  0  0  1  0  0  0  0  0999 V2000
  -28.7160  -20.4970   20.5080 C   0  0  0  0  0  0  0  0  0  0  0  0
  -28.1300  -22.9600   20.3370 C   0  0  0  0  0  0  0  0  0  0  0  0
  -29.0200  -21.8290   20.5620 N   0  0  0  0  0  0  0  0  0  0  0  0
  -27.4550  -20.1130   20.2750 N   0  0  0  0  0  4  0  0  0  0  0  0
  -26.9740  -22.7980   19.9250 O   0  0  0  0  0  0  0  0  0  0  0  0
  -29.9760  -21.9770   20.8430 H   0  0  0  0  0  0  0  0  0  0  0  0
  -27.1910  -19.1420   20.2910 H   0  0  0  0  0  0  0  0  0  0  0  0
  -26.7620  -20.8270   20.0810 H   0  0  0  0  0  0  0  0  0  0  0  0
  -31.0350  -19.7520   21.1720 C   0  0  0  0  0  3  0  0  0  0  0  0
  -29.4240  -18.0510   20.5000 C   0  0  0  0  0  3  0  0  0  0  0  0
  -31.6830  -17.3890   21.1300 C   0  0  0  0  0  3  0  0  0  0  0  0
  -29.7340  -19.4270   20.7220 C   0  0  0  0  0  0  0  0  0  0  0  0
  -32.0010  -18.7430   21.3750 C   0  0  0  0  0  0  0  0  0  0  0  0
  -30.3860  -17.0250   20.6980 C   0  0  0  0  0  0  0  0  0  0  0  0
  -30.7310  -14.6280   20.0340 C   0  0  0  0  0  0  0  0  0  0  0  0
  -30.4020  -12.4500   18.9120 C   0  0  0  0  0  2  0  0  0  0  0  0
  -29.3890  -12.6250   17.7620 C   0  0  0  0  0  2  0  0  0  0  0  0
  -27.9430  -12.4740   18.2750 C   0  0  0  0  0  2  0  0  0  0  0  0
  -27.6660  -13.3270   19.5430 C   0  0  0  0  0  3  0  0  0  0  0  0
  -28.7830  -13.1250   20.5920 C   0  0  0  0  0  2  0  0  0  0  0  0
  -30.0690  -13.4410   19.9470 N   0  0  0  0  0  0  0  0  0  0  0  0
  -31.8450  -14.8080   19.5300 O   0  0  0  0  0  0  0  0  0  0  0  0
  -30.0050  -15.6510   20.5370 N   0  0  0  0  0  0  0  0  0  0  0  0
  -29.0510  -15.4190   20.7640 H   0  0  0  0  0  0  0  0  0  0  0  0
  -25.3260  -13.9410   20.4180 C   0  0  0  0  0  0  0  0  0  0  0  0
  -24.2740  -13.1710   20.8360 C   0  0  0  0  0  0  0  0  0  0  0  0
  -24.7160  -11.8150   20.7430 C   0  0  0  0  0  0  0  0  0  0  0  0
  -26.3430  -13.0550   20.0980 N   0  0  0  0  0  0  0  0  0  0  0  0
  -25.9830  -11.7700   20.3500 N   0  0  0  0  0  0  0  0  0  0  0  0
  -23.9890  -10.5570   20.9490 C   0  0  0  0  0  0  0  0  0  0  0  0
  -24.4520   -9.5760   21.8540 C   0  0  0  0  0  3  0  0  0  0  0  0
  -23.7260   -8.3800   22.0470 C   0  0  0  0  0  3  0  0  0  0  0  0
  -22.5240   -8.1570   21.3340 C   0  0  0  0  0  0  0  0  0  0  0  0
  -22.0800   -9.1270   20.4170 C   0  0  0  0  0  3  0  0  0  0  0  0
  -22.8070  -10.3140   20.2220 C   0  0  0  0  0  3  0  0  0  0  0  0
  -21.7670   -7.0160   21.4380 O   0  0  0  0  0  0  0  0  0  0  0  0
  -21.7350   -6.2760   22.5930 C   0  0  0  0  0  0  0  0  0  0  0  0
  -21.3120   -6.8290   23.8210 C   0  0  0  0  0  3  0  0  0  0  0  0
  -21.2270   -6.0160   24.9680 C   0  0  0  0  0  3  0  0  0  0  0  0
  -21.5560   -4.6490   24.8890 C   0  0  0  0  0  0  0  0  0  0  0  0
  -21.9740   -4.0950   23.6660 C   0  0  0  0  0  3  0  0  0  0  0  0
  -22.0600   -4.9060   22.5210 C   0  0  0  0  0  0  0  0  0  0  0  0
  -22.4420   -4.3630   21.3400 F   0  0  0  0  0  0  0  0  0  0  0  0
  -21.4680   -3.8650   25.9880 F   0  0  0  0  0  0  0  0  0  0  0  0
  -22.9010  -13.6550   21.2060 C   0  0  0  0  0  0  0  0  0  0  0  0
  -22.2200  -12.9460   22.0990 N   0  0  0  0  0  0  0  0  0  0  0  0
  -22.4450  -14.6980   20.7410 O   0  0  0  0  0  0  0  0  0  0  0  0
  -22.6030  -12.1040   22.5020 H   0  0  0  0  0  0  0  0  0  0  0  0
  -21.3000  -13.2530   22.3860 H   0  0  0  0  0  0  0  0  0  0  0  0
  -25.4940  -15.3130   20.2600 N   0  0  0  0  0  0  0  0  0  0  0  0
  -24.7320  -15.9640   20.4120 H   0  0  0  0  0  0  0  0  0  0  0  0
  -26.3040  -15.7420   19.8350 H   0  0  0  0  0  0  0  0  0  0  0  0
  -33.2720  -19.0950   21.8320 N   0  0  0  0  0  0  0  0  0  0  0  0
  -33.3800  -19.9810   22.3180 H   0  0  0  0  0  0  0  0  0  0  0  0
  -33.8520  -18.3640   22.2330 H   0  0  0  0  0  0  0  0  0  0  0  0
  -28.6520  -24.3790   20.6900 C   0  0  0  0  0  2  0  0  0  0  0  0
  -29.6120  -25.5390   18.6120 C   0  0  0  0  0  1  0  0  0  0  0  0
  -28.4290  -25.4730   19.5900 C   0  0  0  0  0  3  0  0  0  0  0  0
  -28.2990  -26.8080   20.1450 O   0  0  0  0  0  0  0  0  0  0  0  0
  -24.4980  -31.9950   23.2400 C   0  0  0  0  0  0  0  0  0  0  0  0
  -27.1010  -27.5140   20.1320 C   0  0  0  0  0  0  0  0  0  0  0  0
  -23.2750  -30.5990   21.6080 C   0  0  0  0  0  3  0  0  0  0  0  0
  -24.7100  -29.0570   20.1710 C   0  0  0  0  0  0  0  0  0  0  0  0
  -25.8040  -30.9390   21.3920 C   0  0  0  0  0  2  0  0  0  0  0  0
  -25.8780  -29.5670   20.7490 C   0  0  0  0  0  0  0  0  0  0  0  0
  -27.0700  -28.8030   20.7240 C   0  0  0  0  0  3  0  0  0  0  0  0
  -25.8990  -27.0230   19.5640 C   0  0  0  0  0  3  0  0  0  0  0  0
  -24.7170  -27.7860   19.5780 C   0  0  0  0  0  3  0  0  0  0  0  0
  -23.4710  -29.9230   20.2250 C   0  0  0  0  0  2  0  0  0  0  0  0
  -24.5440  -31.1940   22.1370 N   0  0  0  0  0  0  0  0  0  0  0  0
  -23.4210  -32.2720   23.7860 O   0  0  0  0  0  0  0  0  0  0  0  0
  -22.6260  -29.5780   22.5700 C   0  0  0  0  0  0  0  0  0  0  0  0
  -21.3060  -29.3750   22.4290 N   0  0  0  0  0  0  0  0  0  0  0  0
  -23.3080  -28.9730   23.4020 O   0  0  0  0  0  0  0  0  0  0  0  0
  -20.8160  -29.9150   21.7290 H   0  0  0  0  0  0  0  0  0  0  0  0
  -17.9480  -28.1170   22.8750 C   0  0  0  0  0  0  0  0  0  0  0  0
  -20.4930  -28.4350   23.1990 C   0  0  0  0  0  3  0  0  0  0  0  0
  -20.6400  -26.9950   22.6520 C   0  0  0  0  0  2  0  0  0  0  0  0
  -19.5680  -26.6310   21.6190 C   0  0  0  0  0  2  0  0  0  0  0  0
  -18.1680  -26.7590   22.2300 C   0  0  0  0  0  2  0  0  0  0  0  0
  -19.0410  -28.9100   23.3150 C   0  0  0  0  0  0  0  0  0  0  0  0
  -18.7830  -30.1800   23.8760 C   0  0  0  0  0  3  0  0  0  0  0  0
  -17.4640  -30.6560   24.0020 C   0  0  0  0  0  3  0  0  0  0  0  0
  -16.3860  -29.8590   23.5810 C   0  0  0  0  0  3  0  0  0  0  0  0
  -16.6280  -28.5920   23.0230 C   0  0  0  0  0  3  0  0  0  0  0  0
  -25.7900  -32.6210   23.8500 C   0  0  0  0  0  3  0  0  0  0  0  0
  -26.3080  -31.8530   25.1280 C   0  0  1  0  0  0  0  0  0  0  0  0
  -25.2180  -31.6200   26.1980 C   0  0  0  0  0  1  0  0  0  0  0  0
  -26.8910  -30.4750   24.7380 C   0  0  0  0  0  1  0  0  0  0  0  0
  -27.4600  -32.6500   25.7850 C   0  0  0  0  0  1  0  0  0  0  0  0
  -25.4920  -34.0230   24.1710 N   0  0  0  0  0  0  0  0  0  0  0  0
  -25.8260  -35.0670   23.4020 C   0  0  0  0  0  0  0  0  0  0  0  0
  -26.4890  -34.9510   22.3670 O   0  0  0  0  0  0  0  0  0  0  0  0
  -24.9040  -34.1890   24.9750 H   0  0  0  0  0  0  0  0  0  0  0  0
  -24.1050  -36.8650   23.0450 C   0  0  0  0  0  1  0  0  0  0  0  0
  -25.3500  -36.4610   23.8500 C   0  0  0  0  0  3  0  0  0  0  0  0
  -27.4940  -37.3440   24.6590 C   0  0  0  0  0  1  0  0  0  0  0  0
  -26.3870  -37.5080   23.7200 N   0  0  0  0  0  0  0  0  0  0  0  0
  -25.9870  -38.4320   23.8600 H   0  0  0  0  0  0  0  0  0  0  0  0
  1  3  1  0
  1 12  1  0
  2  3  1  0
  2 56  1  0
  3  6  1  0
  4  7  1  0
  4  1  2  0
  5  2  2  0
  8  4  1  0
  9 13  1  0
 10 14  2  0
 10 12  1  0
 11 13  2  0
 12  9  2  0
 13 53  1  0
 14 11  1  0
 15 23  1  0
 16 21  1  0
 17 18  1  0
 17 16  1  0
 19 18  1  0
 19 28  1  0
 19 20  1  0
 21 15  1  0
 21 20  1  0
 22 15  2  0
 23 14  1  0
 23 24  1  0
 25 26  2  0
 26 45  1  0
 27 26  1  0
 27 30  1  0
 28 29  1  0
 28 25  1  0
 29 27  2  0
 30 31  1  0
 31 32  2  0
 33 36  1  0
 33 32  1  0
 34 33  2  0
 35 34  1  0
 35 30  2  0
 36 37  1  0
 37 38  1  0
 38 39  2  0
 40 39  1  0
 40 44  1  0
 41 40  2  0
 42 37  2  0
 42 41  1  0
 43 42  1  0
 45 46  1  0
 46 49  1  0
 46 48  1  0
 47 45  2  0
 50 51  1  0
 50 25  1  0
 52 50  1  0
 53 55  1  0
 53 54  1  0
 58 57  1  0
 58 59  1  0
 58 56  1  0
 60 71  2  0
 61 59  1  0
 61 66  1  0
 62 70  1  0
 62 72  1  0
 63 69  1  0
 63 65  1  0
 64 70  1  0
 65 64  1  0
 66 65  2  0
 67 68  1  0
 67 61  2  0
 68 63  2  0
 69 62  1  0
 70 60  1  0
 72 74  2  0
 73 72  1  0
 75 73  1  0
 76 85  2  0
 76 81  1  0
 77 73  1  0
 77 81  1  0
 78 77  1  0
 79 80  1  0
 79 78  1  0
 80 76  1  0
 81 82  2  0
 82 83  1  0
 84 83  2  0
 85 84  1  0
 86 60  1  0
 86 91  1  0
 86 87  1  0
 87 90  1  1
 87 88  1  0
 89 87  1  0
 91 94  1  0
 92 96  1  0
 92 91  1  0
 93 92  2  0
 96 95  1  0
 98 96  1  0
 98 99  1  0
 98 97  1  0
M  ISO  4  15 100  23 100  58 101  59 101
M  END
>  <TORSDO>  (7) 
F 20

>  <SCORE>  (7) 
-14.121

>  <name>  (7) 
6

>  <ligand_id>  (7) 
6

>  <original_smiles>  (7) 
[H]c1c([H])c([H])c2c(c1[H])C([H])([H])C([H])([H])C([H])([H])C2([H])N([H])C(=O)C1([H])N(C(=O)C([H])(N([H])C(=O)C([H])(N([H])C([H])([H])[H])C([H])([H])[H])C(C([H])([H])[H])(C([H])([H])[H])C([H])([H])[H])C([H])([H])c2c([H])c(OC([H])(C([H])([H])[H])C([H])([H])C(=O)N([H])C(c3c([H])c(N([H])[H])c([H])c(N([H])C(=O)N4C([H])([H])C([H])([H])C([H])([H])C([H])(n5nc(-c6c([H])c([H])c(Oc7c([H])c([H])c(F)c([H])c7F)c([H])c6[H])c(C(=O)N([H])[H])c5N([H])[H])C4([H])[H])c3[H])=[N+]([H])[H])c([H])c([H])c2C1([H])[H]

>  <smiles>  (7) 
[H]c1c([H])c([H])c2c(c1[H])C([H])([H])C([H])([H])C([H])([H])C2([H])N([H])C(=O)C1([H])N(C(=O)C([H])(N([H])C(=O)C([H])(N([H])C([H])([H])[H])C([H])([H])[H])C(C([H])([H])[H])(C([H])([H])[H])C([H])([H])[H])C([H])([H])c2c([H])c(OC([H])(C([H])([H])[H])C([H])([H])C(=O)N([H])C(c3c([H])c(N([H])[H])c([H])c(N([H])C(=O)N4C([H])([H])C([H])([H])C([H])([H])C([H])(n5nc(-c6c([H])c([H])c(Oc7c([H])c([H])c(F)c([H])c7F)c([H])c6[H])c(C(=O)N([H])[H])c5N([H])[H])C4([H])[H])c3[H])=[N+]([H])[H])c([H])c([H])c2C1([H])[H]

$$$$
7:0:0
     RDKit          3D

100108  0  0  1  0  0  0  0  0999 V2000
  -29.5930  -20.3890   21.0910 C   0  0  0  0  0  3  0  0  0  0  0  0
  -29.2290  -21.2990   18.8800 C   0  0  0  0  0  3  0  0  0  0  0  0
  -29.9690  -18.9500   19.1400 C   0  0  0  0  0  0  0  0  0  0  0  0
  -29.9390  -19.0700   20.5640 C   0  0  0  0  0  0  0  0  0  0  0  0
  -29.2830  -21.5500   20.2660 C   0  0  0  0  0  0  0  0  0  0  0  0
  -29.5680  -20.0510   18.3170 C   0  0  0  0  0  0  0  0  0  0  0  0
  -28.9840  -24.1670   20.1320 C   0  0  0  0  0  0  0  0  0  0  0  0
  -28.9600  -22.9170   20.7700 N   0  0  0  0  0  0  0  0  0  0  0  0
  -29.5400  -24.2890   19.0370 O   0  0  0  0  0  0  0  0  0  0  0  0
  -28.6320  -22.9340   21.7250 H   0  0  0  0  0  0  0  0  0  0  0  0
  -28.3040  -25.4970   20.7550 C   0  0  0  0  0  3  0  0  0  0  0  0
  -28.8790  -25.7720   22.1570 C   0  0  0  0  0  0  0  0  0  0  0  0
  -28.1820  -25.1390   23.3580 C   0  0  0  0  0  1  0  0  0  0  0  0
  -29.8620  -26.5010   22.3320 O   0  0  0  0  0  0  0  0  0  0  0  0
  -28.3830  -26.7800   19.9550 O   0  0  0  0  0  0  0  0  0  0  0  0
  -24.6620  -32.0430   23.3120 C   0  0  0  0  0  0  0  0  0  0  0  0
  -27.2770  -27.6570   19.9980 C   0  0  0  0  0  0  0  0  0  0  0  0
  -23.4470  -30.7000   21.6370 C   0  0  0  0  0  3  0  0  0  0  0  0
  -24.8920  -29.2470   20.1010 C   0  0  0  0  0  0  0  0  0  0  0  0
  -25.9760  -31.0720   21.4090 C   0  0  0  0  0  2  0  0  0  0  0  0
  -26.0680  -29.7260   20.6960 C   0  0  0  0  0  0  0  0  0  0  0  0
  -27.2660  -28.9460   20.6300 C   0  0  0  0  0  3  0  0  0  0  0  0
  -26.0800  -27.2450   19.3740 C   0  0  0  0  0  3  0  0  0  0  0  0
  -24.9030  -28.0170   19.4250 C   0  0  0  0  0  3  0  0  0  0  0  0
  -23.6410  -30.0970   20.2200 C   0  0  0  0  0  2  0  0  0  0  0  0
  -24.7150  -31.2890   22.1750 N   0  0  0  0  0  0  0  0  0  0  0  0
  -23.5870  -32.2730   23.8850 O   0  0  0  0  0  0  0  0  0  0  0  0
  -22.8320  -29.6250   22.5630 C   0  0  0  0  0  0  0  0  0  0  0  0
  -21.5130  -29.3990   22.4370 N   0  0  0  0  0  0  0  0  0  0  0  0
  -23.5390  -28.9960   23.3550 O   0  0  0  0  0  0  0  0  0  0  0  0
  -21.0000  -29.9600   21.7710 H   0  0  0  0  0  0  0  0  0  0  0  0
  -18.1900  -28.0380   22.8960 C   0  0  0  0  0  0  0  0  0  0  0  0
  -20.7340  -28.4040   23.1760 C   0  0  0  0  0  3  0  0  0  0  0  0
  -20.9020  -26.9960   22.5580 C   0  0  0  0  0  2  0  0  0  0  0  0
  -19.8160  -26.6550   21.5320 C   0  0  0  0  0  2  0  0  0  0  0  0
  -18.4280  -26.7190   22.1780 C   0  0  0  0  0  2  0  0  0  0  0  0
  -19.2740  -28.8360   23.3500 C   0  0  0  0  0  0  0  0  0  0  0  0
  -18.9990  -30.0670   23.9810 C   0  0  0  0  0  3  0  0  0  0  0  0
  -17.6720  -30.5050   24.1600 C   0  0  0  0  0  3  0  0  0  0  0  0
  -16.6040  -29.7030   23.7230 C   0  0  0  0  0  3  0  0  0  0  0  0
  -16.8640  -28.4710   23.0960 C   0  0  0  0  0  3  0  0  0  0  0  0
  -25.9460  -32.6760   23.9310 C   0  0  0  0  0  3  0  0  0  0  0  0
  -25.6240  -34.0590   24.3130 N   0  0  0  0  0  0  0  0  0  0  0  0
  -25.9710  -35.1450   23.6110 C   0  0  0  0  0  0  0  0  0  0  0  0
  -26.6660  -35.0890   22.5930 O   0  0  0  0  0  0  0  0  0  0  0  0
  -25.0130  -34.1770   25.1080 H   0  0  0  0  0  0  0  0  0  0  0  0
  -24.2710  -36.9670   23.2670 C   0  0  0  0  0  1  0  0  0  0  0  0
  -25.4660  -36.5090   24.1180 C   0  0  0  0  0  3  0  0  0  0  0  0
  -27.5530  -37.3380   25.1140 C   0  0  0  0  0  1  0  0  0  0  0  0
  -26.5080  -37.5600   24.1180 N   0  0  0  0  0  0  0  0  0  0  0  0
  -26.0970  -38.4740   24.2910 H   0  0  0  0  0  0  0  0  0  0  0  0
  -26.4970  -31.8730   25.1730 C   0  0  1  0  0  0  0  0  0  0  0  0
  -25.4250  -31.5830   26.2490 C   0  0  0  0  0  1  0  0  0  0  0  0
  -27.0950  -30.5180   24.7280 C   0  0  0  0  0  1  0  0  0  0  0  0
  -27.6460  -32.6610   25.8410 C   0  0  0  0  0  1  0  0  0  0  0  0
  -30.5750  -17.7330   18.5190 C   0  0  0  0  0  0  0  0  0  0  0  0
  -29.6390  -16.7290   17.8600 C   0  0  0  0  0  1  0  0  0  0  0  0
  -31.7890  -17.5080   18.5230 O   0  0  0  0  0  0  0  0  0  0  0  0
  -29.5350  -19.9920   16.9170 N   0  0  0  0  0  0  0  0  0  0  0  0
  -29.2090  -20.7800   16.3660 H   0  0  0  0  0  0  0  0  0  0  0  0
  -29.6190  -19.1270   16.3920 H   0  0  0  0  0  0  0  0  0  0  0  0
  -30.4090  -17.8500   21.5010 C   0  0  0  0  0  2  0  0  0  0  0  0
  -30.8540  -15.2560   21.1220 C   0  0  0  0  0  0  0  0  0  0  0  0
  -30.8190  -12.9600   20.1080 C   0  0  0  0  0  2  0  0  0  0  0  0
  -30.0310  -12.9780   18.7820 C   0  0  0  0  0  2  0  0  0  0  0  0
  -28.5210  -12.7930   19.0400 C   0  0  0  0  0  2  0  0  0  0  0  0
  -27.9930  -13.6850   20.1980 C   0  0  0  0  0  3  0  0  0  0  0  0
  -28.9180  -13.6410   21.4320 C   0  0  0  0  0  2  0  0  0  0  0  0
  -30.2610  -14.0210   20.9780 N   0  0  0  0  0  0  0  0  0  0  0  0
  -32.0700  -15.3710   20.9480 O   0  0  0  0  0  0  0  0  0  0  0  0
  -30.0420  -16.3750   21.2680 N   0  0  0  0  0  0  0  0  0  0  0  0
  -29.0570  -16.1710   21.3400 H   0  0  0  0  0  0  0  0  0  0  0  0
  -25.5280  -14.2250   20.6520 C   0  0  0  0  0  0  0  0  0  0  0  0
  -24.4480  -13.4320   20.9290 C   0  0  0  0  0  0  0  0  0  0  0  0
  -24.9410  -12.0930   20.9680 C   0  0  0  0  0  0  0  0  0  0  0  0
  -26.6110  -13.3680   20.5440 N   0  0  0  0  0  0  0  0  0  0  0  0
  -26.2590  -12.0820   20.7990 N   0  0  0  0  0  0  0  0  0  0  0  0
  -24.2250  -10.8170   21.0950 C   0  0  0  0  0  0  0  0  0  0  0  0
  -24.5500   -9.8880   22.1070 C   0  0  0  0  0  3  0  0  0  0  0  0
  -23.8320   -8.6800   22.2230 C   0  0  0  0  0  3  0  0  0  0  0  0
  -22.7790   -8.3870   21.3240 C   0  0  0  0  0  0  0  0  0  0  0  0
  -22.4770   -9.3050   20.3030 C   0  0  0  0  0  3  0  0  0  0  0  0
  -23.1960  -10.5070   20.1840 C   0  0  0  0  0  3  0  0  0  0  0  0
  -22.0490   -7.2230   21.3420 O   0  0  0  0  0  0  0  0  0  0  0  0
  -21.8340   -6.5280   22.5060 C   0  0  0  0  0  0  0  0  0  0  0  0
  -21.1630   -7.1060   23.6060 C   0  0  0  0  0  3  0  0  0  0  0  0
  -20.9040   -6.3340   24.7550 C   0  0  0  0  0  3  0  0  0  0  0  0
  -21.3030   -4.9850   24.8080 C   0  0  0  0  0  0  0  0  0  0  0  0
  -21.9650   -4.4070   23.7100 C   0  0  0  0  0  3  0  0  0  0  0  0
  -22.2280   -5.1750   22.5620 C   0  0  0  0  0  0  0  0  0  0  0  0
  -22.8460   -4.6050   21.5010 F   0  0  0  0  0  0  0  0  0  0  0  0
  -21.0460   -4.2430   25.9100 F   0  0  0  0  0  0  0  0  0  0  0  0
  -23.0200  -13.8820   21.0320 C   0  0  0  0  0  0  0  0  0  0  0  0
  -22.2190  -13.1860   21.8290 N   0  0  0  0  0  0  0  0  0  0  0  0
  -22.6190  -14.8850   20.4400 O   0  0  0  0  0  0  0  0  0  0  0  0
  -22.5550  -12.3750   22.3270 H   0  0  0  0  0  0  0  0  0  0  0  0
  -21.2520  -13.4560   21.9330 H   0  0  0  0  0  0  0  0  0  0  0  0
  -25.6770  -15.5920   20.4480 N   0  0  0  0  0  0  0  0  0  0  0  0
  -24.8570  -16.1890   20.3890 H   0  0  0  0  0  0  0  0  0  0  0  0
  -26.4720  -15.9670   19.9450 H   0  0  0  0  0  0  0  0  0  0  0  0
  2  5  1  0
  3  4  2  0
  4  1  1  0
  4 62  1  0
  5  8  1  0
  5  1  2  0
  6  2  2  0
  6  3  1  0
  7 11  1  0
  7  8  1  0
  8 10  1  0
  9  7  2  0
 11 15  1  0
 11 12  1  0
 12 14  2  0
 12 13  1  0
 15 17  1  0
 16 27  2  0
 17 22  1  0
 18 26  1  0
 18 28  1  0
 19 25  1  0
 19 21  1  0
 20 26  1  0
 21 20  1  0
 22 21  2  0
 23 24  1  0
 23 17  2  0
 24 19  2  0
 25 18  1  0
 26 16  1  0
 28 30  2  0
 29 28  1  0
 31 29  1  0
 32 41  2  0
 32 37  1  0
 33 29  1  0
 33 37  1  0
 34 33  1  0
 35 36  1  0
 35 34  1  0
 36 32  1  0
 37 38  2  0
 38 39  1  0
 40 39  2  0
 41 40  1  0
 42 16  1  0
 42 43  1  0
 42 52  1  0
 43 46  1  0
 44 48  1  0
 44 43  1  0
 45 44  2  0
 48 47  1  0
 50 48  1  0
 50 51  1  0
 50 49  1  0
 52 55  1  1
 52 53  1  0
 54 52  1  0
 56 58  2  0
 56  3  1  0
 57 56  1  0
 59  6  1  0
 60 59  1  0
 61 59  1  0
 63 71  1  0
 64 69  1  0
 65 66  1  0
 65 64  1  0
 67 66  1  0
 67 76  1  0
 67 68  1  0
 69 63  1  0
 69 68  1  0
 70 63  2  0
 71 72  1  0
 71 62  1  0
 73 74  2  0
 74 75  1  0
 74 93  1  0
 75 78  1  0
 76 73  1  0
 76 77  1  0
 77 75  2  0
 78 79  1  0
 79 80  2  0
 81 84  1  0
 81 80  1  0
 82 81  2  0
 83 82  1  0
 83 78  2  0
 84 85  1  0
 85 90  2  0
 85 86  1  0
 86 87  2  0
 87 88  1  0
 88 92  1  0
 89 88  2  0
 90 89  1  0
 91 90  1  0
 93 94  1  0
 94 97  1  0
 94 96  1  0
 95 93  2  0
 98 73  1  0
 99 98  1  0
100 98  1  0
M  ISO  4  11 101  15 101  63 100  71 100
M  END
>  <TORSDO>  (8) 
F 22

>  <SCORE>  (8) 
-12.122

>  <name>  (8) 
7

>  <ligand_id>  (8) 
7

>  <original_smiles>  (8) 
[H]c1c([H])c([H])c2c(c1[H])C([H])([H])C([H])([H])C([H])([H])C2([H])N([H])C(=O)C1([H])N(C(=O)C([H])(N([H])C(=O)C([H])(N([H])C([H])([H])[H])C([H])([H])[H])C(C([H])([H])[H])(C([H])([H])[H])C([H])([H])[H])C([H])([H])c2c([H])c(OC([H])(C(=O)N([H])c3c([H])c(N([H])[H])c(C(=O)C([H])([H])[H])c(C([H])([H])N([H])C(=O)N4C([H])([H])C([H])([H])C([H])([H])C([H])(n5nc(-c6c([H])c([H])c(Oc7c([H])c([H])c(F)c([H])c7F)c([H])c6[H])c(C(=O)N([H])[H])c5N([H])[H])C4([H])[H])c3[H])C(=O)C([H])([H])[H])c([H])c([H])c2C1([H])[H]

>  <smiles>  (8) 
[H]c1c([H])c([H])c2c(c1[H])C([H])([H])C([H])([H])C([H])([H])C2([H])N([H])C(=O)C1([H])N(C(=O)C([H])(N([H])C(=O)C([H])(N([H])C([H])([H])[H])C([H])([H])[H])C(C([H])([H])[H])(C([H])([H])[H])C([H])([H])[H])C([H])([H])c2c([H])c(OC([H])(C(=O)N([H])c3c([H])c(N([H])[H])c(C(=O)C([H])([H])[H])c(C([H])([H])N([H])C(=O)N4C([H])([H])C([H])([H])C([H])([H])C([H])(n5nc(-c6c([H])c([H])c(Oc7c([H])c([H])c(F)c([H])c7F)c([H])c6[H])c(C(=O)N([H])[H])c5N([H])[H])C4([H])[H])c3[H])C(=O)C([H])([H])[H])c([H])c([H])c2C1([H])[H]

$$$$
8:0:0
     RDKit          3D

 97105  0  0  1  0  0  0  0  0999 V2000
  -31.5580  -17.8070   20.5850 C   0  0  0  0  0  3  0  0  0  0  0  0
  -29.2620  -18.4980   20.5380 C   0  0  0  0  0  3  0  0  0  0  0  0
  -30.2090  -17.3880   20.5690 C   0  0  0  0  0  0  0  0  0  0  0  0
  -31.8980  -19.1730   20.5340 C   0  0  0  0  0  0  0  0  0  0  0  0
  -29.6790  -19.8920   20.4880 C   0  0  0  0  0  0  0  0  0  0  0  0
  -30.9920  -20.1820   20.4800 N   0  0  0  0  0  0  0  0  0  0  0  0
  -30.6030  -14.7770   20.3900 C   0  0  0  0  0  0  0  0  0  0  0  0
  -30.3770  -12.5080   19.3650 C   0  0  0  0  0  2  0  0  0  0  0  0
  -29.4460  -12.5900   18.1370 C   0  0  0  0  0  2  0  0  0  0  0  0
  -27.9760  -12.4170   18.5640 C   0  0  0  0  0  2  0  0  0  0  0  0
  -27.6020  -13.3000   19.7850 C   0  0  0  0  0  3  0  0  0  0  0  0
  -28.6570  -13.2150   20.9090 C   0  0  0  0  0  2  0  0  0  0  0  0
  -29.9540  -13.5640   20.3160 N   0  0  0  0  0  0  0  0  0  0  0  0
  -31.7950  -14.8240   20.0670 O   0  0  0  0  0  0  0  0  0  0  0  0
  -29.8530  -15.9340   20.6140 N   0  0  0  0  0  0  0  0  0  0  0  0
  -28.8780  -15.7430   20.7810 H   0  0  0  0  0  0  0  0  0  0  0  0
  -25.2110  -13.8850   20.5030 C   0  0  0  0  0  0  0  0  0  0  0  0
  -24.1470  -13.1090   20.8730 C   0  0  0  0  0  0  0  0  0  0  0  0
  -24.6160  -11.7600   20.8530 C   0  0  0  0  0  0  0  0  0  0  0  0
  -26.2580  -13.0090   20.2740 N   0  0  0  0  0  0  0  0  0  0  0  0
  -25.9080  -11.7250   20.5490 N   0  0  0  0  0  0  0  0  0  0  0  0
  -23.8930  -10.4950   21.0450 C   0  0  0  0  0  0  0  0  0  0  0  0
  -24.3300   -9.5270   21.9750 C   0  0  0  0  0  3  0  0  0  0  0  0
  -23.6060   -8.3290   22.1570 C   0  0  0  0  0  3  0  0  0  0  0  0
  -22.4300   -8.0910   21.4070 C   0  0  0  0  0  0  0  0  0  0  0  0
  -22.0120   -9.0480   20.4640 C   0  0  0  0  0  3  0  0  0  0  0  0
  -22.7360  -10.2360   20.2820 C   0  0  0  0  0  3  0  0  0  0  0  0
  -21.6760   -6.9450   21.4980 O   0  0  0  0  0  0  0  0  0  0  0  0
  -21.6420   -6.1960   22.6450 C   0  0  0  0  0  0  0  0  0  0  0  0
  -21.2430   -6.7460   23.8830 C   0  0  0  0  0  3  0  0  0  0  0  0
  -21.1550   -5.9230   25.0240 C   0  0  0  0  0  3  0  0  0  0  0  0
  -21.4560   -4.5510   24.9280 C   0  0  0  0  0  0  0  0  0  0  0  0
  -21.8490   -4.0010   23.6960 C   0  0  0  0  0  3  0  0  0  0  0  0
  -21.9380   -4.8210   22.5560 C   0  0  0  0  0  0  0  0  0  0  0  0
  -22.2960   -4.2800   21.3670 F   0  0  0  0  0  0  0  0  0  0  0  0
  -21.3650   -3.7590   26.0220 F   0  0  0  0  0  0  0  0  0  0  0  0
  -22.7470  -13.5830   21.1340 C   0  0  0  0  0  0  0  0  0  0  0  0
  -22.0160  -12.8880   21.9990 N   0  0  0  0  0  0  0  0  0  0  0  0
  -22.3090  -14.6040   20.6070 O   0  0  0  0  0  0  0  0  0  0  0  0
  -22.3830  -12.0610   22.4460 H   0  0  0  0  0  0  0  0  0  0  0  0
  -21.0770  -13.1890   22.2170 H   0  0  0  0  0  0  0  0  0  0  0  0
  -25.3700  -15.2560   20.3170 N   0  0  0  0  0  0  0  0  0  0  0  0
  -24.5960  -15.9050   20.4110 H   0  0  0  0  0  0  0  0  0  0  0  0
  -26.2050  -15.6930   19.9500 H   0  0  0  0  0  0  0  0  0  0  0  0
  -33.8670  -19.9440   19.1550 C   0  0  0  0  0  1  0  0  0  0  0  0
  -33.3540  -19.6090   20.5660 C   0  0  0  0  0  3  0  0  0  0  0  0
  -33.4540  -20.7570   21.4690 N   0  0  0  0  0  4  0  0  0  0  0  0
  -32.6820  -21.3570   21.2280 H   0  0  0  0  0  0  0  0  0  0  0  0
  -34.3320  -21.2330   21.3820 H   0  0  0  0  0  0  0  0  0  0  0  0
  -33.3190  -20.4500   22.4140 H   0  0  0  0  0  0  0  0  0  0  0  0
  -28.8170  -21.0520   20.4890 N   0  0  0  0  0  0  0  0  0  0  0  0
  -27.8180  -20.8820   20.5180 H   0  0  0  0  0  0  0  0  0  0  0  0
  -29.2150  -22.4400   19.9960 C   0  0  0  0  0  2  0  0  0  0  0  0
  -28.4550  -23.7660   20.4870 C   0  0  0  0  0  0  0  0  0  0  0  0
  -27.8220  -23.7380   21.5490 O   0  0  0  0  0  0  0  0  0  0  0  0
  -28.4910  -25.1100   19.6120 C   0  0  0  0  0  2  0  0  0  0  0  0
  -28.3710  -26.4500   20.2860 O   0  0  0  0  0  0  0  0  0  0  0  0
  -24.6150  -31.8870   23.2380 C   0  0  0  0  0  0  0  0  0  0  0  0
  -27.2440  -27.2980   20.1910 C   0  0  0  0  0  0  0  0  0  0  0  0
  -23.4190  -30.4840   21.5950 C   0  0  0  0  0  3  0  0  0  0  0  0
  -24.8770  -28.9310   20.1710 C   0  0  0  0  0  0  0  0  0  0  0  0
  -25.9600  -30.8000   21.4200 C   0  0  0  0  0  2  0  0  0  0  0  0
  -26.0440  -29.4170   20.7730 C   0  0  0  0  0  0  0  0  0  0  0  0
  -27.2250  -28.6110   20.7750 C   0  0  0  0  0  3  0  0  0  0  0  0
  -26.0500  -26.8720   19.5680 C   0  0  0  0  0  3  0  0  0  0  0  0
  -24.8850  -27.6660   19.5610 C   0  0  0  0  0  3  0  0  0  0  0  0
  -23.6380  -29.8050   20.2170 C   0  0  0  0  0  2  0  0  0  0  0  0
  -24.6840  -31.0760   22.1410 N   0  0  0  0  0  0  0  0  0  0  0  0
  -23.5290  -32.1630   23.7690 O   0  0  0  0  0  0  0  0  0  0  0  0
  -22.7540  -29.4700   22.5560 C   0  0  0  0  0  0  0  0  0  0  0  0
  -21.4280  -29.2930   22.4300 N   0  0  0  0  0  0  0  0  0  0  0  0
  -23.4330  -28.8430   23.3750 O   0  0  0  0  0  0  0  0  0  0  0  0
  -20.9390  -29.8510   21.7440 H   0  0  0  0  0  0  0  0  0  0  0  0
  -18.0520  -28.0920   22.9320 C   0  0  0  0  0  0  0  0  0  0  0  0
  -20.6100  -28.3550   23.2010 C   0  0  0  0  0  3  0  0  0  0  0  0
  -20.7120  -26.9220   22.6250 C   0  0  0  0  0  2  0  0  0  0  0  0
  -19.6100  -26.5990   21.6110 C   0  0  0  0  0  2  0  0  0  0  0  0
  -18.2280  -26.7440   22.2550 C   0  0  0  0  0  2  0  0  0  0  0  0
  -19.1700  -28.8550   23.3620 C   0  0  0  0  0  0  0  0  0  0  0  0
  -18.9500  -30.1170   23.9560 C   0  0  0  0  0  3  0  0  0  0  0  0
  -17.6450  -30.6180   24.1210 C   0  0  0  0  0  3  0  0  0  0  0  0
  -16.5420  -29.8530   23.7080 C   0  0  0  0  0  3  0  0  0  0  0  0
  -16.7460  -28.5910   23.1200 C   0  0  0  0  0  3  0  0  0  0  0  0
  -25.8940  -32.5250   23.8630 C   0  0  0  0  0  3  0  0  0  0  0  0
  -25.5800  -33.9240   24.1900 N   0  0  0  0  0  0  0  0  0  0  0  0
  -25.9120  -34.9770   23.4310 C   0  0  0  0  0  0  0  0  0  0  0  0
  -26.5850  -34.8740   22.4010 O   0  0  0  0  0  0  0  0  0  0  0  0
  -24.9860  -34.0780   24.9910 H   0  0  0  0  0  0  0  0  0  0  0  0
  -24.1810  -36.7670   23.0720 C   0  0  0  0  0  1  0  0  0  0  0  0
  -25.4210  -36.3650   23.8860 C   0  0  0  0  0  3  0  0  0  0  0  0
  -27.5530  -37.2510   24.7200 C   0  0  0  0  0  1  0  0  0  0  0  0
  -26.4510  -37.4200   23.7780 N   0  0  0  0  0  0  0  0  0  0  0  0
  -26.0440  -38.3390   23.9300 H   0  0  0  0  0  0  0  0  0  0  0  0
  -26.4060  -31.7620   25.1470 C   0  0  1  0  0  0  0  0  0  0  0  0
  -25.3090  -31.5270   26.2110 C   0  0  0  0  0  1  0  0  0  0  0  0
  -26.9940  -30.3840   24.7660 C   0  0  0  0  0  1  0  0  0  0  0  0
  -27.5530  -32.5610   25.8100 C   0  0  0  0  0  1  0  0  0  0  0  0
  2  3  2  0
  3  1  1  0
  3 15  1  0
  4 46  1  0
  4  1  2  0
  5 51  1  0
  5  2  1  0
  6  5  2  0
  6  4  1  0
  7 15  1  0
  8 13  1  0
  9 10  1  0
  9  8  1  0
 11 10  1  0
 11 20  1  0
 11 12  1  0
 13  7  1  0
 13 12  1  0
 14  7  2  0
 15 16  1  0
 17 18  2  0
 18 37  1  0
 19 18  1  0
 19 22  1  0
 20 17  1  0
 20 21  1  0
 21 19  2  0
 22 23  1  0
 23 24  2  0
 25 28  1  0
 25 24  1  0
 26 25  2  0
 27 26  1  0
 27 22  2  0
 28 29  1  0
 29 30  1  0
 30 31  2  0
 32 31  1  0
 32 36  1  0
 33 32  2  0
 34 29  2  0
 34 33  1  0
 35 34  1  0
 37 38  1  0
 38 41  1  0
 38 40  1  0
 39 37  2  0
 42 43  1  0
 42 17  1  0
 44 42  1  0
 46 45  1  0
 46 47  1  0
 47 50  1  0
 48 47  1  0
 49 47  1  0
 51 52  1  0
 53 54  1  0
 53 51  1  0
 54 55  2  0
 56 57  1  0
 56 54  1  0
 58 69  2  0
 59 57  1  0
 59 64  1  0
 60 68  1  0
 60 70  1  0
 61 67  1  0
 61 63  1  0
 62 68  1  0
 63 64  2  0
 63 62  1  0
 65 59  2  0
 66 65  1  0
 66 61  2  0
 67 60  1  0
 68 58  1  0
 70 72  2  0
 71 70  1  0
 73 71  1  0
 74 83  2  0
 74 79  1  0
 75 71  1  0
 75 79  1  0
 76 75  1  0
 77 78  1  0
 77 76  1  0
 78 74  1  0
 79 80  2  0
 80 81  1  0
 82 81  2  0
 83 82  1  0
 84 58  1  0
 84 85  1  0
 84 94  1  0
 85 88  1  0
 86 90  1  0
 86 85  1  0
 87 86  2  0
 90 89  1  0
 92 90  1  0
 92 93  1  0
 92 91  1  0
 94 97  1  1
 94 95  1  0
 96 94  1  0
M  ISO  4   7 100  15 100  56 101  57 101
M  END
>  <TORSDO>  (9) 
F 22

>  <SCORE>  (9) 
-13.622

>  <name>  (9) 
8

>  <ligand_id>  (9) 
8

>  <original_smiles>  (9) 
[H]c1c([H])c([H])c2c(c1[H])C([H])([H])C([H])([H])C([H])([H])C2([H])N([H])C(=O)C1([H])N(C(=O)C([H])(N([H])C(=O)C([H])(N([H])C([H])([H])[H])C([H])([H])[H])C(C([H])([H])[H])(C([H])([H])[H])C([H])([H])[H])C([H])([H])c2c([H])c(OC([H])([H])C(=O)C([H])([H])N([H])c3nc(C([H])(C([H])([H])[H])[N+]([H])([H])[H])c([H])c(N([H])C(=O)N4C([H])([H])C([H])([H])C([H])([H])C([H])(n5nc(-c6c([H])c([H])c(Oc7c([H])c([H])c(F)c([H])c7F)c([H])c6[H])c(C(=O)N([H])[H])c5N([H])[H])C4([H])[H])c3[H])c([H])c([H])c2C1([H])[H]

>  <smiles>  (9) 
[H]c1c([H])c([H])c2c(c1[H])C([H])([H])C([H])([H])C([H])([H])C2([H])N([H])C(=O)C1([H])N(C(=O)C([H])(N([H])C(=O)C([H])(N([H])C([H])([H])[H])C([H])([H])[H])C(C([H])([H])[H])(C([H])([H])[H])C([H])([H])[H])C([H])([H])c2c([H])c(OC([H])([H])C(=O)C([H])([H])N([H])c3nc(C([H])(C([H])([H])[H])[N+]([H])([H])[H])c([H])c(N([H])C(=O)N4C([H])([H])C([H])([H])C([H])([H])C([H])(n5nc(-c6c([H])c([H])c(Oc7c([H])c([H])c(F)c([H])c7F)c([H])c6[H])c(C(=O)N([H])[H])c5N([H])[H])C4([H])[H])c3[H])c([H])c([H])c2C1([H])[H]

$$$$
9:0:0
     RDKit          3D

 97105  0  0  1  0  0  0  0  0999 V2000
  -29.0130  -18.0570   21.1140 C   0  0  0  0  0  3  0  0  0  0  0  0
  -29.9430  -17.1880   20.4770 C   0  0  0  0  0  0  0  0  0  0  0  0
  -30.8420  -19.2840   19.5180 C   0  0  0  0  0  0  0  0  0  0  0  0
  -30.8690  -17.8590   19.6360 C   0  0  0  0  0  0  0  0  0  0  0  0
  -29.8590  -20.0510   20.1930 C   0  0  0  0  0  0  0  0  0  0  0  0
  -28.9560  -19.4220   20.9790 N   0  0  0  0  0  0  0  0  0  0  0  0
  -29.8340  -21.4740   20.0460 N   0  0  0  0  0  0  0  0  0  0  0  0
  -31.7470  -17.1640   18.8750 F   0  0  0  0  0  0  0  0  0  0  0  0
  -30.5780  -21.8960   19.4990 H   0  0  0  0  0  0  0  0  0  0  0  0
  -30.6250  -14.6750   20.2910 C   0  0  0  0  0  0  0  0  0  0  0  0
  -30.3980  -12.4520   19.2020 C   0  0  0  0  0  2  0  0  0  0  0  0
  -29.4420  -12.6040   17.9970 C   0  0  0  0  0  2  0  0  0  0  0  0
  -27.9730  -12.4430   18.4390 C   0  0  0  0  0  2  0  0  0  0  0  0
  -27.6310  -13.2860   19.6950 C   0  0  0  0  0  3  0  0  0  0  0  0
  -28.6990  -13.1110   20.7970 C   0  0  0  0  0  2  0  0  0  0  0  0
  -30.0030  -13.4560   20.2110 N   0  0  0  0  0  0  0  0  0  0  0  0
  -31.7920  -14.8110   19.9190 O   0  0  0  0  0  0  0  0  0  0  0  0
  -29.8360  -15.7310   20.6680 N   0  0  0  0  0  0  0  0  0  0  0  0
  -28.9610  -15.4310   21.0690 H   0  0  0  0  0  0  0  0  0  0  0  0
  -25.2410  -13.8820   20.4230 C   0  0  0  0  0  0  0  0  0  0  0  0
  -24.1790  -13.1060   20.8040 C   0  0  0  0  0  0  0  0  0  0  0  0
  -24.6450  -11.7560   20.7760 C   0  0  0  0  0  0  0  0  0  0  0  0
  -26.2860  -13.0030   20.1870 N   0  0  0  0  0  0  0  0  0  0  0  0
  -25.9340  -11.7200   20.4600 N   0  0  0  0  0  0  0  0  0  0  0  0
  -23.9240  -10.4930   20.9760 C   0  0  0  0  0  0  0  0  0  0  0  0
  -24.3590   -9.5360   21.9190 C   0  0  0  0  0  3  0  0  0  0  0  0
  -23.6400   -8.3350   22.1050 C   0  0  0  0  0  3  0  0  0  0  0  0
  -22.4700   -8.0850   21.3500 C   0  0  0  0  0  0  0  0  0  0  0  0
  -22.0540   -9.0300   20.3960 C   0  0  0  0  0  3  0  0  0  0  0  0
  -22.7740  -10.2210   20.2080 C   0  0  0  0  0  3  0  0  0  0  0  0
  -21.7200   -6.9370   21.4460 O   0  0  0  0  0  0  0  0  0  0  0  0
  -21.6630   -6.2110   22.6090 C   0  0  0  0  0  0  0  0  0  0  0  0
  -21.2140   -6.7790   23.8220 C   0  0  0  0  0  3  0  0  0  0  0  0
  -21.1050   -5.9780   24.9750 C   0  0  0  0  0  3  0  0  0  0  0  0
  -21.4340   -4.6090   24.9180 C   0  0  0  0  0  0  0  0  0  0  0  0
  -21.8760   -4.0420   23.7100 C   0  0  0  0  0  3  0  0  0  0  0  0
  -21.9860   -4.8400   22.5580 C   0  0  0  0  0  0  0  0  0  0  0  0
  -22.3920   -4.2830   21.3920 F   0  0  0  0  0  0  0  0  0  0  0  0
  -21.3210   -3.8380   26.0240 F   0  0  0  0  0  0  0  0  0  0  0  0
  -22.7810  -13.5800   21.0830 C   0  0  0  0  0  0  0  0  0  0  0  0
  -22.0590  -12.8800   21.9510 N   0  0  0  0  0  0  0  0  0  0  0  0
  -22.3390  -14.6050   20.5660 O   0  0  0  0  0  0  0  0  0  0  0  0
  -22.4290  -12.0510   22.3920 H   0  0  0  0  0  0  0  0  0  0  0  0
  -21.1220  -13.1800   22.1810 H   0  0  0  0  0  0  0  0  0  0  0  0
  -25.3990  -15.2510   20.2340 N   0  0  0  0  0  0  0  0  0  0  0  0
  -24.6180  -15.8930   20.3260 H   0  0  0  0  0  0  0  0  0  0  0  0
  -26.2180  -15.6810   19.8250 H   0  0  0  0  0  0  0  0  0  0  0  0
  -33.1040  -19.9480   18.9240 C   0  0  0  0  0  0  0  0  0  0  0  0
  -33.9890  -20.6190   17.8840 C   0  0  0  0  0  1  0  0  0  0  0  0
  -31.7870  -19.9370   18.6870 N   0  0  0  0  0  0  0  0  0  0  0  0
  -33.6080  -19.4610   19.9380 O   0  0  0  0  0  0  0  0  0  0  0  0
  -31.4380  -20.4370   17.8790 H   0  0  0  0  0  0  0  0  0  0  0  0
  -28.8450  -22.4610   20.5740 C   0  0  0  0  0  2  0  0  0  0  0  0
  -29.1160  -23.9780   20.2030 C   0  0  0  0  0  0  0  0  0  0  0  0
  -30.1310  -24.2720   19.5620 O   0  0  0  0  0  0  0  0  0  0  0  0
  -28.0890  -25.0940   20.6440 C   0  0  0  0  0  2  0  0  0  0  0  0
  -28.3680  -26.4930   20.2280 O   0  0  0  0  0  0  0  0  0  0  0  0
  -24.6100  -31.8810   23.2380 C   0  0  0  0  0  0  0  0  0  0  0  0
  -27.2570  -27.3480   20.1870 C   0  0  0  0  0  0  0  0  0  0  0  0
  -23.4190  -30.4770   21.5930 C   0  0  0  0  0  3  0  0  0  0  0  0
  -24.8830  -28.9400   20.1700 C   0  0  0  0  0  0  0  0  0  0  0  0
  -25.9560  -30.8130   21.4160 C   0  0  0  0  0  2  0  0  0  0  0  0
  -26.0470  -29.4370   20.7700 C   0  0  0  0  0  0  0  0  0  0  0  0
  -27.2410  -28.6540   20.7690 C   0  0  0  0  0  3  0  0  0  0  0  0
  -26.0750  -26.9100   19.5490 C   0  0  0  0  0  3  0  0  0  0  0  0
  -24.8990  -27.6810   19.5500 C   0  0  0  0  0  3  0  0  0  0  0  0
  -23.6400  -29.8040   20.2140 C   0  0  0  0  0  2  0  0  0  0  0  0
  -24.6800  -31.0740   22.1400 N   0  0  0  0  0  0  0  0  0  0  0  0
  -23.5240  -32.1520   23.7700 O   0  0  0  0  0  0  0  0  0  0  0  0
  -22.7610  -29.4540   22.5510 C   0  0  0  0  0  0  0  0  0  0  0  0
  -21.4360  -29.2730   22.4240 N   0  0  0  0  0  0  0  0  0  0  0  0
  -23.4420  -28.8280   23.3680 O   0  0  0  0  0  0  0  0  0  0  0  0
  -20.9450  -29.8300   21.7390 H   0  0  0  0  0  0  0  0  0  0  0  0
  -18.0600  -28.0740   22.9300 C   0  0  0  0  0  0  0  0  0  0  0  0
  -20.6190  -28.3320   23.1940 C   0  0  0  0  0  3  0  0  0  0  0  0
  -20.7190  -26.9030   22.6130 C   0  0  0  0  0  2  0  0  0  0  0  0
  -19.6140  -26.5840   21.6000 C   0  0  0  0  0  2  0  0  0  0  0  0
  -18.2340  -26.7270   22.2480 C   0  0  0  0  0  2  0  0  0  0  0  0
  -19.1800  -28.8350   23.3600 C   0  0  0  0  0  0  0  0  0  0  0  0
  -18.9630  -30.0950   23.9570 C   0  0  0  0  0  3  0  0  0  0  0  0
  -17.6580  -30.5950   24.1280 C   0  0  0  0  0  3  0  0  0  0  0  0
  -16.5530  -29.8320   23.7150 C   0  0  0  0  0  3  0  0  0  0  0  0
  -16.7540  -28.5740   23.1210 C   0  0  0  0  0  3  0  0  0  0  0  0
  -25.8880  -32.5210   23.8620 C   0  0  0  0  0  3  0  0  0  0  0  0
  -26.4050  -31.7530   25.1410 C   0  0  1  0  0  0  0  0  0  0  0  0
  -25.3110  -31.5090   26.2060 C   0  0  0  0  0  1  0  0  0  0  0  0
  -26.9960  -30.3780   24.7510 C   0  0  0  0  0  1  0  0  0  0  0  0
  -27.5500  -32.5530   25.8060 C   0  0  0  0  0  1  0  0  0  0  0  0
  -25.5700  -33.9180   24.1910 N   0  0  0  0  0  0  0  0  0  0  0  0
  -25.8940  -34.9720   23.4300 C   0  0  0  0  0  0  0  0  0  0  0  0
  -26.5620  -34.8710   22.3970 O   0  0  0  0  0  0  0  0  0  0  0  0
  -24.9770  -34.0690   24.9930 H   0  0  0  0  0  0  0  0  0  0  0  0
  -24.1550  -36.7540   23.0760 C   0  0  0  0  0  1  0  0  0  0  0  0
  -25.3990  -36.3570   23.8870 C   0  0  0  0  0  3  0  0  0  0  0  0
  -27.5280  -37.2550   24.7160 C   0  0  0  0  0  1  0  0  0  0  0  0
  -26.4240  -37.4170   23.7730 N   0  0  0  0  0  0  0  0  0  0  0  0
  -26.0120  -38.3350   23.9230 H   0  0  0  0  0  0  0  0  0  0  0  0
  2 18  1  0
  2  1  2  0
  3  4  2  0
  3  5  1  0
  4  2  1  0
  5  6  2  0
  6  1  1  0
  7  5  1  0
  7 53  1  0
  8  4  1  0
  9  7  1  0
 10 18  1  0
 11 16  1  0
 12 13  1  0
 12 11  1  0
 14 13  1  0
 14 23  1  0
 14 15  1  0
 16 10  1  0
 16 15  1  0
 17 10  2  0
 18 19  1  0
 20 21  2  0
 21 40  1  0
 22 21  1  0
 22 25  1  0
 23 20  1  0
 23 24  1  0
 24 22  2  0
 25 26  1  0
 26 27  2  0
 28 31  1  0
 28 27  1  0
 29 28  2  0
 30 29  1  0
 30 25  2  0
 31 32  1  0
 32 33  1  0
 33 34  2  0
 35 34  1  0
 35 39  1  0
 36 35  2  0
 37 32  2  0
 37 36  1  0
 38 37  1  0
 40 41  1  0
 41 44  1  0
 41 43  1  0
 42 40  2  0
 45 46  1  0
 45 20  1  0
 47 45  1  0
 48 51  2  0
 49 48  1  0
 50 48  1  0
 50  3  1  0
 52 50  1  0
 54 53  1  0
 54 56  1  0
 55 54  2  0
 57 56  1  0
 58 69  2  0
 59 57  1  0
 59 64  1  0
 60 68  1  0
 60 70  1  0
 61 67  1  0
 61 63  1  0
 62 68  1  0
 63 62  1  0
 64 63  2  0
 65 66  1  0
 65 59  2  0
 66 61  2  0
 67 60  1  0
 68 58  1  0
 70 72  2  0
 71 70  1  0
 73 71  1  0
 74 83  2  0
 74 79  1  0
 75 71  1  0
 75 79  1  0
 76 75  1  0
 77 78  1  0
 77 76  1  0
 78 74  1  0
 79 80  2  0
 80 81  1  0
 82 81  2  0
 83 82  1  0
 84 58  1  0
 84 89  1  0
 84 85  1  0
 85 88  1  1
 85 86  1  0
 87 85  1  0
 89 92  1  0
 90 94  1  0
 90 89  1  0
 91 90  2  0
 94 93  1  0
 96 94  1  0
 96 97  1  0
 96 95  1  0
M  ISO  4  10 100  18 100  56 101  57 101
M  END
>  <TORSDO>  (10) 
F 20

>  <SCORE>  (10) 
-13.652

>  <name>  (10) 
9

>  <ligand_id>  (10) 
9

>  <original_smiles>  (10) 
[H]c1nc(N([H])C([H])([H])C(=O)C([H])([H])Oc2c([H])c([H])c3c(c2[H])C([H])([H])N(C(=O)C([H])(N([H])C(=O)C([H])(N([H])C([H])([H])[H])C([H])([H])[H])C(C([H])([H])[H])(C([H])([H])[H])C([H])([H])[H])C([H])(C(=O)N([H])C2([H])c4c([H])c([H])c([H])c([H])c4C([H])([H])C([H])([H])C2([H])[H])C3([H])[H])c(N([H])C(=O)C([H])([H])[H])c(F)c1N([H])C(=O)N1C([H])([H])C([H])([H])C([H])([H])C([H])(n2nc(-c3c([H])c([H])c(Oc4c([H])c([H])c(F)c([H])c4F)c([H])c3[H])c(C(=O)N([H])[H])c2N([H])[H])C1([H])[H]

>  <smiles>  (10) 
[H]c1nc(N([H])C([H])([H])C(=O)C([H])([H])Oc2c([H])c([H])c3c(c2[H])C([H])([H])N(C(=O)C([H])(N([H])C(=O)C([H])(N([H])C([H])([H])[H])C([H])([H])[H])C(C([H])([H])[H])(C([H])([H])[H])C([H])([H])[H])C([H])(C(=O)N([H])C2([H])c4c([H])c([H])c([H])c([H])c4C([H])([H])C([H])([H])C2([H])[H])C3([H])[H])c(N([H])C(=O)C([H])([H])[H])c(F)c1N([H])C(=O)N1C([H])([H])C([H])([H])C([H])([H])C([H])(n2nc(-c3c([H])c([H])c(Oc4c([H])c([H])c(F)c([H])c4F)c([H])c3[H])c(C(=O)N([H])[H])c2N([H])[H])C1([H])[H]

$$$$
10:0:0
     RDKit          3D

 99107  0  0  1  0  0  0  0  0999 V2000
  -28.3710  -20.0940   20.3500 C   0  0  0  0  0  3  0  0  0  0  0  0
  -28.5700  -18.6850   20.4260 C   0  0  0  0  0  0  0  0  0  0  0  0
  -29.8970  -18.4100   20.6680 C   0  0  0  0  0  0  0  0  0  0  0  0
  -29.6250  -20.6160   20.4720 C   0  0  0  0  0  0  0  0  0  0  0  0
  -30.5630  -19.6290   20.6660 O   0  0  0  0  0  0  0  0  0  0  0  0
  -26.6190  -17.9040   19.1740 C   0  0  0  0  0  0  0  0  0  0  0  0
  -27.5060  -17.7330   20.1880 N   0  0  0  0  0  0  0  0  0  0  0  0
  -26.7470  -18.8780   18.2520 N   0  0  0  0  0  4  0  0  0  0  0  0
  -27.5130  -16.8200   20.6260 H   0  0  0  0  0  0  0  0  0  0  0  0
  -26.0710  -18.9730   17.5070 H   0  0  0  0  0  0  0  0  0  0  0  0
  -27.5250  -19.5200   18.2460 H   0  0  0  0  0  0  0  0  0  0  0  0
  -24.3930  -17.3410   20.0870 C   0  0  0  0  0  1  0  0  0  0  0  0
  -25.8930  -15.5190   19.0850 C   0  0  0  0  0  1  0  0  0  0  0  0
  -25.4380  -16.9820   19.0280 C   0  0  0  0  0  3  0  0  0  0  0  0
  -29.9890  -21.9710   20.3440 N   0  0  0  0  0  0  0  0  0  0  0  0
  -30.9650  -22.2550   20.3410 H   0  0  0  0  0  0  0  0  0  0  0  0
  -29.0210  -23.0540   20.6330 C   0  0  0  0  0  2  0  0  0  0  0  0
  -29.4600  -24.5040   20.2860 C   0  0  0  0  0  0  0  0  0  0  0  0
  -30.4760  -24.7240   19.6160 O   0  0  0  0  0  0  0  0  0  0  0  0
  -28.5770  -25.6470   20.8490 C   0  0  0  0  0  2  0  0  0  0  0  0
  -28.7560  -26.9420   20.2120 O   0  0  0  0  0  0  0  0  0  0  0  0
  -24.6080  -31.8560   23.3510 C   0  0  0  0  0  0  0  0  0  0  0  0
  -27.5910  -27.6900   20.1690 C   0  0  0  0  0  0  0  0  0  0  0  0
  -23.5470  -30.4950   21.5790 C   0  0  0  0  0  3  0  0  0  0  0  0
  -25.1360  -29.1100   20.1430 C   0  0  0  0  0  0  0  0  0  0  0  0
  -26.0630  -30.9720   21.5250 C   0  0  0  0  0  2  0  0  0  0  0  0
  -26.2440  -29.6440   20.8130 C   0  0  0  0  0  0  0  0  0  0  0  0
  -27.4780  -28.9450   20.8190 C   0  0  0  0  0  3  0  0  0  0  0  0
  -26.4670  -27.1900   19.4730 C   0  0  0  0  0  3  0  0  0  0  0  0
  -25.2440  -27.8850   19.4670 C   0  0  0  0  0  3  0  0  0  0  0  0
  -23.8500  -29.9070   20.1770 C   0  0  0  0  0  2  0  0  0  0  0  0
  -24.7550  -31.1200   22.2120 N   0  0  0  0  0  0  0  0  0  0  0  0
  -23.4900  -32.0480   23.8500 O   0  0  0  0  0  0  0  0  0  0  0  0
  -22.9000  -29.3940   22.4510 C   0  0  0  0  0  0  0  0  0  0  0  0
  -21.5920  -29.1600   22.2500 N   0  0  0  0  0  0  0  0  0  0  0  0
  -23.5730  -28.7560   23.2650 O   0  0  0  0  0  0  0  0  0  0  0  0
  -21.1090  -29.7290   21.5690 H   0  0  0  0  0  0  0  0  0  0  0  0
  -18.2630  -27.7790   22.5080 C   0  0  0  0  0  0  0  0  0  0  0  0
  -20.7870  -28.1450   22.9270 C   0  0  0  0  0  3  0  0  0  0  0  0
  -20.9920  -26.7530   22.2870 C   0  0  0  0  0  2  0  0  0  0  0  0
  -19.9600  -26.4310   21.2010 C   0  0  0  0  0  2  0  0  0  0  0  0
  -18.5410  -26.4760   21.7760 C   0  0  0  0  0  2  0  0  0  0  0  0
  -19.3180  -28.5700   23.0340 C   0  0  0  0  0  0  0  0  0  0  0  0
  -19.0050  -29.7880   23.6750 C   0  0  0  0  0  3  0  0  0  0  0  0
  -17.6700  -30.2160   23.7950 C   0  0  0  0  0  3  0  0  0  0  0  0
  -16.6290  -29.4230   23.2860 C   0  0  0  0  0  3  0  0  0  0  0  0
  -16.9260  -28.2040   22.6480 C   0  0  0  0  0  3  0  0  0  0  0  0
  -25.8320  -32.5090   24.0640 C   0  0  0  0  0  3  0  0  0  0  0  0
  -25.4880  -33.9120   24.3350 N   0  0  0  0  0  0  0  0  0  0  0  0
  -25.8790  -34.9490   23.5830 C   0  0  0  0  0  0  0  0  0  0  0  0
  -26.6350  -34.8280   22.6140 O   0  0  0  0  0  0  0  0  0  0  0  0
  -24.8290  -34.0800   25.0800 H   0  0  0  0  0  0  0  0  0  0  0  0
  -24.1780  -36.7200   23.0390 C   0  0  0  0  0  1  0  0  0  0  0  0
  -25.3460  -36.3430   23.9640 C   0  0  0  0  0  3  0  0  0  0  0  0
  -27.3960  -37.2630   24.9560 C   0  0  0  0  0  1  0  0  0  0  0  0
  -26.3790  -37.4010   23.9180 N   0  0  0  0  0  0  0  0  0  0  0  0
  -25.9570  -38.3210   24.0090 H   0  0  0  0  0  0  0  0  0  0  0  0
  -26.2440  -31.7680   25.3950 C   0  0  1  0  0  0  0  0  0  0  0  0
  -25.0680  -31.5480   26.3730 C   0  0  0  0  0  1  0  0  0  0  0  0
  -26.8600  -30.3850   25.0830 C   0  0  0  0  0  1  0  0  0  0  0  0
  -27.3330  -32.5820   26.1340 C   0  0  0  0  0  1  0  0  0  0  0  0
  -30.7590  -17.2180   20.8100 C   0  0  0  0  0  3  0  0  0  0  0  0
  -30.3920  -16.0030   21.0510 N   0  0  0  0  0  0  0  0  0  0  0  0
  -31.3320  -14.9700   20.8610 C   0  0  0  0  0  0  0  0  0  0  0  0
  -31.1970  -12.7720   19.7650 C   0  0  0  0  0  2  0  0  0  0  0  0
  -30.2350  -12.9510   18.5690 C   0  0  0  0  0  2  0  0  0  0  0  0
  -28.7720  -12.7220   19.0040 C   0  0  0  0  0  2  0  0  0  0  0  0
  -28.3990  -13.5070   20.2910 C   0  0  0  0  0  3  0  0  0  0  0  0
  -29.4780  -13.3460   21.3820 C   0  0  0  0  0  2  0  0  0  0  0  0
  -30.7760  -13.7250   20.8060 N   0  0  0  0  0  0  0  0  0  0  0  0
  -32.5130  -15.1350   20.5440 O   0  0  0  0  0  0  0  0  0  0  0  0
  -26.0420  -13.9790   21.1960 C   0  0  0  0  0  0  0  0  0  0  0  0
  -24.9820  -13.1530   21.4660 C   0  0  0  0  0  0  0  0  0  0  0  0
  -25.4490  -11.8250   21.2210 C   0  0  0  0  0  0  0  0  0  0  0  0
  -27.0730  -13.1500   20.7830 N   0  0  0  0  0  0  0  0  0  0  0  0
  -26.7260  -11.8420   20.8620 N   0  0  0  0  0  0  0  0  0  0  0  0
  -24.7370  -10.5410   21.2580 C   0  0  0  0  0  0  0  0  0  0  0  0
  -25.1610   -9.4840   22.0930 C   0  0  0  0  0  3  0  0  0  0  0  0
  -24.4500   -8.2650   22.1220 C   0  0  0  0  0  3  0  0  0  0  0  0
  -23.3010   -8.0950   21.3120 C   0  0  0  0  0  0  0  0  0  0  0  0
  -22.8960   -9.1420   20.4670 C   0  0  0  0  0  3  0  0  0  0  0  0
  -23.6080  -10.3530   20.4360 C   0  0  0  0  0  3  0  0  0  0  0  0
  -22.5640   -6.9370   21.2550 O   0  0  0  0  0  0  0  0  0  0  0  0
  -22.3610   -6.1560   22.3650 C   0  0  0  0  0  0  0  0  0  0  0  0
  -21.7510   -6.6640   23.5320 C   0  0  0  0  0  3  0  0  0  0  0  0
  -21.4990   -5.8090   24.6240 C   0  0  0  0  0  3  0  0  0  0  0  0
  -21.8460   -4.4460   24.5470 C   0  0  0  0  0  0  0  0  0  0  0  0
  -22.4460   -3.9370   23.3820 C   0  0  0  0  0  3  0  0  0  0  0  0
  -22.7010   -4.7900   22.2930 C   0  0  0  0  0  0  0  0  0  0  0  0
  -23.2610   -4.2890   21.1660 F   0  0  0  0  0  0  0  0  0  0  0  0
  -21.5960   -3.6240   25.5920 F   0  0  0  0  0  0  0  0  0  0  0  0
  -23.5970  -13.5730   21.8620 C   0  0  0  0  0  0  0  0  0  0  0  0
  -22.9230  -12.7720   22.6810 N   0  0  0  0  0  0  0  0  0  0  0  0
  -23.1230  -14.6430   21.4860 O   0  0  0  0  0  0  0  0  0  0  0  0
  -23.3180  -11.9010   23.0040 H   0  0  0  0  0  0  0  0  0  0  0  0
  -21.9960  -13.0310   22.9880 H   0  0  0  0  0  0  0  0  0  0  0  0
  -26.2260  -15.3560   21.2710 N   0  0  0  0  0  0  0  0  0  0  0  0
  -25.4630  -15.8460   21.7260 H   0  0  0  0  0  0  0  0  0  0  0  0
  -27.1070  -15.5860   21.7120 H   0  0  0  0  0  0  0  0  0  0  0  0
  1  2  1  0
  1  4  2  0
  2  3  2  0
  3 62  1  0
  4  5  1  0
  5  3  1  0
  6  7  1  0
  7  2  1  0
  7  9  1  0
  8  6  2  0
 10  8  1  0
 11  8  1  0
 14 13  1  0
 14  6  1  0
 14 12  1  0
 15  4  1  0
 15 17  1  0
 16 15  1  0
 18 17  1  0
 18 20  1  0
 19 18  2  0
 21 20  1  0
 22 33  2  0
 23 21  1  0
 23 28  1  0
 24 32  1  0
 24 34  1  0
 25 31  1  0
 25 27  1  0
 26 32  1  0
 27 28  2  0
 27 26  1  0
 29 23  2  0
 30 29  1  0
 30 25  2  0
 31 24  1  0
 32 22  1  0
 34 36  2  0
 35 34  1  0
 37 35  1  0
 38 47  2  0
 38 43  1  0
 39 35  1  0
 39 43  1  0
 40 39  1  0
 41 42  1  0
 41 40  1  0
 42 38  1  0
 43 44  2  0
 44 45  1  0
 46 45  2  0
 47 46  1  0
 48 22  1  0
 48 49  1  0
 48 58  1  0
 49 52  1  0
 50 54  1  0
 50 49  1  0
 51 50  2  0
 54 53  1  0
 56 54  1  0
 56 57  1  0
 56 55  1  0
 58 61  1  1
 58 59  1  0
 60 58  1  0
 62 63  2  0
 64 63  1  0
 65 70  1  0
 66 67  1  0
 66 65  1  0
 68 67  1  0
 68 75  1  0
 68 69  1  0
 70 64  1  0
 70 69  1  0
 71 64  2  0
 72 97  1  0
 72 73  2  0
 73 92  1  0
 74 77  1  0
 74 73  1  0
 75 76  1  0
 75 72  1  0
 76 74  2  0
 77 78  1  0
 78 79  2  0
 80 79  1  0
 81 80  2  0
 82 81  1  0
 82 77  2  0
 83 80  1  0
 83 84  1  0
 84 85  1  0
 85 86  2  0
 87 86  1  0
 87 91  1  0
 88 87  2  0
 89 84  2  0
 89 88  1  0
 90 89  1  0
 92 93  1  0
 93 96  1  0
 93 95  1  0
 94 92  2  0
 97 99  1  0
 97 98  1  0
M  ISO  4  20 101  21 101  63 100  64 100
M  END
>  <TORSDO>  (11) 
F 23

>  <SCORE>  (11) 
-7.277

>  <name>  (11) 
10

>  <ligand_id>  (11) 
10

>  <original_smiles>  (11) 
[H]C(=NC(=O)N1C([H])([H])C([H])([H])C([H])([H])C([H])(n2nc(-c3c([H])c([H])c(Oc4c([H])c([H])c(F)c([H])c4F)c([H])c3[H])c(C(=O)N([H])[H])c2N([H])[H])C1([H])[H])c1oc(N([H])C([H])([H])C(=O)C([H])([H])Oc2c([H])c([H])c3c(c2[H])C([H])([H])N(C(=O)C([H])(N([H])C(=O)C([H])(N([H])C([H])([H])[H])C([H])([H])[H])C(C([H])([H])[H])(C([H])([H])[H])C([H])([H])[H])C([H])(C(=O)N([H])C2([H])c4c([H])c([H])c([H])c([H])c4C([H])([H])C([H])([H])C2([H])[H])C3([H])[H])c([H])c1N([H])C(=[N+]([H])[H])C([H])(C([H])([H])[H])C([H])([H])[H]

>  <smiles>  (11) 
[H]C(=NC(=O)N1C([H])([H])C([H])([H])C([H])([H])C([H])(n2nc(-c3c([H])c([H])c(Oc4c([H])c([H])c(F)c([H])c4F)c([H])c3[H])c(C(=O)N([H])[H])c2N([H])[H])C1([H])[H])c1oc(N([H])C([H])([H])C(=O)C([H])([H])Oc2c([H])c([H])c3c(c2[H])C([H])([H])N(C(=O)C([H])(N([H])C(=O)C([H])(N([H])C([H])([H])[H])C([H])([H])[H])C(C([H])([H])[H])(C([H])([H])[H])C([H])([H])[H])C([H])(C(=O)N([H])C2([H])c4c([H])c([H])c([H])c([H])c4C([H])([H])C([H])([H])C2([H])[H])C3([H])[H])c([H])c1N([H])C(=[N+]([H])[H])C([H])(C([H])([H])[H])C([H])([H])[H]

$$$$
11:0:0
     RDKit          3D

 93101  0  0  1  0  0  0  0  0999 V2000
  -29.5170  -21.0740   20.6960 C   0  0  0  0  0  0  0  0  0  0  0  0
  -28.9630  -23.6750   20.6220 C   0  0  0  0  0  0  0  0  0  0  0  0
  -28.9120  -22.2300   20.1450 N   0  0  0  0  0  0  0  0  0  0  0  0
  -30.1680  -21.1730   21.8650 N   0  0  0  0  0  4  0  0  0  0  0  0
  -29.7140  -23.9650   21.5650 O   0  0  0  0  0  0  0  0  0  0  0  0
  -28.3600  -21.9990   19.3370 H   0  0  0  0  0  0  0  0  0  0  0  0
  -30.2850  -22.0660   22.3250 H   0  0  0  0  0  0  0  0  0  0  0  0
  -30.6180  -20.3510   22.2440 H   0  0  0  0  0  0  0  0  0  0  0  0
  -29.7570  -19.1710   18.8270 C   0  0  0  0  0  3  0  0  0  0  0  0
  -29.9420  -17.7390   18.8760 C   0  0  0  0  0  3  0  0  0  0  0  0
  -29.5860  -19.6680   20.0990 C   0  0  0  0  0  0  0  0  0  0  0  0
  -29.8780  -17.3400   20.1870 C   0  0  0  0  0  0  0  0  0  0  0  0
  -29.6360  -18.5180   20.9490 O   0  0  0  0  0  0  0  0  0  0  0  0
  -30.5750  -14.8560   20.2770 C   0  0  0  0  0  0  0  0  0  0  0  0
  -30.3800  -12.5460   19.3200 C   0  0  0  0  0  2  0  0  0  0  0  0
  -29.4370  -12.6020   18.0950 C   0  0  0  0  0  2  0  0  0  0  0  0
  -27.9690  -12.4340   18.5290 C   0  0  0  0  0  2  0  0  0  0  0  0
  -27.6040  -13.3190   19.7530 C   0  0  0  0  0  3  0  0  0  0  0  0
  -28.6710  -13.2500   20.8670 C   0  0  0  0  0  2  0  0  0  0  0  0
  -29.9630  -13.6130   20.2670 N   0  0  0  0  0  0  0  0  0  0  0  0
  -31.7380  -14.9470   19.8720 O   0  0  0  0  0  0  0  0  0  0  0  0
  -29.8390  -15.9940   20.6360 N   0  0  0  0  0  0  0  0  0  0  0  0
  -29.0270  -15.7750   21.1900 H   0  0  0  0  0  0  0  0  0  0  0  0
  -25.2230  -13.8990   20.5040 C   0  0  0  0  0  0  0  0  0  0  0  0
  -24.1600  -13.1240   20.8830 C   0  0  0  0  0  0  0  0  0  0  0  0
  -24.6250  -11.7740   20.8460 C   0  0  0  0  0  0  0  0  0  0  0  0
  -26.2660  -13.0230   20.2570 N   0  0  0  0  0  0  0  0  0  0  0  0
  -25.9140  -11.7380   20.5260 N   0  0  0  0  0  0  0  0  0  0  0  0
  -23.9010  -10.5100   21.0410 C   0  0  0  0  0  0  0  0  0  0  0  0
  -24.3420   -9.5380   21.9660 C   0  0  0  0  0  3  0  0  0  0  0  0
  -23.6160   -8.3410   22.1490 C   0  0  0  0  0  3  0  0  0  0  0  0
  -22.4340   -8.1070   21.4060 C   0  0  0  0  0  0  0  0  0  0  0  0
  -22.0120   -9.0670   20.4690 C   0  0  0  0  0  3  0  0  0  0  0  0
  -22.7390  -10.2550   20.2850 C   0  0  0  0  0  3  0  0  0  0  0  0
  -21.6780   -6.9620   21.4960 O   0  0  0  0  0  0  0  0  0  0  0  0
  -21.6410   -6.2130   22.6450 C   0  0  0  0  0  0  0  0  0  0  0  0
  -21.2220   -6.7610   23.8780 C   0  0  0  0  0  3  0  0  0  0  0  0
  -21.1320   -5.9390   25.0190 C   0  0  0  0  0  3  0  0  0  0  0  0
  -21.4510   -4.5710   24.9300 C   0  0  0  0  0  0  0  0  0  0  0  0
  -21.8620   -4.0220   23.7020 C   0  0  0  0  0  3  0  0  0  0  0  0
  -21.9540   -4.8410   22.5620 C   0  0  0  0  0  0  0  0  0  0  0  0
  -22.3310   -4.3030   21.3770 F   0  0  0  0  0  0  0  0  0  0  0  0
  -21.3560   -3.7800   26.0230 F   0  0  0  0  0  0  0  0  0  0  0  0
  -22.7650  -13.6010   21.1630 C   0  0  0  0  0  0  0  0  0  0  0  0
  -22.0400  -12.9050   22.0320 N   0  0  0  0  0  0  0  0  0  0  0  0
  -22.3250  -14.6250   20.6440 O   0  0  0  0  0  0  0  0  0  0  0  0
  -22.4090  -12.0780   22.4760 H   0  0  0  0  0  0  0  0  0  0  0  0
  -21.1030  -13.2070   22.2560 H   0  0  0  0  0  0  0  0  0  0  0  0
  -25.3850  -15.2730   20.3310 N   0  0  0  0  0  0  0  0  0  0  0  0
  -24.6130  -15.9240   20.4280 H   0  0  0  0  0  0  0  0  0  0  0  0
  -26.2320  -15.7170   20.0000 H   0  0  0  0  0  0  0  0  0  0  0  0
  -28.0290  -24.8270   19.9670 C   0  0  0  0  0  2  0  0  0  0  0  0
  -28.2480  -26.3040   20.3130 O   0  0  0  0  0  0  0  0  0  0  0  0
  -24.6020  -31.9060   23.2460 C   0  0  0  0  0  0  0  0  0  0  0  0
  -27.1730  -27.2390   20.2210 C   0  0  0  0  0  0  0  0  0  0  0  0
  -23.3950  -30.5100   21.6120 C   0  0  0  0  0  3  0  0  0  0  0  0
  -24.8370  -28.9410   20.1890 C   0  0  0  0  0  0  0  0  0  0  0  0
  -25.9440  -30.7870   21.4400 C   0  0  0  0  0  2  0  0  0  0  0  0
  -26.0130  -29.4000   20.7950 C   0  0  0  0  0  0  0  0  0  0  0  0
  -27.1820  -28.5610   20.8010 C   0  0  0  0  0  3  0  0  0  0  0  0
  -25.9740  -26.8690   19.5690 C   0  0  0  0  0  3  0  0  0  0  0  0
  -24.8250  -27.6870   19.5640 C   0  0  0  0  0  3  0  0  0  0  0  0
  -23.6100  -29.8330   20.2330 C   0  0  0  0  0  2  0  0  0  0  0  0
  -24.6670  -31.0870   22.1550 N   0  0  0  0  0  0  0  0  0  0  0  0
  -23.5180  -32.1940   23.7760 O   0  0  0  0  0  0  0  0  0  0  0  0
  -22.7220  -29.5020   22.5760 C   0  0  0  0  0  0  0  0  0  0  0  0
  -21.3940  -29.3330   22.4550 N   0  0  0  0  0  0  0  0  0  0  0  0
  -23.3960  -28.8740   23.3970 O   0  0  0  0  0  0  0  0  0  0  0  0
  -20.9080  -29.8920   21.7670 H   0  0  0  0  0  0  0  0  0  0  0  0
  -18.0080  -28.1570   22.9720 C   0  0  0  0  0  0  0  0  0  0  0  0
  -20.5690  -28.4040   23.2320 C   0  0  0  0  0  3  0  0  0  0  0  0
  -20.6620  -26.9700   22.6630 C   0  0  0  0  0  2  0  0  0  0  0  0
  -19.5550  -26.6480   21.6530 C   0  0  0  0  0  2  0  0  0  0  0  0
  -18.1760  -26.8050   22.3000 C   0  0  0  0  0  2  0  0  0  0  0  0
  -19.1330  -28.9150   23.3940 C   0  0  0  0  0  0  0  0  0  0  0  0
  -18.9220  -30.1800   23.9860 C   0  0  0  0  0  3  0  0  0  0  0  0
  -17.6210  -30.6880   24.1570 C   0  0  0  0  0  3  0  0  0  0  0  0
  -16.5110  -29.9290   23.7470 C   0  0  0  0  0  3  0  0  0  0  0  0
  -16.7060  -28.6650   23.1610 C   0  0  0  0  0  3  0  0  0  0  0  0
  -25.8850  -32.5390   23.8660 C   0  0  0  0  0  3  0  0  0  0  0  0
  -25.5800  -33.9410   24.1890 N   0  0  0  0  0  0  0  0  0  0  0  0
  -25.9070  -34.9910   23.4220 C   0  0  0  0  0  0  0  0  0  0  0  0
  -26.5690  -34.8820   22.3850 O   0  0  0  0  0  0  0  0  0  0  0  0
  -25.0000  -34.1000   24.9990 H   0  0  0  0  0  0  0  0  0  0  0  0
  -24.1830  -36.7920   23.0760 C   0  0  0  0  0  1  0  0  0  0  0  0
  -25.4280  -36.3830   23.8790 C   0  0  0  0  0  3  0  0  0  0  0  0
  -27.5720  -37.2700   24.6920 C   0  0  0  0  0  1  0  0  0  0  0  0
  -26.4630  -37.4340   23.7540 N   0  0  0  0  0  0  0  0  0  0  0  0
  -26.0590  -38.3540   23.8990 H   0  0  0  0  0  0  0  0  0  0  0  0
  -26.3960  -31.7760   25.1490 C   0  0  1  0  0  0  0  0  0  0  0  0
  -25.3000  -31.5550   26.2180 C   0  0  0  0  0  1  0  0  0  0  0  0
  -26.9760  -30.3930   24.7740 C   0  0  0  0  0  1  0  0  0  0  0  0
  -27.5450  -32.5740   25.8110 C   0  0  0  0  0  1  0  0  0  0  0  0
  1  4  2  0
  2  5  2  0
  3  2  1  0
  3  1  1  0
  4  8  1  0
  4  7  1  0
  6  3  1  0
  9 10  1  0
  9 11  2  0
 10 12  2  0
 11  1  1  0
 11 13  1  0
 12 22  1  0
 12 13  1  0
 14 22  1  0
 15 20  1  0
 16 17  1  0
 16 15  1  0
 18 17  1  0
 18 27  1  0
 18 19  1  0
 20 14  1  0
 20 19  1  0
 21 14  2  0
 22 23  1  0
 24 25  2  0
 25 44  1  0
 26 25  1  0
 26 29  1  0
 27 24  1  0
 27 28  1  0
 28 26  2  0
 29 30  1  0
 30 31  2  0
 32 35  1  0
 32 31  1  0
 33 32  2  0
 34 33  1  0
 34 29  2  0
 35 36  1  0
 36 37  1  0
 37 38  2  0
 39 38  1  0
 39 43  1  0
 40 39  2  0
 41 36  2  0
 41 40  1  0
 42 41  1  0
 44 45  1  0
 45 48  1  0
 45 47  1  0
 46 44  2  0
 49 50  1  0
 49 24  1  0
 51 49  1  0
 52 53  1  0
 52  2  1  0
 54 65  2  0
 55 53  1  0
 55 60  1  0
 56 64  1  0
 56 66  1  0
 57 63  1  0
 57 59  1  0
 58 64  1  0
 59 60  2  0
 59 58  1  0
 61 55  2  0
 62 61  1  0
 62 57  2  0
 63 56  1  0
 64 54  1  0
 66 68  2  0
 67 66  1  0
 69 67  1  0
 70 79  2  0
 70 75  1  0
 71 67  1  0
 71 75  1  0
 72 71  1  0
 73 74  1  0
 73 72  1  0
 74 70  1  0
 75 76  2  0
 76 77  1  0
 78 77  2  0
 79 78  1  0
 80 54  1  0
 80 81  1  0
 80 90  1  0
 81 84  1  0
 82 86  1  0
 82 81  1  0
 83 82  2  0
 86 85  1  0
 88 86  1  0
 88 89  1  0
 88 87  1  0
 90 93  1  1
 90 91  1  0
 92 90  1  0
M  ISO  4  14 100  22 100  52 101  53 101
M  END
>  <TORSDO>  (12) 
F 18

>  <SCORE>  (12) 
-14.756

>  <name>  (12) 
11

>  <ligand_id>  (12) 
11

>  <original_smiles>  (12) 
[H]c1c(C(N([H])C(=O)C([H])([H])Oc2c([H])c([H])c3c(c2[H])C([H])([H])N(C(=O)C([H])(N([H])C(=O)C([H])(N([H])C([H])([H])[H])C([H])([H])[H])C(C([H])([H])[H])(C([H])([H])[H])C([H])([H])[H])C([H])(C(=O)N([H])C2([H])c4c([H])c([H])c([H])c([H])c4C([H])([H])C([H])([H])C2([H])[H])C3([H])[H])=[N+]([H])[H])oc(N([H])C(=O)N2C([H])([H])C([H])([H])C([H])([H])C([H])(n3nc(-c4c([H])c([H])c(Oc5c([H])c([H])c(F)c([H])c5F)c([H])c4[H])c(C(=O)N([H])[H])c3N([H])[H])C2([H])[H])c1[H]

>  <smiles>  (12) 
[H]c1c(C(N([H])C(=O)C([H])([H])Oc2c([H])c([H])c3c(c2[H])C([H])([H])N(C(=O)C([H])(N([H])C(=O)C([H])(N([H])C([H])([H])[H])C([H])([H])[H])C(C([H])([H])[H])(C([H])([H])[H])C([H])([H])[H])C([H])(C(=O)N([H])C2([H])c4c([H])c([H])c([H])c([H])c4C([H])([H])C([H])([H])C2([H])[H])C3([H])[H])=[N+]([H])[H])oc(N([H])C(=O)N2C([H])([H])C([H])([H])C([H])([H])C([H])(n3nc(-c4c([H])c([H])c(Oc5c([H])c([H])c(F)c([H])c5F)c([H])c4[H])c(C(=O)N([H])[H])c3N([H])[H])C2([H])[H])c1[H]

$$$$
12:0:0
     RDKit          3D

102111  0  0  1  0  0  0  0  0999 V2000
  -28.2760  -21.7710   21.0450 C   0  0  0  0  0  2  0  0  0  0  0  0
  -29.1940  -20.6540   21.4450 N   0  0  0  0  0  0  0  0  0  0  0  0
  -29.1810  -20.4390   22.4420 H   0  0  0  0  0  0  0  0  0  0  0  0
  -29.8680  -18.4250   18.3970 C   0  0  0  0  0  3  0  0  0  0  0  0
  -30.0020  -17.1690   18.9900 C   0  0  0  0  0  3  0  0  0  0  0  0
  -29.5730  -18.1940   21.1560 C   0  0  0  0  0  3  0  0  0  0  0  0
  -29.6110  -19.5890   19.1560 C   0  0  0  0  0  0  0  0  0  0  0  0
  -29.8700  -17.0110   20.3860 C   0  0  0  0  0  0  0  0  0  0  0  0
  -29.4530  -19.5130   20.5800 C   0  0  0  0  0  0  0  0  0  0  0  0
  -30.6950  -14.6220   20.4470 C   0  0  0  0  0  0  0  0  0  0  0  0
  -30.4820  -12.4330   19.3170 C   0  0  0  0  0  2  0  0  0  0  0  0
  -29.5520  -12.6270   18.0950 C   0  0  0  0  0  2  0  0  0  0  0  0
  -28.0700  -12.4890   18.4940 C   0  0  0  0  0  2  0  0  0  0  0  0
  -27.7190  -13.3130   19.7610 C   0  0  0  0  0  3  0  0  0  0  0  0
  -28.7520  -13.0720   20.8820 C   0  0  0  0  0  2  0  0  0  0  0  0
  -30.0760  -13.4090   20.3480 N   0  0  0  0  0  0  0  0  0  0  0  0
  -31.8400  -14.7970   20.0150 O   0  0  0  0  0  0  0  0  0  0  0  0
  -29.9440  -15.6660   20.9300 N   0  0  0  0  0  0  0  0  0  0  0  0
  -29.1460  -15.3820   21.4750 H   0  0  0  0  0  0  0  0  0  0  0  0
  -25.3130  -13.9380   20.4100 C   0  0  0  0  0  0  0  0  0  0  0  0
  -24.2340  -13.1740   20.7690 C   0  0  0  0  0  0  0  0  0  0  0  0
  -24.6920  -11.8210   20.7720 C   0  0  0  0  0  0  0  0  0  0  0  0
  -26.3600  -13.0480   20.2150 N   0  0  0  0  0  0  0  0  0  0  0  0
  -25.9880  -11.7710   20.4910 N   0  0  0  0  0  0  0  0  0  0  0  0
  -23.9600  -10.5640   20.9680 C   0  0  0  0  0  0  0  0  0  0  0  0
  -24.3670   -9.6150   21.9320 C   0  0  0  0  0  3  0  0  0  0  0  0
  -23.6350   -8.4210   22.1150 C   0  0  0  0  0  3  0  0  0  0  0  0
  -22.4820   -8.1690   21.3340 C   0  0  0  0  0  0  0  0  0  0  0  0
  -22.0960   -9.1060   20.3570 C   0  0  0  0  0  3  0  0  0  0  0  0
  -22.8290  -10.2900   20.1720 C   0  0  0  0  0  3  0  0  0  0  0  0
  -21.7250   -7.0270   21.4230 O   0  0  0  0  0  0  0  0  0  0  0  0
  -21.6420   -6.3100   22.5900 C   0  0  0  0  0  0  0  0  0  0  0  0
  -21.1750   -6.8890   23.7890 C   0  0  0  0  0  3  0  0  0  0  0  0
  -21.0380   -6.0980   24.9480 C   0  0  0  0  0  3  0  0  0  0  0  0
  -21.3590   -4.7280   24.9070 C   0  0  0  0  0  0  0  0  0  0  0  0
  -21.8200   -4.1470   23.7100 C   0  0  0  0  0  3  0  0  0  0  0  0
  -21.9580   -4.9370   22.5550 C   0  0  0  0  0  0  0  0  0  0  0  0
  -22.3800   -4.3690   21.4000 F   0  0  0  0  0  0  0  0  0  0  0  0
  -21.2220   -3.9620   26.0150 F   0  0  0  0  0  0  0  0  0  0  0  0
  -22.8340  -13.6600   21.0070 C   0  0  0  0  0  0  0  0  0  0  0  0
  -22.0870  -12.9750   21.8650 N   0  0  0  0  0  0  0  0  0  0  0  0
  -22.4080  -14.6770   20.4630 O   0  0  0  0  0  0  0  0  0  0  0  0
  -22.4430  -12.1490   22.3250 H   0  0  0  0  0  0  0  0  0  0  0  0
  -21.1450  -13.2790   22.0710 H   0  0  0  0  0  0  0  0  0  0  0  0
  -25.4860  -15.3070   20.2140 N   0  0  0  0  0  0  0  0  0  0  0  0
  -24.7220  -15.9690   20.2990 H   0  0  0  0  0  0  0  0  0  0  0  0
  -26.3440  -15.7280   19.8840 H   0  0  0  0  0  0  0  0  0  0  0  0
  -29.4440  -20.7920   18.3080 C   0  0  0  0  0  3  0  0  0  0  0  0
  -28.1390  -21.0710   17.6190 C   0  0  0  0  0  2  0  0  0  0  0  0
  -28.2440  -22.5430   17.2650 C   0  0  0  0  0  2  0  0  0  0  0  0
  -29.7540  -22.7960   17.3530 C   0  0  0  0  0  2  0  0  0  0  0  0
  -30.3120  -21.7080   18.1370 N   0  0  0  0  0  2  0  0  0  0  0  0
  -28.1730  -23.1380   21.8570 C   0  0  0  0  0  3  0  0  0  0  0  0
  -26.7400  -23.5020   21.8860 N   0  0  0  0  0  4  0  0  0  0  0  0
  -26.5710  -24.2590   22.5240 H   0  0  0  0  0  0  0  0  0  0  0  0
  -26.2060  -22.7180   22.2130 H   0  0  0  0  0  0  0  0  0  0  0  0
  -26.3960  -23.7620   20.9770 H   0  0  0  0  0  0  0  0  0  0  0  0
  -28.9930  -24.3700   21.2860 C   0  0  0  0  0  0  0  0  0  0  0  0
  -30.1130  -24.2270   20.7100 N   0  0  0  0  0  0  0  0  0  0  0  0
  -30.4310  -23.2700   20.6470 H   0  0  0  0  0  0  0  0  0  0  0  0
  -28.4830  -25.8330   21.4800 C   0  0  0  0  0  2  0  0  0  0  0  0
  -28.3590  -26.6110   20.2630 O   0  0  0  0  0  0  0  0  0  0  0  0
  -24.5780  -31.8860   23.2230 C   0  0  0  0  0  0  0  0  0  0  0  0
  -27.2360  -27.4120   20.2160 C   0  0  0  0  0  0  0  0  0  0  0  0
  -23.3890  -30.4710   21.5800 C   0  0  0  0  0  3  0  0  0  0  0  0
  -24.8500  -28.9380   20.1610 C   0  0  0  0  0  0  0  0  0  0  0  0
  -25.9080  -30.8450   21.3810 C   0  0  0  0  0  2  0  0  0  0  0  0
  -26.0040  -29.4630   20.7620 C   0  0  0  0  0  0  0  0  0  0  0  0
  -27.2020  -28.7110   20.7780 C   0  0  0  0  0  3  0  0  0  0  0  0
  -26.0760  -26.9030   19.6000 C   0  0  0  0  0  3  0  0  0  0  0  0
  -24.8890  -27.6610   19.5720 C   0  0  0  0  0  3  0  0  0  0  0  0
  -23.6110  -29.8040   20.1960 C   0  0  0  0  0  2  0  0  0  0  0  0
  -24.6460  -31.0840   22.1240 N   0  0  0  0  0  0  0  0  0  0  0  0
  -23.4910  -32.1540   23.7530 O   0  0  0  0  0  0  0  0  0  0  0  0
  -22.7270  -29.4560   22.5370 C   0  0  0  0  0  0  0  0  0  0  0  0
  -21.4010  -29.2800   22.4040 N   0  0  0  0  0  0  0  0  0  0  0  0
  -23.4080  -28.8290   23.3520 O   0  0  0  0  0  0  0  0  0  0  0  0
  -20.9120  -29.8470   21.7230 H   0  0  0  0  0  0  0  0  0  0  0  0
  -18.0260  -28.0870   22.9070 C   0  0  0  0  0  0  0  0  0  0  0  0
  -20.5820  -28.3430   23.1760 C   0  0  0  0  0  3  0  0  0  0  0  0
  -20.6870  -26.9130   22.6000 C   0  0  0  0  0  2  0  0  0  0  0  0
  -19.5870  -26.5850   21.5850 C   0  0  0  0  0  2  0  0  0  0  0  0
  -18.2020  -26.7370   22.2270 C   0  0  0  0  0  2  0  0  0  0  0  0
  -19.1450  -28.8470   23.3370 C   0  0  0  0  0  0  0  0  0  0  0  0
  -18.9330  -30.1070   23.9330 C   0  0  0  0  0  3  0  0  0  0  0  0
  -17.6300  -30.6110   24.1020 C   0  0  0  0  0  3  0  0  0  0  0  0
  -16.5240  -29.8510   23.6870 C   0  0  0  0  0  3  0  0  0  0  0  0
  -16.7230  -28.5880   23.1000 C   0  0  0  0  0  3  0  0  0  0  0  0
  -25.8610  -32.5250   23.8500 C   0  0  0  0  0  3  0  0  0  0  0  0
  -26.3750  -31.7590   25.1270 C   0  0  1  0  0  0  0  0  0  0  0  0
  -25.2780  -31.5350   26.1930 C   0  0  0  0  0  1  0  0  0  0  0  0
  -26.9600  -30.3790   24.7380 C   0  0  0  0  0  1  0  0  0  0  0  0
  -27.5160  -32.5620   25.7990 C   0  0  0  0  0  1  0  0  0  0  0  0
  -25.5460  -33.9250   24.1720 N   0  0  0  0  0  0  0  0  0  0  0  0
  -25.8770  -34.9760   23.4080 C   0  0  0  0  0  0  0  0  0  0  0  0
  -26.5510  -34.8680   22.3820 O   0  0  0  0  0  0  0  0  0  0  0  0
  -24.9530  -34.0930   24.9700 H   0  0  0  0  0  0  0  0  0  0  0  0
  -24.1590  -36.7780   23.0190 C   0  0  0  0  0  1  0  0  0  0  0  0
  -25.3790  -36.3650   23.8570 C   0  0  0  0  0  3  0  0  0  0  0  0
  -27.4950  -37.2490   24.7300 C   0  0  0  0  0  1  0  0  0  0  0  0
  -26.4130  -37.4160   23.7640 N   0  0  0  0  0  0  0  0  0  0  0  0
  -26.0010  -38.3350   23.9010 H   0  0  0  0  0  0  0  0  0  0  0  0
  1  2  1  0
  2  3  1  0
  4  5  2  0
  4  7  1  0
  5  8  1  0
  7  9  2  0
  8 18  1  0
  8  6  2  0
  9  6  1  0
  9  2  1  0
 10 18  1  0
 11 16  1  0
 12 13  1  0
 12 11  1  0
 14 13  1  0
 14 23  1  0
 14 15  1  0
 16 10  1  0
 16 15  1  0
 17 10  2  0
 18 19  1  0
 20 21  2  0
 21 22  1  0
 21 40  1  0
 22 25  1  0
 23 20  1  0
 23 24  1  0
 24 22  2  0
 25 26  1  0
 26 27  2  0
 28 31  1  0
 28 27  1  0
 29 28  2  0
 30 29  1  0
 30 25  2  0
 31 32  1  0
 32 33  1  0
 33 34  2  0
 35 34  1  0
 35 39  1  0
 36 35  2  0
 37 32  2  0
 37 36  1  0
 38 37  1  0
 40 41  1  0
 41 44  1  0
 41 43  1  0
 42 40  2  0
 45 46  1  0
 45 20  1  0
 47 45  1  0
 48  7  1  0
 49 48  1  0
 50 51  1  0
 50 49  1  0
 51 52  1  0
 52 48  1  0
 53  1  1  0
 53 54  1  0
 54 56  1  0
 54 55  1  0
 57 54  1  0
 58 61  1  0
 58 53  1  0
 59 58  2  0
 60 59  1  0
 62 61  1  0
 63 74  2  0
 64 62  1  0
 64 69  1  0
 65 73  1  0
 65 75  1  0
 66 72  1  0
 66 68  1  0
 67 73  1  0
 68 69  2  0
 68 67  1  0
 70 64  2  0
 71 70  1  0
 71 66  2  0
 72 65  1  0
 73 63  1  0
 75 77  2  0
 76 75  1  0
 78 76  1  0
 79 88  2  0
 79 84  1  0
 80 76  1  0
 80 84  1  0
 81 80  1  0
 82 83  1  0
 82 81  1  0
 83 79  1  0
 84 85  2  0
 85 86  1  0
 87 86  2  0
 88 87  1  0
 89 63  1  0
 89 94  1  0
 89 90  1  0
 90 93  1  1
 90 91  1  0
 92 90  1  0
 94 97  1  0
 95 99  1  0
 95 94  1  0
 96 95  2  0
 99 98  1  0
101 99  1  0
101102  1  0
101100  1  0
M  ISO  4  10 100  18 100  61 101  62 101
M  END
>  <TORSDO>  (13) 
F 23

>  <SCORE>  (13) 
-13.383

>  <name>  (13) 
12

>  <ligand_id>  (13) 
12

>  <original_smiles>  (13) 
[H]N=C(C([H])([H])Oc1c([H])c([H])c2c(c1[H])C([H])([H])N(C(=O)C([H])(N([H])C(=O)C([H])(N([H])C([H])([H])[H])C([H])([H])[H])C(C([H])([H])[H])(C([H])([H])[H])C([H])([H])[H])C([H])(C(=O)N([H])C1([H])c3c([H])c([H])c([H])c([H])c3C([H])([H])C([H])([H])C1([H])[H])C2([H])[H])C([H])(C([H])([H])N([H])c1c([H])c(N([H])C(=O)N2C([H])([H])C([H])([H])C([H])([H])C([H])(n3nc(-c4c([H])c([H])c(Oc5c([H])c([H])c(F)c([H])c5F)c([H])c4[H])c(C(=O)N([H])[H])c3N([H])[H])C2([H])[H])c([H])c([H])c1C1=NC([H])([H])C([H])([H])C1([H])[H])[N+]([H])([H])[H]

>  <smiles>  (13) 
[H]N=C(C([H])([H])Oc1c([H])c([H])c2c(c1[H])C([H])([H])N(C(=O)C([H])(N([H])C(=O)C([H])(N([H])C([H])([H])[H])C([H])([H])[H])C(C([H])([H])[H])(C([H])([H])[H])C([H])([H])[H])C([H])(C(=O)N([H])C1([H])c3c([H])c([H])c([H])c([H])c3C([H])([H])C([H])([H])C1([H])[H])C2([H])[H])C([H])(C([H])([H])N([H])c1c([H])c(N([H])C(=O)N2C([H])([H])C([H])([H])C([H])([H])C([H])(n3nc(-c4c([H])c([H])c(Oc5c([H])c([H])c(F)c([H])c5F)c([H])c4[H])c(C(=O)N([H])[H])c3N([H])[H])C2([H])[H])c([H])c([H])c1C1=NC([H])([H])C([H])([H])C1([H])[H])[N+]([H])([H])[H]

$$$$
13:0:0
     RDKit          3D

 97105  0  0  1  0  0  0  0  0999 V2000
  -27.8000  -22.0610   19.2530 C   0  0  0  0  0  3  0  0  0  0  0  0
  -26.5990  -21.4720   18.5660 C   0  0  0  0  0  1  0  0  0  0  0  0
  -28.7090  -21.2780   19.8890 N   0  0  0  0  0  0  0  0  0  0  0  0
  -27.9350  -23.4080   19.1920 N   0  0  0  0  0  0  0  0  0  0  0  0
  -29.6480  -21.6210   20.0390 H   0  0  0  0  0  0  0  0  0  0  0  0
  -27.1990  -23.9180   18.7200 H   0  0  0  0  0  0  0  0  0  0  0  0
  -29.7940  -19.0550   19.9010 C   0  0  0  0  0  3  0  0  0  0  0  0
  -27.5000  -19.1300   20.2700 C   0  0  0  0  0  3  0  0  0  0  0  0
  -28.6250  -19.8710   20.0080 C   0  0  0  0  0  0  0  0  0  0  0  0
  -29.5520  -17.7120   20.0830 C   0  0  0  0  0  0  0  0  0  0  0  0
  -27.8530  -17.4240   20.3760 S   0  0  0  0  0  0  0  0  0  0  0  0
  -30.6760  -14.1930   19.4030 C   0  0  0  0  0  0  0  0  0  0  0  0
  -30.1810  -11.9980   18.4070 C   0  0  0  0  0  2  0  0  0  0  0  0
  -29.0600  -12.1280   17.3560 C   0  0  0  0  0  2  0  0  0  0  0  0
  -27.6750  -12.0100   18.0200 C   0  0  0  0  0  2  0  0  0  0  0  0
  -27.5270  -12.9270   19.2630 C   0  0  0  0  0  3  0  0  0  0  0  0
  -28.7430  -12.7830   20.2090 C   0  0  0  0  0  2  0  0  0  0  0  0
  -29.9630  -13.0360   19.4250 N   0  0  0  0  0  0  0  0  0  0  0  0
  -31.7120  -14.3330   18.7500 O   0  0  0  0  0  0  0  0  0  0  0  0
  -30.5130  -16.6240   20.0540 C   0  0  0  0  0  3  0  0  0  0  0  0
  -33.0630  -16.2640   20.3100 C   0  0  0  0  0  1  0  0  0  0  0  0
  -30.0360  -15.3490   19.9660 N   0  0  0  0  0  0  0  0  0  0  0  0
  -31.8100  -17.0150   20.1460 N   0  0  0  0  0  0  0  0  0  0  0  0
  -29.0930  -15.2770   20.3040 H   0  0  0  0  0  0  0  0  0  0  0  0
  -31.9460  -18.0150   20.1970 H   0  0  0  0  0  0  0  0  0  0  0  0
  -25.3160  -13.5890   20.4020 C   0  0  0  0  0  0  0  0  0  0  0  0
  -24.2990  -12.8410   20.9270 C   0  0  0  0  0  0  0  0  0  0  0  0
  -24.6930  -11.4760   20.7720 C   0  0  0  0  0  0  0  0  0  0  0  0
  -26.2680  -12.6830   19.9620 N   0  0  0  0  0  0  0  0  0  0  0  0
  -25.9080  -11.4050   20.2430 N   0  0  0  0  0  0  0  0  0  0  0  0
  -23.9610  -10.2320   21.0400 C   0  0  0  0  0  0  0  0  0  0  0  0
  -24.4350   -9.2830   21.9740 C   0  0  0  0  0  3  0  0  0  0  0  0
  -23.7040   -8.1030   22.2270 C   0  0  0  0  0  3  0  0  0  0  0  0
  -22.4860   -7.8620   21.5480 C   0  0  0  0  0  0  0  0  0  0  0  0
  -22.0320   -8.7980   20.6020 C   0  0  0  0  0  3  0  0  0  0  0  0
  -22.7630   -9.9700   20.3470 C   0  0  0  0  0  3  0  0  0  0  0  0
  -21.7220   -6.7320   21.7120 O   0  0  0  0  0  0  0  0  0  0  0  0
  -21.6500   -6.0810   22.9180 C   0  0  0  0  0  0  0  0  0  0  0  0
  -21.1960   -6.7280   24.0870 C   0  0  0  0  0  3  0  0  0  0  0  0
  -21.0710   -6.0030   25.2900 C   0  0  0  0  0  3  0  0  0  0  0  0
  -21.3900   -4.6320   25.3220 C   0  0  0  0  0  0  0  0  0  0  0  0
  -21.8370   -3.9850   24.1570 C   0  0  0  0  0  3  0  0  0  0  0  0
  -21.9640   -4.7080   22.9570 C   0  0  0  0  0  0  0  0  0  0  0  0
  -22.3750   -4.0750   21.8320 F   0  0  0  0  0  0  0  0  0  0  0  0
  -21.2620   -3.9320   26.4740 F   0  0  0  0  0  0  0  0  0  0  0  0
  -22.9890  -13.3530   21.4510 C   0  0  0  0  0  0  0  0  0  0  0  0
  -22.4020  -12.6610   22.4210 N   0  0  0  0  0  0  0  0  0  0  0  0
  -22.5000  -14.4020   21.0320 O   0  0  0  0  0  0  0  0  0  0  0  0
  -22.8130  -11.8110   22.7790 H   0  0  0  0  0  0  0  0  0  0  0  0
  -21.5280  -12.9850   22.8110 H   0  0  0  0  0  0  0  0  0  0  0  0
  -25.5010  -14.9590   20.2380 N   0  0  0  0  0  0  0  0  0  0  0  0
  -24.7660  -15.6180   20.4710 H   0  0  0  0  0  0  0  0  0  0  0  0
  -26.2410  -15.3740   19.6890 H   0  0  0  0  0  0  0  0  0  0  0  0
  -29.8190  -24.9010   18.6060 C   0  0  0  0  0  1  0  0  0  0  0  0
  -29.0050  -24.2660   19.7440 C   0  0  0  0  0  3  0  0  0  0  0  0
  -28.4510  -25.2870   20.7700 C   0  0  0  0  0  2  0  0  0  0  0  0
  -28.5280  -26.6530   20.3310 O   0  0  0  0  0  0  0  0  0  0  0  0
  -24.4550  -31.7200   23.1960 C   0  0  0  0  0  0  0  0  0  0  0  0
  -27.3370  -27.3350   20.2750 C   0  0  0  0  0  0  0  0  0  0  0  0
  -23.3510  -30.2730   21.5180 C   0  0  0  0  0  3  0  0  0  0  0  0
  -24.9020  -28.7590   20.1730 C   0  0  0  0  0  0  0  0  0  0  0  0
  -25.8710  -30.7030   21.4140 C   0  0  0  0  0  2  0  0  0  0  0  0
  -26.0200  -29.3290   20.7960 C   0  0  0  0  0  0  0  0  0  0  0  0
  -27.2420  -28.6240   20.8420 C   0  0  0  0  0  3  0  0  0  0  0  0
  -26.2040  -26.7740   19.6460 C   0  0  0  0  0  3  0  0  0  0  0  0
  -24.9870  -27.4800   19.5980 C   0  0  0  0  0  3  0  0  0  0  0  0
  -23.6350  -29.5830   20.1580 C   0  0  0  0  0  2  0  0  0  0  0  0
  -24.5740  -30.9130   22.1020 N   0  0  0  0  0  0  0  0  0  0  0  0
  -23.3460  -31.9660   23.6910 O   0  0  0  0  0  0  0  0  0  0  0  0
  -22.6900  -29.2440   22.4630 C   0  0  0  0  0  0  0  0  0  0  0  0
  -21.3720  -29.0410   22.2980 N   0  0  0  0  0  0  0  0  0  0  0  0
  -23.3620  -28.6300   23.2980 O   0  0  0  0  0  0  0  0  0  0  0  0
  -20.8940  -29.5860   21.5950 H   0  0  0  0  0  0  0  0  0  0  0  0
  -17.9980  -27.8360   22.7370 C   0  0  0  0  0  0  0  0  0  0  0  0
  -20.5500  -28.0940   23.0480 C   0  0  0  0  0  3  0  0  0  0  0  0
  -20.6640  -26.6700   22.4550 C   0  0  0  0  0  2  0  0  0  0  0  0
  -19.5770  -26.3590   21.4220 C   0  0  0  0  0  2  0  0  0  0  0  0
  -18.1860  -26.4950   22.0480 C   0  0  0  0  0  2  0  0  0  0  0  0
  -19.1080  -28.5930   23.1920 C   0  0  0  0  0  0  0  0  0  0  0  0
  -18.8800  -29.8500   23.7950 C   0  0  0  0  0  3  0  0  0  0  0  0
  -17.5730  -30.3490   23.9450 C   0  0  0  0  0  3  0  0  0  0  0  0
  -16.4750  -29.5880   23.5060 C   0  0  0  0  0  3  0  0  0  0  0  0
  -16.6890  -28.3330   22.9090 C   0  0  0  0  0  3  0  0  0  0  0  0
  -25.7000  -32.3870   23.8600 C   0  0  0  0  0  3  0  0  0  0  0  0
  -26.2010  -31.6260   25.1480 C   0  0  1  0  0  0  0  0  0  0  0  0
  -25.0810  -31.3390   26.1740 C   0  0  0  0  0  1  0  0  0  0  0  0
  -26.8500  -30.2760   24.7640 C   0  0  0  0  0  1  0  0  0  0  0  0
  -27.2960  -32.4580   25.8570 C   0  0  0  0  0  1  0  0  0  0  0  0
  -25.3390  -33.7740   24.1820 N   0  0  0  0  0  0  0  0  0  0  0  0
  -25.6570  -34.8360   23.4310 C   0  0  0  0  0  0  0  0  0  0  0  0
  -26.3590  -34.7550   22.4190 O   0  0  0  0  0  0  0  0  0  0  0  0
  -24.7190  -33.9080   24.9680 H   0  0  0  0  0  0  0  0  0  0  0  0
  -23.8860  -36.5740   23.0210 C   0  0  0  0  0  1  0  0  0  0  0  0
  -25.1110  -36.2070   23.8740 C   0  0  0  0  0  3  0  0  0  0  0  0
  -27.1850  -37.1590   24.7790 C   0  0  0  0  0  1  0  0  0  0  0  0
  -26.1120  -37.2920   23.7970 N   0  0  0  0  0  0  0  0  0  0  0  0
  -25.6710  -38.1980   23.9300 H   0  0  0  0  0  0  0  0  0  0  0  0
  1  2  1  0
  1  3  1  0
  3  9  1  0
  3  5  1  0
  4  1  1  0
  4 55  1  0
  6  4  1  0
  7  9  1  0
  7 10  2  0
  8 11  1  0
  9  8  2  0
 10 11  1  0
 12 18  1  0
 12 22  1  0
 13 18  1  0
 14 15  1  0
 14 13  1  0
 16 15  1  0
 16 29  1  0
 16 17  1  0
 18 17  1  0
 19 12  2  0
 20 22  1  0
 20 10  1  0
 20 23  1  0
 22 24  1  0
 23 25  1  0
 23 21  1  0
 26 27  2  0
 27 46  1  0
 28 27  1  0
 28 31  1  0
 29 30  1  0
 29 26  1  0
 30 28  2  0
 31 32  1  0
 32 33  2  0
 34 37  1  0
 34 33  1  0
 35 34  2  0
 36 35  1  0
 36 31  2  0
 37 38  1  0
 38 43  2  0
 38 39  1  0
 39 40  2  0
 40 41  1  0
 41 45  1  0
 42 41  2  0
 43 42  1  0
 44 43  1  0
 46 47  1  0
 47 49  1  0
 47 50  1  0
 48 46  2  0
 51 26  1  0
 51 52  1  0
 53 51  1  0
 55 54  1  0
 55 56  1  0
 57 56  1  0
 58 69  2  0
 59 57  1  0
 59 64  1  0
 60 68  1  0
 60 70  1  0
 61 63  1  0
 62 68  1  0
 63 64  2  0
 63 62  1  0
 65 59  2  0
 66 65  1  0
 66 61  2  0
 67 61  1  0
 67 60  1  0
 68 58  1  0
 70 72  2  0
 71 70  1  0
 73 71  1  0
 74 83  2  0
 74 79  1  0
 75 71  1  0
 75 79  1  0
 76 75  1  0
 77 78  1  0
 77 76  1  0
 78 74  1  0
 79 80  2  0
 80 81  1  0
 82 81  2  0
 83 82  1  0
 84 58  1  0
 84 89  1  0
 84 85  1  0
 85 88  1  1
 85 86  1  0
 87 85  1  0
 89 92  1  0
 90 94  1  0
 90 89  1  0
 91 90  2  0
 94 93  1  0
 96 94  1  0
 96 97  1  0
 96 95  1  0
M  ISO  4  12 100  22 100  56 101  57 101
M  END
>  <TORSDO>  (14) 
F 19

>  <SCORE>  (14) 
-12.323

>  <name>  (14) 
13

>  <ligand_id>  (14) 
13

>  <original_smiles>  (14) 
[H]c1sc(C(N([H])C(=O)N2C([H])([H])C([H])([H])C([H])([H])C([H])(n3nc(-c4c([H])c([H])c(Oc5c([H])c([H])c(F)c([H])c5F)c([H])c4[H])c(C(=O)N([H])[H])c3N([H])[H])C2([H])[H])=[N+]([H])C([H])([H])[H])c([H])c1N([H])C(=[N+]([H])C([H])(C([H])([H])[H])C([H])([H])Oc1c([H])c([H])c2c(c1[H])C([H])([H])N(C(=O)C([H])(N([H])C(=O)C([H])(N([H])C([H])([H])[H])C([H])([H])[H])C(C([H])([H])[H])(C([H])([H])[H])C([H])([H])[H])C([H])(C(=O)N([H])C1([H])c3c([H])c([H])c([H])c([H])c3C([H])([H])C([H])([H])C1([H])[H])C2([H])[H])C([H])([H])[H]

>  <smiles>  (14) 
[H]c1sc(C(N([H])C(=O)N2C([H])([H])C([H])([H])C([H])([H])C([H])(n3nc(-c4c([H])c([H])c(Oc5c([H])c([H])c(F)c([H])c5F)c([H])c4[H])c(C(=O)N([H])[H])c3N([H])[H])C2([H])[H])=[N+]([H])C([H])([H])[H])c([H])c1N([H])C(=[N+]([H])C([H])(C([H])([H])[H])C([H])([H])Oc1c([H])c([H])c2c(c1[H])C([H])([H])N(C(=O)C([H])(N([H])C(=O)C([H])(N([H])C([H])([H])[H])C([H])([H])[H])C(C([H])([H])[H])(C([H])([H])[H])C([H])([H])[H])C([H])(C(=O)N([H])C1([H])c3c([H])c([H])c([H])c([H])c3C([H])([H])C([H])([H])C1([H])[H])C2([H])[H])C([H])([H])[H]

$$$$
14:0:0
     RDKit          3D

105113  0  0  1  0  0  0  0  0999 V2000
  -29.2690  -21.3580   19.9590 C   0  0  0  0  0  0  0  0  0  0  0  0
  -28.9880  -21.3810   18.6630 N   0  0  0  0  0  4  0  0  0  0  0  0
  -29.1330  -22.5550   20.6470 N   0  0  0  0  0  0  0  0  0  0  0  0
  -29.1220  -20.5430   18.1170 H   0  0  0  0  0  0  0  0  0  0  0  0
  -28.6130  -22.1960   18.2060 H   0  0  0  0  0  0  0  0  0  0  0  0
  -29.0750  -22.4110   21.6480 H   0  0  0  0  0  0  0  0  0  0  0  0
  -29.4290  -18.6850   20.2450 C   0  0  0  0  0  3  0  0  0  0  0  0
  -30.9770  -20.2070   21.3580 C   0  0  0  0  0  3  0  0  0  0  0  0
  -31.3090  -17.7800   21.5000 C   0  0  0  0  0  3  0  0  0  0  0  0
  -29.8340  -20.0550   20.5440 C   0  0  0  0  0  0  0  0  0  0  0  0
  -30.1640  -17.5120   20.7170 C   0  0  0  0  0  0  0  0  0  0  0  0
  -31.7220  -19.0930   21.8170 C   0  0  0  0  0  0  0  0  0  0  0  0
  -30.5820  -14.9500   20.3770 C   0  0  0  0  0  0  0  0  0  0  0  0
  -30.4180  -12.6650   19.3770 C   0  0  0  0  0  2  0  0  0  0  0  0
  -29.4710  -12.6950   18.1580 C   0  0  0  0  0  2  0  0  0  0  0  0
  -28.0070  -12.4970   18.5980 C   0  0  0  0  0  2  0  0  0  0  0  0
  -27.6180  -13.3920   19.8050 C   0  0  0  0  0  3  0  0  0  0  0  0
  -28.6850  -13.3470   20.9200 C   0  0  0  0  0  2  0  0  0  0  0  0
  -29.9660  -13.7200   20.3090 N   0  0  0  0  0  0  0  0  0  0  0  0
  -31.7780  -15.0480   20.0910 O   0  0  0  0  0  0  0  0  0  0  0  0
  -29.7860  -16.0870   20.4960 N   0  0  0  0  0  0  0  0  0  0  0  0
  -28.7950  -15.9040   20.4670 H   0  0  0  0  0  0  0  0  0  0  0  0
  -25.2320  -13.9460   20.5660 C   0  0  0  0  0  0  0  0  0  0  0  0
  -24.1790  -13.1540   20.9370 C   0  0  0  0  0  0  0  0  0  0  0  0
  -24.6600  -11.8100   20.8880 C   0  0  0  0  0  0  0  0  0  0  0  0
  -26.2840  -13.0820   20.3080 N   0  0  0  0  0  0  0  0  0  0  0  0
  -25.9480  -11.7920   20.5680 N   0  0  0  0  0  0  0  0  0  0  0  0
  -23.9520  -10.5360   21.0670 C   0  0  0  0  0  0  0  0  0  0  0  0
  -24.3970   -9.5680   21.9940 C   0  0  0  0  0  3  0  0  0  0  0  0
  -23.6860   -8.3600   22.1640 C   0  0  0  0  0  3  0  0  0  0  0  0
  -22.5190   -8.1100   21.4050 C   0  0  0  0  0  0  0  0  0  0  0  0
  -22.0930   -9.0670   20.4660 C   0  0  0  0  0  3  0  0  0  0  0  0
  -22.8030  -10.2660   20.2960 C   0  0  0  0  0  3  0  0  0  0  0  0
  -21.7790   -6.9540   21.4830 O   0  0  0  0  0  0  0  0  0  0  0  0
  -21.7220   -6.2130   22.6360 C   0  0  0  0  0  0  0  0  0  0  0  0
  -21.2400   -6.7570   23.8470 C   0  0  0  0  0  3  0  0  0  0  0  0
  -21.1340   -5.9410   24.9920 C   0  0  0  0  0  3  0  0  0  0  0  0
  -21.4990   -4.5820   24.9250 C   0  0  0  0  0  0  0  0  0  0  0  0
  -21.9720   -4.0390   23.7190 C   0  0  0  0  0  3  0  0  0  0  0  0
  -22.0810   -4.8520   22.5770 C   0  0  0  0  0  0  0  0  0  0  0  0
  -22.5180   -4.3180   21.4110 F   0  0  0  0  0  0  0  0  0  0  0  0
  -21.3900   -3.7970   26.0220 F   0  0  0  0  0  0  0  0  0  0  0  0
  -22.7790  -13.6090   21.2220 C   0  0  0  0  0  0  0  0  0  0  0  0
  -22.0640  -12.8910   22.0820 N   0  0  0  0  0  0  0  0  0  0  0  0
  -22.3250  -14.6370   20.7190 O   0  0  0  0  0  0  0  0  0  0  0  0
  -22.4420  -12.0600   22.5120 H   0  0  0  0  0  0  0  0  0  0  0  0
  -21.1230  -13.1780   22.3150 H   0  0  0  0  0  0  0  0  0  0  0  0
  -25.3760  -15.3210   20.4020 N   0  0  0  0  0  0  0  0  0  0  0  0
  -24.5990  -15.9610   20.5220 H   0  0  0  0  0  0  0  0  0  0  0  0
  -26.2010  -15.7720   20.0310 H   0  0  0  0  0  0  0  0  0  0  0  0
  -32.8880  -19.2260   22.5930 N   0  0  0  0  0  0  0  0  0  0  0  0
  -33.4480  -18.3840   22.6730 H   0  0  0  0  0  0  0  0  0  0  0  0
  -33.6980  -20.4470   22.5390 C   0  0  0  0  0  2  0  0  0  0  0  0
  -34.6550  -20.4980   21.3300 C   0  0  1  0  0  0  0  0  0  0  0  0
  -35.4280  -21.5800   21.4230 F   0  0  0  0  0  0  0  0  0  0  0  0
  -35.4330  -19.4150   21.3180 F   0  0  0  0  0  0  0  0  0  0  0  0
  -33.9730  -20.5590   20.1860 F   0  0  0  0  0  0  0  0  0  0  0  0
  -29.2880  -24.0630   20.2800 C   0  0  0  0  0  2  0  0  0  0  0  0
  -28.0790  -25.0510   19.8210 C   0  0  0  0  0  3  0  0  0  0  0  0
  -27.9520  -24.8740   18.2900 C   0  0  0  0  0  0  0  0  0  0  0  0
  -27.0300  -24.0370   17.8250 N   0  0  0  0  0  0  0  0  0  0  0  0
  -28.6760  -25.5040   17.5180 O   0  0  0  0  0  0  0  0  0  0  0  0
  -26.4070  -23.5460   18.4530 H   0  0  0  0  0  0  0  0  0  0  0  0
  -26.9010  -23.9360   16.8280 H   0  0  0  0  0  0  0  0  0  0  0  0
  -28.2060  -26.5410   20.1040 O   0  0  0  0  0  0  0  0  0  0  0  0
  -24.5520  -31.9900   23.2660 C   0  0  0  0  0  0  0  0  0  0  0  0
  -27.0860  -27.4190   20.0960 C   0  0  0  0  0  0  0  0  0  0  0  0
  -23.3130  -30.6160   21.6350 C   0  0  0  0  0  3  0  0  0  0  0  0
  -24.7290  -29.0810   20.1560 C   0  0  0  0  0  0  0  0  0  0  0  0
  -25.8530  -30.9230   21.4000 C   0  0  0  0  0  2  0  0  0  0  0  0
  -25.9180  -29.5490   20.7300 C   0  0  0  0  0  0  0  0  0  0  0  0
  -27.0970  -28.7320   20.6850 C   0  0  0  0  0  3  0  0  0  0  0  0
  -25.8560  -27.0170   19.5230 C   0  0  0  0  0  3  0  0  0  0  0  0
  -24.7050  -27.8230   19.5410 C   0  0  0  0  0  3  0  0  0  0  0  0
  -23.4980  -29.9620   20.2400 C   0  0  0  0  0  2  0  0  0  0  0  0
  -24.5940  -31.1940   22.1570 N   0  0  0  0  0  0  0  0  0  0  0  0
  -23.4790  -32.2570   23.8280 O   0  0  0  0  0  0  0  0  0  0  0  0
  -22.6660  -29.5870   22.5930 C   0  0  0  0  0  0  0  0  0  0  0  0
  -21.3420  -29.3890   22.4670 N   0  0  0  0  0  0  0  0  0  0  0  0
  -23.3550  -28.9710   23.4100 O   0  0  0  0  0  0  0  0  0  0  0  0
  -20.8440  -29.9410   21.7830 H   0  0  0  0  0  0  0  0  0  0  0  0
  -17.9930  -28.0970   22.9400 C   0  0  0  0  0  0  0  0  0  0  0  0
  -20.5400  -28.4370   23.2390 C   0  0  0  0  0  3  0  0  0  0  0  0
  -20.6930  -27.0020   22.6840 C   0  0  0  0  0  2  0  0  0  0  0  0
  -19.6140  -26.6340   21.6600 C   0  0  0  0  0  2  0  0  0  0  0  0
  -18.2190  -26.7450   22.2830 C   0  0  0  0  0  2  0  0  0  0  0  0
  -19.0830  -28.8980   23.3740 C   0  0  0  0  0  0  0  0  0  0  0  0
  -18.8190  -30.1600   23.9470 C   0  0  0  0  0  3  0  0  0  0  0  0
  -17.4970  -30.6220   24.0940 C   0  0  0  0  0  3  0  0  0  0  0  0
  -16.4220  -29.8200   23.6730 C   0  0  0  0  0  3  0  0  0  0  0  0
  -16.6710  -28.5590   23.1020 C   0  0  0  0  0  3  0  0  0  0  0  0
  -25.8450  -32.6170   23.8690 C   0  0  0  0  0  3  0  0  0  0  0  0
  -25.5460  -34.0190   24.2040 N   0  0  0  0  0  0  0  0  0  0  0  0
  -25.8840  -35.0720   23.4480 C   0  0  0  0  0  0  0  0  0  0  0  0
  -26.5470  -34.9650   22.4130 O   0  0  0  0  0  0  0  0  0  0  0  0
  -24.9600  -34.1740   25.0100 H   0  0  0  0  0  0  0  0  0  0  0  0
  -24.1820  -36.8930   23.0930 C   0  0  0  0  0  1  0  0  0  0  0  0
  -25.4100  -36.4640   23.9120 C   0  0  0  0  0  3  0  0  0  0  0  0
  -27.5460  -37.3160   24.7720 C   0  0  0  0  0  1  0  0  0  0  0  0
  -26.4570  -37.5050   23.8180 N   0  0  0  0  0  0  0  0  0  0  0  0
  -26.0600  -38.4300   23.9690 H   0  0  0  0  0  0  0  0  0  0  0  0
  -26.3680  -31.8470   25.1430 C   0  0  1  0  0  0  0  0  0  0  0  0
  -25.2840  -31.6100   26.2200 C   0  0  0  0  0  1  0  0  0  0  0  0
  -26.9470  -30.4690   24.7480 C   0  0  0  0  0  1  0  0  0  0  0  0
  -27.5230  -32.6400   25.7980 C   0  0  0  0  0  1  0  0  0  0  0  0
  1 10  1  0
  1  3  1  0
  2  1  2  0
  3  6  1  0
  4  2  1  0
  5  2  1  0
  7 10  2  0
  7 11  1  0
  8 12  2  0
  9 12  1  0
 10  8  1  0
 11  9  2  0
 12 51  1  0
 13 21  1  0
 14 19  1  0
 15 16  1  0
 15 14  1  0
 17 16  1  0
 17 26  1  0
 17 18  1  0
 19 13  1  0
 19 18  1  0
 20 13  2  0
 21 11  1  0
 22 21  1  0
 23 24  2  0
 24 43  1  0
 25 24  1  0
 25 28  1  0
 26 23  1  0
 26 27  1  0
 27 25  2  0
 28 29  1  0
 29 30  2  0
 31 34  1  0
 31 30  1  0
 32 31  2  0
 33 32  1  0
 33 28  2  0
 34 35  1  0
 35 36  1  0
 36 37  2  0
 38 37  1  0
 38 42  1  0
 39 38  2  0
 40 35  2  0
 40 39  1  0
 41 40  1  0
 43 44  1  0
 44 47  1  0
 44 46  1  0
 45 43  2  0
 48 49  1  0
 48 23  1  0
 50 48  1  0
 51 52  1  0
 53 51  1  0
 54 55  1  1
 54 53  1  0
 56 54  1  0
 57 54  1  0
 58  3  1  0
 59 65  1  0
 59 58  1  0
 60 59  1  0
 61 60  1  0
 61 63  1  0
 62 60  2  0
 64 61  1  0
 66 77  2  0
 67 65  1  0
 67 72  1  0
 68 76  1  0
 68 78  1  0
 69 75  1  0
 69 71  1  0
 70 76  1  0
 71 70  1  0
 72 71  2  0
 73 74  1  0
 73 67  2  0
 74 69  2  0
 75 68  1  0
 76 66  1  0
 78 80  2  0
 79 78  1  0
 81 79  1  0
 82 91  2  0
 82 87  1  0
 83 79  1  0
 83 87  1  0
 84 83  1  0
 85 86  1  0
 85 84  1  0
 86 82  1  0
 87 88  2  0
 88 89  1  0
 90 89  2  0
 91 90  1  0
 92 66  1  0
 92 93  1  0
 92102  1  0
 93 96  1  0
 94 98  1  0
 94 93  1  0
 95 94  2  0
 98 97  1  0
100 98  1  0
100101  1  0
100 99  1  0
102105  1  1
102103  1  0
104102  1  0
M  ISO  4  13 100  21 100  59 101  65 101
M  END
>  <TORSDO>  (15) 
F 23

>  <SCORE>  (15) 
-13.181

>  <name>  (15) 
14

>  <ligand_id>  (15) 
14

>  <original_smiles>  (15) 
[H]c1c([H])c([H])c2c(c1[H])C([H])([H])C([H])([H])C([H])([H])C2([H])N([H])C(=O)C1([H])N(C(=O)C([H])(N([H])C(=O)C([H])(N([H])C([H])([H])[H])C([H])([H])[H])C(C([H])([H])[H])(C([H])([H])[H])C([H])([H])[H])C([H])([H])c2c([H])c(OC([H])(C(=O)N([H])[H])C([H])([H])[N+]([H])=C(c3c([H])c(N([H])C(=O)N4C([H])([H])C([H])([H])C([H])([H])C([H])(n5nc(-c6c([H])c([H])c(Oc7c([H])c([H])c(F)c([H])c7F)c([H])c6[H])c(C(=O)N([H])[H])c5N([H])[H])C4([H])[H])c([H])c(N([H])C([H])([H])C(F)(F)F)c3[H])N([H])[H])c([H])c([H])c2C1([H])[H]

>  <smiles>  (15) 
[H]c1c([H])c([H])c2c(c1[H])C([H])([H])C([H])([H])C([H])([H])C2([H])N([H])C(=O)C1([H])N(C(=O)C([H])(N([H])C(=O)C([H])(N([H])C([H])([H])[H])C([H])([H])[H])C(C([H])([H])[H])(C([H])([H])[H])C([H])([H])[H])C([H])([H])c2c([H])c(OC([H])(C(=O)N([H])[H])C([H])([H])[N+]([H])=C(c3c([H])c(N([H])C(=O)N4C([H])([H])C([H])([H])C([H])([H])C([H])(n5nc(-c6c([H])c([H])c(Oc7c([H])c([H])c(F)c([H])c7F)c([H])c6[H])c(C(=O)N([H])[H])c5N([H])[H])C4([H])[H])c([H])c(N([H])C([H])([H])C(F)(F)F)c3[H])N([H])[H])c([H])c([H])c2C1([H])[H]

$$$$
15:0:0
     RDKit          3D

 94102  0  0  1  0  0  0  0  0999 V2000
  -29.1960  -22.4590   21.9610 C   0  0  0  0  0  0  0  0  0  0  0  0
  -30.3280  -22.8370   22.2820 O   0  0  0  0  0  0  0  0  0  0  0  0
  -28.0250  -23.4410   21.8840 C   0  0  0  0  0  2  0  0  0  0  0  0
  -28.2400  -24.4470   20.7490 C   0  0  0  0  0  0  0  0  0  0  0  0
  -28.1040  -24.1160   19.5630 O   0  0  0  0  0  0  0  0  0  0  0  0
  -28.6050  -25.8860   21.1490 C   0  0  0  0  0  2  0  0  0  0  0  0
  -28.4280  -26.7940   20.0570 O   0  0  0  0  0  0  0  0  0  0  0  0
  -24.6140  -31.9050   23.2320 C   0  0  0  0  0  0  0  0  0  0  0  0
  -27.2560  -27.5070   20.1090 C   0  0  0  0  0  0  0  0  0  0  0  0
  -23.3980  -30.5040   21.5930 C   0  0  0  0  0  3  0  0  0  0  0  0
  -24.8490  -28.9760   20.1520 C   0  0  0  0  0  0  0  0  0  0  0  0
  -25.9170  -30.8810   21.3710 C   0  0  0  0  0  2  0  0  0  0  0  0
  -26.0040  -29.5110   20.7340 C   0  0  0  0  0  0  0  0  0  0  0  0
  -27.2130  -28.7800   20.7170 C   0  0  0  0  0  3  0  0  0  0  0  0
  -26.0890  -26.9810   19.5200 C   0  0  0  0  0  3  0  0  0  0  0  0
  -24.8830  -27.7080   19.5450 C   0  0  0  0  0  3  0  0  0  0  0  0
  -23.5990  -29.8280   20.2090 C   0  0  0  0  0  2  0  0  0  0  0  0
  -24.6620  -31.1110   22.1240 N   0  0  0  0  0  0  0  0  0  0  0  0
  -23.5370  -32.1700   23.7850 O   0  0  0  0  0  0  0  0  0  0  0  0
  -22.7610  -29.4770   22.5530 C   0  0  0  0  0  0  0  0  0  0  0  0
  -21.4370  -29.2900   22.4350 N   0  0  0  0  0  0  0  0  0  0  0  0
  -23.4540  -28.8510   23.3590 O   0  0  0  0  0  0  0  0  0  0  0  0
  -20.9400  -29.8500   21.7570 H   0  0  0  0  0  0  0  0  0  0  0  0
  -18.0710  -28.0750   22.9420 C   0  0  0  0  0  0  0  0  0  0  0  0
  -20.6280  -28.3450   23.2060 C   0  0  0  0  0  3  0  0  0  0  0  0
  -20.7380  -26.9170   22.6240 C   0  0  0  0  0  2  0  0  0  0  0  0
  -19.6340  -26.5900   21.6130 C   0  0  0  0  0  2  0  0  0  0  0  0
  -18.2540  -26.7260   22.2630 C   0  0  0  0  0  2  0  0  0  0  0  0
  -19.1880  -28.8410   23.3700 C   0  0  0  0  0  0  0  0  0  0  0  0
  -18.9660  -30.1020   23.9630 C   0  0  0  0  0  3  0  0  0  0  0  0
  -17.6600  -30.5980   24.1330 C   0  0  0  0  0  3  0  0  0  0  0  0
  -16.5580  -29.8290   23.7200 C   0  0  0  0  0  3  0  0  0  0  0  0
  -16.7650  -28.5690   23.1310 C   0  0  0  0  0  3  0  0  0  0  0  0
  -25.9040  -32.5360   23.8430 C   0  0  0  0  0  3  0  0  0  0  0  0
  -25.5980  -33.9330   24.1790 N   0  0  0  0  0  0  0  0  0  0  0  0
  -25.9270  -34.9850   23.4190 C   0  0  0  0  0  0  0  0  0  0  0  0
  -26.5910  -34.8840   22.3840 O   0  0  0  0  0  0  0  0  0  0  0  0
  -25.0090  -34.0860   24.9850 H   0  0  0  0  0  0  0  0  0  0  0  0
  -24.1940  -36.7750   23.0730 C   0  0  0  0  0  1  0  0  0  0  0  0
  -25.4390  -36.3740   23.8790 C   0  0  0  0  0  3  0  0  0  0  0  0
  -27.5790  -37.2570   24.6950 C   0  0  0  0  0  1  0  0  0  0  0  0
  -26.4710  -37.4270   23.7600 N   0  0  0  0  0  0  0  0  0  0  0  0
  -26.0660  -38.3470   23.9130 H   0  0  0  0  0  0  0  0  0  0  0  0
  -26.4340  -31.7610   25.1100 C   0  0  1  0  0  0  0  0  0  0  0  0
  -25.3540  -31.5190   26.1910 C   0  0  0  0  0  1  0  0  0  0  0  0
  -27.0120  -30.3850   24.7020 C   0  0  0  0  0  1  0  0  0  0  0  0
  -27.5920  -32.5510   25.7640 C   0  0  0  0  0  1  0  0  0  0  0  0
  -28.9320  -20.9820   21.6370 C   0  0  0  0  0  2  0  0  0  0  0  0
  -29.8520  -20.4850   20.6160 N   0  0  0  0  0  0  0  0  0  0  0  0
  -30.1370  -21.1720   19.9230 H   0  0  0  0  0  0  0  0  0  0  0  0
  -29.6840  -18.0530   21.1490 C   0  0  0  0  0  3  0  0  0  0  0  0
  -30.1350  -16.9260   20.3970 C   0  0  0  0  0  0  0  0  0  0  0  0
  -30.6440  -17.3890   19.2060 C   0  0  0  0  0  0  0  0  0  0  0  0
  -30.0170  -19.1250   20.3650 C   0  0  0  0  0  0  0  0  0  0  0  0
  -31.1730  -16.7660   17.9560 C   0  0  0  0  0  1  0  0  0  0  0  0
  -30.5980  -18.7530   19.1960 O   0  0  0  0  0  0  0  0  0  0  0  0
  -30.7270  -14.5190   20.3800 C   0  0  0  0  0  0  0  0  0  0  0  0
  -30.4330  -12.3660   19.2450 C   0  0  0  0  0  2  0  0  0  0  0  0
  -29.4950  -12.5890   18.0400 C   0  0  0  0  0  2  0  0  0  0  0  0
  -28.0170  -12.4720   18.4650 C   0  0  0  0  0  2  0  0  0  0  0  0
  -27.6830  -13.3030   19.7320 C   0  0  0  0  0  3  0  0  0  0  0  0
  -28.7310  -13.0530   20.8410 C   0  0  0  0  0  2  0  0  0  0  0  0
  -30.0630  -13.3400   20.2820 N   0  0  0  0  0  0  0  0  0  0  0  0
  -31.8860  -14.6720   19.9800 O   0  0  0  0  0  0  0  0  0  0  0  0
  -29.9800  -15.5610   20.7910 N   0  0  0  0  0  0  0  0  0  0  0  0
  -29.1150  -15.3280   21.2560 H   0  0  0  0  0  0  0  0  0  0  0  0
  -25.2800  -13.9270   20.4130 C   0  0  0  0  0  0  0  0  0  0  0  0
  -24.2050  -13.1640   20.7780 C   0  0  0  0  0  0  0  0  0  0  0  0
  -24.6640  -11.8110   20.7740 C   0  0  0  0  0  0  0  0  0  0  0  0
  -26.3240  -13.0410   20.2010 N   0  0  0  0  0  0  0  0  0  0  0  0
  -25.9560  -11.7630   20.4760 N   0  0  0  0  0  0  0  0  0  0  0  0
  -23.9340  -10.5540   20.9810 C   0  0  0  0  0  0  0  0  0  0  0  0
  -24.3680   -9.5930   21.9210 C   0  0  0  0  0  3  0  0  0  0  0  0
  -23.6420   -8.3990   22.1150 C   0  0  0  0  0  3  0  0  0  0  0  0
  -22.4640   -8.1560   21.3670 C   0  0  0  0  0  0  0  0  0  0  0  0
  -22.0480   -9.1060   20.4170 C   0  0  0  0  0  3  0  0  0  0  0  0
  -22.7760  -10.2900   20.2210 C   0  0  0  0  0  3  0  0  0  0  0  0
  -21.7080   -7.0150   21.4730 O   0  0  0  0  0  0  0  0  0  0  0  0
  -21.6780   -6.2740   22.6280 C   0  0  0  0  0  0  0  0  0  0  0  0
  -21.2870   -6.8360   23.8620 C   0  0  0  0  0  3  0  0  0  0  0  0
  -21.2020   -6.0220   25.0090 C   0  0  0  0  0  3  0  0  0  0  0  0
  -21.4960   -4.6480   24.9220 C   0  0  0  0  0  0  0  0  0  0  0  0
  -21.8830   -4.0870   23.6930 C   0  0  0  0  0  3  0  0  0  0  0  0
  -21.9690   -4.8980   22.5480 C   0  0  0  0  0  0  0  0  0  0  0  0
  -22.3180   -4.3470   21.3590 F   0  0  0  0  0  0  0  0  0  0  0  0
  -21.4090   -3.8640   26.0220 F   0  0  0  0  0  0  0  0  0  0  0  0
  -22.8050  -13.6480   21.0230 C   0  0  0  0  0  0  0  0  0  0  0  0
  -22.0660  -12.9740   21.8950 N   0  0  0  0  0  0  0  0  0  0  0  0
  -22.3760  -14.6640   20.4760 O   0  0  0  0  0  0  0  0  0  0  0  0
  -22.4210  -12.1490   22.3560 H   0  0  0  0  0  0  0  0  0  0  0  0
  -21.1290  -13.2890   22.1030 H   0  0  0  0  0  0  0  0  0  0  0  0
  -25.4580  -15.2960   20.2290 N   0  0  0  0  0  0  0  0  0  0  0  0
  -24.7110  -15.9670   20.3620 H   0  0  0  0  0  0  0  0  0  0  0  0
  -26.3330  -15.7260   19.9610 H   0  0  0  0  0  0  0  0  0  0  0  0
  1  2  2  0
  3  1  1  0
  4  6  1  0
  4  3  1  0
  5  4  2  0
  7  9  1  0
  7  6  1  0
  8 19  2  0
  9 14  1  0
 10 18  1  0
 10 20  1  0
 11 17  1  0
 11 13  1  0
 12 18  1  0
 13 12  1  0
 14 13  2  0
 15 16  1  0
 15  9  2  0
 16 11  2  0
 17 10  1  0
 18  8  1  0
 20 22  2  0
 21 20  1  0
 23 21  1  0
 24 33  2  0
 24 29  1  0
 25 21  1  0
 25 29  1  0
 26 25  1  0
 27 28  1  0
 27 26  1  0
 28 24  1  0
 29 30  2  0
 30 31  1  0
 32 31  2  0
 33 32  1  0
 34  8  1  0
 34 35  1  0
 34 44  1  0
 35 38  1  0
 36 40  1  0
 36 35  1  0
 37 36  2  0
 40 39  1  0
 42 40  1  0
 42 43  1  0
 42 41  1  0
 44 47  1  1
 44 45  1  0
 46 44  1  0
 48  1  1  0
 49 48  1  0
 50 49  1  0
 52 65  1  0
 52 51  1  0
 53 52  2  0
 54 49  1  0
 54 51  2  0
 55 53  1  0
 56 53  1  0
 56 54  1  0
 57 65  1  0
 58 63  1  0
 59 60  1  0
 59 58  1  0
 61 60  1  0
 61 70  1  0
 61 62  1  0
 63 57  1  0
 63 62  1  0
 64 57  2  0
 65 66  1  0
 67 68  2  0
 68 87  1  0
 69 68  1  0
 69 72  1  0
 70 67  1  0
 70 71  1  0
 71 69  2  0
 72 73  1  0
 73 74  2  0
 75 78  1  0
 75 74  1  0
 76 75  2  0
 77 76  1  0
 77 72  2  0
 78 79  1  0
 79 80  1  0
 80 81  2  0
 82 81  1  0
 82 86  1  0
 83 82  2  0
 84 79  2  0
 84 83  1  0
 85 84  1  0
 87 88  1  0
 88 91  1  0
 88 90  1  0
 89 87  2  0
 92 93  1  0
 92 67  1  0
 94 92  1  0
M  ISO  4   6 101   7 101  57 100  65 100
M  END
>  <TORSDO>  (16) 
F 22

>  <SCORE>  (16) 
-13.067

>  <name>  (16) 
15

>  <ligand_id>  (16) 
15

>  <original_smiles>  (16) 
[H]c1c([H])c([H])c2c(c1[H])C([H])([H])C([H])([H])C([H])([H])C2([H])N([H])C(=O)C1([H])N(C(=O)C([H])(N([H])C(=O)C([H])(N([H])C([H])([H])[H])C([H])([H])[H])C(C([H])([H])[H])(C([H])([H])[H])C([H])([H])[H])C([H])([H])c2c([H])c(OC([H])([H])C(=O)C([H])([H])C(=O)C([H])([H])N([H])c3oc(C([H])([H])[H])c(N([H])C(=O)N4C([H])([H])C([H])([H])C([H])([H])C([H])(n5nc(-c6c([H])c([H])c(Oc7c([H])c([H])c(F)c([H])c7F)c([H])c6[H])c(C(=O)N([H])[H])c5N([H])[H])C4([H])[H])c3[H])c([H])c([H])c2C1([H])[H]

>  <smiles>  (16) 
[H]c1c([H])c([H])c2c(c1[H])C([H])([H])C([H])([H])C([H])([H])C2([H])N([H])C(=O)C1([H])N(C(=O)C([H])(N([H])C(=O)C([H])(N([H])C([H])([H])[H])C([H])([H])[H])C(C([H])([H])[H])(C([H])([H])[H])C([H])([H])[H])C([H])([H])c2c([H])c(OC([H])([H])C(=O)C([H])([H])C(=O)C([H])([H])N([H])c3oc(C([H])([H])[H])c(N([H])C(=O)N4C([H])([H])C([H])([H])C([H])([H])C([H])(n5nc(-c6c([H])c([H])c(Oc7c([H])c([H])c(F)c([H])c7F)c([H])c6[H])c(C(=O)N([H])[H])c5N([H])[H])C4([H])[H])c3[H])c([H])c([H])c2C1([H])[H]

$$$$
16:0:0
     RDKit          3D

 94102  0  0  1  0  0  0  0  0999 V2000
  -29.5960  -18.7260   20.5370 C   0  0  0  0  0  0  0  0  0  0  0  0
  -28.4030  -18.7560   19.8220 C   0  0  0  0  0  0  0  0  0  0  0  0
  -29.0890  -21.1030   20.5770 C   0  0  0  0  0  0  0  0  0  0  0  0
  -29.9330  -20.0870   20.9480 N   0  0  0  0  0  0  0  0  0  0  0  0
  -29.2150  -22.5340   20.8450 N   0  0  0  0  0  0  0  0  0  0  0  0
  -27.7370  -20.4090   19.6860 S   0  0  0  0  0  0  0  0  0  0  0  0
  -29.9500  -22.7080   21.5220 H   0  0  0  0  0  0  0  0  0  0  0  0
  -30.8540  -14.9720   20.4750 C   0  0  0  0  0  0  0  0  0  0  0  0
  -30.6390  -12.7250   19.3870 C   0  0  0  0  0  2  0  0  0  0  0  0
  -29.7080  -12.8190   18.1590 C   0  0  0  0  0  2  0  0  0  0  0  0
  -28.2390  -12.6280   18.5820 C   0  0  0  0  0  2  0  0  0  0  0  0
  -27.8560  -13.4890   19.8150 C   0  0  0  0  0  3  0  0  0  0  0  0
  -28.9100  -13.3920   20.9380 C   0  0  0  0  0  2  0  0  0  0  0  0
  -30.1990  -13.7630   20.3480 N   0  0  0  0  0  0  0  0  0  0  0  0
  -32.0630  -14.9980   20.2280 O   0  0  0  0  0  0  0  0  0  0  0  0
  -30.5440  -17.4680   20.7350 C   0  0  0  0  0  0  0  0  0  0  0  0
  -30.1030  -16.1450   20.6190 N   0  0  0  0  0  0  0  0  0  0  0  0
  -31.7240  -17.7090   21.0210 O   0  0  0  0  0  0  0  0  0  0  0  0
  -29.1040  -16.0430   20.5770 H   0  0  0  0  0  0  0  0  0  0  0  0
  -25.4710  -14.0660   20.5500 C   0  0  0  0  0  0  0  0  0  0  0  0
  -24.4030  -13.2850   20.9020 C   0  0  0  0  0  0  0  0  0  0  0  0
  -24.8670  -11.9350   20.8530 C   0  0  0  0  0  0  0  0  0  0  0  0
  -26.5130  -13.1900   20.2980 N   0  0  0  0  0  0  0  0  0  0  0  0
  -26.1590  -11.9030   20.5480 N   0  0  0  0  0  0  0  0  0  0  0  0
  -24.1410  -10.6690   21.0210 C   0  0  0  0  0  0  0  0  0  0  0  0
  -24.5480   -9.7050   21.9700 C   0  0  0  0  0  3  0  0  0  0  0  0
  -23.8230   -8.5040   22.1280 C   0  0  0  0  0  3  0  0  0  0  0  0
  -22.6760   -8.2590   21.3350 C   0  0  0  0  0  0  0  0  0  0  0  0
  -22.2890   -9.2120   20.3760 C   0  0  0  0  0  3  0  0  0  0  0  0
  -23.0140  -10.4050   20.2170 C   0  0  0  0  0  3  0  0  0  0  0  0
  -21.9240   -7.1120   21.4000 O   0  0  0  0  0  0  0  0  0  0  0  0
  -21.8290   -6.3780   22.5560 C   0  0  0  0  0  0  0  0  0  0  0  0
  -21.2750   -6.9200   23.7370 C   0  0  0  0  0  3  0  0  0  0  0  0
  -21.1360   -6.1120   24.8830 C   0  0  0  0  0  3  0  0  0  0  0  0
  -21.5330   -4.7610   24.8460 C   0  0  0  0  0  0  0  0  0  0  0  0
  -22.0750   -4.2190   23.6680 C   0  0  0  0  0  3  0  0  0  0  0  0
  -22.2210   -5.0250   22.5250 C   0  0  0  0  0  0  0  0  0  0  0  0
  -22.7270   -4.4920   21.3880 F   0  0  0  0  0  0  0  0  0  0  0  0
  -21.3890   -3.9820   25.9430 F   0  0  0  0  0  0  0  0  0  0  0  0
  -23.0030  -13.7570   21.1650 C   0  0  0  0  0  0  0  0  0  0  0  0
  -22.2690  -13.0530   22.0200 N   0  0  0  0  0  0  0  0  0  0  0  0
  -22.5660  -14.7830   20.6470 O   0  0  0  0  0  0  0  0  0  0  0  0
  -22.6330  -12.2210   22.4600 H   0  0  0  0  0  0  0  0  0  0  0  0
  -21.3260  -13.3460   22.2350 H   0  0  0  0  0  0  0  0  0  0  0  0
  -25.6310  -15.4410   20.4020 N   0  0  0  0  0  0  0  0  0  0  0  0
  -24.8530  -16.0760   20.5420 H   0  0  0  0  0  0  0  0  0  0  0  0
  -26.4400  -15.9110   20.0150 H   0  0  0  0  0  0  0  0  0  0  0  0
  -26.4330  -17.8810   18.5870 C   0  0  0  0  0  1  0  0  0  0  0  0
  -27.7480  -17.6810   19.1850 N   0  0  0  0  0  0  0  0  0  0  0  0
  -28.3310  -17.0190   18.6770 H   0  0  0  0  0  0  0  0  0  0  0  0
  -28.6760  -23.8700   20.3100 C   0  0  0  0  0  2  0  0  0  0  0  0
  -28.7560  -25.2410   21.2080 C   0  0  0  0  0  3  0  0  0  0  0  0
  -27.8660  -25.1240   22.2250 F   0  0  0  0  0  0  0  0  0  0  0  0
  -28.7460  -26.5720   20.6980 O   0  0  0  0  0  0  0  0  0  0  0  0
  -24.6970  -32.0070   23.3980 C   0  0  0  0  0  0  0  0  0  0  0  0
  -27.6000  -27.4000   20.6280 C   0  0  0  0  0  0  0  0  0  0  0  0
  -23.6320  -30.5340   21.7300 C   0  0  0  0  0  3  0  0  0  0  0  0
  -25.2030  -28.9800   20.4290 C   0  0  0  0  0  0  0  0  0  0  0  0
  -26.1720  -30.9060   21.6850 C   0  0  0  0  0  2  0  0  0  0  0  0
  -26.3250  -29.5090   21.0820 C   0  0  0  0  0  0  0  0  0  0  0  0
  -27.5260  -28.7320   21.1660 C   0  0  0  0  0  3  0  0  0  0  0  0
  -26.4600  -26.9340   19.9450 C   0  0  0  0  0  3  0  0  0  0  0  0
  -25.2770  -27.7000   19.8490 C   0  0  0  0  0  3  0  0  0  0  0  0
  -23.9450  -29.8280   20.3820 C   0  0  0  0  0  2  0  0  0  0  0  0
  -24.8510  -31.1720   22.3270 N   0  0  0  0  0  0  0  0  0  0  0  0
  -23.5770  -32.2650   23.8600 O   0  0  0  0  0  0  0  0  0  0  0  0
  -22.9430  -29.5250   22.6780 C   0  0  0  0  0  0  0  0  0  0  0  0
  -21.6260  -29.3240   22.4980 N   0  0  0  0  0  0  0  0  0  0  0  0
  -23.5930  -28.9230   23.5360 O   0  0  0  0  0  0  0  0  0  0  0  0
  -21.1610  -29.8590   21.7760 H   0  0  0  0  0  0  0  0  0  0  0  0
  -18.2350  -28.1420   22.9400 C   0  0  0  0  0  0  0  0  0  0  0  0
  -20.7910  -28.3830   23.2460 C   0  0  0  0  0  3  0  0  0  0  0  0
  -20.8930  -26.9580   22.6540 C   0  0  0  0  0  2  0  0  0  0  0  0
  -19.8020  -26.6520   21.6220 C   0  0  0  0  0  2  0  0  0  0  0  0
  -18.4120  -26.8000   22.2490 C   0  0  0  0  0  2  0  0  0  0  0  0
  -19.3520  -28.8920   23.3940 C   0  0  0  0  0  0  0  0  0  0  0  0
  -19.1310  -30.1480   24.0000 C   0  0  0  0  0  3  0  0  0  0  0  0
  -17.8270  -30.6540   24.1550 C   0  0  0  0  0  3  0  0  0  0  0  0
  -16.7250  -29.9000   23.7170 C   0  0  0  0  0  3  0  0  0  0  0  0
  -16.9290  -28.6450   23.1160 C   0  0  0  0  0  3  0  0  0  0  0  0
  -25.9190  -32.6960   24.0770 C   0  0  0  0  0  3  0  0  0  0  0  0
  -26.3560  -31.9960   25.4240 C   0  0  1  0  0  0  0  0  0  0  0  0
  -25.1880  -31.7550   26.4090 C   0  0  0  0  0  1  0  0  0  0  0  0
  -27.0200  -30.6290   25.1390 C   0  0  0  0  0  1  0  0  0  0  0  0
  -27.4190  -32.8610   26.1420 C   0  0  0  0  0  1  0  0  0  0  0  0
  -25.5600  -34.1000   24.3220 N   0  0  0  0  0  0  0  0  0  0  0  0
  -25.9090  -35.1270   23.5360 C   0  0  0  0  0  0  0  0  0  0  0  0
  -26.6340  -34.9930   22.5460 O   0  0  0  0  0  0  0  0  0  0  0  0
  -24.9170  -34.2770   25.0810 H   0  0  0  0  0  0  0  0  0  0  0  0
  -24.1570  -36.8570   23.0150 C   0  0  0  0  0  1  0  0  0  0  0  0
  -25.3670  -36.5240   23.9010 C   0  0  0  0  0  3  0  0  0  0  0  0
  -27.4280  -37.5140   24.7970 C   0  0  0  0  0  1  0  0  0  0  0  0
  -26.3790  -37.5960   23.7840 N   0  0  0  0  0  0  0  0  0  0  0  0
  -25.9440  -38.5120   23.8480 H   0  0  0  0  0  0  0  0  0  0  0  0
  1 16  1  0
  1  4  1  0
  2  1  2  0
  3  5  1  0
  3  4  2  0
  5  7  1  0
  6  2  1  0
  6  3  1  0
  8 17  1  0
  9 14  1  0
 10 11  1  0
 10  9  1  0
 12 11  1  0
 12 23  1  0
 12 13  1  0
 14  8  1  0
 14 13  1  0
 15  8  2  0
 16 18  2  0
 17 16  1  0
 19 17  1  0
 20 21  2  0
 21 40  1  0
 22 21  1  0
 22 25  1  0
 23 24  1  0
 23 20  1  0
 24 22  2  0
 25 26  1  0
 26 27  2  0
 28 31  1  0
 28 27  1  0
 29 28  2  0
 30 29  1  0
 30 25  2  0
 31 32  1  0
 32 33  1  0
 33 34  2  0
 35 34  1  0
 35 39  1  0
 36 35  2  0
 37 32  2  0
 37 36  1  0
 38 37  1  0
 40 41  1  0
 41 44  1  0
 41 43  1  0
 42 40  2  0
 45 46  1  0
 45 20  1  0
 47 45  1  0
 48 49  1  0
 49  2  1  0
 50 49  1  0
 51  5  1  0
 51 52  1  0
 52 53  1  0
 54 52  1  0
 55 66  2  0
 56 54  1  0
 56 61  1  0
 57 65  1  0
 57 67  1  0
 58 60  1  0
 59 65  1  0
 60 61  2  0
 60 59  1  0
 62 56  2  0
 63 62  1  0
 63 58  2  0
 64 58  1  0
 64 57  1  0
 65 55  1  0
 67 69  2  0
 68 67  1  0
 70 68  1  0
 71 80  2  0
 71 76  1  0
 72 68  1  0
 72 76  1  0
 73 72  1  0
 74 75  1  0
 74 73  1  0
 75 71  1  0
 76 77  2  0
 77 78  1  0
 79 78  2  0
 80 79  1  0
 81 55  1  0
 81 86  1  0
 81 82  1  0
 82 85  1  1
 82 83  1  0
 84 82  1  0
 86 89  1  0
 87 91  1  0
 87 86  1  0
 88 87  2  0
 91 90  1  0
 93 94  1  0
 93 91  1  0
 93 92  1  0
M  ISO  4   8 100  17 100  52 101  54 101
M  END
>  <TORSDO>  (17) 
F 19

>  <SCORE>  (17) 
-13.391

>  <name>  (17) 
16

>  <ligand_id>  (17) 
16

>  <original_smiles>  (17) 
[H]c1c([H])c([H])c2c(c1[H])C([H])([H])C([H])([H])C([H])([H])C2([H])N([H])C(=O)C1([H])N(C(=O)C([H])(N([H])C(=O)C([H])(N([H])C([H])([H])[H])C([H])([H])[H])C(C([H])([H])[H])(C([H])([H])[H])C([H])([H])[H])C([H])([H])c2c([H])c(OC([H])(F)C([H])([H])N([H])c3nc(C(=O)N([H])C(=O)N4C([H])([H])C([H])([H])C([H])([H])C([H])(n5nc(-c6c([H])c([H])c(Oc7c([H])c([H])c(F)c([H])c7F)c([H])c6[H])c(C(=O)N([H])[H])c5N([H])[H])C4([H])[H])c(N([H])C([H])([H])[H])s3)c([H])c([H])c2C1([H])[H]

>  <smiles>  (17) 
[H]c1c([H])c([H])c2c(c1[H])C([H])([H])C([H])([H])C([H])([H])C2([H])N([H])C(=O)C1([H])N(C(=O)C([H])(N([H])C(=O)C([H])(N([H])C([H])([H])[H])C([H])([H])[H])C(C([H])([H])[H])(C([H])([H])[H])C([H])([H])[H])C([H])([H])c2c([H])c(OC([H])(F)C([H])([H])N([H])c3nc(C(=O)N([H])C(=O)N4C([H])([H])C([H])([H])C([H])([H])C([H])(n5nc(-c6c([H])c([H])c(Oc7c([H])c([H])c(F)c([H])c7F)c([H])c6[H])c(C(=O)N([H])[H])c5N([H])[H])C4([H])[H])c(N([H])C([H])([H])[H])s3)c([H])c([H])c2C1([H])[H]

$$$$
17:0:0
     RDKit          3D

 94102  0  0  1  0  0  0  0  0999 V2000
  -29.0380  -21.1770   19.6290 C   0  0  0  0  0  0  0  0  0  0  0  0
  -28.7440  -23.6270   20.8850 C   0  0  0  0  0  0  0  0  0  0  0  0
  -28.8970  -22.0970   20.6830 N   0  0  0  0  0  0  0  0  0  0  0  0
  -29.0150  -21.6880   18.3860 N   0  0  0  0  0  4  0  0  0  0  0  0
  -28.8560  -23.9920   22.0610 O   0  0  0  0  0  0  0  0  0  0  0  0
  -28.9810  -21.5560   21.5280 H   0  0  0  0  0  0  0  0  0  0  0  0
  -29.1470  -21.0550   17.6140 H   0  0  0  0  0  0  0  0  0  0  0  0
  -28.8940  -22.6610   18.1670 H   0  0  0  0  0  0  0  0  0  0  0  0
  -29.1000  -18.8250   18.4570 C   0  0  0  0  0  3  0  0  0  0  0  0
  -29.3720  -17.4470   18.7450 C   0  0  0  0  0  3  0  0  0  0  0  0
  -29.2080  -19.6230   19.5810 C   0  0  0  0  0  0  0  0  0  0  0  0
  -29.6680  -17.3460   20.0730 C   0  0  0  0  0  0  0  0  0  0  0  0
  -29.5440  -18.6860   20.6290 O   0  0  0  0  0  0  0  0  0  0  0  0
  -30.5280  -14.9190   20.3620 C   0  0  0  0  0  0  0  0  0  0  0  0
  -30.3830  -12.5800   19.4410 C   0  0  0  0  0  2  0  0  0  0  0  0
  -29.4690  -12.6080   18.1950 C   0  0  0  0  0  2  0  0  0  0  0  0
  -27.9970  -12.4130   18.6070 C   0  0  0  0  0  2  0  0  0  0  0  0
  -27.5950  -13.3120   19.8070 C   0  0  0  0  0  3  0  0  0  0  0  0
  -28.6400  -13.2880   20.9440 C   0  0  0  0  0  2  0  0  0  0  0  0
  -29.9330  -13.6630   20.3620 N   0  0  0  0  0  0  0  0  0  0  0  0
  -31.6960  -15.0020   19.9640 O   0  0  0  0  0  0  0  0  0  0  0  0
  -29.7950  -16.0760   20.7140 N   0  0  0  0  0  0  0  0  0  0  0  0
  -29.0190  -15.8700   21.3230 H   0  0  0  0  0  0  0  0  0  0  0  0
  -25.2050  -13.8890   20.5240 C   0  0  0  0  0  0  0  0  0  0  0  0
  -24.1390  -13.1150   20.8890 C   0  0  0  0  0  0  0  0  0  0  0  0
  -24.6040  -11.7640   20.8600 C   0  0  0  0  0  0  0  0  0  0  0  0
  -26.2520  -13.0130   20.2910 N   0  0  0  0  0  0  0  0  0  0  0  0
  -25.8970  -11.7290   20.5570 N   0  0  0  0  0  0  0  0  0  0  0  0
  -23.8770  -10.5020   21.0510 C   0  0  0  0  0  0  0  0  0  0  0  0
  -24.3000   -9.5400   21.9930 C   0  0  0  0  0  3  0  0  0  0  0  0
  -23.5720   -8.3430   22.1730 C   0  0  0  0  0  3  0  0  0  0  0  0
  -22.4060   -8.0990   21.4070 C   0  0  0  0  0  0  0  0  0  0  0  0
  -22.0010   -9.0510   20.4550 C   0  0  0  0  0  3  0  0  0  0  0  0
  -22.7300  -10.2390   20.2750 C   0  0  0  0  0  3  0  0  0  0  0  0
  -21.6520   -6.9540   21.4920 O   0  0  0  0  0  0  0  0  0  0  0  0
  -21.5860   -6.2190   22.6490 C   0  0  0  0  0  0  0  0  0  0  0  0
  -21.1320   -6.7790   23.8630 C   0  0  0  0  0  3  0  0  0  0  0  0
  -21.0160   -5.9700   25.0110 C   0  0  0  0  0  3  0  0  0  0  0  0
  -21.3420   -4.6010   24.9450 C   0  0  0  0  0  0  0  0  0  0  0  0
  -21.7880   -4.0410   23.7360 C   0  0  0  0  0  3  0  0  0  0  0  0
  -21.9070   -4.8480   22.5900 C   0  0  0  0  0  0  0  0  0  0  0  0
  -22.3170   -4.2980   21.4210 F   0  0  0  0  0  0  0  0  0  0  0  0
  -21.2240   -3.8220   26.0450 F   0  0  0  0  0  0  0  0  0  0  0  0
  -22.7410  -13.5920   21.1530 C   0  0  0  0  0  0  0  0  0  0  0  0
  -22.0040  -12.8940   22.0110 N   0  0  0  0  0  0  0  0  0  0  0  0
  -22.3100  -14.6210   20.6350 O   0  0  0  0  0  0  0  0  0  0  0  0
  -22.3640  -12.0610   22.4540 H   0  0  0  0  0  0  0  0  0  0  0  0
  -21.0670  -13.1970   22.2280 H   0  0  0  0  0  0  0  0  0  0  0  0
  -25.3650  -15.2610   20.3460 N   0  0  0  0  0  0  0  0  0  0  0  0
  -24.5870  -15.9050   20.4400 H   0  0  0  0  0  0  0  0  0  0  0  0
  -26.2120  -15.7080   20.0170 H   0  0  0  0  0  0  0  0  0  0  0  0
  -29.5260  -24.9710   18.7740 C   0  0  0  0  0  1  0  0  0  0  0  0
  -28.4000  -24.8250   19.8150 C   0  0  0  0  0  3  0  0  0  0  0  0
  -28.3130  -26.2820   20.3450 O   0  0  0  0  0  0  0  0  0  0  0  0
  -24.6230  -31.8860   23.2590 C   0  0  0  0  0  0  0  0  0  0  0  0
  -27.2210  -27.2060   20.2230 C   0  0  0  0  0  0  0  0  0  0  0  0
  -23.4230  -30.4840   21.6230 C   0  0  0  0  0  3  0  0  0  0  0  0
  -24.8740  -28.9140   20.1950 C   0  0  0  0  0  0  0  0  0  0  0  0
  -25.9720  -30.7670   21.4490 C   0  0  0  0  0  2  0  0  0  0  0  0
  -26.0490  -29.3760   20.8010 C   0  0  0  0  0  0  0  0  0  0  0  0
  -27.2180  -28.5340   20.8040 C   0  0  0  0  0  3  0  0  0  0  0  0
  -26.0230  -26.8360   19.5740 C   0  0  0  0  0  3  0  0  0  0  0  0
  -24.8730  -27.6560   19.5690 C   0  0  0  0  0  3  0  0  0  0  0  0
  -23.6410  -29.8020   20.2450 C   0  0  0  0  0  2  0  0  0  0  0  0
  -24.6930  -31.0660   22.1650 N   0  0  0  0  0  0  0  0  0  0  0  0
  -23.5370  -32.1670   23.7880 O   0  0  0  0  0  0  0  0  0  0  0  0
  -22.7510  -29.4760   22.5880 C   0  0  0  0  0  0  0  0  0  0  0  0
  -21.4260  -29.2980   22.4610 N   0  0  0  0  0  0  0  0  0  0  0  0
  -23.4260  -28.8550   23.4140 O   0  0  0  0  0  0  0  0  0  0  0  0
  -20.9380  -29.8490   21.7690 H   0  0  0  0  0  0  0  0  0  0  0  0
  -18.0490  -28.0870   22.9630 C   0  0  0  0  0  0  0  0  0  0  0  0
  -20.6070  -28.3600   23.2340 C   0  0  0  0  0  3  0  0  0  0  0  0
  -20.7170  -26.9280   22.6650 C   0  0  0  0  0  2  0  0  0  0  0  0
  -19.6170  -26.5960   21.6500 C   0  0  0  0  0  2  0  0  0  0  0  0
  -18.2340  -26.7370   22.2910 C   0  0  0  0  0  2  0  0  0  0  0  0
  -19.1650  -28.8560   23.3920 C   0  0  0  0  0  0  0  0  0  0  0  0
  -18.9390  -30.1180   23.9820 C   0  0  0  0  0  3  0  0  0  0  0  0
  -17.6310  -30.6120   24.1470 C   0  0  0  0  0  3  0  0  0  0  0  0
  -16.5310  -29.8410   23.7330 C   0  0  0  0  0  3  0  0  0  0  0  0
  -16.7410  -28.5800   23.1480 C   0  0  0  0  0  3  0  0  0  0  0  0
  -25.9010  -32.5260   23.8830 C   0  0  0  0  0  3  0  0  0  0  0  0
  -25.5900  -33.9280   24.2040 N   0  0  0  0  0  0  0  0  0  0  0  0
  -25.9220  -34.9780   23.4410 C   0  0  0  0  0  0  0  0  0  0  0  0
  -26.5890  -34.8670   22.4090 O   0  0  0  0  0  0  0  0  0  0  0  0
  -24.9930  -34.0870   25.0030 H   0  0  0  0  0  0  0  0  0  0  0  0
  -24.1970  -36.7740   23.0800 C   0  0  0  0  0  1  0  0  0  0  0  0
  -25.4380  -36.3700   23.8920 C   0  0  0  0  0  3  0  0  0  0  0  0
  -27.5740  -37.2560   24.7180 C   0  0  0  0  0  1  0  0  0  0  0  0
  -26.4730  -37.4200   23.7730 N   0  0  0  0  0  0  0  0  0  0  0  0
  -26.0690  -38.3430   23.9130 H   0  0  0  0  0  0  0  0  0  0  0  0
  -26.4080  -31.7670   25.1730 C   0  0  1  0  0  0  0  0  0  0  0  0
  -25.3070  -31.5430   26.2360 C   0  0  0  0  0  1  0  0  0  0  0  0
  -26.9880  -30.3830   24.8030 C   0  0  0  0  0  1  0  0  0  0  0  0
  -27.5570  -32.5640   25.8310 C   0  0  0  0  0  1  0  0  0  0  0  0
  1  3  1  0
  2  5  2  0
  3  2  1  0
  3  6  1  0
  4  1  2  0
  7  4  1  0
  8  4  1  0
  9 10  1  0
  9 11  2  0
 10 12  2  0
 11  1  1  0
 11 13  1  0
 12 13  1  0
 12 22  1  0
 14 22  1  0
 15 20  1  0
 16 17  1  0
 16 15  1  0
 18 17  1  0
 18 27  1  0
 18 19  1  0
 20 14  1  0
 20 19  1  0
 21 14  2  0
 22 23  1  0
 24 25  2  0
 25 44  1  0
 26 25  1  0
 26 29  1  0
 27 24  1  0
 27 28  1  0
 28 26  2  0
 29 30  1  0
 30 31  2  0
 32 35  1  0
 32 31  1  0
 33 32  2  0
 34 33  1  0
 34 29  2  0
 35 36  1  0
 36 37  1  0
 37 38  2  0
 39 38  1  0
 39 43  1  0
 40 39  2  0
 41 36  2  0
 41 40  1  0
 42 41  1  0
 44 45  1  0
 45 48  1  0
 45 47  1  0
 46 44  2  0
 49 50  1  0
 49 24  1  0
 51 49  1  0
 53 52  1  0
 53 54  1  0
 53  2  1  0
 55 66  2  0
 56 54  1  0
 56 61  1  0
 57 65  1  0
 57 67  1  0
 58 64  1  0
 58 60  1  0
 59 65  1  0
 60 61  2  0
 60 59  1  0
 62 56  2  0
 63 62  1  0
 63 58  2  0
 64 57  1  0
 65 55  1  0
 67 69  2  0
 68 67  1  0
 70 68  1  0
 71 80  2  0
 71 76  1  0
 72 68  1  0
 72 76  1  0
 73 72  1  0
 74 75  1  0
 74 73  1  0
 75 71  1  0
 76 77  2  0
 77 78  1  0
 79 78  2  0
 80 79  1  0
 81 55  1  0
 81 82  1  0
 81 91  1  0
 82 85  1  0
 83 87  1  0
 83 82  1  0
 84 83  2  0
 87 86  1  0
 89 87  1  0
 89 90  1  0
 89 88  1  0
 91 94  1  1
 91 92  1  0
 93 91  1  0
M  ISO  4  14 100  22 100  53 101  54 101
M  END
>  <TORSDO>  (18) 
F 18

>  <SCORE>  (18) 
-14.669

>  <name>  (18) 
17

>  <ligand_id>  (18) 
17

>  <original_smiles>  (18) 
[H]c1c(C(N([H])C(=O)C([H])(Oc2c([H])c([H])c3c(c2[H])C([H])([H])N(C(=O)C([H])(N([H])C(=O)C([H])(N([H])C([H])([H])[H])C([H])([H])[H])C(C([H])([H])[H])(C([H])([H])[H])C([H])([H])[H])C([H])(C(=O)N([H])C2([H])c4c([H])c([H])c([H])c([H])c4C([H])([H])C([H])([H])C2([H])[H])C3([H])[H])C([H])([H])[H])=[N+]([H])[H])oc(N([H])C(=O)N2C([H])([H])C([H])([H])C([H])([H])C([H])(n3nc(-c4c([H])c([H])c(Oc5c([H])c([H])c(F)c([H])c5F)c([H])c4[H])c(C(=O)N([H])[H])c3N([H])[H])C2([H])[H])c1[H]

>  <smiles>  (18) 
[H]c1c(C(N([H])C(=O)C([H])(Oc2c([H])c([H])c3c(c2[H])C([H])([H])N(C(=O)C([H])(N([H])C(=O)C([H])(N([H])C([H])([H])[H])C([H])([H])[H])C(C([H])([H])[H])(C([H])([H])[H])C([H])([H])[H])C([H])(C(=O)N([H])C2([H])c4c([H])c([H])c([H])c([H])c4C([H])([H])C([H])([H])C2([H])[H])C3([H])[H])C([H])([H])[H])=[N+]([H])[H])oc(N([H])C(=O)N2C([H])([H])C([H])([H])C([H])([H])C([H])(n3nc(-c4c([H])c([H])c(Oc5c([H])c([H])c(F)c([H])c5F)c([H])c4[H])c(C(=O)N([H])[H])c3N([H])[H])C2([H])[H])c1[H]

$$$$
18:0:0
     RDKit          3D

 95103  0  0  1  0  0  0  0  0999 V2000
  -29.2910  -22.4510   20.6370 C   0  0  0  0  0  0  0  0  0  0  0  0
  -29.0790  -21.1670   20.1410 N   0  0  0  0  0  0  0  0  0  0  0  0
  -30.0480  -22.6510   21.5930 O   0  0  0  0  0  0  0  0  0  0  0  0
  -28.3240  -21.0900   19.4740 H   0  0  0  0  0  0  0  0  0  0  0  0
  -30.6390  -14.8040   20.3580 C   0  0  0  0  0  0  0  0  0  0  0  0
  -30.4040  -12.5130   19.3870 C   0  0  0  0  0  2  0  0  0  0  0  0
  -29.4890  -12.5650   18.1460 C   0  0  0  0  0  2  0  0  0  0  0  0
  -28.0170  -12.3880   18.5640 C   0  0  0  0  0  2  0  0  0  0  0  0
  -27.6220  -13.2910   19.7630 C   0  0  0  0  0  3  0  0  0  0  0  0
  -28.6730  -13.2610   20.8960 C   0  0  0  0  0  2  0  0  0  0  0  0
  -29.9700  -13.5980   20.2980 N   0  0  0  0  0  0  0  0  0  0  0  0
  -31.8450  -14.8070   20.0910 O   0  0  0  0  0  0  0  0  0  0  0  0
  -31.3000  -20.0860   20.4190 C   0  0  0  0  0  3  0  0  0  0  0  0
  -32.1290  -18.9610   20.5260 C   0  0  0  0  0  3  0  0  0  0  0  0
  -29.9040  -19.9380   20.3280 C   0  0  0  0  0  0  0  0  0  0  0  0
  -29.4400  -18.5490   20.3330 C   0  0  0  0  0  0  0  0  0  0  0  0
  -30.3610  -17.4110   20.4510 C   0  0  0  0  0  0  0  0  0  0  0  0
  -31.6790  -17.6900   20.5520 N   0  0  0  0  0  0  0  0  0  0  0  0
  -29.9120  -15.9890   20.4740 N   0  0  0  0  0  0  0  0  0  0  0  0
  -28.9160  -15.8720   20.5370 H   0  0  0  0  0  0  0  0  0  0  0  0
  -25.2270  -13.8620   20.4730 C   0  0  0  0  0  0  0  0  0  0  0  0
  -24.1640  -13.0850   20.8390 C   0  0  0  0  0  0  0  0  0  0  0  0
  -24.6380  -11.7370   20.8280 C   0  0  0  0  0  0  0  0  0  0  0  0
  -26.2790  -12.9900   20.2500 N   0  0  0  0  0  0  0  0  0  0  0  0
  -25.9330  -11.7070   20.5310 N   0  0  0  0  0  0  0  0  0  0  0  0
  -23.9170  -10.4710   21.0200 C   0  0  0  0  0  0  0  0  0  0  0  0
  -24.3450   -9.5120   21.9640 C   0  0  0  0  0  3  0  0  0  0  0  0
  -23.6220   -8.3120   22.1440 C   0  0  0  0  0  3  0  0  0  0  0  0
  -22.4580   -8.0630   21.3780 C   0  0  0  0  0  0  0  0  0  0  0  0
  -22.0510   -9.0090   20.4210 C   0  0  0  0  0  3  0  0  0  0  0  0
  -22.7750  -10.2000   20.2400 C   0  0  0  0  0  3  0  0  0  0  0  0
  -21.7080   -6.9150   21.4660 O   0  0  0  0  0  0  0  0  0  0  0  0
  -21.6500   -6.1790   22.6230 C   0  0  0  0  0  0  0  0  0  0  0  0
  -21.2030   -6.7400   23.8380 C   0  0  0  0  0  3  0  0  0  0  0  0
  -21.0910   -5.9320   24.9870 C   0  0  0  0  0  3  0  0  0  0  0  0
  -21.4200   -4.5640   24.9210 C   0  0  0  0  0  0  0  0  0  0  0  0
  -21.8630   -4.0040   23.7100 C   0  0  0  0  0  3  0  0  0  0  0  0
  -21.9750   -4.8100   22.5640 C   0  0  0  0  0  0  0  0  0  0  0  0
  -22.3820   -4.2590   21.3930 F   0  0  0  0  0  0  0  0  0  0  0  0
  -21.3060   -3.7860   26.0220 F   0  0  0  0  0  0  0  0  0  0  0  0
  -22.7590  -13.5550   21.0860 C   0  0  0  0  0  0  0  0  0  0  0  0
  -22.0210  -12.8630   21.9440 N   0  0  0  0  0  0  0  0  0  0  0  0
  -22.3260  -14.5760   20.5520 O   0  0  0  0  0  0  0  0  0  0  0  0
  -22.3870  -12.0390   22.3990 H   0  0  0  0  0  0  0  0  0  0  0  0
  -21.0800  -13.1650   22.1540 H   0  0  0  0  0  0  0  0  0  0  0  0
  -25.3780  -15.2320   20.2790 N   0  0  0  0  0  0  0  0  0  0  0  0
  -24.5860  -15.8630   20.3420 H   0  0  0  0  0  0  0  0  0  0  0  0
  -26.1830  -15.6540   19.8370 H   0  0  0  0  0  0  0  0  0  0  0  0
  -28.0690  -18.3100   20.2310 N   0  0  0  0  0  0  0  0  0  0  0  0
  -27.7080  -17.5150   20.7420 H   0  0  0  0  0  0  0  0  0  0  0  0
  -27.4770  -19.1230   20.3720 H   0  0  0  0  0  0  0  0  0  0  0  0
  -28.5320  -23.7360   19.9550 C   0  0  0  0  0  0  0  0  0  0  0  0
  -28.2130  -23.6950   18.7610 O   0  0  0  0  0  0  0  0  0  0  0  0
  -28.1880  -25.0540   20.8110 C   0  0  0  0  0  2  0  0  0  0  0  0
  -28.3300  -26.4220   20.1920 O   0  0  0  0  0  0  0  0  0  0  0  0
  -24.6010  -31.8840   23.2460 C   0  0  0  0  0  0  0  0  0  0  0  0
  -27.2230  -27.2950   20.2090 C   0  0  0  0  0  0  0  0  0  0  0  0
  -23.4020  -30.4820   21.6060 C   0  0  0  0  0  3  0  0  0  0  0  0
  -24.8570  -28.9190   20.1920 C   0  0  0  0  0  0  0  0  0  0  0  0
  -25.9410  -30.7970   21.4240 C   0  0  0  0  0  2  0  0  0  0  0  0
  -26.0280  -29.4110   20.7850 C   0  0  0  0  0  0  0  0  0  0  0  0
  -27.2150  -28.6110   20.7840 C   0  0  0  0  0  3  0  0  0  0  0  0
  -26.0290  -26.8610   19.6000 C   0  0  0  0  0  3  0  0  0  0  0  0
  -24.8600  -27.6490   19.5930 C   0  0  0  0  0  3  0  0  0  0  0  0
  -23.6210  -29.7960   20.2300 C   0  0  0  0  0  2  0  0  0  0  0  0
  -24.6680  -31.0740   22.1490 N   0  0  0  0  0  0  0  0  0  0  0  0
  -23.5170  -32.1590   23.7820 O   0  0  0  0  0  0  0  0  0  0  0  0
  -22.7390  -29.4680   22.5690 C   0  0  0  0  0  0  0  0  0  0  0  0
  -21.4130  -29.2890   22.4420 N   0  0  0  0  0  0  0  0  0  0  0  0
  -23.4160  -28.8460   23.3920 O   0  0  0  0  0  0  0  0  0  0  0  0
  -20.9270  -29.8440   21.7500 H   0  0  0  0  0  0  0  0  0  0  0  0
  -18.0390  -28.0870   22.9500 C   0  0  0  0  0  0  0  0  0  0  0  0
  -20.5970  -28.3510   23.2150 C   0  0  0  0  0  3  0  0  0  0  0  0
  -20.7000  -26.9200   22.6390 C   0  0  0  0  0  2  0  0  0  0  0  0
  -19.5970  -26.5940   21.6280 C   0  0  0  0  0  2  0  0  0  0  0  0
  -18.2170  -26.7380   22.2730 C   0  0  0  0  0  2  0  0  0  0  0  0
  -19.1580  -28.8510   23.3780 C   0  0  0  0  0  0  0  0  0  0  0  0
  -18.9370  -30.1130   23.9710 C   0  0  0  0  0  3  0  0  0  0  0  0
  -17.6320  -30.6120   24.1400 C   0  0  0  0  0  3  0  0  0  0  0  0
  -16.5280  -29.8460   23.7290 C   0  0  0  0  0  3  0  0  0  0  0  0
  -16.7340  -28.5850   23.1380 C   0  0  0  0  0  3  0  0  0  0  0  0
  -25.8810  -32.5250   23.8680 C   0  0  0  0  0  3  0  0  0  0  0  0
  -26.3900  -31.7660   25.1550 C   0  0  1  0  0  0  0  0  0  0  0  0
  -25.2930  -31.5350   26.2190 C   0  0  0  0  0  1  0  0  0  0  0  0
  -26.9730  -30.3850   24.7750 C   0  0  0  0  0  1  0  0  0  0  0  0
  -27.5370  -32.5650   25.8130 C   0  0  0  0  0  1  0  0  0  0  0  0
  -25.5660  -33.9260   24.1880 N   0  0  0  0  0  0  0  0  0  0  0  0
  -25.9040  -34.9770   23.4270 C   0  0  0  0  0  0  0  0  0  0  0  0
  -26.5790  -34.8670   22.4000 O   0  0  0  0  0  0  0  0  0  0  0  0
  -24.9670  -34.0820   24.9840 H   0  0  0  0  0  0  0  0  0  0  0  0
  -24.1830  -36.7720   23.0480 C   0  0  0  0  0  1  0  0  0  0  0  0
  -25.4150  -36.3680   23.8740 C   0  0  0  0  0  3  0  0  0  0  0  0
  -27.5410  -37.2510   24.7280 C   0  0  0  0  0  1  0  0  0  0  0  0
  -26.4520  -37.4170   23.7690 N   0  0  0  0  0  0  0  0  0  0  0  0
  -26.0460  -38.3400   23.9070 H   0  0  0  0  0  0  0  0  0  0  0  0
  1  3  2  0
  2 15  1  0
  2  1  1  0
  4  2  1  0
  5 19  1  0
  6 11  1  0
  7  8  1  0
  7  6  1  0
  9  8  1  0
  9 24  1  0
  9 10  1  0
 11  5  1  0
 11 10  1  0
 12  5  2  0
 13 14  1  0
 14 18  2  0
 15 16  1  0
 15 13  2  0
 16 17  2  0
 17 19  1  0
 17 18  1  0
 19 20  1  0
 21 22  2  0
 22 41  1  0
 23 22  1  0
 23 26  1  0
 24 21  1  0
 24 25  1  0
 25 23  2  0
 26 27  1  0
 27 28  2  0
 29 32  1  0
 29 28  1  0
 30 29  2  0
 31 30  1  0
 31 26  2  0
 32 33  1  0
 33 34  1  0
 34 35  2  0
 36 35  1  0
 36 40  1  0
 37 36  2  0
 38 33  2  0
 38 37  1  0
 39 38  1  0
 41 42  1  0
 42 45  1  0
 42 44  1  0
 43 41  2  0
 46 47  1  0
 46 21  1  0
 48 46  1  0
 49 16  1  0
 49 51  1  0
 49 50  1  0
 52  1  1  0
 52 54  1  0
 53 52  2  0
 55 57  1  0
 55 54  1  0
 56 67  2  0
 57 62  1  0
 58 66  1  0
 58 68  1  0
 59 65  1  0
 59 61  1  0
 60 66  1  0
 61 60  1  0
 62 61  2  0
 63 57  2  0
 64 63  1  0
 64 59  2  0
 65 58  1  0
 66 56  1  0
 68 70  2  0
 69 68  1  0
 71 69  1  0
 72 81  2  0
 72 77  1  0
 73 69  1  0
 73 77  1  0
 74 73  1  0
 75 76  1  0
 75 74  1  0
 76 72  1  0
 77 78  2  0
 78 79  1  0
 80 79  2  0
 81 80  1  0
 82 56  1  0
 82 87  1  0
 82 83  1  0
 83 86  1  1
 83 84  1  0
 85 83  1  0
 87 90  1  0
 88 92  1  0
 88 87  1  0
 89 88  2  0
 92 91  1  0
 94 92  1  0
 94 95  1  0
 94 93  1  0
M  ISO  4   5 100  19 100  54 101  55 101
M  END
>  <TORSDO>  (19) 
F 19

>  <SCORE>  (19) 
-14.691

>  <name>  (19) 
18

>  <ligand_id>  (19) 
18

>  <original_smiles>  (19) 
[H]c1nc(N([H])C(=O)N2C([H])([H])C([H])([H])C([H])([H])C([H])(n3nc(-c4c([H])c([H])c(Oc5c([H])c([H])c(F)c([H])c5F)c([H])c4[H])c(C(=O)N([H])[H])c3N([H])[H])C2([H])[H])c(N([H])[H])c(N([H])C(=O)C(=O)C([H])([H])Oc2c([H])c([H])c3c(c2[H])C([H])([H])N(C(=O)C([H])(N([H])C(=O)C([H])(N([H])C([H])([H])[H])C([H])([H])[H])C(C([H])([H])[H])(C([H])([H])[H])C([H])([H])[H])C([H])(C(=O)N([H])C2([H])c4c([H])c([H])c([H])c([H])c4C([H])([H])C([H])([H])C2([H])[H])C3([H])[H])c1[H]

>  <smiles>  (19) 
[H]c1nc(N([H])C(=O)N2C([H])([H])C([H])([H])C([H])([H])C([H])(n3nc(-c4c([H])c([H])c(Oc5c([H])c([H])c(F)c([H])c5F)c([H])c4[H])c(C(=O)N([H])[H])c3N([H])[H])C2([H])[H])c(N([H])[H])c(N([H])C(=O)C(=O)C([H])([H])Oc2c([H])c([H])c3c(c2[H])C([H])([H])N(C(=O)C([H])(N([H])C(=O)C([H])(N([H])C([H])([H])[H])C([H])([H])[H])C(C([H])([H])[H])(C([H])([H])[H])C([H])([H])[H])C([H])(C(=O)N([H])C2([H])c4c([H])c([H])c([H])c([H])c4C([H])([H])C([H])([H])C2([H])[H])C3([H])[H])c1[H]

$$$$
19:0:0
     RDKit          3D

 98106  0  0  1  0  0  0  0  0999 V2000
  -28.6420  -22.8760   20.5990 C   0  0  0  0  0  0  0  0  0  0  0  0
  -29.4440  -21.8940   20.1020 N   0  0  0  0  0  0  0  0  0  0  0  0
  -27.7390  -22.6200   21.4010 O   0  0  0  0  0  0  0  0  0  0  0  0
  -30.1770  -22.1720   19.4750 H   0  0  0  0  0  0  0  0  0  0  0  0
  -30.2430  -19.6200   19.7760 C   0  0  0  0  0  3  0  0  0  0  0  0
  -29.7380  -18.3410   20.2040 C   0  0  0  0  0  0  0  0  0  0  0  0
  -29.3770  -20.5380   20.3170 C   0  0  0  0  0  0  0  0  0  0  0  0
  -28.6670  -18.5070   20.9760 N   0  0  0  0  0  0  0  0  0  0  0  0
  -28.4300  -19.8950   21.0580 O   0  0  0  0  0  0  0  0  0  0  0  0
  -30.7620  -14.6190   20.2260 C   0  0  0  0  0  0  0  0  0  0  0  0
  -30.4340  -12.4060   19.2060 C   0  0  0  0  0  2  0  0  0  0  0  0
  -29.4910  -12.5590   17.9950 C   0  0  0  0  0  2  0  0  0  0  0  0
  -28.0240  -12.4120   18.4400 C   0  0  0  0  0  2  0  0  0  0  0  0
  -27.6770  -13.2820   19.6780 C   0  0  0  0  0  3  0  0  0  0  0  0
  -28.7520  -13.1660   20.7860 C   0  0  0  0  0  2  0  0  0  0  0  0
  -30.0610  -13.4480   20.1820 N   0  0  0  0  0  0  0  0  0  0  0  0
  -31.9500  -14.6780   19.9080 O   0  0  0  0  0  0  0  0  0  0  0  0
  -30.3480  -17.0640   19.7280 C   0  0  0  0  0  3  0  0  0  0  0  0
  -31.7070  -16.3130   17.6280 C   0  0  0  0  0  1  0  0  0  0  0  0
  -30.0320  -15.8680   20.3350 N   0  0  0  0  0  0  0  0  0  0  0  0
  -31.1160  -17.2310   18.6170 N   0  0  0  0  0  0  0  0  0  0  0  0
  -29.1500  -15.9220   20.8150 H   0  0  0  0  0  0  0  0  0  0  0  0
  -31.2260  -18.2060   18.3680 H   0  0  0  0  0  0  0  0  0  0  0  0
  -25.2890  -13.8570   20.4340 C   0  0  0  0  0  0  0  0  0  0  0  0
  -24.2350  -13.0720   20.8160 C   0  0  0  0  0  0  0  0  0  0  0  0
  -24.7110  -11.7250   20.7750 C   0  0  0  0  0  0  0  0  0  0  0  0
  -26.3390  -12.9870   20.1850 N   0  0  0  0  0  0  0  0  0  0  0  0
  -25.9980  -11.7010   20.4540 N   0  0  0  0  0  0  0  0  0  0  0  0
  -23.9980  -10.4550   20.9670 C   0  0  0  0  0  0  0  0  0  0  0  0
  -24.4270   -9.5020   21.9180 C   0  0  0  0  0  3  0  0  0  0  0  0
  -23.7120   -8.2970   22.0950 C   0  0  0  0  0  3  0  0  0  0  0  0
  -22.5550   -8.0370   21.3230 C   0  0  0  0  0  0  0  0  0  0  0  0
  -22.1480   -8.9770   20.3600 C   0  0  0  0  0  3  0  0  0  0  0  0
  -22.8640  -10.1730   20.1800 C   0  0  0  0  0  3  0  0  0  0  0  0
  -21.8120   -6.8840   21.4110 O   0  0  0  0  0  0  0  0  0  0  0  0
  -21.7230   -6.1750   22.5820 C   0  0  0  0  0  0  0  0  0  0  0  0
  -21.2130   -6.7510   23.7660 C   0  0  0  0  0  3  0  0  0  0  0  0
  -21.0730   -5.9660   24.9280 C   0  0  0  0  0  3  0  0  0  0  0  0
  -21.4340   -4.6060   24.9050 C   0  0  0  0  0  0  0  0  0  0  0  0
  -21.9370   -4.0280   23.7270 C   0  0  0  0  0  3  0  0  0  0  0  0
  -22.0790   -4.8100   22.5670 C   0  0  0  0  0  0  0  0  0  0  0  0
  -22.5460   -4.2450   21.4270 F   0  0  0  0  0  0  0  0  0  0  0  0
  -21.2920   -3.8480   26.0180 F   0  0  0  0  0  0  0  0  0  0  0  0
  -22.8370  -13.5330   21.1060 C   0  0  0  0  0  0  0  0  0  0  0  0
  -22.1260  -12.8270   21.9770 N   0  0  0  0  0  0  0  0  0  0  0  0
  -22.3830  -14.5570   20.5940 O   0  0  0  0  0  0  0  0  0  0  0  0
  -22.5050  -11.9960   22.4090 H   0  0  0  0  0  0  0  0  0  0  0  0
  -21.1900  -13.1210   22.2160 H   0  0  0  0  0  0  0  0  0  0  0  0
  -25.4360  -15.2290   20.2530 N   0  0  0  0  0  0  0  0  0  0  0  0
  -24.6540  -15.8670   20.3550 H   0  0  0  0  0  0  0  0  0  0  0  0
  -26.2490  -15.6740   19.8480 H   0  0  0  0  0  0  0  0  0  0  0  0
  -28.1840  -25.3130   20.5580 C   0  0  0  0  0  3  0  0  0  0  0  0
  -28.9190  -24.2560   20.1180 C   0  0  0  0  0  0  0  0  0  0  0  0
  -29.9730  -24.5830   19.1360 N   0  0  0  0  0  4  0  0  0  0  0  0
  -29.9480  -25.5700   18.9550 H   0  0  0  0  0  0  0  0  0  0  0  0
  -30.8890  -24.3700   19.4850 H   0  0  0  0  0  0  0  0  0  0  0  0
  -29.8230  -24.1180   18.2600 H   0  0  0  0  0  0  0  0  0  0  0  0
  -28.3630  -26.6370   20.1580 O   0  0  0  0  0  0  0  0  0  0  0  0
  -24.6040  -31.9130   23.2350 C   0  0  0  0  0  0  0  0  0  0  0  0
  -27.2350  -27.4450   20.1480 C   0  0  0  0  0  0  0  0  0  0  0  0
  -23.4000  -30.5180   21.5870 C   0  0  0  0  0  3  0  0  0  0  0  0
  -24.8540  -28.9870   20.1530 C   0  0  0  0  0  0  0  0  0  0  0  0
  -25.9290  -30.8700   21.3900 C   0  0  0  0  0  2  0  0  0  0  0  0
  -26.0160  -29.4980   20.7460 C   0  0  0  0  0  0  0  0  0  0  0  0
  -27.2140  -28.7350   20.7400 C   0  0  0  0  0  3  0  0  0  0  0  0
  -26.0570  -26.9680   19.5330 C   0  0  0  0  0  3  0  0  0  0  0  0
  -24.8710  -27.7240   19.5400 C   0  0  0  0  0  3  0  0  0  0  0  0
  -23.6100  -29.8480   20.2050 C   0  0  0  0  0  2  0  0  0  0  0  0
  -24.6640  -31.1150   22.1310 N   0  0  0  0  0  0  0  0  0  0  0  0
  -23.5230  -32.1810   23.7760 O   0  0  0  0  0  0  0  0  0  0  0  0
  -22.7470  -29.4920   22.5420 C   0  0  0  0  0  0  0  0  0  0  0  0
  -21.4220  -29.3080   22.4120 N   0  0  0  0  0  0  0  0  0  0  0  0
  -23.4300  -28.8650   23.3580 O   0  0  0  0  0  0  0  0  0  0  0  0
  -20.9310  -29.8640   21.7270 H   0  0  0  0  0  0  0  0  0  0  0  0
  -18.0480  -28.1120   22.9110 C   0  0  0  0  0  0  0  0  0  0  0  0
  -20.6070  -28.3650   23.1780 C   0  0  0  0  0  3  0  0  0  0  0  0
  -20.7060  -26.9380   22.5910 C   0  0  0  0  0  2  0  0  0  0  0  0
  -19.6010  -26.6230   21.5770 C   0  0  0  0  0  2  0  0  0  0  0  0
  -18.2210  -26.7670   22.2250 C   0  0  0  0  0  2  0  0  0  0  0  0
  -19.1690  -28.8690   23.3440 C   0  0  0  0  0  0  0  0  0  0  0  0
  -18.9550  -30.1290   23.9450 C   0  0  0  0  0  3  0  0  0  0  0  0
  -17.6510  -30.6320   24.1160 C   0  0  0  0  0  3  0  0  0  0  0  0
  -16.5440  -29.8720   23.7000 C   0  0  0  0  0  3  0  0  0  0  0  0
  -16.7440  -28.6130   23.1040 C   0  0  0  0  0  3  0  0  0  0  0  0
  -25.8890  -32.5430   23.8570 C   0  0  0  0  0  3  0  0  0  0  0  0
  -26.4030  -31.7720   25.1330 C   0  0  1  0  0  0  0  0  0  0  0  0
  -25.3060  -31.5310   26.1960 C   0  0  0  0  0  1  0  0  0  0  0  0
  -26.9880  -30.3970   24.7390 C   0  0  0  0  0  1  0  0  0  0  0  0
  -27.5510  -32.5660   25.8000 C   0  0  0  0  0  1  0  0  0  0  0  0
  -25.5830  -33.9430   24.1830 N   0  0  0  0  0  0  0  0  0  0  0  0
  -25.9140  -34.9920   23.4180 C   0  0  0  0  0  0  0  0  0  0  0  0
  -26.5810  -34.8840   22.3860 O   0  0  0  0  0  0  0  0  0  0  0  0
  -24.9900  -34.1020   24.9850 H   0  0  0  0  0  0  0  0  0  0  0  0
  -24.1890  -36.7850   23.0520 C   0  0  0  0  0  1  0  0  0  0  0  0
  -25.4270  -36.3830   23.8690 C   0  0  0  0  0  3  0  0  0  0  0  0
  -27.5580  -37.2680   24.7090 C   0  0  0  0  0  1  0  0  0  0  0  0
  -26.4630  -37.4340   23.7580 N   0  0  0  0  0  0  0  0  0  0  0  0
  -26.0570  -38.3560   23.9000 H   0  0  0  0  0  0  0  0  0  0  0  0
  1  3  2  0
  2  7  1  0
  2  1  1  0
  4  2  1  0
  5  6  1  0
  5  7  2  0
  6  8  2  0
  7  9  1  0
  8  9  1  0
 10 20  1  0
 11 16  1  0
 12 13  1  0
 12 11  1  0
 14 13  1  0
 14 27  1  0
 14 15  1  0
 16 10  1  0
 16 15  1  0
 17 10  2  0
 18 21  1  0
 18  6  1  0
 18 20  1  0
 19 21  1  0
 20 22  1  0
 23 21  1  0
 24 25  2  0
 25 44  1  0
 26 25  1  0
 26 29  1  0
 27 24  1  0
 27 28  1  0
 28 26  2  0
 29 30  1  0
 30 31  2  0
 32 35  1  0
 32 31  1  0
 33 32  2  0
 34 33  1  0
 34 29  2  0
 35 36  1  0
 36 37  1  0
 37 38  2  0
 39 38  1  0
 39 43  1  0
 40 39  2  0
 41 36  2  0
 41 40  1  0
 42 41  1  0
 44 45  1  0
 45 48  1  0
 45 47  1  0
 46 44  2  0
 49 50  1  0
 49 24  1  0
 51 49  1  0
 53 52  2  0
 53  1  1  0
 54 56  1  0
 54 53  1  0
 55 54  1  0
 57 54  1  0
 58 52  1  0
 59 70  2  0
 60 58  1  0
 60 65  1  0
 61 69  1  0
 61 71  1  0
 62 68  1  0
 62 64  1  0
 63 69  1  0
 64 63  1  0
 65 64  2  0
 66 67  1  0
 66 60  2  0
 67 62  2  0
 68 61  1  0
 69 59  1  0
 71 73  2  0
 72 71  1  0
 74 72  1  0
 75 84  2  0
 75 80  1  0
 76 72  1  0
 76 80  1  0
 77 76  1  0
 78 79  1  0
 78 77  1  0
 79 75  1  0
 80 81  2  0
 81 82  1  0
 83 82  2  0
 84 83  1  0
 85 59  1  0
 85 90  1  0
 85 86  1  0
 86 89  1  1
 86 87  1  0
 88 86  1  0
 90 93  1  0
 91 95  1  0
 91 90  1  0
 92 91  2  0
 95 94  1  0
 97 95  1  0
 97 98  1  0
 97 96  1  0
M  ISO  4  10 100  20 100  52 101  58 101
M  END
>  <TORSDO>  (20) 
F 19

>  <SCORE>  (20) 
-14.221

>  <name>  (20) 
19

>  <ligand_id>  (20) 
19

>  <original_smiles>  (20) 
[H]C(Oc1c([H])c([H])c2c(c1[H])C([H])([H])N(C(=O)C([H])(N([H])C(=O)C([H])(N([H])C([H])([H])[H])C([H])([H])[H])C(C([H])([H])[H])(C([H])([H])[H])C([H])([H])[H])C([H])(C(=O)N([H])C1([H])c3c([H])c([H])c([H])c([H])c3C([H])([H])C([H])([H])C1([H])[H])C2([H])[H])=C(C(=O)N([H])c1onc(C(N([H])C(=O)N2C([H])([H])C([H])([H])C([H])([H])C([H])(n3nc(-c4c([H])c([H])c(Oc5c([H])c([H])c(F)c([H])c5F)c([H])c4[H])c(C(=O)N([H])[H])c3N([H])[H])C2([H])[H])=[N+]([H])C([H])([H])[H])c1[H])[N+]([H])([H])[H]

>  <smiles>  (20) 
[H]C(Oc1c([H])c([H])c2c(c1[H])C([H])([H])N(C(=O)C([H])(N([H])C(=O)C([H])(N([H])C([H])([H])[H])C([H])([H])[H])C(C([H])([H])[H])(C([H])([H])[H])C([H])([H])[H])C([H])(C(=O)N([H])C1([H])c3c([H])c([H])c([H])c([H])c3C([H])([H])C([H])([H])C1([H])[H])C2([H])[H])=C(C(=O)N([H])c1onc(C(N([H])C(=O)N2C([H])([H])C([H])([H])C([H])([H])C([H])(n3nc(-c4c([H])c([H])c(Oc5c([H])c([H])c(F)c([H])c5F)c([H])c4[H])c(C(=O)N([H])[H])c3N([H])[H])C2([H])[H])=[N+]([H])C([H])([H])[H])c1[H])[N+]([H])([H])[H]

$$$$
20:0:0
     RDKit          3D

 94102  0  0  1  0  0  0  0  0999 V2000
  -28.8800  -19.4110   19.8650 C   0  0  0  0  0  3  0  0  0  0  0  0
  -29.8690  -18.3550   19.9460 C   0  0  0  0  0  0  0  0  0  0  0  0
  -31.0750  -18.8610   20.3820 C   0  0  0  0  0  0  0  0  0  0  0  0
  -29.3270  -20.6880   20.1550 C   0  0  0  0  0  0  0  0  0  0  0  0
  -31.0100  -20.5920   20.6320 S   0  0  0  0  0  0  0  0  0  0  0  0
  -29.0280  -23.1370   20.0130 C   0  0  0  0  0  0  0  0  0  0  0  0
  -28.5960  -21.8510   20.1190 N   0  0  0  0  0  0  0  0  0  0  0  0
  -30.2090  -23.4310   19.8040 O   0  0  0  0  0  0  0  0  0  0  0  0
  -27.5930  -21.7380   20.1860 H   0  0  0  0  0  0  0  0  0  0  0  0
  -27.9820  -24.2800   20.1550 C   0  0  0  0  0  2  0  0  0  0  0  0
  -28.2190  -25.5610   19.2860 C   0  0  0  0  0  2  0  0  0  0  0  0
  -28.1390  -26.8230   19.9910 O   0  0  0  0  0  0  0  0  0  0  0  0
  -24.5150  -32.0060   23.3020 C   0  0  0  0  0  0  0  0  0  0  0  0
  -26.9600  -27.5500   20.0390 C   0  0  0  0  0  0  0  0  0  0  0  0
  -23.2220  -30.6550   21.6860 C   0  0  0  0  0  3  0  0  0  0  0  0
  -24.5910  -29.1100   20.1830 C   0  0  0  0  0  0  0  0  0  0  0  0
  -25.7500  -30.9640   21.3960 C   0  0  0  0  0  2  0  0  0  0  0  0
  -25.7820  -29.6000   20.7320 C   0  0  0  0  0  0  0  0  0  0  0  0
  -26.9640  -28.8250   20.6590 C   0  0  0  0  0  3  0  0  0  0  0  0
  -25.7430  -27.0750   19.4970 C   0  0  0  0  0  3  0  0  0  0  0  0
  -24.5680  -27.8470   19.5670 C   0  0  0  0  0  3  0  0  0  0  0  0
  -23.3670  -29.9930   20.2890 C   0  0  0  0  0  2  0  0  0  0  0  0
  -24.5170  -31.2230   22.1840 N   0  0  0  0  0  0  0  0  0  0  0  0
  -23.4600  -32.2870   23.8870 O   0  0  0  0  0  0  0  0  0  0  0  0
  -22.5900  -29.6280   22.6540 C   0  0  0  0  0  0  0  0  0  0  0  0
  -21.2720  -29.4080   22.5200 N   0  0  0  0  0  0  0  0  0  0  0  0
  -23.2850  -29.0310   23.4820 O   0  0  0  0  0  0  0  0  0  0  0  0
  -20.7700  -29.9440   21.8250 H   0  0  0  0  0  0  0  0  0  0  0  0
  -17.9420  -28.0780   22.9580 C   0  0  0  0  0  0  0  0  0  0  0  0
  -20.4760  -28.4580   23.2960 C   0  0  0  0  0  3  0  0  0  0  0  0
  -20.6590  -27.0160   22.7690 C   0  0  0  0  0  2  0  0  0  0  0  0
  -19.6050  -26.6130   21.7350 C   0  0  0  0  0  2  0  0  0  0  0  0
  -18.1980  -26.7170   22.3320 C   0  0  0  0  0  2  0  0  0  0  0  0
  -19.0120  -28.9030   23.3970 C   0  0  0  0  0  0  0  0  0  0  0  0
  -18.7190  -30.1730   23.9390 C   0  0  0  0  0  3  0  0  0  0  0  0
  -17.3900  -30.6210   24.0470 C   0  0  0  0  0  3  0  0  0  0  0  0
  -16.3340  -29.7950   23.6250 C   0  0  0  0  0  3  0  0  0  0  0  0
  -16.6100  -28.5250   23.0860 C   0  0  0  0  0  3  0  0  0  0  0  0
  -25.8360  -32.6070   23.8810 C   0  0  0  0  0  3  0  0  0  0  0  0
  -25.5710  -34.0120   24.2230 N   0  0  0  0  0  0  0  0  0  0  0  0
  -25.8960  -35.0560   23.4490 C   0  0  0  0  0  0  0  0  0  0  0  0
  -26.5200  -34.9380   22.3910 O   0  0  0  0  0  0  0  0  0  0  0  0
  -25.0150  -34.1800   25.0470 H   0  0  0  0  0  0  0  0  0  0  0  0
  -24.1880  -36.8810   23.1660 C   0  0  0  0  0  1  0  0  0  0  0  0
  -25.4550  -36.4540   23.9240 C   0  0  0  0  0  3  0  0  0  0  0  0
  -27.6380  -37.3010   24.6630 C   0  0  0  0  0  1  0  0  0  0  0  0
  -26.5020  -37.4870   23.7640 N   0  0  0  0  0  0  0  0  0  0  0  0
  -26.1190  -38.4150   23.9220 H   0  0  0  0  0  0  0  0  0  0  0  0
  -26.3770  -31.8230   25.1380 C   0  0  1  0  0  0  0  0  0  0  0  0
  -25.3080  -31.5930   26.2310 C   0  0  0  0  0  1  0  0  0  0  0  0
  -26.9320  -30.4420   24.7200 C   0  0  0  0  0  1  0  0  0  0  0  0
  -27.5530  -32.6000   25.7750 C   0  0  0  0  0  1  0  0  0  0  0  0
  -32.3610  -18.2180   20.6460 C   0  0  0  0  0  0  0  0  0  0  0  0
  -33.6400  -18.9890   20.3400 C   0  0  0  0  0  1  0  0  0  0  0  0
  -32.4470  -17.0880   21.1280 O   0  0  0  0  0  0  0  0  0  0  0  0
  -29.6020  -16.9400   19.4210 C   0  0  0  0  0  2  0  0  0  0  0  0
  -30.5210  -14.6900   19.9930 C   0  0  0  0  0  0  0  0  0  0  0  0
  -30.2400  -12.4690   18.9670 C   0  0  0  0  0  2  0  0  0  0  0  0
  -29.2400  -12.6270   17.8010 C   0  0  0  0  0  2  0  0  0  0  0  0
  -27.7940  -12.4630   18.3090 C   0  0  0  0  0  2  0  0  0  0  0  0
  -27.4990  -13.3210   19.5700 C   0  0  0  0  0  3  0  0  0  0  0  0
  -28.6150  -13.1640   20.6320 C   0  0  0  0  0  2  0  0  0  0  0  0
  -29.9010  -13.4760   19.9890 N   0  0  0  0  0  0  0  0  0  0  0  0
  -31.6320  -14.8590   19.4850 O   0  0  0  0  0  0  0  0  0  0  0  0
  -29.7280  -15.7480   20.2980 N   0  0  0  0  0  0  0  0  0  0  0  0
  -28.8890  -15.5080   20.8010 H   0  0  0  0  0  0  0  0  0  0  0  0
  -25.1510  -13.8940   20.4530 C   0  0  0  0  0  0  0  0  0  0  0  0
  -24.1120  -13.1060   20.8700 C   0  0  0  0  0  0  0  0  0  0  0  0
  -24.5740  -11.7570   20.7710 C   0  0  0  0  0  0  0  0  0  0  0  0
  -26.1810  -13.0250   20.1270 N   0  0  0  0  0  0  0  0  0  0  0  0
  -25.8410  -11.7350   20.3800 N   0  0  0  0  0  0  0  0  0  0  0  0
  -23.8680  -10.4870   20.9730 C   0  0  0  0  0  0  0  0  0  0  0  0
  -24.3410   -9.5130   21.8810 C   0  0  0  0  0  3  0  0  0  0  0  0
  -23.6330   -8.3060   22.0680 C   0  0  0  0  0  3  0  0  0  0  0  0
  -22.4380   -8.0670   21.3490 C   0  0  0  0  0  0  0  0  0  0  0  0
  -21.9850   -9.0290   20.4290 C   0  0  0  0  0  3  0  0  0  0  0  0
  -22.6940  -10.2270   20.2400 C   0  0  0  0  0  3  0  0  0  0  0  0
  -21.6960   -6.9140   21.4510 O   0  0  0  0  0  0  0  0  0  0  0  0
  -21.6650   -6.1770   22.6070 C   0  0  0  0  0  0  0  0  0  0  0  0
  -21.2070   -6.7210   23.8260 C   0  0  0  0  0  3  0  0  0  0  0  0
  -21.1250   -5.9080   24.9750 C   0  0  0  0  0  3  0  0  0  0  0  0
  -21.4900   -4.5510   24.9040 C   0  0  0  0  0  0  0  0  0  0  0  0
  -21.9430   -4.0060   23.6900 C   0  0  0  0  0  3  0  0  0  0  0  0
  -22.0260   -4.8160   22.5440 C   0  0  0  0  0  0  0  0  0  0  0  0
  -22.4420   -4.2800   21.3720 F   0  0  0  0  0  0  0  0  0  0  0  0
  -21.4060   -3.7670   26.0040 F   0  0  0  0  0  0  0  0  0  0  0  0
  -22.7330  -13.5690   21.2430 C   0  0  0  0  0  0  0  0  0  0  0  0
  -22.0570  -12.8410   22.1250 N   0  0  0  0  0  0  0  0  0  0  0  0
  -22.2630  -14.6100   20.7860 O   0  0  0  0  0  0  0  0  0  0  0  0
  -22.4460  -11.9980   22.5200 H   0  0  0  0  0  0  0  0  0  0  0  0
  -21.1330  -13.1320   22.4100 H   0  0  0  0  0  0  0  0  0  0  0  0
  -25.3000  -15.2700   20.3030 N   0  0  0  0  0  0  0  0  0  0  0  0
  -24.5360  -15.9160   20.4770 H   0  0  0  0  0  0  0  0  0  0  0  0
  -26.1200  -15.7230   19.9220 H   0  0  0  0  0  0  0  0  0  0  0  0
  1  2  1  0
  1  4  2  0
  2  3  2  0
  3  5  1  0
  3 53  1  0
  4  5  1  0
  6  7  1  0
  6 10  1  0
  7  4  1  0
  7  9  1  0
  8  6  2  0
 11 12  1  0
 11 10  1  0
 12 14  1  0
 13 24  2  0
 14 19  1  0
 15 23  1  0
 15 25  1  0
 16 22  1  0
 16 18  1  0
 17 23  1  0
 18 17  1  0
 19 18  2  0
 20 21  1  0
 20 14  2  0
 21 16  2  0
 22 15  1  0
 23 13  1  0
 25 27  2  0
 26 25  1  0
 28 26  1  0
 29 38  2  0
 29 34  1  0
 30 26  1  0
 30 34  1  0
 31 30  1  0
 32 33  1  0
 32 31  1  0
 33 29  1  0
 34 35  2  0
 35 36  1  0
 37 36  2  0
 38 37  1  0
 39 13  1  0
 39 40  1  0
 39 49  1  0
 40 43  1  0
 41 45  1  0
 41 40  1  0
 42 41  2  0
 45 44  1  0
 47 48  1  0
 47 45  1  0
 47 46  1  0
 49 52  1  1
 49 50  1  0
 51 49  1  0
 53 55  2  0
 54 53  1  0
 56  2  1  0
 56 65  1  0
 57 65  1  0
 58 63  1  0
 59 60  1  0
 59 58  1  0
 61 60  1  0
 61 70  1  0
 61 62  1  0
 63 57  1  0
 63 62  1  0
 64 57  2  0
 65 66  1  0
 67 68  2  0
 68 87  1  0
 69 68  1  0
 69 72  1  0
 70 71  1  0
 70 67  1  0
 71 69  2  0
 72 73  1  0
 73 74  2  0
 75 78  1  0
 75 74  1  0
 76 75  2  0
 77 76  1  0
 77 72  2  0
 78 79  1  0
 79 80  1  0
 80 81  2  0
 82 81  1  0
 82 86  1  0
 83 82  2  0
 84 79  2  0
 84 83  1  0
 85 84  1  0
 87 88  1  0
 88 91  1  0
 88 90  1  0
 89 87  2  0
 92 67  1  0
 92 93  1  0
 94 92  1  0
M  ISO  4  11 101  12 101  57 100  65 100
M  END
>  <TORSDO>  (21) 
F 21

>  <SCORE>  (21) 
-13.481

>  <name>  (21) 
20

>  <ligand_id>  (21) 
20

>  <original_smiles>  (21) 
[H]c1c([H])c([H])c2c(c1[H])C([H])([H])C([H])([H])C([H])([H])C2([H])N([H])C(=O)C1([H])N(C(=O)C([H])(N([H])C(=O)C([H])(N([H])C([H])([H])[H])C([H])([H])[H])C(C([H])([H])[H])(C([H])([H])[H])C([H])([H])[H])C([H])([H])c2c([H])c(OC([H])([H])C([H])([H])C(=O)N([H])c3sc(C(=O)C([H])([H])[H])c(C([H])([H])N([H])C(=O)N4C([H])([H])C([H])([H])C([H])([H])C([H])(n5nc(-c6c([H])c([H])c(Oc7c([H])c([H])c(F)c([H])c7F)c([H])c6[H])c(C(=O)N([H])[H])c5N([H])[H])C4([H])[H])c3[H])c([H])c([H])c2C1([H])[H]

>  <smiles>  (21) 
[H]c1c([H])c([H])c2c(c1[H])C([H])([H])C([H])([H])C([H])([H])C2([H])N([H])C(=O)C1([H])N(C(=O)C([H])(N([H])C(=O)C([H])(N([H])C([H])([H])[H])C([H])([H])[H])C(C([H])([H])[H])(C([H])([H])[H])C([H])([H])[H])C([H])([H])c2c([H])c(OC([H])([H])C([H])([H])C(=O)N([H])c3sc(C(=O)C([H])([H])[H])c(C([H])([H])N([H])C(=O)N4C([H])([H])C([H])([H])C([H])([H])C([H])(n5nc(-c6c([H])c([H])c(Oc7c([H])c([H])c(F)c([H])c7F)c([H])c6[H])c(C(=O)N([H])[H])c5N([H])[H])C4([H])[H])c3[H])c([H])c([H])c2C1([H])[H]

$$$$
21:0:0
     RDKit          3D

 92101  0  0  1  0  0  0  0  0999 V2000
  -27.7790  -21.9810   19.0230 C   0  0  0  0  0  0  0  0  0  0  0  0
  -26.5240  -22.8270   19.1830 C   0  0  0  0  0  2  0  0  0  0  0  0
  -26.6600  -23.3950   20.5960 C   0  0  0  0  0  2  0  0  0  0  0  0
  -28.1700  -23.4160   20.8400 C   0  0  0  0  0  3  0  0  0  0  0  0
  -28.6540  -22.1780   20.0240 N   0  0  0  0  0  0  0  0  0  0  0  0
  -27.9040  -21.1700   18.1030 O   0  0  0  0  0  0  0  0  0  0  0  0
  -29.7270  -21.0890   20.3340 C   0  0  0  0  0  2  0  0  0  0  0  0
  -30.6620  -14.8690   19.9840 C   0  0  0  0  0  0  0  0  0  0  0  0
  -30.3620  -12.5830   18.9470 C   0  0  0  0  0  2  0  0  0  0  0  0
  -29.3640  -12.6020   17.7700 C   0  0  0  0  0  2  0  0  0  0  0  0
  -27.9260  -12.3980   18.2770 C   0  0  0  0  0  2  0  0  0  0  0  0
  -27.6020  -13.2810   19.5120 C   0  0  0  0  0  3  0  0  0  0  0  0
  -28.7270  -13.2410   20.5710 C   0  0  0  0  0  2  0  0  0  0  0  0
  -29.9610  -13.6650   19.8960 N   0  0  0  0  0  0  0  0  0  0  0  0
  -31.8480  -14.8280   19.6360 O   0  0  0  0  0  0  0  0  0  0  0  0
  -30.8840  -18.6940   20.8940 C   0  0  0  0  0  2  0  0  0  0  0  0
  -28.9830  -18.4040   19.5150 C   0  0  0  0  0  2  0  0  0  0  0  0
  -30.9300  -17.1170   21.2040 C   0  0  0  0  0  2  0  0  0  0  0  0
  -29.5300  -19.4370   20.5780 C   0  0  0  0  0  3  0  0  0  0  0  0
  -28.8670  -16.8580   19.9840 C   0  0  0  0  0  3  0  0  0  0  0  0
  -27.8580  -16.8010   21.1460 C   0  0  0  0  0  1  0  0  0  0  0  0
  -30.1200  -16.1270   20.4030 N   0  0  0  0  0  0  0  0  0  0  0  0
  -25.2450  -13.8460   20.3400 C   0  0  0  0  0  0  0  0  0  0  0  0
  -24.2090  -13.0700   20.7710 C   0  0  0  0  0  0  0  0  0  0  0  0
  -24.6740  -11.7230   20.7080 C   0  0  0  0  0  0  0  0  0  0  0  0
  -26.2890  -12.9780   20.0690 N   0  0  0  0  0  0  0  0  0  0  0  0
  -25.9520  -11.6920   20.3450 N   0  0  0  0  0  0  0  0  0  0  0  0
  -23.9530  -10.4620   20.9150 C   0  0  0  0  0  0  0  0  0  0  0  0
  -24.4070   -9.4960   21.8400 C   0  0  0  0  0  3  0  0  0  0  0  0
  -23.6830   -8.3000   22.0370 C   0  0  0  0  0  3  0  0  0  0  0  0
  -22.4920   -8.0630   21.3100 C   0  0  0  0  0  0  0  0  0  0  0  0
  -22.0590   -9.0180   20.3720 C   0  0  0  0  0  3  0  0  0  0  0  0
  -22.7830  -10.2050   20.1730 C   0  0  0  0  0  3  0  0  0  0  0  0
  -21.7390   -6.9190   21.4170 O   0  0  0  0  0  0  0  0  0  0  0  0
  -21.6810   -6.2030   22.5860 C   0  0  0  0  0  0  0  0  0  0  0  0
  -21.2400   -6.7850   23.7950 C   0  0  0  0  0  3  0  0  0  0  0  0
  -21.1310   -5.9960   24.9570 C   0  0  0  0  0  3  0  0  0  0  0  0
  -21.4510   -4.6260   24.9110 C   0  0  0  0  0  0  0  0  0  0  0  0
  -21.8860   -4.0440   23.7070 C   0  0  0  0  0  3  0  0  0  0  0  0
  -21.9970   -4.8310   22.5480 C   0  0  0  0  0  0  0  0  0  0  0  0
  -22.3960   -4.2620   21.3850 F   0  0  0  0  0  0  0  0  0  0  0  0
  -21.3380   -3.8650   26.0240 F   0  0  0  0  0  0  0  0  0  0  0  0
  -22.8270  -13.5500   21.1120 C   0  0  0  0  0  0  0  0  0  0  0  0
  -22.1440  -12.8530   22.0130 N   0  0  0  0  0  0  0  0  0  0  0  0
  -22.3670  -14.5790   20.6180 O   0  0  0  0  0  0  0  0  0  0  0  0
  -22.5300  -12.0200   22.4330 H   0  0  0  0  0  0  0  0  0  0  0  0
  -21.2210  -13.1570   22.2860 H   0  0  0  0  0  0  0  0  0  0  0  0
  -25.3610  -15.2120   20.1250 N   0  0  0  0  0  0  0  0  0  0  0  0
  -24.5820  -15.8440   20.2590 H   0  0  0  0  0  0  0  0  0  0  0  0
  -26.1920  -15.6700   19.7750 H   0  0  0  0  0  0  0  0  0  0  0  0
  -28.7500  -24.9860   20.8200 C   0  0  0  0  0  2  0  0  0  0  0  0
  -28.4760  -26.2660   20.0200 O   0  0  0  0  0  0  0  0  0  0  0  0
  -24.5740  -31.7100   23.1160 C   0  0  0  0  0  0  0  0  0  0  0  0
  -27.3520  -27.1380   20.1250 C   0  0  0  0  0  0  0  0  0  0  0  0
  -23.4520  -30.3000   21.4320 C   0  0  0  0  0  3  0  0  0  0  0  0
  -24.9770  -28.7810   20.0390 C   0  0  0  0  0  0  0  0  0  0  0  0
  -25.9950  -30.6520   21.3280 C   0  0  0  0  0  2  0  0  0  0  0  0
  -26.1230  -29.2670   20.6810 C   0  0  0  0  0  0  0  0  0  0  0  0
  -27.3180  -28.4610   20.7080 C   0  0  0  0  0  3  0  0  0  0  0  0
  -26.1880  -26.7450   19.4380 C   0  0  0  0  0  3  0  0  0  0  0  0
  -25.0180  -27.5310   19.4040 C   0  0  0  0  0  3  0  0  0  0  0  0
  -23.7240  -29.6420   20.0540 C   0  0  0  0  0  2  0  0  0  0  0  0
  -24.6910  -30.9090   22.0150 N   0  0  0  0  0  0  0  0  0  0  0  0
  -23.4680  -31.9550   23.6230 O   0  0  0  0  0  0  0  0  0  0  0  0
  -22.7830  -29.2610   22.3660 C   0  0  0  0  0  0  0  0  0  0  0  0
  -21.4580  -29.0780   22.2260 N   0  0  0  0  0  0  0  0  0  0  0  0
  -23.4580  -28.6210   23.1760 O   0  0  0  0  0  0  0  0  0  0  0  0
  -20.9710  -29.6460   21.5480 H   0  0  0  0  0  0  0  0  0  0  0  0
  -18.0820  -27.8560   22.7000 C   0  0  0  0  0  0  0  0  0  0  0  0
  -20.6410  -28.1160   22.9700 C   0  0  0  0  0  3  0  0  0  0  0  0
  -20.7450  -26.7020   22.3520 C   0  0  0  0  0  2  0  0  0  0  0  0
  -19.6420  -26.4070   21.3310 C   0  0  0  0  0  2  0  0  0  0  0  0
  -18.2610  -26.5290   21.9830 C   0  0  0  0  0  2  0  0  0  0  0  0
  -19.2000  -28.6080   23.1510 C   0  0  0  0  0  0  0  0  0  0  0  0
  -18.9780  -29.8500   23.7840 C   0  0  0  0  0  3  0  0  0  0  0  0
  -17.6730  -30.3400   23.9720 C   0  0  0  0  0  3  0  0  0  0  0  0
  -16.5690  -29.5850   23.5380 C   0  0  0  0  0  3  0  0  0  0  0  0
  -16.7750  -28.3440   22.9080 C   0  0  0  0  0  3  0  0  0  0  0  0
  -25.8190  -32.3720   23.7800 C   0  0  0  0  0  3  0  0  0  0  0  0
  -25.4560  -33.7530   24.1350 N   0  0  0  0  0  0  0  0  0  0  0  0
  -25.7500  -34.8330   23.3990 C   0  0  0  0  0  0  0  0  0  0  0  0
  -26.4270  -34.7730   22.3670 O   0  0  0  0  0  0  0  0  0  0  0  0
  -24.8550  -33.8700   24.9380 H   0  0  0  0  0  0  0  0  0  0  0  0
  -23.9490  -36.5630   23.0920 C   0  0  0  0  0  1  0  0  0  0  0  0
  -25.2140  -36.1950   23.8830 C   0  0  0  0  0  3  0  0  0  0  0  0
  -27.3190  -37.1550   24.7050 C   0  0  0  0  0  1  0  0  0  0  0  0
  -26.2020  -37.2910   23.7750 N   0  0  0  0  0  0  0  0  0  0  0  0
  -25.7600  -38.1910   23.9390 H   0  0  0  0  0  0  0  0  0  0  0  0
  -26.3300  -31.5930   25.0540 C   0  0  1  0  0  0  0  0  0  0  0  0
  -25.2210  -31.3030   26.0940 C   0  0  0  0  0  1  0  0  0  0  0  0
  -26.9620  -30.2390   24.6550 C   0  0  0  0  0  1  0  0  0  0  0  0
  -27.4410  -32.4090   25.7560 C   0  0  0  0  0  1  0  0  0  0  0  0
  1  2  1  0
  1  5  1  0
  2  3  1  0
  3  4  1  0
  4 51  1  0
  5  7  1  0
  5  4  1  0
  6  1  2  0
  8 22  1  0
  9 14  1  0
 10 11  1  0
 10  9  1  0
 12 11  1  0
 12 26  1  0
 12 13  1  0
 14  8  1  0
 14 13  1  0
 15  8  2  0
 16 18  1  0
 17 20  1  0
 17 19  1  0
 19  7  1  0
 19 16  1  0
 20 22  1  0
 20 21  1  0
 22 18  1  0
 23 24  2  0
 24 43  1  0
 25 24  1  0
 25 28  1  0
 26 23  1  0
 26 27  1  0
 27 25  2  0
 28 29  1  0
 29 30  2  0
 31 34  1  0
 31 30  1  0
 32 31  2  0
 33 32  1  0
 33 28  2  0
 34 35  1  0
 35 36  1  0
 36 37  2  0
 38 37  1  0
 38 42  1  0
 39 38  2  0
 40 35  2  0
 40 39  1  0
 41 40  1  0
 43 44  1  0
 44 47  1  0
 44 46  1  0
 45 43  2  0
 48 49  1  0
 48 23  1  0
 50 48  1  0
 52 54  1  0
 52 51  1  0
 53 64  2  0
 54 59  1  0
 55 63  1  0
 55 65  1  0
 56 62  1  0
 56 58  1  0
 57 63  1  0
 58 59  2  0
 58 57  1  0
 60 54  2  0
 61 60  1  0
 61 56  2  0
 62 55  1  0
 63 53  1  0
 65 67  2  0
 66 65  1  0
 68 66  1  0
 69 78  2  0
 69 74  1  0
 70 66  1  0
 70 74  1  0
 71 70  1  0
 72 73  1  0
 72 71  1  0
 73 69  1  0
 74 75  2  0
 75 76  1  0
 77 76  2  0
 78 77  1  0
 79 53  1  0
 79 80  1  0
 79 89  1  0
 80 83  1  0
 81 85  1  0
 81 80  1  0
 82 81  2  0
 85 84  1  0
 87 85  1  0
 87 88  1  0
 87 86  1  0
 89 92  1  1
 89 90  1  0
 91 89  1  0
M  ISO  4   8 100  22 100  51 101  52 101
M  END
>  <TORSDO>  (22) 
F 18

>  <SCORE>  (22) 
-13.946

>  <name>  (22) 
21

>  <ligand_id>  (22) 
21

>  <original_smiles>  (22) 
[H]c1c([H])c([H])c2c(c1[H])C([H])([H])C([H])([H])C([H])([H])C2([H])N([H])C(=O)C1([H])N(C(=O)C([H])(N([H])C(=O)C([H])(N([H])C([H])([H])[H])C([H])([H])[H])C(C([H])([H])[H])(C([H])([H])[H])C([H])([H])[H])C([H])([H])c2c([H])c(OC([H])([H])C3([H])N(C([H])([H])C4([H])C([H])([H])C([H])([H])N(C(=O)N5C([H])([H])C([H])([H])C([H])([H])C([H])(n6nc(-c7c([H])c([H])c(Oc8c([H])c([H])c(F)c([H])c8F)c([H])c7[H])c(C(=O)N([H])[H])c6N([H])[H])C5([H])[H])C([H])(C([H])([H])[H])C4([H])[H])C(=O)C([H])([H])C3([H])[H])c([H])c([H])c2C1([H])[H]

>  <smiles>  (22) 
[H]c1c([H])c([H])c2c(c1[H])C([H])([H])C([H])([H])C([H])([H])C2([H])N([H])C(=O)C1([H])N(C(=O)C([H])(N([H])C(=O)C([H])(N([H])C([H])([H])[H])C([H])([H])[H])C(C([H])([H])[H])(C([H])([H])[H])C([H])([H])[H])C([H])([H])c2c([H])c(OC([H])([H])C3([H])N(C([H])([H])C4([H])C([H])([H])C([H])([H])N(C(=O)N5C([H])([H])C([H])([H])C([H])([H])C([H])(n6nc(-c7c([H])c([H])c(Oc8c([H])c([H])c(F)c([H])c8F)c([H])c7[H])c(C(=O)N([H])[H])c6N([H])[H])C5([H])[H])C([H])(C([H])([H])[H])C4([H])[H])C(=O)C([H])([H])C3([H])[H])c([H])c([H])c2C1([H])[H]

$$$$
22:0:0
     RDKit          3D

 97105  0  0  1  0  0  0  0  0999 V2000
  -29.6590  -19.1670   21.0030 C   0  0  0  0  0  3  0  0  0  0  0  0
  -30.0610  -17.8280   21.3610 C   0  0  0  0  0  0  0  0  0  0  0  0
  -29.4180  -19.3430   19.6660 C   0  0  0  0  0  0  0  0  0  0  0  0
  -30.0410  -16.9060   20.3200 C   0  0  0  0  0  0  0  0  0  0  0  0
  -29.6220  -17.7860   18.8390 S   0  0  0  0  0  0  0  0  0  0  0  0
  -30.8850  -14.6180   19.6850 C   0  0  0  0  0  0  0  0  0  0  0  0
  -30.6180  -12.3860   18.6210 C   0  0  0  0  0  2  0  0  0  0  0  0
  -29.5760  -12.5100   17.4860 C   0  0  0  0  0  2  0  0  0  0  0  0
  -28.1400  -12.3560   18.0310 C   0  0  0  0  0  2  0  0  0  0  0  0
  -27.8810  -13.2250   19.2910 C   0  0  0  0  0  3  0  0  0  0  0  0
  -29.0180  -13.0380   20.3170 C   0  0  0  0  0  2  0  0  0  0  0  0
  -30.2910  -13.3860   19.6550 N   0  0  0  0  0  0  0  0  0  0  0  0
  -31.9220  -14.8660   19.0590 O   0  0  0  0  0  0  0  0  0  0  0  0
  -30.2380  -15.5410   20.4430 N   0  0  0  0  0  0  0  0  0  0  0  0
  -29.5920  -15.1100   21.0940 H   0  0  0  0  0  0  0  0  0  0  0  0
  -25.5570  -13.8440   20.2080 C   0  0  0  0  0  0  0  0  0  0  0  0
  -24.5170  -13.0770   20.6610 C   0  0  0  0  0  0  0  0  0  0  0  0
  -24.9600  -11.7220   20.5730 C   0  0  0  0  0  0  0  0  0  0  0  0
  -26.5700  -12.9570   19.8770 N   0  0  0  0  0  0  0  0  0  0  0  0
  -26.2170  -11.6730   20.1500 N   0  0  0  0  0  0  0  0  0  0  0  0
  -24.2410  -10.4630   20.8160 C   0  0  0  0  0  0  0  0  0  0  0  0
  -24.6690   -9.5490   21.8040 C   0  0  0  0  0  3  0  0  0  0  0  0
  -23.9530   -8.3530   22.0300 C   0  0  0  0  0  3  0  0  0  0  0  0
  -22.7970   -8.0640   21.2680 C   0  0  0  0  0  0  0  0  0  0  0  0
  -22.3880   -8.9680   20.2710 C   0  0  0  0  0  3  0  0  0  0  0  0
  -23.1040  -10.1550   20.0450 C   0  0  0  0  0  3  0  0  0  0  0  0
  -22.0540   -6.9170   21.3980 O   0  0  0  0  0  0  0  0  0  0  0  0
  -21.8700   -6.3110   22.6160 C   0  0  0  0  0  0  0  0  0  0  0  0
  -21.2700   -6.9880   23.7010 C   0  0  0  0  0  3  0  0  0  0  0  0
  -21.0400   -6.3070   24.9130 C   0  0  0  0  0  3  0  0  0  0  0  0
  -21.3960   -4.9520   25.0400 C   0  0  0  0  0  0  0  0  0  0  0  0
  -21.9880   -4.2760   23.9590 C   0  0  0  0  0  3  0  0  0  0  0  0
  -22.2230   -4.9530   22.7490 C   0  0  0  0  0  0  0  0  0  0  0  0
  -22.7740   -4.2900   21.7040 F   0  0  0  0  0  0  0  0  0  0  0  0
  -21.1670   -4.2970   26.2020 F   0  0  0  0  0  0  0  0  0  0  0  0
  -23.1540  -13.5630   21.0660 C   0  0  0  0  0  0  0  0  0  0  0  0
  -22.5080  -12.8750   22.0010 N   0  0  0  0  0  0  0  0  0  0  0  0
  -22.6720  -14.5880   20.5850 O   0  0  0  0  0  0  0  0  0  0  0  0
  -22.9090  -12.0460   22.4120 H   0  0  0  0  0  0  0  0  0  0  0  0
  -21.5970  -13.1840   22.3110 H   0  0  0  0  0  0  0  0  0  0  0  0
  -25.7160  -15.2150   20.0300 N   0  0  0  0  0  0  0  0  0  0  0  0
  -24.9860  -15.8790   20.2590 H   0  0  0  0  0  0  0  0  0  0  0  0
  -26.5700  -15.6550   19.7140 H   0  0  0  0  0  0  0  0  0  0  0  0
  -30.3960  -17.4730   22.7800 C   0  0  0  0  0  3  0  0  0  0  0  0
  -29.7510  -16.5810   23.4100 N   0  0  0  0  0  2  0  0  0  0  0  0
  -30.1490  -16.5010   24.3410 H   0  0  0  0  0  0  0  0  0  0  0  0
  -31.5700  -18.2070   23.4320 C   0  0  0  0  0  0  0  0  0  0  0  0
  -32.6140  -18.9020   22.5600 C   0  0  0  0  0  1  0  0  0  0  0  0
  -31.7200  -18.2140   24.6590 O   0  0  0  0  0  0  0  0  0  0  0  0
  -29.0640  -20.5230   18.9610 N   0  0  0  0  0  0  0  0  0  0  0  0
  -29.1710  -20.5640   17.9480 H   0  0  0  0  0  0  0  0  0  0  0  0
  -28.5830  -21.7830   19.5910 C   0  0  0  0  0  2  0  0  0  0  0  0
  -27.7450  -24.1470   18.7690 C   0  0  0  0  0  3  0  0  0  0  0  0
  -27.9850  -22.8130   18.5920 C   0  0  0  0  0  0  0  0  0  0  0  0
  -27.6230  -22.2040   17.2410 C   0  0  0  0  0  1  0  0  0  0  0  0
  -27.9530  -25.1000   19.9580 C   0  0  0  0  0  2  0  0  0  0  0  0
  -28.0320  -26.5110   19.5710 O   0  0  0  0  0  0  0  0  0  0  0  0
  -24.6110  -31.7420   23.0720 C   0  0  0  0  0  0  0  0  0  0  0  0
  -26.8890  -27.2970   19.6760 C   0  0  0  0  0  0  0  0  0  0  0  0
  -23.2390  -30.4030   21.5090 C   0  0  0  0  0  3  0  0  0  0  0  0
  -24.5350  -28.8790   19.9170 C   0  0  0  0  0  0  0  0  0  0  0  0
  -25.7430  -30.7230   21.0900 C   0  0  0  0  0  2  0  0  0  0  0  0
  -25.7510  -29.3630   20.4130 C   0  0  0  0  0  0  0  0  0  0  0  0
  -26.9320  -28.5840   20.2820 C   0  0  0  0  0  3  0  0  0  0  0  0
  -25.6520  -26.8420   19.1730 C   0  0  0  0  0  3  0  0  0  0  0  0
  -24.4840  -27.6220   19.2880 C   0  0  0  0  0  3  0  0  0  0  0  0
  -23.3160  -29.7580   20.0960 C   0  0  0  0  0  2  0  0  0  0  0  0
  -24.5560  -30.9710   21.9460 N   0  0  0  0  0  0  0  0  0  0  0  0
  -23.5890  -32.0150   23.7160 O   0  0  0  0  0  0  0  0  0  0  0  0
  -22.6600  -29.3660   22.5010 C   0  0  0  0  0  0  0  0  0  0  0  0
  -21.3480  -29.1010   22.3940 N   0  0  0  0  0  0  0  0  0  0  0  0
  -23.3900  -28.8060   23.3250 O   0  0  0  0  0  0  0  0  0  0  0  0
  -20.8190  -29.6130   21.7020 H   0  0  0  0  0  0  0  0  0  0  0  0
  -18.0900  -27.5990   22.8490 C   0  0  0  0  0  0  0  0  0  0  0  0
  -20.5970  -28.1300   23.1900 C   0  0  0  0  0  3  0  0  0  0  0  0
  -20.8640  -26.6860   22.7030 C   0  0  0  0  0  2  0  0  0  0  0  0
  -19.8410  -26.1990   21.6730 C   0  0  0  0  0  2  0  0  0  0  0  0
  -18.4280  -26.2380   22.2620 C   0  0  0  0  0  2  0  0  0  0  0  0
  -19.1100  -28.4930   23.2700 C   0  0  0  0  0  0  0  0  0  0  0  0
  -18.7460  -29.7590   23.7780 C   0  0  0  0  0  3  0  0  0  0  0  0
  -17.3930  -30.1350   23.8700 C   0  0  0  0  0  3  0  0  0  0  0  0
  -16.3860  -29.2400   23.4660 C   0  0  0  0  0  3  0  0  0  0  0  0
  -16.7360  -27.9750   22.9620 C   0  0  0  0  0  3  0  0  0  0  0  0
  -25.9580  -32.3390   23.5890 C   0  0  0  0  0  3  0  0  0  0  0  0
  -25.6850  -33.6970   24.0740 N   0  0  0  0  0  0  0  0  0  0  0  0
  -25.9020  -34.8160   23.3700 C   0  0  0  0  0  0  0  0  0  0  0  0
  -26.4290  -34.8120   22.2540 O   0  0  0  0  0  0  0  0  0  0  0  0
  -25.2060  -33.7730   24.9600 H   0  0  0  0  0  0  0  0  0  0  0  0
  -24.1120  -36.5830   23.4130 C   0  0  0  0  0  1  0  0  0  0  0  0
  -25.4650  -36.1520   24.0030 C   0  0  0  0  0  3  0  0  0  0  0  0
  -27.6830  -37.0310   24.5840 C   0  0  0  0  0  1  0  0  0  0  0  0
  -26.4520  -37.2400   23.8260 N   0  0  0  0  0  0  0  0  0  0  0  0
  -26.0560  -38.1360   24.0990 H   0  0  0  0  0  0  0  0  0  0  0  0
  -26.6290  -31.4670   24.7220 C   0  0  1  0  0  0  0  0  0  0  0  0
  -25.6660  -31.0970   25.8730 C   0  0  0  0  0  1  0  0  0  0  0  0
  -27.1960  -30.1530   24.1350 C   0  0  0  0  0  1  0  0  0  0  0  0
  -27.8260  -32.2330   25.3330 C   0  0  0  0  0  1  0  0  0  0  0  0
  1  2  1  0
  2 44  1  0
  3  1  2  0
  4 14  1  0
  4  2  2  0
  5  3  1  0
  5  4  1  0
  6 14  1  0
  7 12  1  0
  8  9  1  0
  8  7  1  0
 10  9  1  0
 10 19  1  0
 10 11  1  0
 12  6  1  0
 12 11  1  0
 13  6  2  0
 14 15  1  0
 16 17  2  0
 17 36  1  0
 18 17  1  0
 18 21  1  0
 19 20  1  0
 19 16  1  0
 20 18  2  0
 21 22  1  0
 22 23  2  0
 24 27  1  0
 24 23  1  0
 25 24  2  0
 26 25  1  0
 26 21  2  0
 27 28  1  0
 28 33  2  0
 28 29  1  0
 29 30  2  0
 30 31  1  0
 31 35  1  0
 32 31  2  0
 33 32  1  0
 34 33  1  0
 36 37  1  0
 37 40  1  0
 37 39  1  0
 38 36  2  0
 41 16  1  0
 41 42  1  0
 43 41  1  0
 44 45  1  0
 44 47  1  0
 45 46  1  0
 47 49  2  0
 48 47  1  0
 50 52  1  0
 50  3  1  0
 51 50  1  0
 53 56  1  0
 54 53  2  0
 54 52  1  0
 55 54  1  0
 57 59  1  0
 57 56  1  0
 58 69  2  0
 59 64  1  0
 60 68  1  0
 60 70  1  0
 61 67  1  0
 61 63  1  0
 62 68  1  0
 63 62  1  0
 64 63  2  0
 65 66  1  0
 65 59  2  0
 66 61  2  0
 67 60  1  0
 68 58  1  0
 70 72  2  0
 71 70  1  0
 73 71  1  0
 74 83  2  0
 74 79  1  0
 75 71  1  0
 75 79  1  0
 76 75  1  0
 77 78  1  0
 77 76  1  0
 78 74  1  0
 79 80  2  0
 80 81  1  0
 82 81  2  0
 83 82  1  0
 84 58  1  0
 84 85  1  0
 84 94  1  0
 85 88  1  0
 86 90  1  0
 86 85  1  0
 87 86  2  0
 90 89  1  0
 92 90  1  0
 92 93  1  0
 92 91  1  0
 94 97  1  1
 94 95  1  0
 96 94  1  0
M  ISO  4   6 100  14 100  56 101  57 101
M  END
>  <TORSDO>  (23) 
F 22

>  <SCORE>  (23) 
-7.151

>  <name>  (23) 
22

>  <ligand_id>  (23) 
22

>  <original_smiles>  (23) 
[H]N=C(C(=O)C([H])([H])[H])c1c(N([H])C(=O)N2C([H])([H])C([H])([H])C([H])([H])C([H])(n3nc(-c4c([H])c([H])c(Oc5c([H])c([H])c(F)c([H])c5F)c([H])c4[H])c(C(=O)N([H])[H])c3N([H])[H])C2([H])[H])sc(N([H])C([H])([H])C(=C([H])C([H])([H])Oc2c([H])c([H])c3c(c2[H])C([H])([H])N(C(=O)C([H])(N([H])C(=O)C([H])(N([H])C([H])([H])[H])C([H])([H])[H])C(C([H])([H])[H])(C([H])([H])[H])C([H])([H])[H])C([H])(C(=O)N([H])C2([H])c4c([H])c([H])c([H])c([H])c4C([H])([H])C([H])([H])C2([H])[H])C3([H])[H])C([H])([H])[H])c1[H]

>  <smiles>  (23) 
[H]N=C(C(=O)C([H])([H])[H])c1c(N([H])C(=O)N2C([H])([H])C([H])([H])C([H])([H])C([H])(n3nc(-c4c([H])c([H])c(Oc5c([H])c([H])c(F)c([H])c5F)c([H])c4[H])c(C(=O)N([H])[H])c3N([H])[H])C2([H])[H])sc(N([H])C([H])([H])C(=C([H])C([H])([H])Oc2c([H])c([H])c3c(c2[H])C([H])([H])N(C(=O)C([H])(N([H])C(=O)C([H])(N([H])C([H])([H])[H])C([H])([H])[H])C(C([H])([H])[H])(C([H])([H])[H])C([H])([H])[H])C([H])(C(=O)N([H])C2([H])c4c([H])c([H])c([H])c([H])c4C([H])([H])C([H])([H])C2([H])[H])C3([H])[H])C([H])([H])[H])c1[H]

$$$$
23:0:0
     RDKit          3D

 96104  0  0  1  0  0  0  0  0999 V2000
  -29.9320  -19.2600   19.5790 C   0  0  0  0  0  0  0  0  0  0  0  0
  -29.6540  -18.0080   20.0810 C   0  0  0  0  0  0  0  0  0  0  0  0
  -29.0470  -20.0900   20.3500 C   0  0  0  0  0  0  0  0  0  0  0  0
  -29.4020  -22.4650   19.5080 C   0  0  0  0  0  0  0  0  0  0  0  0
  -28.3300  -19.3920   21.2210 N   0  0  0  0  0  0  0  0  0  0  0  0
  -28.8510  -21.4990   20.2720 N   0  0  0  0  0  0  0  0  0  0  0  0
  -30.2740  -22.2870   18.6550 O   0  0  0  0  0  0  0  0  0  0  0  0
  -28.7080  -18.0520   21.0550 O   0  0  0  0  0  0  0  0  0  0  0  0
  -28.1490  -21.8330   20.9120 H   0  0  0  0  0  0  0  0  0  0  0  0
  -30.8580  -19.6070   18.5620 N   0  0  0  0  0  0  0  0  0  0  0  0
  -30.8650  -20.5800   18.2420 H   0  0  0  0  0  0  0  0  0  0  0  0
  -31.1490  -18.9450   17.8500 H   0  0  0  0  0  0  0  0  0  0  0  0
  -30.2540  -16.7240   19.7090 C   0  0  0  0  0  3  0  0  0  0  0  0
  -30.1390  -15.6040   20.3290 N   0  0  0  0  0  0  0  0  0  0  0  0
  -30.8410  -14.5370   19.7690 C   0  0  0  0  0  0  0  0  0  0  0  0
  -30.4540  -12.3280   18.7410 C   0  0  0  0  0  2  0  0  0  0  0  0
  -29.4090  -12.4810   17.6190 C   0  0  0  0  0  2  0  0  0  0  0  0
  -27.9830  -12.3370   18.1870 C   0  0  0  0  0  2  0  0  0  0  0  0
  -27.7450  -13.2310   19.4340 C   0  0  0  0  0  3  0  0  0  0  0  0
  -28.8980  -13.0740   20.4500 C   0  0  0  0  0  2  0  0  0  0  0  0
  -30.1650  -13.3560   19.7530 N   0  0  0  0  0  0  0  0  0  0  0  0
  -31.9190  -14.6570   19.1780 O   0  0  0  0  0  0  0  0  0  0  0  0
  -25.4610  -13.8530   20.4460 C   0  0  0  0  0  0  0  0  0  0  0  0
  -24.4170  -13.0840   20.8870 C   0  0  0  0  0  0  0  0  0  0  0  0
  -24.8300  -11.7260   20.7250 C   0  0  0  0  0  0  0  0  0  0  0  0
  -26.4460  -12.9620   20.0470 N   0  0  0  0  0  0  0  0  0  0  0  0
  -26.0740  -11.6750   20.2720 N   0  0  0  0  0  0  0  0  0  0  0  0
  -24.0910  -10.4720   20.9230 C   0  0  0  0  0  0  0  0  0  0  0  0
  -24.5500   -9.4770   21.8150 C   0  0  0  0  0  3  0  0  0  0  0  0
  -23.8140   -8.2880   22.0030 C   0  0  0  0  0  3  0  0  0  0  0  0
  -22.6040   -8.0850   21.2980 C   0  0  0  0  0  0  0  0  0  0  0  0
  -22.1630   -9.0670   20.3930 C   0  0  0  0  0  3  0  0  0  0  0  0
  -22.9000  -10.2480   20.2040 C   0  0  0  0  0  3  0  0  0  0  0  0
  -21.8370   -6.9490   21.3950 O   0  0  0  0  0  0  0  0  0  0  0  0
  -21.7690   -6.2230   22.5570 C   0  0  0  0  0  0  0  0  0  0  0  0
  -21.2670   -6.7790   23.7550 C   0  0  0  0  0  3  0  0  0  0  0  0
  -21.1510   -5.9770   24.9080 C   0  0  0  0  0  3  0  0  0  0  0  0
  -21.5270   -4.6220   24.8640 C   0  0  0  0  0  0  0  0  0  0  0  0
  -22.0240   -4.0660   23.6720 C   0  0  0  0  0  3  0  0  0  0  0  0
  -22.1410   -4.8640   22.5200 C   0  0  0  0  0  0  0  0  0  0  0  0
  -22.5990   -4.3190   21.3680 F   0  0  0  0  0  0  0  0  0  0  0  0
  -21.4080   -3.8480   25.9690 F   0  0  0  0  0  0  0  0  0  0  0  0
  -23.0730  -13.5760   21.3420 C   0  0  0  0  0  0  0  0  0  0  0  0
  -22.4270  -12.8460   22.2460 N   0  0  0  0  0  0  0  0  0  0  0  0
  -22.6050  -14.6390   20.9330 O   0  0  0  0  0  0  0  0  0  0  0  0
  -22.8200  -11.9840   22.5940 H   0  0  0  0  0  0  0  0  0  0  0  0
  -21.5300  -13.1510   22.5950 H   0  0  0  0  0  0  0  0  0  0  0  0
  -25.6470  -15.2270   20.3340 N   0  0  0  0  0  0  0  0  0  0  0  0
  -24.9250  -15.8940   20.5840 H   0  0  0  0  0  0  0  0  0  0  0  0
  -26.4890  -15.6630   19.9800 H   0  0  0  0  0  0  0  0  0  0  0  0
  -28.8550  -23.8900   19.7150 C   0  0  0  0  0  2  0  0  0  0  0  0
  -31.0350  -25.0940   20.4800 C   0  0  0  0  0  1  0  0  0  0  0  0
  -29.5840  -24.7010   20.8160 C   0  0  0  0  0  3  0  0  0  0  0  0
  -28.8030  -25.8790   21.2000 N   0  0  0  0  0  0  0  0  0  0  0  0
  -29.2450  -26.3630   21.9780 H   0  0  0  0  0  0  0  0  0  0  0  0
  -28.8350  -26.8140   20.0950 O   0  0  0  0  0  0  0  0  0  0  0  0
  -24.6840  -31.7070   23.1780 C   0  0  0  0  0  0  0  0  0  0  0  0
  -27.6590  -27.5160   20.0740 C   0  0  0  0  0  0  0  0  0  0  0  0
  -23.6170  -30.3240   21.4250 C   0  0  0  0  0  3  0  0  0  0  0  0
  -25.2050  -28.9040   20.0180 C   0  0  0  0  0  0  0  0  0  0  0  0
  -26.1310  -30.7970   21.3670 C   0  0  0  0  0  2  0  0  0  0  0  0
  -26.3060  -29.4570   20.6840 C   0  0  0  0  0  0  0  0  0  0  0  0
  -27.5400  -28.7690   20.7120 C   0  0  0  0  0  3  0  0  0  0  0  0
  -26.5460  -26.9670   19.4070 C   0  0  0  0  0  3  0  0  0  0  0  0
  -25.3180  -27.6560   19.3770 C   0  0  0  0  0  3  0  0  0  0  0  0
  -23.9230  -29.7070   20.0330 C   0  0  0  0  0  2  0  0  0  0  0  0
  -24.8250  -30.9570   22.0480 N   0  0  0  0  0  0  0  0  0  0  0  0
  -23.5690  -31.9140   23.6730 O   0  0  0  0  0  0  0  0  0  0  0  0
  -22.9650  -29.2410   22.3140 C   0  0  0  0  0  0  0  0  0  0  0  0
  -21.6440  -29.0560   22.1540 N   0  0  0  0  0  0  0  0  0  0  0  0
  -23.6420  -28.5740   23.0990 O   0  0  0  0  0  0  0  0  0  0  0  0
  -21.1550  -29.6510   21.4990 H   0  0  0  0  0  0  0  0  0  0  0  0
  -18.2640  -27.8480   22.5760 C   0  0  0  0  0  0  0  0  0  0  0  0
  -20.8250  -28.0610   22.8480 C   0  0  0  0  0  3  0  0  0  0  0  0
  -20.9140  -26.6820   22.1550 C   0  0  0  0  0  2  0  0  0  0  0  0
  -19.7990  -26.4510   21.1290 C   0  0  0  0  0  2  0  0  0  0  0  0
  -18.4250  -26.5550   21.7940 C   0  0  0  0  0  2  0  0  0  0  0  0
  -19.3930  -28.5620   23.0580 C   0  0  0  0  0  0  0  0  0  0  0  0
  -19.1900  -29.7780   23.7480 C   0  0  0  0  0  3  0  0  0  0  0  0
  -17.8920  -30.2790   23.9570 C   0  0  0  0  0  3  0  0  0  0  0  0
  -16.7760  -29.5600   23.4910 C   0  0  0  0  0  3  0  0  0  0  0  0
  -16.9650  -28.3450   22.8080 C   0  0  0  0  0  3  0  0  0  0  0  0
  -25.9130  -32.3600   23.8850 C   0  0  0  0  0  3  0  0  0  0  0  0
  -25.5610  -33.7540   24.1830 N   0  0  0  0  0  0  0  0  0  0  0  0
  -25.9160  -34.8060   23.4330 C   0  0  0  0  0  0  0  0  0  0  0  0
  -26.6450  -34.7060   22.4420 O   0  0  0  0  0  0  0  0  0  0  0  0
  -24.9190  -33.9040   24.9480 H   0  0  0  0  0  0  0  0  0  0  0  0
  -24.1700  -36.5530   22.9660 C   0  0  0  0  0  1  0  0  0  0  0  0
  -25.3770  -36.1880   23.8460 C   0  0  0  0  0  3  0  0  0  0  0  0
  -27.4340  -37.1390   24.7890 C   0  0  0  0  0  1  0  0  0  0  0  0
  -26.3920  -37.2600   23.7720 N   0  0  0  0  0  0  0  0  0  0  0  0
  -25.9590  -38.1750   23.8690 H   0  0  0  0  0  0  0  0  0  0  0  0
  -26.3530  -31.6020   25.1970 C   0  0  1  0  0  0  0  0  0  0  0  0
  -25.1890  -31.3420   26.1840 C   0  0  0  0  0  1  0  0  0  0  0  0
  -26.9920  -30.2370   24.8500 C   0  0  0  0  0  1  0  0  0  0  0  0
  -27.4370  -32.4210   25.9380 C   0  0  0  0  0  1  0  0  0  0  0  0
  1  2  2  0
  1  3  1  0
  2  8  1  0
  3  5  2  0
  4 51  1  0
  4  6  1  0
  6  3  1  0
  6  9  1  0
  7  4  2  0
  8  5  1  0
 10  1  1  0
 11 10  1  0
 12 10  1  0
 13  2  1  0
 13 14  2  0
 15 14  1  0
 16 21  1  0
 17 18  1  0
 17 16  1  0
 19 18  1  0
 19 26  1  0
 19 20  1  0
 21 15  1  0
 21 20  1  0
 22 15  2  0
 23 24  2  0
 24 43  1  0
 25 24  1  0
 25 28  1  0
 26 27  1  0
 26 23  1  0
 27 25  2  0
 28 29  1  0
 29 30  2  0
 31 34  1  0
 31 30  1  0
 32 31  2  0
 33 32  1  0
 33 28  2  0
 34 35  1  0
 35 36  1  0
 36 37  2  0
 38 37  1  0
 38 42  1  0
 39 38  2  0
 40 35  2  0
 40 39  1  0
 41 40  1  0
 43 44  1  0
 44 46  1  0
 44 47  1  0
 45 43  2  0
 48 23  1  0
 48 49  1  0
 50 48  1  0
 51 53  1  0
 53 52  1  0
 53 54  1  0
 54 55  1  0
 56 54  1  0
 57 68  2  0
 58 56  1  0
 58 63  1  0
 59 67  1  0
 59 69  1  0
 60 66  1  0
 60 62  1  0
 61 67  1  0
 62 63  2  0
 62 61  1  0
 64 58  2  0
 65 64  1  0
 65 60  2  0
 66 59  1  0
 67 57  1  0
 69 71  2  0
 70 69  1  0
 72 70  1  0
 73 82  2  0
 73 78  1  0
 74 70  1  0
 74 78  1  0
 75 74  1  0
 76 77  1  0
 76 75  1  0
 77 73  1  0
 78 79  2  0
 79 80  1  0
 81 80  2  0
 82 81  1  0
 83 57  1  0
 83 84  1  0
 83 93  1  0
 84 87  1  0
 85 89  1  0
 85 84  1  0
 86 85  2  0
 89 88  1  0
 91 89  1  0
 91 92  1  0
 91 90  1  0
 93 96  1  1
 93 94  1  0
 95 93  1  0
M  ISO  4  14 100  15 100  54 101  56 101
M  END
>  <TORSDO>  (24) 
F 21

>  <SCORE>  (24) 
-12.504

>  <name>  (24) 
23

>  <ligand_id>  (24) 
23

>  <original_smiles>  (24) 
[H]C(=NC(=O)N1C([H])([H])C([H])([H])C([H])([H])C([H])(n2nc(-c3c([H])c([H])c(Oc4c([H])c([H])c(F)c([H])c4F)c([H])c3[H])c(C(=O)N([H])[H])c2N([H])[H])C1([H])[H])c1onc(N([H])C(=O)C([H])([H])C([H])(N([H])Oc2c([H])c([H])c3c(c2[H])C([H])([H])N(C(=O)C([H])(N([H])C(=O)C([H])(N([H])C([H])([H])[H])C([H])([H])[H])C(C([H])([H])[H])(C([H])([H])[H])C([H])([H])[H])C([H])(C(=O)N([H])C2([H])c4c([H])c([H])c([H])c([H])c4C([H])([H])C([H])([H])C2([H])[H])C3([H])[H])C([H])([H])[H])c1N([H])[H]

>  <smiles>  (24) 
[H]C(=NC(=O)N1C([H])([H])C([H])([H])C([H])([H])C([H])(n2nc(-c3c([H])c([H])c(Oc4c([H])c([H])c(F)c([H])c4F)c([H])c3[H])c(C(=O)N([H])[H])c2N([H])[H])C1([H])[H])c1onc(N([H])C(=O)C([H])([H])C([H])(N([H])Oc2c([H])c([H])c3c(c2[H])C([H])([H])N(C(=O)C([H])(N([H])C(=O)C([H])(N([H])C([H])([H])[H])C([H])([H])[H])C(C([H])([H])[H])(C([H])([H])[H])C([H])([H])[H])C([H])(C(=O)N([H])C2([H])c4c([H])c([H])c([H])c([H])c4C([H])([H])C([H])([H])C2([H])[H])C3([H])[H])C([H])([H])[H])c1N([H])[H]

$$$$
24:0:0
     RDKit          3D

 95103  0  0  1  0  0  0  0  0999 V2000
  -28.4980  -19.2870   20.9680 C   0  0  0  0  0  3  0  0  0  0  0  0
  -30.3840  -17.9460   21.0830 C   0  0  0  0  0  0  0  0  0  0  0  0
  -29.2820  -20.4580   20.7740 C   0  0  0  0  0  0  0  0  0  0  0  0
  -31.1830  -19.1110   20.8840 C   0  0  0  0  0  0  0  0  0  0  0  0
  -29.0300  -18.0410   21.1100 N   0  0  0  0  0  0  0  0  0  0  0  0
  -30.6400  -20.3390   20.7240 N   0  0  0  0  0  0  0  0  0  0  0  0
  -32.5730  -19.0910   20.8730 N   0  0  0  0  0  0  0  0  0  0  0  0
  -33.0770  -18.2820   21.2180 H   0  0  0  0  0  0  0  0  0  0  0  0
  -33.0810  -19.9640   20.9380 H   0  0  0  0  0  0  0  0  0  0  0  0
  -28.9810  -22.8620   20.1090 C   0  0  0  0  0  0  0  0  0  0  0  0
  -28.6000  -21.7200   20.7270 N   0  0  0  0  0  0  0  0  0  0  0  0
  -29.8770  -22.8760   19.2600 O   0  0  0  0  0  0  0  0  0  0  0  0
  -27.7320  -21.7570   21.2450 H   0  0  0  0  0  0  0  0  0  0  0  0
  -28.2310  -24.1830   20.4580 C   0  0  0  0  0  2  0  0  0  0  0  0
  -28.5830  -25.4230   19.5640 C   0  0  0  0  0  2  0  0  0  0  0  0
  -28.4350  -26.7270   20.1740 O   0  0  0  0  0  0  0  0  0  0  0  0
  -24.6060  -31.8980   23.2190 C   0  0  0  0  0  0  0  0  0  0  0  0
  -27.2430  -27.4330   20.1390 C   0  0  0  0  0  0  0  0  0  0  0  0
  -23.3930  -30.4930   21.5810 C   0  0  0  0  0  3  0  0  0  0  0  0
  -24.8470  -28.9580   20.1480 C   0  0  0  0  0  0  0  0  0  0  0  0
  -25.9190  -30.8540   21.3720 C   0  0  0  0  0  2  0  0  0  0  0  0
  -26.0050  -29.4790   20.7340 C   0  0  0  0  0  0  0  0  0  0  0  0
  -27.2020  -28.7230   20.7290 C   0  0  0  0  0  3  0  0  0  0  0  0
  -26.0600  -26.9280   19.5550 C   0  0  0  0  0  3  0  0  0  0  0  0
  -24.8730  -27.6850   19.5520 C   0  0  0  0  0  3  0  0  0  0  0  0
  -23.5990  -29.8110   20.2010 C   0  0  0  0  0  2  0  0  0  0  0  0
  -24.6580  -31.1010   22.1140 N   0  0  0  0  0  0  0  0  0  0  0  0
  -23.5270  -32.1640   23.7670 O   0  0  0  0  0  0  0  0  0  0  0  0
  -22.7520  -29.4710   22.5490 C   0  0  0  0  0  0  0  0  0  0  0  0
  -21.4280  -29.2810   22.4300 N   0  0  0  0  0  0  0  0  0  0  0  0
  -23.4450  -28.8490   23.3590 O   0  0  0  0  0  0  0  0  0  0  0  0
  -20.9300  -29.8390   21.7500 H   0  0  0  0  0  0  0  0  0  0  0  0
  -18.0630  -28.0690   22.9510 C   0  0  0  0  0  0  0  0  0  0  0  0
  -20.6220  -28.3400   23.2080 C   0  0  0  0  0  3  0  0  0  0  0  0
  -20.7280  -26.9080   22.6320 C   0  0  0  0  0  2  0  0  0  0  0  0
  -19.6210  -26.5800   21.6240 C   0  0  0  0  0  2  0  0  0  0  0  0
  -18.2420  -26.7190   22.2770 C   0  0  0  0  0  2  0  0  0  0  0  0
  -19.1810  -28.8360   23.3750 C   0  0  0  0  0  0  0  0  0  0  0  0
  -18.9590  -30.0990   23.9670 C   0  0  0  0  0  3  0  0  0  0  0  0
  -17.6530  -30.5950   24.1400 C   0  0  0  0  0  3  0  0  0  0  0  0
  -16.5500  -29.8240   23.7310 C   0  0  0  0  0  3  0  0  0  0  0  0
  -16.7550  -28.5640   23.1420 C   0  0  0  0  0  3  0  0  0  0  0  0
  -25.8930  -32.5330   23.8310 C   0  0  0  0  0  3  0  0  0  0  0  0
  -26.4210  -31.7680   25.1080 C   0  0  1  0  0  0  0  0  0  0  0  0
  -25.3350  -31.5320   26.1810 C   0  0  0  0  0  1  0  0  0  0  0  0
  -27.0070  -30.3900   24.7180 C   0  0  0  0  0  1  0  0  0  0  0  0
  -27.5690  -32.5700   25.7630 C   0  0  0  0  0  1  0  0  0  0  0  0
  -25.5820  -33.9300   24.1560 N   0  0  0  0  0  0  0  0  0  0  0  0
  -25.9130  -34.9820   23.3930 C   0  0  0  0  0  0  0  0  0  0  0  0
  -26.5810  -34.8760   22.3610 O   0  0  0  0  0  0  0  0  0  0  0  0
  -24.9850  -34.0850   24.9550 H   0  0  0  0  0  0  0  0  0  0  0  0
  -24.1900  -36.7800   23.0240 C   0  0  0  0  0  1  0  0  0  0  0  0
  -25.4240  -36.3720   23.8460 C   0  0  0  0  0  3  0  0  0  0  0  0
  -27.5500  -37.2580   24.6970 C   0  0  0  0  0  1  0  0  0  0  0  0
  -26.4590  -37.4230   23.7400 N   0  0  0  0  0  0  0  0  0  0  0  0
  -26.0510  -38.3440   23.8790 H   0  0  0  0  0  0  0  0  0  0  0  0
  -31.0050  -16.5810   21.4360 C   0  0  0  0  0  2  0  0  0  0  0  0
  -30.7500  -14.4630   20.1380 C   0  0  0  0  0  0  0  0  0  0  0  0
  -30.3170  -12.3650   18.9080 C   0  0  0  0  0  2  0  0  0  0  0  0
  -29.3050  -12.6080   17.7720 C   0  0  0  0  0  2  0  0  0  0  0  0
  -27.8620  -12.4700   18.2910 C   0  0  0  0  0  2  0  0  0  0  0  0
  -27.6140  -13.2830   19.5890 C   0  0  0  0  0  3  0  0  0  0  0  0
  -28.7310  -13.0170   20.6250 C   0  0  0  0  0  2  0  0  0  0  0  0
  -30.0240  -13.3220   19.9890 N   0  0  0  0  0  0  0  0  0  0  0  0
  -31.7810  -14.6780   19.4960 O   0  0  0  0  0  0  0  0  0  0  0  0
  -30.2810  -15.3650   21.0190 N   0  0  0  0  0  0  0  0  0  0  0  0
  -29.4260  -15.1450   21.5060 H   0  0  0  0  0  0  0  0  0  0  0  0
  -25.2710  -13.8950   20.4530 C   0  0  0  0  0  0  0  0  0  0  0  0
  -24.2180  -13.1260   20.8670 C   0  0  0  0  0  0  0  0  0  0  0  0
  -24.6600  -11.7720   20.7750 C   0  0  0  0  0  0  0  0  0  0  0  0
  -26.2900  -13.0110   20.1410 N   0  0  0  0  0  0  0  0  0  0  0  0
  -25.9300  -11.7250   20.3910 N   0  0  0  0  0  0  0  0  0  0  0  0
  -23.9340  -10.5120   20.9810 C   0  0  0  0  0  0  0  0  0  0  0  0
  -24.3950   -9.5320   21.8880 C   0  0  0  0  0  3  0  0  0  0  0  0
  -23.6700   -8.3380   22.0790 C   0  0  0  0  0  3  0  0  0  0  0  0
  -22.4680   -8.1140   21.3680 C   0  0  0  0  0  0  0  0  0  0  0  0
  -22.0250   -9.0820   20.4500 C   0  0  0  0  0  3  0  0  0  0  0  0
  -22.7500  -10.2700   20.2550 C   0  0  0  0  0  3  0  0  0  0  0  0
  -21.7110   -6.9730   21.4730 O   0  0  0  0  0  0  0  0  0  0  0  0
  -21.6840   -6.2300   22.6270 C   0  0  0  0  0  0  0  0  0  0  0  0
  -21.2630   -6.7800   23.8570 C   0  0  0  0  0  3  0  0  0  0  0  0
  -21.1810   -5.9640   25.0020 C   0  0  0  0  0  3  0  0  0  0  0  0
  -21.5140   -4.5980   24.9190 C   0  0  0  0  0  0  0  0  0  0  0  0
  -21.9290   -4.0470   23.6950 C   0  0  0  0  0  3  0  0  0  0  0  0
  -22.0120   -4.8600   22.5510 C   0  0  0  0  0  0  0  0  0  0  0  0
  -22.3910   -4.3220   21.3670 F   0  0  0  0  0  0  0  0  0  0  0  0
  -21.4300   -3.8110   26.0170 F   0  0  0  0  0  0  0  0  0  0  0  0
  -22.8450  -13.6100   21.2350 C   0  0  0  0  0  0  0  0  0  0  0  0
  -22.1630  -12.8980   22.1260 N   0  0  0  0  0  0  0  0  0  0  0  0
  -22.3900  -14.6540   20.7700 O   0  0  0  0  0  0  0  0  0  0  0  0
  -22.5450  -12.0510   22.5230 H   0  0  0  0  0  0  0  0  0  0  0  0
  -21.2450  -13.2020   22.4140 H   0  0  0  0  0  0  0  0  0  0  0  0
  -25.4440  -15.2690   20.2940 N   0  0  0  0  0  0  0  0  0  0  0  0
  -24.7000  -15.9360   20.4680 H   0  0  0  0  0  0  0  0  0  0  0  0
  -26.2940  -15.7010   19.9520 H   0  0  0  0  0  0  0  0  0  0  0  0
  1  5  1  0
  2  5  2  0
  2 57  1  0
  3  1  2  0
  4  2  1  0
  6  3  1  0
  6  4  2  0
  7  4  1  0
  7  9  1  0
  7  8  1  0
 10 14  1  0
 10 11  1  0
 11  3  1  0
 11 13  1  0
 12 10  2  0
 15 16  1  0
 15 14  1  0
 17 28  2  0
 18 16  1  0
 18 23  1  0
 19 27  1  0
 19 29  1  0
 20 26  1  0
 20 22  1  0
 21 27  1  0
 22 21  1  0
 23 22  2  0
 24 18  2  0
 25 24  1  0
 25 20  2  0
 26 19  1  0
 27 17  1  0
 29 31  2  0
 30 29  1  0
 32 30  1  0
 33 42  2  0
 33 38  1  0
 34 30  1  0
 34 38  1  0
 35 34  1  0
 36 37  1  0
 36 35  1  0
 37 33  1  0
 38 39  2  0
 39 40  1  0
 41 40  2  0
 42 41  1  0
 43 17  1  0
 43 48  1  0
 43 44  1  0
 44 47  1  1
 44 45  1  0
 46 44  1  0
 48 51  1  0
 49 53  1  0
 49 48  1  0
 50 49  2  0
 53 52  1  0
 55 53  1  0
 55 56  1  0
 55 54  1  0
 58 66  1  0
 59 64  1  0
 60 61  1  0
 60 59  1  0
 62 61  1  0
 62 71  1  0
 62 63  1  0
 64 58  1  0
 64 63  1  0
 65 58  2  0
 66 57  1  0
 66 67  1  0
 68 69  2  0
 69 88  1  0
 70 69  1  0
 70 73  1  0
 71 72  1  0
 71 68  1  0
 72 70  2  0
 73 74  1  0
 74 75  2  0
 76 79  1  0
 76 75  1  0
 77 76  2  0
 78 77  1  0
 78 73  2  0
 79 80  1  0
 80 81  1  0
 81 82  2  0
 83 82  1  0
 83 87  1  0
 84 83  2  0
 85 80  2  0
 85 84  1  0
 86 85  1  0
 88 89  1  0
 89 92  1  0
 89 91  1  0
 90 88  2  0
 93 68  1  0
 93 94  1  0
 95 93  1  0
M  ISO  4  15 101  16 101  58 100  66 100
M  END
>  <TORSDO>  (25) 
F 20

>  <SCORE>  (25) 
-13.552

>  <name>  (25) 
24

>  <ligand_id>  (25) 
24

>  <original_smiles>  (25) 
[H]c1nc(C([H])([H])N([H])C(=O)N2C([H])([H])C([H])([H])C([H])([H])C([H])(n3nc(-c4c([H])c([H])c(Oc5c([H])c([H])c(F)c([H])c5F)c([H])c4[H])c(C(=O)N([H])[H])c3N([H])[H])C2([H])[H])c(N([H])[H])nc1N([H])C(=O)C([H])([H])C([H])([H])Oc1c([H])c([H])c2c(c1[H])C([H])([H])N(C(=O)C([H])(N([H])C(=O)C([H])(N([H])C([H])([H])[H])C([H])([H])[H])C(C([H])([H])[H])(C([H])([H])[H])C([H])([H])[H])C([H])(C(=O)N([H])C1([H])c3c([H])c([H])c([H])c([H])c3C([H])([H])C([H])([H])C1([H])[H])C2([H])[H]

>  <smiles>  (25) 
[H]c1nc(C([H])([H])N([H])C(=O)N2C([H])([H])C([H])([H])C([H])([H])C([H])(n3nc(-c4c([H])c([H])c(Oc5c([H])c([H])c(F)c([H])c5F)c([H])c4[H])c(C(=O)N([H])[H])c3N([H])[H])C2([H])[H])c(N([H])[H])nc1N([H])C(=O)C([H])([H])C([H])([H])Oc1c([H])c([H])c2c(c1[H])C([H])([H])N(C(=O)C([H])(N([H])C(=O)C([H])(N([H])C([H])([H])[H])C([H])([H])[H])C(C([H])([H])[H])(C([H])([H])[H])C([H])([H])[H])C([H])(C(=O)N([H])C1([H])c3c([H])c([H])c([H])c([H])c3C([H])([H])C([H])([H])C1([H])[H])C2([H])[H]

$$$$
25:0:0
     RDKit          3D

100108  0  0  1  0  0  0  0  0999 V2000
  -30.8890  -21.9060   19.8320 C   0  0  0  0  0  0  0  0  0  0  0  0
  -32.1940  -21.9850   20.1190 N   0  0  0  0  0  4  0  0  0  0  0  0
  -30.3140  -23.1750   19.7170 N   0  0  0  0  0  0  0  0  0  0  0  0
  -32.6650  -21.0930   19.9980 H   0  0  0  0  0  0  0  0  0  0  0  0
  -32.7470  -22.8090   20.2830 H   0  0  0  0  0  0  0  0  0  0  0  0
  -31.0520  -23.8580   19.7640 H   0  0  0  0  0  0  0  0  0  0  0  0
  -29.2220  -18.3970   20.3030 C   0  0  0  0  0  3  0  0  0  0  0  0
  -31.5100  -18.2410   19.6620 C   0  0  0  0  0  3  0  0  0  0  0  0
  -29.2860  -19.8210   20.1480 C   0  0  0  0  0  0  0  0  0  0  0  0
  -30.3510  -17.5480   20.0910 C   0  0  0  0  0  0  0  0  0  0  0  0
  -30.4930  -20.4200   19.7160 C   0  0  0  0  0  0  0  0  0  0  0  0
  -31.5760  -19.6010   19.4870 N   0  0  0  0  0  0  0  0  0  0  0  0
  -31.0430  -15.0070   19.9640 C   0  0  0  0  0  0  0  0  0  0  0  0
  -30.8240  -12.7110   19.0080 C   0  0  0  0  0  2  0  0  0  0  0  0
  -29.8530  -12.7920   17.8080 C   0  0  0  0  0  2  0  0  0  0  0  0
  -28.3880  -12.6500   18.2740 C   0  0  0  0  0  2  0  0  0  0  0  0
  -28.0600  -13.5670   19.4840 C   0  0  0  0  0  3  0  0  0  0  0  0
  -29.1430  -13.4520   20.5810 C   0  0  0  0  0  2  0  0  0  0  0  0
  -30.4370  -13.7730   19.9610 N   0  0  0  0  0  0  0  0  0  0  0  0
  -32.2000  -15.1460   19.5580 O   0  0  0  0  0  0  0  0  0  0  0  0
  -30.2390  -16.0820   20.2830 N   0  0  0  0  0  0  0  0  0  0  0  0
  -29.3540  -15.7810   20.6650 H   0  0  0  0  0  0  0  0  0  0  0  0
  -25.7230  -14.2330   20.3200 C   0  0  0  0  0  0  0  0  0  0  0  0
  -24.6410  -13.4880   20.7060 C   0  0  0  0  0  0  0  0  0  0  0  0
  -25.0460  -12.1220   20.6090 C   0  0  0  0  0  0  0  0  0  0  0  0
  -26.7210  -13.3200   20.0130 N   0  0  0  0  0  0  0  0  0  0  0  0
  -26.3210  -12.0440   20.2490 N   0  0  0  0  0  0  0  0  0  0  0  0
  -24.2750  -10.8820   20.7840 C   0  0  0  0  0  0  0  0  0  0  0  0
  -24.6900   -9.8790   21.6870 C   0  0  0  0  0  3  0  0  0  0  0  0
  -23.9240   -8.7040   21.8510 C   0  0  0  0  0  3  0  0  0  0  0  0
  -22.7310   -8.5260   21.1110 C   0  0  0  0  0  0  0  0  0  0  0  0
  -22.3350   -9.5190   20.1980 C   0  0  0  0  0  3  0  0  0  0  0  0
  -23.1010  -10.6840   20.0330 C   0  0  0  0  0  3  0  0  0  0  0  0
  -21.9370   -7.4060   21.1850 O   0  0  0  0  0  0  0  0  0  0  0  0
  -21.8640   -6.6490   22.3260 C   0  0  0  0  0  0  0  0  0  0  0  0
  -21.4560   -7.1990   23.5600 C   0  0  0  0  0  3  0  0  0  0  0  0
  -21.3270   -6.3700   24.6940 C   0  0  0  0  0  3  0  0  0  0  0  0
  -21.5970   -4.9920   24.5940 C   0  0  0  0  0  0  0  0  0  0  0  0
  -21.9980   -4.4420   23.3630 C   0  0  0  0  0  3  0  0  0  0  0  0
  -22.1280   -5.2670   22.2330 C   0  0  0  0  0  0  0  0  0  0  0  0
  -22.4950   -4.7260   21.0460 F   0  0  0  0  0  0  0  0  0  0  0  0
  -21.4660   -4.1960   25.6790 F   0  0  0  0  0  0  0  0  0  0  0  0
  -23.2740  -14.0100   21.0480 C   0  0  0  0  0  0  0  0  0  0  0  0
  -22.5530  -13.3200   21.9240 N   0  0  0  0  0  0  0  0  0  0  0  0
  -22.8570  -15.0660   20.5730 O   0  0  0  0  0  0  0  0  0  0  0  0
  -22.9030  -12.4660   22.3330 H   0  0  0  0  0  0  0  0  0  0  0  0
  -21.6370  -13.6530   22.1910 H   0  0  0  0  0  0  0  0  0  0  0  0
  -25.9380  -15.6010   20.1830 N   0  0  0  0  0  0  0  0  0  0  0  0
  -25.1950  -16.2780   20.3220 H   0  0  0  0  0  0  0  0  0  0  0  0
  -26.7760  -16.0100   19.7920 H   0  0  0  0  0  0  0  0  0  0  0  0
  -28.1070  -20.6940   20.5250 C   0  0  1  0  0  0  0  0  0  0  0  0
  -27.1620  -20.0010   21.1610 F   0  0  0  0  0  0  0  0  0  0  0  0
  -28.5210  -21.6720   21.3280 F   0  0  0  0  0  0  0  0  0  0  0  0
  -27.5840  -21.2320   19.4260 F   0  0  0  0  0  0  0  0  0  0  0  0
  -29.0560  -23.9720   19.3660 C   0  0  0  0  0  2  0  0  0  0  0  0
  -28.9200  -25.3940   20.1330 C   0  0  0  0  0  3  0  0  0  0  0  0
  -28.2160  -25.2250   21.4930 C   0  0  0  0  0  0  0  0  0  0  0  0
  -29.1060  -25.2150   22.7290 C   0  0  0  0  0  1  0  0  0  0  0  0
  -27.0010  -25.0410   21.5910 O   0  0  0  0  0  0  0  0  0  0  0  0
  -28.6310  -26.7240   19.4910 O   0  0  0  0  0  0  0  0  0  0  0  0
  -24.6560  -31.6840   22.9950 C   0  0  0  0  0  0  0  0  0  0  0  0
  -27.4380  -27.4580   19.6200 C   0  0  0  0  0  0  0  0  0  0  0  0
  -23.4940  -30.3440   21.2730 C   0  0  0  0  0  3  0  0  0  0  0  0
  -24.9960  -28.9500   19.7380 C   0  0  0  0  0  0  0  0  0  0  0  0
  -26.0130  -30.7930   21.0840 C   0  0  0  0  0  2  0  0  0  0  0  0
  -26.1470  -29.4610   20.3520 C   0  0  0  0  0  0  0  0  0  0  0  0
  -27.3710  -28.7300   20.2750 C   0  0  0  0  0  3  0  0  0  0  0  0
  -26.2630  -26.9930   18.9980 C   0  0  0  0  0  3  0  0  0  0  0  0
  -25.0560  -27.7250   19.0520 C   0  0  0  0  0  3  0  0  0  0  0  0
  -23.7210  -29.7640   19.8510 C   0  0  0  0  0  2  0  0  0  0  0  0
  -24.7400  -30.9560   21.8420 N   0  0  0  0  0  0  0  0  0  0  0  0
  -23.5680  -31.8770   23.5570 O   0  0  0  0  0  0  0  0  0  0  0  0
  -22.8870  -29.2410   22.1720 C   0  0  0  0  0  0  0  0  0  0  0  0
  -21.5620  -29.0370   22.0720 N   0  0  0  0  0  0  0  0  0  0  0  0
  -23.6070  -28.5710   22.9190 O   0  0  0  0  0  0  0  0  0  0  0  0
  -21.0390  -29.6300   21.4410 H   0  0  0  0  0  0  0  0  0  0  0  0
  -18.2320  -27.7230   22.5830 C   0  0  0  0  0  0  0  0  0  0  0  0
  -20.7920  -28.0220   22.7890 C   0  0  0  0  0  3  0  0  0  0  0  0
  -20.9050  -26.6470   22.0920 C   0  0  0  0  0  2  0  0  0  0  0  0
  -19.7750  -26.3830   21.0910 C   0  0  0  0  0  2  0  0  0  0  0  0
  -18.4150  -26.4400   21.7910 C   0  0  0  0  0  2  0  0  0  0  0  0
  -19.3480  -28.4740   23.0370 C   0  0  0  0  0  0  0  0  0  0  0  0
  -19.1220  -29.6780   23.7400 C   0  0  0  0  0  3  0  0  0  0  0  0
  -17.8120  -30.1300   23.9910 C   0  0  0  0  0  3  0  0  0  0  0  0
  -16.7110  -29.3740   23.5510 C   0  0  0  0  0  3  0  0  0  0  0  0
  -16.9230  -28.1710   22.8540 C   0  0  0  0  0  3  0  0  0  0  0  0
  -25.9180  -32.3300   23.6490 C   0  0  0  0  0  3  0  0  0  0  0  0
  -25.5630  -33.7000   24.0440 N   0  0  0  0  0  0  0  0  0  0  0  0
  -25.8800  -34.7990   23.3480 C   0  0  0  0  0  0  0  0  0  0  0  0
  -26.5690  -34.7680   22.3250 O   0  0  0  0  0  0  0  0  0  0  0  0
  -24.9520  -33.7970   24.8410 H   0  0  0  0  0  0  0  0  0  0  0  0
  -24.1030  -36.5560   23.0600 C   0  0  0  0  0  1  0  0  0  0  0  0
  -25.3460  -36.1490   23.8670 C   0  0  0  0  0  3  0  0  0  0  0  0
  -27.4400  -37.0490   24.7780 C   0  0  0  0  0  1  0  0  0  0  0  0
  -26.3500  -37.2340   23.8250 N   0  0  0  0  0  0  0  0  0  0  0  0
  -25.9150  -38.1330   24.0110 H   0  0  0  0  0  0  0  0  0  0  0  0
  -26.4610  -31.5190   24.8890 C   0  0  1  0  0  0  0  0  0  0  0  0
  -25.3770  -31.2030   25.9450 C   0  0  0  0  0  1  0  0  0  0  0  0
  -27.0820  -30.1770   24.4360 C   0  0  0  0  0  1  0  0  0  0  0  0
  -27.5910  -32.3160   25.5840 C   0  0  0  0  0  1  0  0  0  0  0  0
  1  2  2  0
  2  5  1  0
  3  6  1  0
  3  1  1  0
  4  2  1  0
  8 10  1  0
  9  7  1  0
  9 51  1  0
 10 21  1  0
 10  7  2  0
 11  1  1  0
 11  9  2  0
 12  8  2  0
 12 11  1  0
 13 21  1  0
 14 19  1  0
 15 16  1  0
 15 14  1  0
 17 16  1  0
 17 26  1  0
 17 18  1  0
 19 13  1  0
 19 18  1  0
 20 13  2  0
 21 22  1  0
 23 24  2  0
 24 43  1  0
 25 24  1  0
 25 28  1  0
 26 27  1  0
 26 23  1  0
 27 25  2  0
 28 29  1  0
 29 30  2  0
 31 34  1  0
 31 30  1  0
 32 31  2  0
 33 32  1  0
 33 28  2  0
 34 35  1  0
 35 36  1  0
 36 37  2  0
 38 37  1  0
 38 42  1  0
 39 38  2  0
 40 35  2  0
 40 39  1  0
 41 40  1  0
 43 44  1  0
 44 47  1  0
 44 46  1  0
 45 43  2  0
 48 23  1  0
 48 49  1  0
 50 48  1  0
 51 52  1  1
 51 53  1  0
 54 51  1  0
 55  3  1  0
 56 55  1  0
 56 57  1  0
 57 59  2  0
 57 58  1  0
 60 62  1  0
 60 56  1  0
 61 72  2  0
 62 67  1  0
 63 71  1  0
 63 73  1  0
 64 70  1  0
 64 66  1  0
 65 71  1  0
 66 65  1  0
 67 66  2  0
 68 69  1  0
 68 62  2  0
 69 64  2  0
 70 63  1  0
 71 61  1  0
 73 75  2  0
 74 73  1  0
 76 74  1  0
 77 86  2  0
 77 82  1  0
 78 74  1  0
 78 82  1  0
 79 78  1  0
 80 81  1  0
 80 79  1  0
 81 77  1  0
 82 83  2  0
 83 84  1  0
 85 84  2  0
 86 85  1  0
 87 61  1  0
 87 88  1  0
 87 97  1  0
 88 91  1  0
 89 93  1  0
 89 88  1  0
 90 89  2  0
 93 92  1  0
 95 93  1  0
 95 96  1  0
 95 94  1  0
 97100  1  1
 97 98  1  0
 99 97  1  0
M  ISO  4  13 100  21 100  56 101  60 101
M  END
>  <TORSDO>  (26) 
F 21

>  <SCORE>  (26) 
-12.243

>  <name>  (26) 
25

>  <ligand_id>  (26) 
25

>  <original_smiles>  (26) 
[H]c1nc(C(N([H])[H])=[N+]([H])C([H])([H])C([H])(Oc2c([H])c([H])c3c(c2[H])C([H])([H])N(C(=O)C([H])(N([H])C(=O)C([H])(N([H])C([H])([H])[H])C([H])([H])[H])C(C([H])([H])[H])(C([H])([H])[H])C([H])([H])[H])C([H])(C(=O)N([H])C2([H])c4c([H])c([H])c([H])c([H])c4C([H])([H])C([H])([H])C2([H])[H])C3([H])[H])C(=O)C([H])([H])[H])c(C(F)(F)F)c([H])c1N([H])C(=O)N1C([H])([H])C([H])([H])C([H])([H])C([H])(n2nc(-c3c([H])c([H])c(Oc4c([H])c([H])c(F)c([H])c4F)c([H])c3[H])c(C(=O)N([H])[H])c2N([H])[H])C1([H])[H]

>  <smiles>  (26) 
[H]c1nc(C(N([H])[H])=[N+]([H])C([H])([H])C([H])(Oc2c([H])c([H])c3c(c2[H])C([H])([H])N(C(=O)C([H])(N([H])C(=O)C([H])(N([H])C([H])([H])[H])C([H])([H])[H])C(C([H])([H])[H])(C([H])([H])[H])C([H])([H])[H])C([H])(C(=O)N([H])C2([H])c4c([H])c([H])c([H])c([H])c4C([H])([H])C([H])([H])C2([H])[H])C3([H])[H])C(=O)C([H])([H])[H])c(C(F)(F)F)c([H])c1N([H])C(=O)N1C([H])([H])C([H])([H])C([H])([H])C([H])(n2nc(-c3c([H])c([H])c(Oc4c([H])c([H])c(F)c([H])c4F)c([H])c3[H])c(C(=O)N([H])[H])c2N([H])[H])C1([H])[H]

$$$$
26:0:0
     RDKit          3D

 91 99  0  0  1  0  0  0  0  0999 V2000
  -29.1760  -22.2840   20.5040 C   0  0  0  0  0  0  0  0  0  0  0  0
  -28.8480  -20.9670   20.1610 N   0  0  0  0  0  0  0  0  0  0  0  0
  -30.1140  -22.4770   21.2790 O   0  0  0  0  0  0  0  0  0  0  0  0
  -27.9990  -20.8760   19.6170 H   0  0  0  0  0  0  0  0  0  0  0  0
  -30.5560  -14.8680   20.3590 C   0  0  0  0  0  0  0  0  0  0  0  0
  -30.4120  -12.5570   19.3830 C   0  0  0  0  0  2  0  0  0  0  0  0
  -29.4760  -12.5620   18.1540 C   0  0  0  0  0  2  0  0  0  0  0  0
  -28.0130  -12.3610   18.5910 C   0  0  0  0  0  2  0  0  0  0  0  0
  -27.6120  -13.2760   19.7770 C   0  0  0  0  0  3  0  0  0  0  0  0
  -28.6660  -13.2530   20.9060 C   0  0  0  0  0  2  0  0  0  0  0  0
  -29.9520  -13.6250   20.3040 N   0  0  0  0  0  0  0  0  0  0  0  0
  -31.7580  -14.9490   20.0830 O   0  0  0  0  0  0  0  0  0  0  0  0
  -30.8630  -19.4880   20.7190 C   0  0  0  0  0  3  0  0  0  0  0  0
  -29.5500  -19.7560   20.3880 C   0  0  0  0  0  0  0  0  0  0  0  0
  -29.9640  -17.4720   20.4690 C   0  0  0  0  0  0  0  0  0  0  0  0
  -31.1120  -18.0960   20.7550 N   0  0  0  0  0  0  0  0  0  0  0  0
  -29.7320  -15.9940   20.4750 N   0  0  0  0  0  0  0  0  0  0  0  0
  -28.9780  -18.4500   20.2390 O   0  0  0  0  0  0  0  0  0  0  0  0
  -28.7590  -15.7550   20.5480 H   0  0  0  0  0  0  0  0  0  0  0  0
  -25.2190  -13.8580   20.4960 C   0  0  0  0  0  0  0  0  0  0  0  0
  -24.1560  -13.0800   20.8660 C   0  0  0  0  0  0  0  0  0  0  0  0
  -24.6280  -11.7320   20.8460 C   0  0  0  0  0  0  0  0  0  0  0  0
  -26.2690  -12.9840   20.2680 N   0  0  0  0  0  0  0  0  0  0  0  0
  -25.9210  -11.7010   20.5450 N   0  0  0  0  0  0  0  0  0  0  0  0
  -23.9070  -10.4670   21.0380 C   0  0  0  0  0  0  0  0  0  0  0  0
  -24.3430   -9.5050   21.9740 C   0  0  0  0  0  3  0  0  0  0  0  0
  -23.6210   -8.3040   22.1540 C   0  0  0  0  0  3  0  0  0  0  0  0
  -22.4500   -8.0590   21.3990 C   0  0  0  0  0  0  0  0  0  0  0  0
  -22.0320   -9.0130   20.4530 C   0  0  0  0  0  3  0  0  0  0  0  0
  -22.7530  -10.2040   20.2720 C   0  0  0  0  0  3  0  0  0  0  0  0
  -21.7020   -6.9100   21.4860 O   0  0  0  0  0  0  0  0  0  0  0  0
  -21.6650   -6.1630   22.6360 C   0  0  0  0  0  0  0  0  0  0  0  0
  -21.2460   -6.7130   23.8680 C   0  0  0  0  0  3  0  0  0  0  0  0
  -21.1550   -5.8920   25.0100 C   0  0  0  0  0  3  0  0  0  0  0  0
  -21.4730   -4.5230   24.9220 C   0  0  0  0  0  0  0  0  0  0  0  0
  -21.8850   -3.9730   23.6950 C   0  0  0  0  0  3  0  0  0  0  0  0
  -21.9770   -4.7910   22.5550 C   0  0  0  0  0  0  0  0  0  0  0  0
  -22.3530   -4.2520   21.3700 F   0  0  0  0  0  0  0  0  0  0  0  0
  -21.3790   -3.7330   26.0160 F   0  0  0  0  0  0  0  0  0  0  0  0
  -22.7550  -13.5530   21.1250 C   0  0  0  0  0  0  0  0  0  0  0  0
  -22.0230  -12.8600   21.9870 N   0  0  0  0  0  0  0  0  0  0  0  0
  -22.3190  -14.5760   20.5960 O   0  0  0  0  0  0  0  0  0  0  0  0
  -22.3900  -12.0340   22.4370 H   0  0  0  0  0  0  0  0  0  0  0  0
  -21.0850  -13.1640   22.2070 H   0  0  0  0  0  0  0  0  0  0  0  0
  -25.3750  -15.2290   20.3130 N   0  0  0  0  0  0  0  0  0  0  0  0
  -24.6000  -15.8720   20.4250 H   0  0  0  0  0  0  0  0  0  0  0  0
  -26.2030  -15.6750   19.9410 H   0  0  0  0  0  0  0  0  0  0  0  0
  -28.4190  -23.6050   19.9350 C   0  0  0  0  0  2  0  0  0  0  0  0
  -27.2190  -24.8970   21.8890 C   0  0  0  0  0  1  0  0  0  0  0  0
  -28.3040  -25.0020   20.7950 C   0  0  0  0  0  3  0  0  0  0  0  0
  -28.3380  -26.4000   20.1960 O   0  0  0  0  0  0  0  0  0  0  0  0
  -24.6130  -31.8840   23.2250 C   0  0  0  0  0  0  0  0  0  0  0  0
  -27.2280  -27.2780   20.1920 C   0  0  0  0  0  0  0  0  0  0  0  0
  -23.4140  -30.4840   21.5820 C   0  0  0  0  0  3  0  0  0  0  0  0
  -24.8710  -28.9230   20.1590 C   0  0  0  0  0  0  0  0  0  0  0  0
  -25.9570  -30.7940   21.4040 C   0  0  0  0  0  2  0  0  0  0  0  0
  -26.0410  -29.4070   20.7610 C   0  0  0  0  0  0  0  0  0  0  0  0
  -27.2250  -28.5990   20.7610 C   0  0  0  0  0  3  0  0  0  0  0  0
  -26.0410  -26.8590   19.5600 C   0  0  0  0  0  3  0  0  0  0  0  0
  -24.8780  -27.6580   19.5440 C   0  0  0  0  0  3  0  0  0  0  0  0
  -23.6340  -29.8030   20.2040 C   0  0  0  0  0  2  0  0  0  0  0  0
  -24.6810  -31.0740   22.1270 N   0  0  0  0  0  0  0  0  0  0  0  0
  -23.5270  -32.1640   23.7560 O   0  0  0  0  0  0  0  0  0  0  0  0
  -22.7500  -29.4690   22.5440 C   0  0  0  0  0  0  0  0  0  0  0  0
  -21.4220  -29.2960   22.4220 N   0  0  0  0  0  0  0  0  0  0  0  0
  -23.4270  -28.8400   23.3600 O   0  0  0  0  0  0  0  0  0  0  0  0
  -20.9320  -29.8600   21.7410 H   0  0  0  0  0  0  0  0  0  0  0  0
  -18.0430  -28.1060   22.9320 C   0  0  0  0  0  0  0  0  0  0  0  0
  -20.6040  -28.3580   23.1930 C   0  0  0  0  0  3  0  0  0  0  0  0
  -20.6980  -26.9280   22.6120 C   0  0  0  0  0  2  0  0  0  0  0  0
  -19.5950  -26.6170   21.5980 C   0  0  0  0  0  2  0  0  0  0  0  0
  -18.2130  -26.7630   22.2420 C   0  0  0  0  0  2  0  0  0  0  0  0
  -19.1640  -28.8630   23.3630 C   0  0  0  0  0  0  0  0  0  0  0  0
  -18.9520  -30.1230   23.9630 C   0  0  0  0  0  3  0  0  0  0  0  0
  -17.6480  -30.6270   24.1370 C   0  0  0  0  0  3  0  0  0  0  0  0
  -16.5410  -29.8660   23.7200 C   0  0  0  0  0  3  0  0  0  0  0  0
  -16.7380  -28.6070   23.1250 C   0  0  0  0  0  3  0  0  0  0  0  0
  -25.8920  -32.5200   23.8510 C   0  0  0  0  0  3  0  0  0  0  0  0
  -25.5770  -33.9180   24.1830 N   0  0  0  0  0  0  0  0  0  0  0  0
  -25.9060  -34.9750   23.4260 C   0  0  0  0  0  0  0  0  0  0  0  0
  -26.5770  -34.8750   22.3950 O   0  0  0  0  0  0  0  0  0  0  0  0
  -24.9840  -34.0690   24.9870 H   0  0  0  0  0  0  0  0  0  0  0  0
  -24.1780  -36.7670   23.0750 C   0  0  0  0  0  1  0  0  0  0  0  0
  -25.4180  -36.3620   23.8880 C   0  0  0  0  0  3  0  0  0  0  0  0
  -27.5530  -37.2460   24.7220 C   0  0  0  0  0  1  0  0  0  0  0  0
  -26.4510  -37.4140   23.7760 N   0  0  0  0  0  0  0  0  0  0  0  0
  -26.0460  -38.3360   23.9220 H   0  0  0  0  0  0  0  0  0  0  0  0
  -26.4050  -31.7510   25.1290 C   0  0  1  0  0  0  0  0  0  0  0  0
  -25.3080  -31.5140   26.1940 C   0  0  0  0  0  1  0  0  0  0  0  0
  -26.9900  -30.3730   24.7410 C   0  0  0  0  0  1  0  0  0  0  0  0
  -27.5560  -32.5460   25.7920 C   0  0  0  0  0  1  0  0  0  0  0  0
  1  3  2  0
  2 14  1  0
  2  1  1  0
  4  2  1  0
  5 17  1  0
  6 11  1  0
  7  8  1  0
  7  6  1  0
  9  8  1  0
  9 23  1  0
  9 10  1  0
 11  5  1  0
 11 10  1  0
 12  5  2  0
 13 16  1  0
 14 13  2  0
 15 17  1  0
 15 16  2  0
 17 19  1  0
 18 14  1  0
 18 15  1  0
 20 21  2  0
 21 40  1  0
 22 21  1  0
 22 25  1  0
 23 20  1  0
 23 24  1  0
 24 22  2  0
 25 26  1  0
 26 27  2  0
 28 31  1  0
 28 27  1  0
 29 28  2  0
 30 29  1  0
 30 25  2  0
 31 32  1  0
 32 33  1  0
 33 34  2  0
 35 34  1  0
 35 39  1  0
 36 35  2  0
 37 32  2  0
 37 36  1  0
 38 37  1  0
 40 41  1  0
 41 44  1  0
 41 43  1  0
 42 40  2  0
 45 46  1  0
 45 20  1  0
 47 45  1  0
 48  1  1  0
 48 50  1  0
 50 49  1  0
 51 50  1  0
 52 63  2  0
 53 51  1  0
 53 58  1  0
 54 62  1  0
 54 64  1  0
 55 61  1  0
 55 57  1  0
 56 62  1  0
 57 58  2  0
 57 56  1  0
 59 53  2  0
 60 59  1  0
 60 55  2  0
 61 54  1  0
 62 52  1  0
 64 66  2  0
 65 64  1  0
 67 65  1  0
 68 77  2  0
 68 73  1  0
 69 65  1  0
 69 73  1  0
 70 69  1  0
 71 72  1  0
 71 70  1  0
 72 68  1  0
 73 74  2  0
 74 75  1  0
 76 75  2  0
 77 76  1  0
 78 52  1  0
 78 79  1  0
 78 88  1  0
 79 82  1  0
 80 84  1  0
 80 79  1  0
 81 80  2  0
 84 83  1  0
 86 84  1  0
 86 87  1  0
 86 85  1  0
 88 91  1  1
 88 89  1  0
 90 88  1  0
M  ISO  4   5 100  17 100  50 101  51 101
M  END
>  <TORSDO>  (27) 
F 18

>  <SCORE>  (27) 
-14.743

>  <name>  (27) 
26

>  <ligand_id>  (27) 
26

>  <original_smiles>  (27) 
[H]c1nc(N([H])C(=O)N2C([H])([H])C([H])([H])C([H])([H])C([H])(n3nc(-c4c([H])c([H])c(Oc5c([H])c([H])c(F)c([H])c5F)c([H])c4[H])c(C(=O)N([H])[H])c3N([H])[H])C2([H])[H])oc1N([H])C(=O)C([H])([H])C([H])(Oc1c([H])c([H])c2c(c1[H])C([H])([H])N(C(=O)C([H])(N([H])C(=O)C([H])(N([H])C([H])([H])[H])C([H])([H])[H])C(C([H])([H])[H])(C([H])([H])[H])C([H])([H])[H])C([H])(C(=O)N([H])C1([H])c3c([H])c([H])c([H])c([H])c3C([H])([H])C([H])([H])C1([H])[H])C2([H])[H])C([H])([H])[H]

>  <smiles>  (27) 
[H]c1nc(N([H])C(=O)N2C([H])([H])C([H])([H])C([H])([H])C([H])(n3nc(-c4c([H])c([H])c(Oc5c([H])c([H])c(F)c([H])c5F)c([H])c4[H])c(C(=O)N([H])[H])c3N([H])[H])C2([H])[H])oc1N([H])C(=O)C([H])([H])C([H])(Oc1c([H])c([H])c2c(c1[H])C([H])([H])N(C(=O)C([H])(N([H])C(=O)C([H])(N([H])C([H])([H])[H])C([H])([H])[H])C(C([H])([H])[H])(C([H])([H])[H])C([H])([H])[H])C([H])(C(=O)N([H])C1([H])c3c([H])c([H])c([H])c([H])c3C([H])([H])C([H])([H])C1([H])[H])C2([H])[H])C([H])([H])[H]

$$$$
27:0:0
     RDKit          3D

 94102  0  0  1  0  0  0  0  0999 V2000
  -29.8840  -21.7070   20.0310 C   0  0  0  0  0  0  0  0  0  0  0  0
  -29.3550  -20.4630   20.1780 N   0  0  0  0  0  0  0  0  0  0  0  0
  -31.0910  -21.9210   19.8800 O   0  0  0  0  0  0  0  0  0  0  0  0
  -28.3690  -20.4410   20.3880 H   0  0  0  0  0  0  0  0  0  0  0  0
  -31.2170  -18.9650   19.6020 C   0  0  0  0  0  3  0  0  0  0  0  0
  -31.3610  -17.5550   19.6930 C   0  0  0  0  0  0  0  0  0  0  0  0
  -29.9600  -19.2300   20.0840 C   0  0  0  0  0  0  0  0  0  0  0  0
  -30.2060  -17.0170   20.2100 C   0  0  0  0  0  0  0  0  0  0  0  0
  -29.3130  -18.0530   20.4340 O   0  0  0  0  0  0  0  0  0  0  0  0
  -32.4760  -16.9020   19.2930 F   0  0  0  0  0  0  0  0  0  0  0  0
  -30.6570  -14.5770   20.3690 C   0  0  0  0  0  0  0  0  0  0  0  0
  -30.3630  -12.3650   19.3440 C   0  0  0  0  0  2  0  0  0  0  0  0
  -29.4220  -12.5340   18.1340 C   0  0  0  0  0  2  0  0  0  0  0  0
  -27.9520  -12.3980   18.5730 C   0  0  0  0  0  2  0  0  0  0  0  0
  -27.6050  -13.2590   19.8150 C   0  0  0  0  0  3  0  0  0  0  0  0
  -28.6720  -13.1190   20.9250 C   0  0  0  0  0  2  0  0  0  0  0  0
  -29.9830  -13.3960   20.3230 N   0  0  0  0  0  0  0  0  0  0  0  0
  -31.8620  -14.6240   20.1360 O   0  0  0  0  0  0  0  0  0  0  0  0
  -29.8850  -15.6930   20.4460 N   0  0  0  0  0  0  0  0  0  0  0  0
  -28.9100  -15.5040   20.6150 H   0  0  0  0  0  0  0  0  0  0  0  0
  -25.2110  -13.8570   20.5330 C   0  0  0  0  0  0  0  0  0  0  0  0
  -24.1470  -13.0810   20.9100 C   0  0  0  0  0  0  0  0  0  0  0  0
  -24.6120  -11.7320   20.8810 C   0  0  0  0  0  0  0  0  0  0  0  0
  -26.2590  -12.9780   20.3070 N   0  0  0  0  0  0  0  0  0  0  0  0
  -25.9030  -11.6960   20.5760 N   0  0  0  0  0  0  0  0  0  0  0  0
  -23.8910  -10.4660   21.0700 C   0  0  0  0  0  0  0  0  0  0  0  0
  -24.3280   -9.4920   21.9940 C   0  0  0  0  0  3  0  0  0  0  0  0
  -23.6050   -8.2940   22.1700 C   0  0  0  0  0  3  0  0  0  0  0  0
  -22.4260   -8.0590   21.4220 C   0  0  0  0  0  0  0  0  0  0  0  0
  -22.0050   -9.0220   20.4870 C   0  0  0  0  0  3  0  0  0  0  0  0
  -22.7310  -10.2120   20.3100 C   0  0  0  0  0  3  0  0  0  0  0  0
  -21.6770   -6.9110   21.5060 O   0  0  0  0  0  0  0  0  0  0  0  0
  -21.6390   -6.1580   22.6530 C   0  0  0  0  0  0  0  0  0  0  0  0
  -21.2190   -6.6990   23.8880 C   0  0  0  0  0  3  0  0  0  0  0  0
  -21.1330   -5.8720   25.0260 C   0  0  0  0  0  3  0  0  0  0  0  0
  -21.4540   -4.5040   24.9290 C   0  0  0  0  0  0  0  0  0  0  0  0
  -21.8670   -3.9640   23.6990 C   0  0  0  0  0  3  0  0  0  0  0  0
  -21.9550   -4.7880   22.5630 C   0  0  0  0  0  0  0  0  0  0  0  0
  -22.3330   -4.2580   21.3760 F   0  0  0  0  0  0  0  0  0  0  0  0
  -21.3620   -3.7080   26.0190 F   0  0  0  0  0  0  0  0  0  0  0  0
  -22.7480  -13.5570   21.1780 C   0  0  0  0  0  0  0  0  0  0  0  0
  -22.0200  -12.8640   22.0480 N   0  0  0  0  0  0  0  0  0  0  0  0
  -22.3080  -14.5780   20.6540 O   0  0  0  0  0  0  0  0  0  0  0  0
  -22.3880  -12.0380   22.4950 H   0  0  0  0  0  0  0  0  0  0  0  0
  -21.0830  -13.1710   22.2750 H   0  0  0  0  0  0  0  0  0  0  0  0
  -25.3710  -15.2250   20.3380 N   0  0  0  0  0  0  0  0  0  0  0  0
  -24.5820  -15.8580   20.3790 H   0  0  0  0  0  0  0  0  0  0  0  0
  -26.1890  -15.6420   19.9130 H   0  0  0  0  0  0  0  0  0  0  0  0
  -28.8700  -22.7720   20.0480 C   0  0  0  0  0  3  0  0  0  0  0  0
  -29.1160  -24.1120   19.9480 C   0  0  0  0  0  0  0  0  0  0  0  0
  -30.3340  -24.6710   19.8760 O   0  0  0  0  0  0  0  0  0  0  0  0
  -30.9700  -23.9600   19.8740 H   0  0  0  0  0  0  0  0  0  0  0  0
  -28.0110  -25.1690   19.8440 C   0  0  0  0  0  2  0  0  0  0  0  0
  -28.2990  -26.5670   20.1480 O   0  0  0  0  0  0  0  0  0  0  0  0
  -24.6140  -31.9070   23.2680 C   0  0  0  0  0  0  0  0  0  0  0  0
  -27.1750  -27.4000   20.1390 C   0  0  0  0  0  0  0  0  0  0  0  0
  -23.3880  -30.5210   21.6390 C   0  0  0  0  0  3  0  0  0  0  0  0
  -24.8120  -28.9910   20.1930 C   0  0  0  0  0  0  0  0  0  0  0  0
  -25.9250  -30.8420   21.4300 C   0  0  0  0  0  2  0  0  0  0  0  0
  -25.9910  -29.4740   20.7750 C   0  0  0  0  0  0  0  0  0  0  0  0
  -27.1780  -28.6880   20.7460 C   0  0  0  0  0  3  0  0  0  0  0  0
  -25.9630  -26.9690   19.5400 C   0  0  0  0  0  3  0  0  0  0  0  0
  -24.7960  -27.7390   19.5740 C   0  0  0  0  0  3  0  0  0  0  0  0
  -23.5810  -29.8600   20.2530 C   0  0  0  0  0  2  0  0  0  0  0  0
  -24.6610  -31.1050   22.1680 N   0  0  0  0  0  0  0  0  0  0  0  0
  -23.5390  -32.1860   23.8160 O   0  0  0  0  0  0  0  0  0  0  0  0
  -22.7390  -29.4950   22.5980 C   0  0  0  0  0  0  0  0  0  0  0  0
  -21.4130  -29.3130   22.4710 N   0  0  0  0  0  0  0  0  0  0  0  0
  -23.4210  -28.8700   23.4120 O   0  0  0  0  0  0  0  0  0  0  0  0
  -20.9240  -29.8680   21.7830 H   0  0  0  0  0  0  0  0  0  0  0  0
  -18.0370  -28.1140   22.9690 C   0  0  0  0  0  0  0  0  0  0  0  0
  -20.5950  -28.3770   23.2440 C   0  0  0  0  0  3  0  0  0  0  0  0
  -20.7010  -26.9430   22.6720 C   0  0  0  0  0  2  0  0  0  0  0  0
  -19.5990  -26.6160   21.6590 C   0  0  0  0  0  2  0  0  0  0  0  0
  -18.2160  -26.7610   22.3000 C   0  0  0  0  0  2  0  0  0  0  0  0
  -19.1540  -28.8800   23.3980 C   0  0  0  0  0  0  0  0  0  0  0  0
  -18.9330  -30.1460   23.9810 C   0  0  0  0  0  3  0  0  0  0  0  0
  -17.6270  -30.6470   24.1410 C   0  0  0  0  0  3  0  0  0  0  0  0
  -16.5250  -29.8780   23.7300 C   0  0  0  0  0  3  0  0  0  0  0  0
  -16.7310  -28.6130   23.1490 C   0  0  0  0  0  3  0  0  0  0  0  0
  -25.9080  -32.5290   23.8780 C   0  0  0  0  0  3  0  0  0  0  0  0
  -26.4290  -31.7510   25.1500 C   0  0  1  0  0  0  0  0  0  0  0  0
  -25.3430  -31.5160   26.2250 C   0  0  0  0  0  1  0  0  0  0  0  0
  -27.0010  -30.3720   24.7490 C   0  0  0  0  0  1  0  0  0  0  0  0
  -27.5900  -32.5380   25.8020 C   0  0  0  0  0  1  0  0  0  0  0  0
  -25.6080  -33.9280   24.2130 N   0  0  0  0  0  0  0  0  0  0  0  0
  -25.9260  -34.9780   23.4430 C   0  0  0  0  0  0  0  0  0  0  0  0
  -26.5710  -34.8700   22.3980 O   0  0  0  0  0  0  0  0  0  0  0  0
  -25.0280  -34.0840   25.0250 H   0  0  0  0  0  0  0  0  0  0  0  0
  -24.1840  -36.7630   23.1330 C   0  0  0  0  0  1  0  0  0  0  0  0
  -25.4510  -36.3670   23.9070 C   0  0  0  0  0  3  0  0  0  0  0  0
  -27.6110  -37.2560   24.6640 C   0  0  0  0  0  1  0  0  0  0  0  0
  -26.4780  -37.4220   23.7580 N   0  0  0  0  0  0  0  0  0  0  0  0
  -26.0760  -38.3410   23.9200 H   0  0  0  0  0  0  0  0  0  0  0  0
  1 49  1  0
  1  2  1  0
  2  4  1  0
  3  1  2  0
  5  6  1  0
  5  7  2  0
  6  8  2  0
  7  2  1  0
  7  9  1  0
  8  9  1  0
  8 19  1  0
 10  6  1  0
 11 19  1  0
 12 17  1  0
 13 14  1  0
 13 12  1  0
 15 14  1  0
 15 24  1  0
 15 16  1  0
 17 11  1  0
 17 16  1  0
 18 11  2  0
 19 20  1  0
 21 22  2  0
 22 41  1  0
 23 22  1  0
 23 26  1  0
 24 21  1  0
 24 25  1  0
 25 23  2  0
 26 27  1  0
 27 28  2  0
 29 32  1  0
 29 28  1  0
 30 29  2  0
 31 30  1  0
 31 26  2  0
 32 33  1  0
 33 34  1  0
 34 35  2  0
 36 35  1  0
 36 40  1  0
 37 36  2  0
 38 33  2  0
 38 37  1  0
 39 38  1  0
 41 42  1  0
 42 45  1  0
 42 44  1  0
 43 41  2  0
 46 47  1  0
 46 21  1  0
 48 46  1  0
 50 49  2  0
 51 50  1  0
 52 51  1  0
 53 50  1  0
 53 54  1  0
 55 66  2  0
 56 54  1  0
 56 61  1  0
 57 65  1  0
 57 67  1  0
 58 64  1  0
 58 60  1  0
 59 65  1  0
 60 59  1  0
 61 60  2  0
 62 63  1  0
 62 56  2  0
 63 58  2  0
 64 57  1  0
 65 55  1  0
 67 69  2  0
 68 67  1  0
 70 68  1  0
 71 80  2  0
 71 76  1  0
 72 68  1  0
 72 76  1  0
 73 72  1  0
 74 75  1  0
 74 73  1  0
 75 71  1  0
 76 77  2  0
 77 78  1  0
 79 78  2  0
 80 79  1  0
 81 55  1  0
 81 86  1  0
 81 82  1  0
 82 85  1  1
 82 83  1  0
 84 82  1  0
 86 89  1  0
 87 91  1  0
 87 86  1  0
 88 87  2  0
 91 90  1  0
 93 91  1  0
 93 94  1  0
 93 92  1  0
M  ISO  4  11 100  19 100  53 101  54 101
M  END
>  <TORSDO>  (28) 
F 20

>  <SCORE>  (28) 
-14.117

>  <name>  (28) 
27

>  <ligand_id>  (28) 
27

>  <original_smiles>  (28) 
[H]OC(=C([H])C(=O)N([H])c1oc(N([H])C(=O)N2C([H])([H])C([H])([H])C([H])([H])C([H])(n3nc(-c4c([H])c([H])c(Oc5c([H])c([H])c(F)c([H])c5F)c([H])c4[H])c(C(=O)N([H])[H])c3N([H])[H])C2([H])[H])c(F)c1[H])C([H])([H])Oc1c([H])c([H])c2c(c1[H])C([H])([H])N(C(=O)C([H])(N([H])C(=O)C([H])(N([H])C([H])([H])[H])C([H])([H])[H])C(C([H])([H])[H])(C([H])([H])[H])C([H])([H])[H])C([H])(C(=O)N([H])C1([H])c3c([H])c([H])c([H])c([H])c3C([H])([H])C([H])([H])C1([H])[H])C2([H])[H]

>  <smiles>  (28) 
[H]OC(=C([H])C(=O)N([H])c1oc(N([H])C(=O)N2C([H])([H])C([H])([H])C([H])([H])C([H])(n3nc(-c4c([H])c([H])c(Oc5c([H])c([H])c(F)c([H])c5F)c([H])c4[H])c(C(=O)N([H])[H])c3N([H])[H])C2([H])[H])c(F)c1[H])C([H])([H])Oc1c([H])c([H])c2c(c1[H])C([H])([H])N(C(=O)C([H])(N([H])C(=O)C([H])(N([H])C([H])([H])[H])C([H])([H])[H])C(C([H])([H])[H])(C([H])([H])[H])C([H])([H])[H])C([H])(C(=O)N([H])C1([H])c3c([H])c([H])c([H])c([H])c3C([H])([H])C([H])([H])C1([H])[H])C2([H])[H]

$$$$
28:0:0
     RDKit          3D

 96104  0  0  1  0  0  0  0  0999 V2000
  -28.6880  -21.2170   19.7640 C   0  0  0  0  0  0  0  0  0  0  0  0
  -28.5010  -23.8050   19.8880 C   0  0  0  0  0  0  0  0  0  0  0  0
  -27.9470  -21.0720   18.7190 N   0  0  0  0  0  0  0  0  0  0  0  0
  -28.8310  -22.5290   20.3820 N   0  0  0  0  0  0  0  0  0  0  0  0
  -28.2250  -23.9820   18.6950 O   0  0  0  0  0  0  0  0  0  0  0  0
  -27.9640  -20.0920   18.4450 H   0  0  0  0  0  0  0  0  0  0  0  0
  -29.1860  -22.5170   21.3260 H   0  0  0  0  0  0  0  0  0  0  0  0
  -30.8070  -18.1330   20.7480 C   0  0  0  0  0  3  0  0  0  0  0  0
  -29.7690  -17.2510   20.4890 C   0  0  0  0  0  0  0  0  0  0  0  0
  -29.2680  -19.8390   20.2140 C   0  0  0  0  0  0  0  0  0  0  0  0
  -30.5210  -19.5310   20.6080 N   0  0  0  0  0  0  0  0  0  0  0  0
  -28.3680  -18.2750   20.0560 S   0  0  0  0  0  0  0  0  0  0  0  0
  -30.5220  -14.7850   20.3580 C   0  0  0  0  0  0  0  0  0  0  0  0
  -30.3630  -12.5120   19.3130 C   0  0  0  0  0  2  0  0  0  0  0  0
  -29.4050  -12.5990   18.1020 C   0  0  0  0  0  2  0  0  0  0  0  0
  -27.9380  -12.4200   18.5420 C   0  0  0  0  0  2  0  0  0  0  0  0
  -27.5770  -13.2890   19.7750 C   0  0  0  0  0  3  0  0  0  0  0  0
  -28.6450  -13.1670   20.8850 C   0  0  0  0  0  2  0  0  0  0  0  0
  -29.9380  -13.5380   20.2920 N   0  0  0  0  0  0  0  0  0  0  0  0
  -31.7030  -14.9390   20.0290 O   0  0  0  0  0  0  0  0  0  0  0  0
  -29.6630  -15.8500   20.5850 N   0  0  0  0  0  0  0  0  0  0  0  0
  -28.7200  -15.5330   20.7410 H   0  0  0  0  0  0  0  0  0  0  0  0
  -25.1950  -13.8870   20.5180 C   0  0  0  0  0  0  0  0  0  0  0  0
  -24.1280  -13.1160   20.8900 C   0  0  0  0  0  0  0  0  0  0  0  0
  -24.5850  -11.7630   20.8500 C   0  0  0  0  0  0  0  0  0  0  0  0
  -26.2340  -13.0040   20.2700 N   0  0  0  0  0  0  0  0  0  0  0  0
  -25.8740  -11.7210   20.5320 N   0  0  0  0  0  0  0  0  0  0  0  0
  -23.8560  -10.5030   21.0360 C   0  0  0  0  0  0  0  0  0  0  0  0
  -24.2790   -9.5380   21.9760 C   0  0  0  0  0  3  0  0  0  0  0  0
  -23.5510   -8.3410   22.1520 C   0  0  0  0  0  3  0  0  0  0  0  0
  -22.3850   -8.1010   21.3870 C   0  0  0  0  0  0  0  0  0  0  0  0
  -21.9810   -9.0550   20.4360 C   0  0  0  0  0  3  0  0  0  0  0  0
  -22.7080  -10.2430   20.2600 C   0  0  0  0  0  3  0  0  0  0  0  0
  -21.6310   -6.9570   21.4700 O   0  0  0  0  0  0  0  0  0  0  0  0
  -21.5580   -6.2250   22.6290 C   0  0  0  0  0  0  0  0  0  0  0  0
  -21.0830   -6.7870   23.8350 C   0  0  0  0  0  3  0  0  0  0  0  0
  -20.9580   -5.9830   24.9840 C   0  0  0  0  0  3  0  0  0  0  0  0
  -21.2970   -4.6170   24.9280 C   0  0  0  0  0  0  0  0  0  0  0  0
  -21.7630   -4.0540   23.7280 C   0  0  0  0  0  3  0  0  0  0  0  0
  -21.8890   -4.8560   22.5800 C   0  0  0  0  0  0  0  0  0  0  0  0
  -22.3200   -4.3070   21.4190 F   0  0  0  0  0  0  0  0  0  0  0  0
  -21.1700   -3.8400   26.0310 F   0  0  0  0  0  0  0  0  0  0  0  0
  -22.7340  -13.5970   21.1710 C   0  0  0  0  0  0  0  0  0  0  0  0
  -22.0060  -12.8930   22.0290 N   0  0  0  0  0  0  0  0  0  0  0  0
  -22.3010  -14.6300   20.6650 O   0  0  0  0  0  0  0  0  0  0  0  0
  -22.3690  -12.0550   22.4590 H   0  0  0  0  0  0  0  0  0  0  0  0
  -21.0690  -13.1960   22.2580 H   0  0  0  0  0  0  0  0  0  0  0  0
  -25.3620  -15.2590   20.3430 N   0  0  0  0  0  0  0  0  0  0  0  0
  -24.5870  -15.9050   20.4430 H   0  0  0  0  0  0  0  0  0  0  0  0
  -26.1890  -15.6910   19.9530 H   0  0  0  0  0  0  0  0  0  0  0  0
  -28.3980  -25.1230   20.8220 C   0  0  0  0  0  3  0  0  0  0  0  0
  -29.5410  -25.1480   21.8390 C   0  0  0  0  0  0  0  0  0  0  0  0
  -29.1550  -24.9570   23.2890 C   0  0  0  0  0  1  0  0  0  0  0  0
  -30.7460  -25.3700   21.5090 N   0  0  0  0  0  0  0  0  0  0  0  0
  -31.3660  -25.3870   22.3120 H   0  0  0  0  0  0  0  0  0  0  0  0
  -28.3800  -26.4690   20.1530 O   0  0  0  0  0  0  0  0  0  0  0  0
  -24.6110  -31.8980   23.2520 C   0  0  0  0  0  0  0  0  0  0  0  0
  -27.2500  -27.3080   20.2270 C   0  0  0  0  0  0  0  0  0  0  0  0
  -23.4220  -30.4930   21.6110 C   0  0  0  0  0  3  0  0  0  0  0  0
  -24.8820  -28.9250   20.2110 C   0  0  0  0  0  0  0  0  0  0  0  0
  -25.9610  -30.8080   21.4380 C   0  0  0  0  0  2  0  0  0  0  0  0
  -26.0490  -29.4190   20.8050 C   0  0  0  0  0  0  0  0  0  0  0  0
  -27.2400  -28.6250   20.7950 C   0  0  0  0  0  3  0  0  0  0  0  0
  -26.0560  -26.8660   19.6260 C   0  0  0  0  0  3  0  0  0  0  0  0
  -24.8860  -27.6540   19.6150 C   0  0  0  0  0  3  0  0  0  0  0  0
  -23.6480  -29.8090   20.2370 C   0  0  0  0  0  2  0  0  0  0  0  0
  -24.6850  -31.0850   22.1570 N   0  0  0  0  0  0  0  0  0  0  0  0
  -23.5230  -32.1720   23.7820 O   0  0  0  0  0  0  0  0  0  0  0  0
  -22.7560  -29.4790   22.5730 C   0  0  0  0  0  0  0  0  0  0  0  0
  -21.4290  -29.3010   22.4460 N   0  0  0  0  0  0  0  0  0  0  0  0
  -23.4320  -28.8570   23.3950 O   0  0  0  0  0  0  0  0  0  0  0  0
  -20.9370  -29.8590   21.7610 H   0  0  0  0  0  0  0  0  0  0  0  0
  -18.0520  -28.1080   22.9520 C   0  0  0  0  0  0  0  0  0  0  0  0
  -20.6110  -28.3620   23.2180 C   0  0  0  0  0  3  0  0  0  0  0  0
  -20.7100  -26.9310   22.6380 C   0  0  0  0  0  2  0  0  0  0  0  0
  -19.6050  -26.6110   21.6260 C   0  0  0  0  0  2  0  0  0  0  0  0
  -18.2250  -26.7590   22.2710 C   0  0  0  0  0  2  0  0  0  0  0  0
  -19.1720  -28.8650   23.3820 C   0  0  0  0  0  0  0  0  0  0  0  0
  -18.9570  -30.1290   23.9770 C   0  0  0  0  0  3  0  0  0  0  0  0
  -17.6540  -30.6310   24.1490 C   0  0  0  0  0  3  0  0  0  0  0  0
  -16.5470  -29.8720   23.7330 C   0  0  0  0  0  3  0  0  0  0  0  0
  -16.7470  -28.6110   23.1410 C   0  0  0  0  0  3  0  0  0  0  0  0
  -25.8870  -32.5390   23.8780 C   0  0  0  0  0  3  0  0  0  0  0  0
  -26.3930  -31.7790   25.1650 C   0  0  1  0  0  0  0  0  0  0  0  0
  -25.2940  -31.5500   26.2260 C   0  0  0  0  0  1  0  0  0  0  0  0
  -26.9830  -30.4020   24.7860 C   0  0  0  0  0  1  0  0  0  0  0  0
  -27.5360  -32.5810   25.8320 C   0  0  0  0  0  1  0  0  0  0  0  0
  -25.5710  -33.9390   24.2000 N   0  0  0  0  0  0  0  0  0  0  0  0
  -25.9060  -34.9900   23.4380 C   0  0  0  0  0  0  0  0  0  0  0  0
  -26.5820  -34.8830   22.4110 O   0  0  0  0  0  0  0  0  0  0  0  0
  -24.9710  -34.0980   24.9960 H   0  0  0  0  0  0  0  0  0  0  0  0
  -24.1880  -36.7860   23.0540 C   0  0  0  0  0  1  0  0  0  0  0  0
  -25.4150  -36.3800   23.8850 C   0  0  0  0  0  3  0  0  0  0  0  0
  -27.5370  -37.2670   24.7490 C   0  0  0  0  0  1  0  0  0  0  0  0
  -26.4520  -37.4310   23.7860 N   0  0  0  0  0  0  0  0  0  0  0  0
  -26.0420  -38.3510   23.9210 H   0  0  0  0  0  0  0  0  0  0  0  0
  1 10  1  0
  1  4  1  0
  2  4  1  0
  3  1  2  0
  4  7  1  0
  5  2  2  0
  6  3  1  0
  9 21  1  0
  9  8  2  0
 10 11  2  0
 11  8  1  0
 12 10  1  0
 12  9  1  0
 13 21  1  0
 14 19  1  0
 15 16  1  0
 15 14  1  0
 17 16  1  0
 17 26  1  0
 17 18  1  0
 19 13  1  0
 19 18  1  0
 20 13  2  0
 21 22  1  0
 23 24  2  0
 24 43  1  0
 25 24  1  0
 25 28  1  0
 26 23  1  0
 26 27  1  0
 27 25  2  0
 28 29  1  0
 29 30  2  0
 31 34  1  0
 31 30  1  0
 32 31  2  0
 33 32  1  0
 33 28  2  0
 34 35  1  0
 35 36  1  0
 36 37  2  0
 38 37  1  0
 38 42  1  0
 39 38  2  0
 40 35  2  0
 40 39  1  0
 41 40  1  0
 43 44  1  0
 44 47  1  0
 44 46  1  0
 45 43  2  0
 48 49  1  0
 48 23  1  0
 50 48  1  0
 51  2  1  0
 51 52  1  0
 52 53  1  0
 54 52  2  0
 54 55  1  0
 56 58  1  0
 56 51  1  0
 57 68  2  0
 58 63  1  0
 59 67  1  0
 59 69  1  0
 60 66  1  0
 60 62  1  0
 61 67  1  0
 62 61  1  0
 63 62  2  0
 64 58  2  0
 65 64  1  0
 65 60  2  0
 66 59  1  0
 67 57  1  0
 69 71  2  0
 70 69  1  0
 72 70  1  0
 73 82  2  0
 73 78  1  0
 74 70  1  0
 74 78  1  0
 75 74  1  0
 76 77  1  0
 76 75  1  0
 77 73  1  0
 78 79  2  0
 79 80  1  0
 81 80  2  0
 82 81  1  0
 83 57  1  0
 83 88  1  0
 83 84  1  0
 84 87  1  1
 84 85  1  0
 86 84  1  0
 88 91  1  0
 89 93  1  0
 89 88  1  0
 90 89  2  0
 93 92  1  0
 95 93  1  0
 95 96  1  0
 95 94  1  0
M  ISO  4  13 100  21 100  51 101  56 101
M  END
>  <TORSDO>  (29) 
F 19

>  <SCORE>  (29) 
-14.635

>  <name>  (29) 
28

>  <ligand_id>  (29) 
28

>  <original_smiles>  (29) 
[H]N=C(c1nc([H])c(N([H])C(=O)N2C([H])([H])C([H])([H])C([H])([H])C([H])(n3nc(-c4c([H])c([H])c(Oc5c([H])c([H])c(F)c([H])c5F)c([H])c4[H])c(C(=O)N([H])[H])c3N([H])[H])C2([H])[H])s1)N([H])C(=O)C([H])(Oc1c([H])c([H])c2c(c1[H])C([H])([H])N(C(=O)C([H])(N([H])C(=O)C([H])(N([H])C([H])([H])[H])C([H])([H])[H])C(C([H])([H])[H])(C([H])([H])[H])C([H])([H])[H])C([H])(C(=O)N([H])C1([H])c3c([H])c([H])c([H])c([H])c3C([H])([H])C([H])([H])C1([H])[H])C2([H])[H])C(=N[H])C([H])([H])[H]

>  <smiles>  (29) 
[H]N=C(c1nc([H])c(N([H])C(=O)N2C([H])([H])C([H])([H])C([H])([H])C([H])(n3nc(-c4c([H])c([H])c(Oc5c([H])c([H])c(F)c([H])c5F)c([H])c4[H])c(C(=O)N([H])[H])c3N([H])[H])C2([H])[H])s1)N([H])C(=O)C([H])(Oc1c([H])c([H])c2c(c1[H])C([H])([H])N(C(=O)C([H])(N([H])C(=O)C([H])(N([H])C([H])([H])[H])C([H])([H])[H])C(C([H])([H])[H])(C([H])([H])[H])C([H])([H])[H])C([H])(C(=O)N([H])C1([H])c3c([H])c([H])c([H])c([H])c3C([H])([H])C([H])([H])C1([H])[H])C2([H])[H])C(=N[H])C([H])([H])[H]

$$$$
29:0:0
     RDKit          3D

108117  0  0  1  0  0  0  0  0999 V2000
  -31.5360  -21.0620   18.7300 C   0  0  0  0  0  0  0  0  0  0  0  0
  -32.3320  -20.6650   19.7960 C   0  0  0  0  0  0  0  0  0  0  0  0
  -30.9420  -22.6340   20.2510 C   0  0  0  0  0  0  0  0  0  0  0  0
  -30.8000  -22.2270   18.9950 N   0  0  0  0  0  0  0  0  0  0  0  0
  -30.3430  -23.7510   20.7920 N   0  0  0  0  0  0  0  0  0  0  0  0
  -32.0670  -21.6720   21.1910 S   0  0  0  0  0  0  0  0  0  0  0  0
  -30.4970  -23.8210   21.7930 H   0  0  0  0  0  0  0  0  0  0  0  0
  -31.4710  -20.3980   17.3890 C   0  0  0  0  0  0  0  0  0  0  0  0
  -31.0540  -19.1210   17.3570 N   0  0  0  0  0  0  0  0  0  0  0  0
  -31.7200  -21.0150   16.3470 O   0  0  0  0  0  0  0  0  0  0  0  0
  -31.1450  -18.6520   16.4680 H   0  0  0  0  0  0  0  0  0  0  0  0
  -28.9480  -18.9610   18.5970 C   0  0  0  0  0  3  0  0  0  0  0  0
  -28.5410  -17.0850   20.0980 C   0  0  0  0  0  3  0  0  0  0  0  0
  -30.6840  -17.2720   18.9340 C   0  0  0  0  0  3  0  0  0  0  0  0
  -28.0990  -18.2760   19.4840 C   0  0  0  0  0  0  0  0  0  0  0  0
  -30.2480  -18.4710   18.3280 C   0  0  0  0  0  0  0  0  0  0  0  0
  -29.8300  -16.5720   19.8340 C   0  0  0  0  0  0  0  0  0  0  0  0
  -30.8680  -14.3160   19.9210 C   0  0  0  0  0  0  0  0  0  0  0  0
  -30.5110  -12.1080   18.9140 C   0  0  0  0  0  2  0  0  0  0  0  0
  -29.4870  -12.2710   17.7680 C   0  0  0  0  0  2  0  0  0  0  0  0
  -28.0420  -12.1650   18.2940 C   0  0  0  0  0  2  0  0  0  0  0  0
  -27.7990  -13.0640   19.5340 C   0  0  0  0  0  3  0  0  0  0  0  0
  -28.9110  -12.8700   20.5870 C   0  0  0  0  0  2  0  0  0  0  0  0
  -30.2080  -13.1250   19.9310 N   0  0  0  0  0  0  0  0  0  0  0  0
  -31.9620  -14.4840   19.3740 O   0  0  0  0  0  0  0  0  0  0  0  0
  -30.1610  -15.3280   20.4510 N   0  0  0  0  0  0  0  0  0  0  0  0
  -29.4570  -15.0060   21.0990 H   0  0  0  0  0  0  0  0  0  0  0  0
  -25.4860  -13.7600   20.4220 C   0  0  0  0  0  0  0  0  0  0  0  0
  -24.4170  -13.0270   20.8560 C   0  0  0  0  0  0  0  0  0  0  0  0
  -24.8150  -11.6580   20.7640 C   0  0  0  0  0  0  0  0  0  0  0  0
  -26.4730  -12.8400   20.1020 N   0  0  0  0  0  0  0  0  0  0  0  0
  -26.0750  -11.5710   20.3610 N   0  0  0  0  0  0  0  0  0  0  0  0
  -24.0540  -10.4220   20.9840 C   0  0  0  0  0  0  0  0  0  0  0  0
  -24.4990   -9.4300   21.8860 C   0  0  0  0  0  3  0  0  0  0  0  0
  -23.7400   -8.2600   22.0920 C   0  0  0  0  0  3  0  0  0  0  0  0
  -22.5240   -8.0710   21.3950 C   0  0  0  0  0  0  0  0  0  0  0  0
  -22.0960   -9.0510   20.4820 C   0  0  0  0  0  3  0  0  0  0  0  0
  -22.8550  -10.2140   20.2740 C   0  0  0  0  0  3  0  0  0  0  0  0
  -21.7330   -6.9540   21.5120 O   0  0  0  0  0  0  0  0  0  0  0  0
  -21.7010   -6.2120   22.6660 C   0  0  0  0  0  0  0  0  0  0  0  0
  -21.3160   -6.7740   23.9030 C   0  0  0  0  0  3  0  0  0  0  0  0
  -21.2300   -5.9600   25.0500 C   0  0  0  0  0  3  0  0  0  0  0  0
  -21.5200   -4.5850   24.9610 C   0  0  0  0  0  0  0  0  0  0  0  0
  -21.8990   -4.0230   23.7290 C   0  0  0  0  0  3  0  0  0  0  0  0
  -21.9860   -4.8340   22.5840 C   0  0  0  0  0  0  0  0  0  0  0  0
  -22.3310   -4.2850   21.3950 F   0  0  0  0  0  0  0  0  0  0  0  0
  -21.4290   -3.8000   26.0590 F   0  0  0  0  0  0  0  0  0  0  0  0
  -23.0640  -13.5570   21.2390 C   0  0  0  0  0  0  0  0  0  0  0  0
  -22.3780  -12.8720   22.1450 N   0  0  0  0  0  0  0  0  0  0  0  0
  -22.6280  -14.6070   20.7690 O   0  0  0  0  0  0  0  0  0  0  0  0
  -22.7480  -12.0220   22.5460 H   0  0  0  0  0  0  0  0  0  0  0  0
  -21.4730  -13.2020   22.4490 H   0  0  0  0  0  0  0  0  0  0  0  0
  -25.6960  -15.1250   20.2600 N   0  0  0  0  0  0  0  0  0  0  0  0
  -24.9510  -15.7970   20.4090 H   0  0  0  0  0  0  0  0  0  0  0  0
  -26.5260  -15.5340   19.8500 H   0  0  0  0  0  0  0  0  0  0  0  0
  -26.8170  -18.7690   19.7230 N   0  0  0  0  0  0  0  0  0  0  0  0
  -26.0950  -18.1050   19.9820 H   0  0  0  0  0  0  0  0  0  0  0  0
  -26.4680  -19.4940   19.1030 H   0  0  0  0  0  0  0  0  0  0  0  0
  -33.2590  -19.6250   19.9050 N   0  0  0  0  0  0  0  0  0  0  0  0
  -33.4690  -19.0560   19.0920 H   0  0  0  0  0  0  0  0  0  0  0  0
  -34.0790  -19.7340   20.4950 H   0  0  0  0  0  0  0  0  0  0  0  0
  -29.8540  -24.9950   20.2120 C   0  0  0  0  0  2  0  0  0  0  0  0
  -28.3450  -25.2950   20.3850 C   0  0  0  0  0  3  0  0  0  0  0  0
  -27.8850  -25.1540   21.8500 C   0  0  0  0  0  0  0  0  0  0  0  0
  -27.2930  -23.8120   22.2210 C   0  0  0  0  0  1  0  0  0  0  0  0
  -28.0200  -26.0720   22.7150 N   0  0  0  0  0  0  0  0  0  0  0  0
  -27.6740  -25.7880   23.6220 H   0  0  0  0  0  0  0  0  0  0  0  0
  -28.2590  -26.6380   19.8990 O   0  0  0  0  0  0  0  0  0  0  0  0
  -24.5170  -31.6970   23.1500 C   0  0  0  0  0  0  0  0  0  0  0  0
  -27.0610  -27.3080   19.9470 C   0  0  0  0  0  0  0  0  0  0  0  0
  -23.2730  -30.3690   21.4640 C   0  0  0  0  0  3  0  0  0  0  0  0
  -24.6870  -28.8250   20.0060 C   0  0  0  0  0  0  0  0  0  0  0  0
  -25.7980  -30.6880   21.2660 C   0  0  0  0  0  2  0  0  0  0  0  0
  -25.8510  -29.3310   20.5950 C   0  0  0  0  0  0  0  0  0  0  0  0
  -27.0410  -28.5820   20.5520 C   0  0  0  0  0  3  0  0  0  0  0  0
  -25.8850  -26.8010   19.3600 C   0  0  0  0  0  3  0  0  0  0  0  0
  -24.6940  -27.5580   19.3900 C   0  0  0  0  0  3  0  0  0  0  0  0
  -23.4630  -29.7080   20.0700 C   0  0  0  0  0  2  0  0  0  0  0  0
  -24.5460  -30.9340   22.0200 N   0  0  0  0  0  0  0  0  0  0  0  0
  -23.4460  -31.9790   23.7030 O   0  0  0  0  0  0  0  0  0  0  0  0
  -22.5970  -29.3480   22.4040 C   0  0  0  0  0  0  0  0  0  0  0  0
  -21.2680  -29.2080   22.2830 N   0  0  0  0  0  0  0  0  0  0  0  0
  -23.2670  -28.6760   23.1910 O   0  0  0  0  0  0  0  0  0  0  0  0
  -20.7900  -29.8140   21.6270 H   0  0  0  0  0  0  0  0  0  0  0  0
  -17.8560  -28.1400   22.8070 C   0  0  0  0  0  0  0  0  0  0  0  0
  -20.4290  -28.2710   23.0290 C   0  0  0  0  0  3  0  0  0  0  0  0
  -20.4500  -26.8670   22.3820 C   0  0  0  0  0  2  0  0  0  0  0  0
  -19.3120  -26.6420   21.3800 C   0  0  0  0  0  2  0  0  0  0  0  0
  -17.9540  -26.8170   22.0660 C   0  0  0  0  0  2  0  0  0  0  0  0
  -19.0190  -28.8280   23.2460 C   0  0  0  0  0  0  0  0  0  0  0  0
  -18.8720  -30.0710   23.8990 C   0  0  0  0  0  3  0  0  0  0  0  0
  -17.5970  -30.6230   24.1170 C   0  0  0  0  0  3  0  0  0  0  0  0
  -16.4500  -29.9300   23.6960 C   0  0  0  0  0  3  0  0  0  0  0  0
  -16.5800  -28.6900   23.0450 C   0  0  0  0  0  3  0  0  0  0  0  0
  -25.8240  -32.2740   23.7860 C   0  0  0  0  0  3  0  0  0  0  0  0
  -25.5640  -33.6750   24.1370 N   0  0  0  0  0  0  0  0  0  0  0  0
  -25.9350  -34.7260   23.3930 C   0  0  0  0  0  0  0  0  0  0  0  0
  -26.6020  -34.6160   22.3620 O   0  0  0  0  0  0  0  0  0  0  0  0
  -24.9670  -33.8360   24.9330 H   0  0  0  0  0  0  0  0  0  0  0  0
  -24.2650  -36.5760   23.0610 C   0  0  0  0  0  1  0  0  0  0  0  0
  -25.4920  -36.1240   23.8660 C   0  0  0  0  0  3  0  0  0  0  0  0
  -27.6520  -36.9290   24.7090 C   0  0  0  0  0  1  0  0  0  0  0  0
  -26.5580  -37.1420   23.7640 N   0  0  0  0  0  0  0  0  0  0  0  0
  -26.1850  -38.0740   23.9140 H   0  0  0  0  0  0  0  0  0  0  0  0
  -26.3120  -31.4640   25.0500 C   0  0  1  0  0  0  0  0  0  0  0  0
  -25.2080  -31.2460   26.1100 C   0  0  0  0  0  1  0  0  0  0  0  0
  -26.8500  -30.0740   24.6360 C   0  0  0  0  0  1  0  0  0  0  0  0
  -27.4900  -32.2060   25.7270 C   0  0  0  0  0  1  0  0  0  0  0  0
  1  4  1  0
  1  2  2  0
  2 59  1  0
  2  6  1  0
  3  5  1  0
  3  6  1  0
  4  3  2  0
  5  7  1  0
  8  1  1  0
  9  8  1  0
  9 16  1  0
 10  8  2  0
 11  9  1  0
 12 15  1  0
 14 17  2  0
 15 56  1  0
 15 13  2  0
 16 12  2  0
 16 14  1  0
 17 13  1  0
 17 26  1  0
 18 24  1  0
 18 26  1  0
 19 24  1  0
 20 21  1  0
 20 19  1  0
 22 21  1  0
 22 31  1  0
 22 23  1  0
 24 23  1  0
 25 18  2  0
 26 27  1  0
 28 29  2  0
 29 48  1  0
 30 29  1  0
 30 33  1  0
 31 32  1  0
 31 28  1  0
 32 30  2  0
 33 34  1  0
 34 35  2  0
 36 39  1  0
 36 35  1  0
 37 36  2  0
 38 37  1  0
 38 33  2  0
 39 40  1  0
 40 41  1  0
 41 42  2  0
 43 42  1  0
 43 47  1  0
 44 43  2  0
 45 40  2  0
 45 44  1  0
 46 45  1  0
 48 49  1  0
 49 52  1  0
 49 51  1  0
 50 48  2  0
 53 54  1  0
 53 28  1  0
 55 53  1  0
 56 57  1  0
 58 56  1  0
 59 61  1  0
 60 59  1  0
 62  5  1  0
 63 62  1  0
 63 64  1  0
 64 65  1  0
 64 66  2  0
 66 67  1  0
 68 70  1  0
 68 63  1  0
 69 80  2  0
 70 75  1  0
 71 79  1  0
 71 81  1  0
 72 78  1  0
 72 74  1  0
 73 79  1  0
 74 73  1  0
 75 74  2  0
 76 77  1  0
 76 70  2  0
 77 72  2  0
 78 71  1  0
 79 69  1  0
 81 83  2  0
 82 81  1  0
 84 82  1  0
 85 94  2  0
 85 90  1  0
 86 82  1  0
 86 90  1  0
 87 86  1  0
 88 89  1  0
 88 87  1  0
 89 85  1  0
 90 91  2  0
 91 92  1  0
 93 92  2  0
 94 93  1  0
 95 69  1  0
 95 96  1  0
 95105  1  0
 96 99  1  0
 97101  1  0
 97 96  1  0
 98 97  2  0
101100  1  0
103101  1  0
103104  1  0
103102  1  0
105108  1  1
105106  1  0
107105  1  0
M  ISO  4  18 100  26 100  63 101  68 101
M  END
>  <TORSDO>  (30) 
F 23

>  <SCORE>  (30) 
-13.100

>  <name>  (30) 
29

>  <ligand_id>  (30) 
29

>  <original_smiles>  (30) 
[H]N=C(C([H])([H])[H])C([H])(Oc1c([H])c([H])c2c(c1[H])C([H])([H])N(C(=O)C([H])(N([H])C(=O)C([H])(N([H])C([H])([H])[H])C([H])([H])[H])C(C([H])([H])[H])(C([H])([H])[H])C([H])([H])[H])C([H])(C(=O)N([H])C1([H])c3c([H])c([H])c([H])c([H])c3C([H])([H])C([H])([H])C1([H])[H])C2([H])[H])C([H])([H])N([H])c1nc(C(=O)N([H])c2c([H])c(N([H])[H])c([H])c(N([H])C(=O)N3C([H])([H])C([H])([H])C([H])([H])C([H])(n4nc(-c5c([H])c([H])c(Oc6c([H])c([H])c(F)c([H])c6F)c([H])c5[H])c(C(=O)N([H])[H])c4N([H])[H])C3([H])[H])c2[H])c(N([H])[H])s1

>  <smiles>  (30) 
[H]N=C(C([H])([H])[H])C([H])(Oc1c([H])c([H])c2c(c1[H])C([H])([H])N(C(=O)C([H])(N([H])C(=O)C([H])(N([H])C([H])([H])[H])C([H])([H])[H])C(C([H])([H])[H])(C([H])([H])[H])C([H])([H])[H])C([H])(C(=O)N([H])C1([H])c3c([H])c([H])c([H])c([H])c3C([H])([H])C([H])([H])C1([H])[H])C2([H])[H])C([H])([H])N([H])c1nc(C(=O)N([H])c2c([H])c(N([H])[H])c([H])c(N([H])C(=O)N3C([H])([H])C([H])([H])C([H])([H])C([H])(n4nc(-c5c([H])c([H])c(Oc6c([H])c([H])c(F)c([H])c6F)c([H])c5[H])c(C(=O)N([H])[H])c4N([H])[H])C3([H])[H])c2[H])c(N([H])[H])s1

$$$$
30:0:0
     RDKit          3D

 94102  0  0  1  0  0  0  0  0999 V2000
  -29.3810  -21.6000   19.9900 C   0  0  0  0  0  0  0  0  0  0  0  0
  -29.2930  -20.4560   20.7230 N   0  0  0  0  0  0  0  0  0  0  0  0
  -29.9120  -21.6370   18.8760 O   0  0  0  0  0  0  0  0  0  0  0  0
  -28.6760  -20.5030   21.5200 H   0  0  0  0  0  0  0  0  0  0  0  0
  -31.4140  -17.6070   20.2620 C   0  0  0  0  0  3  0  0  0  0  0  0
  -31.2480  -19.0280   20.2590 C   0  0  0  0  0  0  0  0  0  0  0  0
  -30.2050  -17.0390   20.5760 C   0  0  0  0  0  0  0  0  0  0  0  0
  -29.9130  -19.2400   20.5330 C   0  0  0  0  0  0  0  0  0  0  0  0
  -32.3640  -20.0190   20.0210 C   0  0  0  0  0  1  0  0  0  0  0  0
  -29.2710  -18.0360   20.7720 O   0  0  0  0  0  0  0  0  0  0  0  0
  -30.6520  -14.6020   20.3400 C   0  0  0  0  0  0  0  0  0  0  0  0
  -30.3480  -12.4190   19.2240 C   0  0  0  0  0  2  0  0  0  0  0  0
  -29.4000  -12.6270   18.0250 C   0  0  0  0  0  2  0  0  0  0  0  0
  -27.9330  -12.4690   18.4720 C   0  0  0  0  0  2  0  0  0  0  0  0
  -27.6010  -13.3010   19.7390 C   0  0  0  0  0  3  0  0  0  0  0  0
  -28.6720  -13.1040   20.8370 C   0  0  0  0  0  2  0  0  0  0  0  0
  -29.9820  -13.4150   20.2470 N   0  0  0  0  0  0  0  0  0  0  0  0
  -31.8160  -14.7010   19.9450 O   0  0  0  0  0  0  0  0  0  0  0  0
  -29.9130  -15.6930   20.7010 N   0  0  0  0  0  0  0  0  0  0  0  0
  -28.9730  -15.4820   20.9950 H   0  0  0  0  0  0  0  0  0  0  0  0
  -25.2100  -13.8910   20.4750 C   0  0  0  0  0  0  0  0  0  0  0  0
  -24.1490  -13.1120   20.8520 C   0  0  0  0  0  0  0  0  0  0  0  0
  -24.6170  -11.7620   20.8170 C   0  0  0  0  0  0  0  0  0  0  0  0
  -26.2570  -13.0140   20.2340 N   0  0  0  0  0  0  0  0  0  0  0  0
  -25.9050  -11.7310   20.4980 N   0  0  0  0  0  0  0  0  0  0  0  0
  -23.8970  -10.4960   21.0090 C   0  0  0  0  0  0  0  0  0  0  0  0
  -24.3250   -9.5400   21.9560 C   0  0  0  0  0  3  0  0  0  0  0  0
  -23.6040   -8.3400   22.1370 C   0  0  0  0  0  3  0  0  0  0  0  0
  -22.4420   -8.0880   21.3690 C   0  0  0  0  0  0  0  0  0  0  0  0
  -22.0340   -9.0330   20.4120 C   0  0  0  0  0  3  0  0  0  0  0  0
  -22.7550  -10.2250   20.2300 C   0  0  0  0  0  3  0  0  0  0  0  0
  -21.6940   -6.9380   21.4580 O   0  0  0  0  0  0  0  0  0  0  0  0
  -21.6240   -6.2130   22.6200 C   0  0  0  0  0  0  0  0  0  0  0  0
  -21.1360   -6.7750   23.8200 C   0  0  0  0  0  3  0  0  0  0  0  0
  -21.0150   -5.9760   24.9740 C   0  0  0  0  0  3  0  0  0  0  0  0
  -21.3710   -4.6150   24.9310 C   0  0  0  0  0  0  0  0  0  0  0  0
  -21.8520   -4.0510   23.7350 C   0  0  0  0  0  3  0  0  0  0  0  0
  -21.9750   -4.8490   22.5830 C   0  0  0  0  0  0  0  0  0  0  0  0
  -22.4190   -4.2950   21.4290 F   0  0  0  0  0  0  0  0  0  0  0  0
  -21.2470   -3.8450   26.0360 F   0  0  0  0  0  0  0  0  0  0  0  0
  -22.7530  -13.5840   21.1350 C   0  0  0  0  0  0  0  0  0  0  0  0
  -22.0310  -12.8790   21.9990 N   0  0  0  0  0  0  0  0  0  0  0  0
  -22.3100  -14.6120   20.6260 O   0  0  0  0  0  0  0  0  0  0  0  0
  -22.3970  -12.0440   22.4300 H   0  0  0  0  0  0  0  0  0  0  0  0
  -21.0960  -13.1820   22.2340 H   0  0  0  0  0  0  0  0  0  0  0  0
  -25.3670  -15.2620   20.2960 N   0  0  0  0  0  0  0  0  0  0  0  0
  -24.5920  -15.9090   20.3990 H   0  0  0  0  0  0  0  0  0  0  0  0
  -26.2050  -15.7060   19.9420 H   0  0  0  0  0  0  0  0  0  0  0  0
  -28.7600  -22.7790   20.6310 C   0  0  0  0  0  3  0  0  0  0  0  0
  -28.8120  -24.0630   20.1570 C   0  0  0  0  0  0  0  0  0  0  0  0
  -29.4310  -24.4280   19.0220 O   0  0  0  0  0  0  0  0  0  0  0  0
  -29.7970  -23.6390   18.6320 H   0  0  0  0  0  0  0  0  0  0  0  0
  -28.1780  -25.2930   20.8540 C   0  0  0  0  0  2  0  0  0  0  0  0
  -28.3750  -26.5970   20.2250 O   0  0  0  0  0  0  0  0  0  0  0  0
  -24.6100  -31.9050   23.2430 C   0  0  0  0  0  0  0  0  0  0  0  0
  -27.2490  -27.4070   20.1980 C   0  0  0  0  0  0  0  0  0  0  0  0
  -23.4140  -30.5030   21.5970 C   0  0  0  0  0  3  0  0  0  0  0  0
  -24.8740  -28.9610   20.1780 C   0  0  0  0  0  0  0  0  0  0  0  0
  -25.9460  -30.8440   21.4210 C   0  0  0  0  0  2  0  0  0  0  0  0
  -26.0330  -29.4680   20.7800 C   0  0  0  0  0  0  0  0  0  0  0  0
  -27.2270  -28.7000   20.7880 C   0  0  0  0  0  3  0  0  0  0  0  0
  -26.0770  -26.9340   19.5720 C   0  0  0  0  0  3  0  0  0  0  0  0
  -24.8920  -27.6930   19.5730 C   0  0  0  0  0  3  0  0  0  0  0  0
  -23.6340  -29.8280   20.2160 C   0  0  0  0  0  2  0  0  0  0  0  0
  -24.6750  -31.1000   22.1450 N   0  0  0  0  0  0  0  0  0  0  0  0
  -23.5240  -32.1820   23.7740 O   0  0  0  0  0  0  0  0  0  0  0  0
  -22.7530  -29.4830   22.5520 C   0  0  0  0  0  0  0  0  0  0  0  0
  -21.4330  -29.2890   22.4030 N   0  0  0  0  0  0  0  0  0  0  0  0
  -23.4250  -28.8710   23.3860 O   0  0  0  0  0  0  0  0  0  0  0  0
  -20.9500  -29.8340   21.7020 H   0  0  0  0  0  0  0  0  0  0  0  0
  -18.0630  -28.0500   22.8350 C   0  0  0  0  0  0  0  0  0  0  0  0
  -20.6100  -28.3490   23.1670 C   0  0  0  0  0  3  0  0  0  0  0  0
  -20.7480  -26.9120   22.6140 C   0  0  0  0  0  2  0  0  0  0  0  0
  -19.6770  -26.5590   21.5770 C   0  0  0  0  0  2  0  0  0  0  0  0
  -18.2780  -26.6930   22.1830 C   0  0  0  0  0  2  0  0  0  0  0  0
  -19.1600  -28.8340   23.2820 C   0  0  0  0  0  0  0  0  0  0  0  0
  -18.9080  -30.1020   23.8490 C   0  0  0  0  0  3  0  0  0  0  0  0
  -17.5930  -30.5870   23.9720 C   0  0  0  0  0  3  0  0  0  0  0  0
  -16.5110  -29.8010   23.5420 C   0  0  0  0  0  3  0  0  0  0  0  0
  -16.7460  -28.5330   22.9800 C   0  0  0  0  0  3  0  0  0  0  0  0
  -25.8930  -32.5350   23.8700 C   0  0  0  0  0  3  0  0  0  0  0  0
  -26.3990  -31.7700   25.1530 C   0  0  1  0  0  0  0  0  0  0  0  0
  -25.2970  -31.5370   26.2130 C   0  0  0  0  0  1  0  0  0  0  0  0
  -26.9840  -30.3910   24.7730 C   0  0  0  0  0  1  0  0  0  0  0  0
  -27.5450  -32.5680   25.8200 C   0  0  0  0  0  1  0  0  0  0  0  0
  -25.5860  -33.9370   24.1870 N   0  0  0  0  0  0  0  0  0  0  0  0
  -25.9320  -34.9820   23.4240 C   0  0  0  0  0  0  0  0  0  0  0  0
  -26.6150  -34.8690   22.4010 O   0  0  0  0  0  0  0  0  0  0  0  0
  -24.9810  -34.1000   24.9780 H   0  0  0  0  0  0  0  0  0  0  0  0
  -24.2280  -36.7890   23.0260 C   0  0  0  0  0  1  0  0  0  0  0  0
  -25.4470  -36.3760   23.8650 C   0  0  0  0  0  3  0  0  0  0  0  0
  -27.5660  -37.2510   24.7470 C   0  0  0  0  0  1  0  0  0  0  0  0
  -26.4900  -37.4210   23.7730 N   0  0  0  0  0  0  0  0  0  0  0  0
  -26.0870  -38.3440   23.9070 H   0  0  0  0  0  0  0  0  0  0  0  0
  1 49  1  0
  1  2  1  0
  2  4  1  0
  3  1  2  0
  5  7  2  0
  6  5  1  0
  6  8  2  0
  7 19  1  0
  7 10  1  0
  8  2  1  0
  8 10  1  0
  9  6  1  0
 11 19  1  0
 12 17  1  0
 13 14  1  0
 13 12  1  0
 15 14  1  0
 15 24  1  0
 15 16  1  0
 17 11  1  0
 17 16  1  0
 18 11  2  0
 19 20  1  0
 21 22  2  0
 22 41  1  0
 23 22  1  0
 23 26  1  0
 24 21  1  0
 24 25  1  0
 25 23  2  0
 26 27  1  0
 27 28  2  0
 29 32  1  0
 29 28  1  0
 30 29  2  0
 31 30  1  0
 31 26  2  0
 32 33  1  0
 33 34  1  0
 34 35  2  0
 36 35  1  0
 36 40  1  0
 37 36  2  0
 38 33  2  0
 38 37  1  0
 39 38  1  0
 41 42  1  0
 42 45  1  0
 42 44  1  0
 43 41  2  0
 46 47  1  0
 46 21  1  0
 48 46  1  0
 50 49  2  0
 50 53  1  0
 51 50  1  0
 52 51  1  0
 54 53  1  0
 55 66  2  0
 56 54  1  0
 56 61  1  0
 57 65  1  0
 57 67  1  0
 58 64  1  0
 58 60  1  0
 59 65  1  0
 60 61  2  0
 60 59  1  0
 62 63  1  0
 62 56  2  0
 63 58  2  0
 64 57  1  0
 65 55  1  0
 67 69  2  0
 68 67  1  0
 70 68  1  0
 71 80  2  0
 71 76  1  0
 72 68  1  0
 72 76  1  0
 73 72  1  0
 74 75  1  0
 74 73  1  0
 75 71  1  0
 76 77  2  0
 77 78  1  0
 79 78  2  0
 80 79  1  0
 81 55  1  0
 81 86  1  0
 81 82  1  0
 82 85  1  1
 82 83  1  0
 84 82  1  0
 86 89  1  0
 87 91  1  0
 87 86  1  0
 88 87  2  0
 91 90  1  0
 93 91  1  0
 93 94  1  0
 93 92  1  0
M  ISO  4  11 100  19 100  53 101  54 101
M  END
>  <TORSDO>  (31) 
F 20

>  <SCORE>  (31) 
-14.238

>  <name>  (31) 
30

>  <ligand_id>  (31) 
30

>  <original_smiles>  (31) 
[H]OC(=C([H])C(=O)N([H])c1oc(N([H])C(=O)N2C([H])([H])C([H])([H])C([H])([H])C([H])(n3nc(-c4c([H])c([H])c(Oc5c([H])c([H])c(F)c([H])c5F)c([H])c4[H])c(C(=O)N([H])[H])c3N([H])[H])C2([H])[H])c([H])c1C([H])([H])[H])C([H])([H])Oc1c([H])c([H])c2c(c1[H])C([H])([H])N(C(=O)C([H])(N([H])C(=O)C([H])(N([H])C([H])([H])[H])C([H])([H])[H])C(C([H])([H])[H])(C([H])([H])[H])C([H])([H])[H])C([H])(C(=O)N([H])C1([H])c3c([H])c([H])c([H])c([H])c3C([H])([H])C([H])([H])C1([H])[H])C2([H])[H]

>  <smiles>  (31) 
[H]OC(=C([H])C(=O)N([H])c1oc(N([H])C(=O)N2C([H])([H])C([H])([H])C([H])([H])C([H])(n3nc(-c4c([H])c([H])c(Oc5c([H])c([H])c(F)c([H])c5F)c([H])c4[H])c(C(=O)N([H])[H])c3N([H])[H])C2([H])[H])c([H])c1C([H])([H])[H])C([H])([H])Oc1c([H])c([H])c2c(c1[H])C([H])([H])N(C(=O)C([H])(N([H])C(=O)C([H])(N([H])C([H])([H])[H])C([H])([H])[H])C(C([H])([H])[H])(C([H])([H])[H])C([H])([H])[H])C([H])(C(=O)N([H])C1([H])c3c([H])c([H])c([H])c([H])c3C([H])([H])C([H])([H])C1([H])[H])C2([H])[H]

$$$$
31:0:0
     RDKit          3D

102110  0  0  1  0  0  0  0  0999 V2000
  -31.8880  -17.4420   21.0690 C   0  0  0  0  0  3  0  0  0  0  0  0
  -31.1990  -19.7870   21.0080 C   0  0  0  0  0  3  0  0  0  0  0  0
  -29.5280  -18.0150   20.8950 C   0  0  0  0  0  3  0  0  0  0  0  0
  -32.2160  -18.8130   21.0830 C   0  0  0  0  0  0  0  0  0  0  0  0
  -30.5400  -17.0210   20.9530 C   0  0  0  0  0  0  0  0  0  0  0  0
  -29.8460  -19.3990   20.9150 C   0  0  0  0  0  0  0  0  0  0  0  0
  -30.7700  -14.6370   20.2300 C   0  0  0  0  0  0  0  0  0  0  0  0
  -30.3960  -12.4800   19.0940 C   0  0  0  0  0  2  0  0  0  0  0  0
  -29.4260  -12.6880   17.9170 C   0  0  0  0  0  2  0  0  0  0  0  0
  -27.9650  -12.5580   18.3890 C   0  0  0  0  0  2  0  0  0  0  0  0
  -27.6690  -13.4120   19.6520 C   0  0  0  0  0  3  0  0  0  0  0  0
  -28.7540  -13.1970   20.7330 C   0  0  0  0  0  2  0  0  0  0  0  0
  -30.0670  -13.4760   20.1270 N   0  0  0  0  0  0  0  0  0  0  0  0
  -31.8500  -14.7990   19.6550 O   0  0  0  0  0  0  0  0  0  0  0  0
  -30.1670  -15.6340   20.9090 N   0  0  0  0  0  0  0  0  0  0  0  0
  -29.2580  -15.3980   21.2780 H   0  0  0  0  0  0  0  0  0  0  0  0
  -25.3170  -14.0500   20.4850 C   0  0  0  0  0  0  0  0  0  0  0  0
  -24.2440  -13.2900   20.8640 C   0  0  0  0  0  0  0  0  0  0  0  0
  -24.6660  -11.9290   20.7550 C   0  0  0  0  0  0  0  0  0  0  0  0
  -26.3280  -13.1530   20.1720 N   0  0  0  0  0  0  0  0  0  0  0  0
  -25.9400  -11.8690   20.3920 N   0  0  0  0  0  0  0  0  0  0  0  0
  -23.9130  -10.6790   20.9210 C   0  0  0  0  0  0  0  0  0  0  0  0
  -24.3620   -9.6560   21.7840 C   0  0  0  0  0  3  0  0  0  0  0  0
  -23.6120   -8.4710   21.9410 C   0  0  0  0  0  3  0  0  0  0  0  0
  -22.3970   -8.3000   21.2350 C   0  0  0  0  0  0  0  0  0  0  0  0
  -21.9670   -9.3120   20.3590 C   0  0  0  0  0  3  0  0  0  0  0  0
  -22.7180  -10.4880   20.2000 C   0  0  0  0  0  3  0  0  0  0  0  0
  -21.6170   -7.1700   21.3040 O   0  0  0  0  0  0  0  0  0  0  0  0
  -21.6180   -6.3610   22.4110 C   0  0  0  0  0  0  0  0  0  0  0  0
  -21.2880   -6.8530   23.6930 C   0  0  0  0  0  3  0  0  0  0  0  0
  -21.2330   -5.9710   24.7920 C   0  0  0  0  0  3  0  0  0  0  0  0
  -21.4990   -4.6010   24.6110 C   0  0  0  0  0  0  0  0  0  0  0  0
  -21.8240   -4.1100   23.3340 C   0  0  0  0  0  3  0  0  0  0  0  0
  -21.8810   -4.9880   22.2380 C   0  0  0  0  0  0  0  0  0  0  0  0
  -22.1730   -4.5040   21.0060 F   0  0  0  0  0  0  0  0  0  0  0  0
  -21.4400   -3.7540   25.6640 F   0  0  0  0  0  0  0  0  0  0  0  0
  -22.8710  -13.7900   21.2160 C   0  0  0  0  0  0  0  0  0  0  0  0
  -22.1640  -13.0800   22.0880 N   0  0  0  0  0  0  0  0  0  0  0  0
  -22.4390  -14.8450   20.7530 O   0  0  0  0  0  0  0  0  0  0  0  0
  -22.5250  -12.2270   22.4860 H   0  0  0  0  0  0  0  0  0  0  0  0
  -21.2450  -13.4000   22.3610 H   0  0  0  0  0  0  0  0  0  0  0  0
  -25.5160  -15.4210   20.3590 N   0  0  0  0  0  0  0  0  0  0  0  0
  -24.7740  -16.0940   20.5190 H   0  0  0  0  0  0  0  0  0  0  0  0
  -26.3560  -15.8440   19.9850 H   0  0  0  0  0  0  0  0  0  0  0  0
  -33.6120  -19.2300   21.1620 C   0  0  0  0  0  0  0  0  0  0  0  0
  -34.5290  -18.6700   20.3780 N   0  0  0  0  0  4  0  0  0  0  0  0
  -33.9900  -20.1780   22.0170 N   0  0  0  0  0  0  0  0  0  0  0  0
  -34.2350  -17.9990   19.6830 H   0  0  0  0  0  0  0  0  0  0  0  0
  -35.5010  -18.9340   20.3970 H   0  0  0  0  0  0  0  0  0  0  0  0
  -33.3090  -20.5690   22.6520 H   0  0  0  0  0  0  0  0  0  0  0  0
  -34.9430  -20.4950   22.0880 H   0  0  0  0  0  0  0  0  0  0  0  0
  -28.8160  -20.3540   20.8320 N   0  0  0  0  0  0  0  0  0  0  0  0
  -27.8560  -20.0710   20.6450 H   0  0  0  0  0  0  0  0  0  0  0  0
  -29.0630  -21.8060   20.8040 C   0  0  0  0  0  2  0  0  0  0  0  0
  -27.7610  -22.6200   20.6660 C   0  0  0  0  0  0  0  0  0  0  0  0
  -26.6970  -22.0350   20.4150 O   0  0  0  0  0  0  0  0  0  0  0  0
  -27.7750  -24.1690   20.8450 C   0  0  0  0  0  0  0  0  0  0  0  0
  -26.7020  -24.7740   20.9780 O   0  0  0  0  0  0  0  0  0  0  0  0
  -29.1210  -24.9150   20.8870 C   0  0  0  0  0  2  0  0  0  0  0  0
  -30.3830  -27.0880   21.3230 C   0  0  0  0  0  1  0  0  0  0  0  0
  -29.0220  -26.4610   20.9960 C   0  0  0  0  0  3  0  0  0  0  0  0
  -28.5840  -27.0190   19.7520 O   0  0  0  0  0  0  0  0  0  0  0  0
  -24.5220  -31.8010   23.1370 C   0  0  0  0  0  0  0  0  0  0  0  0
  -27.4080  -27.7280   19.8080 C   0  0  0  0  0  0  0  0  0  0  0  0
  -23.3980  -30.4560   21.3890 C   0  0  0  0  0  3  0  0  0  0  0  0
  -24.9400  -29.0930   19.8800 C   0  0  0  0  0  0  0  0  0  0  0  0
  -25.8990  -30.9570   21.2450 C   0  0  0  0  0  2  0  0  0  0  0  0
  -26.0610  -29.6380   20.5220 C   0  0  0  0  0  0  0  0  0  0  0  0
  -27.2980  -28.9580   20.4940 C   0  0  0  0  0  3  0  0  0  0  0  0
  -26.2820  -27.2020   19.1480 C   0  0  0  0  0  3  0  0  0  0  0  0
  -25.0440  -27.8720   19.1910 C   0  0  0  0  0  3  0  0  0  0  0  0
  -23.6510  -29.8790   19.9700 C   0  0  0  0  0  2  0  0  0  0  0  0
  -24.6220  -31.0830   21.9840 N   0  0  0  0  0  0  0  0  0  0  0  0
  -23.4250  -31.9840   23.6830 O   0  0  0  0  0  0  0  0  0  0  0  0
  -22.7920  -29.3420   22.2730 C   0  0  0  0  0  0  0  0  0  0  0  0
  -21.4720  -29.1260   22.1400 N   0  0  0  0  0  0  0  0  0  0  0  0
  -23.5030  -28.6790   23.0310 O   0  0  0  0  0  0  0  0  0  0  0  0
  -20.9580  -29.7190   21.5030 H   0  0  0  0  0  0  0  0  0  0  0  0
  -18.1370  -27.8180   22.5950 C   0  0  0  0  0  0  0  0  0  0  0  0
  -20.6930  -28.1060   22.8400 C   0  0  0  0  0  3  0  0  0  0  0  0
  -20.8130  -26.7340   22.1350 C   0  0  0  0  0  2  0  0  0  0  0  0
  -19.6960  -26.4800   21.1180 C   0  0  0  0  0  2  0  0  0  0  0  0
  -18.3250  -26.5380   21.8000 C   0  0  0  0  0  2  0  0  0  0  0  0
  -19.2490  -28.5620   23.0710 C   0  0  0  0  0  0  0  0  0  0  0  0
  -19.0190  -29.7650   23.7740 C   0  0  0  0  0  3  0  0  0  0  0  0
  -17.7080  -30.2200   24.0080 C   0  0  0  0  0  3  0  0  0  0  0  0
  -16.6100  -29.4720   23.5510 C   0  0  0  0  0  3  0  0  0  0  0  0
  -16.8260  -28.2710   22.8500 C   0  0  0  0  0  3  0  0  0  0  0  0
  -25.7720  -32.4490   23.8110 C   0  0  0  0  0  3  0  0  0  0  0  0
  -25.4200  -33.8320   24.1540 N   0  0  0  0  0  0  0  0  0  0  0  0
  -25.7480  -34.9040   23.4180 C   0  0  0  0  0  0  0  0  0  0  0  0
  -26.4490  -34.8320   22.4050 O   0  0  0  0  0  0  0  0  0  0  0  0
  -24.7990  -33.9610   24.9380 H   0  0  0  0  0  0  0  0  0  0  0  0
  -23.9770  -36.6520   23.0490 C   0  0  0  0  0  1  0  0  0  0  0  0
  -25.2130  -36.2720   23.8800 C   0  0  0  0  0  3  0  0  0  0  0  0
  -27.3060  -37.2090   24.7600 C   0  0  0  0  0  1  0  0  0  0  0  0
  -26.2160  -37.3550   23.7970 N   0  0  0  0  0  0  0  0  0  0  0  0
  -25.7820  -38.2620   23.9460 H   0  0  0  0  0  0  0  0  0  0  0  0
  -26.2670  -31.6640   25.0880 C   0  0  1  0  0  0  0  0  0  0  0  0
  -25.1460  -31.3820   26.1150 C   0  0  0  0  0  1  0  0  0  0  0  0
  -26.8960  -30.3100   24.6870 C   0  0  0  0  0  1  0  0  0  0  0  0
  -27.3760  -32.4720   25.8030 C   0  0  0  0  0  1  0  0  0  0  0  0
  1  4  1  0
  2  4  2  0
  3  6  2  0
  3  5  1  0
  4 45  1  0
  5  1  2  0
  6  2  1  0
  7 15  1  0
  8 13  1  0
  9 10  1  0
  9  8  1  0
 11 10  1  0
 11 20  1  0
 11 12  1  0
 13  7  1  0
 13 12  1  0
 14  7  2  0
 15  5  1  0
 15 16  1  0
 17 18  2  0
 18 37  1  0
 19 18  1  0
 19 22  1  0
 20 21  1  0
 20 17  1  0
 21 19  2  0
 22 23  1  0
 23 24  2  0
 25 28  1  0
 25 24  1  0
 26 25  2  0
 27 26  1  0
 27 22  2  0
 28 29  1  0
 29 30  1  0
 30 31  2  0
 32 31  1  0
 32 36  1  0
 33 32  2  0
 34 29  2  0
 34 33  1  0
 35 34  1  0
 37 38  1  0
 38 41  1  0
 38 40  1  0
 39 37  2  0
 42 17  1  0
 42 43  1  0
 44 42  1  0
 45 47  1  0
 46 49  1  0
 46 45  2  0
 47 51  1  0
 47 50  1  0
 48 46  1  0
 52  6  1  0
 53 52  1  0
 54 52  1  0
 55 54  1  0
 55 57  1  0
 56 55  2  0
 57 59  1  0
 57 58  2  0
 59 61  1  0
 61 60  1  0
 62 64  1  0
 62 61  1  0
 63 74  2  0
 64 69  1  0
 65 73  1  0
 65 75  1  0
 66 72  1  0
 66 68  1  0
 67 73  1  0
 68 67  1  0
 69 68  2  0
 70 71  1  0
 70 64  2  0
 71 66  2  0
 72 65  1  0
 73 63  1  0
 75 77  2  0
 76 75  1  0
 78 76  1  0
 79 88  2  0
 79 84  1  0
 80 76  1  0
 80 84  1  0
 81 80  1  0
 82 83  1  0
 82 81  1  0
 83 79  1  0
 84 85  2  0
 85 86  1  0
 87 86  2  0
 88 87  1  0
 89 63  1  0
 89 90  1  0
 89 99  1  0
 90 93  1  0
 91 95  1  0
 91 90  1  0
 92 91  2  0
 95 94  1  0
 97 95  1  0
 97 98  1  0
 97 96  1  0
 99102  1  1
 99100  1  0
101 99  1  0
M  ISO  4   7 100  15 100  61 101  62 101
M  END
>  <TORSDO>  (32) 
F 23

>  <SCORE>  (32) 
-12.722

>  <name>  (32) 
31

>  <ligand_id>  (32) 
31

>  <original_smiles>  (32) 
[H]c1c([H])c([H])c2c(c1[H])C([H])([H])C([H])([H])C([H])([H])C2([H])N([H])C(=O)C1([H])N(C(=O)C([H])(N([H])C(=O)C([H])(N([H])C([H])([H])[H])C([H])([H])[H])C(C([H])([H])[H])(C([H])([H])[H])C([H])([H])[H])C([H])([H])c2c([H])c(OC([H])(C([H])([H])[H])C([H])([H])C(=O)C(=O)C([H])([H])N([H])c3c([H])c(C(N([H])[H])=[N+]([H])[H])c([H])c(N([H])C(=O)N4C([H])([H])C([H])([H])C([H])([H])C([H])(n5nc(-c6c([H])c([H])c(Oc7c([H])c([H])c(F)c([H])c7F)c([H])c6[H])c(C(=O)N([H])[H])c5N([H])[H])C4([H])[H])c3[H])c([H])c([H])c2C1([H])[H]

>  <smiles>  (32) 
[H]c1c([H])c([H])c2c(c1[H])C([H])([H])C([H])([H])C([H])([H])C2([H])N([H])C(=O)C1([H])N(C(=O)C([H])(N([H])C(=O)C([H])(N([H])C([H])([H])[H])C([H])([H])[H])C(C([H])([H])[H])(C([H])([H])[H])C([H])([H])[H])C([H])([H])c2c([H])c(OC([H])(C([H])([H])[H])C([H])([H])C(=O)C(=O)C([H])([H])N([H])c3c([H])c(C(N([H])[H])=[N+]([H])[H])c([H])c(N([H])C(=O)N4C([H])([H])C([H])([H])C([H])([H])C([H])(n5nc(-c6c([H])c([H])c(Oc7c([H])c([H])c(F)c([H])c7F)c([H])c6[H])c(C(=O)N([H])[H])c5N([H])[H])C4([H])[H])c3[H])c([H])c([H])c2C1([H])[H]

$$$$
32:0:0
     RDKit          3D

 96105  0  0  1  0  0  0  0  0999 V2000
  -30.7880  -20.1730   19.4430 C   0  0  0  0  0  3  0  0  0  0  0  0
  -29.5290  -23.5410   20.8790 C   0  0  0  0  0  2  0  0  0  0  0  0
  -28.7080  -23.0790   18.5500 C   0  0  0  0  0  2  0  0  0  0  0  0
  -29.7810  -21.9950   20.9360 C   0  0  0  0  0  2  0  0  0  0  0  0
  -30.0890  -22.3830   18.5000 C   0  0  0  0  0  2  0  0  0  0  0  0
  -28.4660  -23.9570   19.8200 C   0  0  1  0  0  0  0  0  0  0  0  0
  -27.0630  -23.6180   20.3690 C   0  0  0  0  0  1  0  0  0  0  0  0
  -30.2540  -21.4330   19.6380 N   0  0  0  0  0  0  0  0  0  0  0  0
  -31.3720  -19.9150   18.2580 N   0  0  0  0  0  0  0  0  0  0  0  0
  -31.8120  -19.0250   18.0900 H   0  0  0  0  0  0  0  0  0  0  0  0
  -31.4590  -20.6200   17.5430 H   0  0  0  0  0  0  0  0  0  0  0  0
  -30.6590  -17.6910   20.0370 C   0  0  0  0  0  3  0  0  0  0  0  0
  -30.8510  -17.4640   22.3590 C   0  0  0  0  0  3  0  0  0  0  0  0
  -30.7000  -16.8040   21.1690 C   0  0  0  0  0  0  0  0  0  0  0  0
  -30.7920  -19.0310   20.3740 C   0  0  0  0  0  0  0  0  0  0  0  0
  -31.0220  -19.1870   22.1070 S   0  0  0  0  0  0  0  0  0  0  0  0
  -31.0660  -14.4460   20.3560 C   0  0  0  0  0  0  0  0  0  0  0  0
  -30.7120  -12.2940   19.1840 C   0  0  0  0  0  2  0  0  0  0  0  0
  -29.7560  -12.5220   17.9940 C   0  0  0  0  0  2  0  0  0  0  0  0
  -28.2840  -12.4170   18.4390 C   0  0  0  0  0  2  0  0  0  0  0  0
  -27.9830  -13.2520   19.7110 C   0  0  0  0  0  3  0  0  0  0  0  0
  -29.0450  -12.9910   20.8040 C   0  0  0  0  0  2  0  0  0  0  0  0
  -30.3770  -13.2740   20.2320 N   0  0  0  0  0  0  0  0  0  0  0  0
  -32.1390  -14.6510   19.7780 O   0  0  0  0  0  0  0  0  0  0  0  0
  -30.4880  -15.3840   21.1380 N   0  0  0  0  0  0  0  0  0  0  0  0
  -29.7430  -15.0350   21.7230 H   0  0  0  0  0  0  0  0  0  0  0  0
  -25.6070  -13.9210   20.4390 C   0  0  0  0  0  0  0  0  0  0  0  0
  -24.5200  -13.1770   20.8180 C   0  0  0  0  0  0  0  0  0  0  0  0
  -24.9430  -11.8130   20.7790 C   0  0  0  0  0  0  0  0  0  0  0  0
  -26.6250  -13.0120   20.1990 N   0  0  0  0  0  0  0  0  0  0  0  0
  -26.2300  -11.7390   20.4590 N   0  0  0  0  0  0  0  0  0  0  0  0
  -24.1850  -10.5710   20.9770 C   0  0  0  0  0  0  0  0  0  0  0  0
  -24.5810   -9.6080   21.9320 C   0  0  0  0  0  3  0  0  0  0  0  0
  -23.8270   -8.4290   22.1160 C   0  0  0  0  0  3  0  0  0  0  0  0
  -22.6600   -8.2060   21.3460 C   0  0  0  0  0  0  0  0  0  0  0  0
  -22.2810   -9.1570   20.3830 C   0  0  0  0  0  3  0  0  0  0  0  0
  -23.0360  -10.3270   20.1980 C   0  0  0  0  0  3  0  0  0  0  0  0
  -21.8790   -7.0790   21.4400 O   0  0  0  0  0  0  0  0  0  0  0  0
  -21.7780   -6.3670   22.6090 C   0  0  0  0  0  0  0  0  0  0  0  0
  -21.2960   -6.9550   23.7990 C   0  0  0  0  0  3  0  0  0  0  0  0
  -21.1450   -6.1700   24.9600 C   0  0  0  0  0  3  0  0  0  0  0  0
  -21.4640   -4.7990   24.9300 C   0  0  0  0  0  0  0  0  0  0  0  0
  -21.9360   -4.2100   23.7430 C   0  0  0  0  0  3  0  0  0  0  0  0
  -22.0900   -4.9930   22.5860 C   0  0  0  0  0  0  0  0  0  0  0  0
  -22.5280   -4.4180   21.4390 F   0  0  0  0  0  0  0  0  0  0  0  0
  -21.3090   -4.0430   26.0410 F   0  0  0  0  0  0  0  0  0  0  0  0
  -23.1390  -13.6900   21.1070 C   0  0  0  0  0  0  0  0  0  0  0  0
  -22.4040  -13.0130   21.9820 N   0  0  0  0  0  0  0  0  0  0  0  0
  -22.7200  -14.7260   20.5910 O   0  0  0  0  0  0  0  0  0  0  0  0
  -22.7530  -12.1740   22.4210 H   0  0  0  0  0  0  0  0  0  0  0  0
  -21.4780  -13.3400   22.2210 H   0  0  0  0  0  0  0  0  0  0  0  0
  -25.8090  -15.2860   20.2620 N   0  0  0  0  0  0  0  0  0  0  0  0
  -25.0700  -15.9700   20.3810 H   0  0  0  0  0  0  0  0  0  0  0  0
  -26.6760  -15.6970   19.9350 H   0  0  0  0  0  0  0  0  0  0  0  0
  -28.5550  -25.4800   19.4090 C   0  0  0  0  0  2  0  0  0  0  0  0
  -28.2930  -26.5150   20.3880 O   0  0  0  0  0  0  0  0  0  0  0  0
  -24.5850  -31.9090   23.2770 C   0  0  0  0  0  0  0  0  0  0  0  0
  -27.1400  -27.2910   20.3210 C   0  0  0  0  0  0  0  0  0  0  0  0
  -23.3560  -30.4860   21.6740 C   0  0  0  0  0  3  0  0  0  0  0  0
  -24.7800  -28.8800   20.2940 C   0  0  0  0  0  0  0  0  0  0  0  0
  -25.8950  -30.7710   21.4840 C   0  0  0  0  0  2  0  0  0  0  0  0
  -25.9480  -29.3780   20.8820 C   0  0  0  0  0  0  0  0  0  0  0  0
  -27.1250  -28.5850   20.9050 C   0  0  0  0  0  3  0  0  0  0  0  0
  -25.9490  -26.8300   19.7150 C   0  0  0  0  0  3  0  0  0  0  0  0
  -24.7750  -27.6030   19.7130 C   0  0  0  0  0  3  0  0  0  0  0  0
  -23.5550  -29.7680   20.3140 C   0  0  0  0  0  2  0  0  0  0  0  0
  -24.6310  -31.0720   22.2020 N   0  0  0  0  0  0  0  0  0  0  0  0
  -23.5070  -32.2210   23.8030 O   0  0  0  0  0  0  0  0  0  0  0  0
  -22.6800  -29.5050   22.6600 C   0  0  0  0  0  0  0  0  0  0  0  0
  -21.3640  -29.2980   22.4930 N   0  0  0  0  0  0  0  0  0  0  0  0
  -23.3390  -28.9330   23.5320 O   0  0  0  0  0  0  0  0  0  0  0  0
  -20.8920  -29.8140   21.7640 H   0  0  0  0  0  0  0  0  0  0  0  0
  -18.0020  -28.0280   22.8800 C   0  0  0  0  0  0  0  0  0  0  0  0
  -20.5300  -28.3880   23.2800 C   0  0  0  0  0  3  0  0  0  0  0  0
  -20.7090  -26.9240   22.8150 C   0  0  0  0  0  2  0  0  0  0  0  0
  -19.6790  -26.4940   21.7640 C   0  0  0  0  0  2  0  0  0  0  0  0
  -18.2570  -26.6410   22.3150 C   0  0  0  0  0  2  0  0  0  0  0  0
  -19.0710  -28.8540   23.3190 C   0  0  0  0  0  0  0  0  0  0  0  0
  -18.7800  -30.1480   23.8020 C   0  0  0  0  0  3  0  0  0  0  0  0
  -17.4540  -30.6180   23.8540 C   0  0  0  0  0  3  0  0  0  0  0  0
  -16.4000  -29.7890   23.4340 C   0  0  0  0  0  3  0  0  0  0  0  0
  -16.6740  -28.4970   22.9530 C   0  0  0  0  0  3  0  0  0  0  0  0
  -25.8810  -32.5330   23.8810 C   0  0  0  0  0  3  0  0  0  0  0  0
  -25.5870  -33.9340   24.2100 N   0  0  0  0  0  0  0  0  0  0  0  0
  -25.9110  -34.9810   23.4400 C   0  0  0  0  0  0  0  0  0  0  0  0
  -26.5640  -34.8670   22.3980 O   0  0  0  0  0  0  0  0  0  0  0  0
  -25.0120  -34.0980   25.0240 H   0  0  0  0  0  0  0  0  0  0  0  0
  -24.1900  -36.7820   23.1010 C   0  0  0  0  0  1  0  0  0  0  0  0
  -25.4390  -36.3750   23.8960 C   0  0  0  0  0  3  0  0  0  0  0  0
  -27.5860  -37.2560   24.7000 C   0  0  0  0  0  1  0  0  0  0  0  0
  -26.4770  -37.4200   23.7630 N   0  0  0  0  0  0  0  0  0  0  0  0
  -26.0780  -38.3440   23.9030 H   0  0  0  0  0  0  0  0  0  0  0  0
  -26.4080  -31.7630   25.1540 C   0  0  1  0  0  0  0  0  0  0  0  0
  -25.3240  -31.5290   26.2330 C   0  0  0  0  0  1  0  0  0  0  0  0
  -26.9830  -30.3830   24.7580 C   0  0  0  0  0  1  0  0  0  0  0  0
  -27.5670  -32.5530   25.8060 C   0  0  0  0  0  1  0  0  0  0  0  0
  1  9  1  0
  1  8  1  0
  1 15  1  0
  2  4  1  0
  3  6  1  0
  5  3  1  0
  5  8  1  0
  6  7  1  1
  6  2  1  0
  8  4  1  0
 10  9  1  0
 11  9  1  0
 12 15  2  0
 12 14  1  0
 14 13  2  0
 15 16  1  0
 16 13  1  0
 17 25  1  0
 18 23  1  0
 19 20  1  0
 19 18  1  0
 21 20  1  0
 21 30  1  0
 21 22  1  0
 23 17  1  0
 23 22  1  0
 24 17  2  0
 25 14  1  0
 25 26  1  0
 27 28  2  0
 28 47  1  0
 29 28  1  0
 29 32  1  0
 30 27  1  0
 30 31  1  0
 31 29  2  0
 32 33  1  0
 33 34  2  0
 35 38  1  0
 35 34  1  0
 36 35  2  0
 37 36  1  0
 37 32  2  0
 38 39  1  0
 39 40  1  0
 40 41  2  0
 42 41  1  0
 42 46  1  0
 43 42  2  0
 44 39  2  0
 44 43  1  0
 45 44  1  0
 47 48  1  0
 48 51  1  0
 48 50  1  0
 49 47  2  0
 52 53  1  0
 52 27  1  0
 54 52  1  0
 55  6  1  0
 55 56  1  0
 57 68  2  0
 58 56  1  0
 58 63  1  0
 59 67  1  0
 59 69  1  0
 60 66  1  0
 60 62  1  0
 61 67  1  0
 62 63  2  0
 62 61  1  0
 64 58  2  0
 65 64  1  0
 65 60  2  0
 66 59  1  0
 67 57  1  0
 69 71  2  0
 70 69  1  0
 72 70  1  0
 73 82  2  0
 73 78  1  0
 74 70  1  0
 74 78  1  0
 75 74  1  0
 76 77  1  0
 76 75  1  0
 77 73  1  0
 78 79  2  0
 79 80  1  0
 81 80  2  0
 82 81  1  0
 83 57  1  0
 83 84  1  0
 83 93  1  0
 84 87  1  0
 85 89  1  0
 85 84  1  0
 86 85  2  0
 89 88  1  0
 91 89  1  0
 91 92  1  0
 91 90  1  0
 93 96  1  1
 93 94  1  0
 95 93  1  0
M  ISO  4  17 100  25 100  55 101  56 101
M  END
>  <TORSDO>  (33) 
F 18

>  <SCORE>  (33) 
-14.581

>  <name>  (33) 
32

>  <ligand_id>  (33) 
32

>  <original_smiles>  (33) 
[H]c1sc(C(N2C([H])([H])C([H])([H])C(C([H])([H])[H])(C([H])([H])Oc3c([H])c([H])c4c(c3[H])C([H])([H])N(C(=O)C([H])(N([H])C(=O)C([H])(N([H])C([H])([H])[H])C([H])([H])[H])C(C([H])([H])[H])(C([H])([H])[H])C([H])([H])[H])C([H])(C(=O)N([H])C3([H])c5c([H])c([H])c([H])c([H])c5C([H])([H])C([H])([H])C3([H])[H])C4([H])[H])C([H])([H])C2([H])[H])=[N+]([H])[H])c([H])c1N([H])C(=O)N1C([H])([H])C([H])([H])C([H])([H])C([H])(n2nc(-c3c([H])c([H])c(Oc4c([H])c([H])c(F)c([H])c4F)c([H])c3[H])c(C(=O)N([H])[H])c2N([H])[H])C1([H])[H]

>  <smiles>  (33) 
[H]c1sc(C(N2C([H])([H])C([H])([H])C(C([H])([H])[H])(C([H])([H])Oc3c([H])c([H])c4c(c3[H])C([H])([H])N(C(=O)C([H])(N([H])C(=O)C([H])(N([H])C([H])([H])[H])C([H])([H])[H])C(C([H])([H])[H])(C([H])([H])[H])C([H])([H])[H])C([H])(C(=O)N([H])C3([H])c5c([H])c([H])c([H])c([H])c5C([H])([H])C([H])([H])C3([H])[H])C4([H])[H])C([H])([H])C2([H])[H])=[N+]([H])[H])c([H])c1N([H])C(=O)N1C([H])([H])C([H])([H])C([H])([H])C([H])(n2nc(-c3c([H])c([H])c(Oc4c([H])c([H])c(F)c([H])c4F)c([H])c3[H])c(C(=O)N([H])[H])c2N([H])[H])C1([H])[H]

$$$$
33:0:0
     RDKit          3D

101109  0  0  1  0  0  0  0  0999 V2000
  -29.0810  -20.5690   21.0460 C   0  0  0  0  0  2  0  0  0  0  0  0
  -31.3210  -17.6990   20.3160 C   0  0  0  0  0  3  0  0  0  0  0  0
  -29.1850  -18.0010   20.9730 C   0  0  0  0  0  3  0  0  0  0  0  0
  -30.1200  -17.0330   20.6860 C   0  0  0  0  0  0  0  0  0  0  0  0
  -31.1060  -19.0480   20.4270 C   0  0  0  0  0  0  0  0  0  0  0  0
  -29.7700  -19.2660   20.8000 N   0  0  0  0  0  0  0  0  0  0  0  0
  -30.6440  -14.5840   20.2720 C   0  0  0  0  0  0  0  0  0  0  0  0
  -30.3550  -12.4280   19.0990 C   0  0  0  0  0  2  0  0  0  0  0  0
  -29.3830  -12.6460   17.9190 C   0  0  0  0  0  2  0  0  0  0  0  0
  -27.9190  -12.4950   18.3760 C   0  0  0  0  0  2  0  0  0  0  0  0
  -27.6100  -13.2990   19.6680 C   0  0  0  0  0  3  0  0  0  0  0  0
  -28.6910  -13.0570   20.7460 C   0  0  0  0  0  2  0  0  0  0  0  0
  -29.9970  -13.3900   20.1550 N   0  0  0  0  0  0  0  0  0  0  0  0
  -31.7830  -14.7520   19.8240 O   0  0  0  0  0  0  0  0  0  0  0  0
  -29.8930  -15.6100   20.7560 N   0  0  0  0  0  0  0  0  0  0  0  0
  -28.9890  -15.3240   21.1020 H   0  0  0  0  0  0  0  0  0  0  0  0
  -25.2250  -13.8930   20.4220 C   0  0  0  0  0  0  0  0  0  0  0  0
  -24.1670  -13.1160   20.8080 C   0  0  0  0  0  0  0  0  0  0  0  0
  -24.6330  -11.7670   20.7650 C   0  0  0  0  0  0  0  0  0  0  0  0
  -26.2690  -13.0170   20.1700 N   0  0  0  0  0  0  0  0  0  0  0  0
  -25.9170  -11.7330   20.4360 N   0  0  0  0  0  0  0  0  0  0  0  0
  -23.9160  -10.5020   20.9630 C   0  0  0  0  0  0  0  0  0  0  0  0
  -24.3540   -9.5440   21.9060 C   0  0  0  0  0  3  0  0  0  0  0  0
  -23.6380   -8.3420   22.0910 C   0  0  0  0  0  3  0  0  0  0  0  0
  -22.4700   -8.0890   21.3340 C   0  0  0  0  0  0  0  0  0  0  0  0
  -22.0520   -9.0340   20.3810 C   0  0  0  0  0  3  0  0  0  0  0  0
  -22.7680  -10.2270   20.1940 C   0  0  0  0  0  3  0  0  0  0  0  0
  -21.7240   -6.9390   21.4280 O   0  0  0  0  0  0  0  0  0  0  0  0
  -21.6590   -6.2160   22.5920 C   0  0  0  0  0  0  0  0  0  0  0  0
  -21.1800   -6.7820   23.7950 C   0  0  0  0  0  3  0  0  0  0  0  0
  -21.0660   -5.9840   24.9510 C   0  0  0  0  0  3  0  0  0  0  0  0
  -21.4210   -4.6220   24.9050 C   0  0  0  0  0  0  0  0  0  0  0  0
  -21.8920   -4.0570   23.7060 C   0  0  0  0  0  3  0  0  0  0  0  0
  -22.0080   -4.8520   22.5530 C   0  0  0  0  0  0  0  0  0  0  0  0
  -22.4440   -4.2970   21.3960 F   0  0  0  0  0  0  0  0  0  0  0  0
  -21.3030   -3.8530   26.0120 F   0  0  0  0  0  0  0  0  0  0  0  0
  -22.7720  -13.5870   21.1050 C   0  0  0  0  0  0  0  0  0  0  0  0
  -22.0610  -12.8800   21.9740 N   0  0  0  0  0  0  0  0  0  0  0  0
  -22.3250  -14.6170   20.6030 O   0  0  0  0  0  0  0  0  0  0  0  0
  -22.4390  -12.0460   22.4000 H   0  0  0  0  0  0  0  0  0  0  0  0
  -21.1250  -13.1730   22.2170 H   0  0  0  0  0  0  0  0  0  0  0  0
  -25.3840  -15.2650   20.2440 N   0  0  0  0  0  0  0  0  0  0  0  0
  -24.6160  -15.9160   20.3630 H   0  0  0  0  0  0  0  0  0  0  0  0
  -26.2190  -15.7020   19.8770 H   0  0  0  0  0  0  0  0  0  0  0  0
  -32.0090  -20.1500   20.1960 C   0  0  0  0  0  0  0  0  0  0  0  0
  -32.6210  -20.2400   19.0160 N   0  0  0  0  0  4  0  0  0  0  0  0
  -32.2420  -21.0600   21.1440 N   0  0  0  0  0  0  0  0  0  0  0  0
  -32.4590  -19.5220   18.3250 H   0  0  0  0  0  0  0  0  0  0  0  0
  -33.2910  -20.9550   18.7800 H   0  0  0  0  0  0  0  0  0  0  0  0
  -31.9290  -20.8730   22.0850 H   0  0  0  0  0  0  0  0  0  0  0  0
  -32.9100  -21.8050   21.0270 H   0  0  0  0  0  0  0  0  0  0  0  0
  -29.0150  -21.5840   19.8460 C   0  0  0  0  0  3  0  0  0  0  0  0
  -28.4770  -20.9050   18.6510 N   0  0  0  0  0  4  0  0  0  0  0  0
  -27.4880  -20.7710   18.7880 H   0  0  0  0  0  0  0  0  0  0  0  0
  -28.9190  -20.0190   18.4880 H   0  0  0  0  0  0  0  0  0  0  0  0
  -28.5900  -21.4870   17.8410 H   0  0  0  0  0  0  0  0  0  0  0  0
  -28.0460  -22.7990   20.0800 C   0  0  0  0  0  0  0  0  0  0  0  0
  -26.8480  -22.7070   19.7950 O   0  0  0  0  0  0  0  0  0  0  0  0
  -28.5370  -24.1540   20.6610 C   0  0  0  0  0  2  0  0  0  0  0  0
  -28.5510  -25.3410   19.6380 C   0  0  0  0  0  2  0  0  0  0  0  0
  -28.4330  -26.6780   20.2040 O   0  0  0  0  0  0  0  0  0  0  0  0
  -24.5910  -31.8910   23.2400 C   0  0  0  0  0  0  0  0  0  0  0  0
  -27.2420  -27.3990   20.1750 C   0  0  0  0  0  0  0  0  0  0  0  0
  -23.3910  -30.4810   21.6050 C   0  0  0  0  0  3  0  0  0  0  0  0
  -24.8460  -28.9410   20.1840 C   0  0  0  0  0  0  0  0  0  0  0  0
  -25.9210  -30.8340   21.4080 C   0  0  0  0  0  2  0  0  0  0  0  0
  -26.0070  -29.4570   20.7690 C   0  0  0  0  0  0  0  0  0  0  0  0
  -27.2030  -28.6960   20.7580 C   0  0  0  0  0  3  0  0  0  0  0  0
  -26.0490  -26.9050   19.5950 C   0  0  0  0  0  3  0  0  0  0  0  0
  -24.8650  -27.6670   19.5940 C   0  0  0  0  0  3  0  0  0  0  0  0
  -23.6010  -29.7980   20.2290 C   0  0  0  0  0  2  0  0  0  0  0  0
  -24.6530  -31.0860   22.1420 N   0  0  0  0  0  0  0  0  0  0  0  0
  -23.5090  -32.1600   23.7800 O   0  0  0  0  0  0  0  0  0  0  0  0
  -22.7400  -29.4610   22.5680 C   0  0  0  0  0  0  0  0  0  0  0  0
  -21.4180  -29.2660   22.4340 N   0  0  0  0  0  0  0  0  0  0  0  0
  -23.4240  -28.8470   23.3920 O   0  0  0  0  0  0  0  0  0  0  0  0
  -20.9290  -29.8140   21.7410 H   0  0  0  0  0  0  0  0  0  0  0  0
  -18.0520  -28.0360   22.9080 C   0  0  0  0  0  0  0  0  0  0  0  0
  -20.6040  -28.3250   23.2030 C   0  0  0  0  0  3  0  0  0  0  0  0
  -20.7280  -26.8910   22.6390 C   0  0  0  0  0  2  0  0  0  0  0  0
  -19.6400  -26.5470   21.6170 C   0  0  0  0  0  2  0  0  0  0  0  0
  -18.2510  -26.6830   22.2470 C   0  0  0  0  0  2  0  0  0  0  0  0
  -19.1580  -28.8140   23.3430 C   0  0  0  0  0  0  0  0  0  0  0  0
  -18.9190  -30.0810   23.9200 C   0  0  0  0  0  3  0  0  0  0  0  0
  -17.6070  -30.5690   24.0690 C   0  0  0  0  0  3  0  0  0  0  0  0
  -16.5170  -29.7870   23.6510 C   0  0  0  0  0  3  0  0  0  0  0  0
  -16.7390  -28.5230   23.0770 C   0  0  0  0  0  3  0  0  0  0  0  0
  -25.8740  -32.5290   23.8600 C   0  0  0  0  0  3  0  0  0  0  0  0
  -26.3930  -31.7640   25.1390 C   0  0  1  0  0  0  0  0  0  0  0  0
  -25.3000  -31.5230   26.2050 C   0  0  0  0  0  1  0  0  0  0  0  0
  -26.9840  -30.3880   24.7510 C   0  0  0  0  0  1  0  0  0  0  0  0
  -27.5400  -32.5670   25.7990 C   0  0  0  0  0  1  0  0  0  0  0  0
  -25.5600  -33.9280   24.1820 N   0  0  0  0  0  0  0  0  0  0  0  0
  -25.8960  -34.9770   23.4200 C   0  0  0  0  0  0  0  0  0  0  0  0
  -26.5750  -34.8690   22.3950 O   0  0  0  0  0  0  0  0  0  0  0  0
  -24.9600  -34.0890   24.9780 H   0  0  0  0  0  0  0  0  0  0  0  0
  -24.1790  -36.7730   23.0360 C   0  0  0  0  0  1  0  0  0  0  0  0
  -25.4050  -36.3670   23.8680 C   0  0  0  0  0  3  0  0  0  0  0  0
  -27.5250  -37.2500   24.7370 C   0  0  0  0  0  1  0  0  0  0  0  0
  -26.4420  -37.4160   23.7720 N   0  0  0  0  0  0  0  0  0  0  0  0
  -26.0340  -38.3380   23.9080 H   0  0  0  0  0  0  0  0  0  0  0  0
  2  5  2  0
  2  4  1  0
  4 15  1  0
  4  3  2  0
  5  6  1  0
  6  3  1  0
  6  1  1  0
  7 15  1  0
  8 13  1  0
  9 10  1  0
  9  8  1  0
 11 10  1  0
 11 20  1  0
 11 12  1  0
 13  7  1  0
 13 12  1  0
 14  7  2  0
 15 16  1  0
 17 18  2  0
 18 37  1  0
 19 18  1  0
 19 22  1  0
 20 17  1  0
 20 21  1  0
 21 19  2  0
 22 23  1  0
 23 24  2  0
 25 28  1  0
 25 24  1  0
 26 25  2  0
 27 26  1  0
 27 22  2  0
 28 29  1  0
 29 30  1  0
 30 31  2  0
 32 31  1  0
 32 36  1  0
 33 32  2  0
 34 29  2  0
 34 33  1  0
 35 34  1  0
 37 38  1  0
 38 41  1  0
 38 40  1  0
 39 37  2  0
 42 43  1  0
 42 17  1  0
 44 42  1  0
 45  5  1  0
 45 47  1  0
 46 45  2  0
 47 50  1  0
 48 46  1  0
 49 46  1  0
 51 47  1  0
 52 57  1  0
 52  1  1  0
 53 54  1  0
 53 52  1  0
 55 53  1  0
 56 53  1  0
 57 59  1  0
 58 57  2  0
 60 61  1  0
 60 59  1  0
 62 73  2  0
 63 61  1  0
 63 68  1  0
 64 72  1  0
 64 74  1  0
 65 71  1  0
 65 67  1  0
 66 72  1  0
 67 66  1  0
 68 67  2  0
 69 63  2  0
 70 69  1  0
 70 65  2  0
 71 64  1  0
 72 62  1  0
 74 76  2  0
 75 74  1  0
 77 75  1  0
 78 87  2  0
 78 83  1  0
 79 75  1  0
 79 83  1  0
 80 79  1  0
 81 82  1  0
 81 80  1  0
 82 78  1  0
 83 84  2  0
 84 85  1  0
 86 85  2  0
 87 86  1  0
 88 62  1  0
 88 93  1  0
 88 89  1  0
 89 92  1  1
 89 90  1  0
 91 89  1  0
 93 96  1  0
 94 98  1  0
 94 93  1  0
 95 94  2  0
 98 97  1  0
100 98  1  0
100101  1  0
100 99  1  0
M  ISO  4   7 100  15 100  60 101  61 101
M  END
>  <TORSDO>  (34) 
F 23

>  <SCORE>  (34) 
-13.185

>  <name>  (34) 
33

>  <ligand_id>  (34) 
33

>  <original_smiles>  (34) 
[H]c1c([H])c([H])c2c(c1[H])C([H])([H])C([H])([H])C([H])([H])C2([H])N([H])C(=O)C1([H])N(C(=O)C([H])(N([H])C(=O)C([H])(N([H])C([H])([H])[H])C([H])([H])[H])C(C([H])([H])[H])(C([H])([H])[H])C([H])([H])[H])C([H])([H])c2c([H])c(OC([H])([H])C([H])([H])C(=O)C([H])(C([H])([H])n3c([H])c(N([H])C(=O)N4C([H])([H])C([H])([H])C([H])([H])C([H])(n5nc(-c6c([H])c([H])c(Oc7c([H])c([H])c(F)c([H])c7F)c([H])c6[H])c(C(=O)N([H])[H])c5N([H])[H])C4([H])[H])c([H])c3C(N([H])[H])=[N+]([H])[H])[N+]([H])([H])[H])c([H])c([H])c2C1([H])[H]

>  <smiles>  (34) 
[H]c1c([H])c([H])c2c(c1[H])C([H])([H])C([H])([H])C([H])([H])C2([H])N([H])C(=O)C1([H])N(C(=O)C([H])(N([H])C(=O)C([H])(N([H])C([H])([H])[H])C([H])([H])[H])C(C([H])([H])[H])(C([H])([H])[H])C([H])([H])[H])C([H])([H])c2c([H])c(OC([H])([H])C([H])([H])C(=O)C([H])(C([H])([H])n3c([H])c(N([H])C(=O)N4C([H])([H])C([H])([H])C([H])([H])C([H])(n5nc(-c6c([H])c([H])c(Oc7c([H])c([H])c(F)c([H])c7F)c([H])c6[H])c(C(=O)N([H])[H])c5N([H])[H])C4([H])[H])c([H])c3C(N([H])[H])=[N+]([H])[H])[N+]([H])([H])[H])c([H])c([H])c2C1([H])[H]

$$$$
34:0:0
     RDKit          3D

 95103  0  0  1  0  0  0  0  0999 V2000
  -29.2610  -21.1210   19.8910 C   0  0  0  0  0  0  0  0  0  0  0  0
  -28.7570  -23.7170   19.9970 C   0  0  0  0  0  0  0  0  0  0  0  0
  -29.0350  -22.3350   20.5850 N   0  0  0  0  0  0  0  0  0  0  0  0
  -29.1310  -21.1550   18.5520 N   0  0  0  0  0  4  0  0  0  0  0  0
  -28.8750  -23.8740   18.7760 O   0  0  0  0  0  0  0  0  0  0  0  0
  -29.0080  -22.2150   21.5840 H   0  0  0  0  0  0  0  0  0  0  0  0
  -29.2610  -20.3260   17.9890 H   0  0  0  0  0  0  0  0  0  0  0  0
  -29.0070  -22.0520   18.0940 H   0  0  0  0  0  0  0  0  0  0  0  0
  -29.0630  -18.4020   20.1350 C   0  0  0  0  0  3  0  0  0  0  0  0
  -29.6640  -19.7120   20.4090 C   0  0  0  0  0  0  0  0  0  0  0  0
  -29.9280  -17.3770   20.5710 C   0  0  0  0  0  0  0  0  0  0  0  0
  -30.8320  -19.3590   21.0480 C   0  0  0  0  0  0  0  0  0  0  0  0
  -31.0250  -17.9810   21.1410 O   0  0  0  0  0  0  0  0  0  0  0  0
  -31.7760  -20.2370   21.4650 F   0  0  0  0  0  0  0  0  0  0  0  0
  -30.5460  -14.8590   20.3740 C   0  0  0  0  0  0  0  0  0  0  0  0
  -30.4110  -12.5660   19.3540 C   0  0  0  0  0  2  0  0  0  0  0  0
  -29.4600  -12.5780   18.1380 C   0  0  0  0  0  2  0  0  0  0  0  0
  -28.0000  -12.3670   18.5820 C   0  0  0  0  0  2  0  0  0  0  0  0
  -27.6060  -13.2770   19.7760 C   0  0  0  0  0  3  0  0  0  0  0  0
  -28.6670  -13.2220   20.8980 C   0  0  0  0  0  2  0  0  0  0  0  0
  -29.9490  -13.6120   20.2990 N   0  0  0  0  0  0  0  0  0  0  0  0
  -31.7390  -14.9760   20.0710 O   0  0  0  0  0  0  0  0  0  0  0  0
  -29.7130  -15.9750   20.5370 N   0  0  0  0  0  0  0  0  0  0  0  0
  -28.7440  -15.7090   20.6190 H   0  0  0  0  0  0  0  0  0  0  0  0
  -25.2190  -13.8620   20.5110 C   0  0  0  0  0  0  0  0  0  0  0  0
  -24.1580  -13.0860   20.8850 C   0  0  0  0  0  0  0  0  0  0  0  0
  -24.6270  -11.7350   20.8550 C   0  0  0  0  0  0  0  0  0  0  0  0
  -26.2660  -12.9860   20.2740 N   0  0  0  0  0  0  0  0  0  0  0  0
  -25.9180  -11.7030   20.5430 N   0  0  0  0  0  0  0  0  0  0  0  0
  -23.9040  -10.4710   21.0440 C   0  0  0  0  0  0  0  0  0  0  0  0
  -24.3400   -9.5050   21.9770 C   0  0  0  0  0  3  0  0  0  0  0  0
  -23.6200   -8.3040   22.1540 C   0  0  0  0  0  3  0  0  0  0  0  0
  -22.4480   -8.0620   21.3990 C   0  0  0  0  0  0  0  0  0  0  0  0
  -22.0320   -9.0160   20.4530 C   0  0  0  0  0  3  0  0  0  0  0  0
  -22.7540  -10.2080   20.2750 C   0  0  0  0  0  3  0  0  0  0  0  0
  -21.7000   -6.9130   21.4840 O   0  0  0  0  0  0  0  0  0  0  0  0
  -21.6530   -6.1700   22.6350 C   0  0  0  0  0  0  0  0  0  0  0  0
  -21.2140   -6.7200   23.8610 C   0  0  0  0  0  3  0  0  0  0  0  0
  -21.1140   -5.9010   25.0040 C   0  0  0  0  0  3  0  0  0  0  0  0
  -21.4470   -4.5370   24.9240 C   0  0  0  0  0  0  0  0  0  0  0  0
  -21.8770   -3.9860   23.7050 C   0  0  0  0  0  3  0  0  0  0  0  0
  -21.9780   -4.8000   22.5630 C   0  0  0  0  0  0  0  0  0  0  0  0
  -22.3740   -4.2610   21.3850 F   0  0  0  0  0  0  0  0  0  0  0  0
  -21.3440   -3.7470   26.0190 F   0  0  0  0  0  0  0  0  0  0  0  0
  -22.7590  -13.5570   21.1550 C   0  0  0  0  0  0  0  0  0  0  0  0
  -22.0280  -12.8560   22.0130 N   0  0  0  0  0  0  0  0  0  0  0  0
  -22.3200  -14.5820   20.6340 O   0  0  0  0  0  0  0  0  0  0  0  0
  -22.3940  -12.0250   22.4530 H   0  0  0  0  0  0  0  0  0  0  0  0
  -21.0900  -13.1570   22.2360 H   0  0  0  0  0  0  0  0  0  0  0  0
  -25.3760  -15.2340   20.3250 N   0  0  0  0  0  0  0  0  0  0  0  0
  -24.5860  -15.8660   20.3940 H   0  0  0  0  0  0  0  0  0  0  0  0
  -26.1880  -15.6670   19.9090 H   0  0  0  0  0  0  0  0  0  0  0  0
  -26.8880  -24.6610   21.5280 C   0  0  0  0  0  1  0  0  0  0  0  0
  -28.2630  -24.9750   20.8920 C   0  0  0  0  0  3  0  0  0  0  0  0
  -28.3500  -26.3760   20.2700 O   0  0  0  0  0  0  0  0  0  0  0  0
  -24.6040  -31.8800   23.2410 C   0  0  0  0  0  0  0  0  0  0  0  0
  -27.2520  -27.2780   20.2350 C   0  0  0  0  0  0  0  0  0  0  0  0
  -23.4230  -30.4770   21.5890 C   0  0  0  0  0  3  0  0  0  0  0  0
  -24.8940  -28.9280   20.1690 C   0  0  0  0  0  0  0  0  0  0  0  0
  -25.9640  -30.7890   21.4360 C   0  0  0  0  0  2  0  0  0  0  0  0
  -26.0530  -29.4020   20.7980 C   0  0  0  0  0  0  0  0  0  0  0  0
  -27.2330  -28.5910   20.8240 C   0  0  0  0  0  3  0  0  0  0  0  0
  -26.0860  -26.8900   19.5420 C   0  0  0  0  0  3  0  0  0  0  0  0
  -24.9170  -27.6800   19.5250 C   0  0  0  0  0  3  0  0  0  0  0  0
  -23.6570  -29.8050   20.2070 C   0  0  0  0  0  2  0  0  0  0  0  0
  -24.6820  -31.0700   22.1430 N   0  0  0  0  0  0  0  0  0  0  0  0
  -23.5160  -32.1510   23.7680 O   0  0  0  0  0  0  0  0  0  0  0  0
  -22.7540  -29.4650   22.5490 C   0  0  0  0  0  0  0  0  0  0  0  0
  -21.4270  -29.2910   22.4230 N   0  0  0  0  0  0  0  0  0  0  0  0
  -23.4280  -28.8350   23.3680 O   0  0  0  0  0  0  0  0  0  0  0  0
  -20.9410  -29.8570   21.7410 H   0  0  0  0  0  0  0  0  0  0  0  0
  -18.0430  -28.1010   22.9270 C   0  0  0  0  0  0  0  0  0  0  0  0
  -20.6040  -28.3510   23.1890 C   0  0  0  0  0  3  0  0  0  0  0  0
  -20.7010  -26.9220   22.6040 C   0  0  0  0  0  2  0  0  0  0  0  0
  -19.5950  -26.6130   21.5910 C   0  0  0  0  0  2  0  0  0  0  0  0
  -18.2140  -26.7580   22.2390 C   0  0  0  0  0  2  0  0  0  0  0  0
  -19.1650  -28.8570   23.3580 C   0  0  0  0  0  0  0  0  0  0  0  0
  -18.9530  -30.1170   23.9590 C   0  0  0  0  0  3  0  0  0  0  0  0
  -17.6510  -30.6210   24.1360 C   0  0  0  0  0  3  0  0  0  0  0  0
  -16.5420  -29.8640   23.7160 C   0  0  0  0  0  3  0  0  0  0  0  0
  -16.7400  -28.6070   23.1160 C   0  0  0  0  0  3  0  0  0  0  0  0
  -25.8780  -32.5190   23.8730 C   0  0  0  0  0  3  0  0  0  0  0  0
  -25.5630  -33.9220   24.1910 N   0  0  0  0  0  0  0  0  0  0  0  0
  -25.9030  -34.9710   23.4310 C   0  0  0  0  0  0  0  0  0  0  0  0
  -26.5790  -34.8630   22.4050 O   0  0  0  0  0  0  0  0  0  0  0  0
  -24.9630  -34.0810   24.9890 H   0  0  0  0  0  0  0  0  0  0  0  0
  -24.1780  -36.7650   23.0580 C   0  0  0  0  0  1  0  0  0  0  0  0
  -25.4130  -36.3630   23.8800 C   0  0  0  0  0  3  0  0  0  0  0  0
  -27.5420  -37.2510   24.7220 C   0  0  0  0  0  1  0  0  0  0  0  0
  -26.4480  -37.4130   23.7680 N   0  0  0  0  0  0  0  0  0  0  0  0
  -26.0430  -38.3330   23.9060 H   0  0  0  0  0  0  0  0  0  0  0  0
  -26.3830  -31.7580   25.1620 C   0  0  1  0  0  0  0  0  0  0  0  0
  -25.2780  -31.5340   26.2190 C   0  0  0  0  0  1  0  0  0  0  0  0
  -26.9650  -30.3750   24.7870 C   0  0  0  0  0  1  0  0  0  0  0  0
  -27.5280  -32.5540   25.8290 C   0  0  0  0  0  1  0  0  0  0  0  0
  1 10  1  0
  1  3  1  0
  2  3  1  0
  2 54  1  0
  3  6  1  0
  4  1  2  0
  5  2  2  0
  7  4  1  0
  8  4  1  0
  9 10  1  0
  9 11  2  0
 10 12  2  0
 11 13  1  0
 12 13  1  0
 12 14  1  0
 15 23  1  0
 16 21  1  0
 17 18  1  0
 17 16  1  0
 19 18  1  0
 19 28  1  0
 19 20  1  0
 21 15  1  0
 21 20  1  0
 22 15  2  0
 23 11  1  0
 23 24  1  0
 25 26  2  0
 26 45  1  0
 27 26  1  0
 27 30  1  0
 28 25  1  0
 28 29  1  0
 29 27  2  0
 30 31  1  0
 31 32  2  0
 33 36  1  0
 33 32  1  0
 34 33  2  0
 35 34  1  0
 35 30  2  0
 36 37  1  0
 37 38  1  0
 38 39  2  0
 40 39  1  0
 40 44  1  0
 41 40  2  0
 42 37  2  0
 42 41  1  0
 43 42  1  0
 45 46  1  0
 46 49  1  0
 46 48  1  0
 47 45  2  0
 50 51  1  0
 50 25  1  0
 52 50  1  0
 54 53  1  0
 55 54  1  0
 56 67  2  0
 57 55  1  0
 57 62  1  0
 58 66  1  0
 58 68  1  0
 59 65  1  0
 59 61  1  0
 60 66  1  0
 61 62  2  0
 61 60  1  0
 63 57  2  0
 64 63  1  0
 64 59  2  0
 65 58  1  0
 66 56  1  0
 68 70  2  0
 69 68  1  0
 71 69  1  0
 72 81  2  0
 72 77  1  0
 73 69  1  0
 73 77  1  0
 74 73  1  0
 75 76  1  0
 75 74  1  0
 76 72  1  0
 77 78  2  0
 78 79  1  0
 80 79  2  0
 81 80  1  0
 82 56  1  0
 82 83  1  0
 82 92  1  0
 83 86  1  0
 84 88  1  0
 84 83  1  0
 85 84  2  0
 88 87  1  0
 90 88  1  0
 90 91  1  0
 90 89  1  0
 92 95  1  1
 92 93  1  0
 94 92  1  0
M  ISO  4  15 100  23 100  54 101  55 101
M  END
>  <TORSDO>  (35) 
F 18

>  <SCORE>  (35) 
-14.927

>  <name>  (35) 
34

>  <ligand_id>  (35) 
34

>  <original_smiles>  (35) 
[H]c1c([H])c([H])c2c(c1[H])C([H])([H])C([H])([H])C([H])([H])C2([H])N([H])C(=O)C1([H])N(C(=O)C([H])(N([H])C(=O)C([H])(N([H])C([H])([H])[H])C([H])([H])[H])C(C([H])([H])[H])(C([H])([H])[H])C([H])([H])[H])C([H])([H])c2c([H])c(OC([H])(C(=O)N([H])C(c3c(F)oc(N([H])C(=O)N4C([H])([H])C([H])([H])C([H])([H])C([H])(n5nc(-c6c([H])c([H])c(Oc7c([H])c([H])c(F)c([H])c7F)c([H])c6[H])c(C(=O)N([H])[H])c5N([H])[H])C4([H])[H])c3[H])=[N+]([H])[H])C([H])([H])[H])c([H])c([H])c2C1([H])[H]

>  <smiles>  (35) 
[H]c1c([H])c([H])c2c(c1[H])C([H])([H])C([H])([H])C([H])([H])C2([H])N([H])C(=O)C1([H])N(C(=O)C([H])(N([H])C(=O)C([H])(N([H])C([H])([H])[H])C([H])([H])[H])C(C([H])([H])[H])(C([H])([H])[H])C([H])([H])[H])C([H])([H])c2c([H])c(OC([H])(C(=O)N([H])C(c3c(F)oc(N([H])C(=O)N4C([H])([H])C([H])([H])C([H])([H])C([H])(n5nc(-c6c([H])c([H])c(Oc7c([H])c([H])c(F)c([H])c7F)c([H])c6[H])c(C(=O)N([H])[H])c5N([H])[H])C4([H])[H])c3[H])=[N+]([H])[H])C([H])([H])[H])c([H])c([H])c2C1([H])[H]

$$$$
35:0:0
     RDKit          3D

100109  0  0  1  0  0  0  0  0999 V2000
  -30.2290  -20.4690   21.7120 C   0  0  0  0  0  3  0  0  0  0  0  0
  -29.3190  -23.0710   19.1420 C   0  0  0  0  0  2  0  0  0  0  0  0
  -30.0870  -24.2140   21.2860 C   0  0  0  0  0  2  0  0  0  0  0  0
  -30.1880  -21.8950   19.6400 C   0  0  0  0  0  2  0  0  0  0  0  0
  -29.5950  -22.8840   21.8870 C   0  0  0  0  0  2  0  0  0  0  0  0
  -29.6420  -24.4410   19.8240 C   0  0  1  0  0  0  0  0  0  0  0  0
  -30.0590  -21.6870   21.1100 N   0  0  0  0  0  0  0  0  0  0  0  0
  -30.5570  -20.4730   23.0020 N   0  0  0  0  0  0  0  0  0  0  0  0
  -30.5470  -19.6170   23.5370 H   0  0  0  0  0  0  0  0  0  0  0  0
  -30.9400  -21.2960   23.4400 H   0  0  0  0  0  0  0  0  0  0  0  0
  -28.6240  -19.1770   20.4230 C   0  0  0  0  0  3  0  0  0  0  0  0
  -27.9760  -17.9730   20.1340 C   0  0  0  0  0  3  0  0  0  0  0  0
  -29.8830  -19.1780   21.0680 C   0  0  0  0  0  0  0  0  0  0  0  0
  -29.9380  -16.7030   20.9080 C   0  0  0  0  0  0  0  0  0  0  0  0
  -28.6080  -16.7750   20.4790 C   0  0  0  0  0  0  0  0  0  0  0  0
  -30.5780  -17.9320   21.2570 C   0  0  0  0  0  0  0  0  0  0  0  0
  -27.8840  -15.6500   20.5050 F   0  0  0  0  0  0  0  0  0  0  0  0
  -31.7870  -17.9060   21.8710 F   0  0  0  0  0  0  0  0  0  0  0  0
  -30.8260  -14.5320   20.1410 C   0  0  0  0  0  0  0  0  0  0  0  0
  -30.4310  -12.3950   18.9150 C   0  0  0  0  0  2  0  0  0  0  0  0
  -29.4190  -12.6030   17.7670 C   0  0  0  0  0  2  0  0  0  0  0  0
  -27.9710  -12.4410   18.2720 C   0  0  0  0  0  2  0  0  0  0  0  0
  -27.7080  -13.2790   19.5450 C   0  0  0  0  0  3  0  0  0  0  0  0
  -28.8240  -13.0290   20.5970 C   0  0  0  0  0  2  0  0  0  0  0  0
  -30.1320  -13.3580   19.9950 N   0  0  0  0  0  0  0  0  0  0  0  0
  -31.8070  -14.7990   19.4360 O   0  0  0  0  0  0  0  0  0  0  0  0
  -30.4350  -15.3680   21.1290 N   0  0  0  0  0  0  0  0  0  0  0  0
  -29.8320  -14.8650   21.7640 H   0  0  0  0  0  0  0  0  0  0  0  0
  -25.3280  -13.9340   20.3490 C   0  0  0  0  0  0  0  0  0  0  0  0
  -24.2820  -13.1850   20.8050 C   0  0  0  0  0  0  0  0  0  0  0  0
  -24.7190  -11.8290   20.7430 C   0  0  0  0  0  0  0  0  0  0  0  0
  -26.3670  -13.0410   20.0920 N   0  0  0  0  0  0  0  0  0  0  0  0
  -25.9940  -11.7680   20.3740 N   0  0  0  0  0  0  0  0  0  0  0  0
  -23.9780  -10.5800   20.9560 C   0  0  0  0  0  0  0  0  0  0  0  0
  -24.4260   -9.5950   21.8630 C   0  0  0  0  0  3  0  0  0  0  0  0
  -23.6780   -8.4150   22.0640 C   0  0  0  0  0  3  0  0  0  0  0  0
  -22.4690   -8.2110   21.3560 C   0  0  0  0  0  0  0  0  0  0  0  0
  -22.0380   -9.1850   20.4370 C   0  0  0  0  0  3  0  0  0  0  0  0
  -22.7880  -10.3550   20.2350 C   0  0  0  0  0  3  0  0  0  0  0  0
  -21.6990   -7.0790   21.4630 O   0  0  0  0  0  0  0  0  0  0  0  0
  -21.6630   -6.3420   22.6190 C   0  0  0  0  0  0  0  0  0  0  0  0
  -21.2860   -6.9100   23.8560 C   0  0  0  0  0  3  0  0  0  0  0  0
  -21.2020   -6.1020   25.0050 C   0  0  0  0  0  3  0  0  0  0  0  0
  -21.4820   -4.7260   24.9210 C   0  0  0  0  0  0  0  0  0  0  0  0
  -21.8530   -4.1560   23.6900 C   0  0  0  0  0  3  0  0  0  0  0  0
  -21.9390   -4.9620   22.5420 C   0  0  0  0  0  0  0  0  0  0  0  0
  -22.2770   -4.4050   21.3540 F   0  0  0  0  0  0  0  0  0  0  0  0
  -21.3880   -3.9460   26.0240 F   0  0  0  0  0  0  0  0  0  0  0  0
  -22.9150  -13.6930   21.1670 C   0  0  0  0  0  0  0  0  0  0  0  0
  -22.2330  -13.0150   22.0820 N   0  0  0  0  0  0  0  0  0  0  0  0
  -22.4660  -14.7300   20.6810 O   0  0  0  0  0  0  0  0  0  0  0  0
  -22.6120  -12.1770   22.4990 H   0  0  0  0  0  0  0  0  0  0  0  0
  -21.3190  -13.3360   22.3720 H   0  0  0  0  0  0  0  0  0  0  0  0
  -25.4480  -15.2970   20.1230 N   0  0  0  0  0  0  0  0  0  0  0  0
  -24.7000  -15.9460   20.3290 H   0  0  0  0  0  0  0  0  0  0  0  0
  -26.3660  -15.7200   20.0610 H   0  0  0  0  0  0  0  0  0  0  0  0
  -30.6680  -25.7040   17.9780 C   0  0  0  0  0  1  0  0  0  0  0  0
  -30.8060  -25.0140   19.2130 O   0  0  0  0  0  0  0  0  0  0  0  0
  -28.3900  -25.3620   19.7220 C   0  0  0  0  0  2  0  0  0  0  0  0
  -28.5120  -26.7310   20.1770 O   0  0  0  0  0  0  0  0  0  0  0  0
  -24.6250  -31.9260   23.2270 C   0  0  0  0  0  0  0  0  0  0  0  0
  -27.3450  -27.4890   20.1580 C   0  0  0  0  0  0  0  0  0  0  0  0
  -23.4550  -30.5130   21.5790 C   0  0  0  0  0  3  0  0  0  0  0  0
  -24.9340  -29.0030   20.1660 C   0  0  0  0  0  0  0  0  0  0  0  0
  -25.9830  -30.8940   21.4070 C   0  0  0  0  0  2  0  0  0  0  0  0
  -26.0910  -29.5240   20.7610 C   0  0  0  0  0  0  0  0  0  0  0  0
  -27.2980  -28.7780   20.7520 C   0  0  0  0  0  3  0  0  0  0  0  0
  -26.1540  -26.9990   19.5650 C   0  0  0  0  0  3  0  0  0  0  0  0
  -24.9640  -27.7400   19.5690 C   0  0  0  0  0  3  0  0  0  0  0  0
  -23.6860  -29.8530   20.1990 C   0  0  0  0  0  2  0  0  0  0  0  0
  -24.7060  -31.1280   22.1270 N   0  0  0  0  0  0  0  0  0  0  0  0
  -23.5360  -32.1830   23.7600 O   0  0  0  0  0  0  0  0  0  0  0  0
  -22.8090  -29.4750   22.5310 C   0  0  0  0  0  0  0  0  0  0  0  0
  -21.4870  -29.2870   22.4020 N   0  0  0  0  0  0  0  0  0  0  0  0
  -23.4940  -28.8410   23.3360 O   0  0  0  0  0  0  0  0  0  0  0  0
  -20.9960  -29.8560   21.7240 H   0  0  0  0  0  0  0  0  0  0  0  0
  -18.1070  -28.1040   22.9270 C   0  0  0  0  0  0  0  0  0  0  0  0
  -20.6710  -28.3430   23.1690 C   0  0  0  0  0  3  0  0  0  0  0  0
  -20.7580  -26.9190   22.5690 C   0  0  0  0  0  2  0  0  0  0  0  0
  -19.6400  -26.6190   21.5660 C   0  0  0  0  0  2  0  0  0  0  0  0
  -18.2680  -26.7650   22.2310 C   0  0  0  0  0  2  0  0  0  0  0  0
  -19.2360  -28.8530   23.3530 C   0  0  0  0  0  0  0  0  0  0  0  0
  -19.0300  -30.1090   23.9660 C   0  0  0  0  0  3  0  0  0  0  0  0
  -17.7320  -30.6140   24.1540 C   0  0  0  0  0  3  0  0  0  0  0  0
  -16.6170  -29.8610   23.7430 C   0  0  0  0  0  3  0  0  0  0  0  0
  -16.8080  -28.6090   23.1340 C   0  0  0  0  0  3  0  0  0  0  0  0
  -25.8960  -32.5760   23.8580 C   0  0  0  0  0  3  0  0  0  0  0  0
  -26.4090  -31.8130   25.1390 C   0  0  1  0  0  0  0  0  0  0  0  0
  -25.3080  -31.5570   26.1970 C   0  0  0  0  0  1  0  0  0  0  0  0
  -27.0230  -30.4480   24.7490 C   0  0  0  0  0  1  0  0  0  0  0  0
  -27.5400  -32.6260   25.8130 C   0  0  0  0  0  1  0  0  0  0  0  0
  -25.5660  -33.9720   24.1820 N   0  0  0  0  0  0  0  0  0  0  0  0
  -25.8920  -35.0240   23.4220 C   0  0  0  0  0  0  0  0  0  0  0  0
  -26.5770  -34.9260   22.4010 O   0  0  0  0  0  0  0  0  0  0  0  0
  -24.9620  -34.1200   24.9770 H   0  0  0  0  0  0  0  0  0  0  0  0
  -24.1490  -36.7930   23.0270 C   0  0  0  0  0  1  0  0  0  0  0  0
  -25.3790  -36.4090   23.8660 C   0  0  0  0  0  3  0  0  0  0  0  0
  -27.4860  -37.3170   24.7400 C   0  0  0  0  0  1  0  0  0  0  0  0
  -26.4020  -37.4730   23.7720 N   0  0  0  0  0  0  0  0  0  0  0  0
  -25.9830  -38.3890   23.9120 H   0  0  0  0  0  0  0  0  0  0  0  0
  1  8  1  0
  2  4  1  0
  2  6  1  0
  3  5  1  0
  4  7  1  0
  6 59  1  1
  6  3  1  0
  7  1  1  0
  7  5  1  0
  8 10  1  0
  8  9  1  0
 11 13  1  0
 12 11  2  0
 12 15  1  0
 13 16  2  0
 13  1  1  0
 14 27  1  0
 14 16  1  0
 15 17  1  0
 15 14  2  0
 16 18  1  0
 19 27  1  0
 20 25  1  0
 21 22  1  0
 21 20  1  0
 23 22  1  0
 23 32  1  0
 23 24  1  0
 25 19  1  0
 25 24  1  0
 26 19  2  0
 27 28  1  0
 29 30  2  0
 30 49  1  0
 31 30  1  0
 31 34  1  0
 32 29  1  0
 32 33  1  0
 33 31  2  0
 34 35  1  0
 35 36  2  0
 37 40  1  0
 37 36  1  0
 38 37  2  0
 39 38  1  0
 39 34  2  0
 40 41  1  0
 41 42  1  0
 42 43  2  0
 44 43  1  0
 44 48  1  0
 45 44  2  0
 46 41  2  0
 46 45  1  0
 47 46  1  0
 49 50  1  0
 50 53  1  0
 50 52  1  0
 51 49  2  0
 54 55  1  0
 54 29  1  0
 56 54  1  0
 57 58  1  0
 58  6  1  0
 59 60  1  0
 61 72  2  0
 62 60  1  0
 62 67  1  0
 63 71  1  0
 63 73  1  0
 64 70  1  0
 64 66  1  0
 65 71  1  0
 66 65  1  0
 67 66  2  0
 68 69  1  0
 68 62  2  0
 69 64  2  0
 70 63  1  0
 71 61  1  0
 73 75  2  0
 74 73  1  0
 76 74  1  0
 77 86  2  0
 77 82  1  0
 78 74  1  0
 78 82  1  0
 79 78  1  0
 80 81  1  0
 80 79  1  0
 81 77  1  0
 82 83  2  0
 83 84  1  0
 85 84  2  0
 86 85  1  0
 87 61  1  0
 87 92  1  0
 87 88  1  0
 88 91  1  1
 88 89  1  0
 90 88  1  0
 92 95  1  0
 93 97  1  0
 93 92  1  0
 94 93  2  0
 97 96  1  0
 99 97  1  0
 99100  1  0
 99 98  1  0
M  ISO  4  19 100  27 100  59 101  60 101
M  END
>  <TORSDO>  (36) 
F 19

>  <SCORE>  (36) 
-14.929

>  <name>  (36) 
35

>  <ligand_id>  (36) 
35

>  <original_smiles>  (36) 
[H]c1c([H])c([H])c2c(c1[H])C([H])([H])C([H])([H])C([H])([H])C2([H])N([H])C(=O)C1([H])N(C(=O)C([H])(N([H])C(=O)C([H])(N([H])C([H])([H])[H])C([H])([H])[H])C(C([H])([H])[H])(C([H])([H])[H])C([H])([H])[H])C([H])([H])c2c([H])c(OC([H])([H])C3(OC([H])([H])[H])C([H])([H])C([H])([H])N(C(c4c([H])c([H])c(F)c(N([H])C(=O)N5C([H])([H])C([H])([H])C([H])([H])C([H])(n6nc(-c7c([H])c([H])c(Oc8c([H])c([H])c(F)c([H])c8F)c([H])c7[H])c(C(=O)N([H])[H])c6N([H])[H])C5([H])[H])c4F)=[N+]([H])[H])C([H])([H])C3([H])[H])c([H])c([H])c2C1([H])[H]

>  <smiles>  (36) 
[H]c1c([H])c([H])c2c(c1[H])C([H])([H])C([H])([H])C([H])([H])C2([H])N([H])C(=O)C1([H])N(C(=O)C([H])(N([H])C(=O)C([H])(N([H])C([H])([H])[H])C([H])([H])[H])C(C([H])([H])[H])(C([H])([H])[H])C([H])([H])[H])C([H])([H])c2c([H])c(OC([H])([H])C3(OC([H])([H])[H])C([H])([H])C([H])([H])N(C(c4c([H])c([H])c(F)c(N([H])C(=O)N5C([H])([H])C([H])([H])C([H])([H])C([H])(n6nc(-c7c([H])c([H])c(Oc8c([H])c([H])c(F)c([H])c8F)c([H])c7[H])c(C(=O)N([H])[H])c6N([H])[H])C5([H])[H])c4F)=[N+]([H])[H])C([H])([H])C3([H])[H])c([H])c([H])c2C1([H])[H]

$$$$
36:0:0
     RDKit          3D

101109  0  0  1  0  0  0  0  0999 V2000
  -31.3980  -19.8420   20.9130 C   0  0  0  0  0  3  0  0  0  0  0  0
  -31.8480  -17.4430   20.8970 C   0  0  0  0  0  3  0  0  0  0  0  0
  -29.5500  -18.2490   20.8650 C   0  0  0  0  0  3  0  0  0  0  0  0
  -32.3120  -18.7720   20.9270 C   0  0  0  0  0  0  0  0  0  0  0  0
  -30.0050  -19.6100   20.8950 C   0  0  0  0  0  0  0  0  0  0  0  0
  -30.4650  -17.1420   20.8280 C   0  0  0  0  0  0  0  0  0  0  0  0
  -30.6970  -14.6700   20.2960 C   0  0  0  0  0  0  0  0  0  0  0  0
  -30.4010  -12.4730   19.1950 C   0  0  0  0  0  2  0  0  0  0  0  0
  -29.4460  -12.6310   17.9950 C   0  0  0  0  0  2  0  0  0  0  0  0
  -27.9840  -12.4610   18.4490 C   0  0  0  0  0  2  0  0  0  0  0  0
  -27.6440  -13.3100   19.7030 C   0  0  0  0  0  3  0  0  0  0  0  0
  -28.7210  -13.1640   20.8020 C   0  0  0  0  0  2  0  0  0  0  0  0
  -30.0220  -13.4850   20.1990 N   0  0  0  0  0  0  0  0  0  0  0  0
  -31.8290  -14.7840   19.8200 O   0  0  0  0  0  0  0  0  0  0  0  0
  -30.0140  -15.7560   20.7650 N   0  0  0  0  0  0  0  0  0  0  0  0
  -29.0520  -15.5820   21.0110 H   0  0  0  0  0  0  0  0  0  0  0  0
  -25.2580  -13.8710   20.4750 C   0  0  0  0  0  0  0  0  0  0  0  0
  -24.2070  -13.0790   20.8540 C   0  0  0  0  0  0  0  0  0  0  0  0
  -24.6830  -11.7340   20.7910 C   0  0  0  0  0  0  0  0  0  0  0  0
  -26.3080  -13.0070   20.2080 N   0  0  0  0  0  0  0  0  0  0  0  0
  -25.9680  -11.7160   20.4580 N   0  0  0  0  0  0  0  0  0  0  0  0
  -23.9750  -10.4610   20.9730 C   0  0  0  0  0  0  0  0  0  0  0  0
  -24.3980   -9.5100   21.9280 C   0  0  0  0  0  3  0  0  0  0  0  0
  -23.6880   -8.3010   22.0980 C   0  0  0  0  0  3  0  0  0  0  0  0
  -22.5410   -8.0350   21.3120 C   0  0  0  0  0  0  0  0  0  0  0  0
  -22.1380   -8.9750   20.3470 C   0  0  0  0  0  3  0  0  0  0  0  0
  -22.8490  -10.1740   20.1760 C   0  0  0  0  0  3  0  0  0  0  0  0
  -21.8050   -6.8780   21.3890 O   0  0  0  0  0  0  0  0  0  0  0  0
  -21.6840   -6.1790   22.5640 C   0  0  0  0  0  0  0  0  0  0  0  0
  -21.1240   -6.7600   23.7220 C   0  0  0  0  0  3  0  0  0  0  0  0
  -20.9560   -5.9850   24.8870 C   0  0  0  0  0  3  0  0  0  0  0  0
  -21.3350   -4.6300   24.8930 C   0  0  0  0  0  0  0  0  0  0  0  0
  -21.8880   -4.0480   23.7390 C   0  0  0  0  0  3  0  0  0  0  0  0
  -22.0580   -4.8200   22.5760 C   0  0  0  0  0  0  0  0  0  0  0  0
  -22.5710   -4.2490   21.4600 F   0  0  0  0  0  0  0  0  0  0  0  0
  -21.1660   -3.8830   26.0090 F   0  0  0  0  0  0  0  0  0  0  0  0
  -22.8110  -13.5360   21.1600 C   0  0  0  0  0  0  0  0  0  0  0  0
  -22.1040  -12.8120   22.0200 N   0  0  0  0  0  0  0  0  0  0  0  0
  -22.3540  -14.5700   20.6730 O   0  0  0  0  0  0  0  0  0  0  0  0
  -22.4860  -11.9760   22.4360 H   0  0  0  0  0  0  0  0  0  0  0  0
  -21.1680  -13.0990   22.2680 H   0  0  0  0  0  0  0  0  0  0  0  0
  -25.4040  -15.2460   20.3150 N   0  0  0  0  0  0  0  0  0  0  0  0
  -24.6260  -15.8860   20.4390 H   0  0  0  0  0  0  0  0  0  0  0  0
  -26.2290  -15.6960   19.9420 H   0  0  0  0  0  0  0  0  0  0  0  0
  -33.7470  -19.0390   20.9850 C   0  0  0  0  0  0  0  0  0  0  0  0
  -34.2390  -19.9060   21.8660 N   0  0  0  0  0  0  0  0  0  0  0  0
  -34.5830  -18.4160   20.1570 N   0  0  0  0  0  4  0  0  0  0  0  0
  -33.6180  -20.3320   22.5380 H   0  0  0  0  0  0  0  0  0  0  0  0
  -35.2220  -20.1220   21.9330 H   0  0  0  0  0  0  0  0  0  0  0  0
  -34.2040  -17.7930   19.4590 H   0  0  0  0  0  0  0  0  0  0  0  0
  -35.5780  -18.5700   20.1690 H   0  0  0  0  0  0  0  0  0  0  0  0
  -29.2680  -21.9820   20.4670 C   0  0  0  0  0  0  0  0  0  0  0  0
  -29.1140  -20.7470   21.0280 N   0  0  0  0  0  0  0  0  0  0  0  0
  -29.8720  -22.1330   19.4010 O   0  0  0  0  0  0  0  0  0  0  0  0
  -28.4140  -20.6680   21.7540 H   0  0  0  0  0  0  0  0  0  0  0  0
  -28.7100  -23.2440   21.1980 C   0  0  0  0  0  2  0  0  0  0  0  0
  -27.6920  -24.1180   20.4220 C   0  0  0  0  0  0  0  0  0  0  0  0
  -26.4520  -23.8530   20.4800 N   0  0  0  0  0  0  0  0  0  0  0  0
  -26.2500  -23.0490   21.0630 H   0  0  0  0  0  0  0  0  0  0  0  0
  -28.2040  -25.3330   19.5900 C   0  0  0  0  0  2  0  0  0  0  0  0
  -28.1280  -26.6650   20.1880 O   0  0  0  0  0  0  0  0  0  0  0  0
  -24.5050  -31.9920   23.2800 C   0  0  0  0  0  0  0  0  0  0  0  0
  -26.9790  -27.4500   20.1400 C   0  0  0  0  0  0  0  0  0  0  0  0
  -23.2370  -30.6150   21.6670 C   0  0  0  0  0  3  0  0  0  0  0  0
  -24.6260  -29.0520   20.1990 C   0  0  0  0  0  0  0  0  0  0  0  0
  -25.7680  -30.9090   21.4160 C   0  0  0  0  0  2  0  0  0  0  0  0
  -25.8090  -29.5350   20.7700 C   0  0  0  0  0  0  0  0  0  0  0  0
  -26.9830  -28.7390   20.7410 C   0  0  0  0  0  3  0  0  0  0  0  0
  -25.7780  -27.0100   19.5410 C   0  0  0  0  0  3  0  0  0  0  0  0
  -24.6080  -27.7910   19.5810 C   0  0  0  0  0  3  0  0  0  0  0  0
  -23.4010  -29.9370   20.2800 C   0  0  0  0  0  2  0  0  0  0  0  0
  -24.5230  -31.1880   22.1780 N   0  0  0  0  0  0  0  0  0  0  0  0
  -23.4430  -32.2850   23.8440 O   0  0  0  0  0  0  0  0  0  0  0  0
  -22.5880  -29.6050   22.6420 C   0  0  0  0  0  0  0  0  0  0  0  0
  -21.2670  -29.4020   22.5070 N   0  0  0  0  0  0  0  0  0  0  0  0
  -23.2720  -29.0060   23.4770 O   0  0  0  0  0  0  0  0  0  0  0  0
  -20.7760  -29.9380   21.8060 H   0  0  0  0  0  0  0  0  0  0  0  0
  -17.9120  -28.1360   22.9690 C   0  0  0  0  0  0  0  0  0  0  0  0
  -20.4560  -28.4690   23.2890 C   0  0  0  0  0  3  0  0  0  0  0  0
  -20.6070  -27.0230   22.7630 C   0  0  0  0  0  2  0  0  0  0  0  0
  -19.5390  -26.6400   21.7350 C   0  0  0  0  0  2  0  0  0  0  0  0
  -18.1380  -26.7710   22.3420 C   0  0  0  0  0  2  0  0  0  0  0  0
  -19.0020  -28.9400   23.3990 C   0  0  0  0  0  0  0  0  0  0  0  0
  -18.7370  -30.2160   23.9420 C   0  0  0  0  0  3  0  0  0  0  0  0
  -17.4180  -30.6900   24.0620 C   0  0  0  0  0  3  0  0  0  0  0  0
  -16.3430  -29.8830   23.6490 C   0  0  0  0  0  3  0  0  0  0  0  0
  -16.5900  -28.6090   23.1080 C   0  0  0  0  0  3  0  0  0  0  0  0
  -25.8160  -32.6010   23.8680 C   0  0  0  0  0  3  0  0  0  0  0  0
  -25.5410  -34.0050   24.2040 N   0  0  0  0  0  0  0  0  0  0  0  0
  -25.8740  -35.0500   23.4370 C   0  0  0  0  0  0  0  0  0  0  0  0
  -26.5190  -34.9340   22.3900 O   0  0  0  0  0  0  0  0  0  0  0  0
  -24.9680  -34.1710   25.0190 H   0  0  0  0  0  0  0  0  0  0  0  0
  -24.1740  -36.8750   23.1170 C   0  0  0  0  0  1  0  0  0  0  0  0
  -25.4230  -36.4480   23.9030 C   0  0  0  0  0  3  0  0  0  0  0  0
  -27.5880  -37.2950   24.6930 C   0  0  0  0  0  1  0  0  0  0  0  0
  -26.4730  -37.4810   23.7690 N   0  0  0  0  0  0  0  0  0  0  0  0
  -26.0870  -38.4090   23.9200 H   0  0  0  0  0  0  0  0  0  0  0  0
  -26.3510  -31.8210   25.1320 C   0  0  1  0  0  0  0  0  0  0  0  0
  -25.2750  -31.5800   26.2160 C   0  0  0  0  0  1  0  0  0  0  0  0
  -26.9240  -30.4440   24.7220 C   0  0  0  0  0  1  0  0  0  0  0  0
  -27.5150  -32.6080   25.7800 C   0  0  0  0  0  1  0  0  0  0  0  0
  1  4  1  0
  2  4  2  0
  3  5  1  0
  4 45  1  0
  5  1  2  0
  5 53  1  0
  6  3  2  0
  6  2  1  0
  7 15  1  0
  8 13  1  0
  9 10  1  0
  9  8  1  0
 11 10  1  0
 11 20  1  0
 11 12  1  0
 13  7  1  0
 13 12  1  0
 14  7  2  0
 15  6  1  0
 15 16  1  0
 17 18  2  0
 18 37  1  0
 19 18  1  0
 19 22  1  0
 20 21  1  0
 20 17  1  0
 21 19  2  0
 22 23  1  0
 23 24  2  0
 25 28  1  0
 25 24  1  0
 26 25  2  0
 27 26  1  0
 27 22  2  0
 28 29  1  0
 29 34  2  0
 29 30  1  0
 30 31  2  0
 31 32  1  0
 32 36  1  0
 33 32  2  0
 34 33  1  0
 35 34  1  0
 37 38  1  0
 38 41  1  0
 38 40  1  0
 39 37  2  0
 42 43  1  0
 42 17  1  0
 44 42  1  0
 45 46  1  0
 46 49  1  0
 46 48  1  0
 47 51  1  0
 47 45  2  0
 50 47  1  0
 52 53  1  0
 52 56  1  0
 53 55  1  0
 54 52  2  0
 57 58  2  0
 57 56  1  0
 58 59  1  0
 60 61  1  0
 60 57  1  0
 62 73  2  0
 63 61  1  0
 63 68  1  0
 64 72  1  0
 64 74  1  0
 65 71  1  0
 65 67  1  0
 66 72  1  0
 67 66  1  0
 68 67  2  0
 69 70  1  0
 69 63  2  0
 70 65  2  0
 71 64  1  0
 72 62  1  0
 74 76  2  0
 75 74  1  0
 77 75  1  0
 78 87  2  0
 78 83  1  0
 79 75  1  0
 79 83  1  0
 80 79  1  0
 81 82  1  0
 81 80  1  0
 82 78  1  0
 83 84  2  0
 84 85  1  0
 86 85  2  0
 87 86  1  0
 88 62  1  0
 88 89  1  0
 88 98  1  0
 89 92  1  0
 90 94  1  0
 90 89  1  0
 91 90  2  0
 94 93  1  0
 96 94  1  0
 96 97  1  0
 96 95  1  0
 98101  1  1
 98 99  1  0
100 98  1  0
M  ISO  4   7 100  15 100  60 101  61 101
M  END
>  <TORSDO>  (37) 
F 21

>  <SCORE>  (37) 
-13.745

>  <name>  (37) 
36

>  <ligand_id>  (37) 
36

>  <original_smiles>  (37) 
[H]N=C(C([H])([H])Oc1c([H])c([H])c2c(c1[H])C([H])([H])N(C(=O)C([H])(N([H])C(=O)C([H])(N([H])C([H])([H])[H])C([H])([H])[H])C(C([H])([H])[H])(C([H])([H])[H])C([H])([H])[H])C([H])(C(=O)N([H])C1([H])c3c([H])c([H])c([H])c([H])c3C([H])([H])C([H])([H])C1([H])[H])C2([H])[H])C([H])([H])C(=O)N([H])c1c([H])c(C(N([H])[H])=[N+]([H])[H])c([H])c(N([H])C(=O)N2C([H])([H])C([H])([H])C([H])([H])C([H])(n3nc(-c4c([H])c([H])c(Oc5c([H])c([H])c(F)c([H])c5F)c([H])c4[H])c(C(=O)N([H])[H])c3N([H])[H])C2([H])[H])c1[H]

>  <smiles>  (37) 
[H]N=C(C([H])([H])Oc1c([H])c([H])c2c(c1[H])C([H])([H])N(C(=O)C([H])(N([H])C(=O)C([H])(N([H])C([H])([H])[H])C([H])([H])[H])C(C([H])([H])[H])(C([H])([H])[H])C([H])([H])[H])C([H])(C(=O)N([H])C1([H])c3c([H])c([H])c([H])c([H])c3C([H])([H])C([H])([H])C1([H])[H])C2([H])[H])C([H])([H])C(=O)N([H])c1c([H])c(C(N([H])[H])=[N+]([H])[H])c([H])c(N([H])C(=O)N2C([H])([H])C([H])([H])C([H])([H])C([H])(n3nc(-c4c([H])c([H])c(Oc5c([H])c([H])c(F)c([H])c5F)c([H])c4[H])c(C(=O)N([H])[H])c3N([H])[H])C2([H])[H])c1[H]

$$$$
37:0:0
     RDKit          3D

 99107  0  0  1  0  0  0  0  0999 V2000
  -28.7400  -19.9260   21.2400 C   0  0  0  0  0  3  0  0  0  0  0  0
  -28.9830  -20.7030   20.1230 C   0  0  0  0  0  0  0  0  0  0  0  0
  -29.7180  -18.3100   19.9430 C   0  0  0  0  0  0  0  0  0  0  0  0
  -29.1430  -18.5780   21.1230 N   0  0  0  0  0  0  0  0  0  0  0  0
  -29.5820  -19.6920   18.8350 S   0  0  0  0  0  0  0  0  0  0  0  0
  -30.8980  -14.6480   19.9360 C   0  0  0  0  0  0  0  0  0  0  0  0
  -30.5000  -12.4490   18.9340 C   0  0  0  0  0  2  0  0  0  0  0  0
  -29.4990  -12.6120   17.7740 C   0  0  0  0  0  2  0  0  0  0  0  0
  -28.0570  -12.4640   18.2950 C   0  0  0  0  0  2  0  0  0  0  0  0
  -27.7740  -13.3370   19.5460 C   0  0  0  0  0  3  0  0  0  0  0  0
  -28.9020  -13.2240   20.5960 C   0  0  0  0  0  2  0  0  0  0  0  0
  -30.1760  -13.4950   19.9180 N   0  0  0  0  0  0  0  0  0  0  0  0
  -32.0970  -14.6170   19.7010 O   0  0  0  0  0  0  0  0  0  0  0  0
  -30.5720  -17.1340   19.5850 C   0  0  0  0  0  0  0  0  0  0  0  0
  -31.5770  -17.6020   18.8880 N   0  0  0  0  0  0  0  0  0  0  0  0
  -30.1910  -15.8080   19.9500 N   0  0  0  0  0  0  0  0  0  0  0  0
  -29.2330  -15.7050   20.2450 H   0  0  0  0  0  0  0  0  0  0  0  0
  -25.4430  -13.9180   20.4530 C   0  0  0  0  0  0  0  0  0  0  0  0
  -24.3980  -13.1370   20.8630 C   0  0  0  0  0  0  0  0  0  0  0  0
  -24.8490  -11.7850   20.7570 C   0  0  0  0  0  0  0  0  0  0  0  0
  -26.4640  -13.0430   20.1200 N   0  0  0  0  0  0  0  0  0  0  0  0
  -26.1180  -11.7530   20.3660 N   0  0  0  0  0  0  0  0  0  0  0  0
  -24.1320  -10.5190   20.9510 C   0  0  0  0  0  0  0  0  0  0  0  0
  -24.5750   -9.5540   21.8810 C   0  0  0  0  0  3  0  0  0  0  0  0
  -23.8550   -8.3530   22.0650 C   0  0  0  0  0  3  0  0  0  0  0  0
  -22.6780   -8.1080   21.3170 C   0  0  0  0  0  0  0  0  0  0  0  0
  -22.2540   -9.0630   20.3760 C   0  0  0  0  0  3  0  0  0  0  0  0
  -22.9730  -10.2560   20.1920 C   0  0  0  0  0  3  0  0  0  0  0  0
  -21.9320   -6.9580   21.4070 O   0  0  0  0  0  0  0  0  0  0  0  0
  -21.8430   -6.2490   22.5770 C   0  0  0  0  0  0  0  0  0  0  0  0
  -21.3090   -6.8160   23.7550 C   0  0  0  0  0  3  0  0  0  0  0  0
  -21.1740   -6.0290   24.9170 C   0  0  0  0  0  3  0  0  0  0  0  0
  -21.5600   -4.6750   24.8990 C   0  0  0  0  0  0  0  0  0  0  0  0
  -22.0860   -4.1070   23.7260 C   0  0  0  0  0  3  0  0  0  0  0  0
  -22.2250   -4.8920   22.5670 C   0  0  0  0  0  0  0  0  0  0  0  0
  -22.7130   -4.3340   21.4330 F   0  0  0  0  0  0  0  0  0  0  0  0
  -21.4240   -3.9160   26.0120 F   0  0  0  0  0  0  0  0  0  0  0  0
  -23.0230  -13.6090   21.2390 C   0  0  0  0  0  0  0  0  0  0  0  0
  -22.3460  -12.8820   22.1170 N   0  0  0  0  0  0  0  0  0  0  0  0
  -22.5610  -14.6560   20.7880 O   0  0  0  0  0  0  0  0  0  0  0  0
  -22.7360  -12.0350   22.5030 H   0  0  0  0  0  0  0  0  0  0  0  0
  -21.4250  -13.1730   22.4090 H   0  0  0  0  0  0  0  0  0  0  0  0
  -25.6020  -15.2930   20.3110 N   0  0  0  0  0  0  0  0  0  0  0  0
  -24.8390  -15.9380   20.4850 H   0  0  0  0  0  0  0  0  0  0  0  0
  -26.4210  -15.7460   19.9280 H   0  0  0  0  0  0  0  0  0  0  0  0
  -32.6360  -16.8770   18.2220 C   0  0  0  0  0  2  0  0  0  0  0  0
  -34.5950  -17.0290   16.6470 C   0  0  0  0  0  1  0  0  0  0  0  0
  -34.0620  -18.9830   18.1230 C   0  0  0  0  0  1  0  0  0  0  0  0
  -32.5640  -18.4170   16.1880 C   0  0  0  0  0  1  0  0  0  0  0  0
  -33.4510  -17.8260   17.3020 C   0  0  2  0  0  0  0  0  0  0  0  0
  -28.5510  -23.0550   20.7290 C   0  0  0  0  0  0  0  0  0  0  0  0
  -28.8600  -22.0450   19.8930 N   0  0  0  0  0  0  0  0  0  0  0  0
  -28.1410  -22.8720   21.8770 O   0  0  0  0  0  0  0  0  0  0  0  0
  -29.1440  -22.3800   18.9790 H   0  0  0  0  0  0  0  0  0  0  0  0
  -28.3810  -25.5070   20.7140 C   0  0  0  0  0  3  0  0  0  0  0  0
  -28.7520  -24.3670   20.0890 C   0  0  0  0  0  0  0  0  0  0  0  0
  -29.3080  -24.4390   18.8690 O   0  0  0  0  0  0  0  0  0  0  0  0
  -29.3550  -25.3600   18.6460 H   0  0  0  0  0  0  0  0  0  0  0  0
  -28.5380  -26.7670   20.1690 O   0  0  0  0  0  0  0  0  0  0  0  0
  -24.6810  -31.9040   23.2720 C   0  0  0  0  0  0  0  0  0  0  0  0
  -27.4030  -27.5440   20.1520 C   0  0  0  0  0  0  0  0  0  0  0  0
  -23.5180  -30.5360   21.5720 C   0  0  0  0  0  3  0  0  0  0  0  0
  -25.0090  -29.0440   20.1420 C   0  0  0  0  0  0  0  0  0  0  0  0
  -26.0460  -30.9130   21.4350 C   0  0  0  0  0  2  0  0  0  0  0  0
  -26.1540  -29.5600   20.7650 C   0  0  0  0  0  0  0  0  0  0  0  0
  -27.3590  -28.8180   20.7670 C   0  0  0  0  0  3  0  0  0  0  0  0
  -26.2450  -27.0480   19.5180 C   0  0  0  0  0  3  0  0  0  0  0  0
  -25.0490  -27.7860   19.5170 C   0  0  0  0  0  3  0  0  0  0  0  0
  -23.7600  -29.8930   20.1820 C   0  0  0  0  0  2  0  0  0  0  0  0
  -24.7660  -31.1300   22.1520 N   0  0  0  0  0  0  0  0  0  0  0  0
  -23.5870  -32.1540   23.7970 O   0  0  0  0  0  0  0  0  0  0  0  0
  -22.8500  -29.4900   22.4930 C   0  0  0  0  0  0  0  0  0  0  0  0
  -21.5300  -29.3060   22.3320 N   0  0  0  0  0  0  0  0  0  0  0  0
  -23.5190  -28.8460   23.3070 O   0  0  0  0  0  0  0  0  0  0  0  0
  -21.0510  -29.8690   21.6440 H   0  0  0  0  0  0  0  0  0  0  0  0
  -18.1410  -28.1250   22.7700 C   0  0  0  0  0  0  0  0  0  0  0  0
  -20.7010  -28.3470   23.0640 C   0  0  0  0  0  3  0  0  0  0  0  0
  -20.7930  -26.9400   22.4320 C   0  0  0  0  0  2  0  0  0  0  0  0
  -19.6950  -26.6660   21.4020 C   0  0  0  0  0  2  0  0  0  0  0  0
  -18.3100  -26.8010   22.0420 C   0  0  0  0  0  2  0  0  0  0  0  0
  -19.2650  -28.8590   23.2340 C   0  0  0  0  0  0  0  0  0  0  0  0
  -19.0550  -30.1010   23.8730 C   0  0  0  0  0  3  0  0  0  0  0  0
  -17.7540  -30.6110   24.0470 C   0  0  0  0  0  3  0  0  0  0  0  0
  -16.6440  -29.8730   23.6020 C   0  0  0  0  0  3  0  0  0  0  0  0
  -16.8390  -28.6310   22.9700 C   0  0  0  0  0  3  0  0  0  0  0  0
  -25.9480  -32.5300   23.9300 C   0  0  0  0  0  3  0  0  0  0  0  0
  -25.6320  -33.9260   24.2640 N   0  0  0  0  0  0  0  0  0  0  0  0
  -25.9860  -34.9850   23.5240 C   0  0  0  0  0  0  0  0  0  0  0  0
  -26.6860  -34.8910   22.5120 O   0  0  0  0  0  0  0  0  0  0  0  0
  -25.0170  -34.0720   25.0500 H   0  0  0  0  0  0  0  0  0  0  0  0
  -24.2850  -36.7890   23.1180 C   0  0  0  0  0  1  0  0  0  0  0  0
  -25.4860  -36.3700   23.9800 C   0  0  0  0  0  3  0  0  0  0  0  0
  -27.5810  -37.2310   24.9250 C   0  0  0  0  0  1  0  0  0  0  0  0
  -26.5280  -37.4190   23.9310 N   0  0  0  0  0  0  0  0  0  0  0  0
  -26.1200  -38.3400   24.0700 H   0  0  0  0  0  0  0  0  0  0  0  0
  -26.4340  -31.7470   25.2100 C   0  0  1  0  0  0  0  0  0  0  0  0
  -25.3110  -31.4860   26.2400 C   0  0  0  0  0  1  0  0  0  0  0  0
  -27.0390  -30.3810   24.8180 C   0  0  0  0  0  1  0  0  0  0  0  0
  -27.5620  -32.5400   25.9120 C   0  0  0  0  0  1  0  0  0  0  0  0
  2  1  2  0
  3  4  2  0
  4  1  1  0
  5  3  1  0
  5  2  1  0
  6 16  1  0
  7 12  1  0
  8  9  1  0
  8  7  1  0
 10  9  1  0
 10 21  1  0
 10 11  1  0
 12  6  1  0
 12 11  1  0
 13  6  2  0
 14  3  1  0
 14 16  1  0
 15 14  2  0
 16 17  1  0
 18 19  2  0
 19 38  1  0
 20 19  1  0
 20 23  1  0
 21 22  1  0
 21 18  1  0
 22 20  2  0
 23 24  1  0
 24 25  2  0
 26 29  1  0
 26 25  1  0
 27 26  2  0
 28 27  1  0
 28 23  2  0
 29 30  1  0
 30 31  1  0
 31 32  2  0
 33 32  1  0
 33 37  1  0
 34 33  2  0
 35 30  2  0
 35 34  1  0
 36 35  1  0
 38 39  1  0
 39 42  1  0
 39 41  1  0
 40 38  2  0
 43 18  1  0
 43 44  1  0
 45 43  1  0
 46 15  1  0
 50 47  1  6
 49 50  1  0
 50 48  1  0
 50 46  1  0
 51 53  2  0
 52  2  1  0
 52 51  1  0
 54 52  1  0
 56 55  2  0
 56 51  1  0
 57 56  1  0
 58 57  1  0
 59 55  1  0
 60 71  2  0
 61 59  1  0
 61 66  1  0
 62 70  1  0
 62 72  1  0
 63 69  1  0
 63 65  1  0
 64 70  1  0
 65 66  2  0
 65 64  1  0
 67 61  2  0
 68 67  1  0
 68 63  2  0
 69 62  1  0
 70 60  1  0
 72 74  2  0
 73 72  1  0
 75 73  1  0
 76 85  2  0
 76 81  1  0
 77 73  1  0
 77 81  1  0
 78 77  1  0
 79 80  1  0
 79 78  1  0
 80 76  1  0
 81 82  2  0
 82 83  1  0
 84 83  2  0
 85 84  1  0
 86 60  1  0
 86 87  1  0
 86 96  1  0
 87 90  1  0
 88 92  1  0
 88 87  1  0
 89 88  2  0
 92 91  1  0
 94 92  1  0
 94 95  1  0
 94 93  1  0
 96 99  1  1
 96 97  1  0
 98 96  1  0
M  ISO  4   6 100  16 100  55 101  59 101
M  END
>  <TORSDO>  (38) 
F 21

>  <SCORE>  (38) 
-13.064

>  <name>  (38) 
37

>  <ligand_id>  (38) 
37

>  <original_smiles>  (38) 
[H]OC(C(=O)N([H])c1sc(C(=NC([H])([H])C(C([H])([H])[H])(C([H])([H])[H])C([H])([H])[H])N([H])C(=O)N2C([H])([H])C([H])([H])C([H])([H])C([H])(n3nc(-c4c([H])c([H])c(Oc5c([H])c([H])c(F)c([H])c5F)c([H])c4[H])c(C(=O)N([H])[H])c3N([H])[H])C2([H])[H])nc1[H])=C([H])Oc1c([H])c([H])c2c(c1[H])C([H])([H])N(C(=O)C([H])(N([H])C(=O)C([H])(N([H])C([H])([H])[H])C([H])([H])[H])C(C([H])([H])[H])(C([H])([H])[H])C([H])([H])[H])C([H])(C(=O)N([H])C1([H])c3c([H])c([H])c([H])c([H])c3C([H])([H])C([H])([H])C1([H])[H])C2([H])[H]

>  <smiles>  (38) 
[H]OC(C(=O)N([H])c1sc(C(=NC([H])([H])C(C([H])([H])[H])(C([H])([H])[H])C([H])([H])[H])N([H])C(=O)N2C([H])([H])C([H])([H])C([H])([H])C([H])(n3nc(-c4c([H])c([H])c(Oc5c([H])c([H])c(F)c([H])c5F)c([H])c4[H])c(C(=O)N([H])[H])c3N([H])[H])C2([H])[H])nc1[H])=C([H])Oc1c([H])c([H])c2c(c1[H])C([H])([H])N(C(=O)C([H])(N([H])C(=O)C([H])(N([H])C([H])([H])[H])C([H])([H])[H])C(C([H])([H])[H])(C([H])([H])[H])C([H])([H])[H])C([H])(C(=O)N([H])C1([H])c3c([H])c([H])c([H])c([H])c3C([H])([H])C([H])([H])C1([H])[H])C2([H])[H]

$$$$
38:0:0
     RDKit          3D

 93101  0  0  1  0  0  0  0  0999 V2000
  -28.6170  -21.1280   20.4580 N   0  0  0  0  0  0  0  0  0  0  0  0
  -27.6430  -21.1220   20.7570 H   0  0  0  0  0  0  0  0  0  0  0  0
  -30.5950  -19.5430   20.0130 C   0  0  0  0  0  3  0  0  0  0  0  0
  -30.9450  -18.1270   20.0470 C   0  0  0  0  0  0  0  0  0  0  0  0
  -29.2860  -19.8510   20.2990 C   0  0  0  0  0  0  0  0  0  0  0  0
  -29.8920  -17.2430   20.2990 C   0  0  0  0  0  0  0  0  0  0  0  0
  -28.4600  -18.2930   20.5600 S   0  0  0  0  0  0  0  0  0  0  0  0
  -30.5330  -14.7510   20.0070 C   0  0  0  0  0  0  0  0  0  0  0  0
  -30.2780  -12.5020   18.9520 C   0  0  0  0  0  2  0  0  0  0  0  0
  -29.2750  -12.6200   17.7830 C   0  0  0  0  0  2  0  0  0  0  0  0
  -27.8300  -12.4430   18.2860 C   0  0  0  0  0  2  0  0  0  0  0  0
  -27.5280  -13.2950   19.5470 C   0  0  0  0  0  3  0  0  0  0  0  0
  -28.6440  -13.1600   20.6070 C   0  0  0  0  0  2  0  0  0  0  0  0
  -29.9130  -13.5230   19.9610 N   0  0  0  0  0  0  0  0  0  0  0  0
  -31.6700  -14.8720   19.5450 O   0  0  0  0  0  0  0  0  0  0  0  0
  -29.7700  -15.8390   20.4070 N   0  0  0  0  0  0  0  0  0  0  0  0
  -28.8650  -15.5390   20.7380 H   0  0  0  0  0  0  0  0  0  0  0  0
  -25.1750  -13.8700   20.3970 C   0  0  0  0  0  0  0  0  0  0  0  0
  -24.1340  -13.0880   20.8130 C   0  0  0  0  0  0  0  0  0  0  0  0
  -24.6000  -11.7390   20.7470 C   0  0  0  0  0  0  0  0  0  0  0  0
  -26.2100  -12.9970   20.1000 N   0  0  0  0  0  0  0  0  0  0  0  0
  -25.8730  -11.7100   20.3720 N   0  0  0  0  0  0  0  0  0  0  0  0
  -23.8900  -10.4720   20.9610 C   0  0  0  0  0  0  0  0  0  0  0  0
  -24.3620   -9.5050   21.8760 C   0  0  0  0  0  3  0  0  0  0  0  0
  -23.6500   -8.3030   22.0800 C   0  0  0  0  0  3  0  0  0  0  0  0
  -22.4520   -8.0590   21.3670 C   0  0  0  0  0  0  0  0  0  0  0  0
  -21.9980   -9.0140   20.4410 C   0  0  0  0  0  3  0  0  0  0  0  0
  -22.7100  -10.2070   20.2370 C   0  0  0  0  0  3  0  0  0  0  0  0
  -21.7080   -6.9090   21.4810 O   0  0  0  0  0  0  0  0  0  0  0  0
  -21.6950   -6.1720   22.6380 C   0  0  0  0  0  0  0  0  0  0  0  0
  -21.3090   -6.7320   23.8750 C   0  0  0  0  0  3  0  0  0  0  0  0
  -21.2440   -5.9200   25.0250 C   0  0  0  0  0  3  0  0  0  0  0  0
  -21.5550   -4.5510   24.9400 C   0  0  0  0  0  0  0  0  0  0  0  0
  -21.9330   -3.9900   23.7070 C   0  0  0  0  0  3  0  0  0  0  0  0
  -22.0010   -4.7970   22.5590 C   0  0  0  0  0  0  0  0  0  0  0  0
  -22.3460   -4.2480   21.3700 F   0  0  0  0  0  0  0  0  0  0  0  0
  -21.4840   -3.7690   26.0420 F   0  0  0  0  0  0  0  0  0  0  0  0
  -22.7500  -13.5560   21.1600 C   0  0  0  0  0  0  0  0  0  0  0  0
  -22.0700  -12.8500   22.0560 N   0  0  0  0  0  0  0  0  0  0  0  0
  -22.2820  -14.5840   20.6710 O   0  0  0  0  0  0  0  0  0  0  0  0
  -22.4620  -12.0190   22.4720 H   0  0  0  0  0  0  0  0  0  0  0  0
  -21.1440  -13.1460   22.3310 H   0  0  0  0  0  0  0  0  0  0  0  0
  -25.3240  -15.2430   20.2220 N   0  0  0  0  0  0  0  0  0  0  0  0
  -24.5550  -15.8870   20.3710 H   0  0  0  0  0  0  0  0  0  0  0  0
  -26.1390  -15.6890   19.8210 H   0  0  0  0  0  0  0  0  0  0  0  0
  -32.3500  -17.7610   19.9220 C   0  0  0  0  0  0  0  0  0  0  0  0
  -33.0360  -18.2200   18.6410 C   0  0  0  0  0  1  0  0  0  0  0  0
  -33.0100  -17.1530   20.7710 O   0  0  0  0  0  0  0  0  0  0  0  0
  -29.0710  -22.4730   19.9220 C   0  0  0  0  0  2  0  0  0  0  0  0
  -28.3560  -23.8160   20.4370 C   0  0  0  0  0  0  0  0  0  0  0  0
  -27.7530  -23.7930   21.5160 O   0  0  0  0  0  0  0  0  0  0  0  0
  -28.3880  -25.1610   19.5730 C   0  0  0  0  0  2  0  0  0  0  0  0
  -28.2640  -26.4820   20.2700 O   0  0  0  0  0  0  0  0  0  0  0  0
  -24.5880  -31.9380   23.2580 C   0  0  0  0  0  0  0  0  0  0  0  0
  -27.1380  -27.3260   20.1920 C   0  0  0  0  0  0  0  0  0  0  0  0
  -23.3590  -30.5470   21.6280 C   0  0  0  0  0  3  0  0  0  0  0  0
  -24.7850  -28.9740   20.1930 C   0  0  0  0  0  0  0  0  0  0  0  0
  -25.9010  -30.8350   21.4280 C   0  0  0  0  0  2  0  0  0  0  0  0
  -25.9620  -29.4510   20.7830 C   0  0  0  0  0  0  0  0  0  0  0  0
  -27.1350  -28.6360   20.7740 C   0  0  0  0  0  3  0  0  0  0  0  0
  -25.9330  -26.9040   19.5840 C   0  0  0  0  0  3  0  0  0  0  0  0
  -24.7750  -27.7080   19.5850 C   0  0  0  0  0  3  0  0  0  0  0  0
  -23.5570  -29.8640   20.2480 C   0  0  0  0  0  2  0  0  0  0  0  0
  -24.6350  -31.1250   22.1610 N   0  0  0  0  0  0  0  0  0  0  0  0
  -23.5110  -32.2260   23.7990 O   0  0  0  0  0  0  0  0  0  0  0  0
  -22.6930  -29.5410   22.5970 C   0  0  0  0  0  0  0  0  0  0  0  0
  -21.3650  -29.3710   22.4740 N   0  0  0  0  0  0  0  0  0  0  0  0
  -23.3680  -28.9160   23.4180 O   0  0  0  0  0  0  0  0  0  0  0  0
  -20.8780  -29.9260   21.7850 H   0  0  0  0  0  0  0  0  0  0  0  0
  -17.9850  -28.1820   22.9760 C   0  0  0  0  0  0  0  0  0  0  0  0
  -20.5420  -28.4430   23.2520 C   0  0  0  0  0  3  0  0  0  0  0  0
  -20.6450  -27.0060   22.6930 C   0  0  0  0  0  2  0  0  0  0  0  0
  -19.5470  -26.6720   21.6780 C   0  0  0  0  0  2  0  0  0  0  0  0
  -18.1630  -26.8250   22.3140 C   0  0  0  0  0  2  0  0  0  0  0  0
  -19.1020  -28.9480   23.4010 C   0  0  0  0  0  0  0  0  0  0  0  0
  -18.8810  -30.2170   23.9790 C   0  0  0  0  0  3  0  0  0  0  0  0
  -17.5760  -30.7200   24.1350 C   0  0  0  0  0  3  0  0  0  0  0  0
  -16.4730  -29.9510   23.7260 C   0  0  0  0  0  3  0  0  0  0  0  0
  -16.6780  -28.6840   23.1510 C   0  0  0  0  0  3  0  0  0  0  0  0
  -25.8800  -32.5610   23.8710 C   0  0  0  0  0  3  0  0  0  0  0  0
  -25.5840  -33.9610   24.2040 N   0  0  0  0  0  0  0  0  0  0  0  0
  -25.9170  -35.0140   23.4440 C   0  0  0  0  0  0  0  0  0  0  0  0
  -26.5740  -34.9070   22.4060 O   0  0  0  0  0  0  0  0  0  0  0  0
  -25.0020  -34.1190   25.0130 H   0  0  0  0  0  0  0  0  0  0  0  0
  -24.1960  -36.8200   23.1150 C   0  0  0  0  0  1  0  0  0  0  0  0
  -25.4450  -36.4060   23.9090 C   0  0  0  0  0  3  0  0  0  0  0  0
  -27.5980  -37.2730   24.7090 C   0  0  0  0  0  1  0  0  0  0  0  0
  -26.4840  -37.4520   23.7820 N   0  0  0  0  0  0  0  0  0  0  0  0
  -26.0860  -38.3740   23.9380 H   0  0  0  0  0  0  0  0  0  0  0  0
  -26.3990  -31.7860   25.1430 C   0  0  1  0  0  0  0  0  0  0  0  0
  -25.3130  -31.5590   26.2210 C   0  0  0  0  0  1  0  0  0  0  0  0
  -26.9670  -30.4030   24.7510 C   0  0  0  0  0  1  0  0  0  0  0  0
  -27.5620  -32.5700   25.7960 C   0  0  0  0  0  1  0  0  0  0  0  0
  1  2  1  0
  3  4  1  0
  3  5  2  0
  4  6  2  0
  5  1  1  0
  5  7  1  0
  6 16  1  0
  6  7  1  0
  8 16  1  0
  9 14  1  0
 10 11  1  0
 10  9  1  0
 12 11  1  0
 12 21  1  0
 12 13  1  0
 14  8  1  0
 14 13  1  0
 15  8  2  0
 16 17  1  0
 18 19  2  0
 19 38  1  0
 20 19  1  0
 20 23  1  0
 21 22  1  0
 21 18  1  0
 22 20  2  0
 23 24  1  0
 24 25  2  0
 26 29  1  0
 26 25  1  0
 27 26  2  0
 28 27  1  0
 28 23  2  0
 29 30  1  0
 30 31  1  0
 31 32  2  0
 33 32  1  0
 33 37  1  0
 34 33  2  0
 35 30  2  0
 35 34  1  0
 36 35  1  0
 38 39  1  0
 39 42  1  0
 39 41  1  0
 40 38  2  0
 43 44  1  0
 43 18  1  0
 45 43  1  0
 46  4  1  0
 46 48  2  0
 47 46  1  0
 49 50  1  0
 49  1  1  0
 50 51  2  0
 52 53  1  0
 52 50  1  0
 54 65  2  0
 55 53  1  0
 55 60  1  0
 56 64  1  0
 56 66  1  0
 57 63  1  0
 57 59  1  0
 58 64  1  0
 59 58  1  0
 60 59  2  0
 61 62  1  0
 61 55  2  0
 62 57  2  0
 63 56  1  0
 64 54  1  0
 66 68  2  0
 67 66  1  0
 69 67  1  0
 70 79  2  0
 70 75  1  0
 71 67  1  0
 71 75  1  0
 72 71  1  0
 73 74  1  0
 73 72  1  0
 74 70  1  0
 75 76  2  0
 76 77  1  0
 78 77  2  0
 79 78  1  0
 80 54  1  0
 80 81  1  0
 80 90  1  0
 81 84  1  0
 82 86  1  0
 82 81  1  0
 83 82  2  0
 86 85  1  0
 88 86  1  0
 88 89  1  0
 88 87  1  0
 90 93  1  1
 90 91  1  0
 92 90  1  0
M  ISO  4   8 100  16 100  52 101  53 101
M  END
>  <TORSDO>  (39) 
F 21

>  <SCORE>  (39) 
-13.296

>  <name>  (39) 
38

>  <ligand_id>  (39) 
38

>  <original_smiles>  (39) 
[H]c1c([H])c([H])c2c(c1[H])C([H])([H])C([H])([H])C([H])([H])C2([H])N([H])C(=O)C1([H])N(C(=O)C([H])(N([H])C(=O)C([H])(N([H])C([H])([H])[H])C([H])([H])[H])C(C([H])([H])[H])(C([H])([H])[H])C([H])([H])[H])C([H])([H])c2c([H])c(OC([H])([H])C(=O)C([H])([H])N([H])c3sc(N([H])C(=O)N4C([H])([H])C([H])([H])C([H])([H])C([H])(n5nc(-c6c([H])c([H])c(Oc7c([H])c([H])c(F)c([H])c7F)c([H])c6[H])c(C(=O)N([H])[H])c5N([H])[H])C4([H])[H])c(C(=O)C([H])([H])[H])c3[H])c([H])c([H])c2C1([H])[H]

>  <smiles>  (39) 
[H]c1c([H])c([H])c2c(c1[H])C([H])([H])C([H])([H])C([H])([H])C2([H])N([H])C(=O)C1([H])N(C(=O)C([H])(N([H])C(=O)C([H])(N([H])C([H])([H])[H])C([H])([H])[H])C(C([H])([H])[H])(C([H])([H])[H])C([H])([H])[H])C([H])([H])c2c([H])c(OC([H])([H])C(=O)C([H])([H])N([H])c3sc(N([H])C(=O)N4C([H])([H])C([H])([H])C([H])([H])C([H])(n5nc(-c6c([H])c([H])c(Oc7c([H])c([H])c(F)c([H])c7F)c([H])c6[H])c(C(=O)N([H])[H])c5N([H])[H])C4([H])[H])c(C(=O)C([H])([H])[H])c3[H])c([H])c([H])c2C1([H])[H]

$$$$
39:0:0
     RDKit          3D

 98106  0  0  1  0  0  0  0  0999 V2000
  -29.0040  -21.1490   19.7600 C   0  0  0  0  0  0  0  0  0  0  0  0
  -28.6370  -23.6970   19.8970 C   0  0  0  0  0  0  0  0  0  0  0  0
  -28.6530  -23.9720   18.5760 N   0  0  0  0  0  4  0  0  0  0  0  0
  -28.5620  -20.9950   18.4930 N   0  0  0  0  0  4  0  0  0  0  0  0
  -28.9340  -22.4070   20.4050 N   0  0  0  0  0  0  0  0  0  0  0  0
  -28.4280  -24.9130   18.2910 H   0  0  0  0  0  0  0  0  0  0  0  0
  -29.1080  -23.3740   17.9010 H   0  0  0  0  0  0  0  0  0  0  0  0
  -28.6650  -20.0590   18.1250 H   0  0  0  0  0  0  0  0  0  0  0  0
  -27.8750  -21.5950   18.0680 H   0  0  0  0  0  0  0  0  0  0  0  0
  -29.1660  -22.3740   21.3850 H   0  0  0  0  0  0  0  0  0  0  0  0
  -30.5980  -14.8840   20.0020 C   0  0  0  0  0  0  0  0  0  0  0  0
  -30.3880  -12.5990   18.9760 C   0  0  0  0  0  2  0  0  0  0  0  0
  -29.3710  -12.6490   17.8150 C   0  0  0  0  0  2  0  0  0  0  0  0
  -27.9340  -12.4480   18.3390 C   0  0  0  0  0  2  0  0  0  0  0  0
  -27.6190  -13.3310   19.5760 C   0  0  0  0  0  3  0  0  0  0  0  0
  -28.7480  -13.2650   20.6260 C   0  0  0  0  0  2  0  0  0  0  0  0
  -29.9890  -13.6480   19.9410 N   0  0  0  0  0  0  0  0  0  0  0  0
  -31.8040  -14.9750   19.7490 O   0  0  0  0  0  0  0  0  0  0  0  0
  -29.5340  -19.8150   20.3590 C   0  0  0  0  0  0  0  0  0  0  0  0
  -30.2820  -19.6800   21.5100 C   0  0  0  0  0  0  0  0  0  0  0  0
  -29.9670  -17.4520   20.3070 C   0  0  0  0  0  0  0  0  0  0  0  0
  -29.3280  -18.5230   19.7100 N   0  0  0  0  0  0  0  0  0  0  0  0
  -29.7680  -16.0090   19.9760 N   0  0  0  0  0  0  0  0  0  0  0  0
  -30.8640  -18.0170   21.7310 S   0  0  0  0  0  0  0  0  0  0  0  0
  -28.8080  -15.7760   19.7870 H   0  0  0  0  0  0  0  0  0  0  0  0
  -25.2860  -13.9110   20.4660 C   0  0  0  0  0  0  0  0  0  0  0  0
  -24.2390  -13.1300   20.8750 C   0  0  0  0  0  0  0  0  0  0  0  0
  -24.6940  -11.7790   20.7840 C   0  0  0  0  0  0  0  0  0  0  0  0
  -26.3090  -13.0340   20.1470 N   0  0  0  0  0  0  0  0  0  0  0  0
  -25.9650  -11.7460   20.4030 N   0  0  0  0  0  0  0  0  0  0  0  0
  -23.9740  -10.5160   20.9800 C   0  0  0  0  0  0  0  0  0  0  0  0
  -24.4280   -9.5410   21.8970 C   0  0  0  0  0  3  0  0  0  0  0  0
  -23.7080   -8.3420   22.0840 C   0  0  0  0  0  3  0  0  0  0  0  0
  -22.5170   -8.1100   21.3550 C   0  0  0  0  0  0  0  0  0  0  0  0
  -22.0820   -9.0710   20.4280 C   0  0  0  0  0  3  0  0  0  0  0  0
  -22.8030  -10.2620   20.2390 C   0  0  0  0  0  3  0  0  0  0  0  0
  -21.7670   -6.9630   21.4500 O   0  0  0  0  0  0  0  0  0  0  0  0
  -21.7150   -6.2320   22.6090 C   0  0  0  0  0  0  0  0  0  0  0  0
  -21.2430   -6.7860   23.8200 C   0  0  0  0  0  3  0  0  0  0  0  0
  -21.1400   -5.9800   24.9700 C   0  0  0  0  0  3  0  0  0  0  0  0
  -21.5010   -4.6200   24.9130 C   0  0  0  0  0  0  0  0  0  0  0  0
  -21.9690   -4.0660   23.7080 C   0  0  0  0  0  3  0  0  0  0  0  0
  -22.0720   -4.8700   22.5590 C   0  0  0  0  0  0  0  0  0  0  0  0
  -22.5020   -4.3250   21.3960 F   0  0  0  0  0  0  0  0  0  0  0  0
  -21.3960   -3.8430   26.0170 F   0  0  0  0  0  0  0  0  0  0  0  0
  -22.8620  -13.6060   21.2360 C   0  0  0  0  0  0  0  0  0  0  0  0
  -22.1780  -12.8850   22.1170 N   0  0  0  0  0  0  0  0  0  0  0  0
  -22.4030  -14.6460   20.7680 O   0  0  0  0  0  0  0  0  0  0  0  0
  -22.5650  -12.0410   22.5130 H   0  0  0  0  0  0  0  0  0  0  0  0
  -21.2560  -13.1830   22.4030 H   0  0  0  0  0  0  0  0  0  0  0  0
  -25.4420  -15.2870   20.3170 N   0  0  0  0  0  0  0  0  0  0  0  0
  -24.6750  -15.9280   20.4800 H   0  0  0  0  0  0  0  0  0  0  0  0
  -26.2630  -15.7470   19.9470 H   0  0  0  0  0  0  0  0  0  0  0  0
  -30.5840  -20.6490   22.4690 N   0  0  0  0  0  0  0  0  0  0  0  0
  -31.3590  -20.3440   23.0540 H   0  0  0  0  0  0  0  0  0  0  0  0
  -29.8160  -20.7750   23.1260 H   0  0  0  0  0  0  0  0  0  0  0  0
  -28.2320  -24.9590   20.7880 C   0  0  0  0  0  2  0  0  0  0  0  0
  -28.4050  -26.3900   20.3040 O   0  0  0  0  0  0  0  0  0  0  0  0
  -24.6120  -31.9060   23.2680 C   0  0  0  0  0  0  0  0  0  0  0  0
  -27.3010  -27.2820   20.2970 C   0  0  0  0  0  0  0  0  0  0  0  0
  -23.4530  -30.4880   21.6150 C   0  0  0  0  0  3  0  0  0  0  0  0
  -24.9410  -28.9310   20.2250 C   0  0  0  0  0  0  0  0  0  0  0  0
  -25.9970  -30.8090   21.4770 C   0  0  0  0  0  2  0  0  0  0  0  0
  -26.0990  -29.4160   20.8460 C   0  0  0  0  0  0  0  0  0  0  0  0
  -27.2850  -28.6070   20.8670 C   0  0  0  0  0  3  0  0  0  0  0  0
  -26.1200  -26.8680   19.6500 C   0  0  0  0  0  3  0  0  0  0  0  0
  -24.9560  -27.6660   19.6160 C   0  0  0  0  0  3  0  0  0  0  0  0
  -23.7030  -29.8100   20.2410 C   0  0  0  0  0  2  0  0  0  0  0  0
  -24.7080  -31.0870   22.1790 N   0  0  0  0  0  0  0  0  0  0  0  0
  -23.5150  -32.1760   23.7800 O   0  0  0  0  0  0  0  0  0  0  0  0
  -22.7770  -29.4740   22.5680 C   0  0  0  0  0  0  0  0  0  0  0  0
  -21.4500  -29.3010   22.4320 N   0  0  0  0  0  0  0  0  0  0  0  0
  -23.4460  -28.8440   23.3920 O   0  0  0  0  0  0  0  0  0  0  0  0
  -20.9630  -29.8650   21.7470 H   0  0  0  0  0  0  0  0  0  0  0  0
  -18.0610  -28.1290   22.9300 C   0  0  0  0  0  0  0  0  0  0  0  0
  -20.6240  -28.3630   23.1940 C   0  0  0  0  0  3  0  0  0  0  0  0
  -20.7120  -26.9370   22.6070 C   0  0  0  0  0  2  0  0  0  0  0  0
  -19.6070  -26.6350   21.5910 C   0  0  0  0  0  2  0  0  0  0  0  0
  -18.2270  -26.7870   22.2370 C   0  0  0  0  0  2  0  0  0  0  0  0
  -19.1890  -28.8770   23.3640 C   0  0  0  0  0  0  0  0  0  0  0  0
  -18.9810  -30.1330   23.9710 C   0  0  0  0  0  3  0  0  0  0  0  0
  -17.6820  -30.6470   24.1440 C   0  0  0  0  0  3  0  0  0  0  0  0
  -16.5690  -29.8960   23.7230 C   0  0  0  0  0  3  0  0  0  0  0  0
  -16.7610  -28.6380   23.1230 C   0  0  0  0  0  3  0  0  0  0  0  0
  -25.8760  -32.5560   23.9140 C   0  0  0  0  0  3  0  0  0  0  0  0
  -25.5550  -33.9600   24.2180 N   0  0  0  0  0  0  0  0  0  0  0  0
  -25.9010  -35.0010   23.4500 C   0  0  0  0  0  0  0  0  0  0  0  0
  -26.5900  -34.8840   22.4330 O   0  0  0  0  0  0  0  0  0  0  0  0
  -24.9530  -34.1270   25.0100 H   0  0  0  0  0  0  0  0  0  0  0  0
  -24.1800  -36.7860   23.0260 C   0  0  0  0  0  1  0  0  0  0  0  0
  -25.4010  -36.3950   23.8770 C   0  0  0  0  0  3  0  0  0  0  0  0
  -27.5070  -37.2950   24.7590 C   0  0  0  0  0  1  0  0  0  0  0  0
  -26.4370  -37.4480   23.7790 N   0  0  0  0  0  0  0  0  0  0  0  0
  -26.0260  -38.3690   23.9030 H   0  0  0  0  0  0  0  0  0  0  0  0
  -26.3630  -31.8080   25.2130 C   0  0  1  0  0  0  0  0  0  0  0  0
  -25.2430  -31.5820   26.2540 C   0  0  0  0  0  1  0  0  0  0  0  0
  -26.9630  -30.4310   24.8520 C   0  0  0  0  0  1  0  0  0  0  0  0
  -27.4930  -32.6130   25.8910 C   0  0  0  0  0  1  0  0  0  0  0  0
  1 19  1  0
  1  5  1  0
  2  5  1  0
  2 57  1  0
  3  2  2  0
  4  1  2  0
  5 10  1  0
  6  3  1  0
  7  3  1  0
  8  4  1  0
  9  4  1  0
 12 17  1  0
 13 14  1  0
 13 12  1  0
 15 14  1  0
 15 29  1  0
 15 16  1  0
 17 11  1  0
 17 16  1  0
 18 11  2  0
 19 20  2  0
 20 24  1  0
 20 54  1  0
 21 24  1  0
 22 21  2  0
 22 19  1  0
 23 11  1  0
 23 21  1  0
 25 23  1  0
 26 27  2  0
 27 46  1  0
 28 27  1  0
 28 31  1  0
 29 30  1  0
 29 26  1  0
 30 28  2  0
 31 32  1  0
 32 33  2  0
 34 37  1  0
 34 33  1  0
 35 34  2  0
 36 35  1  0
 36 31  2  0
 37 38  1  0
 38 39  1  0
 39 40  2  0
 41 40  1  0
 41 45  1  0
 42 41  2  0
 43 38  2  0
 43 42  1  0
 44 43  1  0
 46 47  1  0
 47 50  1  0
 47 49  1  0
 48 46  2  0
 51 26  1  0
 51 52  1  0
 53 51  1  0
 54 55  1  0
 54 56  1  0
 58 57  1  0
 59 70  2  0
 60 58  1  0
 60 65  1  0
 61 69  1  0
 61 71  1  0
 62 68  1  0
 62 64  1  0
 63 69  1  0
 64 65  2  0
 64 63  1  0
 66 60  2  0
 67 66  1  0
 67 62  2  0
 68 61  1  0
 69 59  1  0
 71 73  2  0
 72 71  1  0
 74 72  1  0
 75 84  2  0
 75 80  1  0
 76 72  1  0
 76 80  1  0
 77 76  1  0
 78 79  1  0
 78 77  1  0
 79 75  1  0
 80 81  2  0
 81 82  1  0
 83 82  2  0
 84 83  1  0
 85 59  1  0
 85 86  1  0
 85 95  1  0
 86 89  1  0
 87 91  1  0
 87 86  1  0
 88 87  2  0
 91 90  1  0
 93 91  1  0
 93 94  1  0
 93 92  1  0
 95 98  1  1
 95 96  1  0
 97 95  1  0
M  ISO  4  11 100  23 100  57 101  58 101
M  END
>  <TORSDO>  (40) 
F 18

>  <SCORE>  (40) 
-14.988

>  <name>  (40) 
39

>  <ligand_id>  (40) 
39

>  <original_smiles>  (40) 
[H]c1c([H])c([H])c2c(c1[H])C([H])([H])C([H])([H])C([H])([H])C2([H])N([H])C(=O)C1([H])N(C(=O)C([H])(N([H])C(=O)C([H])(N([H])C([H])([H])[H])C([H])([H])[H])C(C([H])([H])[H])(C([H])([H])[H])C([H])([H])[H])C([H])([H])c2c([H])c(OC([H])([H])C(N([H])C(c3nc(N([H])C(=O)N4C([H])([H])C([H])([H])C([H])([H])C([H])(n5nc(-c6c([H])c([H])c(Oc7c([H])c([H])c(F)c([H])c7F)c([H])c6[H])c(C(=O)N([H])[H])c5N([H])[H])C4([H])[H])sc3N([H])[H])=[N+]([H])[H])=[N+]([H])[H])c([H])c([H])c2C1([H])[H]

>  <smiles>  (40) 
[H]c1c([H])c([H])c2c(c1[H])C([H])([H])C([H])([H])C([H])([H])C2([H])N([H])C(=O)C1([H])N(C(=O)C([H])(N([H])C(=O)C([H])(N([H])C([H])([H])[H])C([H])([H])[H])C(C([H])([H])[H])(C([H])([H])[H])C([H])([H])[H])C([H])([H])c2c([H])c(OC([H])([H])C(N([H])C(c3nc(N([H])C(=O)N4C([H])([H])C([H])([H])C([H])([H])C([H])(n5nc(-c6c([H])c([H])c(Oc7c([H])c([H])c(F)c([H])c7F)c([H])c6[H])c(C(=O)N([H])[H])c5N([H])[H])C4([H])[H])sc3N([H])[H])=[N+]([H])[H])=[N+]([H])[H])c([H])c([H])c2C1([H])[H]

$$$$
40:0:0
     RDKit          3D

 97106  0  0  1  0  0  0  0  0999 V2000
  -31.0730  -18.2590   19.6490 C   0  0  0  0  0  0  0  0  0  0  0  0
  -31.1210  -18.3150   18.2710 C   0  0  0  0  0  0  0  0  0  0  0  0
  -30.3780  -20.4470   19.2910 C   0  0  0  0  0  0  0  0  0  0  0  0
  -30.6190  -19.4910   20.2120 N   0  0  0  0  0  0  0  0  0  0  0  0
  -29.9780  -21.7850   19.4780 N   0  0  0  0  0  0  0  0  0  0  0  0
  -30.6350  -19.8700   17.6500 S   0  0  0  0  0  0  0  0  0  0  0  0
  -29.9460  -22.2850   18.5910 H   0  0  0  0  0  0  0  0  0  0  0  0
  -31.1400  -14.6630   19.6660 C   0  0  0  0  0  0  0  0  0  0  0  0
  -30.6650  -12.5490   18.4360 C   0  0  0  0  0  2  0  0  0  0  0  0
  -29.5540  -12.7610   17.3840 C   0  0  0  0  0  2  0  0  0  0  0  0
  -28.1580  -12.5700   18.0110 C   0  0  0  0  0  2  0  0  0  0  0  0
  -28.0080  -13.3320   19.3510 C   0  0  0  0  0  3  0  0  0  0  0  0
  -29.2200  -13.0430   20.2760 C   0  0  0  0  0  2  0  0  0  0  0  0
  -30.4210  -13.4900   19.5570 N   0  0  0  0  0  0  0  0  0  0  0  0
  -32.2030  -14.7490   19.0410 O   0  0  0  0  0  0  0  0  0  0  0  0
  -30.4990  -17.3850   22.8280 C   0  0  0  0  0  2  0  0  0  0  0  0
  -29.5900  -16.1850   22.5310 C   0  0  0  0  0  2  0  0  0  0  0  0
  -31.7840  -17.3280   21.9820 C   0  0  0  0  0  2  0  0  0  0  0  0
  -29.3870  -16.0570   21.0130 C   0  0  0  0  0  2  0  0  0  0  0  0
  -31.5140  -17.0340   20.4820 C   0  0  0  0  0  3  0  0  0  0  0  0
  -30.6790  -15.7850   20.3490 N   0  0  0  0  0  0  0  0  0  0  0  0
  -25.7630  -13.9280   20.4600 C   0  0  0  0  0  0  0  0  0  0  0  0
  -24.7390  -13.1450   20.9210 C   0  0  0  0  0  0  0  0  0  0  0  0
  -25.1490  -11.7940   20.7070 C   0  0  0  0  0  0  0  0  0  0  0  0
  -26.7350  -13.0500   20.0040 N   0  0  0  0  0  0  0  0  0  0  0  0
  -26.3780  -11.7570   20.2080 N   0  0  0  0  0  0  0  0  0  0  0  0
  -24.4210  -10.5330   20.8930 C   0  0  0  0  0  0  0  0  0  0  0  0
  -24.8880   -9.5370   21.7790 C   0  0  0  0  0  3  0  0  0  0  0  0
  -24.1630   -8.3410   21.9560 C   0  0  0  0  0  3  0  0  0  0  0  0
  -22.9550   -8.1320   21.2460 C   0  0  0  0  0  0  0  0  0  0  0  0
  -22.5090   -9.1160   20.3460 C   0  0  0  0  0  3  0  0  0  0  0  0
  -23.2360  -10.3050   20.1670 C   0  0  0  0  0  3  0  0  0  0  0  0
  -22.1970   -6.9900   21.3350 O   0  0  0  0  0  0  0  0  0  0  0  0
  -22.0760   -6.2970   22.5130 C   0  0  0  0  0  0  0  0  0  0  0  0
  -21.5450   -6.8930   23.6780 C   0  0  0  0  0  3  0  0  0  0  0  0
  -21.3730   -6.1230   24.8450 C   0  0  0  0  0  3  0  0  0  0  0  0
  -21.7220   -4.7600   24.8490 C   0  0  0  0  0  0  0  0  0  0  0  0
  -22.2480   -4.1640   23.6880 C   0  0  0  0  0  3  0  0  0  0  0  0
  -22.4210   -4.9310   22.5240 C   0  0  0  0  0  0  0  0  0  0  0  0
  -22.9060   -4.3460   21.4010 F   0  0  0  0  0  0  0  0  0  0  0  0
  -21.5500   -4.0180   25.9680 F   0  0  0  0  0  0  0  0  0  0  0  0
  -23.4120  -13.6200   21.4390 C   0  0  0  0  0  0  0  0  0  0  0  0
  -22.8070  -12.8710   22.3530 N   0  0  0  0  0  0  0  0  0  0  0  0
  -22.9260  -14.6900   21.0690 O   0  0  0  0  0  0  0  0  0  0  0  0
  -23.2160  -12.0050   22.6710 H   0  0  0  0  0  0  0  0  0  0  0  0
  -21.9230  -13.1690   22.7420 H   0  0  0  0  0  0  0  0  0  0  0  0
  -25.9330  -15.3060   20.3730 N   0  0  0  0  0  0  0  0  0  0  0  0
  -25.2110  -15.9560   20.6630 H   0  0  0  0  0  0  0  0  0  0  0  0
  -26.7350  -15.7660   19.9640 H   0  0  0  0  0  0  0  0  0  0  0  0
  -31.5270  -17.3270   17.3780 N   0  0  0  0  0  0  0  0  0  0  0  0
  -31.9880  -16.4740   17.6940 H   0  0  0  0  0  0  0  0  0  0  0  0
  -31.7160  -17.5230   16.4000 H   0  0  0  0  0  0  0  0  0  0  0  0
  -29.5910  -22.7370   20.5400 C   0  0  0  0  0  2  0  0  0  0  0  0
  -29.4650  -24.2100   20.0300 C   0  0  0  0  0  0  0  0  0  0  0  0
  -29.9120  -24.5070   18.9150 O   0  0  0  0  0  0  0  0  0  0  0  0
  -28.7620  -25.2750   20.9240 C   0  0  0  0  0  2  0  0  0  0  0  0
  -28.8900  -26.6460   20.4360 O   0  0  0  0  0  0  0  0  0  0  0  0
  -24.7350  -31.7600   23.2470 C   0  0  0  0  0  0  0  0  0  0  0  0
  -27.7110  -27.3710   20.3670 C   0  0  0  0  0  0  0  0  0  0  0  0
  -23.6730  -30.2930   21.5630 C   0  0  0  0  0  3  0  0  0  0  0  0
  -25.2620  -28.8030   20.2280 C   0  0  0  0  0  0  0  0  0  0  0  0
  -26.1920  -30.7500   21.4870 C   0  0  0  0  0  2  0  0  0  0  0  0
  -26.3700  -29.3750   20.8670 C   0  0  0  0  0  0  0  0  0  0  0  0
  -27.6000  -28.6720   20.9250 C   0  0  0  0  0  3  0  0  0  0  0  0
  -26.5870  -26.8230   19.7140 C   0  0  0  0  0  3  0  0  0  0  0  0
  -25.3690  -27.5280   19.6420 C   0  0  0  0  0  3  0  0  0  0  0  0
  -23.9820  -29.6090   20.2040 C   0  0  0  0  0  2  0  0  0  0  0  0
  -24.8820  -30.9510   22.1580 N   0  0  0  0  0  0  0  0  0  0  0  0
  -23.6160  -31.9900   23.7280 O   0  0  0  0  0  0  0  0  0  0  0  0
  -23.0160  -29.2550   22.5030 C   0  0  0  0  0  0  0  0  0  0  0  0
  -21.7100  -29.0120   22.3090 N   0  0  0  0  0  0  0  0  0  0  0  0
  -23.6820  -28.6700   23.3610 O   0  0  0  0  0  0  0  0  0  0  0  0
  -21.2320  -29.5380   21.5890 H   0  0  0  0  0  0  0  0  0  0  0  0
  -18.3680  -27.6760   22.6540 C   0  0  0  0  0  0  0  0  0  0  0  0
  -20.8960  -28.0450   23.0460 C   0  0  0  0  0  3  0  0  0  0  0  0
  -21.0870  -26.6160   22.4880 C   0  0  0  0  0  2  0  0  0  0  0  0
  -20.0500  -26.2410   21.4250 C   0  0  0  0  0  2  0  0  0  0  0  0
  -18.6330  -26.3310   21.9990 C   0  0  0  0  0  2  0  0  0  0  0  0
  -19.4300  -28.4880   23.1310 C   0  0  0  0  0  0  0  0  0  0  0  0
  -19.1290  -29.7450   23.6990 C   0  0  0  0  0  3  0  0  0  0  0  0
  -17.7980  -30.1920   23.7970 C   0  0  0  0  0  3  0  0  0  0  0  0
  -16.7490  -29.3770   23.3360 C   0  0  0  0  0  3  0  0  0  0  0  0
  -17.0340  -28.1220   22.7700 C   0  0  0  0  0  3  0  0  0  0  0  0
  -25.9590  -32.4510   23.9230 C   0  0  0  0  0  3  0  0  0  0  0  0
  -26.4350  -31.7230   25.2410 C   0  0  1  0  0  0  0  0  0  0  0  0
  -25.2910  -31.4440   26.2450 C   0  0  0  0  0  1  0  0  0  0  0  0
  -27.1080  -30.3720   24.9040 C   0  0  0  0  0  1  0  0  0  0  0  0
  -27.5030  -32.5820   25.9570 C   0  0  0  0  0  1  0  0  0  0  0  0
  -25.5810  -33.8430   24.2080 N   0  0  0  0  0  0  0  0  0  0  0  0
  -25.9060  -34.8900   23.4390 C   0  0  0  0  0  0  0  0  0  0  0  0
  -26.6260  -34.7910   22.4420 O   0  0  0  0  0  0  0  0  0  0  0  0
  -24.9460  -33.9900   24.9770 H   0  0  0  0  0  0  0  0  0  0  0  0
  -24.1210  -36.5990   22.9730 C   0  0  0  0  0  1  0  0  0  0  0  0
  -25.3450  -36.2670   23.8420 C   0  0  0  0  0  3  0  0  0  0  0  0
  -27.4030  -37.2650   24.7340 C   0  0  0  0  0  1  0  0  0  0  0  0
  -26.3370  -37.3600   23.7410 N   0  0  0  0  0  0  0  0  0  0  0  0
  -25.8870  -38.2660   23.8440 H   0  0  0  0  0  0  0  0  0  0  0  0
  1  4  1  0
  2  1  2  0
  3  5  1  0
  3  4  2  0
  5 53  1  0
  6  2  1  0
  6  3  1  0
  7  5  1  0
  8 21  1  0
  9 14  1  0
 10 11  1  0
 10  9  1  0
 12 11  1  0
 12 25  1  0
 12 13  1  0
 14  8  1  0
 14 13  1  0
 15  8  2  0
 17 16  1  0
 18 16  1  0
 19 17  1  0
 20  1  1  0
 20 18  1  0
 21 20  1  0
 21 19  1  0
 22 23  2  0
 23 42  1  0
 24 27  1  0
 24 23  1  0
 25 26  1  0
 25 22  1  0
 26 24  2  0
 27 28  1  0
 28 29  2  0
 30 33  1  0
 30 29  1  0
 31 30  2  0
 32 31  1  0
 32 27  2  0
 33 34  1  0
 34 39  2  0
 34 35  1  0
 35 36  2  0
 36 37  1  0
 37 41  1  0
 38 37  2  0
 39 38  1  0
 40 39  1  0
 42 43  1  0
 43 45  1  0
 43 46  1  0
 44 42  2  0
 47 22  1  0
 47 48  1  0
 49 47  1  0
 50 51  1  0
 50  2  1  0
 52 50  1  0
 54 53  1  0
 54 56  1  0
 55 54  2  0
 57 56  1  0
 58 69  2  0
 59 57  1  0
 59 64  1  0
 60 68  1  0
 60 70  1  0
 61 63  1  0
 62 68  1  0
 63 64  2  0
 63 62  1  0
 65 59  2  0
 66 65  1  0
 66 61  2  0
 67 61  1  0
 67 60  1  0
 68 58  1  0
 70 72  2  0
 71 70  1  0
 73 71  1  0
 74 83  2  0
 74 79  1  0
 75 71  1  0
 75 79  1  0
 76 75  1  0
 77 78  1  0
 77 76  1  0
 78 74  1  0
 79 80  2  0
 80 81  1  0
 82 81  2  0
 83 82  1  0
 84 58  1  0
 84 89  1  0
 84 85  1  0
 85 88  1  1
 85 86  1  0
 87 85  1  0
 89 92  1  0
 90 94  1  0
 90 89  1  0
 91 90  2  0
 94 93  1  0
 96 94  1  0
 96 97  1  0
 96 95  1  0
M  ISO  4   8 100  21 100  56 101  57 101
M  END
>  <TORSDO>  (41) 
F 20

>  <SCORE>  (41) 
-10.499

>  <name>  (41) 
40

>  <ligand_id>  (41) 
40

>  <original_smiles>  (41) 
[H]c1c([H])c([H])c2c(c1[H])C([H])([H])C([H])([H])C([H])([H])C2([H])N([H])C(=O)C1([H])N(C(=O)C([H])(N([H])C(=O)C([H])(N([H])C([H])([H])[H])C([H])([H])[H])C(C([H])([H])[H])(C([H])([H])[H])C([H])([H])[H])C([H])([H])c2c([H])c(OC([H])([H])C(=O)C([H])([H])N([H])c3nc(C4([H])N(C(=O)N5C([H])([H])C([H])([H])C([H])([H])C([H])(n6nc(-c7c([H])c([H])c(Oc8c([H])c([H])c(F)c([H])c8F)c([H])c7[H])c(C(=O)N([H])[H])c6N([H])[H])C5([H])[H])C([H])([H])C([H])([H])C([H])([H])C4([H])[H])c(N([H])[H])s3)c([H])c([H])c2C1([H])[H]

>  <smiles>  (41) 
[H]c1c([H])c([H])c2c(c1[H])C([H])([H])C([H])([H])C([H])([H])C2([H])N([H])C(=O)C1([H])N(C(=O)C([H])(N([H])C(=O)C([H])(N([H])C([H])([H])[H])C([H])([H])[H])C(C([H])([H])[H])(C([H])([H])[H])C([H])([H])[H])C([H])([H])c2c([H])c(OC([H])([H])C(=O)C([H])([H])N([H])c3nc(C4([H])N(C(=O)N5C([H])([H])C([H])([H])C([H])([H])C([H])(n6nc(-c7c([H])c([H])c(Oc8c([H])c([H])c(F)c([H])c8F)c([H])c7[H])c(C(=O)N([H])[H])c6N([H])[H])C5([H])[H])C([H])([H])C([H])([H])C([H])([H])C4([H])[H])c(N([H])[H])s3)c([H])c([H])c2C1([H])[H]

$$$$
41:0:0
     RDKit          3D

 95104  0  0  1  0  0  0  0  0999 V2000
  -29.3050  -21.2000   19.5170 C   0  0  0  0  0  3  0  0  0  0  0  0
  -31.4880  -24.0010   20.3060 C   0  0  0  0  0  2  0  0  0  0  0  0
  -30.6390  -24.4650   19.1120 C   0  0  0  0  0  2  0  0  0  0  0  0
  -30.8380  -22.6950   20.7960 C   0  0  0  0  0  2  0  0  0  0  0  0
  -29.2450  -23.8910   19.3920 C   0  0  0  0  0  3  0  0  0  0  0  0
  -29.6510  -22.4980   19.9550 N   0  0  0  0  0  0  0  0  0  0  0  0
  -28.3420  -21.1400   18.5870 N   0  0  0  0  0  0  0  0  0  0  0  0
  -28.0460  -20.2400   18.2390 H   0  0  0  0  0  0  0  0  0  0  0  0
  -27.8740  -21.9580   18.2330 H   0  0  0  0  0  0  0  0  0  0  0  0
  -29.9760  -18.5810   19.2330 C   0  0  0  0  0  3  0  0  0  0  0  0
  -30.5240  -18.1450   21.3490 C   0  0  0  0  0  3  0  0  0  0  0  0
  -30.3900  -17.5160   20.1420 C   0  0  0  0  0  0  0  0  0  0  0  0
  -29.8520  -19.8200   19.9000 C   0  0  0  0  0  0  0  0  0  0  0  0
  -30.0820  -20.3760   22.3790 C   0  0  0  0  0  1  0  0  0  0  0  0
  -30.1760  -19.4980   21.2270 N   0  0  0  0  0  0  0  0  0  0  0  0
  -31.1670  -14.9490   19.8510 C   0  0  0  0  0  0  0  0  0  0  0  0
  -30.9700  -12.6000   18.9820 C   0  0  0  0  0  2  0  0  0  0  0  0
  -29.9900  -12.5990   17.7850 C   0  0  0  0  0  2  0  0  0  0  0  0
  -28.5280  -12.4770   18.2620 C   0  0  0  0  0  2  0  0  0  0  0  0
  -28.2010  -13.4460   19.4300 C   0  0  0  0  0  3  0  0  0  0  0  0
  -29.2870  -13.3850   20.5270 C   0  0  0  0  0  2  0  0  0  0  0  0
  -30.5730  -13.7030   19.8850 N   0  0  0  0  0  0  0  0  0  0  0  0
  -32.3380  -15.0660   19.4750 O   0  0  0  0  0  0  0  0  0  0  0  0
  -30.3090  -16.0290   20.0460 N   0  0  0  0  0  0  0  0  0  0  0  0
  -29.4100  -15.6770   20.3380 H   0  0  0  0  0  0  0  0  0  0  0  0
  -25.8830  -14.1590   20.2690 C   0  0  0  0  0  0  0  0  0  0  0  0
  -24.7890  -13.4400   20.6630 C   0  0  0  0  0  0  0  0  0  0  0  0
  -25.1680  -12.0650   20.5790 C   0  0  0  0  0  0  0  0  0  0  0  0
  -26.8630  -13.2260   19.9670 N   0  0  0  0  0  0  0  0  0  0  0  0
  -26.4410  -11.9590   20.2150 N   0  0  0  0  0  0  0  0  0  0  0  0
  -24.3760  -10.8440   20.7670 C   0  0  0  0  0  0  0  0  0  0  0  0
  -24.7590   -9.8500   21.6950 C   0  0  0  0  0  3  0  0  0  0  0  0
  -23.9710   -8.6930   21.8710 C   0  0  0  0  0  3  0  0  0  0  0  0
  -22.7850   -8.5210   21.1170 C   0  0  0  0  0  0  0  0  0  0  0  0
  -22.4210   -9.5010   20.1780 C   0  0  0  0  0  3  0  0  0  0  0  0
  -23.2100  -10.6500   20.0010 C   0  0  0  0  0  3  0  0  0  0  0  0
  -21.9710   -7.4170   21.2030 O   0  0  0  0  0  0  0  0  0  0  0  0
  -21.8400   -6.7080   22.3700 C   0  0  0  0  0  0  0  0  0  0  0  0
  -21.3700   -7.3090   23.5580 C   0  0  0  0  0  3  0  0  0  0  0  0
  -21.1850   -6.5280   24.7170 C   0  0  0  0  0  3  0  0  0  0  0  0
  -21.4580   -5.1470   24.6870 C   0  0  0  0  0  0  0  0  0  0  0  0
  -21.9200   -4.5460   23.5030 C   0  0  0  0  0  3  0  0  0  0  0  0
  -22.1080   -5.3240   22.3470 C   0  0  0  0  0  0  0  0  0  0  0  0
  -22.5330   -4.7370   21.2030 F   0  0  0  0  0  0  0  0  0  0  0  0
  -21.2730   -4.3950   25.7970 F   0  0  0  0  0  0  0  0  0  0  0  0
  -23.4340  -13.9900   21.0040 C   0  0  0  0  0  0  0  0  0  0  0  0
  -22.7060  -13.3220   21.8910 N   0  0  0  0  0  0  0  0  0  0  0  0
  -23.0340  -15.0490   20.5200 O   0  0  0  0  0  0  0  0  0  0  0  0
  -23.0430  -12.4640   22.3030 H   0  0  0  0  0  0  0  0  0  0  0  0
  -21.7980  -13.6710   22.1610 H   0  0  0  0  0  0  0  0  0  0  0  0
  -26.1200  -15.5230   20.1180 N   0  0  0  0  0  0  0  0  0  0  0  0
  -25.3900  -16.2100   20.2720 H   0  0  0  0  0  0  0  0  0  0  0  0
  -26.9660  -15.9270   19.7380 H   0  0  0  0  0  0  0  0  0  0  0  0
  -28.4220  -24.9850   20.2870 C   0  0  0  0  0  2  0  0  0  0  0  0
  -28.5610  -26.4830   20.0620 O   0  0  0  0  0  0  0  0  0  0  0  0
  -24.6520  -31.7760   23.2160 C   0  0  0  0  0  0  0  0  0  0  0  0
  -27.4260  -27.3350   20.0640 C   0  0  0  0  0  0  0  0  0  0  0  0
  -23.5110  -30.3950   21.5190 C   0  0  0  0  0  3  0  0  0  0  0  0
  -25.0230  -28.9220   20.0660 C   0  0  0  0  0  0  0  0  0  0  0  0
  -26.0470  -30.7770   21.3800 C   0  0  0  0  0  2  0  0  0  0  0  0
  -26.1750  -29.4160   20.6940 C   0  0  0  0  0  0  0  0  0  0  0  0
  -27.3790  -28.6370   20.6760 C   0  0  0  0  0  3  0  0  0  0  0  0
  -26.2500  -26.9150   19.4070 C   0  0  0  0  0  3  0  0  0  0  0  0
  -25.0660  -27.6810   19.4120 C   0  0  0  0  0  3  0  0  0  0  0  0
  -23.7640  -29.7660   20.1230 C   0  0  0  0  0  2  0  0  0  0  0  0
  -24.7540  -31.0000   22.0960 N   0  0  0  0  0  0  0  0  0  0  0  0
  -23.5540  -32.0050   23.7440 O   0  0  0  0  0  0  0  0  0  0  0  0
  -22.8630  -29.3330   22.4410 C   0  0  0  0  0  0  0  0  0  0  0  0
  -21.5510  -29.0930   22.2660 N   0  0  0  0  0  0  0  0  0  0  0  0
  -23.5410  -28.7270   23.2740 O   0  0  0  0  0  0  0  0  0  0  0  0
  -21.0580  -29.6380   21.5720 H   0  0  0  0  0  0  0  0  0  0  0  0
  -18.2320  -27.6880   22.6000 C   0  0  0  0  0  0  0  0  0  0  0  0
  -20.7550  -28.1030   22.9940 C   0  0  0  0  0  3  0  0  0  0  0  0
  -20.9720  -26.6830   22.4210 C   0  0  0  0  0  2  0  0  0  0  0  0
  -19.9430  -26.3000   21.3530 C   0  0  0  0  0  2  0  0  0  0  0  0
  -18.5250  -26.3560   21.9290 C   0  0  0  0  0  2  0  0  0  0  0  0
  -19.2800  -28.5150   23.0860 C   0  0  0  0  0  0  0  0  0  0  0  0
  -18.9550  -29.7570   23.6720 C   0  0  0  0  0  3  0  0  0  0  0  0
  -17.6150  -30.1760   23.7760 C   0  0  0  0  0  3  0  0  0  0  0  0
  -16.5810  -29.3470   23.3080 C   0  0  0  0  0  3  0  0  0  0  0  0
  -16.8910  -28.1050   22.7250 C   0  0  0  0  0  3  0  0  0  0  0  0
  -25.9060  -32.4280   23.8740 C   0  0  0  0  0  3  0  0  0  0  0  0
  -25.5690  -33.8250   24.1910 N   0  0  0  0  0  0  0  0  0  0  0  0
  -25.9020  -34.8790   23.4360 C   0  0  0  0  0  0  0  0  0  0  0  0
  -26.5940  -34.7830   22.4190 O   0  0  0  0  0  0  0  0  0  0  0  0
  -24.9560  -33.9730   24.9790 H   0  0  0  0  0  0  0  0  0  0  0  0
  -24.1490  -36.6430   23.0520 C   0  0  0  0  0  1  0  0  0  0  0  0
  -25.3870  -36.2630   23.8800 C   0  0  0  0  0  3  0  0  0  0  0  0
  -27.4940  -37.1910   24.7340 C   0  0  0  0  0  1  0  0  0  0  0  0
  -26.4040  -37.3320   23.7720 N   0  0  0  0  0  0  0  0  0  0  0  0
  -25.9800  -38.2470   23.9050 H   0  0  0  0  0  0  0  0  0  0  0  0
  -26.3920  -31.6710   25.1710 C   0  0  1  0  0  0  0  0  0  0  0  0
  -25.2680  -31.4200   26.2030 C   0  0  0  0  0  1  0  0  0  0  0  0
  -27.0100  -30.3010   24.8050 C   0  0  0  0  0  1  0  0  0  0  0  0
  -27.5070  -32.4850   25.8660 C   0  0  0  0  0  1  0  0  0  0  0  0
  1  7  1  0
  1 13  1  0
  1  6  1  0
  2  4  1  0
  3  5  1  0
  3  2  1  0
  5  6  1  0
  5 54  1  0
  6  4  1  0
  8  7  1  0
  9  7  1  0
 10 13  2  0
 10 12  1  0
 12 11  2  0
 13 15  1  0
 15 11  1  0
 15 14  1  0
 16 22  1  0
 16 24  1  0
 17 22  1  0
 18 19  1  0
 18 17  1  0
 20 19  1  0
 20 29  1  0
 20 21  1  0
 22 21  1  0
 23 16  2  0
 24 12  1  0
 24 25  1  0
 26 27  2  0
 27 46  1  0
 28 27  1  0
 28 31  1  0
 29 30  1  0
 29 26  1  0
 30 28  2  0
 31 32  1  0
 32 33  2  0
 34 37  1  0
 34 33  1  0
 35 34  2  0
 36 35  1  0
 36 31  2  0
 37 38  1  0
 38 39  1  0
 39 40  2  0
 41 40  1  0
 41 45  1  0
 42 41  2  0
 43 38  2  0
 43 42  1  0
 44 43  1  0
 46 47  1  0
 47 50  1  0
 47 49  1  0
 48 46  2  0
 51 26  1  0
 51 52  1  0
 53 51  1  0
 55 57  1  0
 55 54  1  0
 56 67  2  0
 57 62  1  0
 58 66  1  0
 58 68  1  0
 59 65  1  0
 59 61  1  0
 60 66  1  0
 61 60  1  0
 62 61  2  0
 63 64  1  0
 63 57  2  0
 64 59  2  0
 65 58  1  0
 66 56  1  0
 68 70  2  0
 69 68  1  0
 71 69  1  0
 72 81  2  0
 72 77  1  0
 73 69  1  0
 73 77  1  0
 74 73  1  0
 75 76  1  0
 75 74  1  0
 76 72  1  0
 77 78  2  0
 78 79  1  0
 80 79  2  0
 81 80  1  0
 82 56  1  0
 82 83  1  0
 82 92  1  0
 83 86  1  0
 84 88  1  0
 84 83  1  0
 85 84  2  0
 88 87  1  0
 90 88  1  0
 90 91  1  0
 90 89  1  0
 92 95  1  1
 92 93  1  0
 94 92  1  0
M  ISO  4  16 100  24 100  54 101  55 101
M  END
>  <TORSDO>  (42) 
F 18

>  <SCORE>  (42) 
-13.760

>  <name>  (42) 
41

>  <ligand_id>  (42) 
41

>  <original_smiles>  (42) 
[H]c1c([H])c([H])c2c(c1[H])C([H])([H])C([H])([H])C([H])([H])C2([H])N([H])C(=O)C1([H])N(C(=O)C([H])(N([H])C(=O)C([H])(N([H])C([H])([H])[H])C([H])([H])[H])C(C([H])([H])[H])(C([H])([H])[H])C([H])([H])[H])C([H])([H])c2c([H])c(OC([H])([H])C3([H])N(C(c4c([H])c(N([H])C(=O)N5C([H])([H])C([H])([H])C([H])([H])C([H])(n6nc(-c7c([H])c([H])c(Oc8c([H])c([H])c(F)c([H])c8F)c([H])c7[H])c(C(=O)N([H])[H])c6N([H])[H])C5([H])[H])c([H])n4C([H])([H])[H])=[N+]([H])[H])C([H])([H])C([H])([H])C3([H])[H])c([H])c([H])c2C1([H])[H]

>  <smiles>  (42) 
[H]c1c([H])c([H])c2c(c1[H])C([H])([H])C([H])([H])C([H])([H])C2([H])N([H])C(=O)C1([H])N(C(=O)C([H])(N([H])C(=O)C([H])(N([H])C([H])([H])[H])C([H])([H])[H])C(C([H])([H])[H])(C([H])([H])[H])C([H])([H])[H])C([H])([H])c2c([H])c(OC([H])([H])C3([H])N(C(c4c([H])c(N([H])C(=O)N5C([H])([H])C([H])([H])C([H])([H])C([H])(n6nc(-c7c([H])c([H])c(Oc8c([H])c([H])c(F)c([H])c8F)c([H])c7[H])c(C(=O)N([H])[H])c6N([H])[H])C5([H])[H])c([H])n4C([H])([H])[H])=[N+]([H])[H])C([H])([H])C([H])([H])C3([H])[H])c([H])c([H])c2C1([H])[H]

$$$$
42:0:0
     RDKit          3D

 96105  0  0  1  0  0  0  0  0999 V2000
  -29.1100  -23.0310   19.8560 C   0  0  0  0  0  0  0  0  0  0  0  0
  -30.7050  -21.1280   22.6500 C   0  0  0  0  0  2  0  0  0  0  0  0
  -31.5540  -20.9070   21.4120 C   0  0  0  0  0  2  0  0  0  0  0  0
  -29.6630  -22.1360   22.1660 C   0  0  0  0  0  2  0  0  0  0  0  0
  -30.5190  -20.9330   20.2850 C   0  0  0  0  0  3  0  0  0  0  0  0
  -29.5750  -22.0330   20.6980 N   0  0  0  0  0  0  0  0  0  0  0  0
  -29.1990  -22.8790   18.6330 O   0  0  0  0  0  0  0  0  0  0  0  0
  -30.2080  -18.3030   20.6980 C   0  0  0  0  0  3  0  0  0  0  0  0
  -29.2930  -19.3470   18.7180 C   0  0  0  0  0  3  0  0  0  0  0  0
  -29.1450  -17.0400   18.9400 C   0  0  0  0  0  3  0  0  0  0  0  0
  -29.9660  -19.5040   19.9430 C   0  0  0  0  0  0  0  0  0  0  0  0
  -29.7880  -17.0330   20.1940 C   0  0  0  0  0  0  0  0  0  0  0  0
  -28.8950  -18.1550   18.2240 N   0  0  0  0  0  0  0  0  0  0  0  0
  -30.6400  -14.7050   20.5520 C   0  0  0  0  0  0  0  0  0  0  0  0
  -30.4560  -12.4660   19.5160 C   0  0  0  0  0  2  0  0  0  0  0  0
  -29.5400  -12.5830   18.2800 C   0  0  0  0  0  2  0  0  0  0  0  0
  -28.0580  -12.4070   18.6740 C   0  0  0  0  0  2  0  0  0  0  0  0
  -27.6620  -13.2710   19.9010 C   0  0  0  0  0  3  0  0  0  0  0  0
  -28.6980  -13.1460   21.0390 C   0  0  0  0  0  2  0  0  0  0  0  0
  -30.0200  -13.4850   20.4890 N   0  0  0  0  0  0  0  0  0  0  0  0
  -31.7980  -14.8710   20.1630 O   0  0  0  0  0  0  0  0  0  0  0  0
  -29.8740  -15.7730   20.9140 N   0  0  0  0  0  0  0  0  0  0  0  0
  -28.9950  -15.4800   21.3200 H   0  0  0  0  0  0  0  0  0  0  0  0
  -25.2440  -13.8340   20.5650 C   0  0  0  0  0  0  0  0  0  0  0  0
  -24.1820  -13.0460   20.9160 C   0  0  0  0  0  0  0  0  0  0  0  0
  -24.6660  -11.7030   20.8980 C   0  0  0  0  0  0  0  0  0  0  0  0
  -26.3070  -12.9690   20.3560 N   0  0  0  0  0  0  0  0  0  0  0  0
  -25.9650  -11.6830   20.6200 N   0  0  0  0  0  0  0  0  0  0  0  0
  -23.9570  -10.4290   21.0730 C   0  0  0  0  0  0  0  0  0  0  0  0
  -24.3740   -9.4770   22.0300 C   0  0  0  0  0  3  0  0  0  0  0  0
  -23.6650   -8.2680   22.1970 C   0  0  0  0  0  3  0  0  0  0  0  0
  -22.5230   -8.0030   21.4040 C   0  0  0  0  0  0  0  0  0  0  0  0
  -22.1250   -8.9430   20.4370 C   0  0  0  0  0  3  0  0  0  0  0  0
  -22.8350  -10.1430   20.2680 C   0  0  0  0  0  3  0  0  0  0  0  0
  -21.7870   -6.8450   21.4770 O   0  0  0  0  0  0  0  0  0  0  0  0
  -21.6980   -6.1190   22.6380 C   0  0  0  0  0  0  0  0  0  0  0  0
  -21.1600   -6.6720   23.8220 C   0  0  0  0  0  3  0  0  0  0  0  0
  -21.0250   -5.8700   24.9730 C   0  0  0  0  0  3  0  0  0  0  0  0
  -21.4130   -4.5180   24.9390 C   0  0  0  0  0  0  0  0  0  0  0  0
  -21.9400   -3.9650   23.7590 C   0  0  0  0  0  3  0  0  0  0  0  0
  -22.0820   -4.7630   22.6110 C   0  0  0  0  0  0  0  0  0  0  0  0
  -22.5690   -4.2180   21.4700 F   0  0  0  0  0  0  0  0  0  0  0  0
  -21.2770   -3.7450   26.0420 F   0  0  0  0  0  0  0  0  0  0  0  0
  -22.7710  -13.5020   21.1540 C   0  0  0  0  0  0  0  0  0  0  0  0
  -22.0310  -12.7900   21.9950 N   0  0  0  0  0  0  0  0  0  0  0  0
  -22.3320  -14.5250   20.6290 O   0  0  0  0  0  0  0  0  0  0  0  0
  -22.4020  -11.9650   22.4420 H   0  0  0  0  0  0  0  0  0  0  0  0
  -21.0830  -13.0730   22.1970 H   0  0  0  0  0  0  0  0  0  0  0  0
  -25.3960  -15.2040   20.3870 N   0  0  0  0  0  0  0  0  0  0  0  0
  -24.6230  -15.8540   20.4810 H   0  0  0  0  0  0  0  0  0  0  0  0
  -26.2450  -15.6460   20.0590 H   0  0  0  0  0  0  0  0  0  0  0  0
  -28.6430  -25.4780   19.7260 C   0  0  0  0  0  3  0  0  0  0  0  0
  -28.6000  -24.3170   20.4390 C   0  0  0  0  0  0  0  0  0  0  0  0
  -28.0980  -24.3910   21.6810 O   0  0  0  0  0  0  0  0  0  0  0  0
  -27.8720  -25.3010   21.8220 H   0  0  0  0  0  0  0  0  0  0  0  0
  -28.4230  -26.7410   20.2730 O   0  0  0  0  0  0  0  0  0  0  0  0
  -24.5670  -31.9250   23.2750 C   0  0  0  0  0  0  0  0  0  0  0  0
  -27.2380  -27.4620   20.1920 C   0  0  0  0  0  0  0  0  0  0  0  0
  -23.3700  -30.5220   21.6220 C   0  0  0  0  0  3  0  0  0  0  0  0
  -24.8320  -28.9800   20.1970 C   0  0  0  0  0  0  0  0  0  0  0  0
  -25.8970  -30.8760   21.4390 C   0  0  0  0  0  2  0  0  0  0  0  0
  -25.9850  -29.5040   20.7920 C   0  0  0  0  0  0  0  0  0  0  0  0
  -27.1840  -28.7500   20.7820 C   0  0  0  0  0  3  0  0  0  0  0  0
  -26.0650  -26.9540   19.5930 C   0  0  0  0  0  3  0  0  0  0  0  0
  -24.8690  -27.7070   19.5920 C   0  0  0  0  0  3  0  0  0  0  0  0
  -23.5870  -29.8370   20.2440 C   0  0  0  0  0  2  0  0  0  0  0  0
  -24.6290  -31.1250   22.1700 N   0  0  0  0  0  0  0  0  0  0  0  0
  -23.4840  -32.1910   23.8150 O   0  0  0  0  0  0  0  0  0  0  0  0
  -22.7120  -29.5070   22.5860 C   0  0  0  0  0  0  0  0  0  0  0  0
  -21.3900  -29.3110   22.4460 N   0  0  0  0  0  0  0  0  0  0  0  0
  -23.3890  -28.8940   23.4150 O   0  0  0  0  0  0  0  0  0  0  0  0
  -20.9010  -29.8600   21.7530 H   0  0  0  0  0  0  0  0  0  0  0  0
  -18.0230  -28.0790   22.9200 C   0  0  0  0  0  0  0  0  0  0  0  0
  -20.5750  -28.3670   23.2110 C   0  0  0  0  0  3  0  0  0  0  0  0
  -20.6970  -26.9350   22.6430 C   0  0  0  0  0  2  0  0  0  0  0  0
  -19.6080  -26.5980   21.6200 C   0  0  0  0  0  2  0  0  0  0  0  0
  -18.2190  -26.7300   22.2500 C   0  0  0  0  0  2  0  0  0  0  0  0
  -19.1280  -28.8540   23.3580 C   0  0  0  0  0  0  0  0  0  0  0  0
  -18.8900  -30.1150   23.9470 C   0  0  0  0  0  3  0  0  0  0  0  0
  -17.5770  -30.6050   24.0990 C   0  0  0  0  0  3  0  0  0  0  0  0
  -16.4860  -29.8270   23.6750 C   0  0  0  0  0  3  0  0  0  0  0  0
  -16.7090  -28.5660   23.0920 C   0  0  0  0  0  3  0  0  0  0  0  0
  -25.8510  -32.5590   23.8990 C   0  0  0  0  0  3  0  0  0  0  0  0
  -26.3420  -31.8110   25.1990 C   0  0  1  0  0  0  0  0  0  0  0  0
  -25.2340  -31.6100   26.2600 C   0  0  0  0  0  1  0  0  0  0  0  0
  -26.9180  -30.4200   24.8470 C   0  0  0  0  0  1  0  0  0  0  0  0
  -27.4930  -32.6100   25.8560 C   0  0  0  0  0  1  0  0  0  0  0  0
  -25.5490  -33.9660   24.1960 N   0  0  0  0  0  0  0  0  0  0  0  0
  -25.9000  -35.0000   23.4190 C   0  0  0  0  0  0  0  0  0  0  0  0
  -26.5780  -34.8680   22.3970 O   0  0  0  0  0  0  0  0  0  0  0  0
  -24.9490  -34.1400   24.9880 H   0  0  0  0  0  0  0  0  0  0  0  0
  -24.2040  -36.8090   22.9990 C   0  0  0  0  0  1  0  0  0  0  0  0
  -25.4230  -36.4030   23.8430 C   0  0  0  0  0  3  0  0  0  0  0  0
  -27.5480  -37.2830   24.7050 C   0  0  0  0  0  1  0  0  0  0  0  0
  -26.4710  -37.4410   23.7300 N   0  0  0  0  0  0  0  0  0  0  0  0
  -26.0750  -38.3710   23.8430 H   0  0  0  0  0  0  0  0  0  0  0  0
  1 53  1  0
  1  6  1  0
  3  2  1  0
  4  2  1  0
  5 11  1  0
  5  6  1  0
  5  3  1  0
  6  4  1  0
  7  1  2  0
  9 11  1  0
 10 12  2  0
 11  8  2  0
 12  8  1  0
 12 22  1  0
 13  9  2  0
 13 10  1  0
 14 22  1  0
 15 20  1  0
 16 17  1  0
 16 15  1  0
 18 17  1  0
 18 27  1  0
 18 19  1  0
 20 14  1  0
 20 19  1  0
 21 14  2  0
 22 23  1  0
 24 25  2  0
 25 44  1  0
 26 25  1  0
 26 29  1  0
 27 24  1  0
 27 28  1  0
 28 26  2  0
 29 30  1  0
 30 31  2  0
 32 35  1  0
 32 31  1  0
 33 32  2  0
 34 33  1  0
 34 29  2  0
 35 36  1  0
 36 37  1  0
 37 38  2  0
 39 38  1  0
 39 43  1  0
 40 39  2  0
 41 36  2  0
 41 40  1  0
 42 41  1  0
 44 45  1  0
 45 48  1  0
 45 47  1  0
 46 44  2  0
 49 50  1  0
 49 24  1  0
 51 49  1  0
 52 56  1  0
 52 53  2  0
 53 54  1  0
 54 55  1  0
 57 68  2  0
 58 56  1  0
 58 63  1  0
 59 67  1  0
 59 69  1  0
 60 66  1  0
 60 62  1  0
 61 67  1  0
 62 61  1  0
 63 62  2  0
 64 58  2  0
 65 64  1  0
 65 60  2  0
 66 59  1  0
 67 57  1  0
 69 71  2  0
 70 69  1  0
 72 70  1  0
 73 82  2  0
 73 78  1  0
 74 70  1  0
 74 78  1  0
 75 74  1  0
 76 77  1  0
 76 75  1  0
 77 73  1  0
 78 79  2  0
 79 80  1  0
 81 80  2  0
 82 81  1  0
 83 57  1  0
 83 88  1  0
 83 84  1  0
 84 87  1  1
 84 85  1  0
 86 84  1  0
 88 91  1  0
 89 93  1  0
 89 88  1  0
 90 89  2  0
 93 92  1  0
 95 96  1  0
 95 93  1  0
 95 94  1  0
M  ISO  4  14 100  22 100  52 101  56 101
M  END
>  <TORSDO>  (43) 
F 19

>  <SCORE>  (43) 
-14.875

>  <name>  (43) 
42

>  <ligand_id>  (43) 
42

>  <original_smiles>  (43) 
[H]OC(C(=O)N1C([H])([H])C([H])([H])C([H])([H])C1([H])c1c([H])nc([H])c(N([H])C(=O)N2C([H])([H])C([H])([H])C([H])([H])C([H])(n3nc(-c4c([H])c([H])c(Oc5c([H])c([H])c(F)c([H])c5F)c([H])c4[H])c(C(=O)N([H])[H])c3N([H])[H])C2([H])[H])c1[H])=C([H])Oc1c([H])c([H])c2c(c1[H])C([H])([H])N(C(=O)C([H])(N([H])C(=O)C([H])(N([H])C([H])([H])[H])C([H])([H])[H])C(C([H])([H])[H])(C([H])([H])[H])C([H])([H])[H])C([H])(C(=O)N([H])C1([H])c3c([H])c([H])c([H])c([H])c3C([H])([H])C([H])([H])C1([H])[H])C2([H])[H]

>  <smiles>  (43) 
[H]OC(C(=O)N1C([H])([H])C([H])([H])C([H])([H])C1([H])c1c([H])nc([H])c(N([H])C(=O)N2C([H])([H])C([H])([H])C([H])([H])C([H])(n3nc(-c4c([H])c([H])c(Oc5c([H])c([H])c(F)c([H])c5F)c([H])c4[H])c(C(=O)N([H])[H])c3N([H])[H])C2([H])[H])c1[H])=C([H])Oc1c([H])c([H])c2c(c1[H])C([H])([H])N(C(=O)C([H])(N([H])C(=O)C([H])(N([H])C([H])([H])[H])C([H])([H])[H])C(C([H])([H])[H])(C([H])([H])[H])C([H])([H])[H])C([H])(C(=O)N([H])C1([H])c3c([H])c([H])c([H])c([H])c3C([H])([H])C([H])([H])C1([H])[H])C2([H])[H]

$$$$
43:0:0
     RDKit          3D

 95103  0  0  1  0  0  0  0  0999 V2000
  -29.1090  -21.3650   21.1690 C   0  0  0  0  0  0  0  0  0  0  0  0
  -28.8550  -21.0230   22.4430 N   0  0  0  0  0  4  0  0  0  0  0  0
  -28.8040  -22.7250   20.9700 N   0  0  0  0  0  0  0  0  0  0  0  0
  -28.5330  -21.6670   23.1490 H   0  0  0  0  0  0  0  0  0  0  0  0
  -29.0610  -20.0930   22.7770 H   0  0  0  0  0  0  0  0  0  0  0  0
  -28.3130  -23.0820   21.7730 H   0  0  0  0  0  0  0  0  0  0  0  0
  -29.5100  -18.7920   20.6560 C   0  0  0  0  0  3  0  0  0  0  0  0
  -30.5170  -20.4290   19.2180 C   0  0  0  0  0  3  0  0  0  0  0  0
  -30.9820  -18.1410   18.8820 C   0  0  0  0  0  3  0  0  0  0  0  0
  -29.6770  -20.2040   20.3220 C   0  0  0  0  0  0  0  0  0  0  0  0
  -30.1800  -17.7060   19.9630 C   0  0  0  0  0  0  0  0  0  0  0  0
  -31.1370  -19.4410   18.5200 N   0  0  0  0  0  0  0  0  0  0  0  0
  -30.7920  -15.1440   19.9320 C   0  0  0  0  0  0  0  0  0  0  0  0
  -30.5910  -12.8510   18.9490 C   0  0  0  0  0  2  0  0  0  0  0  0
  -29.5900  -12.9030   17.7720 C   0  0  0  0  0  2  0  0  0  0  0  0
  -28.1470  -12.7060   18.2770 C   0  0  0  0  0  2  0  0  0  0  0  0
  -27.8230  -13.5900   19.5120 C   0  0  0  0  0  3  0  0  0  0  0  0
  -28.9390  -13.5190   20.5780 C   0  0  0  0  0  2  0  0  0  0  0  0
  -30.1990  -13.8980   19.9240 N   0  0  0  0  0  0  0  0  0  0  0  0
  -31.9390  -15.2710   19.4980 O   0  0  0  0  0  0  0  0  0  0  0  0
  -30.0240  -16.2510   20.2840 N   0  0  0  0  0  0  0  0  0  0  0  0
  -29.1640  -16.0050   20.7520 H   0  0  0  0  0  0  0  0  0  0  0  0
  -25.4960  -14.1530   20.4300 C   0  0  0  0  0  0  0  0  0  0  0  0
  -24.4480  -13.3670   20.8220 C   0  0  0  0  0  0  0  0  0  0  0  0
  -24.8910  -12.0170   20.6780 C   0  0  0  0  0  0  0  0  0  0  0  0
  -26.5110  -13.2820   20.0710 N   0  0  0  0  0  0  0  0  0  0  0  0
  -26.1570  -11.9880   20.2810 N   0  0  0  0  0  0  0  0  0  0  0  0
  -24.1620  -10.7520   20.8390 C   0  0  0  0  0  0  0  0  0  0  0  0
  -24.5930   -9.7630   21.7510 C   0  0  0  0  0  3  0  0  0  0  0  0
  -23.8650   -8.5630   21.9020 C   0  0  0  0  0  3  0  0  0  0  0  0
  -22.6930   -8.3430   21.1400 C   0  0  0  0  0  0  0  0  0  0  0  0
  -22.2810   -9.3200   20.2170 C   0  0  0  0  0  3  0  0  0  0  0  0
  -23.0090  -10.5120   20.0640 C   0  0  0  0  0  3  0  0  0  0  0  0
  -21.9370   -7.1970   21.2010 O   0  0  0  0  0  0  0  0  0  0  0  0
  -21.8310   -6.4640   22.3570 C   0  0  0  0  0  0  0  0  0  0  0  0
  -21.2750   -7.0080   23.5350 C   0  0  0  0  0  3  0  0  0  0  0  0
  -21.1230   -6.1990   24.6790 C   0  0  0  0  0  3  0  0  0  0  0  0
  -21.5160   -4.8470   24.6450 C   0  0  0  0  0  0  0  0  0  0  0  0
  -22.0650   -4.3030   23.4700 C   0  0  0  0  0  3  0  0  0  0  0  0
  -22.2200   -5.1100   22.3280 C   0  0  0  0  0  0  0  0  0  0  0  0
  -22.7300   -4.5750   21.1930 F   0  0  0  0  0  0  0  0  0  0  0  0
  -21.3620   -4.0680   25.7400 F   0  0  0  0  0  0  0  0  0  0  0  0
  -23.0780  -13.8390   21.2160 C   0  0  0  0  0  0  0  0  0  0  0  0
  -22.4000  -13.0960   22.0840 N   0  0  0  0  0  0  0  0  0  0  0  0
  -22.6200  -14.8990   20.7910 O   0  0  0  0  0  0  0  0  0  0  0  0
  -22.7840  -12.2370   22.4480 H   0  0  0  0  0  0  0  0  0  0  0  0
  -21.4820  -13.3890   22.3880 H   0  0  0  0  0  0  0  0  0  0  0  0
  -25.6660  -15.5320   20.3260 N   0  0  0  0  0  0  0  0  0  0  0  0
  -24.9110  -16.1820   20.5170 H   0  0  0  0  0  0  0  0  0  0  0  0
  -26.4850  -15.9800   19.9350 H   0  0  0  0  0  0  0  0  0  0  0  0
  -28.8080  -23.9290   20.0090 C   0  0  0  0  0  2  0  0  0  0  0  0
  -27.0690  -25.1370   21.4750 C   0  0  0  0  0  1  0  0  0  0  0  0
  -29.4880  -25.6790   21.7720 C   0  0  0  0  0  1  0  0  0  0  0  0
  -28.4070  -25.3630   20.7220 C   0  0  1  0  0  0  0  0  0  0  0  0
  -28.3940  -26.6800   19.9520 O   0  0  0  0  0  0  0  0  0  0  0  0
  -24.6360  -31.9940   23.2520 C   0  0  0  0  0  0  0  0  0  0  0  0
  -27.2950  -27.5750   19.9890 C   0  0  0  0  0  0  0  0  0  0  0  0
  -23.4440  -30.6410   21.5670 C   0  0  0  0  0  3  0  0  0  0  0  0
  -24.9110  -29.1800   20.0570 C   0  0  0  0  0  0  0  0  0  0  0  0
  -25.9780  -31.0060   21.3760 C   0  0  0  0  0  2  0  0  0  0  0  0
  -26.0790  -29.6520   20.6720 C   0  0  0  0  0  0  0  0  0  0  0  0
  -27.2750  -28.8620   20.6300 C   0  0  0  0  0  3  0  0  0  0  0  0
  -26.1140  -27.1880   19.3230 C   0  0  0  0  0  3  0  0  0  0  0  0
  -24.9340  -27.9560   19.3710 C   0  0  0  0  0  3  0  0  0  0  0  0
  -23.6580  -30.0310   20.1570 C   0  0  0  0  0  2  0  0  0  0  0  0
  -24.7050  -31.2320   22.1200 N   0  0  0  0  0  0  0  0  0  0  0  0
  -23.5530  -32.2270   23.8090 O   0  0  0  0  0  0  0  0  0  0  0  0
  -22.8110  -29.5710   22.4900 C   0  0  0  0  0  0  0  0  0  0  0  0
  -21.4920  -29.3530   22.3530 N   0  0  0  0  0  0  0  0  0  0  0  0
  -23.5080  -28.9420   23.2910 O   0  0  0  0  0  0  0  0  0  0  0  0
  -20.9870  -29.9140   21.6820 H   0  0  0  0  0  0  0  0  0  0  0  0
  -18.1560  -28.0260   22.8110 C   0  0  0  0  0  0  0  0  0  0  0  0
  -20.7040  -28.3620   23.0910 C   0  0  0  0  0  3  0  0  0  0  0  0
  -20.8540  -26.9560   22.4650 C   0  0  0  0  0  2  0  0  0  0  0  0
  -19.7620  -26.6330   21.4390 C   0  0  0  0  0  2  0  0  0  0  0  0
  -18.3780  -26.7090   22.0870 C   0  0  0  0  0  2  0  0  0  0  0  0
  -19.2480  -28.8100   23.2690 C   0  0  0  0  0  0  0  0  0  0  0  0
  -18.9870  -30.0430   23.9060 C   0  0  0  0  0  3  0  0  0  0  0  0
  -17.6650  -30.4930   24.0890 C   0  0  0  0  0  3  0  0  0  0  0  0
  -16.5880  -29.7050   23.6470 C   0  0  0  0  0  3  0  0  0  0  0  0
  -16.8340  -28.4740   23.0140 C   0  0  0  0  0  3  0  0  0  0  0  0
  -25.9110  -32.6280   23.8880 C   0  0  0  0  0  3  0  0  0  0  0  0
  -26.4210  -31.8520   25.1640 C   0  0  1  0  0  0  0  0  0  0  0  0
  -25.3160  -31.5900   26.2130 C   0  0  0  0  0  1  0  0  0  0  0  0
  -27.0260  -30.4850   24.7690 C   0  0  0  0  0  1  0  0  0  0  0  0
  -27.5520  -32.6550   25.8480 C   0  0  0  0  0  1  0  0  0  0  0  0
  -25.5930  -34.0230   24.2250 N   0  0  0  0  0  0  0  0  0  0  0  0
  -25.9180  -35.0830   23.4710 C   0  0  0  0  0  0  0  0  0  0  0  0
  -26.5860  -34.9880   22.4370 O   0  0  0  0  0  0  0  0  0  0  0  0
  -25.0000  -34.1710   25.0280 H   0  0  0  0  0  0  0  0  0  0  0  0
  -24.1820  -36.8710   23.1320 C   0  0  0  0  0  1  0  0  0  0  0  0
  -25.4260  -36.4670   23.9390 C   0  0  0  0  0  3  0  0  0  0  0  0
  -27.5480  -37.3670   24.7870 C   0  0  0  0  0  1  0  0  0  0  0  0
  -26.4540  -37.5250   23.8310 N   0  0  0  0  0  0  0  0  0  0  0  0
  -26.0420  -38.4440   23.9690 H   0  0  0  0  0  0  0  0  0  0  0  0
  1  2  2  0
  2  5  1  0
  2  4  1  0
  3  1  1  0
  3  6  1  0
  8 10  2  0
  9 11  1  0
 10  7  1  0
 10  1  1  0
 11 21  1  0
 11  7  2  0
 12  9  2  0
 12  8  1  0
 13 21  1  0
 14 19  1  0
 15 16  1  0
 15 14  1  0
 17 16  1  0
 17 26  1  0
 17 18  1  0
 19 13  1  0
 19 18  1  0
 20 13  2  0
 21 22  1  0
 23 24  2  0
 24 43  1  0
 25 24  1  0
 25 28  1  0
 26 27  1  0
 26 23  1  0
 27 25  2  0
 28 29  1  0
 29 30  2  0
 31 34  1  0
 31 30  1  0
 32 31  2  0
 33 32  1  0
 33 28  2  0
 34 35  1  0
 35 36  1  0
 36 37  2  0
 38 37  1  0
 38 42  1  0
 39 38  2  0
 40 35  2  0
 40 39  1  0
 41 40  1  0
 43 44  1  0
 44 47  1  0
 44 46  1  0
 45 43  2  0
 48 23  1  0
 48 49  1  0
 50 48  1  0
 51 54  1  0
 51  3  1  0
 54 52  1  1
 54 53  1  0
 55 57  1  0
 55 54  1  0
 56 67  2  0
 57 62  1  0
 58 66  1  0
 58 68  1  0
 59 65  1  0
 59 61  1  0
 60 66  1  0
 61 60  1  0
 62 61  2  0
 63 64  1  0
 63 57  2  0
 64 59  2  0
 65 58  1  0
 66 56  1  0
 68 70  2  0
 69 68  1  0
 71 69  1  0
 72 81  2  0
 72 77  1  0
 73 69  1  0
 73 77  1  0
 74 73  1  0
 75 76  1  0
 75 74  1  0
 76 72  1  0
 77 78  2  0
 78 79  1  0
 80 79  2  0
 81 80  1  0
 82 56  1  0
 82 87  1  0
 82 83  1  0
 83 86  1  1
 83 84  1  0
 85 83  1  0
 87 90  1  0
 88 92  1  0
 88 87  1  0
 89 88  2  0
 92 91  1  0
 94 92  1  0
 94 95  1  0
 94 93  1  0
M  ISO  4  13 100  21 100  54 101  55 101
M  END
>  <TORSDO>  (44) 
F 19

>  <SCORE>  (44) 
-13.599

>  <name>  (44) 
43

>  <ligand_id>  (44) 
43

>  <original_smiles>  (44) 
[H]c1nc([H])c(N([H])C(=O)N2C([H])([H])C([H])([H])C([H])([H])C([H])(n3nc(-c4c([H])c([H])c(Oc5c([H])c([H])c(F)c([H])c5F)c([H])c4[H])c(C(=O)N([H])[H])c3N([H])[H])C2([H])[H])c([H])c1C(N([H])[H])=[N+]([H])C([H])([H])C(Oc1c([H])c([H])c2c(c1[H])C([H])([H])N(C(=O)C([H])(N([H])C(=O)C([H])(N([H])C([H])([H])[H])C([H])([H])[H])C(C([H])([H])[H])(C([H])([H])[H])C([H])([H])[H])C([H])(C(=O)N([H])C1([H])c3c([H])c([H])c([H])c([H])c3C([H])([H])C([H])([H])C1([H])[H])C2([H])[H])(C([H])([H])[H])C([H])([H])[H]

>  <smiles>  (44) 
[H]c1nc([H])c(N([H])C(=O)N2C([H])([H])C([H])([H])C([H])([H])C([H])(n3nc(-c4c([H])c([H])c(Oc5c([H])c([H])c(F)c([H])c5F)c([H])c4[H])c(C(=O)N([H])[H])c3N([H])[H])C2([H])[H])c([H])c1C(N([H])[H])=[N+]([H])C([H])([H])C(Oc1c([H])c([H])c2c(c1[H])C([H])([H])N(C(=O)C([H])(N([H])C(=O)C([H])(N([H])C([H])([H])[H])C([H])([H])[H])C(C([H])([H])[H])(C([H])([H])[H])C([H])([H])[H])C([H])(C(=O)N([H])C1([H])c3c([H])c([H])c([H])c([H])c3C([H])([H])C([H])([H])C1([H])[H])C2([H])[H])(C([H])([H])[H])C([H])([H])[H]

$$$$
44:0:0
     RDKit          3D

 95103  0  0  1  0  0  0  0  0999 V2000
  -29.0200  -21.1850   20.5020 C   0  0  0  0  0  0  0  0  0  0  0  0
  -30.9340  -22.5110   19.5930 C   0  0  0  0  0  1  0  0  0  0  0  0
  -29.6020  -22.4340   20.2040 N   0  0  0  0  0  0  0  0  0  0  0  0
  -27.8240  -21.1870   20.8100 O   0  0  0  0  0  0  0  0  0  0  0  0
  -29.1330  -18.4290   20.1780 C   0  0  0  0  0  3  0  0  0  0  0  0
  -29.6930  -19.7470   20.5040 C   0  0  0  0  0  0  0  0  0  0  0  0
  -30.0270  -17.3930   20.4730 C   0  0  0  0  0  0  0  0  0  0  0  0
  -30.9200  -19.3420   21.0150 C   0  0  0  0  0  0  0  0  0  0  0  0
  -31.1580  -17.9750   20.9660 O   0  0  0  0  0  0  0  0  0  0  0  0
  -30.5860  -14.8700   20.2770 C   0  0  0  0  0  0  0  0  0  0  0  0
  -30.3690  -12.6080   19.2160 C   0  0  0  0  0  2  0  0  0  0  0  0
  -29.3940  -12.6780   18.0180 C   0  0  0  0  0  2  0  0  0  0  0  0
  -27.9380  -12.4910   18.4830 C   0  0  0  0  0  2  0  0  0  0  0  0
  -27.5870  -13.3560   19.7230 C   0  0  0  0  0  3  0  0  0  0  0  0
  -28.6790  -13.2640   20.8120 C   0  0  0  0  0  2  0  0  0  0  0  0
  -29.9560  -13.6450   20.1910 N   0  0  0  0  0  0  0  0  0  0  0  0
  -31.7840  -14.9590   19.9820 O   0  0  0  0  0  0  0  0  0  0  0  0
  -29.7830  -16.0000   20.4210 N   0  0  0  0  0  0  0  0  0  0  0  0
  -28.8060  -15.7660   20.4690 H   0  0  0  0  0  0  0  0  0  0  0  0
  -25.2110  -13.9230   20.5110 C   0  0  0  0  0  0  0  0  0  0  0  0
  -24.1570  -13.1390   20.8950 C   0  0  0  0  0  0  0  0  0  0  0  0
  -24.6260  -11.7910   20.8350 C   0  0  0  0  0  0  0  0  0  0  0  0
  -26.2540  -13.0520   20.2410 N   0  0  0  0  0  0  0  0  0  0  0  0
  -25.9110  -11.7630   20.4990 N   0  0  0  0  0  0  0  0  0  0  0  0
  -23.9060  -10.5220   21.0210 C   0  0  0  0  0  0  0  0  0  0  0  0
  -24.3360   -9.5600   21.9610 C   0  0  0  0  0  3  0  0  0  0  0  0
  -23.6170   -8.3580   22.1360 C   0  0  0  0  0  3  0  0  0  0  0  0
  -22.4520   -8.1090   21.3710 C   0  0  0  0  0  0  0  0  0  0  0  0
  -22.0410   -9.0610   20.4210 C   0  0  0  0  0  3  0  0  0  0  0  0
  -22.7610  -10.2540   20.2440 C   0  0  0  0  0  3  0  0  0  0  0  0
  -21.7040   -6.9600   21.4550 O   0  0  0  0  0  0  0  0  0  0  0  0
  -21.6300   -6.2340   22.6170 C   0  0  0  0  0  0  0  0  0  0  0  0
  -21.1310   -6.7910   23.8150 C   0  0  0  0  0  3  0  0  0  0  0  0
  -21.0080   -5.9900   24.9680 C   0  0  0  0  0  3  0  0  0  0  0  0
  -21.3740   -4.6310   24.9230 C   0  0  0  0  0  0  0  0  0  0  0  0
  -21.8650   -4.0720   23.7280 C   0  0  0  0  0  3  0  0  0  0  0  0
  -21.9900   -4.8710   22.5790 C   0  0  0  0  0  0  0  0  0  0  0  0
  -22.4440   -4.3240   21.4270 F   0  0  0  0  0  0  0  0  0  0  0  0
  -21.2480   -3.8590   26.0270 F   0  0  0  0  0  0  0  0  0  0  0  0
  -22.7630  -13.6070   21.1950 C   0  0  0  0  0  0  0  0  0  0  0  0
  -22.0470  -12.8900   22.0550 N   0  0  0  0  0  0  0  0  0  0  0  0
  -22.3160  -14.6420   20.7040 O   0  0  0  0  0  0  0  0  0  0  0  0
  -22.4200  -12.0500   22.4730 H   0  0  0  0  0  0  0  0  0  0  0  0
  -21.1120  -13.1850   22.3010 H   0  0  0  0  0  0  0  0  0  0  0  0
  -25.3640  -15.2950   20.3430 N   0  0  0  0  0  0  0  0  0  0  0  0
  -24.5870  -15.9380   20.4610 H   0  0  0  0  0  0  0  0  0  0  0  0
  -26.1750  -15.7330   19.9270 H   0  0  0  0  0  0  0  0  0  0  0  0
  -31.8770  -20.1160   21.6580 N   0  0  0  0  0  0  0  0  0  0  0  0
  -31.8250  -21.1200   21.7710 H   0  0  0  0  0  0  0  0  0  0  0  0
  -32.7600  -19.7400   21.9900 H   0  0  0  0  0  0  0  0  0  0  0  0
  -29.0570  -23.8290   20.6490 C   0  0  0  0  0  2  0  0  0  0  0  0
  -30.0710  -25.5810   18.9840 C   0  0  0  0  0  1  0  0  0  0  0  0
  -27.8650  -24.6120   18.5180 C   0  0  0  0  0  1  0  0  0  0  0  0
  -28.7680  -25.1110   19.6580 C   0  0  1  0  0  0  0  0  0  0  0  0
  -28.4150  -26.4510   20.3010 O   0  0  0  0  0  0  0  0  0  0  0  0
  -24.6010  -31.9010   23.2490 C   0  0  0  0  0  0  0  0  0  0  0  0
  -27.2610  -27.2890   20.2030 C   0  0  0  0  0  0  0  0  0  0  0  0
  -23.4220  -30.4930   21.6060 C   0  0  0  0  0  3  0  0  0  0  0  0
  -24.8870  -28.9480   20.1900 C   0  0  0  0  0  0  0  0  0  0  0  0
  -25.9660  -30.8080   21.4440 C   0  0  0  0  0  2  0  0  0  0  0  0
  -26.0550  -29.4240   20.7910 C   0  0  0  0  0  0  0  0  0  0  0  0
  -27.2380  -28.6090   20.7850 C   0  0  0  0  0  3  0  0  0  0  0  0
  -26.0440  -26.8800   19.6080 C   0  0  0  0  0  3  0  0  0  0  0  0
  -24.8870  -27.6810   19.5930 C   0  0  0  0  0  3  0  0  0  0  0  0
  -23.6490  -29.8230   20.2270 C   0  0  0  0  0  2  0  0  0  0  0  0
  -24.6840  -31.0830   22.1580 N   0  0  0  0  0  0  0  0  0  0  0  0
  -23.5110  -32.1740   23.7740 O   0  0  0  0  0  0  0  0  0  0  0  0
  -22.7520  -29.4760   22.5600 C   0  0  0  0  0  0  0  0  0  0  0  0
  -21.4250  -29.3000   22.4300 N   0  0  0  0  0  0  0  0  0  0  0  0
  -23.4240  -28.8460   23.3830 O   0  0  0  0  0  0  0  0  0  0  0  0
  -20.9410  -29.8610   21.7430 H   0  0  0  0  0  0  0  0  0  0  0  0
  -18.0410  -28.1110   22.9300 C   0  0  0  0  0  0  0  0  0  0  0  0
  -20.6010  -28.3600   23.1940 C   0  0  0  0  0  3  0  0  0  0  0  0
  -20.6970  -26.9330   22.6090 C   0  0  0  0  0  2  0  0  0  0  0  0
  -19.5910  -26.6220   21.5940 C   0  0  0  0  0  2  0  0  0  0  0  0
  -18.2110  -26.7660   22.2430 C   0  0  0  0  0  2  0  0  0  0  0  0
  -19.1640  -28.8680   23.3620 C   0  0  0  0  0  0  0  0  0  0  0  0
  -18.9520  -30.1260   23.9660 C   0  0  0  0  0  3  0  0  0  0  0  0
  -17.6490  -30.6300   24.1390 C   0  0  0  0  0  3  0  0  0  0  0  0
  -16.5400  -29.8720   23.7210 C   0  0  0  0  0  3  0  0  0  0  0  0
  -16.7380  -28.6150   23.1230 C   0  0  0  0  0  3  0  0  0  0  0  0
  -25.8710  -32.5440   23.8860 C   0  0  0  0  0  3  0  0  0  0  0  0
  -26.3670  -31.7900   25.1810 C   0  0  1  0  0  0  0  0  0  0  0  0
  -25.2550  -31.5660   26.2310 C   0  0  0  0  0  1  0  0  0  0  0  0
  -26.9600  -30.4100   24.8160 C   0  0  0  0  0  1  0  0  0  0  0  0
  -27.5070  -32.5940   25.8470 C   0  0  0  0  0  1  0  0  0  0  0  0
  -25.5540  -33.9440   24.1960 N   0  0  0  0  0  0  0  0  0  0  0  0
  -25.8910  -34.9910   23.4310 C   0  0  0  0  0  0  0  0  0  0  0  0
  -26.5700  -34.8800   22.4060 O   0  0  0  0  0  0  0  0  0  0  0  0
  -24.9520  -34.1040   24.9890 H   0  0  0  0  0  0  0  0  0  0  0  0
  -24.1700  -36.7870   23.0390 C   0  0  0  0  0  1  0  0  0  0  0  0
  -25.3970  -36.3830   23.8740 C   0  0  0  0  0  3  0  0  0  0  0  0
  -27.5150  -37.2770   24.7390 C   0  0  0  0  0  1  0  0  0  0  0  0
  -26.4320  -37.4360   23.7710 N   0  0  0  0  0  0  0  0  0  0  0  0
  -26.0240  -38.3570   23.9020 H   0  0  0  0  0  0  0  0  0  0  0  0
  1  6  1  0
  1  4  2  0
  2  3  1  0
  3  1  1  0
  3 51  1  0
  5  7  2  0
  5  6  1  0
  6  8  2  0
  7  9  1  0
  8 48  1  0
  9  8  1  0
 10 18  1  0
 11 16  1  0
 12 13  1  0
 12 11  1  0
 14 13  1  0
 14 23  1  0
 14 15  1  0
 16 10  1  0
 16 15  1  0
 17 10  2  0
 18 19  1  0
 18  7  1  0
 20 21  2  0
 21 40  1  0
 22 21  1  0
 22 25  1  0
 23 24  1  0
 23 20  1  0
 24 22  2  0
 25 26  1  0
 26 27  2  0
 28 31  1  0
 28 27  1  0
 29 28  2  0
 30 29  1  0
 30 25  2  0
 31 32  1  0
 32 33  1  0
 33 34  2  0
 35 34  1  0
 35 39  1  0
 36 35  2  0
 37 32  2  0
 37 36  1  0
 38 37  1  0
 40 41  1  0
 41 44  1  0
 41 43  1  0
 42 40  2  0
 45 46  1  0
 45 20  1  0
 47 45  1  0
 48 49  1  0
 48 50  1  0
 54 52  1  6
 53 54  1  0
 54 55  1  0
 54 51  1  0
 56 67  2  0
 57 55  1  0
 57 62  1  0
 58 66  1  0
 58 68  1  0
 59 65  1  0
 59 61  1  0
 60 66  1  0
 61 60  1  0
 62 61  2  0
 63 57  2  0
 64 63  1  0
 64 59  2  0
 65 58  1  0
 66 56  1  0
 68 70  2  0
 69 68  1  0
 71 69  1  0
 72 81  2  0
 72 77  1  0
 73 69  1  0
 73 77  1  0
 74 73  1  0
 75 76  1  0
 75 74  1  0
 76 72  1  0
 77 78  2  0
 78 79  1  0
 80 79  2  0
 81 80  1  0
 82 56  1  0
 82 87  1  0
 82 83  1  0
 83 86  1  1
 83 84  1  0
 85 83  1  0
 87 90  1  0
 88 92  1  0
 88 87  1  0
 89 88  2  0
 92 91  1  0
 94 92  1  0
 94 95  1  0
 94 93  1  0
M  ISO  4  10 100  18 100  54 101  55 101
M  END
>  <TORSDO>  (45) 
F 20

>  <SCORE>  (45) 
-14.345

>  <name>  (45) 
44

>  <ligand_id>  (45) 
44

>  <original_smiles>  (45) 
[H]c1c([H])c([H])c2c(c1[H])C([H])([H])C([H])([H])C([H])([H])C2([H])N([H])C(=O)C1([H])N(C(=O)C([H])(N([H])C(=O)C([H])(N([H])C([H])([H])[H])C([H])([H])[H])C(C([H])([H])[H])(C([H])([H])[H])C([H])([H])[H])C([H])([H])c2c([H])c(OC(C([H])([H])[H])(C([H])([H])[H])C([H])([H])N(C(=O)c3c(N([H])[H])oc(N([H])C(=O)N4C([H])([H])C([H])([H])C([H])([H])C([H])(n5nc(-c6c([H])c([H])c(Oc7c([H])c([H])c(F)c([H])c7F)c([H])c6[H])c(C(=O)N([H])[H])c5N([H])[H])C4([H])[H])c3[H])C([H])([H])[H])c([H])c([H])c2C1([H])[H]

>  <smiles>  (45) 
[H]c1c([H])c([H])c2c(c1[H])C([H])([H])C([H])([H])C([H])([H])C2([H])N([H])C(=O)C1([H])N(C(=O)C([H])(N([H])C(=O)C([H])(N([H])C([H])([H])[H])C([H])([H])[H])C(C([H])([H])[H])(C([H])([H])[H])C([H])([H])[H])C([H])([H])c2c([H])c(OC(C([H])([H])[H])(C([H])([H])[H])C([H])([H])N(C(=O)c3c(N([H])[H])oc(N([H])C(=O)N4C([H])([H])C([H])([H])C([H])([H])C([H])(n5nc(-c6c([H])c([H])c(Oc7c([H])c([H])c(F)c([H])c7F)c([H])c6[H])c(C(=O)N([H])[H])c5N([H])[H])C4([H])[H])c3[H])C([H])([H])[H])c([H])c([H])c2C1([H])[H]

$$$$
45:0:0
     RDKit          3D

 89 97  0  0  1  0  0  0  0  0999 V2000
  -28.4360  -21.4660   19.7970 C   0  0  0  0  0  2  0  0  0  0  0  0
  -30.5700  -15.2810   19.9390 C   0  0  0  0  0  0  0  0  0  0  0  0
  -30.3790  -12.8780   19.0450 C   0  0  0  0  0  2  0  0  0  0  0  0
  -29.3980  -12.7070   17.8640 C   0  0  0  0  0  2  0  0  0  0  0  0
  -27.9740  -12.4570   18.3870 C   0  0  0  0  0  2  0  0  0  0  0  0
  -27.5960  -13.4060   19.5540 C   0  0  0  0  0  3  0  0  0  0  0  0
  -28.7130  -13.5520   20.6110 C   0  0  0  0  0  2  0  0  0  0  0  0
  -29.9010  -14.0330   19.8880 N   0  0  0  0  0  0  0  0  0  0  0  0
  -31.7760  -15.1790   19.6790 O   0  0  0  0  0  0  0  0  0  0  0  0
  -28.7410  -17.2970   20.4920 C   0  0  0  0  0  2  0  0  0  0  0  0
  -30.7750  -17.8710   19.4380 C   0  0  0  0  0  2  0  0  0  0  0  0
  -28.6050  -18.9250   20.8770 C   0  0  0  0  0  2  0  0  0  0  0  0
  -30.0920  -19.3320   19.0470 C   0  0  0  0  0  3  0  0  0  0  0  0
  -29.3530  -19.2270   17.6950 C   0  0  0  0  0  1  0  0  0  0  0  0
  -29.9920  -16.6420   19.9170 N   0  0  0  0  0  0  0  0  0  0  0  0
  -29.2810  -20.0840   20.1100 N   0  0  1  0  0  4  0  0  0  0  0  0
  -29.9680  -20.4210   20.7700 H   0  0  0  0  0  0  0  0  0  0  0  0
  -25.2800  -13.9420   20.4710 C   0  0  0  0  0  0  0  0  0  0  0  0
  -24.2380  -13.1550   20.8760 C   0  0  0  0  0  0  0  0  0  0  0  0
  -24.6920  -11.8050   20.7730 C   0  0  0  0  0  0  0  0  0  0  0  0
  -26.3010  -13.0730   20.1360 N   0  0  0  0  0  0  0  0  0  0  0  0
  -25.9660  -11.7790   20.3860 N   0  0  0  0  0  0  0  0  0  0  0  0
  -23.9700  -10.5390   20.9620 C   0  0  0  0  0  0  0  0  0  0  0  0
  -24.4080   -9.5680   21.8880 C   0  0  0  0  0  3  0  0  0  0  0  0
  -23.6840   -8.3690   22.0640 C   0  0  0  0  0  3  0  0  0  0  0  0
  -22.5070   -8.1330   21.3130 C   0  0  0  0  0  0  0  0  0  0  0  0
  -22.0870   -9.0950   20.3770 C   0  0  0  0  0  3  0  0  0  0  0  0
  -22.8130  -10.2830   20.1990 C   0  0  0  0  0  3  0  0  0  0  0  0
  -21.7500   -6.9890   21.4030 O   0  0  0  0  0  0  0  0  0  0  0  0
  -21.6520   -6.2830   22.5750 C   0  0  0  0  0  0  0  0  0  0  0  0
  -21.1090   -6.8560   23.7460 C   0  0  0  0  0  3  0  0  0  0  0  0
  -20.9590   -6.0730   24.9070 C   0  0  0  0  0  3  0  0  0  0  0  0
  -21.3420   -4.7200   24.9000 C   0  0  0  0  0  0  0  0  0  0  0  0
  -21.8790   -4.1460   23.7350 C   0  0  0  0  0  3  0  0  0  0  0  0
  -22.0300   -4.9250   22.5740 C   0  0  0  0  0  0  0  0  0  0  0  0
  -22.5280   -4.3600   21.4470 F   0  0  0  0  0  0  0  0  0  0  0  0
  -21.1890   -3.9660   26.0150 F   0  0  0  0  0  0  0  0  0  0  0  0
  -22.8590  -13.6290   21.2380 C   0  0  0  0  0  0  0  0  0  0  0  0
  -22.1770  -12.9130   22.1250 N   0  0  0  0  0  0  0  0  0  0  0  0
  -22.3980  -14.6710   20.7720 O   0  0  0  0  0  0  0  0  0  0  0  0
  -22.5640  -12.0710   22.5240 H   0  0  0  0  0  0  0  0  0  0  0  0
  -21.2580  -13.2190   22.4110 H   0  0  0  0  0  0  0  0  0  0  0  0
  -25.4390  -15.3150   20.3260 N   0  0  0  0  0  0  0  0  0  0  0  0
  -24.6830  -15.9700   20.4890 H   0  0  0  0  0  0  0  0  0  0  0  0
  -26.2540  -15.7410   19.9030 H   0  0  0  0  0  0  0  0  0  0  0  0
  -28.8270  -23.0850   20.1950 C   0  0  0  0  0  0  0  0  0  0  0  0
  -29.9170  -23.2610   20.7530 O   0  0  0  0  0  0  0  0  0  0  0  0
  -27.8590  -24.4800   19.9100 C   0  0  0  0  0  2  0  0  0  0  0  0
  -28.1800  -26.0250   20.2660 O   0  0  0  0  0  0  0  0  0  0  0  0
  -24.6510  -31.9150   23.2820 C   0  0  0  0  0  0  0  0  0  0  0  0
  -27.1780  -27.1040   20.2110 C   0  0  0  0  0  0  0  0  0  0  0  0
  -23.4460  -30.5380   21.6360 C   0  0  0  0  0  3  0  0  0  0  0  0
  -24.8870  -28.9530   20.1900 C   0  0  0  0  0  0  0  0  0  0  0  0
  -26.0120  -30.7550   21.4830 C   0  0  0  0  0  2  0  0  0  0  0  0
  -26.0750  -29.3580   20.8150 C   0  0  0  0  0  0  0  0  0  0  0  0
  -27.2160  -28.4490   20.8070 C   0  0  0  0  0  3  0  0  0  0  0  0
  -25.9650  -26.8400   19.5380 C   0  0  0  0  0  3  0  0  0  0  0  0
  -24.8540  -27.7170   19.5300 C   0  0  0  0  0  3  0  0  0  0  0  0
  -23.6700  -29.8720   20.2490 C   0  0  0  0  0  2  0  0  0  0  0  0
  -24.7250  -31.0940   22.1870 N   0  0  0  0  0  0  0  0  0  0  0  0
  -23.5650  -32.2050   23.8090 O   0  0  0  0  0  0  0  0  0  0  0  0
  -22.7570  -29.5310   22.5900 C   0  0  0  0  0  0  0  0  0  0  0  0
  -21.4300  -29.3540   22.4510 N   0  0  0  0  0  0  0  0  0  0  0  0
  -23.4200  -28.9100   23.4240 O   0  0  0  0  0  0  0  0  0  0  0  0
  -20.9500  -29.9070   21.7550 H   0  0  0  0  0  0  0  0  0  0  0  0
  -18.0460  -28.1410   22.9290 C   0  0  0  0  0  0  0  0  0  0  0  0
  -20.6030  -28.4150   23.2130 C   0  0  0  0  0  3  0  0  0  0  0  0
  -20.7140  -26.9850   22.6360 C   0  0  0  0  0  2  0  0  0  0  0  0
  -19.6180  -26.6610   21.6120 C   0  0  0  0  0  2  0  0  0  0  0  0
  -18.2310  -26.7960   22.2480 C   0  0  0  0  0  2  0  0  0  0  0  0
  -19.1590  -28.9070   23.3670 C   0  0  0  0  0  0  0  0  0  0  0  0
  -18.9290  -30.1650   23.9680 C   0  0  0  0  0  3  0  0  0  0  0  0
  -17.6190  -30.6570   24.1300 C   0  0  0  0  0  3  0  0  0  0  0  0
  -16.5220  -29.8870   23.7080 C   0  0  0  0  0  3  0  0  0  0  0  0
  -16.7360  -28.6320   23.1130 C   0  0  0  0  0  3  0  0  0  0  0  0
  -25.9270  -32.5460   23.9160 C   0  0  0  0  0  3  0  0  0  0  0  0
  -25.6280  -33.9520   24.2330 N   0  0  0  0  0  0  0  0  0  0  0  0
  -25.9350  -34.9980   23.4520 C   0  0  0  0  0  0  0  0  0  0  0  0
  -26.5640  -34.8810   22.3980 O   0  0  0  0  0  0  0  0  0  0  0  0
  -25.0670  -34.1150   25.0560 H   0  0  0  0  0  0  0  0  0  0  0  0
  -24.1830  -36.7810   23.1690 C   0  0  0  0  0  1  0  0  0  0  0  0
  -25.4710  -36.3950   23.9120 C   0  0  0  0  0  3  0  0  0  0  0  0
  -27.6390  -37.3140   24.6070 C   0  0  0  0  0  1  0  0  0  0  0  0
  -26.4910  -37.4480   23.7150 N   0  0  0  0  0  0  0  0  0  0  0  0
  -26.0880  -38.3710   23.8520 H   0  0  0  0  0  0  0  0  0  0  0  0
  -26.4150  -31.7860   25.2120 C   0  0  1  0  0  0  0  0  0  0  0  0
  -25.3010  -31.5700   26.2640 C   0  0  0  0  0  1  0  0  0  0  0  0
  -26.9890  -30.3980   24.8510 C   0  0  0  0  0  1  0  0  0  0  0  0
  -27.5650  -32.5750   25.8800 C   0  0  0  0  0  1  0  0  0  0  0  0
  1 16  1  0
  1 46  1  0
  3  8  1  0
  4  5  1  0
  4  3  1  0
  6  5  1  0
  6 21  1  0
  6  7  1  0
  8  2  1  0
  8  7  1  0
  9  2  2  0
 10 12  1  0
 11 15  1  0
 13 14  1  0
 13 11  1  0
 13 16  1  0
 15  2  1  0
 15 10  1  0
 16 17  1  1
 16 12  1  0
 18 19  2  0
 19 38  1  0
 20 19  1  0
 20 23  1  0
 21 22  1  0
 21 18  1  0
 22 20  2  0
 23 24  1  0
 24 25  2  0
 26 29  1  0
 26 25  1  0
 27 26  2  0
 28 27  1  0
 28 23  2  0
 29 30  1  0
 30 31  1  0
 31 32  2  0
 33 32  1  0
 33 37  1  0
 34 33  2  0
 35 30  2  0
 35 34  1  0
 36 35  1  0
 38 39  1  0
 39 42  1  0
 39 41  1  0
 40 38  2  0
 43 18  1  0
 43 44  1  0
 45 43  1  0
 46 47  2  0
 48 46  1  0
 48 49  1  0
 50 61  2  0
 51 49  1  0
 51 56  1  0
 52 60  1  0
 52 62  1  0
 53 59  1  0
 53 55  1  0
 54 60  1  0
 55 54  1  0
 56 55  2  0
 57 51  2  0
 58 57  1  0
 58 53  2  0
 59 52  1  0
 60 50  1  0
 62 64  2  0
 63 62  1  0
 65 63  1  0
 66 75  2  0
 66 71  1  0
 67 63  1  0
 67 71  1  0
 68 67  1  0
 69 70  1  0
 69 68  1  0
 70 66  1  0
 71 72  2  0
 72 73  1  0
 74 73  2  0
 75 74  1  0
 76 50  1  0
 76 77  1  0
 76 86  1  0
 77 80  1  0
 78 82  1  0
 78 77  1  0
 79 78  2  0
 82 81  1  0
 84 85  1  0
 84 82  1  0
 84 83  1  0
 86 89  1  1
 86 87  1  0
 88 86  1  0
M  ISO  4   2 100  15 100  48 101  49 101
M  END
>  <TORSDO>  (46) 
F 18

>  <SCORE>  (46) 
-15.724

>  <name>  (46) 
45

>  <ligand_id>  (46) 
45

>  <original_smiles>  (46) 
[H]c1c([H])c([H])c2c(c1[H])C([H])([H])C([H])([H])C([H])([H])C2([H])N([H])C(=O)C1([H])N(C(=O)C([H])(N([H])C(=O)C([H])(N([H])C([H])([H])[H])C([H])([H])[H])C(C([H])([H])[H])(C([H])([H])[H])C([H])([H])[H])C([H])([H])c2c([H])c(OC([H])([H])C(=O)C([H])([H])[N+]3([H])C([H])([H])C([H])([H])N(C(=O)N4C([H])([H])C([H])([H])C([H])([H])C([H])(n5nc(-c6c([H])c([H])c(Oc7c([H])c([H])c(F)c([H])c7F)c([H])c6[H])c(C(=O)N([H])[H])c5N([H])[H])C4([H])[H])C([H])([H])C3([H])C([H])([H])[H])c([H])c([H])c2C1([H])[H]

>  <smiles>  (46) 
[H]c1c([H])c([H])c2c(c1[H])C([H])([H])C([H])([H])C([H])([H])C2([H])N([H])C(=O)C1([H])N(C(=O)C([H])(N([H])C(=O)C([H])(N([H])C([H])([H])[H])C([H])([H])[H])C(C([H])([H])[H])(C([H])([H])[H])C([H])([H])[H])C([H])([H])c2c([H])c(OC([H])([H])C(=O)C([H])([H])[N+]3([H])C([H])([H])C([H])([H])N(C(=O)N4C([H])([H])C([H])([H])C([H])([H])C([H])(n5nc(-c6c([H])c([H])c(Oc7c([H])c([H])c(F)c([H])c7F)c([H])c6[H])c(C(=O)N([H])[H])c5N([H])[H])C4([H])[H])C([H])([H])C3([H])C([H])([H])[H])c([H])c([H])c2C1([H])[H]

$$$$
46:0:0
     RDKit          3D

 98106  0  0  1  0  0  0  0  0999 V2000
  -30.1470  -17.3920   18.5980 C   0  0  0  0  0  3  0  0  0  0  0  0
  -29.7180  -18.6610   20.6230 C   0  0  0  0  0  3  0  0  0  0  0  0
  -30.0540  -18.5740   17.8310 C   0  0  0  0  0  0  0  0  0  0  0  0
  -29.9990  -17.3720   19.9960 C   0  0  0  0  0  0  0  0  0  0  0  0
  -29.6000  -19.9190   19.8870 C   0  0  0  0  0  0  0  0  0  0  0  0
  -29.7840  -19.8250   18.4690 C   0  0  0  0  0  0  0  0  0  0  0  0
  -30.7690  -14.9070   20.2770 C   0  0  0  0  0  0  0  0  0  0  0  0
  -30.5400  -12.6850   19.1690 C   0  0  0  0  0  2  0  0  0  0  0  0
  -29.6050  -12.8640   17.9510 C   0  0  0  0  0  2  0  0  0  0  0  0
  -28.1300  -12.6900   18.3680 C   0  0  0  0  0  2  0  0  0  0  0  0
  -27.7760  -13.5010   19.6450 C   0  0  0  0  0  3  0  0  0  0  0  0
  -28.8330  -13.3180   20.7550 C   0  0  0  0  0  2  0  0  0  0  0  0
  -30.1370  -13.6830   20.1890 N   0  0  0  0  0  0  0  0  0  0  0  0
  -31.9380  -15.0160   19.8950 O   0  0  0  0  0  0  0  0  0  0  0  0
  -30.0370  -16.0310   20.6440 N   0  0  0  0  0  0  0  0  0  0  0  0
  -29.2080  -15.8180   21.1820 H   0  0  0  0  0  0  0  0  0  0  0  0
  -25.3780  -14.0860   20.3450 C   0  0  0  0  0  0  0  0  0  0  0  0
  -24.3120  -13.3120   20.7130 C   0  0  0  0  0  0  0  0  0  0  0  0
  -24.7800  -11.9620   20.6990 C   0  0  0  0  0  0  0  0  0  0  0  0
  -26.4270  -13.2100   20.1220 N   0  0  0  0  0  0  0  0  0  0  0  0
  -26.0740  -11.9270   20.3970 N   0  0  0  0  0  0  0  0  0  0  0  0
  -24.0570  -10.6990   20.9010 C   0  0  0  0  0  0  0  0  0  0  0  0
  -24.4530   -9.7660   21.8830 C   0  0  0  0  0  3  0  0  0  0  0  0
  -23.7320   -8.5680   22.0670 C   0  0  0  0  0  3  0  0  0  0  0  0
  -22.5970   -8.2930   21.2670 C   0  0  0  0  0  0  0  0  0  0  0  0
  -22.2210   -9.2140   20.2750 C   0  0  0  0  0  3  0  0  0  0  0  0
  -22.9430  -10.4030   20.0900 C   0  0  0  0  0  3  0  0  0  0  0  0
  -21.8500   -7.1430   21.3580 O   0  0  0  0  0  0  0  0  0  0  0  0
  -21.7280   -6.4550   22.5390 C   0  0  0  0  0  0  0  0  0  0  0  0
  -21.1840   -7.0520   23.6960 C   0  0  0  0  0  3  0  0  0  0  0  0
  -21.0130   -6.2860   24.8680 C   0  0  0  0  0  3  0  0  0  0  0  0
  -21.3780   -4.9260   24.8800 C   0  0  0  0  0  0  0  0  0  0  0  0
  -21.9130   -4.3290   23.7250 C   0  0  0  0  0  3  0  0  0  0  0  0
  -22.0840   -5.0920   22.5560 C   0  0  0  0  0  0  0  0  0  0  0  0
  -22.5810   -4.5070   21.4410 F   0  0  0  0  0  0  0  0  0  0  0  0
  -21.2060   -4.1900   26.0020 F   0  0  0  0  0  0  0  0  0  0  0  0
  -22.9090  -13.7870   20.9660 C   0  0  0  0  0  0  0  0  0  0  0  0
  -22.1760  -13.1010   21.8360 N   0  0  0  0  0  0  0  0  0  0  0  0
  -22.4730  -14.8050   20.4290 O   0  0  0  0  0  0  0  0  0  0  0  0
  -22.5400  -12.2790   22.2950 H   0  0  0  0  0  0  0  0  0  0  0  0
  -21.2330  -13.4000   22.0410 H   0  0  0  0  0  0  0  0  0  0  0  0
  -25.5390  -15.4560   20.1540 N   0  0  0  0  0  0  0  0  0  0  0  0
  -24.7640  -16.1060   20.2340 H   0  0  0  0  0  0  0  0  0  0  0  0
  -26.3940  -15.8940   19.8360 H   0  0  0  0  0  0  0  0  0  0  0  0
  -28.6410  -22.3590   20.1530 C   0  0  0  0  0  0  0  0  0  0  0  0
  -29.4100  -21.2630   20.5360 N   0  0  0  0  0  0  0  0  0  0  0  0
  -27.7340  -22.2420   19.3210 O   0  0  0  0  0  0  0  0  0  0  0  0
  -29.9700  -21.4320   21.3600 H   0  0  0  0  0  0  0  0  0  0  0  0
  -28.8870  -23.8400   20.8010 C   0  0  0  0  0  0  0  0  0  0  0  0
  -29.6820  -24.0160   21.7330 O   0  0  0  0  0  0  0  0  0  0  0  0
  -28.0490  -25.0550   20.1880 C   0  0  0  0  0  2  0  0  0  0  0  0
  -28.3210  -26.4860   20.5750 O   0  0  0  0  0  0  0  0  0  0  0  0
  -24.7140  -32.0710   23.4800 C   0  0  0  0  0  0  0  0  0  0  0  0
  -27.2450  -27.4030   20.4800 C   0  0  0  0  0  0  0  0  0  0  0  0
  -23.4840  -30.6680   21.8640 C   0  0  0  0  0  3  0  0  0  0  0  0
  -24.9090  -29.0830   20.4490 C   0  0  0  0  0  0  0  0  0  0  0  0
  -26.0320  -30.9390   21.6700 C   0  0  0  0  0  2  0  0  0  0  0  0
  -26.0890  -29.5480   21.0430 C   0  0  0  0  0  0  0  0  0  0  0  0
  -27.2580  -28.7200   21.0530 C   0  0  0  0  0  3  0  0  0  0  0  0
  -26.0450  -27.0190   19.8330 C   0  0  0  0  0  3  0  0  0  0  0  0
  -24.8920  -27.8250   19.8330 C   0  0  0  0  0  3  0  0  0  0  0  0
  -23.6820  -29.9720   20.4930 C   0  0  0  0  0  2  0  0  0  0  0  0
  -24.7630  -31.2460   22.3930 N   0  0  0  0  0  0  0  0  0  0  0  0
  -23.6370  -32.3710   24.0150 O   0  0  0  0  0  0  0  0  0  0  0  0
  -22.8090  -29.6730   22.8410 C   0  0  0  0  0  0  0  0  0  0  0  0
  -21.5100  -29.4010   22.6280 N   0  0  0  0  0  0  0  0  0  0  0  0
  -23.4580  -29.1490   23.7500 O   0  0  0  0  0  0  0  0  0  0  0  0
  -21.0450  -29.8740   21.8660 H   0  0  0  0  0  0  0  0  0  0  0  0
  -18.2110  -27.9390   22.8940 C   0  0  0  0  0  0  0  0  0  0  0  0
  -20.6920  -28.4640   23.4020 C   0  0  0  0  0  3  0  0  0  0  0  0
  -20.9790  -27.0030   22.9880 C   0  0  0  0  0  2  0  0  0  0  0  0
  -20.0310  -26.4860   21.9020 C   0  0  0  0  0  2  0  0  0  0  0  0
  -18.5770  -26.5570   22.3800 C   0  0  0  0  0  2  0  0  0  0  0  0
  -19.2060  -28.8390   23.3590 C   0  0  0  0  0  0  0  0  0  0  0  0
  -18.8150  -30.1240   23.7950 C   0  0  0  0  0  3  0  0  0  0  0  0
  -17.4620  -30.5110   23.7750 C   0  0  0  0  0  3  0  0  0  0  0  0
  -16.4800  -29.6100   23.3290 C   0  0  0  0  0  3  0  0  0  0  0  0
  -16.8550  -28.3260   22.8930 C   0  0  0  0  0  3  0  0  0  0  0  0
  -26.0070  -32.6940   24.0890 C   0  0  0  0  0  3  0  0  0  0  0  0
  -25.7020  -34.0880   24.4440 N   0  0  0  0  0  0  0  0  0  0  0  0
  -25.9950  -35.1510   23.6830 C   0  0  0  0  0  0  0  0  0  0  0  0
  -26.6200  -35.0640   22.6220 O   0  0  0  0  0  0  0  0  0  0  0  0
  -25.1400  -34.2310   25.2700 H   0  0  0  0  0  0  0  0  0  0  0  0
  -24.2310  -36.9300   23.4450 C   0  0  0  0  0  1  0  0  0  0  0  0
  -25.5220  -36.5320   24.1790 C   0  0  0  0  0  3  0  0  0  0  0  0
  -27.6880  -37.4410   24.8970 C   0  0  0  0  0  1  0  0  0  0  0  0
  -26.5350  -37.5970   24.0120 N   0  0  0  0  0  0  0  0  0  0  0  0
  -26.1280  -38.5120   24.1810 H   0  0  0  0  0  0  0  0  0  0  0  0
  -26.5440  -31.9060   25.3450 C   0  0  1  0  0  0  0  0  0  0  0  0
  -25.4550  -31.5990   26.3990 C   0  0  0  0  0  1  0  0  0  0  0  0
  -27.1780  -30.5600   24.9190 C   0  0  0  0  0  1  0  0  0  0  0  0
  -27.6630  -32.7220   26.0360 C   0  0  0  0  0  1  0  0  0  0  0  0
  -30.2580  -18.4590   16.3540 C   0  0  0  0  0  3  0  0  0  0  0  0
  -30.4610  -17.3840   15.7130 N   0  0  0  0  0  0  0  0  0  0  0  0
  -30.4550  -16.5770   16.3240 H   0  0  0  0  0  0  0  0  0  0  0  0
  -29.7150  -20.9840   17.6880 N   0  0  0  0  0  0  0  0  0  0  0  0
  -29.5070  -20.8480   16.7040 H   0  0  0  0  0  0  0  0  0  0  0  0
  -29.0460  -21.6500   18.0760 H   0  0  0  0  0  0  0  0  0  0  0  0
  1  4  1  0
  3  6  1  0
  3  1  2  0
  4  2  2  0
  4 15  1  0
  5 46  1  0
  5  2  1  0
  6  5  2  0
  7 15  1  0
  8 13  1  0
  9 10  1  0
  9  8  1  0
 11 10  1  0
 11 20  1  0
 11 12  1  0
 13  7  1  0
 13 12  1  0
 14  7  2  0
 15 16  1  0
 17 18  2  0
 18 37  1  0
 19 18  1  0
 19 22  1  0
 20 17  1  0
 20 21  1  0
 21 19  2  0
 22 23  1  0
 23 24  2  0
 25 28  1  0
 25 24  1  0
 26 25  2  0
 27 26  1  0
 27 22  2  0
 28 29  1  0
 29 34  2  0
 29 30  1  0
 30 31  2  0
 31 32  1  0
 32 36  1  0
 33 32  2  0
 34 33  1  0
 35 34  1  0
 37 38  1  0
 38 41  1  0
 38 40  1  0
 39 37  2  0
 42 43  1  0
 42 17  1  0
 44 42  1  0
 45 46  1  0
 45 49  1  0
 46 48  1  0
 47 45  2  0
 49 50  2  0
 51 52  1  0
 51 49  1  0
 53 64  2  0
 54 52  1  0
 54 59  1  0
 55 63  1  0
 55 65  1  0
 56 62  1  0
 56 58  1  0
 57 63  1  0
 58 59  2  0
 58 57  1  0
 60 61  1  0
 60 54  2  0
 61 56  2  0
 62 55  1  0
 63 53  1  0
 65 67  2  0
 66 65  1  0
 68 66  1  0
 69 74  1  0
 70 66  1  0
 71 70  1  0
 72 73  1  0
 72 71  1  0
 73 69  1  0
 74 70  1  0
 74 75  2  0
 76 75  1  0
 77 76  2  0
 78 69  2  0
 78 77  1  0
 79 53  1  0
 79 80  1  0
 79 89  1  0
 80 83  1  0
 81 85  1  0
 81 80  1  0
 82 81  2  0
 85 84  1  0
 87 85  1  0
 87 88  1  0
 87 86  1  0
 89 92  1  1
 89 90  1  0
 91 89  1  0
 93  3  1  0
 94 95  1  0
 94 93  2  0
 96 98  1  0
 96  6  1  0
 97 96  1  0
M  ISO  4   7 100  15 100  51 101  52 101
M  END
>  <TORSDO>  (47) 
F 21

>  <SCORE>  (47) 
-13.048

>  <name>  (47) 
46

>  <ligand_id>  (47) 
46

>  <original_smiles>  (47) 
[H]N=C([H])c1c([H])c(N([H])C(=O)N2C([H])([H])C([H])([H])C([H])([H])C([H])(n3nc(-c4c([H])c([H])c(Oc5c([H])c([H])c(F)c([H])c5F)c([H])c4[H])c(C(=O)N([H])[H])c3N([H])[H])C2([H])[H])c([H])c(N([H])C(=O)C(=O)C([H])([H])Oc2c([H])c([H])c3c(c2[H])C([H])([H])N(C(=O)C([H])(N([H])C(=O)C([H])(N([H])C([H])([H])[H])C([H])([H])[H])C(C([H])([H])[H])(C([H])([H])[H])C([H])([H])[H])C([H])(C(=O)N([H])C2([H])c4c([H])c([H])c([H])c([H])c4C([H])([H])C([H])([H])C2([H])[H])C3([H])[H])c1N([H])[H]

>  <smiles>  (47) 
[H]N=C([H])c1c([H])c(N([H])C(=O)N2C([H])([H])C([H])([H])C([H])([H])C([H])(n3nc(-c4c([H])c([H])c(Oc5c([H])c([H])c(F)c([H])c5F)c([H])c4[H])c(C(=O)N([H])[H])c3N([H])[H])C2([H])[H])c([H])c(N([H])C(=O)C(=O)C([H])([H])Oc2c([H])c([H])c3c(c2[H])C([H])([H])N(C(=O)C([H])(N([H])C(=O)C([H])(N([H])C([H])([H])[H])C([H])([H])[H])C(C([H])([H])[H])(C([H])([H])[H])C([H])([H])[H])C([H])(C(=O)N([H])C2([H])c4c([H])c([H])c([H])c([H])c4C([H])([H])C([H])([H])C2([H])[H])C3([H])[H])c1N([H])[H]

$$$$
47:0:0
     RDKit          3D

101109  0  0  1  0  0  0  0  0999 V2000
  -29.0950  -19.6730   19.5130 C   0  0  0  0  0  3  0  0  0  0  0  0
  -29.3560  -17.2660   19.2150 C   0  0  0  0  0  3  0  0  0  0  0  0
  -30.3960  -18.3710   21.1250 C   0  0  0  0  0  3  0  0  0  0  0  0
  -28.8100  -18.4930   18.7970 C   0  0  0  0  0  0  0  0  0  0  0  0
  -29.9300  -19.6440   20.6620 C   0  0  0  0  0  0  0  0  0  0  0  0
  -30.1000  -17.1640   20.4150 C   0  0  0  0  0  0  0  0  0  0  0  0
  -31.0480  -14.8590   20.3310 C   0  0  0  0  0  0  0  0  0  0  0  0
  -30.7190  -12.7950   19.0150 C   0  0  0  0  0  2  0  0  0  0  0  0
  -29.7350  -13.0770   17.8610 C   0  0  0  0  0  2  0  0  0  0  0  0
  -28.2780  -12.8870   18.3280 C   0  0  0  0  0  2  0  0  0  0  0  0
  -27.9760  -13.6670   19.6380 C   0  0  0  0  0  3  0  0  0  0  0  0
  -29.0530  -13.3510   20.7040 C   0  0  0  0  0  2  0  0  0  0  0  0
  -30.3740  -13.6870   20.1390 N   0  0  0  0  0  0  0  0  0  0  0  0
  -32.1740  -15.0580   19.8690 O   0  0  0  0  0  0  0  0  0  0  0  0
  -30.3620  -15.8490   20.9500 N   0  0  0  0  0  0  0  0  0  0  0  0
  -29.5820  -15.4740   21.4720 H   0  0  0  0  0  0  0  0  0  0  0  0
  -25.6030  -14.3070   20.4150 C   0  0  0  0  0  0  0  0  0  0  0  0
  -24.5250  -13.5350   20.7630 C   0  0  0  0  0  0  0  0  0  0  0  0
  -24.9680  -12.1820   20.7000 C   0  0  0  0  0  0  0  0  0  0  0  0
  -26.6290  -13.4120   20.1330 N   0  0  0  0  0  0  0  0  0  0  0  0
  -26.2520  -12.1330   20.3740 N   0  0  0  0  0  0  0  0  0  0  0  0
  -24.2350  -10.9210   20.8710 C   0  0  0  0  0  0  0  0  0  0  0  0
  -24.6240   -9.9670   21.8370 C   0  0  0  0  0  3  0  0  0  0  0  0
  -23.9000   -8.7650   21.9950 C   0  0  0  0  0  3  0  0  0  0  0  0
  -22.7680   -8.5110   21.1820 C   0  0  0  0  0  0  0  0  0  0  0  0
  -22.3990   -9.4520   20.2070 C   0  0  0  0  0  3  0  0  0  0  0  0
  -23.1230  -10.6450   20.0490 C   0  0  0  0  0  3  0  0  0  0  0  0
  -22.0110   -7.3660   21.2460 O   0  0  0  0  0  0  0  0  0  0  0  0
  -21.8450   -6.6740   22.4170 C   0  0  0  0  0  0  0  0  0  0  0  0
  -21.2670   -7.2700   23.5600 C   0  0  0  0  0  3  0  0  0  0  0  0
  -21.0520   -6.5030   24.7220 C   0  0  0  0  0  3  0  0  0  0  0  0
  -21.4020   -5.1400   24.7410 C   0  0  0  0  0  0  0  0  0  0  0  0
  -21.9740   -4.5410   23.6050 C   0  0  0  0  0  3  0  0  0  0  0  0
  -22.1900   -5.3060   22.4440 C   0  0  0  0  0  0  0  0  0  0  0  0
  -22.7170   -4.7190   21.3440 F   0  0  0  0  0  0  0  0  0  0  0  0
  -21.1880   -4.4020   25.8570 F   0  0  0  0  0  0  0  0  0  0  0  0
  -23.1340  -14.0170   21.0600 C   0  0  0  0  0  0  0  0  0  0  0  0
  -22.4090  -13.3110   21.9230 N   0  0  0  0  0  0  0  0  0  0  0  0
  -22.6980  -15.0520   20.5600 O   0  0  0  0  0  0  0  0  0  0  0  0
  -22.7870  -12.4870   22.3690 H   0  0  0  0  0  0  0  0  0  0  0  0
  -21.4700  -13.6110   22.1520 H   0  0  0  0  0  0  0  0  0  0  0  0
  -25.7980  -15.6880   20.3140 N   0  0  0  0  0  0  0  0  0  0  0  0
  -25.0670  -16.3490   20.5590 H   0  0  0  0  0  0  0  0  0  0  0  0
  -26.6960  -16.1400   20.2050 H   0  0  0  0  0  0  0  0  0  0  0  0
  -27.8880  -18.5210   17.6600 C   0  0  0  0  0  0  0  0  0  0  0  0
  -26.6090  -18.8500   17.8280 N   0  0  0  0  0  0  0  0  0  0  0  0
  -28.3000  -18.1820   16.4400 N   0  0  0  0  0  4  0  0  0  0  0  0
  -26.2760  -19.0830   18.7510 H   0  0  0  0  0  0  0  0  0  0  0  0
  -25.9110  -18.7010   17.1140 H   0  0  0  0  0  0  0  0  0  0  0  0
  -29.2820  -18.0250   16.2820 H   0  0  0  0  0  0  0  0  0  0  0  0
  -27.6900  -18.2120   15.6380 H   0  0  0  0  0  0  0  0  0  0  0  0
  -30.2770  -22.1390   20.9280 C   0  0  0  0  0  0  0  0  0  0  0  0
  -30.1950  -20.8600   21.3990 N   0  0  0  0  0  0  0  0  0  0  0  0
  -30.4870  -22.4260   19.7490 O   0  0  0  0  0  0  0  0  0  0  0  0
  -30.3000  -20.7670   22.3970 H   0  0  0  0  0  0  0  0  0  0  0  0
  -30.1390  -23.2250   22.0090 C   0  0  0  0  0  0  0  0  0  0  0  0
  -29.9420  -22.9540   23.2360 N   0  0  0  0  0  0  0  0  0  0  0  0
  -29.8590  -21.9600   23.4150 H   0  0  0  0  0  0  0  0  0  0  0  0
  -30.2420  -24.7210   21.6020 C   0  0  0  0  0  2  0  0  0  0  0  0
  -28.9180  -25.3760   21.0910 C   0  0  0  0  0  2  0  0  0  0  0  0
  -29.0080  -26.8080   20.8570 O   0  0  0  0  0  0  0  0  0  0  0  0
  -24.8870  -32.0410   23.4300 C   0  0  0  0  0  0  0  0  0  0  0  0
  -27.8170  -27.5140   20.7290 C   0  0  0  0  0  0  0  0  0  0  0  0
  -23.8130  -30.5330   21.7900 C   0  0  0  0  0  3  0  0  0  0  0  0
  -25.3840  -28.9720   20.5180 C   0  0  0  0  0  0  0  0  0  0  0  0
  -26.3370  -30.9460   21.7200 C   0  0  0  0  0  2  0  0  0  0  0  0
  -26.4930  -29.5520   21.1420 C   0  0  0  0  0  0  0  0  0  0  0  0
  -27.7140  -28.8360   21.2350 C   0  0  0  0  0  3  0  0  0  0  0  0
  -26.6830  -26.9530   20.0970 C   0  0  0  0  0  3  0  0  0  0  0  0
  -25.4800  -27.6750   19.9840 C   0  0  0  0  0  3  0  0  0  0  0  0
  -24.1130  -29.7870   20.4600 C   0  0  0  0  0  2  0  0  0  0  0  0
  -25.0260  -31.1950   22.3670 N   0  0  0  0  0  0  0  0  0  0  0  0
  -23.7720  -32.3010   23.9020 O   0  0  0  0  0  0  0  0  0  0  0  0
  -23.1310  -29.5440   22.7640 C   0  0  0  0  0  0  0  0  0  0  0  0
  -21.8230  -29.3150   22.5730 N   0  0  0  0  0  0  0  0  0  0  0  0
  -23.7840  -28.9780   23.6460 O   0  0  0  0  0  0  0  0  0  0  0  0
  -21.3620  -29.8140   21.8260 H   0  0  0  0  0  0  0  0  0  0  0  0
  -18.4480  -28.0970   22.9910 C   0  0  0  0  0  0  0  0  0  0  0  0
  -20.9910  -28.3920   23.3440 C   0  0  0  0  0  3  0  0  0  0  0  0
  -21.1320  -26.9470   22.8110 C   0  0  0  0  0  2  0  0  0  0  0  0
  -20.0690  -26.5850   21.7660 C   0  0  0  0  0  2  0  0  0  0  0  0
  -18.6630  -26.7340   22.3550 C   0  0  0  0  0  2  0  0  0  0  0  0
  -19.5420  -28.8820   23.4390 C   0  0  0  0  0  0  0  0  0  0  0  0
  -19.2890  -30.1580   23.9870 C   0  0  0  0  0  3  0  0  0  0  0  0
  -17.9730  -30.6490   24.0950 C   0  0  0  0  0  3  0  0  0  0  0  0
  -16.8920  -29.8590   23.6670 C   0  0  0  0  0  3  0  0  0  0  0  0
  -17.1310  -28.5870   23.1190 C   0  0  0  0  0  3  0  0  0  0  0  0
  -26.1180  -32.7360   24.0890 C   0  0  0  0  0  3  0  0  0  0  0  0
  -25.7220  -34.1040   24.4390 N   0  0  0  0  0  0  0  0  0  0  0  0
  -25.9780  -35.1880   23.6920 C   0  0  0  0  0  0  0  0  0  0  0  0
  -26.6420  -35.1430   22.6520 O   0  0  0  0  0  0  0  0  0  0  0  0
  -25.1320  -34.2090   25.2520 H   0  0  0  0  0  0  0  0  0  0  0  0
  -24.1050  -36.8400   23.4120 C   0  0  0  0  0  1  0  0  0  0  0  0
  -25.4060  -36.5340   24.1730 C   0  0  0  0  0  3  0  0  0  0  0  0
  -27.4950  -37.5860   24.9220 C   0  0  0  0  0  1  0  0  0  0  0  0
  -26.3480  -37.6650   24.0200 N   0  0  0  0  0  0  0  0  0  0  0  0
  -25.8770  -38.5510   24.1860 H   0  0  0  0  0  0  0  0  0  0  0  0
  -26.6570  -31.9760   25.3620 C   0  0  1  0  0  0  0  0  0  0  0  0
  -25.5450  -31.5650   26.3550 C   0  0  0  0  0  1  0  0  0  0  0  0
  -27.4200  -30.6970   24.9520 C   0  0  0  0  0  1  0  0  0  0  0  0
  -27.6670  -32.8720   26.1170 C   0  0  0  0  0  1  0  0  0  0  0  0
  1  5  1  0
  2  6  2  0
  4  2  1  0
  4  1  2  0
  5  3  2  0
  5 53  1  0
  6 15  1  0
  6  3  1  0
  7 15  1  0
  8 13  1  0
  9 10  1  0
  9  8  1  0
 11 10  1  0
 11 20  1  0
 11 12  1  0
 13  7  1  0
 13 12  1  0
 14  7  2  0
 15 16  1  0
 17 18  2  0
 18 37  1  0
 19 18  1  0
 19 22  1  0
 20 21  1  0
 20 17  1  0
 21 19  2  0
 22 23  1  0
 23 24  2  0
 25 28  1  0
 25 24  1  0
 26 25  2  0
 27 26  1  0
 27 22  2  0
 28 29  1  0
 29 34  2  0
 29 30  1  0
 30 31  2  0
 31 32  1  0
 32 36  1  0
 33 32  2  0
 34 33  1  0
 35 34  1  0
 37 38  1  0
 38 41  1  0
 38 40  1  0
 39 37  2  0
 42 17  1  0
 42 43  1  0
 44 42  1  0
 45 46  1  0
 45  4  1  0
 46 48  1  0
 47 45  2  0
 49 46  1  0
 50 47  1  0
 51 47  1  0
 52 53  1  0
 52 56  1  0
 53 55  1  0
 54 52  2  0
 56 57  2  0
 57 58  1  0
 59 56  1  0
 60 59  1  0
 61 60  1  0
 62 73  2  0
 63 61  1  0
 63 68  1  0
 64 72  1  0
 64 74  1  0
 65 67  1  0
 66 72  1  0
 67 68  2  0
 67 66  1  0
 69 63  2  0
 70 69  1  0
 70 65  2  0
 71 65  1  0
 71 64  1  0
 72 62  1  0
 74 76  2  0
 75 74  1  0
 77 75  1  0
 78 87  2  0
 78 83  1  0
 79 75  1  0
 79 83  1  0
 80 79  1  0
 81 82  1  0
 81 80  1  0
 82 78  1  0
 83 84  2  0
 84 85  1  0
 86 85  2  0
 87 86  1  0
 88 62  1  0
 88 89  1  0
 88 98  1  0
 89 92  1  0
 90 94  1  0
 90 89  1  0
 91 90  2  0
 94 93  1  0
 96 94  1  0
 96 97  1  0
 96 95  1  0
 98101  1  1
 98 99  1  0
100 98  1  0
M  ISO  4   7 100  15 100  60 101  61 101
M  END
>  <TORSDO>  (48) 
F 21

>  <SCORE>  (48) 
-12.743

>  <name>  (48) 
47

>  <ligand_id>  (48) 
47

>  <original_smiles>  (48) 
[H]N=C(C(=O)N([H])c1c([H])c(C(N([H])[H])=[N+]([H])[H])c([H])c(N([H])C(=O)N2C([H])([H])C([H])([H])C([H])([H])C([H])(n3nc(-c4c([H])c([H])c(Oc5c([H])c([H])c(F)c([H])c5F)c([H])c4[H])c(C(=O)N([H])[H])c3N([H])[H])C2([H])[H])c1[H])C([H])([H])C([H])([H])Oc1c([H])c([H])c2c(c1[H])C([H])([H])N(C(=O)C([H])(N([H])C(=O)C([H])(N([H])C([H])([H])[H])C([H])([H])[H])C(C([H])([H])[H])(C([H])([H])[H])C([H])([H])[H])C([H])(C(=O)N([H])C1([H])c3c([H])c([H])c([H])c([H])c3C([H])([H])C([H])([H])C1([H])[H])C2([H])[H]

>  <smiles>  (48) 
[H]N=C(C(=O)N([H])c1c([H])c(C(N([H])[H])=[N+]([H])[H])c([H])c(N([H])C(=O)N2C([H])([H])C([H])([H])C([H])([H])C([H])(n3nc(-c4c([H])c([H])c(Oc5c([H])c([H])c(F)c([H])c5F)c([H])c4[H])c(C(=O)N([H])[H])c3N([H])[H])C2([H])[H])c1[H])C([H])([H])C([H])([H])Oc1c([H])c([H])c2c(c1[H])C([H])([H])N(C(=O)C([H])(N([H])C(=O)C([H])(N([H])C([H])([H])[H])C([H])([H])[H])C(C([H])([H])[H])(C([H])([H])[H])C([H])([H])[H])C([H])(C(=O)N([H])C1([H])c3c([H])c([H])c([H])c([H])c3C([H])([H])C([H])([H])C1([H])[H])C2([H])[H]

$$$$
48:0:0
     RDKit          3D

 95104  0  0  1  0  0  0  0  0999 V2000
  -30.4090  -23.7840   19.7130 C   0  0  0  0  0  2  0  0  0  0  0  0
  -28.0040  -23.3630   20.3310 C   0  0  0  0  0  2  0  0  0  0  0  0
  -30.6970  -22.2600   19.9040 C   0  0  0  0  0  2  0  0  0  0  0  0
  -28.3670  -21.8540   20.5190 C   0  0  0  0  0  2  0  0  0  0  0  0
  -28.9370  -24.0950   19.3380 C   0  0  2  0  0  0  0  0  0  0  0  0
  -29.7880  -21.6910   20.9340 N   0  0  1  0  0  4  0  0  0  0  0  0
  -28.7420  -23.4920   18.1630 F   0  0  0  0  0  0  0  0  0  0  0  0
  -29.8770  -22.3320   21.7050 H   0  0  0  0  0  0  0  0  0  0  0  0
  -31.4640  -20.5270   22.4370 C   0  0  0  0  0  1  0  0  0  0  0  0
  -30.1570  -20.3960   21.6210 C   0  0  0  0  0  3  0  0  0  0  0  0
  -29.5460  -17.8500   21.1670 C   0  0  0  0  0  3  0  0  0  0  0  0
  -30.2130  -19.0750   20.8410 C   0  0  0  0  0  0  0  0  0  0  0  0
  -30.2230  -16.8920   20.4610 C   0  0  0  0  0  0  0  0  0  0  0  0
  -31.1210  -18.8610   19.8870 N   0  0  0  0  0  0  0  0  0  0  0  0
  -31.1440  -17.4740   19.6470 O   0  0  0  0  0  0  0  0  0  0  0  0
  -30.7470  -14.5220   20.0810 C   0  0  0  0  0  0  0  0  0  0  0  0
  -30.4060  -12.3530   18.9490 C   0  0  0  0  0  2  0  0  0  0  0  0
  -29.4030  -12.5860   17.7980 C   0  0  0  0  0  2  0  0  0  0  0  0
  -27.9500  -12.4560   18.3000 C   0  0  0  0  0  2  0  0  0  0  0  0
  -27.6880  -13.2620   19.6000 C   0  0  0  0  0  3  0  0  0  0  0  0
  -28.8020  -13.0160   20.6440 C   0  0  0  0  0  2  0  0  0  0  0  0
  -30.0920  -13.3250   20.0080 N   0  0  0  0  0  0  0  0  0  0  0  0
  -31.8740  -14.6830   19.6070 O   0  0  0  0  0  0  0  0  0  0  0  0
  -30.0070  -15.5450   20.5700 N   0  0  0  0  0  0  0  0  0  0  0  0
  -29.1400  -15.2770   21.0010 H   0  0  0  0  0  0  0  0  0  0  0  0
  -25.3360  -13.8830   20.4420 C   0  0  0  0  0  0  0  0  0  0  0  0
  -24.2780  -13.1150   20.8510 C   0  0  0  0  0  0  0  0  0  0  0  0
  -24.7230  -11.7590   20.7760 C   0  0  0  0  0  0  0  0  0  0  0  0
  -26.3590  -12.9930   20.1440 N   0  0  0  0  0  0  0  0  0  0  0  0
  -25.9950  -11.7110   20.4010 N   0  0  0  0  0  0  0  0  0  0  0  0
  -23.9900  -10.5020   20.9780 C   0  0  0  0  0  0  0  0  0  0  0  0
  -24.4390   -9.5280   21.8970 C   0  0  0  0  0  3  0  0  0  0  0  0
  -23.7090   -8.3350   22.0890 C   0  0  0  0  0  3  0  0  0  0  0  0
  -22.5140   -8.1090   21.3630 C   0  0  0  0  0  0  0  0  0  0  0  0
  -22.0840   -9.0720   20.4320 C   0  0  0  0  0  3  0  0  0  0  0  0
  -22.8160  -10.2560   20.2370 C   0  0  0  0  0  3  0  0  0  0  0  0
  -21.7550   -6.9710   21.4650 O   0  0  0  0  0  0  0  0  0  0  0  0
  -21.7090   -6.2340   22.6240 C   0  0  0  0  0  0  0  0  0  0  0  0
  -21.2710   -6.7920   23.8440 C   0  0  0  0  0  3  0  0  0  0  0  0
  -21.1780   -5.9830   24.9940 C   0  0  0  0  0  3  0  0  0  0  0  0
  -21.5100   -4.6180   24.9230 C   0  0  0  0  0  0  0  0  0  0  0  0
  -21.9400   -4.0590   23.7080 C   0  0  0  0  0  3  0  0  0  0  0  0
  -22.0370   -4.8650   22.5600 C   0  0  0  0  0  0  0  0  0  0  0  0
  -22.4310   -4.3170   21.3850 F   0  0  0  0  0  0  0  0  0  0  0  0
  -21.4120   -3.8380   26.0250 F   0  0  0  0  0  0  0  0  0  0  0  0
  -22.9030  -13.6040   21.2020 C   0  0  0  0  0  0  0  0  0  0  0  0
  -22.2060  -12.9000   22.0870 N   0  0  0  0  0  0  0  0  0  0  0  0
  -22.4530  -14.6450   20.7240 O   0  0  0  0  0  0  0  0  0  0  0  0
  -22.5810  -12.0560   22.4940 H   0  0  0  0  0  0  0  0  0  0  0  0
  -21.2850  -13.2090   22.3580 H   0  0  0  0  0  0  0  0  0  0  0  0
  -25.5090  -15.2530   20.2750 N   0  0  0  0  0  0  0  0  0  0  0  0
  -24.7550  -15.9140   20.4340 H   0  0  0  0  0  0  0  0  0  0  0  0
  -26.3350  -15.6870   19.8820 H   0  0  0  0  0  0  0  0  0  0  0  0
  -28.6240  -25.6240   19.0580 C   0  0  0  0  0  2  0  0  0  0  0  0
  -28.3510  -26.5530   20.1530 O   0  0  0  0  0  0  0  0  0  0  0  0
  -24.5640  -31.8320   23.2410 C   0  0  0  0  0  0  0  0  0  0  0  0
  -27.1830  -27.3200   20.1470 C   0  0  0  0  0  0  0  0  0  0  0  0
  -23.3460  -30.4250   21.6190 C   0  0  0  0  0  3  0  0  0  0  0  0
  -24.7890  -28.8760   20.1880 C   0  0  0  0  0  0  0  0  0  0  0  0
  -25.8800  -30.7600   21.4090 C   0  0  0  0  0  2  0  0  0  0  0  0
  -25.9590  -29.3820   20.7680 C   0  0  0  0  0  0  0  0  0  0  0  0
  -27.1510  -28.6090   20.7550 C   0  0  0  0  0  3  0  0  0  0  0  0
  -25.9780  -26.8360   19.5840 C   0  0  0  0  0  3  0  0  0  0  0  0
  -24.7960  -27.5990   19.6020 C   0  0  0  0  0  3  0  0  0  0  0  0
  -23.5440  -29.7360   20.2430 C   0  0  0  0  0  2  0  0  0  0  0  0
  -24.6160  -31.0200   22.1460 N   0  0  0  0  0  0  0  0  0  0  0  0
  -23.4840  -32.1140   23.7810 O   0  0  0  0  0  0  0  0  0  0  0  0
  -22.6940  -29.4130   22.5890 C   0  0  0  0  0  0  0  0  0  0  0  0
  -21.3690  -29.2270   22.4650 N   0  0  0  0  0  0  0  0  0  0  0  0
  -23.3790  -28.7930   23.4080 O   0  0  0  0  0  0  0  0  0  0  0  0
  -20.8720  -29.7770   21.7810 H   0  0  0  0  0  0  0  0  0  0  0  0
  -17.9940  -28.0420   22.9770 C   0  0  0  0  0  0  0  0  0  0  0  0
  -20.5530  -28.2930   23.2430 C   0  0  0  0  0  3  0  0  0  0  0  0
  -20.6510  -26.8600   22.6720 C   0  0  0  0  0  2  0  0  0  0  0  0
  -19.5460  -26.5360   21.6630 C   0  0  0  0  0  2  0  0  0  0  0  0
  -18.1650  -26.6900   22.3050 C   0  0  0  0  0  2  0  0  0  0  0  0
  -19.1160  -28.8030   23.4010 C   0  0  0  0  0  0  0  0  0  0  0  0
  -18.9030  -30.0740   23.9770 C   0  0  0  0  0  3  0  0  0  0  0  0
  -17.6000  -30.5820   24.1400 C   0  0  0  0  0  3  0  0  0  0  0  0
  -16.4920  -29.8130   23.7430 C   0  0  0  0  0  3  0  0  0  0  0  0
  -16.6900  -28.5470   23.1650 C   0  0  0  0  0  3  0  0  0  0  0  0
  -25.8540  -32.4660   23.8480 C   0  0  0  0  0  3  0  0  0  0  0  0
  -26.3800  -31.6990   25.1230 C   0  0  1  0  0  0  0  0  0  0  0  0
  -25.2960  -31.4650   26.2020 C   0  0  0  0  0  1  0  0  0  0  0  0
  -26.9630  -30.3230   24.7270 C   0  0  0  0  0  1  0  0  0  0  0  0
  -27.5280  -32.5020   25.7780 C   0  0  0  0  0  1  0  0  0  0  0  0
  -25.5490  -33.8650   24.1760 N   0  0  0  0  0  0  0  0  0  0  0  0
  -25.8720  -34.9160   23.4110 C   0  0  0  0  0  0  0  0  0  0  0  0
  -26.5300  -34.8130   22.3730 O   0  0  0  0  0  0  0  0  0  0  0  0
  -24.9720  -34.0230   24.9890 H   0  0  0  0  0  0  0  0  0  0  0  0
  -24.1400  -36.7040   23.0750 C   0  0  0  0  0  1  0  0  0  0  0  0
  -25.3870  -36.3020   23.8760 C   0  0  0  0  0  3  0  0  0  0  0  0
  -27.5210  -37.1890   24.6980 C   0  0  0  0  0  1  0  0  0  0  0  0
  -26.4150  -37.3570   23.7590 N   0  0  0  0  0  0  0  0  0  0  0  0
  -26.0050  -38.2730   23.9140 H   0  0  0  0  0  0  0  0  0  0  0  0
  1  3  1  0
  2  4  1  0
  3  6  1  0
  4  6  1  0
  5  7  1  6
  5  1  1  0
  5  2  1  0
  6 10  1  0
  6  8  1  1
 10  9  1  0
 12 11  1  0
 12 10  1  0
 13 24  1  0
 13 11  2  0
 14 12  2  0
 15 14  1  0
 15 13  1  0
 16 24  1  0
 17 22  1  0
 18 19  1  0
 18 17  1  0
 20 19  1  0
 20 29  1  0
 20 21  1  0
 22 16  1  0
 22 21  1  0
 23 16  2  0
 24 25  1  0
 26 27  2  0
 27 46  1  0
 28 27  1  0
 28 31  1  0
 29 30  1  0
 29 26  1  0
 30 28  2  0
 31 32  1  0
 32 33  2  0
 34 37  1  0
 34 33  1  0
 35 34  2  0
 36 35  1  0
 36 31  2  0
 37 38  1  0
 38 39  1  0
 39 40  2  0
 41 40  1  0
 41 45  1  0
 42 41  2  0
 43 38  2  0
 43 42  1  0
 44 43  1  0
 46 47  1  0
 47 50  1  0
 47 49  1  0
 48 46  2  0
 51 52  1  0
 51 26  1  0
 53 51  1  0
 54  5  1  0
 54 55  1  0
 56 67  2  0
 57 55  1  0
 57 62  1  0
 58 66  1  0
 58 68  1  0
 59 65  1  0
 59 61  1  0
 60 66  1  0
 61 60  1  0
 62 61  2  0
 63 64  1  0
 63 57  2  0
 64 59  2  0
 65 58  1  0
 66 56  1  0
 68 70  2  0
 69 68  1  0
 71 69  1  0
 72 81  2  0
 72 77  1  0
 73 69  1  0
 73 77  1  0
 74 73  1  0
 75 76  1  0
 75 74  1  0
 76 72  1  0
 77 78  2  0
 78 79  1  0
 80 79  2  0
 81 80  1  0
 82 56  1  0
 82 87  1  0
 82 83  1  0
 83 86  1  1
 83 84  1  0
 85 83  1  0
 87 90  1  0
 88 92  1  0
 88 87  1  0
 89 88  2  0
 92 91  1  0
 94 92  1  0
 94 95  1  0
 94 93  1  0
M  ISO  4  16 100  24 100  54 101  55 101
M  END
>  <TORSDO>  (49) 
F 19

>  <SCORE>  (49) 
-14.239

>  <name>  (49) 
48

>  <ligand_id>  (49) 
48

>  <original_smiles>  (49) 
[H]c1c(C([H])(C([H])([H])[H])[N+]2([H])C([H])([H])C([H])([H])C(F)(C([H])([H])Oc3c([H])c([H])c4c(c3[H])C([H])([H])N(C(=O)C([H])(N([H])C(=O)C([H])(N([H])C([H])([H])[H])C([H])([H])[H])C(C([H])([H])[H])(C([H])([H])[H])C([H])([H])[H])C([H])(C(=O)N([H])C3([H])c5c([H])c([H])c([H])c([H])c5C([H])([H])C([H])([H])C3([H])[H])C4([H])[H])C([H])([H])C2([H])[H])noc1N([H])C(=O)N1C([H])([H])C([H])([H])C([H])([H])C([H])(n2nc(-c3c([H])c([H])c(Oc4c([H])c([H])c(F)c([H])c4F)c([H])c3[H])c(C(=O)N([H])[H])c2N([H])[H])C1([H])[H]

>  <smiles>  (49) 
[H]c1c(C([H])(C([H])([H])[H])[N+]2([H])C([H])([H])C([H])([H])C(F)(C([H])([H])Oc3c([H])c([H])c4c(c3[H])C([H])([H])N(C(=O)C([H])(N([H])C(=O)C([H])(N([H])C([H])([H])[H])C([H])([H])[H])C(C([H])([H])[H])(C([H])([H])[H])C([H])([H])[H])C([H])(C(=O)N([H])C3([H])c5c([H])c([H])c([H])c([H])c5C([H])([H])C([H])([H])C3([H])[H])C4([H])[H])C([H])([H])C2([H])[H])noc1N([H])C(=O)N1C([H])([H])C([H])([H])C([H])([H])C([H])(n2nc(-c3c([H])c([H])c(Oc4c([H])c([H])c(F)c([H])c4F)c([H])c3[H])c(C(=O)N([H])[H])c2N([H])[H])C1([H])[H]

$$$$
49:0:0
     RDKit          3D

101109  0  0  1  0  0  0  0  0999 V2000
  -30.2450  -21.1200   20.6170 C   0  0  0  0  0  0  0  0  0  0  0  0
  -29.6620  -21.9560   21.5080 N   0  0  0  0  0  0  0  0  0  0  0  0
  -30.9250  -21.6610   19.6020 N   0  0  0  0  0  4  0  0  0  0  0  0
  -28.9920  -21.5260   22.1300 H   0  0  0  0  0  0  0  0  0  0  0  0
  -31.4320  -21.0680   18.9630 H   0  0  0  0  0  0  0  0  0  0  0  0
  -30.9030  -22.6480   19.4180 H   0  0  0  0  0  0  0  0  0  0  0  0
  -29.6560  -18.8500   19.6910 C   0  0  0  0  0  3  0  0  0  0  0  0
  -30.6930  -17.5390   21.9410 C   0  0  0  0  0  3  0  0  0  0  0  0
  -30.1870  -19.6360   20.7430 C   0  0  0  0  0  0  0  0  0  0  0  0
  -30.1810  -16.7600   20.8750 C   0  0  0  0  0  0  0  0  0  0  0  0
  -29.6530  -17.4350   19.7510 C   0  0  0  0  0  0  0  0  0  0  0  0
  -30.7040  -18.9530   21.8750 C   0  0  0  0  0  0  0  0  0  0  0  0
  -29.1000  -16.7250   18.7380 F   0  0  0  0  0  0  0  0  0  0  0  0
  -31.2340  -19.6500   22.9100 F   0  0  0  0  0  0  0  0  0  0  0  0
  -30.7090  -14.4150   20.2390 C   0  0  0  0  0  0  0  0  0  0  0  0
  -30.3940  -12.2740   19.0430 C   0  0  0  0  0  2  0  0  0  0  0  0
  -29.3890  -12.4870   17.8910 C   0  0  0  0  0  2  0  0  0  0  0  0
  -27.9380  -12.3300   18.3870 C   0  0  0  0  0  2  0  0  0  0  0  0
  -27.6580  -13.1340   19.6840 C   0  0  0  0  0  3  0  0  0  0  0  0
  -28.7640  -12.8840   20.7340 C   0  0  0  0  0  2  0  0  0  0  0  0
  -30.0620  -13.2240   20.1200 N   0  0  0  0  0  0  0  0  0  0  0  0
  -31.7750  -14.6590   19.6610 O   0  0  0  0  0  0  0  0  0  0  0  0
  -30.0870  -15.3380   21.0010 N   0  0  0  0  0  0  0  0  0  0  0  0
  -29.2940  -14.9960   21.5210 H   0  0  0  0  0  0  0  0  0  0  0  0
  -25.2990  -13.7210   20.5350 C   0  0  0  0  0  0  0  0  0  0  0  0
  -24.2490  -12.9380   20.9300 C   0  0  0  0  0  0  0  0  0  0  0  0
  -24.6990  -11.5860   20.8230 C   0  0  0  0  0  0  0  0  0  0  0  0
  -26.3270  -12.8470   20.2170 N   0  0  0  0  0  0  0  0  0  0  0  0
  -25.9720  -11.5550   20.4450 N   0  0  0  0  0  0  0  0  0  0  0  0
  -23.9770  -10.3210   21.0010 C   0  0  0  0  0  0  0  0  0  0  0  0
  -24.3930   -9.3600   21.9480 C   0  0  0  0  0  3  0  0  0  0  0  0
  -23.6710   -8.1590   22.1150 C   0  0  0  0  0  3  0  0  0  0  0  0
  -22.5200   -7.9090   21.3360 C   0  0  0  0  0  0  0  0  0  0  0  0
  -22.1220   -8.8580   20.3770 C   0  0  0  0  0  3  0  0  0  0  0  0
  -22.8450  -10.0500   20.2070 C   0  0  0  0  0  3  0  0  0  0  0  0
  -21.7750   -6.7570   21.4070 O   0  0  0  0  0  0  0  0  0  0  0  0
  -21.6390   -6.0620   22.5800 C   0  0  0  0  0  0  0  0  0  0  0  0
  -21.0320   -6.6340   23.7210 C   0  0  0  0  0  3  0  0  0  0  0  0
  -20.8480   -5.8610   24.8840 C   0  0  0  0  0  3  0  0  0  0  0  0
  -21.2570   -4.5150   24.9090 C   0  0  0  0  0  0  0  0  0  0  0  0
  -21.8540   -3.9420   23.7740 C   0  0  0  0  0  3  0  0  0  0  0  0
  -22.0390   -4.7120   22.6100 C   0  0  0  0  0  0  0  0  0  0  0  0
  -22.5960   -4.1460   21.5130 F   0  0  0  0  0  0  0  0  0  0  0  0
  -21.0720   -3.7700   26.0240 F   0  0  0  0  0  0  0  0  0  0  0  0
  -22.8710  -13.4120   21.2930 C   0  0  0  0  0  0  0  0  0  0  0  0
  -22.1910  -12.6950   22.1810 N   0  0  0  0  0  0  0  0  0  0  0  0
  -22.4070  -14.4510   20.8260 O   0  0  0  0  0  0  0  0  0  0  0  0
  -22.5770  -11.8540   22.5840 H   0  0  0  0  0  0  0  0  0  0  0  0
  -21.2710  -12.9980   22.4650 H   0  0  0  0  0  0  0  0  0  0  0  0
  -25.4590  -15.0950   20.3930 N   0  0  0  0  0  0  0  0  0  0  0  0
  -24.6810  -15.7350   20.5150 H   0  0  0  0  0  0  0  0  0  0  0  0
  -26.2630  -15.5310   19.9610 H   0  0  0  0  0  0  0  0  0  0  0  0
  -29.8170  -23.4380   21.7050 C   0  0  0  0  0  3  0  0  0  0  0  0
  -30.0270  -22.7390   24.1920 C   0  0  0  0  0  1  0  0  0  0  0  0
  -29.4740  -23.7660   23.1900 C   0  0  1  0  0  0  0  0  0  0  0  0
  -29.9900  -24.9330   23.5640 F   0  0  0  0  0  0  0  0  0  0  0  0
  -28.1500  -23.8390   23.3270 F   0  0  0  0  0  0  0  0  0  0  0  0
  -28.9940  -24.2980   20.6740 C   0  0  0  0  0  0  0  0  0  0  0  0
  -28.4510  -23.7790   19.6930 O   0  0  0  0  0  0  0  0  0  0  0  0
  -28.9010  -25.8400   20.8730 C   0  0  0  0  0  2  0  0  0  0  0  0
  -28.4220  -26.5200   19.6960 O   0  0  0  0  0  0  0  0  0  0  0  0
  -24.6650  -31.6650   23.0090 C   0  0  0  0  0  0  0  0  0  0  0  0
  -27.2710  -27.2710   19.8210 C   0  0  0  0  0  0  0  0  0  0  0  0
  -23.4390  -30.3050   21.3450 C   0  0  0  0  0  3  0  0  0  0  0  0
  -24.8800  -28.7880   19.8810 C   0  0  0  0  0  0  0  0  0  0  0  0
  -25.9660  -30.6550   21.1360 C   0  0  0  0  0  2  0  0  0  0  0  0
  -26.0440  -29.2920   20.4760 C   0  0  0  0  0  0  0  0  0  0  0  0
  -27.2420  -28.5380   20.4540 C   0  0  0  0  0  3  0  0  0  0  0  0
  -26.0950  -26.7860   19.2160 C   0  0  0  0  0  3  0  0  0  0  0  0
  -24.9000  -27.5310   19.2500 C   0  0  0  0  0  3  0  0  0  0  0  0
  -23.6380  -29.6510   19.9510 C   0  0  0  0  0  2  0  0  0  0  0  0
  -24.7090  -30.8920   21.8880 N   0  0  0  0  0  0  0  0  0  0  0  0
  -23.5910  -31.9300   23.5650 O   0  0  0  0  0  0  0  0  0  0  0  0
  -22.7900  -29.2680   22.2890 C   0  0  0  0  0  0  0  0  0  0  0  0
  -21.4610  -29.1120   22.1850 N   0  0  0  0  0  0  0  0  0  0  0  0
  -23.4810  -28.6070   23.0690 O   0  0  0  0  0  0  0  0  0  0  0  0
  -20.9650  -29.6950   21.5260 H   0  0  0  0  0  0  0  0  0  0  0  0
  -18.0740  -28.0050   22.7730 C   0  0  0  0  0  0  0  0  0  0  0  0
  -20.6470  -28.1620   22.9420 C   0  0  0  0  0  3  0  0  0  0  0  0
  -20.6740  -26.7590   22.2940 C   0  0  0  0  0  2  0  0  0  0  0  0
  -19.5200  -26.5290   21.3130 C   0  0  0  0  0  2  0  0  0  0  0  0
  -18.1740  -26.6860   22.0250 C   0  0  0  0  0  2  0  0  0  0  0  0
  -19.2350  -28.7060   23.1900 C   0  0  0  0  0  0  0  0  0  0  0  0
  -19.0870  -29.9440   23.8510 C   0  0  0  0  0  3  0  0  0  0  0  0
  -17.8100  -30.4790   24.1000 C   0  0  0  0  0  3  0  0  0  0  0  0
  -16.6640  -29.7730   23.6970 C   0  0  0  0  0  3  0  0  0  0  0  0
  -16.7960  -28.5360   23.0400 C   0  0  0  0  0  3  0  0  0  0  0  0
  -25.9590  -32.2770   23.6300 C   0  0  0  0  0  3  0  0  0  0  0  0
  -25.6430  -33.6490   24.0500 N   0  0  0  0  0  0  0  0  0  0  0  0
  -25.9420  -34.7470   23.3460 C   0  0  0  0  0  0  0  0  0  0  0  0
  -26.5860  -34.7130   22.2930 O   0  0  0  0  0  0  0  0  0  0  0  0
  -25.0670  -33.7460   24.8740 H   0  0  0  0  0  0  0  0  0  0  0  0
  -24.1840  -36.5330   23.1430 C   0  0  0  0  0  1  0  0  0  0  0  0
  -25.4500  -36.1000   23.8990 C   0  0  0  0  0  3  0  0  0  0  0  0
  -27.5880  -36.9730   24.7340 C   0  0  0  0  0  1  0  0  0  0  0  0
  -26.4660  -37.1720   23.8230 N   0  0  0  0  0  0  0  0  0  0  0  0
  -26.0480  -38.0770   24.0270 H   0  0  0  0  0  0  0  0  0  0  0  0
  -26.5230  -31.4390   24.8440 C   0  0  1  0  0  0  0  0  0  0  0  0
  -25.4660  -31.1260   25.9300 C   0  0  0  0  0  1  0  0  0  0  0  0
  -27.1090  -30.0930   24.3530 C   0  0  0  0  0  1  0  0  0  0  0  0
  -27.6800  -32.2100   25.5210 C   0  0  0  0  0  1  0  0  0  0  0  0
  1  9  1  0
  1  2  1  0
  2 53  1  0
  2  4  1  0
  3  1  2  0
  5  3  1  0
  6  3  1  0
  7 11  2  0
  7  9  1  0
  9 12  2  0
 10 23  1  0
 10  8  2  0
 11 10  1  0
 12  8  1  0
 12 14  1  0
 13 11  1  0
 15 23  1  0
 16 21  1  0
 17 18  1  0
 17 16  1  0
 19 18  1  0
 19 28  1  0
 19 20  1  0
 21 15  1  0
 21 20  1  0
 22 15  2  0
 23 24  1  0
 25 26  2  0
 26 45  1  0
 27 26  1  0
 27 30  1  0
 28 29  1  0
 28 25  1  0
 29 27  2  0
 30 31  1  0
 31 32  2  0
 33 36  1  0
 33 32  1  0
 34 33  2  0
 35 34  1  0
 35 30  2  0
 36 37  1  0
 37 42  2  0
 37 38  1  0
 38 39  2  0
 39 40  1  0
 40 44  1  0
 41 40  2  0
 42 41  1  0
 43 42  1  0
 45 46  1  0
 46 49  1  0
 46 48  1  0
 47 45  2  0
 50 51  1  0
 50 25  1  0
 52 50  1  0
 53 58  1  0
 53 55  1  0
 55 57  1  0
 55 56  1  0
 55 54  1  1
 58 60  1  0
 59 58  2  0
 61 63  1  0
 61 60  1  0
 62 73  2  0
 63 68  1  0
 64 72  1  0
 64 74  1  0
 65 71  1  0
 65 67  1  0
 66 72  1  0
 67 66  1  0
 68 67  2  0
 69 70  1  0
 69 63  2  0
 70 65  2  0
 71 64  1  0
 72 62  1  0
 74 76  2  0
 75 74  1  0
 77 75  1  0
 78 87  2  0
 78 83  1  0
 79 75  1  0
 79 83  1  0
 80 79  1  0
 81 82  1  0
 81 80  1  0
 82 78  1  0
 83 84  2  0
 84 85  1  0
 86 85  2  0
 87 86  1  0
 88 62  1  0
 88 89  1  0
 88 98  1  0
 89 92  1  0
 90 94  1  0
 90 89  1  0
 91 90  2  0
 94 93  1  0
 96 94  1  0
 96 97  1  0
 96 95  1  0
 98101  1  1
 98 99  1  0
100 98  1  0
M  ISO  4  15 100  23 100  60 101  61 101
M  END
>  <TORSDO>  (50) 
F 21

>  <SCORE>  (50) 
-12.829

>  <name>  (50) 
49

>  <ligand_id>  (50) 
49

>  <original_smiles>  (50) 
[H]c1c([H])c([H])c2c(c1[H])C([H])([H])C([H])([H])C([H])([H])C2([H])N([H])C(=O)C1([H])N(C(=O)C([H])(N([H])C(=O)C([H])(N([H])C([H])([H])[H])C([H])([H])[H])C(C([H])([H])[H])(C([H])([H])[H])C([H])([H])[H])C([H])([H])c2c([H])c(OC([H])([H])C(=O)C([H])(N([H])C(c3c([H])c(F)c(N([H])C(=O)N4C([H])([H])C([H])([H])C([H])([H])C([H])(n5nc(-c6c([H])c([H])c(Oc7c([H])c([H])c(F)c([H])c7F)c([H])c6[H])c(C(=O)N([H])[H])c5N([H])[H])C4([H])[H])c([H])c3F)=[N+]([H])[H])C(F)(F)C([H])([H])[H])c([H])c([H])c2C1([H])[H]

>  <smiles>  (50) 
[H]c1c([H])c([H])c2c(c1[H])C([H])([H])C([H])([H])C([H])([H])C2([H])N([H])C(=O)C1([H])N(C(=O)C([H])(N([H])C(=O)C([H])(N([H])C([H])([H])[H])C([H])([H])[H])C(C([H])([H])[H])(C([H])([H])[H])C([H])([H])[H])C([H])([H])c2c([H])c(OC([H])([H])C(=O)C([H])(N([H])C(c3c([H])c(F)c(N([H])C(=O)N4C([H])([H])C([H])([H])C([H])([H])C([H])(n5nc(-c6c([H])c([H])c(Oc7c([H])c([H])c(F)c([H])c7F)c([H])c6[H])c(C(=O)N([H])[H])c5N([H])[H])C4([H])[H])c([H])c3F)=[N+]([H])[H])C(F)(F)C([H])([H])[H])c([H])c([H])c2C1([H])[H]

$$$$
50:0:0
     RDKit          3D

 97105  0  0  1  0  0  0  0  0999 V2000
  -28.7130  -22.4360   20.4650 C   0  0  0  0  0  0  0  0  0  0  0  0
  -29.6780  -21.4990   20.1010 N   0  0  0  0  0  0  0  0  0  0  0  0
  -27.6980  -22.0540   21.0510 O   0  0  0  0  0  0  0  0  0  0  0  0
  -30.4900  -21.9020   19.6610 H   0  0  0  0  0  0  0  0  0  0  0  0
  -31.1870  -18.0610   20.1300 C   0  0  0  0  0  3  0  0  0  0  0  0
  -31.1100  -19.5140   20.0600 C   0  0  0  0  0  0  0  0  0  0  0  0
  -30.0090  -17.3860   20.3880 C   0  0  0  0  0  0  0  0  0  0  0  0
  -29.8700  -20.0990   20.2340 C   0  0  0  0  0  0  0  0  0  0  0  0
  -28.7630  -18.7060   20.5430 S   0  0  0  0  0  0  0  0  0  0  0  0
  -30.5590  -14.8570   20.2700 C   0  0  0  0  0  0  0  0  0  0  0  0
  -30.3710  -12.5620   19.2680 C   0  0  0  0  0  2  0  0  0  0  0  0
  -29.4080  -12.6050   18.0610 C   0  0  0  0  0  2  0  0  0  0  0  0
  -27.9500  -12.4150   18.5220 C   0  0  0  0  0  2  0  0  0  0  0  0
  -27.5880  -13.3050   19.7400 C   0  0  0  0  0  3  0  0  0  0  0  0
  -28.6700  -13.2390   20.8410 C   0  0  0  0  0  2  0  0  0  0  0  0
  -29.9470  -13.6170   20.2220 N   0  0  0  0  0  0  0  0  0  0  0  0
  -31.7400  -14.9510   19.9260 O   0  0  0  0  0  0  0  0  0  0  0  0
  -29.7710  -15.9900   20.5120 N   0  0  0  0  0  0  0  0  0  0  0  0
  -28.8250  -15.7510   20.7660 H   0  0  0  0  0  0  0  0  0  0  0  0
  -25.2190  -13.8830   20.5350 C   0  0  0  0  0  0  0  0  0  0  0  0
  -24.1610  -13.1030   20.9160 C   0  0  0  0  0  0  0  0  0  0  0  0
  -24.6210  -11.7520   20.8490 C   0  0  0  0  0  0  0  0  0  0  0  0
  -26.2550  -13.0070   20.2580 N   0  0  0  0  0  0  0  0  0  0  0  0
  -25.9050  -11.7200   20.5120 N   0  0  0  0  0  0  0  0  0  0  0  0
  -23.8960  -10.4860   21.0300 C   0  0  0  0  0  0  0  0  0  0  0  0
  -24.3250   -9.5180   21.9640 C   0  0  0  0  0  3  0  0  0  0  0  0
  -23.5990   -8.3190   22.1350 C   0  0  0  0  0  3  0  0  0  0  0  0
  -22.4320   -8.0800   21.3730 C   0  0  0  0  0  0  0  0  0  0  0  0
  -22.0220   -9.0390   20.4300 C   0  0  0  0  0  3  0  0  0  0  0  0
  -22.7470  -10.2290   20.2560 C   0  0  0  0  0  3  0  0  0  0  0  0
  -21.6800   -6.9330   21.4510 O   0  0  0  0  0  0  0  0  0  0  0  0
  -21.5940   -6.2080   22.6130 C   0  0  0  0  0  0  0  0  0  0  0  0
  -21.0990   -6.7730   23.8090 C   0  0  0  0  0  3  0  0  0  0  0  0
  -20.9620   -5.9730   24.9610 C   0  0  0  0  0  3  0  0  0  0  0  0
  -21.3090   -4.6090   24.9180 C   0  0  0  0  0  0  0  0  0  0  0  0
  -21.7970   -4.0440   23.7280 C   0  0  0  0  0  3  0  0  0  0  0  0
  -21.9360   -4.8420   22.5770 C   0  0  0  0  0  0  0  0  0  0  0  0
  -22.3860   -4.2860   21.4260 F   0  0  0  0  0  0  0  0  0  0  0  0
  -21.1710   -3.8380   26.0220 F   0  0  0  0  0  0  0  0  0  0  0  0
  -22.7700  -13.5770   21.2240 C   0  0  0  0  0  0  0  0  0  0  0  0
  -22.0580  -12.8650   22.0900 N   0  0  0  0  0  0  0  0  0  0  0  0
  -22.3240  -14.6120   20.7320 O   0  0  0  0  0  0  0  0  0  0  0  0
  -22.4320  -12.0250   22.5080 H   0  0  0  0  0  0  0  0  0  0  0  0
  -21.1260  -13.1650   22.3390 H   0  0  0  0  0  0  0  0  0  0  0  0
  -25.3830  -15.2560   20.3770 N   0  0  0  0  0  0  0  0  0  0  0  0
  -24.6160  -15.9060   20.5100 H   0  0  0  0  0  0  0  0  0  0  0  0
  -26.2040  -15.6930   19.9800 H   0  0  0  0  0  0  0  0  0  0  0  0
  -32.2710  -20.2620   19.8210 N   0  0  0  0  0  0  0  0  0  0  0  0
  -33.1330  -19.7240   19.8050 H   0  0  0  0  0  0  0  0  0  0  0  0
  -32.3950  -21.0770   20.4140 H   0  0  0  0  0  0  0  0  0  0  0  0
  -28.1100  -24.9780   20.4590 C   0  0  0  0  0  3  0  0  0  0  0  0
  -28.9530  -23.9130   20.1280 C   0  0  0  0  0  0  0  0  0  0  0  0
  -30.1570  -24.3290   19.3830 N   0  0  0  0  0  4  0  0  0  0  0  0
  -30.0880  -25.3070   19.1670 H   0  0  0  0  0  0  0  0  0  0  0  0
  -30.9910  -24.2010   19.9270 H   0  0  0  0  0  0  0  0  0  0  0  0
  -30.2400  -23.8350   18.5140 H   0  0  0  0  0  0  0  0  0  0  0  0
  -28.2990  -26.3830   20.1980 O   0  0  0  0  0  0  0  0  0  0  0  0
  -24.6380  -31.9310   23.2380 C   0  0  0  0  0  0  0  0  0  0  0  0
  -27.2060  -27.2910   20.1950 C   0  0  0  0  0  0  0  0  0  0  0  0
  -23.4210  -30.5310   21.6080 C   0  0  0  0  0  3  0  0  0  0  0  0
  -24.8580  -28.9610   20.1790 C   0  0  0  0  0  0  0  0  0  0  0  0
  -25.9640  -30.8250   21.4100 C   0  0  0  0  0  2  0  0  0  0  0  0
  -26.0360  -29.4340   20.7740 C   0  0  0  0  0  0  0  0  0  0  0  0
  -27.2120  -28.6110   20.7710 C   0  0  0  0  0  3  0  0  0  0  0  0
  -26.0080  -26.8930   19.5660 C   0  0  0  0  0  3  0  0  0  0  0  0
  -24.8500  -27.6980   19.5640 C   0  0  0  0  0  3  0  0  0  0  0  0
  -23.6300  -29.8490   20.2280 C   0  0  0  0  0  2  0  0  0  0  0  0
  -24.6950  -31.1150   22.1420 N   0  0  0  0  0  0  0  0  0  0  0  0
  -23.5590  -32.2140   23.7770 O   0  0  0  0  0  0  0  0  0  0  0  0
  -22.7560  -29.5220   22.5750 C   0  0  0  0  0  0  0  0  0  0  0  0
  -21.4280  -29.3440   22.4540 N   0  0  0  0  0  0  0  0  0  0  0  0
  -23.4340  -28.9010   23.3980 O   0  0  0  0  0  0  0  0  0  0  0  0
  -20.9380  -29.9030   21.7680 H   0  0  0  0  0  0  0  0  0  0  0  0
  -18.0530  -28.1410   22.9700 C   0  0  0  0  0  0  0  0  0  0  0  0
  -20.6130  -28.4080   23.2320 C   0  0  0  0  0  3  0  0  0  0  0  0
  -20.7150  -26.9720   22.6660 C   0  0  0  0  0  2  0  0  0  0  0  0
  -19.6100  -26.6410   21.6580 C   0  0  0  0  0  2  0  0  0  0  0  0
  -18.2290  -26.7890   22.3020 C   0  0  0  0  0  2  0  0  0  0  0  0
  -19.1710  -28.9080   23.3930 C   0  0  0  0  0  0  0  0  0  0  0  0
  -18.9500  -30.1740   23.9780 C   0  0  0  0  0  3  0  0  0  0  0  0
  -17.6440  -30.6720   24.1450 C   0  0  0  0  0  3  0  0  0  0  0  0
  -16.5420  -29.9040   23.7340 C   0  0  0  0  0  3  0  0  0  0  0  0
  -16.7460  -28.6400   23.1530 C   0  0  0  0  0  3  0  0  0  0  0  0
  -25.9260  -32.5620   23.8500 C   0  0  0  0  0  3  0  0  0  0  0  0
  -26.4570  -31.7820   25.1140 C   0  0  1  0  0  0  0  0  0  0  0  0
  -25.3770  -31.5370   26.1930 C   0  0  0  0  0  1  0  0  0  0  0  0
  -27.0400  -30.4110   24.7050 C   0  0  0  0  0  1  0  0  0  0  0  0
  -27.6120  -32.5750   25.7720 C   0  0  0  0  0  1  0  0  0  0  0  0
  -25.6170  -33.9580   24.1990 N   0  0  0  0  0  0  0  0  0  0  0  0
  -25.9150  -35.0170   23.4360 C   0  0  0  0  0  0  0  0  0  0  0  0
  -26.5490  -34.9240   22.3820 O   0  0  0  0  0  0  0  0  0  0  0  0
  -25.0480  -34.1040   25.0200 H   0  0  0  0  0  0  0  0  0  0  0  0
  -24.1630  -36.8010   23.1530 C   0  0  0  0  0  1  0  0  0  0  0  0
  -25.4350  -36.4000   23.9180 C   0  0  0  0  0  3  0  0  0  0  0  0
  -27.5880  -37.2980   24.6790 C   0  0  0  0  0  1  0  0  0  0  0  0
  -26.4550  -37.4620   23.7740 N   0  0  0  0  0  0  0  0  0  0  0  0
  -26.0480  -38.3800   23.9380 H   0  0  0  0  0  0  0  0  0  0  0  0
  1  3  2  0
  2  8  1  0
  2  1  1  0
  4  2  1  0
  5  7  2  0
  6  5  1  0
  6  8  2  0
  7 18  1  0
  7  9  1  0
  8  9  1  0
 10 18  1  0
 11 16  1  0
 12 13  1  0
 12 11  1  0
 14 13  1  0
 14 23  1  0
 14 15  1  0
 16 10  1  0
 16 15  1  0
 17 10  2  0
 18 19  1  0
 20 21  2  0
 21 40  1  0
 22 21  1  0
 22 25  1  0
 23 24  1  0
 23 20  1  0
 24 22  2  0
 25 26  1  0
 26 27  2  0
 28 31  1  0
 28 27  1  0
 29 28  2  0
 30 29  1  0
 30 25  2  0
 31 32  1  0
 32 33  1  0
 33 34  2  0
 35 34  1  0
 35 39  1  0
 36 35  2  0
 37 32  2  0
 37 36  1  0
 38 37  1  0
 40 41  1  0
 41 44  1  0
 41 43  1  0
 42 40  2  0
 45 46  1  0
 45 20  1  0
 47 45  1  0
 48  6  1  0
 48 50  1  0
 49 48  1  0
 52 51  2  0
 52  1  1  0
 53 55  1  0
 53 52  1  0
 54 53  1  0
 56 53  1  0
 57 51  1  0
 58 69  2  0
 59 57  1  0
 59 64  1  0
 60 68  1  0
 60 70  1  0
 61 67  1  0
 61 63  1  0
 62 68  1  0
 63 62  1  0
 64 63  2  0
 65 59  2  0
 66 65  1  0
 66 61  2  0
 67 60  1  0
 68 58  1  0
 70 72  2  0
 71 70  1  0
 73 71  1  0
 74 83  2  0
 74 79  1  0
 75 71  1  0
 75 79  1  0
 76 75  1  0
 77 78  1  0
 77 76  1  0
 78 74  1  0
 79 80  2  0
 80 81  1  0
 82 81  2  0
 83 82  1  0
 84 58  1  0
 84 89  1  0
 84 85  1  0
 85 88  1  1
 85 86  1  0
 87 85  1  0
 89 92  1  0
 90 94  1  0
 90 89  1  0
 91 90  2  0
 94 93  1  0
 96 94  1  0
 96 97  1  0
 96 95  1  0
M  ISO  4  10 100  18 100  51 101  57 101
M  END
>  <TORSDO>  (51) 
F 20

>  <SCORE>  (51) 
-14.239

>  <name>  (51) 
50

>  <ligand_id>  (51) 
50

>  <original_smiles>  (51) 
[H]C(Oc1c([H])c([H])c2c(c1[H])C([H])([H])N(C(=O)C([H])(N([H])C(=O)C([H])(N([H])C([H])([H])[H])C([H])([H])[H])C(C([H])([H])[H])(C([H])([H])[H])C([H])([H])[H])C([H])(C(=O)N([H])C1([H])c3c([H])c([H])c([H])c([H])c3C([H])([H])C([H])([H])C1([H])[H])C2([H])[H])=C(C(=O)N([H])c1sc(N([H])C(=O)N2C([H])([H])C([H])([H])C([H])([H])C([H])(n3nc(-c4c([H])c([H])c(Oc5c([H])c([H])c(F)c([H])c5F)c([H])c4[H])c(C(=O)N([H])[H])c3N([H])[H])C2([H])[H])c([H])c1N([H])[H])[N+]([H])([H])[H]

>  <smiles>  (51) 
[H]C(Oc1c([H])c([H])c2c(c1[H])C([H])([H])N(C(=O)C([H])(N([H])C(=O)C([H])(N([H])C([H])([H])[H])C([H])([H])[H])C(C([H])([H])[H])(C([H])([H])[H])C([H])([H])[H])C([H])(C(=O)N([H])C1([H])c3c([H])c([H])c([H])c([H])c3C([H])([H])C([H])([H])C1([H])[H])C2([H])[H])=C(C(=O)N([H])c1sc(N([H])C(=O)N2C([H])([H])C([H])([H])C([H])([H])C([H])(n3nc(-c4c([H])c([H])c(Oc5c([H])c([H])c(F)c([H])c5F)c([H])c4[H])c(C(=O)N([H])[H])c3N([H])[H])C2([H])[H])c([H])c1N([H])[H])[N+]([H])([H])[H]

$$$$
51:0:0
     RDKit          3D

 97105  0  0  1  0  0  0  0  0999 V2000
  -28.9370  -21.6490   20.0170 C   0  0  0  0  0  0  0  0  0  0  0  0
  -30.0670  -20.8980   20.0390 N   0  0  0  0  0  0  0  0  0  0  0  0
  -27.8290  -21.1720   20.2750 O   0  0  0  0  0  0  0  0  0  0  0  0
  -30.9090  -21.4420   19.9090 H   0  0  0  0  0  0  0  0  0  0  0  0
  -30.4970  -19.2220   18.3470 C   0  0  0  0  0  3  0  0  0  0  0  0
  -30.8130  -16.8660   18.8620 C   0  0  0  0  0  3  0  0  0  0  0  0
  -30.1970  -18.4240   20.6390 C   0  0  0  0  0  3  0  0  0  0  0  0
  -30.8070  -17.9160   17.9200 C   0  0  0  0  0  0  0  0  0  0  0  0
  -30.1960  -19.5040   19.6980 C   0  0  0  0  0  0  0  0  0  0  0  0
  -30.5150  -17.0870   20.2270 C   0  0  0  0  0  0  0  0  0  0  0  0
  -31.2260  -14.8150   20.9420 C   0  0  0  0  0  0  0  0  0  0  0  0
  -31.0090  -12.5840   19.9240 C   0  0  0  0  0  2  0  0  0  0  0  0
  -30.2090  -12.7260   18.6100 C   0  0  0  0  0  2  0  0  0  0  0  0
  -28.6940  -12.6530   18.8780 C   0  0  0  0  0  2  0  0  0  0  0  0
  -28.2400  -13.5570   20.0570 C   0  0  0  0  0  3  0  0  0  0  0  0
  -29.1650  -13.3920   21.2860 C   0  0  0  0  0  2  0  0  0  0  0  0
  -30.5460  -13.6370   20.8460 N   0  0  0  0  0  0  0  0  0  0  0  0
  -32.4290  -14.9020   20.6860 O   0  0  0  0  0  0  0  0  0  0  0  0
  -30.4800  -15.9400   21.1110 N   0  0  0  0  0  0  0  0  0  0  0  0
  -29.5850  -15.7760   21.5480 H   0  0  0  0  0  0  0  0  0  0  0  0
  -25.8020  -14.2490   20.4920 C   0  0  0  0  0  0  0  0  0  0  0  0
  -24.6740  -13.5180   20.7580 C   0  0  0  0  0  0  0  0  0  0  0  0
  -25.0930  -12.1530   20.8060 C   0  0  0  0  0  0  0  0  0  0  0  0
  -26.8360  -13.3300   20.3950 N   0  0  0  0  0  0  0  0  0  0  0  0
  -26.4070  -12.0660   20.6430 N   0  0  0  0  0  0  0  0  0  0  0  0
  -24.3110  -10.9180   20.9400 C   0  0  0  0  0  0  0  0  0  0  0  0
  -24.6360   -9.9360   21.9020 C   0  0  0  0  0  3  0  0  0  0  0  0
  -23.8560   -8.7660   22.0220 C   0  0  0  0  0  3  0  0  0  0  0  0
  -22.7380   -8.5690   21.1780 C   0  0  0  0  0  0  0  0  0  0  0  0
  -22.4320   -9.5380   20.2060 C   0  0  0  0  0  3  0  0  0  0  0  0
  -23.2130  -10.6990   20.0840 C   0  0  0  0  0  3  0  0  0  0  0  0
  -21.9400   -7.4500   21.2050 O   0  0  0  0  0  0  0  0  0  0  0  0
  -21.7870   -6.7020   22.3450 C   0  0  0  0  0  0  0  0  0  0  0  0
  -21.3290   -7.2700   23.5530 C   0  0  0  0  0  3  0  0  0  0  0  0
  -21.1190   -6.4520   24.6810 C   0  0  0  0  0  3  0  0  0  0  0  0
  -21.3590   -5.0670   24.6030 C   0  0  0  0  0  0  0  0  0  0  0  0
  -21.8100   -4.4980   23.3980 C   0  0  0  0  0  3  0  0  0  0  0  0
  -22.0200   -5.3140   22.2710 C   0  0  0  0  0  0  0  0  0  0  0  0
  -22.4350   -4.7560   21.1080 F   0  0  0  0  0  0  0  0  0  0  0  0
  -21.1510   -4.2800   25.6840 F   0  0  0  0  0  0  0  0  0  0  0  0
  -23.2720  -14.0430   20.8670 C   0  0  0  0  0  0  0  0  0  0  0  0
  -22.4380  -13.4020   21.6760 N   0  0  0  0  0  0  0  0  0  0  0  0
  -22.9230  -15.0630   20.2720 O   0  0  0  0  0  0  0  0  0  0  0  0
  -22.7310  -12.5780   22.1790 H   0  0  0  0  0  0  0  0  0  0  0  0
  -21.4940  -13.7400   21.7930 H   0  0  0  0  0  0  0  0  0  0  0  0
  -26.0360  -15.6090   20.3100 N   0  0  0  0  0  0  0  0  0  0  0  0
  -25.2940  -16.2990   20.3190 H   0  0  0  0  0  0  0  0  0  0  0  0
  -26.9380  -16.0040   20.0680 H   0  0  0  0  0  0  0  0  0  0  0  0
  -31.1320  -17.6800   16.4950 C   0  0  0  0  0  3  0  0  0  0  0  0
  -31.6760  -16.6390   16.0250 N   0  0  0  0  0  0  0  0  0  0  0  0
  -31.8890  -15.9570   16.7440 H   0  0  0  0  0  0  0  0  0  0  0  0
  -29.1730  -23.0680   19.6690 C   0  0  0  0  0  3  0  0  0  0  0  0
  -28.2780  -24.0960   19.8130 C   0  0  0  0  0  0  0  0  0  0  0  0
  -27.0670  -23.9620   20.3800 O   0  0  0  0  0  0  0  0  0  0  0  0
  -26.9650  -23.0460   20.6210 H   0  0  0  0  0  0  0  0  0  0  0  0
  -28.4870  -25.5520   19.3070 C   0  0  0  0  0  2  0  0  0  0  0  0
  -28.2690  -26.6500   20.2400 O   0  0  0  0  0  0  0  0  0  0  0  0
  -24.5850  -31.9470   23.3550 C   0  0  0  0  0  0  0  0  0  0  0  0
  -27.1120  -27.4260   20.2100 C   0  0  0  0  0  0  0  0  0  0  0  0
  -23.3390  -30.5700   21.7230 C   0  0  0  0  0  3  0  0  0  0  0  0
  -24.7480  -29.0140   20.2670 C   0  0  0  0  0  0  0  0  0  0  0  0
  -25.8730  -30.8720   21.5030 C   0  0  0  0  0  2  0  0  0  0  0  0
  -25.9250  -29.5000   20.8500 C   0  0  0  0  0  0  0  0  0  0  0  0
  -27.1040  -28.7090   20.8240 C   0  0  0  0  0  3  0  0  0  0  0  0
  -25.9110  -26.9710   19.6210 C   0  0  0  0  0  3  0  0  0  0  0  0
  -24.7400  -27.7520   19.6510 C   0  0  0  0  0  3  0  0  0  0  0  0
  -23.5210  -29.8980   20.3360 C   0  0  0  0  0  2  0  0  0  0  0  0
  -24.6190  -31.1460   22.2510 N   0  0  0  0  0  0  0  0  0  0  0  0
  -23.5140  -32.2350   23.9070 O   0  0  0  0  0  0  0  0  0  0  0  0
  -22.6820  -29.5570   22.6870 C   0  0  0  0  0  0  0  0  0  0  0  0
  -21.3630  -29.3530   22.5350 N   0  0  0  0  0  0  0  0  0  0  0  0
  -23.3560  -28.9560   23.5280 O   0  0  0  0  0  0  0  0  0  0  0  0
  -20.8810  -29.8910   21.8290 H   0  0  0  0  0  0  0  0  0  0  0  0
  -18.0090  -28.0630   22.9300 C   0  0  0  0  0  0  0  0  0  0  0  0
  -20.5430  -28.4150   23.3010 C   0  0  0  0  0  3  0  0  0  0  0  0
  -20.7160  -26.9690   22.7810 C   0  0  0  0  0  2  0  0  0  0  0  0
  -19.6710  -26.5760   21.7330 C   0  0  0  0  0  2  0  0  0  0  0  0
  -18.2570  -26.6980   22.3110 C   0  0  0  0  0  2  0  0  0  0  0  0
  -19.0830  -28.8750   23.3800 C   0  0  0  0  0  0  0  0  0  0  0  0
  -18.7970  -30.1500   23.9160 C   0  0  0  0  0  3  0  0  0  0  0  0
  -17.4710  -30.6130   24.0080 C   0  0  0  0  0  3  0  0  0  0  0  0
  -16.4110  -29.7960   23.5760 C   0  0  0  0  0  3  0  0  0  0  0  0
  -16.6810  -28.5230   23.0420 C   0  0  0  0  0  3  0  0  0  0  0  0
  -25.8870  -32.5560   23.9640 C   0  0  0  0  0  3  0  0  0  0  0  0
  -25.6020  -33.9560   24.3020 N   0  0  0  0  0  0  0  0  0  0  0  0
  -25.9510  -35.0070   23.5480 C   0  0  0  0  0  0  0  0  0  0  0  0
  -26.6180  -34.8980   22.5140 O   0  0  0  0  0  0  0  0  0  0  0  0
  -25.0140  -34.1180   25.1060 H   0  0  0  0  0  0  0  0  0  0  0  0
  -24.2480  -36.8280   23.2140 C   0  0  0  0  0  1  0  0  0  0  0  0
  -25.4900  -36.4020   24.0130 C   0  0  0  0  0  3  0  0  0  0  0  0
  -27.6490  -37.2480   24.8230 C   0  0  0  0  0  1  0  0  0  0  0  0
  -26.5380  -37.4400   23.8940 N   0  0  0  0  0  0  0  0  0  0  0  0
  -26.1480  -38.3650   24.0520 H   0  0  0  0  0  0  0  0  0  0  0  0
  -26.4080  -31.7710   25.2300 C   0  0  1  0  0  0  0  0  0  0  0  0
  -25.3200  -31.5260   26.3030 C   0  0  0  0  0  1  0  0  0  0  0  0
  -26.9830  -30.3950   24.8210 C   0  0  0  0  0  1  0  0  0  0  0  0
  -27.5640  -32.5560   25.8930 C   0  0  0  0  0  1  0  0  0  0  0  0
  1  2  1  0
  1  3  2  0
  4  2  1  0
  5  9  1  0
  6 10  2  0
  8  5  2  0
  8  6  1  0
  9  2  1  0
  9  7  2  0
 10  7  1  0
 10 19  1  0
 11 19  1  0
 12 17  1  0
 13 14  1  0
 13 12  1  0
 15 14  1  0
 15 24  1  0
 15 16  1  0
 17 11  1  0
 17 16  1  0
 18 11  2  0
 19 20  1  0
 21 22  2  0
 22 23  1  0
 22 41  1  0
 23 26  1  0
 24 21  1  0
 24 25  1  0
 25 23  2  0
 26 27  1  0
 27 28  2  0
 29 32  1  0
 29 28  1  0
 30 29  2  0
 31 30  1  0
 31 26  2  0
 32 33  1  0
 33 34  1  0
 34 35  2  0
 36 35  1  0
 36 40  1  0
 37 36  2  0
 38 33  2  0
 38 37  1  0
 39 38  1  0
 41 42  1  0
 42 45  1  0
 42 44  1  0
 43 41  2  0
 46 47  1  0
 46 21  1  0
 48 46  1  0
 49  8  1  0
 50 49  2  0
 50 51  1  0
 52 53  2  0
 52  1  1  0
 53 54  1  0
 54 55  1  0
 56 53  1  0
 56 57  1  0
 58 69  2  0
 59 57  1  0
 59 64  1  0
 60 68  1  0
 60 70  1  0
 61 67  1  0
 61 63  1  0
 62 68  1  0
 63 62  1  0
 64 63  2  0
 65 66  1  0
 65 59  2  0
 66 61  2  0
 67 60  1  0
 68 58  1  0
 70 72  2  0
 71 70  1  0
 73 71  1  0
 74 83  2  0
 74 79  1  0
 75 71  1  0
 75 79  1  0
 76 75  1  0
 77 78  1  0
 77 76  1  0
 78 74  1  0
 79 80  2  0
 80 81  1  0
 82 81  2  0
 83 82  1  0
 84 58  1  0
 84 85  1  0
 84 94  1  0
 85 88  1  0
 86 90  1  0
 86 85  1  0
 87 86  2  0
 90 89  1  0
 92 90  1  0
 92 93  1  0
 92 91  1  0
 94 97  1  1
 94 95  1  0
 96 94  1  0
M  ISO  4  11 100  19 100  56 101  57 101
M  END
>  <TORSDO>  (52) 
F 21

>  <SCORE>  (52) 
-13.198

>  <name>  (52) 
51

>  <ligand_id>  (52) 
51

>  <original_smiles>  (52) 
[H]N=C([H])c1c([H])c(N([H])C(=O)C([H])=C(O[H])C([H])([H])Oc2c([H])c([H])c3c(c2[H])C([H])([H])N(C(=O)C([H])(N([H])C(=O)C([H])(N([H])C([H])([H])[H])C([H])([H])[H])C(C([H])([H])[H])(C([H])([H])[H])C([H])([H])[H])C([H])(C(=O)N([H])C2([H])c4c([H])c([H])c([H])c([H])c4C([H])([H])C([H])([H])C2([H])[H])C3([H])[H])c([H])c(N([H])C(=O)N2C([H])([H])C([H])([H])C([H])([H])C([H])(n3nc(-c4c([H])c([H])c(Oc5c([H])c([H])c(F)c([H])c5F)c([H])c4[H])c(C(=O)N([H])[H])c3N([H])[H])C2([H])[H])c1[H]

>  <smiles>  (52) 
[H]N=C([H])c1c([H])c(N([H])C(=O)C([H])=C(O[H])C([H])([H])Oc2c([H])c([H])c3c(c2[H])C([H])([H])N(C(=O)C([H])(N([H])C(=O)C([H])(N([H])C([H])([H])[H])C([H])([H])[H])C(C([H])([H])[H])(C([H])([H])[H])C([H])([H])[H])C([H])(C(=O)N([H])C2([H])c4c([H])c([H])c([H])c([H])c4C([H])([H])C([H])([H])C2([H])[H])C3([H])[H])c([H])c(N([H])C(=O)N2C([H])([H])C([H])([H])C([H])([H])C([H])(n3nc(-c4c([H])c([H])c(Oc5c([H])c([H])c(F)c([H])c5F)c([H])c4[H])c(C(=O)N([H])[H])c3N([H])[H])C2([H])[H])c1[H]

$$$$
52:0:0
     RDKit          3D

 95103  0  0  1  0  0  0  0  0999 V2000
  -28.7260  -22.4490   20.4410 C   0  0  0  0  0  0  0  0  0  0  0  0
  -29.7240  -21.5190   20.1530 N   0  0  0  0  0  0  0  0  0  0  0  0
  -27.6560  -22.0580   20.9150 O   0  0  0  0  0  0  0  0  0  0  0  0
  -30.5570  -21.9520   19.7870 H   0  0  0  0  0  0  0  0  0  0  0  0
  -30.5560  -14.8520   20.2700 C   0  0  0  0  0  0  0  0  0  0  0  0
  -30.3610  -12.5610   19.2620 C   0  0  0  0  0  2  0  0  0  0  0  0
  -29.4040  -12.6020   18.0490 C   0  0  0  0  0  2  0  0  0  0  0  0
  -27.9490  -12.3980   18.5060 C   0  0  0  0  0  2  0  0  0  0  0  0
  -27.5750  -13.2990   19.7100 C   0  0  0  0  0  3  0  0  0  0  0  0
  -28.6470  -13.2430   20.8220 C   0  0  0  0  0  2  0  0  0  0  0  0
  -29.9340  -13.6160   20.2160 N   0  0  0  0  0  0  0  0  0  0  0  0
  -31.7330  -14.9380   19.9020 O   0  0  0  0  0  0  0  0  0  0  0  0
  -31.0930  -19.4620   19.9400 C   0  0  0  0  0  0  0  0  0  0  0  0
  -29.8960  -20.1100   20.2420 C   0  0  0  0  0  0  0  0  0  0  0  0
  -29.9840  -17.4560   20.4270 C   0  0  0  0  0  0  0  0  0  0  0  0
  -32.3600  -20.1360   19.4910 C   0  0  0  0  0  1  0  0  0  0  0  0
  -31.1290  -18.0400   20.0440 N   0  0  0  0  0  0  0  0  0  0  0  0
  -29.7850  -15.9760   20.5700 N   0  0  0  0  0  0  0  0  0  0  0  0
  -28.7620  -18.7850   20.7090 S   0  0  0  0  0  0  0  0  0  0  0  0
  -28.8580  -15.7330   20.8740 H   0  0  0  0  0  0  0  0  0  0  0  0
  -25.1980  -13.8820   20.4760 C   0  0  0  0  0  0  0  0  0  0  0  0
  -24.1400  -13.1040   20.8570 C   0  0  0  0  0  0  0  0  0  0  0  0
  -24.6020  -11.7540   20.8070 C   0  0  0  0  0  0  0  0  0  0  0  0
  -26.2400  -13.0050   20.2200 N   0  0  0  0  0  0  0  0  0  0  0  0
  -25.8880  -11.7200   20.4800 N   0  0  0  0  0  0  0  0  0  0  0  0
  -23.8800  -10.4900   20.9960 C   0  0  0  0  0  0  0  0  0  0  0  0
  -24.3070   -9.5270   21.9360 C   0  0  0  0  0  3  0  0  0  0  0  0
  -23.5840   -8.3270   22.1120 C   0  0  0  0  0  3  0  0  0  0  0  0
  -22.4180   -8.0810   21.3470 C   0  0  0  0  0  0  0  0  0  0  0  0
  -22.0100   -9.0350   20.3980 C   0  0  0  0  0  3  0  0  0  0  0  0
  -22.7330  -10.2250   20.2210 C   0  0  0  0  0  3  0  0  0  0  0  0
  -21.6660   -6.9330   21.4340 O   0  0  0  0  0  0  0  0  0  0  0  0
  -21.5860   -6.2130   22.5980 C   0  0  0  0  0  0  0  0  0  0  0  0
  -21.1000   -6.7830   23.7950 C   0  0  0  0  0  3  0  0  0  0  0  0
  -20.9680   -5.9860   24.9500 C   0  0  0  0  0  3  0  0  0  0  0  0
  -21.3090   -4.6200   24.9090 C   0  0  0  0  0  0  0  0  0  0  0  0
  -21.7880   -4.0510   23.7160 C   0  0  0  0  0  3  0  0  0  0  0  0
  -21.9220   -4.8450   22.5620 C   0  0  0  0  0  0  0  0  0  0  0  0
  -22.3630   -4.2850   21.4100 F   0  0  0  0  0  0  0  0  0  0  0  0
  -21.1760   -3.8540   26.0160 F   0  0  0  0  0  0  0  0  0  0  0  0
  -22.7460  -13.5810   21.1520 C   0  0  0  0  0  0  0  0  0  0  0  0
  -22.0300  -12.8760   22.0200 N   0  0  0  0  0  0  0  0  0  0  0  0
  -22.3020  -14.6120   20.6490 O   0  0  0  0  0  0  0  0  0  0  0  0
  -22.4000  -12.0390   22.4460 H   0  0  0  0  0  0  0  0  0  0  0  0
  -21.0960  -13.1770   22.2630 H   0  0  0  0  0  0  0  0  0  0  0  0
  -25.3610  -15.2520   20.3040 N   0  0  0  0  0  0  0  0  0  0  0  0
  -24.5900  -15.9020   20.4140 H   0  0  0  0  0  0  0  0  0  0  0  0
  -26.1870  -15.6870   19.9160 H   0  0  0  0  0  0  0  0  0  0  0  0
  -28.1150  -24.9830   20.4210 C   0  0  0  0  0  3  0  0  0  0  0  0
  -29.0010  -23.9340   20.1650 C   0  0  0  0  0  0  0  0  0  0  0  0
  -30.2840  -24.3670   19.5690 N   0  0  0  0  0  4  0  0  0  0  0  0
  -30.2410  -25.3490   19.3610 H   0  0  0  0  0  0  0  0  0  0  0  0
  -31.0490  -24.2290   20.2020 H   0  0  0  0  0  0  0  0  0  0  0  0
  -30.4680  -23.8920   18.7040 H   0  0  0  0  0  0  0  0  0  0  0  0
  -28.3110  -26.3940   20.2070 O   0  0  0  0  0  0  0  0  0  0  0  0
  -24.6230  -31.9200   23.2290 C   0  0  0  0  0  0  0  0  0  0  0  0
  -27.2140  -27.2950   20.1930 C   0  0  0  0  0  0  0  0  0  0  0  0
  -23.4180  -30.5270   21.5860 C   0  0  0  0  0  3  0  0  0  0  0  0
  -24.8650  -28.9620   20.1630 C   0  0  0  0  0  0  0  0  0  0  0  0
  -25.9610  -30.8220   21.4070 C   0  0  0  0  0  2  0  0  0  0  0  0
  -26.0380  -29.4340   20.7670 C   0  0  0  0  0  0  0  0  0  0  0  0
  -27.2140  -28.6130   20.7730 C   0  0  0  0  0  3  0  0  0  0  0  0
  -26.0190  -26.8970   19.5560 C   0  0  0  0  0  3  0  0  0  0  0  0
  -24.8620  -27.7010   19.5470 C   0  0  0  0  0  3  0  0  0  0  0  0
  -23.6340  -29.8480   20.2080 C   0  0  0  0  0  2  0  0  0  0  0  0
  -24.6880  -31.1080   22.1320 N   0  0  0  0  0  0  0  0  0  0  0  0
  -23.5400  -32.2010   23.7640 O   0  0  0  0  0  0  0  0  0  0  0  0
  -22.7450  -29.5150   22.5450 C   0  0  0  0  0  0  0  0  0  0  0  0
  -21.4180  -29.3440   22.4180 N   0  0  0  0  0  0  0  0  0  0  0  0
  -23.4180  -28.8860   23.3650 O   0  0  0  0  0  0  0  0  0  0  0  0
  -20.9330  -29.9010   21.7300 H   0  0  0  0  0  0  0  0  0  0  0  0
  -18.0310  -28.1720   22.9170 C   0  0  0  0  0  0  0  0  0  0  0  0
  -20.5920  -28.4090   23.1850 C   0  0  0  0  0  3  0  0  0  0  0  0
  -20.6830  -26.9800   22.6020 C   0  0  0  0  0  2  0  0  0  0  0  0
  -19.5780  -26.6730   21.5860 C   0  0  0  0  0  2  0  0  0  0  0  0
  -18.1960  -26.8240   22.2330 C   0  0  0  0  0  2  0  0  0  0  0  0
  -19.1560  -28.9230   23.3500 C   0  0  0  0  0  0  0  0  0  0  0  0
  -18.9480  -30.1820   23.9530 C   0  0  0  0  0  3  0  0  0  0  0  0
  -17.6470  -30.6940   24.1210 C   0  0  0  0  0  3  0  0  0  0  0  0
  -16.5360  -29.9390   23.7060 C   0  0  0  0  0  3  0  0  0  0  0  0
  -16.7290  -28.6800   23.1110 C   0  0  0  0  0  3  0  0  0  0  0  0
  -25.9050  -32.5480   23.8550 C   0  0  0  0  0  3  0  0  0  0  0  0
  -26.4170  -31.7680   25.1260 C   0  0  1  0  0  0  0  0  0  0  0  0
  -25.3200  -31.5270   26.1890 C   0  0  0  0  0  1  0  0  0  0  0  0
  -26.9980  -30.3940   24.7220 C   0  0  0  0  0  1  0  0  0  0  0  0
  -27.5690  -32.5550   25.7950 C   0  0  0  0  0  1  0  0  0  0  0  0
  -25.5970  -33.9450   24.1970 N   0  0  0  0  0  0  0  0  0  0  0  0
  -25.9110  -35.0020   23.4360 C   0  0  0  0  0  0  0  0  0  0  0  0
  -26.5550  -34.9030   22.3890 O   0  0  0  0  0  0  0  0  0  0  0  0
  -25.0180  -34.0970   25.0100 H   0  0  0  0  0  0  0  0  0  0  0  0
  -24.1630  -36.7850   23.1380 C   0  0  0  0  0  1  0  0  0  0  0  0
  -25.4320  -36.3880   23.9100 C   0  0  0  0  0  3  0  0  0  0  0  0
  -27.5850  -37.2840   24.6770 C   0  0  0  0  0  1  0  0  0  0  0  0
  -26.4560  -37.4470   23.7670 N   0  0  0  0  0  0  0  0  0  0  0  0
  -26.0500  -38.3660   23.9220 H   0  0  0  0  0  0  0  0  0  0  0  0
  1  3  2  0
  2 14  1  0
  2  1  1  0
  4  2  1  0
  5 18  1  0
  6 11  1  0
  7  8  1  0
  7  6  1  0
  9  8  1  0
  9 24  1  0
  9 10  1  0
 11  5  1  0
 11 10  1  0
 12  5  2  0
 13 17  1  0
 13 14  2  0
 14 19  1  0
 15 18  1  0
 15 19  1  0
 16 13  1  0
 17 15  2  0
 18 20  1  0
 21 22  2  0
 22 41  1  0
 23 22  1  0
 23 26  1  0
 24 21  1  0
 24 25  1  0
 25 23  2  0
 26 27  1  0
 27 28  2  0
 29 32  1  0
 29 28  1  0
 30 29  2  0
 31 30  1  0
 31 26  2  0
 32 33  1  0
 33 34  1  0
 34 35  2  0
 36 35  1  0
 36 40  1  0
 37 36  2  0
 38 33  2  0
 38 37  1  0
 39 38  1  0
 41 42  1  0
 42 45  1  0
 42 44  1  0
 43 41  2  0
 46 47  1  0
 46 21  1  0
 48 46  1  0
 50 49  2  0
 50  1  1  0
 51 50  1  0
 51 53  1  0
 52 51  1  0
 54 51  1  0
 55 49  1  0
 56 67  2  0
 57 55  1  0
 57 62  1  0
 58 66  1  0
 58 68  1  0
 59 65  1  0
 59 61  1  0
 60 66  1  0
 61 62  2  0
 61 60  1  0
 63 57  2  0
 64 63  1  0
 64 59  2  0
 65 58  1  0
 66 56  1  0
 68 70  2  0
 69 68  1  0
 71 69  1  0
 72 81  2  0
 72 77  1  0
 73 69  1  0
 73 77  1  0
 74 73  1  0
 75 76  1  0
 75 74  1  0
 76 72  1  0
 77 78  2  0
 78 79  1  0
 80 79  2  0
 81 80  1  0
 82 56  1  0
 82 87  1  0
 82 83  1  0
 83 86  1  1
 83 84  1  0
 85 83  1  0
 87 90  1  0
 88 92  1  0
 88 87  1  0
 89 88  2  0
 92 91  1  0
 94 92  1  0
 94 95  1  0
 94 93  1  0
M  ISO  4   5 100  18 100  49 101  55 101
M  END
>  <TORSDO>  (53) 
F 18

>  <SCORE>  (53) 
-14.732

>  <name>  (53) 
52

>  <ligand_id>  (53) 
52

>  <original_smiles>  (53) 
[H]C(Oc1c([H])c([H])c2c(c1[H])C([H])([H])N(C(=O)C([H])(N([H])C(=O)C([H])(N([H])C([H])([H])[H])C([H])([H])[H])C(C([H])([H])[H])(C([H])([H])[H])C([H])([H])[H])C([H])(C(=O)N([H])C1([H])c3c([H])c([H])c([H])c([H])c3C([H])([H])C([H])([H])C1([H])[H])C2([H])[H])=C(C(=O)N([H])c1sc(N([H])C(=O)N2C([H])([H])C([H])([H])C([H])([H])C([H])(n3nc(-c4c([H])c([H])c(Oc5c([H])c([H])c(F)c([H])c5F)c([H])c4[H])c(C(=O)N([H])[H])c3N([H])[H])C2([H])[H])nc1C([H])([H])[H])[N+]([H])([H])[H]

>  <smiles>  (53) 
[H]C(Oc1c([H])c([H])c2c(c1[H])C([H])([H])N(C(=O)C([H])(N([H])C(=O)C([H])(N([H])C([H])([H])[H])C([H])([H])[H])C(C([H])([H])[H])(C([H])([H])[H])C([H])([H])[H])C([H])(C(=O)N([H])C1([H])c3c([H])c([H])c([H])c([H])c3C([H])([H])C([H])([H])C1([H])[H])C2([H])[H])=C(C(=O)N([H])c1sc(N([H])C(=O)N2C([H])([H])C([H])([H])C([H])([H])C([H])(n3nc(-c4c([H])c([H])c(Oc5c([H])c([H])c(F)c([H])c5F)c([H])c4[H])c(C(=O)N([H])[H])c3N([H])[H])C2([H])[H])nc1C([H])([H])[H])[N+]([H])([H])[H]

$$$$
53:0:0
     RDKit          3D

 94102  0  0  1  0  0  0  0  0999 V2000
  -31.8090  -18.5110   19.6180 C   0  0  0  0  0  3  0  0  0  0  0  0
  -31.8300  -19.9180   19.3720 C   0  0  0  0  0  0  0  0  0  0  0  0
  -30.7780  -18.2790   20.5010 C   0  0  0  0  0  0  0  0  0  0  0  0
  -30.7820  -20.4800   20.0540 C   0  0  0  0  0  0  0  0  0  0  0  0
  -30.1140  -19.4940   20.7530 O   0  0  0  0  0  0  0  0  0  0  0  0
  -34.1430  -20.5880   19.0210 C   0  0  0  0  0  1  0  0  0  0  0  0
  -32.7490  -20.6250   18.5810 N   0  0  0  0  0  0  0  0  0  0  0  0
  -32.4210  -21.5520   18.3190 H   0  0  0  0  0  0  0  0  0  0  0  0
  -30.5860  -21.8850   20.1800 N   0  0  0  0  0  0  0  0  0  0  0  0
  -31.3390  -22.4490   19.8030 H   0  0  0  0  0  0  0  0  0  0  0  0
  -29.2800  -22.6030   20.2130 C   0  0  0  0  0  2  0  0  0  0  0  0
  -29.3990  -24.1730   20.3330 C   0  0  0  0  0  0  0  0  0  0  0  0
  -30.4860  -24.6800   20.6270 O   0  0  0  0  0  0  0  0  0  0  0  0
  -28.1490  -25.0730   20.0450 C   0  0  0  0  0  2  0  0  0  0  0  0
  -28.3380  -26.5200   20.2420 O   0  0  0  0  0  0  0  0  0  0  0  0
  -24.5950  -31.8860   23.2360 C   0  0  0  0  0  0  0  0  0  0  0  0
  -27.1940  -27.3270   20.1980 C   0  0  0  0  0  0  0  0  0  0  0  0
  -23.3800  -30.4790   21.6080 C   0  0  0  0  0  3  0  0  0  0  0  0
  -24.8230  -28.9170   20.1910 C   0  0  0  0  0  0  0  0  0  0  0  0
  -25.9170  -30.8040   21.4000 C   0  0  0  0  0  2  0  0  0  0  0  0
  -25.9930  -29.4180   20.7750 C   0  0  0  0  0  0  0  0  0  0  0  0
  -27.1790  -28.6300   20.7740 C   0  0  0  0  0  3  0  0  0  0  0  0
  -25.9940  -26.8690   19.5960 C   0  0  0  0  0  3  0  0  0  0  0  0
  -24.8260  -27.6470   19.5950 C   0  0  0  0  0  3  0  0  0  0  0  0
  -23.5880  -29.7920   20.2300 C   0  0  0  0  0  2  0  0  0  0  0  0
  -24.6520  -31.0710   22.1430 N   0  0  0  0  0  0  0  0  0  0  0  0
  -23.5160  -32.1710   23.7740 O   0  0  0  0  0  0  0  0  0  0  0  0
  -22.7190  -29.4700   22.5770 C   0  0  0  0  0  0  0  0  0  0  0  0
  -21.3920  -29.2950   22.4580 N   0  0  0  0  0  0  0  0  0  0  0  0
  -23.4010  -28.8500   23.3970 O   0  0  0  0  0  0  0  0  0  0  0  0
  -20.9070  -29.8610   21.7760 H   0  0  0  0  0  0  0  0  0  0  0  0
  -18.0140  -28.1100   22.9530 C   0  0  0  0  0  0  0  0  0  0  0  0
  -20.5720  -28.3660   23.2350 C   0  0  0  0  0  3  0  0  0  0  0  0
  -20.6770  -26.9270   22.6770 C   0  0  0  0  0  2  0  0  0  0  0  0
  -19.5790  -26.5970   21.6620 C   0  0  0  0  0  2  0  0  0  0  0  0
  -18.1930  -26.7510   22.2950 C   0  0  0  0  0  2  0  0  0  0  0  0
  -19.1310  -28.8720   23.3820 C   0  0  0  0  0  0  0  0  0  0  0  0
  -18.9140  -30.1420   23.9570 C   0  0  0  0  0  3  0  0  0  0  0  0
  -17.6090  -30.6480   24.1100 C   0  0  0  0  0  3  0  0  0  0  0  0
  -16.5050  -29.8790   23.7030 C   0  0  0  0  0  3  0  0  0  0  0  0
  -16.7090  -28.6140   23.1270 C   0  0  0  0  0  3  0  0  0  0  0  0
  -25.8830  -32.5170   23.8530 C   0  0  0  0  0  3  0  0  0  0  0  0
  -25.5790  -33.9160   24.1850 N   0  0  0  0  0  0  0  0  0  0  0  0
  -25.9120  -34.9680   23.4230 C   0  0  0  0  0  0  0  0  0  0  0  0
  -26.5730  -34.8580   22.3870 O   0  0  0  0  0  0  0  0  0  0  0  0
  -24.9880  -34.0750   24.9890 H   0  0  0  0  0  0  0  0  0  0  0  0
  -24.1800  -36.7600   23.0850 C   0  0  0  0  0  1  0  0  0  0  0  0
  -25.4310  -36.3580   23.8800 C   0  0  0  0  0  3  0  0  0  0  0  0
  -27.5780  -37.2400   24.6770 C   0  0  0  0  0  1  0  0  0  0  0  0
  -26.4630  -37.4080   23.7490 N   0  0  0  0  0  0  0  0  0  0  0  0
  -26.0630  -38.3290   23.9030 H   0  0  0  0  0  0  0  0  0  0  0  0
  -26.4060  -31.7440   25.1280 C   0  0  1  0  0  0  0  0  0  0  0  0
  -25.3160  -31.5130   26.2040 C   0  0  0  0  0  1  0  0  0  0  0  0
  -26.9740  -30.3640   24.7280 C   0  0  0  0  0  1  0  0  0  0  0  0
  -27.5650  -32.5330   25.7810 C   0  0  0  0  0  1  0  0  0  0  0  0
  -30.4040  -17.0570   21.3690 C   0  0  0  0  0  2  0  0  0  0  0  0
  -30.6610  -14.6390   20.4550 C   0  0  0  0  0  0  0  0  0  0  0  0
  -30.3640  -12.4280   19.3530 C   0  0  0  0  0  2  0  0  0  0  0  0
  -29.4110  -12.5480   18.1480 C   0  0  0  0  0  2  0  0  0  0  0  0
  -27.9410  -12.3810   18.5820 C   0  0  0  0  0  2  0  0  0  0  0  0
  -27.5900  -13.2550   19.8150 C   0  0  0  0  0  3  0  0  0  0  0  0
  -28.6590  -13.1320   20.9220 C   0  0  0  0  0  2  0  0  0  0  0  0
  -29.9700  -13.4590   20.3290 N   0  0  0  0  0  0  0  0  0  0  0  0
  -31.8430  -14.7310   20.1290 O   0  0  0  0  0  0  0  0  0  0  0  0
  -29.9460  -15.7540   20.7780 N   0  0  0  0  0  0  0  0  0  0  0  0
  -28.9500  -15.6110   20.8340 H   0  0  0  0  0  0  0  0  0  0  0  0
  -25.2050  -13.8540   20.5560 C   0  0  0  0  0  0  0  0  0  0  0  0
  -24.1360  -13.0850   20.9300 C   0  0  0  0  0  0  0  0  0  0  0  0
  -24.5970  -11.7320   20.9000 C   0  0  0  0  0  0  0  0  0  0  0  0
  -26.2460  -12.9720   20.3140 N   0  0  0  0  0  0  0  0  0  0  0  0
  -25.8880  -11.6910   20.5880 N   0  0  0  0  0  0  0  0  0  0  0  0
  -23.8700  -10.4690   21.0910 C   0  0  0  0  0  0  0  0  0  0  0  0
  -24.3170   -9.4880   22.0040 C   0  0  0  0  0  3  0  0  0  0  0  0
  -23.5860   -8.2930   22.1860 C   0  0  0  0  0  3  0  0  0  0  0  0
  -22.3970   -8.0710   21.4500 C   0  0  0  0  0  0  0  0  0  0  0  0
  -21.9710   -9.0390   20.5240 C   0  0  0  0  0  3  0  0  0  0  0  0
  -22.7020  -10.2250   20.3420 C   0  0  0  0  0  3  0  0  0  0  0  0
  -21.6390   -6.9290   21.5390 O   0  0  0  0  0  0  0  0  0  0  0  0
  -21.6230   -6.1620   22.6750 C   0  0  0  0  0  0  0  0  0  0  0  0
  -21.2510   -6.6960   23.9290 C   0  0  0  0  0  3  0  0  0  0  0  0
  -21.1820   -5.8560   25.0580 C   0  0  0  0  0  3  0  0  0  0  0  0
  -21.4730   -4.4850   24.9360 C   0  0  0  0  0  0  0  0  0  0  0  0
  -21.8350   -3.9500   23.6880 C   0  0  0  0  0  3  0  0  0  0  0  0
  -21.9060   -4.7850   22.5600 C   0  0  0  0  0  0  0  0  0  0  0  0
  -22.2350   -4.2600   21.3560 F   0  0  0  0  0  0  0  0  0  0  0  0
  -21.3980   -3.6770   26.0200 F   0  0  0  0  0  0  0  0  0  0  0  0
  -22.7390  -13.5620   21.2060 C   0  0  0  0  0  0  0  0  0  0  0  0
  -22.0150  -12.8670   22.0760 N   0  0  0  0  0  0  0  0  0  0  0  0
  -22.3010  -14.5870   20.6880 O   0  0  0  0  0  0  0  0  0  0  0  0
  -22.3860  -12.0360   22.5130 H   0  0  0  0  0  0  0  0  0  0  0  0
  -21.0760  -13.1620   22.3030 H   0  0  0  0  0  0  0  0  0  0  0  0
  -25.3720  -15.2250   20.3780 N   0  0  0  0  0  0  0  0  0  0  0  0
  -24.6140  -15.8860   20.5020 H   0  0  0  0  0  0  0  0  0  0  0  0
  -26.2210  -15.6610   20.0410 H   0  0  0  0  0  0  0  0  0  0  0  0
  1  3  2  0
  2  1  1  0
  2  4  2  0
  3  5  1  0
  3 56  1  0
  4  9  1  0
  4  5  1  0
  7  6  1  0
  7  2  1  0
  8  7  1  0
  9 11  1  0
 10  9  1  0
 11 12  1  0
 12 13  2  0
 14 15  1  0
 14 12  1  0
 16 27  2  0
 17 15  1  0
 17 22  1  0
 18 26  1  0
 18 28  1  0
 19 25  1  0
 19 21  1  0
 20 26  1  0
 21 20  1  0
 22 21  2  0
 23 17  2  0
 24 23  1  0
 24 19  2  0
 25 18  1  0
 26 16  1  0
 28 30  2  0
 29 28  1  0
 31 29  1  0
 32 41  2  0
 32 37  1  0
 33 29  1  0
 33 37  1  0
 34 33  1  0
 35 36  1  0
 35 34  1  0
 36 32  1  0
 37 38  2  0
 38 39  1  0
 40 39  2  0
 41 40  1  0
 42 16  1  0
 42 43  1  0
 42 52  1  0
 43 46  1  0
 44 48  1  0
 44 43  1  0
 45 44  2  0
 48 47  1  0
 50 48  1  0
 50 51  1  0
 50 49  1  0
 52 55  1  1
 52 53  1  0
 54 52  1  0
 57 65  1  0
 58 63  1  0
 59 60  1  0
 59 58  1  0
 61 60  1  0
 61 70  1  0
 61 62  1  0
 63 57  1  0
 63 62  1  0
 64 57  2  0
 65 66  1  0
 65 56  1  0
 67 68  2  0
 68 87  1  0
 69 68  1  0
 69 72  1  0
 70 67  1  0
 70 71  1  0
 71 69  2  0
 72 73  1  0
 73 74  2  0
 75 78  1  0
 75 74  1  0
 76 75  2  0
 77 76  1  0
 77 72  2  0
 78 79  1  0
 79 80  1  0
 80 81  2  0
 82 81  1  0
 82 86  1  0
 83 82  2  0
 84 79  2  0
 84 83  1  0
 85 84  1  0
 87 88  1  0
 88 91  1  0
 88 90  1  0
 89 87  2  0
 92 93  1  0
 92 67  1  0
 94 92  1  0
M  ISO  4  14 101  15 101  57 100  65 100
M  END
>  <TORSDO>  (54) 
F 22

>  <SCORE>  (54) 
-13.169

>  <name>  (54) 
53

>  <ligand_id>  (54) 
53

>  <original_smiles>  (54) 
[H]c1c([H])c([H])c2c(c1[H])C([H])([H])C([H])([H])C([H])([H])C2([H])N([H])C(=O)C1([H])N(C(=O)C([H])(N([H])C(=O)C([H])(N([H])C([H])([H])[H])C([H])([H])[H])C(C([H])([H])[H])(C([H])([H])[H])C([H])([H])[H])C([H])([H])c2c([H])c(OC([H])([H])C(=O)C([H])([H])N([H])c3oc(C([H])([H])N([H])C(=O)N4C([H])([H])C([H])([H])C([H])([H])C([H])(n5nc(-c6c([H])c([H])c(Oc7c([H])c([H])c(F)c([H])c7F)c([H])c6[H])c(C(=O)N([H])[H])c5N([H])[H])C4([H])[H])c([H])c3N([H])C([H])([H])[H])c([H])c([H])c2C1([H])[H]

>  <smiles>  (54) 
[H]c1c([H])c([H])c2c(c1[H])C([H])([H])C([H])([H])C([H])([H])C2([H])N([H])C(=O)C1([H])N(C(=O)C([H])(N([H])C(=O)C([H])(N([H])C([H])([H])[H])C([H])([H])[H])C(C([H])([H])[H])(C([H])([H])[H])C([H])([H])[H])C([H])([H])c2c([H])c(OC([H])([H])C(=O)C([H])([H])N([H])c3oc(C([H])([H])N([H])C(=O)N4C([H])([H])C([H])([H])C([H])([H])C([H])(n5nc(-c6c([H])c([H])c(Oc7c([H])c([H])c(F)c([H])c7F)c([H])c6[H])c(C(=O)N([H])[H])c5N([H])[H])C4([H])[H])c([H])c3N([H])C([H])([H])[H])c([H])c([H])c2C1([H])[H]

$$$$
54:0:0
     RDKit          3D

 93101  0  0  1  0  0  0  0  0999 V2000
  -29.2970  -21.1430   20.8810 C   0  0  0  0  0  0  0  0  0  0  0  0
  -29.0900  -21.1940   22.2040 N   0  0  0  0  0  4  0  0  0  0  0  0
  -29.1610  -22.3440   20.1760 N   0  0  0  0  0  0  0  0  0  0  0  0
  -29.2710  -20.3740   22.7610 H   0  0  0  0  0  0  0  0  0  0  0  0
  -28.7760  -22.0220   22.6810 H   0  0  0  0  0  0  0  0  0  0  0  0
  -29.3520  -22.2490   19.1880 H   0  0  0  0  0  0  0  0  0  0  0  0
  -29.3490  -18.4630   20.8910 C   0  0  0  0  0  3  0  0  0  0  0  0
  -29.7380  -19.7730   20.3140 C   0  0  0  0  0  0  0  0  0  0  0  0
  -29.9820  -17.3220   20.3500 C   0  0  0  0  0  0  0  0  0  0  0  0
  -30.6040  -19.6350   19.3280 N   0  0  0  0  0  0  0  0  0  0  0  0
  -31.0060  -17.9940   19.1040 S   0  0  0  0  0  0  0  0  0  0  0  0
  -30.5960  -14.8340   20.2430 C   0  0  0  0  0  0  0  0  0  0  0  0
  -30.3840  -12.5620   19.2100 C   0  0  0  0  0  2  0  0  0  0  0  0
  -29.4220  -12.6560   18.0020 C   0  0  0  0  0  2  0  0  0  0  0  0
  -27.9600  -12.4790   18.4540 C   0  0  0  0  0  2  0  0  0  0  0  0
  -27.6140  -13.3450   19.6950 C   0  0  0  0  0  3  0  0  0  0  0  0
  -28.6930  -13.2340   20.7950 C   0  0  0  0  0  2  0  0  0  0  0  0
  -29.9810  -13.5990   20.1910 N   0  0  0  0  0  0  0  0  0  0  0  0
  -31.7610  -14.9450   19.8430 O   0  0  0  0  0  0  0  0  0  0  0  0
  -29.8400  -15.9420   20.6190 N   0  0  0  0  0  0  0  0  0  0  0  0
  -28.9700  -15.6920   21.0640 H   0  0  0  0  0  0  0  0  0  0  0  0
  -25.2390  -13.9280   20.4600 C   0  0  0  0  0  0  0  0  0  0  0  0
  -24.1780  -13.1520   20.8430 C   0  0  0  0  0  0  0  0  0  0  0  0
  -24.6420  -11.8010   20.8010 C   0  0  0  0  0  0  0  0  0  0  0  0
  -26.2780  -13.0510   20.2050 N   0  0  0  0  0  0  0  0  0  0  0  0
  -25.9280  -11.7660   20.4730 N   0  0  0  0  0  0  0  0  0  0  0  0
  -23.9190  -10.5380   21.0000 C   0  0  0  0  0  0  0  0  0  0  0  0
  -24.3630   -9.5710   21.9310 C   0  0  0  0  0  3  0  0  0  0  0  0
  -23.6390   -8.3730   22.1170 C   0  0  0  0  0  3  0  0  0  0  0  0
  -22.4570   -8.1340   21.3750 C   0  0  0  0  0  0  0  0  0  0  0  0
  -22.0340   -9.0900   20.4350 C   0  0  0  0  0  3  0  0  0  0  0  0
  -22.7570  -10.2790   20.2450 C   0  0  0  0  0  3  0  0  0  0  0  0
  -21.7050   -6.9900   21.4720 O   0  0  0  0  0  0  0  0  0  0  0  0
  -21.6630   -6.2500   22.6270 C   0  0  0  0  0  0  0  0  0  0  0  0
  -21.2300   -6.8050   23.8520 C   0  0  0  0  0  3  0  0  0  0  0  0
  -21.1380   -5.9910   24.9990 C   0  0  0  0  0  3  0  0  0  0  0  0
  -21.4670   -4.6240   24.9210 C   0  0  0  0  0  0  0  0  0  0  0  0
  -21.8950   -4.0710   23.7030 C   0  0  0  0  0  3  0  0  0  0  0  0
  -21.9900   -4.8810   22.5570 C   0  0  0  0  0  0  0  0  0  0  0  0
  -22.3820   -4.3380   21.3800 F   0  0  0  0  0  0  0  0  0  0  0  0
  -21.3720   -3.8400   26.0200 F   0  0  0  0  0  0  0  0  0  0  0  0
  -22.7860  -13.6280   21.1350 C   0  0  0  0  0  0  0  0  0  0  0  0
  -22.0690  -12.9260   22.0060 N   0  0  0  0  0  0  0  0  0  0  0  0
  -22.3410  -14.6570   20.6260 O   0  0  0  0  0  0  0  0  0  0  0  0
  -22.4420  -12.0940   22.4370 H   0  0  0  0  0  0  0  0  0  0  0  0
  -21.1350  -13.2270   22.2460 H   0  0  0  0  0  0  0  0  0  0  0  0
  -25.3990  -15.2990   20.2850 N   0  0  0  0  0  0  0  0  0  0  0  0
  -24.6350  -15.9530   20.4150 H   0  0  0  0  0  0  0  0  0  0  0  0
  -26.2380  -15.7380   19.9290 H   0  0  0  0  0  0  0  0  0  0  0  0
  -29.0890  -23.8170   20.6730 C   0  0  0  0  0  2  0  0  0  0  0  0
  -28.6710  -24.9730   18.3860 C   0  0  0  0  0  1  0  0  0  0  0  0
  -28.2510  -24.9580   19.8640 C   0  0  0  0  0  3  0  0  0  0  0  0
  -28.3200  -26.4130   20.2880 O   0  0  0  0  0  0  0  0  0  0  0  0
  -24.5820  -31.8930   23.2480 C   0  0  0  0  0  0  0  0  0  0  0  0
  -27.2140  -27.3010   20.1910 C   0  0  0  0  0  0  0  0  0  0  0  0
  -23.3900  -30.5040   21.5920 C   0  0  0  0  0  3  0  0  0  0  0  0
  -24.8530  -28.9570   20.1640 C   0  0  0  0  0  0  0  0  0  0  0  0
  -25.9360  -30.8070   21.4340 C   0  0  0  0  0  2  0  0  0  0  0  0
  -26.0190  -29.4290   20.7770 C   0  0  0  0  0  0  0  0  0  0  0  0
  -27.1990  -28.6130   20.7820 C   0  0  0  0  0  3  0  0  0  0  0  0
  -26.0240  -26.9090   19.5330 C   0  0  0  0  0  3  0  0  0  0  0  0
  -24.8620  -27.7060   19.5300 C   0  0  0  0  0  3  0  0  0  0  0  0
  -23.6150  -29.8340   20.2110 C   0  0  0  0  0  2  0  0  0  0  0  0
  -24.6540  -31.0870   22.1470 N   0  0  0  0  0  0  0  0  0  0  0  0
  -23.4950  -32.1670   23.7750 O   0  0  0  0  0  0  0  0  0  0  0  0
  -22.7180  -29.4840   22.5450 C   0  0  0  0  0  0  0  0  0  0  0  0
  -21.3920  -29.3030   22.4040 N   0  0  0  0  0  0  0  0  0  0  0  0
  -23.3900  -28.8590   23.3690 O   0  0  0  0  0  0  0  0  0  0  0  0
  -20.9090  -29.8600   21.7140 H   0  0  0  0  0  0  0  0  0  0  0  0
  -18.0150  -28.0900   22.8700 C   0  0  0  0  0  0  0  0  0  0  0  0
  -20.5690  -28.3590   23.1630 C   0  0  0  0  0  3  0  0  0  0  0  0
  -20.6810  -26.9300   22.5860 C   0  0  0  0  0  2  0  0  0  0  0  0
  -19.5910  -26.6070   21.5590 C   0  0  0  0  0  2  0  0  0  0  0  0
  -18.2030  -26.7430   22.1910 C   0  0  0  0  0  2  0  0  0  0  0  0
  -19.1260  -28.8560   23.3120 C   0  0  0  0  0  0  0  0  0  0  0  0
  -18.8970  -30.1160   23.9070 C   0  0  0  0  0  3  0  0  0  0  0  0
  -17.5890  -30.6110   24.0630 C   0  0  0  0  0  3  0  0  0  0  0  0
  -16.4920  -29.8420   23.6370 C   0  0  0  0  0  3  0  0  0  0  0  0
  -16.7050  -28.5830   23.0470 C   0  0  0  0  0  3  0  0  0  0  0  0
  -25.8590  -32.5250   23.8810 C   0  0  0  0  0  3  0  0  0  0  0  0
  -26.3550  -31.7590   25.1690 C   0  0  1  0  0  0  0  0  0  0  0  0
  -25.2480  -31.5330   26.2250 C   0  0  0  0  0  1  0  0  0  0  0  0
  -26.9350  -30.3750   24.7970 C   0  0  0  0  0  1  0  0  0  0  0  0
  -27.5010  -32.5520   25.8400 C   0  0  0  0  0  1  0  0  0  0  0  0
  -25.5510  -33.9270   24.1980 N   0  0  0  0  0  0  0  0  0  0  0  0
  -25.8930  -34.9750   23.4370 C   0  0  0  0  0  0  0  0  0  0  0  0
  -26.5690  -34.8640   22.4100 O   0  0  0  0  0  0  0  0  0  0  0  0
  -24.9490  -34.0870   24.9920 H   0  0  0  0  0  0  0  0  0  0  0  0
  -24.1770  -36.7760   23.0580 C   0  0  0  0  0  1  0  0  0  0  0  0
  -25.4090  -36.3700   23.8820 C   0  0  0  0  0  3  0  0  0  0  0  0
  -27.5400  -37.2520   24.7290 C   0  0  0  0  0  1  0  0  0  0  0  0
  -26.4490  -37.4160   23.7710 N   0  0  0  0  0  0  0  0  0  0  0  0
  -26.0460  -38.3400   23.9060 H   0  0  0  0  0  0  0  0  0  0  0  0
  1  2  2  0
  2  5  1  0
  2  4  1  0
  3 50  1  0
  3  1  1  0
  6  3  1  0
  8  1  1  0
  8  7  1  0
  9 20  1  0
  9  7  2  0
 10  8  2  0
 11 10  1  0
 11  9  1  0
 12 20  1  0
 13 18  1  0
 14 15  1  0
 14 13  1  0
 16 15  1  0
 16 25  1  0
 16 17  1  0
 18 12  1  0
 18 17  1  0
 19 12  2  0
 20 21  1  0
 22 23  2  0
 23 42  1  0
 24 23  1  0
 24 27  1  0
 25 22  1  0
 25 26  1  0
 26 24  2  0
 27 28  1  0
 28 29  2  0
 30 33  1  0
 30 29  1  0
 31 30  2  0
 32 31  1  0
 32 27  2  0
 33 34  1  0
 34 35  1  0
 35 36  2  0
 37 36  1  0
 37 41  1  0
 38 37  2  0
 39 34  2  0
 39 38  1  0
 40 39  1  0
 42 43  1  0
 43 46  1  0
 43 45  1  0
 44 42  2  0
 47 48  1  0
 47 22  1  0
 49 47  1  0
 52 51  1  0
 52 53  1  0
 52 50  1  0
 54 65  2  0
 55 53  1  0
 55 60  1  0
 56 64  1  0
 56 66  1  0
 57 63  1  0
 57 59  1  0
 58 64  1  0
 59 60  2  0
 59 58  1  0
 61 55  2  0
 62 61  1  0
 62 57  2  0
 63 56  1  0
 64 54  1  0
 66 68  2  0
 67 66  1  0
 69 67  1  0
 70 79  2  0
 70 75  1  0
 71 67  1  0
 71 75  1  0
 72 71  1  0
 73 74  1  0
 73 72  1  0
 74 70  1  0
 75 76  2  0
 76 77  1  0
 78 77  2  0
 79 78  1  0
 80 54  1  0
 80 85  1  0
 80 81  1  0
 81 84  1  1
 81 82  1  0
 83 81  1  0
 85 88  1  0
 86 90  1  0
 86 85  1  0
 87 86  2  0
 90 89  1  0
 92 90  1  0
 92 93  1  0
 92 91  1  0
M  ISO  4  12 100  20 100  52 101  53 101
M  END
>  <TORSDO>  (55) 
F 19

>  <SCORE>  (55) 
-14.359

>  <name>  (55) 
54

>  <ligand_id>  (55) 
54

>  <original_smiles>  (55) 
[H]c1c(C(N([H])[H])=[N+]([H])C([H])([H])C([H])(Oc2c([H])c([H])c3c(c2[H])C([H])([H])N(C(=O)C([H])(N([H])C(=O)C([H])(N([H])C([H])([H])[H])C([H])([H])[H])C(C([H])([H])[H])(C([H])([H])[H])C([H])([H])[H])C([H])(C(=O)N([H])C2([H])c4c([H])c([H])c([H])c([H])c4C([H])([H])C([H])([H])C2([H])[H])C3([H])[H])C([H])([H])[H])nsc1N([H])C(=O)N1C([H])([H])C([H])([H])C([H])([H])C([H])(n2nc(-c3c([H])c([H])c(Oc4c([H])c([H])c(F)c([H])c4F)c([H])c3[H])c(C(=O)N([H])[H])c2N([H])[H])C1([H])[H]

>  <smiles>  (55) 
[H]c1c(C(N([H])[H])=[N+]([H])C([H])([H])C([H])(Oc2c([H])c([H])c3c(c2[H])C([H])([H])N(C(=O)C([H])(N([H])C(=O)C([H])(N([H])C([H])([H])[H])C([H])([H])[H])C(C([H])([H])[H])(C([H])([H])[H])C([H])([H])[H])C([H])(C(=O)N([H])C2([H])c4c([H])c([H])c([H])c([H])c4C([H])([H])C([H])([H])C2([H])[H])C3([H])[H])C([H])([H])[H])nsc1N([H])C(=O)N1C([H])([H])C([H])([H])C([H])([H])C([H])(n2nc(-c3c([H])c([H])c(Oc4c([H])c([H])c(F)c([H])c4F)c([H])c3[H])c(C(=O)N([H])[H])c2N([H])[H])C1([H])[H]

$$$$
55:0:0
     RDKit          3D

 96105  0  0  1  0  0  0  0  0999 V2000
  -28.9140  -18.5770   20.0430 C   0  0  0  0  0  3  0  0  0  0  0  0
  -28.7620  -19.9640   19.8030 C   0  0  0  0  0  3  0  0  0  0  0  0
  -30.4630  -20.4520   21.4600 C   0  0  0  0  0  3  0  0  0  0  0  0
  -31.2970  -16.9860   22.3590 C   0  0  0  0  0  3  0  0  0  0  0  0
  -29.8590  -18.0880   20.9740 C   0  0  0  0  0  0  0  0  0  0  0  0
  -30.6300  -19.0680   21.6710 C   0  0  0  0  0  0  0  0  0  0  0  0
  -29.5410  -20.9250   20.5000 C   0  0  0  0  0  0  0  0  0  0  0  0
  -30.3070  -16.7950   21.4320 C   0  0  0  0  0  0  0  0  0  0  0  0
  -31.4830  -18.3530   22.4990 N   0  0  0  0  0  0  0  0  0  0  0  0
  -32.1820  -18.7540   23.1140 H   0  0  0  0  0  0  0  0  0  0  0  0
  -30.5150  -14.5430   20.4420 C   0  0  0  0  0  0  0  0  0  0  0  0
  -30.2170  -12.4450   19.1760 C   0  0  0  0  0  2  0  0  0  0  0  0
  -29.2240  -12.6580   18.0160 C   0  0  0  0  0  2  0  0  0  0  0  0
  -27.7700  -12.4720   18.4950 C   0  0  0  0  0  2  0  0  0  0  0  0
  -27.4600  -13.2680   19.7910 C   0  0  0  0  0  3  0  0  0  0  0  0
  -28.5510  -13.0180   20.8550 C   0  0  0  0  0  2  0  0  0  0  0  0
  -29.8470  -13.3750   20.2540 N   0  0  0  0  0  0  0  0  0  0  0  0
  -31.6340  -14.7600   19.9650 O   0  0  0  0  0  0  0  0  0  0  0  0
  -29.8020  -15.5250   21.0300 N   0  0  0  0  0  0  0  0  0  0  0  0
  -28.8290  -15.3300   21.2140 H   0  0  0  0  0  0  0  0  0  0  0  0
  -25.0680  -13.8190   20.5670 C   0  0  0  0  0  0  0  0  0  0  0  0
  -24.0270  -13.0200   20.9560 C   0  0  0  0  0  0  0  0  0  0  0  0
  -24.5150  -11.6790   20.8950 C   0  0  0  0  0  0  0  0  0  0  0  0
  -26.1260  -12.9620   20.3020 N   0  0  0  0  0  0  0  0  0  0  0  0
  -25.7970  -11.6710   20.5550 N   0  0  0  0  0  0  0  0  0  0  0  0
  -23.8200  -10.3990   21.0810 C   0  0  0  0  0  0  0  0  0  0  0  0
  -24.2920   -9.4320   21.9970 C   0  0  0  0  0  3  0  0  0  0  0  0
  -23.5980   -8.2150   22.1720 C   0  0  0  0  0  3  0  0  0  0  0  0
  -22.4200   -7.9570   21.4310 C   0  0  0  0  0  0  0  0  0  0  0  0
  -21.9670   -8.9150   20.5060 C   0  0  0  0  0  3  0  0  0  0  0  0
  -22.6610  -10.1230   20.3300 C   0  0  0  0  0  3  0  0  0  0  0  0
  -21.6940   -6.7940   21.5180 O   0  0  0  0  0  0  0  0  0  0  0  0
  -21.6810   -6.0380   22.6620 C   0  0  0  0  0  0  0  0  0  0  0  0
  -21.2440   -6.5620   23.8970 C   0  0  0  0  0  3  0  0  0  0  0  0
  -21.1800   -5.7290   25.0330 C   0  0  0  0  0  3  0  0  0  0  0  0
  -21.5450   -4.3740   24.9350 C   0  0  0  0  0  0  0  0  0  0  0  0
  -21.9770   -3.8490   23.7040 C   0  0  0  0  0  3  0  0  0  0  0  0
  -22.0410   -4.6790   22.5700 C   0  0  0  0  0  0  0  0  0  0  0  0
  -22.4380   -4.1620   21.3810 F   0  0  0  0  0  0  0  0  0  0  0  0
  -21.4790   -3.5700   26.0230 F   0  0  0  0  0  0  0  0  0  0  0  0
  -22.6270  -13.4650   21.2710 C   0  0  0  0  0  0  0  0  0  0  0  0
  -21.9340  -12.7400   22.1400 N   0  0  0  0  0  0  0  0  0  0  0  0
  -22.1540  -14.4880   20.7760 O   0  0  0  0  0  0  0  0  0  0  0  0
  -22.3300  -11.9120   22.5650 H   0  0  0  0  0  0  0  0  0  0  0  0
  -20.9950  -13.0170   22.3910 H   0  0  0  0  0  0  0  0  0  0  0  0
  -25.2000  -15.1930   20.3910 N   0  0  0  0  0  0  0  0  0  0  0  0
  -24.4040  -15.8180   20.4670 H   0  0  0  0  0  0  0  0  0  0  0  0
  -26.0030  -15.6280   19.9550 H   0  0  0  0  0  0  0  0  0  0  0  0
  -28.8170  -23.0640   19.3400 C   0  0  0  0  0  0  0  0  0  0  0  0
  -29.4550  -22.3450   20.2940 N   0  0  0  0  0  0  0  0  0  0  0  0
  -28.1260  -22.5710   18.4430 O   0  0  0  0  0  0  0  0  0  0  0  0
  -29.9900  -22.9090   20.9380 H   0  0  0  0  0  0  0  0  0  0  0  0
  -28.9890  -24.6020   19.3740 C   0  0  0  0  0  2  0  0  0  0  0  0
  -28.4250  -25.0590   21.7160 C   0  0  0  0  0  1  0  0  0  0  0  0
  -28.1050  -25.3350   20.3170 N   0  0  0  0  0  0  0  0  0  0  0  0
  -28.3490  -26.7630   20.1080 O   0  0  0  0  0  0  0  0  0  0  0  0
  -24.5480  -31.9590   23.2370 C   0  0  0  0  0  0  0  0  0  0  0  0
  -27.1760  -27.4950   20.1390 C   0  0  0  0  0  0  0  0  0  0  0  0
  -23.3310  -30.5560   21.6040 C   0  0  0  0  0  3  0  0  0  0  0  0
  -24.7780  -29.0090   20.1760 C   0  0  0  0  0  0  0  0  0  0  0  0
  -25.8570  -30.9030   21.3960 C   0  0  0  0  0  2  0  0  0  0  0  0
  -25.9390  -29.5270   20.7630 C   0  0  0  0  0  0  0  0  0  0  0  0
  -27.1390  -28.7730   20.7510 C   0  0  0  0  0  3  0  0  0  0  0  0
  -25.9980  -27.0040   19.5340 C   0  0  0  0  0  3  0  0  0  0  0  0
  -24.8010  -27.7440   19.5640 C   0  0  0  0  0  3  0  0  0  0  0  0
  -23.5360  -29.8700   20.2270 C   0  0  0  0  0  2  0  0  0  0  0  0
  -24.5980  -31.1550   22.1380 N   0  0  0  0  0  0  0  0  0  0  0  0
  -23.4700  -32.2320   23.7840 O   0  0  0  0  0  0  0  0  0  0  0  0
  -22.6820  -29.5390   22.5710 C   0  0  0  0  0  0  0  0  0  0  0  0
  -21.3560  -29.3580   22.4490 N   0  0  0  0  0  0  0  0  0  0  0  0
  -23.3660  -28.9160   23.3870 O   0  0  0  0  0  0  0  0  0  0  0  0
  -20.8650  -29.9200   21.7670 H   0  0  0  0  0  0  0  0  0  0  0  0
  -17.9820  -28.1720   22.9620 C   0  0  0  0  0  0  0  0  0  0  0  0
  -20.5400  -28.4220   23.2240 C   0  0  0  0  0  3  0  0  0  0  0  0
  -20.6360  -26.9910   22.6500 C   0  0  0  0  0  2  0  0  0  0  0  0
  -19.5320  -26.6700   21.6410 C   0  0  0  0  0  2  0  0  0  0  0  0
  -18.1500  -26.8210   22.2880 C   0  0  0  0  0  2  0  0  0  0  0  0
  -19.1040  -28.9300   23.3870 C   0  0  0  0  0  0  0  0  0  0  0  0
  -18.8920  -30.1940   23.9780 C   0  0  0  0  0  3  0  0  0  0  0  0
  -17.5890  -30.7010   24.1480 C   0  0  0  0  0  3  0  0  0  0  0  0
  -16.4810  -29.9380   23.7400 C   0  0  0  0  0  3  0  0  0  0  0  0
  -16.6780  -28.6760   23.1510 C   0  0  0  0  0  3  0  0  0  0  0  0
  -25.8390  -32.5870   23.8490 C   0  0  0  0  0  3  0  0  0  0  0  0
  -26.3560  -31.8200   25.1280 C   0  0  1  0  0  0  0  0  0  0  0  0
  -25.2670  -31.5980   26.2050 C   0  0  0  0  0  1  0  0  0  0  0  0
  -26.9280  -30.4380   24.7380 C   0  0  0  0  0  1  0  0  0  0  0  0
  -27.5140  -32.6110   25.7810 C   0  0  0  0  0  1  0  0  0  0  0  0
  -25.5370  -33.9880   24.1710 N   0  0  0  0  0  0  0  0  0  0  0  0
  -25.8820  -35.0340   23.4070 C   0  0  0  0  0  0  0  0  0  0  0  0
  -26.5560  -34.9200   22.3790 O   0  0  0  0  0  0  0  0  0  0  0  0
  -24.9350  -34.1500   24.9640 H   0  0  0  0  0  0  0  0  0  0  0  0
  -24.1780  -36.8430   23.0180 C   0  0  0  0  0  1  0  0  0  0  0  0
  -25.4000  -36.4270   23.8530 C   0  0  0  0  0  3  0  0  0  0  0  0
  -27.5280  -37.2930   24.7170 C   0  0  0  0  0  1  0  0  0  0  0  0
  -26.4450  -37.4700   23.7550 N   0  0  0  0  0  0  0  0  0  0  0  0
  -26.0450  -38.3950   23.8980 H   0  0  0  0  0  0  0  0  0  0  0  0
  1  5  1  0
  2  1  2  0
  2  7  1  0
  3  6  1  0
  4  9  1  0
  5  8  1  0
  5  6  2  0
  6  9  1  0
  7  3  2  0
  8  4  2  0
  9 10  1  0
 11 19  1  0
 12 17  1  0
 13 14  1  0
 13 12  1  0
 15 14  1  0
 15 24  1  0
 15 16  1  0
 17 11  1  0
 17 16  1  0
 18 11  2  0
 19 20  1  0
 19  8  1  0
 21 22  2  0
 22 41  1  0
 23 22  1  0
 23 26  1  0
 24 25  1  0
 24 21  1  0
 25 23  2  0
 26 27  1  0
 27 28  2  0
 29 32  1  0
 29 28  1  0
 30 29  2  0
 31 30  1  0
 31 26  2  0
 32 33  1  0
 33 34  1  0
 34 35  2  0
 36 35  1  0
 36 40  1  0
 37 36  2  0
 38 33  2  0
 38 37  1  0
 39 38  1  0
 41 42  1  0
 42 45  1  0
 42 44  1  0
 43 41  2  0
 46 47  1  0
 46 21  1  0
 48 46  1  0
 49 53  1  0
 49 50  1  0
 50  7  1  0
 50 52  1  0
 51 49  2  0
 53 55  1  0
 55 54  1  0
 56 58  1  0
 56 55  1  0
 57 68  2  0
 58 63  1  0
 59 67  1  0
 59 69  1  0
 60 66  1  0
 60 62  1  0
 61 67  1  0
 62 61  1  0
 63 62  2  0
 64 65  1  0
 64 58  2  0
 65 60  2  0
 66 59  1  0
 67 57  1  0
 69 71  2  0
 70 69  1  0
 72 70  1  0
 73 82  2  0
 73 78  1  0
 74 70  1  0
 74 78  1  0
 75 74  1  0
 76 77  1  0
 76 75  1  0
 77 73  1  0
 78 79  2  0
 79 80  1  0
 81 80  2  0
 82 81  1  0
 83 57  1  0
 83 88  1  0
 83 84  1  0
 84 87  1  1
 84 85  1  0
 86 84  1  0
 88 91  1  0
 89 93  1  0
 89 88  1  0
 90 89  2  0
 93 92  1  0
 95 93  1  0
 95 96  1  0
 95 94  1  0
M  ISO  4  11 100  19 100  55 101  56 101
M  END
>  <TORSDO>  (56) 
F 19

>  <SCORE>  (56) 
-14.059

>  <name>  (56) 
55

>  <ligand_id>  (56) 
55

>  <original_smiles>  (56) 
[H]c1c([H])c([H])c2c(c1[H])C([H])([H])C([H])([H])C([H])([H])C2([H])N([H])C(=O)C1([H])N(C(=O)C([H])(N([H])C(=O)C([H])(N([H])C([H])([H])[H])C([H])([H])[H])C(C([H])([H])[H])(C([H])([H])[H])C([H])([H])[H])C([H])([H])c2c([H])c(ON(C([H])([H])[H])C([H])([H])C(=O)N([H])c3c([H])c([H])c4c(N([H])C(=O)N5C([H])([H])C([H])([H])C([H])([H])C([H])(n6nc(-c7c([H])c([H])c(Oc8c([H])c([H])c(F)c([H])c8F)c([H])c7[H])c(C(=O)N([H])[H])c6N([H])[H])C5([H])[H])c([H])n([H])c4c3[H])c([H])c([H])c2C1([H])[H]

>  <smiles>  (56) 
[H]c1c([H])c([H])c2c(c1[H])C([H])([H])C([H])([H])C([H])([H])C2([H])N([H])C(=O)C1([H])N(C(=O)C([H])(N([H])C(=O)C([H])(N([H])C([H])([H])[H])C([H])([H])[H])C(C([H])([H])[H])(C([H])([H])[H])C([H])([H])[H])C([H])([H])c2c([H])c(ON(C([H])([H])[H])C([H])([H])C(=O)N([H])c3c([H])c([H])c4c(N([H])C(=O)N5C([H])([H])C([H])([H])C([H])([H])C([H])(n6nc(-c7c([H])c([H])c(Oc8c([H])c([H])c(F)c([H])c8F)c([H])c7[H])c(C(=O)N([H])[H])c6N([H])[H])C5([H])[H])c([H])n([H])c4c3[H])c([H])c([H])c2C1([H])[H]

$$$$
56:0:0
     RDKit          3D

 93101  0  0  1  0  0  0  0  0999 V2000
  -29.2140  -23.7940   20.3020 C   0  0  0  0  0  2  0  0  0  0  0  0
  -29.5700  -18.8720   18.8160 C   0  0  0  0  0  3  0  0  0  0  0  0
  -29.7070  -18.6640   20.1680 C   0  0  0  0  0  0  0  0  0  0  0  0
  -29.1560  -21.0050   20.0870 C   0  0  0  0  0  0  0  0  0  0  0  0
  -29.4110  -19.9010   20.8610 N   0  0  0  0  0  0  0  0  0  0  0  0
  -28.8050  -22.3380   20.5340 N   0  0  0  0  0  0  0  0  0  0  0  0
  -29.2090  -20.5520   18.3870 S   0  0  0  0  0  0  0  0  0  0  0  0
  -28.3900  -22.2620   21.4570 H   0  0  0  0  0  0  0  0  0  0  0  0
  -30.2750  -17.3580   20.8680 C   0  0  0  0  0  2  0  0  0  0  0  0
  -30.5850  -14.7870   20.3560 C   0  0  0  0  0  0  0  0  0  0  0  0
  -30.3870  -12.5040   19.3490 C   0  0  0  0  0  2  0  0  0  0  0  0
  -29.4480  -12.5570   18.1260 C   0  0  0  0  0  2  0  0  0  0  0  0
  -27.9790  -12.3850   18.5570 C   0  0  0  0  0  2  0  0  0  0  0  0
  -27.5990  -13.2780   19.7690 C   0  0  0  0  0  3  0  0  0  0  0  0
  -28.6610  -13.2110   20.8870 C   0  0  0  0  0  2  0  0  0  0  0  0
  -29.9490  -13.5680   20.2810 N   0  0  0  0  0  0  0  0  0  0  0  0
  -31.7840  -14.8690   20.0800 O   0  0  0  0  0  0  0  0  0  0  0  0
  -29.8250  -15.9310   20.5500 N   0  0  0  0  0  0  0  0  0  0  0  0
  -28.8340  -15.7770   20.6460 H   0  0  0  0  0  0  0  0  0  0  0  0
  -25.2100  -13.8610   20.4960 C   0  0  0  0  0  0  0  0  0  0  0  0
  -24.1470  -13.0830   20.8700 C   0  0  0  0  0  0  0  0  0  0  0  0
  -24.6170  -11.7350   20.8500 C   0  0  0  0  0  0  0  0  0  0  0  0
  -26.2580  -12.9850   20.2660 N   0  0  0  0  0  0  0  0  0  0  0  0
  -25.9090  -11.7020   20.5440 N   0  0  0  0  0  0  0  0  0  0  0  0
  -23.8940  -10.4700   21.0450 C   0  0  0  0  0  0  0  0  0  0  0  0
  -24.3380   -9.5030   21.9740 C   0  0  0  0  0  3  0  0  0  0  0  0
  -23.6170   -8.3040   22.1570 C   0  0  0  0  0  3  0  0  0  0  0  0
  -22.4380   -8.0640   21.4130 C   0  0  0  0  0  0  0  0  0  0  0  0
  -22.0140   -9.0180   20.4730 C   0  0  0  0  0  3  0  0  0  0  0  0
  -22.7360  -10.2080   20.2870 C   0  0  0  0  0  3  0  0  0  0  0  0
  -21.6890   -6.9150   21.5080 O   0  0  0  0  0  0  0  0  0  0  0  0
  -21.6600   -6.1640   22.6550 C   0  0  0  0  0  0  0  0  0  0  0  0
  -21.2630   -6.7120   23.8940 C   0  0  0  0  0  3  0  0  0  0  0  0
  -21.1810   -5.8880   25.0340 C   0  0  0  0  0  3  0  0  0  0  0  0
  -21.4880   -4.5170   24.9360 C   0  0  0  0  0  0  0  0  0  0  0  0
  -21.8790   -3.9690   23.7020 C   0  0  0  0  0  3  0  0  0  0  0  0
  -21.9610   -4.7900   22.5640 C   0  0  0  0  0  0  0  0  0  0  0  0
  -22.3180   -4.2530   21.3730 F   0  0  0  0  0  0  0  0  0  0  0  0
  -21.4020   -3.7250   26.0300 F   0  0  0  0  0  0  0  0  0  0  0  0
  -22.7460  -13.5560   21.1330 C   0  0  0  0  0  0  0  0  0  0  0  0
  -22.0180  -12.8630   22.0010 N   0  0  0  0  0  0  0  0  0  0  0  0
  -22.3060  -14.5740   20.6010 O   0  0  0  0  0  0  0  0  0  0  0  0
  -22.3860  -12.0400   22.4530 H   0  0  0  0  0  0  0  0  0  0  0  0
  -21.0770  -13.1610   22.2180 H   0  0  0  0  0  0  0  0  0  0  0  0
  -25.3650  -15.2300   20.3020 N   0  0  0  0  0  0  0  0  0  0  0  0
  -24.5860  -15.8730   20.3870 H   0  0  0  0  0  0  0  0  0  0  0  0
  -26.1930  -15.6640   19.9160 H   0  0  0  0  0  0  0  0  0  0  0  0
  -28.2220  -24.9250   19.6620 C   0  0  0  0  0  3  0  0  0  0  0  0
  -28.4730  -24.9460   18.1210 C   0  0  1  0  0  0  0  0  0  0  0  0
  -28.3070  -23.7250   17.6110 F   0  0  0  0  0  0  0  0  0  0  0  0
  -27.6530  -25.7590   17.4610 F   0  0  0  0  0  0  0  0  0  0  0  0
  -29.7250  -25.3360   17.8690 F   0  0  0  0  0  0  0  0  0  0  0  0
  -28.3120  -26.3670   20.1480 O   0  0  0  0  0  0  0  0  0  0  0  0
  -24.6260  -31.8800   23.2070 C   0  0  0  0  0  0  0  0  0  0  0  0
  -27.1990  -27.2560   20.1220 C   0  0  0  0  0  0  0  0  0  0  0  0
  -23.4090  -30.4790   21.5860 C   0  0  0  0  0  3  0  0  0  0  0  0
  -24.8440  -28.9240   20.1480 C   0  0  0  0  0  0  0  0  0  0  0  0
  -25.9550  -30.7810   21.3790 C   0  0  0  0  0  2  0  0  0  0  0  0
  -26.0270  -29.3960   20.7290 C   0  0  0  0  0  0  0  0  0  0  0  0
  -27.2050  -28.5760   20.7040 C   0  0  0  0  0  3  0  0  0  0  0  0
  -25.9710  -26.8520   19.5490 C   0  0  0  0  0  3  0  0  0  0  0  0
  -24.8210  -27.6590   19.5510 C   0  0  0  0  0  3  0  0  0  0  0  0
  -23.6120  -29.8090   20.2040 C   0  0  0  0  0  2  0  0  0  0  0  0
  -24.6850  -31.0650   22.1130 N   0  0  0  0  0  0  0  0  0  0  0  0
  -23.5460  -32.1570   23.7500 O   0  0  0  0  0  0  0  0  0  0  0  0
  -22.7550  -29.4620   22.5530 C   0  0  0  0  0  0  0  0  0  0  0  0
  -21.4270  -29.2840   22.4410 N   0  0  0  0  0  0  0  0  0  0  0  0
  -23.4420  -28.8400   23.3670 O   0  0  0  0  0  0  0  0  0  0  0  0
  -20.9310  -29.8380   21.7570 H   0  0  0  0  0  0  0  0  0  0  0  0
  -18.0570  -28.0720   22.9690 C   0  0  0  0  0  0  0  0  0  0  0  0
  -20.6160  -28.3460   23.2230 C   0  0  0  0  0  3  0  0  0  0  0  0
  -20.7230  -26.9130   22.6550 C   0  0  0  0  0  2  0  0  0  0  0  0
  -19.6160  -26.5790   21.6510 C   0  0  0  0  0  2  0  0  0  0  0  0
  -18.2370  -26.7200   22.3010 C   0  0  0  0  0  2  0  0  0  0  0  0
  -19.1750  -28.8430   23.3880 C   0  0  0  0  0  0  0  0  0  0  0  0
  -18.9520  -30.1080   23.9750 C   0  0  0  0  0  3  0  0  0  0  0  0
  -17.6470  -30.6030   24.1450 C   0  0  0  0  0  3  0  0  0  0  0  0
  -16.5430  -29.8300   23.7430 C   0  0  0  0  0  3  0  0  0  0  0  0
  -16.7500  -28.5670   23.1610 C   0  0  0  0  0  3  0  0  0  0  0  0
  -25.9110  -32.5190   23.8160 C   0  0  0  0  0  3  0  0  0  0  0  0
  -26.4490  -31.7420   25.0800 C   0  0  1  0  0  0  0  0  0  0  0  0
  -25.3720  -31.4950   26.1630 C   0  0  0  0  0  1  0  0  0  0  0  0
  -27.0330  -30.3690   24.6730 C   0  0  0  0  0  1  0  0  0  0  0  0
  -27.6030  -32.5380   25.7310 C   0  0  0  0  0  1  0  0  0  0  0  0
  -25.5940  -33.9120   24.1640 N   0  0  0  0  0  0  0  0  0  0  0  0
  -25.9070  -34.9760   23.4130 C   0  0  0  0  0  0  0  0  0  0  0  0
  -26.5620  -34.8870   22.3700 O   0  0  0  0  0  0  0  0  0  0  0  0
  -25.0120  -34.0530   24.9760 H   0  0  0  0  0  0  0  0  0  0  0  0
  -24.1630  -36.7610   23.1020 C   0  0  0  0  0  1  0  0  0  0  0  0
  -25.4160  -36.3560   23.8920 C   0  0  0  0  0  3  0  0  0  0  0  0
  -27.5570  -37.2450   24.7020 C   0  0  0  0  0  1  0  0  0  0  0  0
  -26.4400  -37.4170   23.7770 N   0  0  0  0  0  0  0  0  0  0  0  0
  -26.0300  -38.3330   23.9400 H   0  0  0  0  0  0  0  0  0  0  0  0
  1  6  1  0
  2  3  2  0
  3  5  1  0
  3  9  1  0
  4  6  1  0
  4  5  2  0
  6  8  1  0
  7  2  1  0
  7  4  1  0
 10 18  1  0
 11 16  1  0
 12 13  1  0
 12 11  1  0
 14 13  1  0
 14 23  1  0
 14 15  1  0
 16 10  1  0
 16 15  1  0
 17 10  2  0
 18 19  1  0
 18  9  1  0
 20 21  2  0
 21 40  1  0
 22 21  1  0
 22 25  1  0
 23 20  1  0
 23 24  1  0
 24 22  2  0
 25 26  1  0
 26 27  2  0
 28 31  1  0
 28 27  1  0
 29 28  2  0
 30 29  1  0
 30 25  2  0
 31 32  1  0
 32 33  1  0
 33 34  2  0
 35 34  1  0
 35 39  1  0
 36 35  2  0
 37 32  2  0
 37 36  1  0
 38 37  1  0
 40 41  1  0
 41 44  1  0
 41 43  1  0
 42 40  2  0
 45 46  1  0
 45 20  1  0
 47 45  1  0
 48 53  1  0
 48  1  1  0
 49 48  1  0
 49 50  1  6
 51 49  1  0
 52 49  1  0
 54 65  2  0
 55 53  1  0
 55 60  1  0
 56 64  1  0
 56 66  1  0
 57 63  1  0
 57 59  1  0
 58 64  1  0
 59 58  1  0
 60 59  2  0
 61 62  1  0
 61 55  2  0
 62 57  2  0
 63 56  1  0
 64 54  1  0
 66 68  2  0
 67 66  1  0
 69 67  1  0
 70 79  2  0
 70 75  1  0
 71 67  1  0
 71 75  1  0
 72 71  1  0
 73 74  1  0
 73 72  1  0
 74 70  1  0
 75 76  2  0
 76 77  1  0
 78 77  2  0
 79 78  1  0
 80 54  1  0
 80 85  1  0
 80 81  1  0
 81 84  1  1
 81 82  1  0
 83 81  1  0
 85 88  1  0
 86 90  1  0
 86 85  1  0
 87 86  2  0
 90 89  1  0
 92 90  1  0
 92 93  1  0
 92 91  1  0
M  ISO  4  10 100  18 100  48 101  53 101
M  END
>  <TORSDO>  (57) 
F 20

>  <SCORE>  (57) 
-13.821

>  <name>  (57) 
56

>  <ligand_id>  (57) 
56

>  <original_smiles>  (57) 
[H]c1sc(N([H])C([H])([H])C([H])(Oc2c([H])c([H])c3c(c2[H])C([H])([H])N(C(=O)C([H])(N([H])C(=O)C([H])(N([H])C([H])([H])[H])C([H])([H])[H])C(C([H])([H])[H])(C([H])([H])[H])C([H])([H])[H])C([H])(C(=O)N([H])C2([H])c4c([H])c([H])c([H])c([H])c4C([H])([H])C([H])([H])C2([H])[H])C3([H])[H])C(F)(F)F)nc1C([H])([H])N([H])C(=O)N1C([H])([H])C([H])([H])C([H])([H])C([H])(n2nc(-c3c([H])c([H])c(Oc4c([H])c([H])c(F)c([H])c4F)c([H])c3[H])c(C(=O)N([H])[H])c2N([H])[H])C1([H])[H]

>  <smiles>  (57) 
[H]c1sc(N([H])C([H])([H])C([H])(Oc2c([H])c([H])c3c(c2[H])C([H])([H])N(C(=O)C([H])(N([H])C(=O)C([H])(N([H])C([H])([H])[H])C([H])([H])[H])C(C([H])([H])[H])(C([H])([H])[H])C([H])([H])[H])C([H])(C(=O)N([H])C2([H])c4c([H])c([H])c([H])c([H])c4C([H])([H])C([H])([H])C2([H])[H])C3([H])[H])C(F)(F)F)nc1C([H])([H])N([H])C(=O)N1C([H])([H])C([H])([H])C([H])([H])C([H])(n2nc(-c3c([H])c([H])c(Oc4c([H])c([H])c(F)c([H])c4F)c([H])c3[H])c(C(=O)N([H])[H])c2N([H])[H])C1([H])[H]

$$$$
57:0:0
     RDKit          3D

 93102  0  0  1  0  0  0  0  0999 V2000
  -30.7570  -18.0520   17.7800 C   0  0  0  0  0  3  0  0  0  0  0  0
  -30.6220  -16.8950   18.5640 C   0  0  0  0  0  3  0  0  0  0  0  0
  -29.6890  -18.2250   20.4060 C   0  0  0  0  0  3  0  0  0  0  0  0
  -30.3440  -19.2780   18.3170 C   0  0  0  0  0  0  0  0  0  0  0  0
  -29.8190  -19.4070   19.6010 C   0  0  0  0  0  0  0  0  0  0  0  0
  -30.0960  -16.9410   19.8840 C   0  0  0  0  0  0  0  0  0  0  0  0
  -30.4000  -20.5840   17.6040 C   0  0  0  0  0  3  0  0  0  0  0  0
  -29.7070  -21.5090   18.6040 C   0  0  0  0  0  3  0  0  0  0  0  0
  -29.4350  -20.7630   19.8450 N   0  0  0  0  0  0  0  0  0  0  0  0
  -30.6530  -14.5540   20.4250 C   0  0  0  0  0  0  0  0  0  0  0  0
  -30.3490  -12.3430   19.3830 C   0  0  0  0  0  2  0  0  0  0  0  0
  -29.4310  -12.5340   18.1580 C   0  0  0  0  0  2  0  0  0  0  0  0
  -27.9530  -12.4110   18.5720 C   0  0  0  0  0  2  0  0  0  0  0  0
  -27.6020  -13.2660   19.8190 C   0  0  0  0  0  3  0  0  0  0  0  0
  -28.6490  -13.0960   20.9420 C   0  0  0  0  0  2  0  0  0  0  0  0
  -29.9740  -13.3710   20.3710 N   0  0  0  0  0  0  0  0  0  0  0  0
  -31.8420  -14.6300   20.1100 O   0  0  0  0  0  0  0  0  0  0  0  0
  -29.9150  -15.6880   20.6040 N   0  0  0  0  0  0  0  0  0  0  0  0
  -29.0230  -15.5630   21.0570 H   0  0  0  0  0  0  0  0  0  0  0  0
  -25.2050  -13.8790   20.5120 C   0  0  0  0  0  0  0  0  0  0  0  0
  -24.1320  -13.1120   20.8740 C   0  0  0  0  0  0  0  0  0  0  0  0
  -24.5860  -11.7580   20.8550 C   0  0  0  0  0  0  0  0  0  0  0  0
  -26.2480  -12.9920   20.2930 N   0  0  0  0  0  0  0  0  0  0  0  0
  -25.8810  -11.7130   20.5610 N   0  0  0  0  0  0  0  0  0  0  0  0
  -23.8520  -10.5010   21.0430 C   0  0  0  0  0  0  0  0  0  0  0  0
  -24.2720   -9.5340   21.9820 C   0  0  0  0  0  3  0  0  0  0  0  0
  -23.5380   -8.3410   22.1590 C   0  0  0  0  0  3  0  0  0  0  0  0
  -22.3680   -8.1080   21.3970 C   0  0  0  0  0  0  0  0  0  0  0  0
  -21.9670   -9.0640   20.4480 C   0  0  0  0  0  3  0  0  0  0  0  0
  -22.7020  -10.2480   20.2690 C   0  0  0  0  0  3  0  0  0  0  0  0
  -21.6060   -6.9690   21.4850 O   0  0  0  0  0  0  0  0  0  0  0  0
  -21.5480   -6.2270   22.6370 C   0  0  0  0  0  0  0  0  0  0  0  0
  -21.1250   -6.7860   23.8630 C   0  0  0  0  0  3  0  0  0  0  0  0
  -21.0120   -5.9720   25.0070 C   0  0  0  0  0  3  0  0  0  0  0  0
  -21.3150   -4.5990   24.9260 C   0  0  0  0  0  0  0  0  0  0  0  0
  -21.7340   -4.0390   23.7050 C   0  0  0  0  0  3  0  0  0  0  0  0
  -21.8480   -4.8510   22.5650 C   0  0  0  0  0  0  0  0  0  0  0  0
  -22.2310   -4.3030   21.3860 F   0  0  0  0  0  0  0  0  0  0  0  0
  -21.1980   -3.8130   26.0220 F   0  0  0  0  0  0  0  0  0  0  0  0
  -22.7350  -13.5980   21.1280 C   0  0  0  0  0  0  0  0  0  0  0  0
  -21.9920  -12.9110   21.9890 N   0  0  0  0  0  0  0  0  0  0  0  0
  -22.3100  -14.6240   20.5990 O   0  0  0  0  0  0  0  0  0  0  0  0
  -22.3500  -12.0840   22.4440 H   0  0  0  0  0  0  0  0  0  0  0  0
  -21.0530  -13.2220   22.2000 H   0  0  0  0  0  0  0  0  0  0  0  0
  -25.3740  -15.2490   20.3310 N   0  0  0  0  0  0  0  0  0  0  0  0
  -24.5950  -15.8940   20.4180 H   0  0  0  0  0  0  0  0  0  0  0  0
  -26.2160  -15.6910   19.9880 H   0  0  0  0  0  0  0  0  0  0  0  0
  -29.7230  -21.4780   21.1020 C   0  0  0  0  0  2  0  0  0  0  0  0
  -28.8830  -22.7950   21.3360 C   0  0  0  0  0  2  0  0  0  0  0  0
  -29.3050  -24.1690   20.7220 C   0  0  0  0  0  0  0  0  0  0  0  0
  -30.4940  -24.4830   20.5940 O   0  0  0  0  0  0  0  0  0  0  0  0
  -28.1560  -25.1200   20.2810 C   0  0  0  0  0  2  0  0  0  0  0  0
  -28.4250  -26.5540   20.3530 O   0  0  0  0  0  0  0  0  0  0  0  0
  -24.6030  -31.8810   23.2600 C   0  0  0  0  0  0  0  0  0  0  0  0
  -27.2890  -27.3610   20.2700 C   0  0  0  0  0  0  0  0  0  0  0  0
  -23.4280  -30.4680   21.6100 C   0  0  0  0  0  3  0  0  0  0  0  0
  -24.9040  -28.9210   20.2180 C   0  0  0  0  0  0  0  0  0  0  0  0
  -25.9640  -30.8080   21.4590 C   0  0  0  0  0  2  0  0  0  0  0  0
  -26.0600  -29.4310   20.8250 C   0  0  0  0  0  0  0  0  0  0  0  0
  -27.2560  -28.6630   20.8410 C   0  0  0  0  0  3  0  0  0  0  0  0
  -26.1090  -26.8930   19.6380 C   0  0  0  0  0  3  0  0  0  0  0  0
  -24.9270  -27.6550   19.6190 C   0  0  0  0  0  3  0  0  0  0  0  0
  -23.6630  -29.7850   20.2390 C   0  0  0  0  0  2  0  0  0  0  0  0
  -24.6830  -31.0680   22.1670 N   0  0  0  0  0  0  0  0  0  0  0  0
  -23.5110  -32.1590   23.7760 O   0  0  0  0  0  0  0  0  0  0  0  0
  -22.7570  -29.4530   22.5650 C   0  0  0  0  0  0  0  0  0  0  0  0
  -21.4360  -29.2650   22.4110 N   0  0  0  0  0  0  0  0  0  0  0  0
  -23.4220  -28.8400   23.4040 O   0  0  0  0  0  0  0  0  0  0  0  0
  -20.9610  -29.8130   21.7080 H   0  0  0  0  0  0  0  0  0  0  0  0
  -18.0540  -28.0610   22.8520 C   0  0  0  0  0  0  0  0  0  0  0  0
  -20.6040  -28.3330   23.1750 C   0  0  0  0  0  3  0  0  0  0  0  0
  -20.7240  -26.8960   22.6170 C   0  0  0  0  0  2  0  0  0  0  0  0
  -19.6450  -26.5580   21.5830 C   0  0  0  0  0  2  0  0  0  0  0  0
  -18.2500  -26.7040   22.1960 C   0  0  0  0  0  2  0  0  0  0  0  0
  -19.1610  -28.8320   23.2970 C   0  0  0  0  0  0  0  0  0  0  0  0
  -18.9240  -30.1000   23.8710 C   0  0  0  0  0  3  0  0  0  0  0  0
  -17.6140  -30.5990   24.0030 C   0  0  0  0  0  3  0  0  0  0  0  0
  -16.5230  -29.8260   23.5720 C   0  0  0  0  0  3  0  0  0  0  0  0
  -16.7420  -28.5580   23.0060 C   0  0  0  0  0  3  0  0  0  0  0  0
  -25.8760  -32.5180   23.8970 C   0  0  0  0  0  3  0  0  0  0  0  0
  -26.3710  -31.7590   25.1880 C   0  0  1  0  0  0  0  0  0  0  0  0
  -25.2600  -31.5340   26.2400 C   0  0  0  0  0  1  0  0  0  0  0  0
  -26.9590  -30.3780   24.8190 C   0  0  0  0  0  1  0  0  0  0  0  0
  -27.5110  -32.5600   25.8610 C   0  0  0  0  0  1  0  0  0  0  0  0
  -25.5620  -33.9190   24.2080 N   0  0  0  0  0  0  0  0  0  0  0  0
  -25.9070  -34.9630   23.4410 C   0  0  0  0  0  0  0  0  0  0  0  0
  -26.5940  -34.8470   22.4230 O   0  0  0  0  0  0  0  0  0  0  0  0
  -24.9540  -34.0840   24.9960 H   0  0  0  0  0  0  0  0  0  0  0  0
  -24.1860  -36.7520   23.0370 C   0  0  0  0  0  1  0  0  0  0  0  0
  -25.4130  -36.3570   23.8750 C   0  0  0  0  0  3  0  0  0  0  0  0
  -27.5330  -37.2490   24.7350 C   0  0  0  0  0  1  0  0  0  0  0  0
  -26.4490  -37.4080   23.7690 N   0  0  0  0  0  0  0  0  0  0  0  0
  -26.0410  -38.3300   23.8990 H   0  0  0  0  0  0  0  0  0  0  0  0
  1  4  2  0
  1  2  1  0
  2  6  2  0
  4  5  1  0
  5  9  1  0
  5  3  2  0
  6  3  1  0
  6 18  1  0
  7  4  1  0
  7  8  2  0
  8  9  1  0
  9 48  1  0
 10 18  1  0
 11 16  1  0
 12 13  1  0
 12 11  1  0
 14 13  1  0
 14 23  1  0
 14 15  1  0
 16 10  1  0
 16 15  1  0
 17 10  2  0
 18 19  1  0
 20 21  2  0
 21 40  1  0
 22 21  1  0
 22 25  1  0
 23 20  1  0
 23 24  1  0
 24 22  2  0
 25 26  1  0
 26 27  2  0
 28 31  1  0
 28 27  1  0
 29 28  2  0
 30 29  1  0
 30 25  2  0
 31 32  1  0
 32 33  1  0
 33 34  2  0
 35 34  1  0
 35 39  1  0
 36 35  2  0
 37 32  2  0
 37 36  1  0
 38 37  1  0
 40 41  1  0
 41 44  1  0
 41 43  1  0
 42 40  2  0
 45 46  1  0
 45 20  1  0
 47 45  1  0
 48 49  1  0
 50 49  1  0
 51 50  2  0
 52 53  1  0
 52 50  1  0
 54 65  2  0
 55 53  1  0
 55 60  1  0
 56 64  1  0
 56 66  1  0
 57 63  1  0
 57 59  1  0
 58 64  1  0
 59 60  2  0
 59 58  1  0
 61 55  2  0
 62 61  1  0
 62 57  2  0
 63 56  1  0
 64 54  1  0
 66 68  2  0
 67 66  1  0
 69 67  1  0
 70 79  2  0
 70 75  1  0
 71 67  1  0
 71 75  1  0
 72 71  1  0
 73 74  1  0
 73 72  1  0
 74 70  1  0
 75 76  2  0
 76 77  1  0
 78 77  2  0
 79 78  1  0
 80 54  1  0
 80 85  1  0
 80 81  1  0
 81 84  1  1
 81 82  1  0
 83 81  1  0
 85 88  1  0
 86 90  1  0
 86 85  1  0
 87 86  2  0
 90 89  1  0
 92 90  1  0
 92 93  1  0
 92 91  1  0
M  ISO  4  10 100  18 100  52 101  53 101
M  END
>  <TORSDO>  (58) 
F 20

>  <SCORE>  (58) 
-13.971

>  <name>  (58) 
57

>  <ligand_id>  (58) 
57

>  <original_smiles>  (58) 
[H]c1c([H])c([H])c2c(c1[H])C([H])([H])C([H])([H])C([H])([H])C2([H])N([H])C(=O)C1([H])N(C(=O)C([H])(N([H])C(=O)C([H])(N([H])C([H])([H])[H])C([H])([H])[H])C(C([H])([H])[H])(C([H])([H])[H])C([H])([H])[H])C([H])([H])c2c([H])c(OC([H])([H])C(=O)C([H])([H])C([H])([H])N3c4c([H])c(N([H])C(=O)N5C([H])([H])C([H])([H])C([H])([H])C([H])(n6nc(-c7c([H])c([H])c(Oc8c([H])c([H])c(F)c([H])c8F)c([H])c7[H])c(C(=O)N([H])[H])c6N([H])[H])C5([H])[H])c([H])c([H])c4C([H])([H])C3([H])[H])c([H])c([H])c2C1([H])[H]

>  <smiles>  (58) 
[H]c1c([H])c([H])c2c(c1[H])C([H])([H])C([H])([H])C([H])([H])C2([H])N([H])C(=O)C1([H])N(C(=O)C([H])(N([H])C(=O)C([H])(N([H])C([H])([H])[H])C([H])([H])[H])C(C([H])([H])[H])(C([H])([H])[H])C([H])([H])[H])C([H])([H])c2c([H])c(OC([H])([H])C(=O)C([H])([H])C([H])([H])N3c4c([H])c(N([H])C(=O)N5C([H])([H])C([H])([H])C([H])([H])C([H])(n6nc(-c7c([H])c([H])c(Oc8c([H])c([H])c(F)c([H])c8F)c([H])c7[H])c(C(=O)N([H])[H])c6N([H])[H])C5([H])[H])c([H])c([H])c4C([H])([H])C3([H])[H])c([H])c([H])c2C1([H])[H]

$$$$
58:0:0
     RDKit          3D

 94102  0  0  1  0  0  0  0  0999 V2000
  -30.2290  -19.0050   21.9030 C   0  0  0  0  0  3  0  0  0  0  0  0
  -29.8120  -20.0950   19.7920 C   0  0  0  0  0  3  0  0  0  0  0  0
  -30.0260  -20.2670   22.4960 C   0  0  0  0  0  3  0  0  0  0  0  0
  -30.1460  -18.8740   20.5050 C   0  0  0  0  0  0  0  0  0  0  0  0
  -29.6220  -21.3580   20.4700 C   0  0  0  0  0  0  0  0  0  0  0  0
  -29.7450  -21.4040   21.8110 N   0  0  0  0  0  0  0  0  0  0  0  0
  -29.2910  -22.6010   19.8160 N   0  0  0  0  0  0  0  0  0  0  0  0
  -29.1080  -22.5550   18.8200 H   0  0  0  0  0  0  0  0  0  0  0  0
  -30.9820  -14.9790   20.1240 C   0  0  0  0  0  0  0  0  0  0  0  0
  -30.6890  -12.7070   19.1450 C   0  0  0  0  0  2  0  0  0  0  0  0
  -29.7390  -12.8050   17.9300 C   0  0  0  0  0  2  0  0  0  0  0  0
  -28.2730  -12.6580   18.3780 C   0  0  0  0  0  2  0  0  0  0  0  0
  -27.9350  -13.5500   19.6030 C   0  0  0  0  0  3  0  0  0  0  0  0
  -29.0100  -13.4590   20.7110 C   0  0  0  0  0  2  0  0  0  0  0  0
  -30.3050  -13.7770   20.0990 N   0  0  0  0  0  0  0  0  0  0  0  0
  -32.1590  -15.0230   19.7510 O   0  0  0  0  0  0  0  0  0  0  0  0
  -30.5540  -17.5520   19.8510 C   0  0  0  0  0  3  0  0  0  0  0  0
  -31.6590  -16.8870   17.6020 C   0  0  0  0  0  1  0  0  0  0  0  0
  -30.2690  -16.2750   20.3630 N   0  0  0  0  0  0  0  0  0  0  0  0
  -31.2300  -17.7750   18.6950 N   0  0  0  0  0  0  0  0  0  0  0  0
  -29.4050  -16.2850   20.8760 H   0  0  0  0  0  0  0  0  0  0  0  0
  -31.4290  -18.7530   18.5270 H   0  0  0  0  0  0  0  0  0  0  0  0
  -25.5760  -14.1720   20.3840 C   0  0  0  0  0  0  0  0  0  0  0  0
  -24.5060  -13.4110   20.7730 C   0  0  0  0  0  0  0  0  0  0  0  0
  -24.9480  -12.0550   20.7260 C   0  0  0  0  0  0  0  0  0  0  0  0
  -26.5990  -13.2770   20.1190 N   0  0  0  0  0  0  0  0  0  0  0  0
  -26.2320  -11.9990   20.3910 N   0  0  0  0  0  0  0  0  0  0  0  0
  -24.2060  -10.8040   20.9250 C   0  0  0  0  0  0  0  0  0  0  0  0
  -24.6150   -9.8460   21.8790 C   0  0  0  0  0  3  0  0  0  0  0  0
  -23.8720   -8.6600   22.0650 C   0  0  0  0  0  3  0  0  0  0  0  0
  -22.7090   -8.4230   21.2960 C   0  0  0  0  0  0  0  0  0  0  0  0
  -22.3210   -9.3660   20.3280 C   0  0  0  0  0  3  0  0  0  0  0  0
  -23.0640  -10.5440   20.1400 C   0  0  0  0  0  3  0  0  0  0  0  0
  -21.9410   -7.2880   21.3900 O   0  0  0  0  0  0  0  0  0  0  0  0
  -21.8400   -6.5810   22.5620 C   0  0  0  0  0  0  0  0  0  0  0  0
  -21.3080   -7.1560   23.7360 C   0  0  0  0  0  3  0  0  0  0  0  0
  -21.1570   -6.3730   24.8970 C   0  0  0  0  0  3  0  0  0  0  0  0
  -21.5280   -5.0150   24.8860 C   0  0  0  0  0  0  0  0  0  0  0  0
  -22.0540   -4.4400   23.7160 C   0  0  0  0  0  3  0  0  0  0  0  0
  -22.2050   -5.2190   22.5560 C   0  0  0  0  0  0  0  0  0  0  0  0
  -22.6920   -4.6530   21.4260 F   0  0  0  0  0  0  0  0  0  0  0  0
  -21.3770   -4.2610   26.0010 F   0  0  0  0  0  0  0  0  0  0  0  0
  -23.1220  -13.9080   21.0670 C   0  0  0  0  0  0  0  0  0  0  0  0
  -22.4050  -13.2220   21.9490 N   0  0  0  0  0  0  0  0  0  0  0  0
  -22.6880  -14.9380   20.5540 O   0  0  0  0  0  0  0  0  0  0  0  0
  -22.7760  -12.3870   22.3810 H   0  0  0  0  0  0  0  0  0  0  0  0
  -21.4760  -13.5320   22.1920 H   0  0  0  0  0  0  0  0  0  0  0  0
  -25.7590  -15.5410   20.2100 N   0  0  0  0  0  0  0  0  0  0  0  0
  -25.0080  -16.2080   20.3570 H   0  0  0  0  0  0  0  0  0  0  0  0
  -26.5760  -15.9620   19.7890 H   0  0  0  0  0  0  0  0  0  0  0  0
  -29.4410  -24.0050   20.3770 C   0  0  0  0  0  2  0  0  0  0  0  0
  -29.1840  -25.3440   18.1830 C   0  0  0  0  0  1  0  0  0  0  0  0
  -28.6670  -25.2140   19.6240 C   0  0  0  0  0  3  0  0  0  0  0  0
  -28.6840  -26.6240   20.1550 O   0  0  0  0  0  0  0  0  0  0  0  0
  -24.7150  -31.8250   23.2840 C   0  0  0  0  0  0  0  0  0  0  0  0
  -27.5480  -27.4700   20.0740 C   0  0  0  0  0  0  0  0  0  0  0  0
  -23.5900  -30.4430   21.5760 C   0  0  0  0  0  3  0  0  0  0  0  0
  -25.1230  -29.0210   20.0960 C   0  0  0  0  0  0  0  0  0  0  0  0
  -26.1210  -30.8640   21.4410 C   0  0  0  0  0  2  0  0  0  0  0  0
  -26.2640  -29.5150   20.7380 C   0  0  0  0  0  0  0  0  0  0  0  0
  -27.4750  -28.7500   20.7230 C   0  0  0  0  0  3  0  0  0  0  0  0
  -26.3850  -27.0640   19.3760 C   0  0  0  0  0  3  0  0  0  0  0  0
  -25.1900  -27.8060   19.4020 C   0  0  0  0  0  3  0  0  0  0  0  0
  -23.8470  -29.8360   20.1720 C   0  0  0  0  0  2  0  0  0  0  0  0
  -24.8270  -31.0610   22.1560 N   0  0  0  0  0  0  0  0  0  0  0  0
  -23.6150  -32.0350   23.8160 O   0  0  0  0  0  0  0  0  0  0  0  0
  -22.9630  -29.3600   22.4860 C   0  0  0  0  0  0  0  0  0  0  0  0
  -21.6530  -29.1120   22.3190 N   0  0  0  0  0  0  0  0  0  0  0  0
  -23.6560  -28.7480   23.3020 O   0  0  0  0  0  0  0  0  0  0  0  0
  -21.1540  -29.6600   21.6320 H   0  0  0  0  0  0  0  0  0  0  0  0
  -18.3380  -27.7080   22.6940 C   0  0  0  0  0  0  0  0  0  0  0  0
  -20.8700  -28.1040   23.0390 C   0  0  0  0  0  3  0  0  0  0  0  0
  -21.0690  -26.7020   22.4210 C   0  0  0  0  0  2  0  0  0  0  0  0
  -20.0110  -26.3480   21.3700 C   0  0  0  0  0  2  0  0  0  0  0  0
  -18.6090  -26.3930   21.9810 C   0  0  0  0  0  2  0  0  0  0  0  0
  -19.4000  -28.5190   23.1770 C   0  0  0  0  0  0  0  0  0  0  0  0
  -19.0940  -29.7460   23.8020 C   0  0  0  0  0  3  0  0  0  0  0  0
  -17.7590  -30.1660   23.9510 C   0  0  0  0  0  3  0  0  0  0  0  0
  -16.7110  -29.3530   23.4860 C   0  0  0  0  0  3  0  0  0  0  0  0
  -17.0020  -28.1250   22.8630 C   0  0  0  0  0  3  0  0  0  0  0  0
  -25.9620  -32.4880   23.9450 C   0  0  0  0  0  3  0  0  0  0  0  0
  -25.6130  -33.8830   24.2550 N   0  0  0  0  0  0  0  0  0  0  0  0
  -25.9330  -34.9350   23.4910 C   0  0  0  0  0  0  0  0  0  0  0  0
  -26.6220  -34.8370   22.4720 O   0  0  0  0  0  0  0  0  0  0  0  0
  -25.0030  -34.0310   25.0440 H   0  0  0  0  0  0  0  0  0  0  0  0
  -24.1670  -36.6810   23.0880 C   0  0  0  0  0  1  0  0  0  0  0  0
  -25.4050  -36.3180   23.9240 C   0  0  0  0  0  3  0  0  0  0  0  0
  -27.4930  -37.2740   24.7900 C   0  0  0  0  0  1  0  0  0  0  0  0
  -26.4140  -37.3940   23.8140 N   0  0  0  0  0  0  0  0  0  0  0  0
  -25.9830  -38.3080   23.9280 H   0  0  0  0  0  0  0  0  0  0  0  0
  -26.4410  -31.7370   25.2470 C   0  0  1  0  0  0  0  0  0  0  0  0
  -25.3100  -31.4860   26.2720 C   0  0  0  0  0  1  0  0  0  0  0  0
  -27.0670  -30.3690   24.8920 C   0  0  0  0  0  1  0  0  0  0  0  0
  -27.5490  -32.5600   25.9480 C   0  0  0  0  0  1  0  0  0  0  0  0
  1  3  1  0
  2  5  2  0
  2  4  1  0
  4  1  2  0
  5  6  1  0
  6  3  2  0
  7 51  1  0
  7  5  1  0
  8  7  1  0
  9 19  1  0
 10 15  1  0
 11 12  1  0
 11 10  1  0
 13 12  1  0
 13 26  1  0
 13 14  1  0
 15  9  1  0
 15 14  1  0
 16  9  2  0
 17 20  1  0
 17 19  1  0
 17  4  1  0
 18 20  1  0
 19 21  1  0
 22 20  1  0
 23 24  2  0
 24 43  1  0
 25 24  1  0
 25 28  1  0
 26 23  1  0
 26 27  1  0
 27 25  2  0
 28 29  1  0
 29 30  2  0
 31 34  1  0
 31 30  1  0
 32 31  2  0
 33 32  1  0
 33 28  2  0
 34 35  1  0
 35 36  1  0
 36 37  2  0
 38 37  1  0
 38 42  1  0
 39 38  2  0
 40 35  2  0
 40 39  1  0
 41 40  1  0
 43 44  1  0
 44 47  1  0
 44 46  1  0
 45 43  2  0
 48 49  1  0
 48 23  1  0
 50 48  1  0
 53 52  1  0
 53 54  1  0
 53 51  1  0
 55 66  2  0
 56 54  1  0
 56 61  1  0
 57 65  1  0
 57 67  1  0
 58 64  1  0
 58 60  1  0
 59 65  1  0
 60 59  1  0
 61 60  2  0
 62 63  1  0
 62 56  2  0
 63 58  2  0
 64 57  1  0
 65 55  1  0
 67 69  2  0
 68 67  1  0
 70 68  1  0
 71 80  2  0
 71 76  1  0
 72 68  1  0
 72 76  1  0
 73 72  1  0
 74 75  1  0
 74 73  1  0
 75 71  1  0
 76 77  2  0
 77 78  1  0
 79 78  2  0
 80 79  1  0
 81 55  1  0
 81 82  1  0
 81 91  1  0
 82 85  1  0
 83 87  1  0
 83 82  1  0
 84 83  2  0
 87 86  1  0
 89 87  1  0
 89 90  1  0
 89 88  1  0
 91 94  1  1
 91 92  1  0
 93 91  1  0
M  ISO  4   9 100  19 100  53 101  54 101
M  END
>  <TORSDO>  (59) 
F 18

>  <SCORE>  (59) 
-13.497

>  <name>  (59) 
58

>  <ligand_id>  (59) 
58

>  <original_smiles>  (59) 
[H]c1nc(N([H])C([H])([H])C([H])(Oc2c([H])c([H])c3c(c2[H])C([H])([H])N(C(=O)C([H])(N([H])C(=O)C([H])(N([H])C([H])([H])[H])C([H])([H])[H])C(C([H])([H])[H])(C([H])([H])[H])C([H])([H])[H])C([H])(C(=O)N([H])C2([H])c4c([H])c([H])c([H])c([H])c4C([H])([H])C([H])([H])C2([H])[H])C3([H])[H])C([H])([H])[H])c([H])c(C(N([H])C(=O)N2C([H])([H])C([H])([H])C([H])([H])C([H])(n3nc(-c4c([H])c([H])c(Oc5c([H])c([H])c(F)c([H])c5F)c([H])c4[H])c(C(=O)N([H])[H])c3N([H])[H])C2([H])[H])=[N+]([H])C([H])([H])[H])c1[H]

>  <smiles>  (59) 
[H]c1nc(N([H])C([H])([H])C([H])(Oc2c([H])c([H])c3c(c2[H])C([H])([H])N(C(=O)C([H])(N([H])C(=O)C([H])(N([H])C([H])([H])[H])C([H])([H])[H])C(C([H])([H])[H])(C([H])([H])[H])C([H])([H])[H])C([H])(C(=O)N([H])C2([H])c4c([H])c([H])c([H])c([H])c4C([H])([H])C([H])([H])C2([H])[H])C3([H])[H])C([H])([H])[H])c([H])c(C(N([H])C(=O)N2C([H])([H])C([H])([H])C([H])([H])C([H])(n3nc(-c4c([H])c([H])c(Oc5c([H])c([H])c(F)c([H])c5F)c([H])c4[H])c(C(=O)N([H])[H])c3N([H])[H])C2([H])[H])=[N+]([H])C([H])([H])[H])c1[H]

$$$$
59:0:0
     RDKit          3D

 92100  0  0  1  0  0  0  0  0999 V2000
  -27.9410  -19.9330   20.1650 C   0  0  0  0  0  0  0  0  0  0  0  0
  -28.8120  -20.9930   20.3790 C   0  0  0  0  0  0  0  0  0  0  0  0
  -29.7770  -18.5600   20.3930 C   0  0  0  0  0  0  0  0  0  0  0  0
  -28.4560  -18.6150   20.1710 N   0  0  0  0  0  0  0  0  0  0  0  0
  -26.6600  -20.1430   19.9610 F   0  0  0  0  0  0  0  0  0  0  0  0
  -30.4200  -20.2600   20.6040 S   0  0  0  0  0  0  0  0  0  0  0  0
  -30.8940  -14.8210   20.2720 C   0  0  0  0  0  0  0  0  0  0  0  0
  -30.6200  -12.5310   19.3100 C   0  0  0  0  0  2  0  0  0  0  0  0
  -29.6730  -12.5720   18.0930 C   0  0  0  0  0  2  0  0  0  0  0  0
  -28.2080  -12.4210   18.5450 C   0  0  0  0  0  2  0  0  0  0  0  0
  -27.8510  -13.3430   19.7420 C   0  0  0  0  0  3  0  0  0  0  0  0
  -28.9240  -13.3030   20.8520 C   0  0  0  0  0  2  0  0  0  0  0  0
  -30.2110  -13.6240   20.2250 N   0  0  0  0  0  0  0  0  0  0  0  0
  -32.0870  -14.8170   19.9510 O   0  0  0  0  0  0  0  0  0  0  0  0
  -30.7030  -17.3040   20.4580 C   0  0  0  0  0  0  0  0  0  0  0  0
  -30.1950  -16.0090   20.4520 N   0  0  0  0  0  0  0  0  0  0  0  0
  -31.9180  -17.5340   20.5120 O   0  0  0  0  0  0  0  0  0  0  0  0
  -29.1940  -15.9480   20.5290 H   0  0  0  0  0  0  0  0  0  0  0  0
  -25.4910  -13.9520   20.5360 C   0  0  0  0  0  0  0  0  0  0  0  0
  -24.4200  -13.1880   20.9110 C   0  0  0  0  0  0  0  0  0  0  0  0
  -24.8600  -11.8300   20.8410 C   0  0  0  0  0  0  0  0  0  0  0  0
  -26.5140  -13.0630   20.2590 N   0  0  0  0  0  0  0  0  0  0  0  0
  -26.1430  -11.7790   20.5050 N   0  0  0  0  0  0  0  0  0  0  0  0
  -24.1160  -10.5760   21.0180 C   0  0  0  0  0  0  0  0  0  0  0  0
  -24.5170   -9.6060   21.9630 C   0  0  0  0  0  3  0  0  0  0  0  0
  -23.7730   -8.4170   22.1270 C   0  0  0  0  0  3  0  0  0  0  0  0
  -22.6150   -8.1900   21.3470 C   0  0  0  0  0  0  0  0  0  0  0  0
  -22.2330   -9.1490   20.3930 C   0  0  0  0  0  3  0  0  0  0  0  0
  -22.9760  -10.3290   20.2260 C   0  0  0  0  0  3  0  0  0  0  0  0
  -21.8440   -7.0550   21.4210 O   0  0  0  0  0  0  0  0  0  0  0  0
  -21.7160   -6.3470   22.5900 C   0  0  0  0  0  0  0  0  0  0  0  0
  -21.1220   -6.9100   23.7400 C   0  0  0  0  0  3  0  0  0  0  0  0
  -20.9460   -6.1250   24.8970 C   0  0  0  0  0  3  0  0  0  0  0  0
  -21.3540   -4.7770   24.9030 C   0  0  0  0  0  0  0  0  0  0  0  0
  -21.9410   -4.2140   23.7570 C   0  0  0  0  0  3  0  0  0  0  0  0
  -22.1180   -4.9970   22.6020 C   0  0  0  0  0  0  0  0  0  0  0  0
  -22.6640   -4.4420   21.4930 F   0  0  0  0  0  0  0  0  0  0  0  0
  -21.1790   -4.0220   26.0130 F   0  0  0  0  0  0  0  0  0  0  0  0
  -23.0370  -13.6830   21.2210 C   0  0  0  0  0  0  0  0  0  0  0  0
  -22.3210  -12.9930   22.1020 N   0  0  0  0  0  0  0  0  0  0  0  0
  -22.6010  -14.7180   20.7180 O   0  0  0  0  0  0  0  0  0  0  0  0
  -22.6870  -12.1560   22.5310 H   0  0  0  0  0  0  0  0  0  0  0  0
  -21.3940  -13.3070   22.3520 H   0  0  0  0  0  0  0  0  0  0  0  0
  -25.6730  -15.3230   20.3820 N   0  0  0  0  0  0  0  0  0  0  0  0
  -24.9170  -15.9860   20.5200 H   0  0  0  0  0  0  0  0  0  0  0  0
  -26.5160  -15.7590   20.0320 H   0  0  0  0  0  0  0  0  0  0  0  0
  -28.3910  -22.3880   20.4270 N   0  0  0  0  0  0  0  0  0  0  0  0
  -27.3810  -22.4810   20.3420 H   0  0  0  0  0  0  0  0  0  0  0  0
  -29.1220  -23.7150   20.4320 C   0  0  0  0  0  2  0  0  0  0  0  0
  -27.7420  -24.9960   22.1830 C   0  0  0  0  0  1  0  0  0  0  0  0
  -28.1430  -24.9900   20.6960 C   0  0  0  0  0  3  0  0  0  0  0  0
  -28.4650  -26.4270   20.3480 O   0  0  0  0  0  0  0  0  0  0  0  0
  -24.5620  -31.8370   23.2260 C   0  0  0  0  0  0  0  0  0  0  0  0
  -27.3770  -27.3290   20.2340 C   0  0  0  0  0  0  0  0  0  0  0  0
  -23.4510  -30.4210   21.5410 C   0  0  0  0  0  3  0  0  0  0  0  0
  -24.9890  -28.9250   20.1450 C   0  0  0  0  0  0  0  0  0  0  0  0
  -25.9910  -30.7930   21.4510 C   0  0  0  0  0  2  0  0  0  0  0  0
  -26.1280  -29.4220   20.7930 C   0  0  0  0  0  0  0  0  0  0  0  0
  -27.3270  -28.6360   20.8280 C   0  0  0  0  0  3  0  0  0  0  0  0
  -26.2230  -26.9210   19.5290 C   0  0  0  0  0  3  0  0  0  0  0  0
  -25.0430  -27.6820   19.5010 C   0  0  0  0  0  3  0  0  0  0  0  0
  -23.7300  -29.7700   20.1620 C   0  0  0  0  0  2  0  0  0  0  0  0
  -24.6850  -31.0350   22.1300 N   0  0  0  0  0  0  0  0  0  0  0  0
  -23.4530  -32.0830   23.7250 O   0  0  0  0  0  0  0  0  0  0  0  0
  -22.7850  -29.3780   22.4700 C   0  0  0  0  0  0  0  0  0  0  0  0
  -21.4650  -29.1790   22.3110 N   0  0  0  0  0  0  0  0  0  0  0  0
  -23.4560  -28.7510   23.2950 O   0  0  0  0  0  0  0  0  0  0  0  0
  -20.9810  -29.7390   21.6230 H   0  0  0  0  0  0  0  0  0  0  0  0
  -18.0810  -27.9910   22.8030 C   0  0  0  0  0  0  0  0  0  0  0  0
  -20.6450  -28.2180   23.0510 C   0  0  0  0  0  3  0  0  0  0  0  0
  -20.7270  -26.8110   22.4170 C   0  0  0  0  0  2  0  0  0  0  0  0
  -19.6110  -26.5400   21.4030 C   0  0  0  0  0  2  0  0  0  0  0  0
  -18.2380  -26.6700   22.0690 C   0  0  0  0  0  2  0  0  0  0  0  0
  -19.2110  -28.7260   23.2500 C   0  0  0  0  0  0  0  0  0  0  0  0
  -19.0110  -29.9640   23.8980 C   0  0  0  0  0  3  0  0  0  0  0  0
  -17.7130  -30.4680   24.1000 C   0  0  0  0  0  3  0  0  0  0  0  0
  -16.5960  -29.7310   23.6670 C   0  0  0  0  0  3  0  0  0  0  0  0
  -16.7820  -28.4930   23.0250 C   0  0  0  0  0  3  0  0  0  0  0  0
  -25.8050  -32.5000   23.8940 C   0  0  0  0  0  3  0  0  0  0  0  0
  -26.2740  -31.7590   25.2060 C   0  0  1  0  0  0  0  0  0  0  0  0
  -25.1330  -31.5020   26.2180 C   0  0  0  0  0  1  0  0  0  0  0  0
  -26.9160  -30.3940   24.8650 C   0  0  0  0  0  1  0  0  0  0  0  0
  -27.3660  -32.5940   25.9180 C   0  0  0  0  0  1  0  0  0  0  0  0
  -25.4580  -33.8980   24.1890 N   0  0  0  0  0  0  0  0  0  0  0  0
  -25.7690  -34.9420   23.4080 C   0  0  0  0  0  0  0  0  0  0  0  0
  -26.4460  -34.8300   22.3830 O   0  0  0  0  0  0  0  0  0  0  0  0
  -24.8590  -34.0550   24.9860 H   0  0  0  0  0  0  0  0  0  0  0  0
  -23.9960  -36.6810   23.0060 C   0  0  0  0  0  1  0  0  0  0  0  0
  -25.2450  -36.3280   23.8310 C   0  0  0  0  0  3  0  0  0  0  0  0
  -27.3400  -37.3010   24.6610 C   0  0  0  0  0  1  0  0  0  0  0  0
  -26.2500  -37.4040   23.6960 N   0  0  0  0  0  0  0  0  0  0  0  0
  -25.8180  -38.3180   23.8030 H   0  0  0  0  0  0  0  0  0  0  0  0
  1  4  1  0
  1  2  2  0
  2 47  1  0
  2  6  1  0
  3 15  1  0
  3  6  1  0
  4  3  2  0
  5  1  1  0
  7 16  1  0
  8 13  1  0
  9 10  1  0
  9  8  1  0
 11 10  1  0
 11 22  1  0
 11 12  1  0
 13  7  1  0
 13 12  1  0
 14  7  2  0
 15 17  2  0
 16 15  1  0
 16 18  1  0
 19 20  2  0
 20 39  1  0
 21 20  1  0
 21 24  1  0
 22 23  1  0
 22 19  1  0
 23 21  2  0
 24 25  1  0
 25 26  2  0
 27 30  1  0
 27 26  1  0
 28 27  2  0
 29 28  1  0
 29 24  2  0
 30 31  1  0
 31 36  2  0
 31 32  1  0
 32 33  2  0
 33 34  1  0
 34 38  1  0
 35 34  2  0
 36 35  1  0
 37 36  1  0
 39 40  1  0
 40 43  1  0
 40 42  1  0
 41 39  2  0
 44 45  1  0
 44 19  1  0
 46 44  1  0
 47 49  1  0
 48 47  1  0
 49 51  1  0
 51 50  1  0
 52 51  1  0
 53 64  2  0
 54 52  1  0
 54 59  1  0
 55 63  1  0
 55 65  1  0
 56 62  1  0
 56 58  1  0
 57 63  1  0
 58 59  2  0
 58 57  1  0
 60 54  2  0
 61 60  1  0
 61 56  2  0
 62 55  1  0
 63 53  1  0
 65 67  2  0
 66 65  1  0
 68 66  1  0
 69 78  2  0
 69 74  1  0
 70 66  1  0
 70 74  1  0
 71 70  1  0
 72 73  1  0
 72 71  1  0
 73 69  1  0
 74 75  2  0
 75 76  1  0
 77 76  2  0
 78 77  1  0
 79 53  1  0
 79 84  1  0
 79 80  1  0
 80 83  1  1
 80 81  1  0
 82 80  1  0
 84 87  1  0
 85 89  1  0
 85 84  1  0
 86 85  2  0
 89 88  1  0
 91 92  1  0
 91 89  1  0
 91 90  1  0
M  ISO  4   7 100  16 100  51 101  52 101
M  END
>  <TORSDO>  (60) 
F 19

>  <SCORE>  (60) 
-13.769

>  <name>  (60) 
59

>  <ligand_id>  (60) 
59

>  <original_smiles>  (60) 
[H]c1c([H])c([H])c2c(c1[H])C([H])([H])C([H])([H])C([H])([H])C2([H])N([H])C(=O)C1([H])N(C(=O)C([H])(N([H])C(=O)C([H])(N([H])C([H])([H])[H])C([H])([H])[H])C(C([H])([H])[H])(C([H])([H])[H])C([H])([H])[H])C([H])([H])c2c([H])c(OC([H])(C([H])([H])[H])C([H])([H])N([H])c3sc(C(=O)N([H])C(=O)N4C([H])([H])C([H])([H])C([H])([H])C([H])(n5nc(-c6c([H])c([H])c(Oc7c([H])c([H])c(F)c([H])c7F)c([H])c6[H])c(C(=O)N([H])[H])c5N([H])[H])C4([H])[H])nc3F)c([H])c([H])c2C1([H])[H]

>  <smiles>  (60) 
[H]c1c([H])c([H])c2c(c1[H])C([H])([H])C([H])([H])C([H])([H])C2([H])N([H])C(=O)C1([H])N(C(=O)C([H])(N([H])C(=O)C([H])(N([H])C([H])([H])[H])C([H])([H])[H])C(C([H])([H])[H])(C([H])([H])[H])C([H])([H])[H])C([H])([H])c2c([H])c(OC([H])(C([H])([H])[H])C([H])([H])N([H])c3sc(C(=O)N([H])C(=O)N4C([H])([H])C([H])([H])C([H])([H])C([H])(n5nc(-c6c([H])c([H])c(Oc7c([H])c([H])c(F)c([H])c7F)c([H])c6[H])c(C(=O)N([H])[H])c5N([H])[H])C4([H])[H])nc3F)c([H])c([H])c2C1([H])[H]

$$$$
60:0:0
     RDKit          3D

 95104  0  0  1  0  0  0  0  0999 V2000
  -29.1380  -23.8720   19.8430 C   0  0  0  0  0  0  0  0  0  0  0  0
  -30.1340  -24.2250   20.9330 C   0  0  0  0  0  2  0  0  0  0  0  0
  -29.2110  -22.2910   19.4300 C   0  0  0  0  0  2  0  0  0  0  0  0
  -29.6500  -23.7930   22.3270 C   0  0  0  0  0  2  0  0  0  0  0  0
  -29.7760  -22.2840   22.6030 C   0  0  0  0  0  2  0  0  0  0  0  0
  -28.8420  -21.3890   21.7730 C   0  0  0  0  0  2  0  0  0  0  0  0
  -28.3620  -24.7880   19.2770 N   0  0  0  0  0  0  0  0  0  0  0  0
  -29.3430  -21.1250   20.4220 N   0  0  0  0  0  0  0  0  0  0  0  0
  -31.3200  -19.6640   19.9280 C   0  0  0  0  0  3  0  0  0  0  0  0
  -29.3920  -18.4130   20.2980 C   0  0  0  0  0  0  0  0  0  0  0  0
  -29.9830  -19.7930   20.1970 C   0  0  0  0  0  0  0  0  0  0  0  0
  -30.2910  -17.3040   20.1840 C   0  0  0  0  0  0  0  0  0  0  0  0
  -31.8790  -17.9960   19.8920 S   0  0  0  0  0  0  0  0  0  0  0  0
  -30.7850  -14.7950   19.6990 C   0  0  0  0  0  0  0  0  0  0  0  0
  -30.3750  -12.6600   18.4460 C   0  0  0  0  0  2  0  0  0  0  0  0
  -29.3020  -12.9200   17.3650 C   0  0  0  0  0  2  0  0  0  0  0  0
  -27.8860  -12.7430   17.9480 C   0  0  0  0  0  2  0  0  0  0  0  0
  -27.7060  -13.4740   19.3040 C   0  0  0  0  0  3  0  0  0  0  0  0
  -28.8820  -13.1990   20.2650 C   0  0  0  0  0  2  0  0  0  0  0  0
  -30.1160  -13.5940   19.5700 N   0  0  0  0  0  0  0  0  0  0  0  0
  -31.9250  -14.8950   19.2310 O   0  0  0  0  0  0  0  0  0  0  0  0
  -30.0810  -15.8930   20.2070 N   0  0  0  0  0  0  0  0  0  0  0  0
  -29.2010  -15.6040   20.6040 H   0  0  0  0  0  0  0  0  0  0  0  0
  -25.4150  -14.0540   20.2980 C   0  0  0  0  0  0  0  0  0  0  0  0
  -24.3850  -13.2750   20.7490 C   0  0  0  0  0  0  0  0  0  0  0  0
  -24.8250  -11.9210   20.6130 C   0  0  0  0  0  0  0  0  0  0  0  0
  -26.4160  -13.1760   19.9180 N   0  0  0  0  0  0  0  0  0  0  0  0
  -26.0760  -11.8860   20.1710 N   0  0  0  0  0  0  0  0  0  0  0  0
  -24.1050  -10.6590   20.8250 C   0  0  0  0  0  0  0  0  0  0  0  0
  -24.5210   -9.7270   21.8010 C   0  0  0  0  0  3  0  0  0  0  0  0
  -23.8010   -8.5290   21.9990 C   0  0  0  0  0  3  0  0  0  0  0  0
  -22.6510   -8.2540   21.2200 C   0  0  0  0  0  0  0  0  0  0  0  0
  -22.2550   -9.1740   20.2330 C   0  0  0  0  0  3  0  0  0  0  0  0
  -22.9750  -10.3640   20.0340 C   0  0  0  0  0  3  0  0  0  0  0  0
  -21.9040   -7.1050   21.3250 O   0  0  0  0  0  0  0  0  0  0  0  0
  -21.7110   -6.4810   22.5300 C   0  0  0  0  0  0  0  0  0  0  0  0
  -21.1490   -7.1550   23.6370 C   0  0  0  0  0  3  0  0  0  0  0  0
  -20.9030   -6.4570   24.8360 C   0  0  0  0  0  3  0  0  0  0  0  0
  -21.2090   -5.0850   24.9280 C   0  0  0  0  0  0  0  0  0  0  0  0
  -21.7630   -4.4110   23.8260 C   0  0  0  0  0  3  0  0  0  0  0  0
  -22.0100   -5.1070   22.6300 C   0  0  0  0  0  0  0  0  0  0  0  0
  -22.5250   -4.4480   21.5640 F   0  0  0  0  0  0  0  0  0  0  0  0
  -20.9650   -4.4120   26.0770 F   0  0  0  0  0  0  0  0  0  0  0  0
  -23.0280  -13.7520   21.1790 C   0  0  0  0  0  0  0  0  0  0  0  0
  -22.4140  -13.0670   22.1370 N   0  0  0  0  0  0  0  0  0  0  0  0
  -22.5250  -14.7670   20.6980 O   0  0  0  0  0  0  0  0  0  0  0  0
  -22.8380  -12.2460   22.5450 H   0  0  0  0  0  0  0  0  0  0  0  0
  -21.5100  -13.3680   22.4700 H   0  0  0  0  0  0  0  0  0  0  0  0
  -25.5770  -15.4280   20.1520 N   0  0  0  0  0  0  0  0  0  0  0  0
  -24.8060  -16.0660   20.3210 H   0  0  0  0  0  0  0  0  0  0  0  0
  -26.3200  -15.8490   19.6110 H   0  0  0  0  0  0  0  0  0  0  0  0
  -27.9440  -18.1990   20.4270 C   0  0  0  0  0  0  0  0  0  0  0  0
  -27.4950  -16.9310   21.1460 C   0  0  0  0  0  1  0  0  0  0  0  0
  -27.0710  -18.9770   20.0320 O   0  0  0  0  0  0  0  0  0  0  0  0
  -28.5390  -26.2490   19.5760 O   0  0  0  0  0  0  0  0  0  0  0  0
  -24.5050  -31.3910   22.8090 C   0  0  0  0  0  0  0  0  0  0  0  0
  -27.3720  -27.0660   19.5580 C   0  0  0  0  0  0  0  0  0  0  0  0
  -23.3730  -29.9540   21.1530 C   0  0  0  0  0  3  0  0  0  0  0  0
  -24.9000  -28.5560   19.6410 C   0  0  0  0  0  0  0  0  0  0  0  0
  -25.8830  -30.4480   20.9310 C   0  0  0  0  0  2  0  0  0  0  0  0
  -26.0480  -29.0920   20.2380 C   0  0  0  0  0  0  0  0  0  0  0  0
  -27.2800  -28.3580   20.1900 C   0  0  0  0  0  3  0  0  0  0  0  0
  -26.1940  -26.6090   18.9240 C   0  0  0  0  0  3  0  0  0  0  0  0
  -24.9810  -27.3230   18.9730 C   0  0  0  0  0  3  0  0  0  0  0  0
  -23.6060  -29.3400   19.7470 C   0  0  0  0  0  2  0  0  0  0  0  0
  -24.6060  -30.6180   21.6870 N   0  0  0  0  0  0  0  0  0  0  0  0
  -23.4170  -31.5720   23.3740 O   0  0  0  0  0  0  0  0  0  0  0  0
  -22.8070  -28.8650   22.0960 C   0  0  0  0  0  0  0  0  0  0  0  0
  -21.4940  -28.5960   21.9960 N   0  0  0  0  0  0  0  0  0  0  0  0
  -23.5490  -28.2680   22.8800 O   0  0  0  0  0  0  0  0  0  0  0  0
  -20.9490  -29.1340   21.3360 H   0  0  0  0  0  0  0  0  0  0  0  0
  -18.2210  -27.1570   22.5610 C   0  0  0  0  0  0  0  0  0  0  0  0
  -20.7660  -27.5770   22.7550 C   0  0  0  0  0  3  0  0  0  0  0  0
  -20.9420  -26.1780   22.1210 C   0  0  0  0  0  2  0  0  0  0  0  0
  -19.8280  -25.8210   21.1320 C   0  0  0  0  0  2  0  0  0  0  0  0
  -18.4630  -25.8480   21.8260 C   0  0  0  0  0  2  0  0  0  0  0  0
  -19.3030  -27.9740   22.9830 C   0  0  0  0  0  0  0  0  0  0  0  0
  -19.0220  -29.1970   23.6330 C   0  0  0  0  0  3  0  0  0  0  0  0
  -17.6950  -29.6000   23.8670 C   0  0  0  0  0  3  0  0  0  0  0  0
  -16.6280  -28.7790   23.4600 C   0  0  0  0  0  3  0  0  0  0  0  0
  -16.8930  -27.5590   22.8110 C   0  0  0  0  0  3  0  0  0  0  0  0
  -25.7510  -32.1030   23.4210 C   0  0  0  0  0  3  0  0  0  0  0  0
  -25.3230  -33.4350   23.8740 N   0  0  0  0  0  0  0  0  0  0  0  0
  -25.5170  -34.5720   23.1920 C   0  0  0  0  0  0  0  0  0  0  0  0
  -26.1420  -34.6140   22.1300 O   0  0  0  0  0  0  0  0  0  0  0  0
  -24.7530  -33.4690   24.7070 H   0  0  0  0  0  0  0  0  0  0  0  0
  -23.6040  -36.2010   23.0730 C   0  0  0  0  0  1  0  0  0  0  0  0
  -24.9250  -35.8660   23.7830 C   0  0  0  0  0  3  0  0  0  0  0  0
  -27.0010  -36.9110   24.5760 C   0  0  0  0  0  1  0  0  0  0  0  0
  -25.8390  -37.0250   23.6980 N   0  0  0  0  0  0  0  0  0  0  0  0
  -25.3510  -37.8860   23.9310 H   0  0  0  0  0  0  0  0  0  0  0  0
  -26.4010  -31.2970   24.6130 C   0  0  1  0  0  0  0  0  0  0  0  0
  -25.3890  -30.8730   25.7020 C   0  0  0  0  0  1  0  0  0  0  0  0
  -27.0980  -30.0180   24.0940 C   0  0  0  0  0  1  0  0  0  0  0  0
  -27.4980  -32.1530   25.2870 C   0  0  0  0  0  1  0  0  0  0  0  0
  1  2  1  0
  2  4  1  0
  3  1  1  0
  3  8  1  0
  4  5  1  0
  6  5  1  0
  7 55  1  0
  7  1  2  0
  8  6  1  0
  9 11  2  0
 10 52  1  0
 11 10  1  0
 11  8  1  0
 12 22  1  0
 12 10  2  0
 13  9  1  0
 13 12  1  0
 14 22  1  0
 15 20  1  0
 16 17  1  0
 16 15  1  0
 18 17  1  0
 18 27  1  0
 18 19  1  0
 20 14  1  0
 20 19  1  0
 21 14  2  0
 22 23  1  0
 24 25  2  0
 25 44  1  0
 26 25  1  0
 26 29  1  0
 27 28  1  0
 27 24  1  0
 28 26  2  0
 29 30  1  0
 30 31  2  0
 32 35  1  0
 32 31  1  0
 33 32  2  0
 34 33  1  0
 34 29  2  0
 35 36  1  0
 36 41  2  0
 36 37  1  0
 37 38  2  0
 38 39  1  0
 39 43  1  0
 40 39  2  0
 41 40  1  0
 42 41  1  0
 44 45  1  0
 45 48  1  0
 45 47  1  0
 46 44  2  0
 49 24  1  0
 49 50  1  0
 51 49  1  0
 52 53  1  0
 54 52  2  0
 56 67  2  0
 57 55  1  0
 57 62  1  0
 58 66  1  0
 58 68  1  0
 59 65  1  0
 59 61  1  0
 60 66  1  0
 61 60  1  0
 62 61  2  0
 63 64  1  0
 63 57  2  0
 64 59  2  0
 65 58  1  0
 66 56  1  0
 68 70  2  0
 69 68  1  0
 71 69  1  0
 72 81  2  0
 72 77  1  0
 73 69  1  0
 73 77  1  0
 74 73  1  0
 75 76  1  0
 75 74  1  0
 76 72  1  0
 77 78  2  0
 78 79  1  0
 80 79  2  0
 81 80  1  0
 82 56  1  0
 82 83  1  0
 82 92  1  0
 83 86  1  0
 84 88  1  0
 84 83  1  0
 85 84  2  0
 88 87  1  0
 90 88  1  0
 90 91  1  0
 90 89  1  0
 92 95  1  1
 92 93  1  0
 94 92  1  0
M  ISO  4   7 101  14 100  22 100  55 101
M  END
>  <TORSDO>  (61) 
F 18

>  <SCORE>  (61) 
-11.272

>  <name>  (61) 
60

>  <ligand_id>  (61) 
60

>  <original_smiles>  (61) 
[H]c1sc(N([H])C(=O)N2C([H])([H])C([H])([H])C([H])([H])C([H])(n3nc(-c4c([H])c([H])c(Oc5c([H])c([H])c(F)c([H])c5F)c([H])c4[H])c(C(=O)N([H])[H])c3N([H])[H])C2([H])[H])c(C(=O)C([H])([H])[H])c1N1C([H])([H])C(=NOc2c([H])c([H])c3c(c2[H])C([H])([H])N(C(=O)C([H])(N([H])C(=O)C([H])(N([H])C([H])([H])[H])C([H])([H])[H])C(C([H])([H])[H])(C([H])([H])[H])C([H])([H])[H])C([H])(C(=O)N([H])C2([H])c4c([H])c([H])c([H])c([H])c4C([H])([H])C([H])([H])C2([H])[H])C3([H])[H])C([H])([H])C([H])([H])C([H])([H])C1([H])[H]

>  <smiles>  (61) 
[H]c1sc(N([H])C(=O)N2C([H])([H])C([H])([H])C([H])([H])C([H])(n3nc(-c4c([H])c([H])c(Oc5c([H])c([H])c(F)c([H])c5F)c([H])c4[H])c(C(=O)N([H])[H])c3N([H])[H])C2([H])[H])c(C(=O)C([H])([H])[H])c1N1C([H])([H])C(=NOc2c([H])c([H])c3c(c2[H])C([H])([H])N(C(=O)C([H])(N([H])C(=O)C([H])(N([H])C([H])([H])[H])C([H])([H])[H])C(C([H])([H])[H])(C([H])([H])[H])C([H])([H])[H])C([H])(C(=O)N([H])C2([H])c4c([H])c([H])c([H])c([H])c4C([H])([H])C([H])([H])C2([H])[H])C3([H])[H])C([H])([H])C([H])([H])C([H])([H])C1([H])[H]

$$$$
61:0:0
     RDKit          3D

 93102  0  0  1  0  0  0  0  0999 V2000
  -29.4010  -18.3610   20.5190 C   0  0  0  0  0  3  0  0  0  0  0  0
  -30.1730  -19.6120   20.5030 C   0  0  0  0  0  0  0  0  0  0  0  0
  -30.1770  -17.1890   20.6090 C   0  0  0  0  0  0  0  0  0  0  0  0
  -27.9850  -22.9480   20.2060 C   0  0  0  0  0  2  0  0  0  0  0  0
  -30.3360  -23.5180   20.0500 C   0  0  0  0  0  2  0  0  0  0  0  0
  -28.3290  -21.3970   20.0770 C   0  0  0  0  0  2  0  0  0  0  0  0
  -30.7100  -22.0020   19.8960 C   0  0  0  0  0  2  0  0  0  0  0  0
  -28.9630  -23.8890   19.4350 C   0  0  1  0  0  0  0  0  0  0  0  0
  -31.4710  -19.4100   20.6050 N   0  0  0  0  0  0  0  0  0  0  0  0
  -29.7240  -21.0080   20.3930 N   0  0  0  0  0  0  0  0  0  0  0  0
  -31.8200  -17.7660   20.7070 S   0  0  0  0  0  0  0  0  0  0  0  0
  -30.5940  -14.7070   20.4080 C   0  0  0  0  0  0  0  0  0  0  0  0
  -30.3460  -12.4720   19.3430 C   0  0  0  0  0  2  0  0  0  0  0  0
  -29.4050  -12.6020   18.1270 C   0  0  0  0  0  2  0  0  0  0  0  0
  -27.9350  -12.4410   18.5610 C   0  0  0  0  0  2  0  0  0  0  0  0
  -27.5780  -13.3000   19.8040 C   0  0  0  0  0  3  0  0  0  0  0  0
  -28.6420  -13.1640   20.9170 C   0  0  0  0  0  2  0  0  0  0  0  0
  -29.9430  -13.5010   20.3250 N   0  0  0  0  0  0  0  0  0  0  0  0
  -31.7780  -14.7870   20.0690 O   0  0  0  0  0  0  0  0  0  0  0  0
  -29.8290  -15.8330   20.6440 N   0  0  0  0  0  0  0  0  0  0  0  0
  -28.8550  -15.6370   20.8120 H   0  0  0  0  0  0  0  0  0  0  0  0
  -25.1890  -13.8910   20.5350 C   0  0  0  0  0  0  0  0  0  0  0  0
  -24.1240  -13.1140   20.9030 C   0  0  0  0  0  0  0  0  0  0  0  0
  -24.5880  -11.7630   20.8620 C   0  0  0  0  0  0  0  0  0  0  0  0
  -26.2340  -13.0120   20.2930 N   0  0  0  0  0  0  0  0  0  0  0  0
  -25.8780  -11.7280   20.5530 N   0  0  0  0  0  0  0  0  0  0  0  0
  -23.8610  -10.5000   21.0450 C   0  0  0  0  0  0  0  0  0  0  0  0
  -24.2850   -9.5310   21.9820 C   0  0  0  0  0  3  0  0  0  0  0  0
  -23.5590   -8.3330   22.1530 C   0  0  0  0  0  3  0  0  0  0  0  0
  -22.3930   -8.0950   21.3870 C   0  0  0  0  0  0  0  0  0  0  0  0
  -21.9890   -9.0510   20.4390 C   0  0  0  0  0  3  0  0  0  0  0  0
  -22.7160  -10.2400   20.2650 C   0  0  0  0  0  3  0  0  0  0  0  0
  -21.6380   -6.9490   21.4660 O   0  0  0  0  0  0  0  0  0  0  0  0
  -21.5640   -6.2160   22.6230 C   0  0  0  0  0  0  0  0  0  0  0  0
  -21.0820   -6.7720   23.8280 C   0  0  0  0  0  3  0  0  0  0  0  0
  -20.9570   -5.9630   24.9750 C   0  0  0  0  0  3  0  0  0  0  0  0
  -21.3060   -4.6000   24.9180 C   0  0  0  0  0  0  0  0  0  0  0  0
  -21.7810   -4.0440   23.7190 C   0  0  0  0  0  3  0  0  0  0  0  0
  -21.9070   -4.8490   22.5730 C   0  0  0  0  0  0  0  0  0  0  0  0
  -22.3470   -4.3040   21.4130 F   0  0  0  0  0  0  0  0  0  0  0  0
  -21.1780   -3.8200   26.0180 F   0  0  0  0  0  0  0  0  0  0  0  0
  -22.7270  -13.5880   21.1760 C   0  0  0  0  0  0  0  0  0  0  0  0
  -21.9960  -12.8810   22.0290 N   0  0  0  0  0  0  0  0  0  0  0  0
  -22.2930  -14.6220   20.6690 O   0  0  0  0  0  0  0  0  0  0  0  0
  -22.3620  -12.0460   22.4610 H   0  0  0  0  0  0  0  0  0  0  0  0
  -21.0570  -13.1790   22.2560 H   0  0  0  0  0  0  0  0  0  0  0  0
  -25.3510  -15.2620   20.3630 N   0  0  0  0  0  0  0  0  0  0  0  0
  -24.5710  -15.9050   20.4600 H   0  0  0  0  0  0  0  0  0  0  0  0
  -26.1810  -15.7030   19.9910 H   0  0  0  0  0  0  0  0  0  0  0  0
  -29.7340  -23.8560   17.0810 C   0  0  0  0  0  1  0  0  0  0  0  0
  -28.8790  -23.3440   18.1060 O   0  0  0  0  0  0  0  0  0  0  0  0
  -28.6390  -25.4740   19.2510 C   0  0  0  0  0  2  0  0  0  0  0  0
  -28.3720  -26.5070   20.2710 O   0  0  0  0  0  0  0  0  0  0  0  0
  -24.5910  -31.9140   23.2090 C   0  0  0  0  0  0  0  0  0  0  0  0
  -27.2430  -27.3440   20.1850 C   0  0  0  0  0  0  0  0  0  0  0  0
  -23.4010  -30.5000   21.5720 C   0  0  0  0  0  3  0  0  0  0  0  0
  -24.8640  -28.9460   20.1630 C   0  0  0  0  0  0  0  0  0  0  0  0
  -25.9400  -30.8250   21.3990 C   0  0  0  0  0  2  0  0  0  0  0  0
  -26.0280  -29.4420   20.7620 C   0  0  0  0  0  0  0  0  0  0  0  0
  -27.2150  -28.6500   20.7700 C   0  0  0  0  0  3  0  0  0  0  0  0
  -26.0430  -26.8910   19.5890 C   0  0  0  0  0  3  0  0  0  0  0  0
  -24.8740  -27.6740   19.5710 C   0  0  0  0  0  3  0  0  0  0  0  0
  -23.6240  -29.8150   20.1970 C   0  0  0  0  0  2  0  0  0  0  0  0
  -24.6620  -31.0990   22.1170 N   0  0  0  0  0  0  0  0  0  0  0  0
  -23.5040  -32.1910   23.7360 O   0  0  0  0  0  0  0  0  0  0  0  0
  -22.7360  -29.4890   22.5360 C   0  0  0  0  0  0  0  0  0  0  0  0
  -21.4110  -29.3120   22.4090 N   0  0  0  0  0  0  0  0  0  0  0  0
  -23.4130  -28.8650   23.3580 O   0  0  0  0  0  0  0  0  0  0  0  0
  -20.9230  -29.8680   21.7200 H   0  0  0  0  0  0  0  0  0  0  0  0
  -18.0260  -28.1540   22.9410 C   0  0  0  0  0  0  0  0  0  0  0  0
  -20.5900  -28.3800   23.1840 C   0  0  0  0  0  3  0  0  0  0  0  0
  -20.6670  -26.9510   22.5990 C   0  0  0  0  0  2  0  0  0  0  0  0
  -19.5500  -26.6480   21.5950 C   0  0  0  0  0  2  0  0  0  0  0  0
  -18.1780  -26.8070   22.2550 C   0  0  0  0  0  2  0  0  0  0  0  0
  -19.1580  -28.8990   23.3630 C   0  0  0  0  0  0  0  0  0  0  0  0
  -18.9610  -30.1610   23.9650 C   0  0  0  0  0  3  0  0  0  0  0  0
  -17.6650  -30.6770   24.1480 C   0  0  0  0  0  3  0  0  0  0  0  0
  -16.5470  -29.9290   23.7420 C   0  0  0  0  0  3  0  0  0  0  0  0
  -16.7270  -28.6680   23.1440 C   0  0  0  0  0  3  0  0  0  0  0  0
  -25.8690  -32.5560   23.8330 C   0  0  0  0  0  3  0  0  0  0  0  0
  -25.5520  -33.9540   24.1560 N   0  0  0  0  0  0  0  0  0  0  0  0
  -25.8890  -35.0060   23.3980 C   0  0  0  0  0  0  0  0  0  0  0  0
  -26.5690  -34.9020   22.3740 O   0  0  0  0  0  0  0  0  0  0  0  0
  -24.9500  -34.1090   24.9500 H   0  0  0  0  0  0  0  0  0  0  0  0
  -24.1730  -36.8040   23.0070 C   0  0  0  0  0  1  0  0  0  0  0  0
  -25.3940  -36.3950   23.8470 C   0  0  0  0  0  3  0  0  0  0  0  0
  -27.5060  -37.2780   24.7350 C   0  0  0  0  0  1  0  0  0  0  0  0
  -26.4310  -37.4470   23.7610 N   0  0  0  0  0  0  0  0  0  0  0  0
  -26.0220  -38.3670   23.8960 H   0  0  0  0  0  0  0  0  0  0  0  0
  -26.3830  -31.7930   25.1170 C   0  0  1  0  0  0  0  0  0  0  0  0
  -25.2850  -31.5510   26.1790 C   0  0  0  0  0  1  0  0  0  0  0  0
  -26.9780  -30.4180   24.7340 C   0  0  0  0  0  1  0  0  0  0  0  0
  -27.5230  -32.5980   25.7830 C   0  0  0  0  0  1  0  0  0  0  0  0
  1  3  2  0
  2  1  1  0
  2  9  2  0
  3 20  1  0
  3 11  1  0
  6  4  1  0
  6 10  1  0
  7  5  1  0
  7 10  1  0
  8 52  1  6
  8  5  1  0
  8  4  1  0
  9 11  1  0
 10  2  1  0
 12 20  1  0
 13 18  1  0
 14 15  1  0
 14 13  1  0
 16 15  1  0
 16 25  1  0
 16 17  1  0
 18 12  1  0
 18 17  1  0
 19 12  2  0
 20 21  1  0
 22 23  2  0
 23 42  1  0
 24 23  1  0
 24 27  1  0
 25 22  1  0
 25 26  1  0
 26 24  2  0
 27 28  1  0
 28 29  2  0
 30 33  1  0
 30 29  1  0
 31 30  2  0
 32 31  1  0
 32 27  2  0
 33 34  1  0
 34 35  1  0
 35 36  2  0
 37 36  1  0
 37 41  1  0
 38 37  2  0
 39 34  2  0
 39 38  1  0
 40 39  1  0
 42 43  1  0
 43 46  1  0
 43 45  1  0
 44 42  2  0
 47 48  1  0
 47 22  1  0
 49 47  1  0
 50 51  1  0
 51  8  1  0
 52 53  1  0
 54 65  2  0
 55 53  1  0
 55 60  1  0
 56 64  1  0
 56 66  1  0
 57 63  1  0
 57 59  1  0
 58 64  1  0
 59 60  2  0
 59 58  1  0
 61 55  2  0
 62 61  1  0
 62 57  2  0
 63 56  1  0
 64 54  1  0
 66 68  2  0
 67 66  1  0
 69 67  1  0
 70 79  2  0
 70 75  1  0
 71 67  1  0
 71 75  1  0
 72 71  1  0
 73 74  1  0
 73 72  1  0
 74 70  1  0
 75 76  2  0
 76 77  1  0
 78 77  2  0
 79 78  1  0
 80 54  1  0
 80 81  1  0
 80 90  1  0
 81 84  1  0
 82 86  1  0
 82 81  1  0
 83 82  2  0
 86 85  1  0
 88 86  1  0
 88 89  1  0
 88 87  1  0
 90 93  1  1
 90 91  1  0
 92 90  1  0
M  ISO  4  12 100  20 100  52 101  53 101
M  END
>  <TORSDO>  (62) 
F 18

>  <SCORE>  (62) 
-14.867

>  <name>  (62) 
61

>  <ligand_id>  (62) 
61

>  <original_smiles>  (62) 
[H]c1c(N2C([H])([H])C([H])([H])C(OC([H])([H])[H])(C([H])([H])Oc3c([H])c([H])c4c(c3[H])C([H])([H])N(C(=O)C([H])(N([H])C(=O)C([H])(N([H])C([H])([H])[H])C([H])([H])[H])C(C([H])([H])[H])(C([H])([H])[H])C([H])([H])[H])C([H])(C(=O)N([H])C3([H])c5c([H])c([H])c([H])c([H])c5C([H])([H])C([H])([H])C3([H])[H])C4([H])[H])C([H])([H])C2([H])[H])nsc1N([H])C(=O)N1C([H])([H])C([H])([H])C([H])([H])C([H])(n2nc(-c3c([H])c([H])c(Oc4c([H])c([H])c(F)c([H])c4F)c([H])c3[H])c(C(=O)N([H])[H])c2N([H])[H])C1([H])[H]

>  <smiles>  (62) 
[H]c1c(N2C([H])([H])C([H])([H])C(OC([H])([H])[H])(C([H])([H])Oc3c([H])c([H])c4c(c3[H])C([H])([H])N(C(=O)C([H])(N([H])C(=O)C([H])(N([H])C([H])([H])[H])C([H])([H])[H])C(C([H])([H])[H])(C([H])([H])[H])C([H])([H])[H])C([H])(C(=O)N([H])C3([H])c5c([H])c([H])c([H])c([H])c5C([H])([H])C([H])([H])C3([H])[H])C4([H])[H])C([H])([H])C2([H])[H])nsc1N([H])C(=O)N1C([H])([H])C([H])([H])C([H])([H])C([H])(n2nc(-c3c([H])c([H])c(Oc4c([H])c([H])c(F)c([H])c4F)c([H])c3[H])c(C(=O)N([H])[H])c2N([H])[H])C1([H])[H]

$$$$
62:0:0
     RDKit          3D

 90 99  0  0  1  0  0  0  0  0999 V2000
  -28.5900  -21.9240   19.9200 C   0  0  0  0  0  3  0  0  0  0  0  0
  -29.7230  -20.6850   21.6610 C   0  0  0  0  0  3  0  0  0  0  0  0
  -29.1990  -20.5700   20.4270 C   0  0  0  0  0  0  0  0  0  0  0  0
  -28.7070  -23.2350   20.4510 C   0  0  0  0  0  0  0  0  0  0  0  0
  -29.7340  -21.9890   22.4760 C   0  0  0  0  0  2  0  0  0  0  0  0
  -29.6010  -23.3300   21.6760 C   0  0  0  0  0  2  0  0  0  0  0  0
  -29.0000  -19.3800   18.3330 C   0  0  0  0  0  3  0  0  0  0  0  0
  -29.4160  -17.2900   18.5330 C   0  0  0  0  0  3  0  0  0  0  0  0
  -29.2800  -19.2080   19.6750 C   0  0  0  0  0  0  0  0  0  0  0  0
  -29.0850  -18.1910   17.6260 N   0  0  0  0  0  0  0  0  0  0  0  0
  -29.5740  -17.7130   19.7990 N   0  0  0  0  0  0  0  0  0  0  0  0
  -29.8800  -16.5520   20.8300 C   0  0  0  0  0  2  0  0  0  0  0  0
  -30.5880  -15.0790   20.4110 C   0  0  0  0  0  0  0  0  0  0  0  0
  -30.4940  -12.7140   19.4640 C   0  0  0  0  0  2  0  0  0  0  0  0
  -29.5910  -12.6710   18.2080 C   0  0  0  0  0  2  0  0  0  0  0  0
  -28.1210  -12.4470   18.6050 C   0  0  0  0  0  2  0  0  0  0  0  0
  -27.6840  -13.3620   19.7770 C   0  0  0  0  0  3  0  0  0  0  0  0
  -28.7150  -13.3850   20.9260 C   0  0  0  0  0  2  0  0  0  0  0  0
  -30.0010  -13.8080   20.3580 N   0  0  0  0  0  0  0  0  0  0  0  0
  -31.7710  -15.1190   20.0510 O   0  0  0  0  0  0  0  0  0  0  0  0
  -25.2830  -13.9130   20.4620 C   0  0  0  0  0  0  0  0  0  0  0  0
  -24.2230  -13.1280   20.8190 C   0  0  0  0  0  0  0  0  0  0  0  0
  -24.7070  -11.7840   20.8170 C   0  0  0  0  0  0  0  0  0  0  0  0
  -26.3430  -13.0480   20.2530 N   0  0  0  0  0  0  0  0  0  0  0  0
  -26.0040  -11.7620   20.5330 N   0  0  0  0  0  0  0  0  0  0  0  0
  -23.9930  -10.5150   21.0100 C   0  0  0  0  0  0  0  0  0  0  0  0
  -24.4210   -9.5610   21.9610 C   0  0  0  0  0  3  0  0  0  0  0  0
  -23.7040   -8.3590   22.1420 C   0  0  0  0  0  3  0  0  0  0  0  0
  -22.5460   -8.0990   21.3720 C   0  0  0  0  0  0  0  0  0  0  0  0
  -22.1370   -9.0400   20.4110 C   0  0  0  0  0  3  0  0  0  0  0  0
  -22.8540  -10.2350   20.2290 C   0  0  0  0  0  3  0  0  0  0  0  0
  -21.8030   -6.9460   21.4610 O   0  0  0  0  0  0  0  0  0  0  0  0
  -21.7460   -6.2140   22.6190 C   0  0  0  0  0  0  0  0  0  0  0  0
  -21.2980   -6.7750   23.8340 C   0  0  0  0  0  3  0  0  0  0  0  0
  -21.1880   -5.9680   24.9850 C   0  0  0  0  0  3  0  0  0  0  0  0
  -21.5170   -4.6020   24.9200 C   0  0  0  0  0  0  0  0  0  0  0  0
  -21.9570   -4.0380   23.7090 C   0  0  0  0  0  3  0  0  0  0  0  0
  -22.0680   -4.8430   22.5620 C   0  0  0  0  0  0  0  0  0  0  0  0
  -22.4720   -4.2900   21.3910 F   0  0  0  0  0  0  0  0  0  0  0  0
  -21.4050   -3.8240   26.0230 F   0  0  0  0  0  0  0  0  0  0  0  0
  -22.8140  -13.5890   21.0530 C   0  0  0  0  0  0  0  0  0  0  0  0
  -22.0760  -12.8960   21.9150 N   0  0  0  0  0  0  0  0  0  0  0  0
  -22.3730  -14.6000   20.5070 O   0  0  0  0  0  0  0  0  0  0  0  0
  -22.4470  -12.0820   22.3810 H   0  0  0  0  0  0  0  0  0  0  0  0
  -21.1290  -13.1870   22.1110 H   0  0  0  0  0  0  0  0  0  0  0  0
  -25.4330  -15.2850   20.2710 N   0  0  0  0  0  0  0  0  0  0  0  0
  -24.6590  -15.9320   20.3630 H   0  0  0  0  0  0  0  0  0  0  0  0
  -26.2860  -15.7320   19.9580 H   0  0  0  0  0  0  0  0  0  0  0  0
  -27.9150  -24.6280   19.9700 C   0  0  0  0  0  2  0  0  0  0  0  0
  -28.2230  -26.1390   20.2990 O   0  0  0  0  0  0  0  0  0  0  0  0
  -24.6400  -31.9210   23.2470 C   0  0  0  0  0  0  0  0  0  0  0  0
  -27.1960  -27.1680   20.2070 C   0  0  0  0  0  0  0  0  0  0  0  0
  -23.4340  -30.5290   21.6110 C   0  0  0  0  0  3  0  0  0  0  0  0
  -24.8780  -28.9520   20.1780 C   0  0  0  0  0  0  0  0  0  0  0  0
  -25.9920  -30.7770   21.4450 C   0  0  0  0  0  2  0  0  0  0  0  0
  -26.0610  -29.3820   20.7910 C   0  0  0  0  0  0  0  0  0  0  0  0
  -27.2180  -28.5050   20.7920 C   0  0  0  0  0  3  0  0  0  0  0  0
  -25.9890  -26.8620   19.5370 C   0  0  0  0  0  3  0  0  0  0  0  0
  -24.8580  -27.7070   19.5330 C   0  0  0  0  0  3  0  0  0  0  0  0
  -23.6520  -29.8530   20.2310 C   0  0  0  0  0  2  0  0  0  0  0  0
  -24.7090  -31.0980   22.1550 N   0  0  0  0  0  0  0  0  0  0  0  0
  -23.5550  -32.2070   23.7770 O   0  0  0  0  0  0  0  0  0  0  0  0
  -22.7530  -29.5230   22.5730 C   0  0  0  0  0  0  0  0  0  0  0  0
  -21.4250  -29.3540   22.4510 N   0  0  0  0  0  0  0  0  0  0  0  0
  -23.4250  -28.8980   23.3980 O   0  0  0  0  0  0  0  0  0  0  0  0
  -20.9380  -29.9120   21.7600 H   0  0  0  0  0  0  0  0  0  0  0  0
  -18.0450  -28.1480   22.9560 C   0  0  0  0  0  0  0  0  0  0  0  0
  -20.6030  -28.4190   23.2240 C   0  0  0  0  0  3  0  0  0  0  0  0
  -20.7090  -26.9840   22.6570 C   0  0  0  0  0  2  0  0  0  0  0  0
  -19.6090  -26.6540   21.6420 C   0  0  0  0  0  2  0  0  0  0  0  0
  -18.2260  -26.7980   22.2840 C   0  0  0  0  0  2  0  0  0  0  0  0
  -19.1610  -28.9170   23.3840 C   0  0  0  0  0  0  0  0  0  0  0  0
  -18.9360  -30.1790   23.9740 C   0  0  0  0  0  3  0  0  0  0  0  0
  -17.6290  -30.6740   24.1410 C   0  0  0  0  0  3  0  0  0  0  0  0
  -16.5290  -29.9040   23.7280 C   0  0  0  0  0  3  0  0  0  0  0  0
  -16.7370  -28.6430   23.1410 C   0  0  0  0  0  3  0  0  0  0  0  0
  -25.9180  -32.5570   23.8710 C   0  0  0  0  0  3  0  0  0  0  0  0
  -26.4310  -31.7870   25.1510 C   0  0  1  0  0  0  0  0  0  0  0  0
  -25.3350  -31.5560   26.2180 C   0  0  0  0  0  1  0  0  0  0  0  0
  -27.0110  -30.4060   24.7680 C   0  0  0  0  0  1  0  0  0  0  0  0
  -27.5840  -32.5790   25.8110 C   0  0  0  0  0  1  0  0  0  0  0  0
  -25.6070  -33.9560   24.2070 N   0  0  0  0  0  0  0  0  0  0  0  0
  -25.9410  -35.0160   23.4590 C   0  0  0  0  0  0  0  0  0  0  0  0
  -26.6080  -34.9170   22.4260 O   0  0  0  0  0  0  0  0  0  0  0  0
  -25.0130  -34.1060   25.0100 H   0  0  0  0  0  0  0  0  0  0  0  0
  -24.2200  -36.8220   23.1200 C   0  0  0  0  0  1  0  0  0  0  0  0
  -25.4590  -36.4040   23.9270 C   0  0  0  0  0  3  0  0  0  0  0  0
  -27.5970  -37.2750   24.7680 C   0  0  0  0  0  1  0  0  0  0  0  0
  -26.4960  -37.4530   23.8240 N   0  0  0  0  0  0  0  0  0  0  0  0
  -26.0940  -38.3740   23.9750 H   0  0  0  0  0  0  0  0  0  0  0  0
  1  3  1  0
  1  4  2  0
  2  5  1  0
  3  2  2  0
  4  6  1  0
  6  5  1  0
  7  9  2  0
  8 11  1  0
  9 11  1  0
  9  3  1  0
 10  7  1  0
 10  8  2  0
 11 12  1  0
 13 12  1  0
 14 19  1  0
 15 16  1  0
 15 14  1  0
 17 16  1  0
 17 24  1  0
 17 18  1  0
 19 13  1  0
 19 18  1  0
 20 13  2  0
 21 22  2  0
 22 41  1  0
 23 22  1  0
 23 26  1  0
 24 21  1  0
 24 25  1  0
 25 23  2  0
 26 27  1  0
 27 28  2  0
 29 32  1  0
 29 28  1  0
 30 29  2  0
 31 30  1  0
 31 26  2  0
 32 33  1  0
 33 34  1  0
 34 35  2  0
 36 35  1  0
 36 40  1  0
 37 36  2  0
 38 33  2  0
 38 37  1  0
 39 38  1  0
 41 42  1  0
 42 45  1  0
 42 44  1  0
 43 41  2  0
 46 47  1  0
 46 21  1  0
 48 46  1  0
 49 50  1  0
 49  4  1  0
 51 62  2  0
 52 50  1  0
 52 57  1  0
 53 61  1  0
 53 63  1  0
 54 60  1  0
 54 56  1  0
 55 61  1  0
 56 57  2  0
 56 55  1  0
 58 52  2  0
 59 58  1  0
 59 54  2  0
 60 53  1  0
 61 51  1  0
 63 65  2  0
 64 63  1  0
 66 64  1  0
 67 76  2  0
 67 72  1  0
 68 64  1  0
 68 72  1  0
 69 68  1  0
 70 71  1  0
 70 69  1  0
 71 67  1  0
 72 73  2  0
 73 74  1  0
 75 74  2  0
 76 75  1  0
 77 51  1  0
 77 82  1  0
 77 78  1  0
 78 81  1  1
 78 79  1  0
 80 78  1  0
 82 85  1  0
 83 87  1  0
 83 82  1  0
 84 83  2  0
 87 86  1  0
 89 87  1  0
 89 90  1  0
 89 88  1  0
M  ISO  4  12 100  13 100  49 101  50 101
M  END
>  <TORSDO>  (63) 
F 19

>  <SCORE>  (63) 
-14.226

>  <name>  (63) 
62

>  <ligand_id>  (63) 
62

>  <original_smiles>  (63) 
[H]C1=C(C([H])([H])Oc2c([H])c([H])c3c(c2[H])C([H])([H])N(C(=O)C([H])(N([H])C(=O)C([H])(N([H])C([H])([H])[H])C([H])([H])[H])C(C([H])([H])[H])(C([H])([H])[H])C([H])([H])[H])C([H])(C(=O)N([H])C2([H])c4c([H])c([H])c([H])c([H])c4C([H])([H])C([H])([H])C2([H])[H])C3([H])[H])C([H])([H])C([H])([H])C([H])=C1c1c([H])nc([H])n1C([H])([H])C(=O)N1C([H])([H])C([H])([H])C([H])([H])C([H])(n2nc(-c3c([H])c([H])c(Oc4c([H])c([H])c(F)c([H])c4F)c([H])c3[H])c(C(=O)N([H])[H])c2N([H])[H])C1([H])[H]

>  <smiles>  (63) 
[H]C1=C(C([H])([H])Oc2c([H])c([H])c3c(c2[H])C([H])([H])N(C(=O)C([H])(N([H])C(=O)C([H])(N([H])C([H])([H])[H])C([H])([H])[H])C(C([H])([H])[H])(C([H])([H])[H])C([H])([H])[H])C([H])(C(=O)N([H])C2([H])c4c([H])c([H])c([H])c([H])c4C([H])([H])C([H])([H])C2([H])[H])C3([H])[H])C([H])([H])C([H])([H])C([H])=C1c1c([H])nc([H])n1C([H])([H])C(=O)N1C([H])([H])C([H])([H])C([H])([H])C([H])(n2nc(-c3c([H])c([H])c(Oc4c([H])c([H])c(F)c([H])c4F)c([H])c3[H])c(C(=O)N([H])[H])c2N([H])[H])C1([H])[H]

$$$$
63:0:0
     RDKit          3D

 94102  0  0  1  0  0  0  0  0999 V2000
  -28.9180  -21.0190   20.5880 C   0  0  0  0  0  0  0  0  0  0  0  0
  -27.9180  -21.0460   21.3660 N   0  0  0  0  0  0  0  0  0  0  0  0
  -27.7230  -20.1300   21.7570 H   0  0  0  0  0  0  0  0  0  0  0  0
  -29.0740  -18.3070   20.6970 C   0  0  0  0  0  3  0  0  0  0  0  0
  -29.6060  -19.6240   20.3480 C   0  0  0  0  0  0  0  0  0  0  0  0
  -29.9950  -17.3110   20.3660 C   0  0  0  0  0  0  0  0  0  0  0  0
  -30.8330  -19.2870   19.8100 C   0  0  0  0  0  0  0  0  0  0  0  0
  -31.0900  -17.9230   19.8110 O   0  0  0  0  0  0  0  0  0  0  0  0
  -30.6280  -14.8280   20.2110 C   0  0  0  0  0  0  0  0  0  0  0  0
  -30.4150  -12.5610   19.1760 C   0  0  0  0  0  2  0  0  0  0  0  0
  -29.4410  -12.6550   17.9790 C   0  0  0  0  0  2  0  0  0  0  0  0
  -27.9810  -12.4850   18.4420 C   0  0  0  0  0  2  0  0  0  0  0  0
  -27.6440  -13.3530   19.6840 C   0  0  0  0  0  3  0  0  0  0  0  0
  -28.7320  -13.2270   20.7740 C   0  0  0  0  0  2  0  0  0  0  0  0
  -30.0160  -13.5930   20.1610 N   0  0  0  0  0  0  0  0  0  0  0  0
  -31.7970  -14.9490   19.8280 O   0  0  0  0  0  0  0  0  0  0  0  0
  -29.8340  -15.9220   20.5300 N   0  0  0  0  0  0  0  0  0  0  0  0
  -28.9270  -15.6460   20.8720 H   0  0  0  0  0  0  0  0  0  0  0  0
  -25.2780  -13.9460   20.4790 C   0  0  0  0  0  0  0  0  0  0  0  0
  -24.2190  -13.1740   20.8690 C   0  0  0  0  0  0  0  0  0  0  0  0
  -24.6760  -11.8210   20.8090 C   0  0  0  0  0  0  0  0  0  0  0  0
  -26.3120  -13.0660   20.2040 N   0  0  0  0  0  0  0  0  0  0  0  0
  -25.9570  -11.7820   20.4660 N   0  0  0  0  0  0  0  0  0  0  0  0
  -23.9500  -10.5580   21.0010 C   0  0  0  0  0  0  0  0  0  0  0  0
  -24.3750   -9.5950   21.9440 C   0  0  0  0  0  3  0  0  0  0  0  0
  -23.6460   -8.3990   22.1220 C   0  0  0  0  0  3  0  0  0  0  0  0
  -22.4800   -8.1560   21.3590 C   0  0  0  0  0  0  0  0  0  0  0  0
  -22.0750   -9.1070   20.4050 C   0  0  0  0  0  3  0  0  0  0  0  0
  -22.8040  -10.2950   20.2230 C   0  0  0  0  0  3  0  0  0  0  0  0
  -21.7240   -7.0130   21.4470 O   0  0  0  0  0  0  0  0  0  0  0  0
  -21.6360   -6.2980   22.6150 C   0  0  0  0  0  0  0  0  0  0  0  0
  -21.1260   -6.8670   23.8020 C   0  0  0  0  0  3  0  0  0  0  0  0
  -20.9880   -6.0770   24.9610 C   0  0  0  0  0  3  0  0  0  0  0  0
  -21.3490   -4.7160   24.9320 C   0  0  0  0  0  0  0  0  0  0  0  0
  -21.8520   -4.1450   23.7480 C   0  0  0  0  0  3  0  0  0  0  0  0
  -21.9920   -4.9340   22.5940 C   0  0  0  0  0  0  0  0  0  0  0  0
  -22.4570   -4.3730   21.4510 F   0  0  0  0  0  0  0  0  0  0  0  0
  -21.2090   -3.9540   26.0410 F   0  0  0  0  0  0  0  0  0  0  0  0
  -22.8310  -13.6520   21.1790 C   0  0  0  0  0  0  0  0  0  0  0  0
  -22.1160  -12.9420   22.0450 N   0  0  0  0  0  0  0  0  0  0  0  0
  -22.3870  -14.6910   20.6890 O   0  0  0  0  0  0  0  0  0  0  0  0
  -22.4850  -12.1010   22.4630 H   0  0  0  0  0  0  0  0  0  0  0  0
  -21.1850  -13.2450   22.2960 H   0  0  0  0  0  0  0  0  0  0  0  0
  -25.4410  -15.3180   20.3090 N   0  0  0  0  0  0  0  0  0  0  0  0
  -24.6710  -15.9660   20.4350 H   0  0  0  0  0  0  0  0  0  0  0  0
  -26.2580  -15.7510   19.8990 H   0  0  0  0  0  0  0  0  0  0  0  0
  -31.8020  -20.1380   19.2970 N   0  0  0  0  0  0  0  0  0  0  0  0
  -31.7260  -21.1460   19.2520 H   0  0  0  0  0  0  0  0  0  0  0  0
  -32.6730  -19.7960   18.9020 H   0  0  0  0  0  0  0  0  0  0  0  0
  -29.3050  -22.4010   19.8650 C   0  0  0  0  0  2  0  0  0  0  0  0
  -29.0140  -23.8390   20.5350 C   0  0  0  0  0  0  0  0  0  0  0  0
  -29.4460  -24.0770   21.6680 O   0  0  0  0  0  0  0  0  0  0  0  0
  -28.2310  -24.9970   19.7510 C   0  0  0  0  0  2  0  0  0  0  0  0
  -28.3650  -26.4330   20.2130 O   0  0  0  0  0  0  0  0  0  0  0  0
  -24.6180  -31.8980   23.2110 C   0  0  0  0  0  0  0  0  0  0  0  0
  -27.2650  -27.3260   20.1300 C   0  0  0  0  0  0  0  0  0  0  0  0
  -23.4350  -30.5080   21.5530 C   0  0  0  0  0  3  0  0  0  0  0  0
  -24.9030  -28.9750   20.1180 C   0  0  0  0  0  0  0  0  0  0  0  0
  -25.9800  -30.8200   21.4000 C   0  0  0  0  0  2  0  0  0  0  0  0
  -26.0690  -29.4450   20.7380 C   0  0  0  0  0  0  0  0  0  0  0  0
  -27.2480  -28.6290   20.7390 C   0  0  0  0  0  3  0  0  0  0  0  0
  -26.0800  -26.9410   19.4630 C   0  0  0  0  0  3  0  0  0  0  0  0
  -24.9150  -27.7310   19.4720 C   0  0  0  0  0  3  0  0  0  0  0  0
  -23.6640  -29.8480   20.1670 C   0  0  0  0  0  2  0  0  0  0  0  0
  -24.6970  -31.0940   22.1100 N   0  0  0  0  0  0  0  0  0  0  0  0
  -23.5280  -32.1710   23.7350 O   0  0  0  0  0  0  0  0  0  0  0  0
  -22.7670  -29.4820   22.4980 C   0  0  0  0  0  0  0  0  0  0  0  0
  -21.4390  -29.3080   22.3680 N   0  0  0  0  0  0  0  0  0  0  0  0
  -23.4410  -28.8440   23.3120 O   0  0  0  0  0  0  0  0  0  0  0  0
  -20.9530  -29.8750   21.6880 H   0  0  0  0  0  0  0  0  0  0  0  0
  -18.0530  -28.1350   22.8760 C   0  0  0  0  0  0  0  0  0  0  0  0
  -20.6160  -28.3620   23.1240 C   0  0  0  0  0  3  0  0  0  0  0  0
  -20.6960  -26.9430   22.5160 C   0  0  0  0  0  2  0  0  0  0  0  0
  -19.5810  -26.6540   21.5070 C   0  0  0  0  0  2  0  0  0  0  0  0
  -18.2080  -26.7990   22.1680 C   0  0  0  0  0  2  0  0  0  0  0  0
  -19.1850  -28.8760   23.3110 C   0  0  0  0  0  0  0  0  0  0  0  0
  -18.9830  -30.1280   23.9330 C   0  0  0  0  0  3  0  0  0  0  0  0
  -17.6840  -30.6360   24.1260 C   0  0  0  0  0  3  0  0  0  0  0  0
  -16.5680  -29.8900   23.7070 C   0  0  0  0  0  3  0  0  0  0  0  0
  -16.7540  -28.6420   23.0860 C   0  0  0  0  0  3  0  0  0  0  0  0
  -25.8910  -32.5330   23.8510 C   0  0  0  0  0  3  0  0  0  0  0  0
  -25.5700  -33.9260   24.1950 N   0  0  0  0  0  0  0  0  0  0  0  0
  -25.8950  -34.9890   23.4480 C   0  0  0  0  0  0  0  0  0  0  0  0
  -26.5660  -34.9010   22.4160 O   0  0  0  0  0  0  0  0  0  0  0  0
  -24.9730  -34.0700   24.9960 H   0  0  0  0  0  0  0  0  0  0  0  0
  -24.1630  -36.7810   23.1070 C   0  0  0  0  0  1  0  0  0  0  0  0
  -25.3990  -36.3700   23.9210 C   0  0  0  0  0  3  0  0  0  0  0  0
  -27.5210  -37.2560   24.7840 C   0  0  0  0  0  1  0  0  0  0  0  0
  -26.4290  -37.4270   23.8290 N   0  0  0  0  0  0  0  0  0  0  0  0
  -26.0180  -38.3450   23.9790 H   0  0  0  0  0  0  0  0  0  0  0  0
  -26.4010  -31.7530   25.1260 C   0  0  1  0  0  0  0  0  0  0  0  0
  -25.2990  -31.4970   26.1810 C   0  0  0  0  0  1  0  0  0  0  0  0
  -27.0000  -30.3830   24.7290 C   0  0  0  0  0  1  0  0  0  0  0  0
  -27.5400  -32.5500   25.8050 C   0  0  0  0  0  1  0  0  0  0  0  0
  1  2  2  0
  2  3  1  0
  5  1  1  0
  5  4  1  0
  6 17  1  0
  6  4  2  0
  7  8  1  0
  7  5  2  0
  8  6  1  0
  9 17  1  0
 10 15  1  0
 11 12  1  0
 11 10  1  0
 13 12  1  0
 13 22  1  0
 13 14  1  0
 15  9  1  0
 15 14  1  0
 16  9  2  0
 17 18  1  0
 19 20  2  0
 20 39  1  0
 21 20  1  0
 21 24  1  0
 22 23  1  0
 22 19  1  0
 23 21  2  0
 24 25  1  0
 25 26  2  0
 27 30  1  0
 27 26  1  0
 28 27  2  0
 29 28  1  0
 29 24  2  0
 30 31  1  0
 31 32  1  0
 32 33  2  0
 34 33  1  0
 34 38  1  0
 35 34  2  0
 36 31  2  0
 36 35  1  0
 37 36  1  0
 39 40  1  0
 40 43  1  0
 40 42  1  0
 41 39  2  0
 44 45  1  0
 44 19  1  0
 46 44  1  0
 47  7  1  0
 48 47  1  0
 49 47  1  0
 50 51  1  0
 50  1  1  0
 51 52  2  0
 53 54  1  0
 53 51  1  0
 55 66  2  0
 56 54  1  0
 56 61  1  0
 57 65  1  0
 57 67  1  0
 58 64  1  0
 58 60  1  0
 59 65  1  0
 60 61  2  0
 60 59  1  0
 62 63  1  0
 62 56  2  0
 63 58  2  0
 64 57  1  0
 65 55  1  0
 67 69  2  0
 68 67  1  0
 70 68  1  0
 71 80  2  0
 71 76  1  0
 72 68  1  0
 72 76  1  0
 73 72  1  0
 74 75  1  0
 74 73  1  0
 75 71  1  0
 76 77  2  0
 77 78  1  0
 79 78  2  0
 80 79  1  0
 81 55  1  0
 81 82  1  0
 81 91  1  0
 82 85  1  0
 83 87  1  0
 83 82  1  0
 84 83  2  0
 87 86  1  0
 89 87  1  0
 89 90  1  0
 89 88  1  0
 91 94  1  1
 91 92  1  0
 93 91  1  0
M  ISO  4   9 100  17 100  53 101  54 101
M  END
>  <TORSDO>  (64) 
F 21

>  <SCORE>  (64) 
-13.893

>  <name>  (64) 
63

>  <ligand_id>  (64) 
63

>  <original_smiles>  (64) 
[H]N=C(c1c(N([H])[H])oc(N([H])C(=O)N2C([H])([H])C([H])([H])C([H])([H])C([H])(n3nc(-c4c([H])c([H])c(Oc5c([H])c([H])c(F)c([H])c5F)c([H])c4[H])c(C(=O)N([H])[H])c3N([H])[H])C2([H])[H])c1[H])C([H])([H])C(=O)C([H])([H])Oc1c([H])c([H])c2c(c1[H])C([H])([H])N(C(=O)C([H])(N([H])C(=O)C([H])(N([H])C([H])([H])[H])C([H])([H])[H])C(C([H])([H])[H])(C([H])([H])[H])C([H])([H])[H])C([H])(C(=O)N([H])C1([H])c3c([H])c([H])c([H])c([H])c3C([H])([H])C([H])([H])C1([H])[H])C2([H])[H]

>  <smiles>  (64) 
[H]N=C(c1c(N([H])[H])oc(N([H])C(=O)N2C([H])([H])C([H])([H])C([H])([H])C([H])(n3nc(-c4c([H])c([H])c(Oc5c([H])c([H])c(F)c([H])c5F)c([H])c4[H])c(C(=O)N([H])[H])c3N([H])[H])C2([H])[H])c1[H])C([H])([H])C(=O)C([H])([H])Oc1c([H])c([H])c2c(c1[H])C([H])([H])N(C(=O)C([H])(N([H])C(=O)C([H])(N([H])C([H])([H])[H])C([H])([H])[H])C(C([H])([H])[H])(C([H])([H])[H])C([H])([H])[H])C([H])(C(=O)N([H])C1([H])c3c([H])c([H])c([H])c([H])c3C([H])([H])C([H])([H])C1([H])[H])C2([H])[H]

$$$$
64:0:0
     RDKit          3D

 94103  0  0  1  0  0  0  0  0999 V2000
  -30.5650  -21.8660   22.0280 C   0  0  0  0  0  2  0  0  0  0  0  0
  -31.4980  -22.2770   20.8740 C   0  0  0  0  0  2  0  0  0  0  0  0
  -29.1100  -22.3230   21.7890 C   0  0  0  0  0  2  0  0  0  0  0  0
  -29.5530  -21.2410   19.5150 C   0  0  0  0  0  3  0  0  0  0  0  0
  -31.0190  -21.7660   19.4860 C   0  0  0  0  0  3  0  0  0  0  0  0
  -31.3100  -22.7750   18.3490 C   0  0  0  0  0  1  0  0  0  0  0  0
  -28.6760  -22.2130   20.3660 N   0  0  2  0  0  4  0  0  0  0  0  0
  -27.8590  -21.6220   20.4440 H   0  0  0  0  0  0  0  0  0  0  0  0
  -28.6930  -17.9400   21.1240 C   0  0  0  0  0  3  0  0  0  0  0  0
  -29.6920  -17.3970   20.3500 C   0  0  0  0  0  0  0  0  0  0  0  0
  -29.5100  -19.6930   20.0200 C   0  0  0  0  0  0  0  0  0  0  0  0
  -30.1990  -18.5440   19.6370 N   0  0  0  0  0  0  0  0  0  0  0  0
  -28.5710  -19.3180   20.9370 O   0  0  0  0  0  0  0  0  0  0  0  0
  -30.7030  -14.8560   19.9360 C   0  0  0  0  0  0  0  0  0  0  0  0
  -30.5240  -12.5320   18.9590 C   0  0  0  0  0  2  0  0  0  0  0  0
  -29.5280  -12.6020   17.7740 C   0  0  0  0  0  2  0  0  0  0  0  0
  -28.0810  -12.4180   18.2760 C   0  0  0  0  0  2  0  0  0  0  0  0
  -27.7680  -13.3020   19.5130 C   0  0  0  0  0  3  0  0  0  0  0  0
  -28.8810  -13.1950   20.5780 C   0  0  0  0  0  2  0  0  0  0  0  0
  -30.1440  -13.5870   19.9300 N   0  0  0  0  0  0  0  0  0  0  0  0
  -31.8550  -15.0070   19.5080 O   0  0  0  0  0  0  0  0  0  0  0  0
  -29.8470  -15.8930   20.3190 N   0  0  0  0  0  0  0  0  0  0  0  0
  -29.0420  -15.4530   20.7300 H   0  0  0  0  0  0  0  0  0  0  0  0
  -25.4240  -13.9100   20.3720 C   0  0  0  0  0  0  0  0  0  0  0  0
  -24.3650  -13.1490   20.7830 C   0  0  0  0  0  0  0  0  0  0  0  0
  -24.8050  -11.7920   20.7010 C   0  0  0  0  0  0  0  0  0  0  0  0
  -26.4440  -13.0220   20.0640 N   0  0  0  0  0  0  0  0  0  0  0  0
  -26.0790  -11.7420   20.3280 N   0  0  0  0  0  0  0  0  0  0  0  0
  -24.0730  -10.5350   20.9020 C   0  0  0  0  0  0  0  0  0  0  0  0
  -24.4970   -9.5720   21.8470 C   0  0  0  0  0  3  0  0  0  0  0  0
  -23.7640   -8.3810   22.0340 C   0  0  0  0  0  3  0  0  0  0  0  0
  -22.5920   -8.1420   21.2770 C   0  0  0  0  0  0  0  0  0  0  0  0
  -22.1880   -9.0910   20.3190 C   0  0  0  0  0  3  0  0  0  0  0  0
  -22.9230  -10.2730   20.1290 C   0  0  0  0  0  3  0  0  0  0  0  0
  -21.8270   -7.0060   21.3750 O   0  0  0  0  0  0  0  0  0  0  0  0
  -21.7070   -6.3230   22.5570 C   0  0  0  0  0  0  0  0  0  0  0  0
  -21.2110   -6.9380   23.7280 C   0  0  0  0  0  3  0  0  0  0  0  0
  -21.0390   -6.1770   24.9000 C   0  0  0  0  0  3  0  0  0  0  0  0
  -21.3490   -4.8060   24.9050 C   0  0  0  0  0  0  0  0  0  0  0  0
  -21.8430   -4.1910   23.7410 C   0  0  0  0  0  3  0  0  0  0  0  0
  -22.0170   -4.9470   22.5680 C   0  0  0  0  0  0  0  0  0  0  0  0
  -22.4710   -4.3480   21.4420 F   0  0  0  0  0  0  0  0  0  0  0  0
  -21.1780   -4.0720   26.0300 F   0  0  0  0  0  0  0  0  0  0  0  0
  -22.9880  -13.6430   21.1280 C   0  0  0  0  0  0  0  0  0  0  0  0
  -22.2940  -12.9410   22.0170 N   0  0  0  0  0  0  0  0  0  0  0  0
  -22.5450  -14.6860   20.6520 O   0  0  0  0  0  0  0  0  0  0  0  0
  -22.6750  -12.1090   22.4410 H   0  0  0  0  0  0  0  0  0  0  0  0
  -21.3720  -13.2550   22.2870 H   0  0  0  0  0  0  0  0  0  0  0  0
  -25.6000  -15.2790   20.2050 N   0  0  0  0  0  0  0  0  0  0  0  0
  -24.8350  -15.9350   20.3190 H   0  0  0  0  0  0  0  0  0  0  0  0
  -26.4130  -15.7010   19.7770 H   0  0  0  0  0  0  0  0  0  0  0  0
  -28.0090  -23.5490   19.8510 C   0  0  0  0  0  2  0  0  0  0  0  0
  -28.7820  -24.9790   19.6200 C   0  0  0  0  0  2  0  0  0  0  0  0
  -28.5120  -26.3780   20.1520 O   0  0  0  0  0  0  0  0  0  0  0  0
  -24.5590  -31.6620   23.0930 C   0  0  0  0  0  0  0  0  0  0  0  0
  -27.3810  -27.2110   19.9910 C   0  0  0  0  0  0  0  0  0  0  0  0
  -23.4450  -30.2680   21.3880 C   0  0  0  0  0  3  0  0  0  0  0  0
  -24.9800  -28.7980   19.9460 C   0  0  0  0  0  0  0  0  0  0  0  0
  -25.9790  -30.6570   21.2810 C   0  0  0  0  0  2  0  0  0  0  0  0
  -26.1150  -29.2980   20.5920 C   0  0  0  0  0  0  0  0  0  0  0  0
  -27.3140  -28.5140   20.6020 C   0  0  0  0  0  3  0  0  0  0  0  0
  -26.2290  -26.7830   19.3030 C   0  0  0  0  0  3  0  0  0  0  0  0
  -25.0450  -27.5560   19.2880 C   0  0  0  0  0  3  0  0  0  0  0  0
  -23.7130  -29.6340   19.9950 C   0  0  0  0  0  2  0  0  0  0  0  0
  -24.6790  -30.8830   21.9770 N   0  0  0  0  0  0  0  0  0  0  0  0
  -23.4560  -31.8880   23.6120 O   0  0  0  0  0  0  0  0  0  0  0  0
  -22.7980  -29.2060   22.3070 C   0  0  0  0  0  0  0  0  0  0  0  0
  -21.4750  -29.0080   22.1720 N   0  0  0  0  0  0  0  0  0  0  0  0
  -23.4860  -28.5600   23.1020 O   0  0  0  0  0  0  0  0  0  0  0  0
  -20.9750  -29.5780   21.5020 H   0  0  0  0  0  0  0  0  0  0  0  0
  -18.1180  -27.7620   22.6570 C   0  0  0  0  0  0  0  0  0  0  0  0
  -20.6760  -28.0260   22.9060 C   0  0  0  0  0  3  0  0  0  0  0  0
  -20.7820  -26.6250   22.2560 C   0  0  0  0  0  2  0  0  0  0  0  0
  -19.6700  -26.3510   21.2400 C   0  0  0  0  0  2  0  0  0  0  0  0
  -18.2950  -26.4520   21.9070 C   0  0  0  0  0  2  0  0  0  0  0  0
  -19.2360  -28.5080   23.1120 C   0  0  0  0  0  0  0  0  0  0  0  0
  -19.0150  -29.7370   23.7710 C   0  0  0  0  0  3  0  0  0  0  0  0
  -17.7090  -30.2170   23.9810 C   0  0  0  0  0  3  0  0  0  0  0  0
  -16.6060  -29.4650   23.5440 C   0  0  0  0  0  3  0  0  0  0  0  0
  -16.8120  -28.2400   22.8840 C   0  0  0  0  0  3  0  0  0  0  0  0
  -25.8040  -32.3270   23.7570 C   0  0  0  0  0  3  0  0  0  0  0  0
  -26.3150  -31.5520   25.0340 C   0  0  1  0  0  0  0  0  0  0  0  0
  -25.2070  -31.2570   26.0720 C   0  0  0  0  0  1  0  0  0  0  0  0
  -26.9510  -30.1990   24.6370 C   0  0  0  0  0  1  0  0  0  0  0  0
  -27.4160  -32.3750   25.7440 C   0  0  0  0  0  1  0  0  0  0  0  0
  -25.4370  -33.7100   24.1050 N   0  0  0  0  0  0  0  0  0  0  0  0
  -25.7460  -34.7900   23.3770 C   0  0  0  0  0  0  0  0  0  0  0  0
  -26.4400  -34.7330   22.3560 O   0  0  0  0  0  0  0  0  0  0  0  0
  -24.8220  -33.8270   24.8960 H   0  0  0  0  0  0  0  0  0  0  0  0
  -23.9630  -36.5320   23.0370 C   0  0  0  0  0  1  0  0  0  0  0  0
  -25.2070  -36.1510   23.8560 C   0  0  0  0  0  3  0  0  0  0  0  0
  -27.2900  -37.1030   24.7390 C   0  0  0  0  0  1  0  0  0  0  0  0
  -26.1990  -37.2430   23.7790 N   0  0  0  0  0  0  0  0  0  0  0  0
  -25.7550  -38.1430   23.9350 H   0  0  0  0  0  0  0  0  0  0  0  0
  2  1  1  0
  3  1  1  0
  4 11  1  0
  4  7  1  0
  5  6  1  0
  5  4  1  0
  5  2  1  0
  7  8  1  1
  7  3  1  0
 10  9  2  0
 11 13  1  0
 12 11  2  0
 12 10  1  0
 13  9  1  0
 14 22  1  0
 15 20  1  0
 16 17  1  0
 16 15  1  0
 18 17  1  0
 18 27  1  0
 18 19  1  0
 20 14  1  0
 20 19  1  0
 21 14  2  0
 22 10  1  0
 22 23  1  0
 24 25  2  0
 25 44  1  0
 26 25  1  0
 26 29  1  0
 27 28  1  0
 27 24  1  0
 28 26  2  0
 29 30  1  0
 30 31  2  0
 32 35  1  0
 32 31  1  0
 33 32  2  0
 34 33  1  0
 34 29  2  0
 35 36  1  0
 36 41  2  0
 36 37  1  0
 37 38  2  0
 38 39  1  0
 39 43  1  0
 40 39  2  0
 41 40  1  0
 42 41  1  0
 44 45  1  0
 45 48  1  0
 45 47  1  0
 46 44  2  0
 49 50  1  0
 49 24  1  0
 51 49  1  0
 52  7  1  0
 53 52  1  0
 53 54  1  0
 55 66  2  0
 56 54  1  0
 56 61  1  0
 57 65  1  0
 57 67  1  0
 58 64  1  0
 58 60  1  0
 59 65  1  0
 60 61  2  0
 60 59  1  0
 62 56  2  0
 63 62  1  0
 63 58  2  0
 64 57  1  0
 65 55  1  0
 67 69  2  0
 68 67  1  0
 70 68  1  0
 71 80  2  0
 71 76  1  0
 72 68  1  0
 72 76  1  0
 73 72  1  0
 74 75  1  0
 74 73  1  0
 75 71  1  0
 76 77  2  0
 77 78  1  0
 79 78  2  0
 80 79  1  0
 81 55  1  0
 81 86  1  0
 81 82  1  0
 82 85  1  1
 82 83  1  0
 84 82  1  0
 86 89  1  0
 87 91  1  0
 87 86  1  0
 88 87  2  0
 91 90  1  0
 93 91  1  0
 93 94  1  0
 93 92  1  0
M  ISO  4  14 100  22 100  53 101  54 101
M  END
>  <TORSDO>  (65) 
F 19

>  <SCORE>  (65) 
-13.549

>  <name>  (65) 
64

>  <ligand_id>  (65) 
64

>  <original_smiles>  (65) 
[H]c1oc(C2([H])C([H])(C([H])([H])[H])C([H])([H])C([H])([H])C([H])([H])[N+]2([H])C([H])([H])C([H])([H])Oc2c([H])c([H])c3c(c2[H])C([H])([H])N(C(=O)C([H])(N([H])C(=O)C([H])(N([H])C([H])([H])[H])C([H])([H])[H])C(C([H])([H])[H])(C([H])([H])[H])C([H])([H])[H])C([H])(C(=O)N([H])C2([H])c4c([H])c([H])c([H])c([H])c4C([H])([H])C([H])([H])C2([H])[H])C3([H])[H])nc1N([H])C(=O)N1C([H])([H])C([H])([H])C([H])([H])C([H])(n2nc(-c3c([H])c([H])c(Oc4c([H])c([H])c(F)c([H])c4F)c([H])c3[H])c(C(=O)N([H])[H])c2N([H])[H])C1([H])[H]

>  <smiles>  (65) 
[H]c1oc(C2([H])C([H])(C([H])([H])[H])C([H])([H])C([H])([H])C([H])([H])[N+]2([H])C([H])([H])C([H])([H])Oc2c([H])c([H])c3c(c2[H])C([H])([H])N(C(=O)C([H])(N([H])C(=O)C([H])(N([H])C([H])([H])[H])C([H])([H])[H])C(C([H])([H])[H])(C([H])([H])[H])C([H])([H])[H])C([H])(C(=O)N([H])C2([H])c4c([H])c([H])c([H])c([H])c4C([H])([H])C([H])([H])C2([H])[H])C3([H])[H])nc1N([H])C(=O)N1C([H])([H])C([H])([H])C([H])([H])C([H])(n2nc(-c3c([H])c([H])c(Oc4c([H])c([H])c(F)c([H])c4F)c([H])c3[H])c(C(=O)N([H])[H])c2N([H])[H])C1([H])[H]

$$$$
65:0:0
     RDKit          3D

 92100  0  0  1  0  0  0  0  0999 V2000
  -28.7960  -18.6600   19.5110 C   0  0  0  0  0  3  0  0  0  0  0  0
  -29.7990  -18.1860   20.3220 C   0  0  0  0  0  0  0  0  0  0  0  0
  -29.2210  -20.5400   20.7110 C   0  0  0  0  0  0  0  0  0  0  0  0
  -29.7590  -22.9110   20.8730 C   0  0  0  0  0  3  0  0  0  0  0  0
  -30.7630  -22.8090   19.7500 C   0  0  0  0  0  1  0  0  0  0  0  0
  -28.4640  -20.0000   19.7510 N   0  0  0  0  0  0  0  0  0  0  0  0
  -29.0400  -21.8200   21.2290 N   0  0  0  0  0  0  0  0  0  0  0  0
  -29.5480  -24.0550   21.5760 N   0  0  0  0  0  0  0  0  0  0  0  0
  -30.4340  -19.4390   21.3590 S   0  0  0  0  0  0  0  0  0  0  0  0
  -28.3390  -21.8370   21.9540 H   0  0  0  0  0  0  0  0  0  0  0  0
  -28.9410  -23.9890   22.3810 H   0  0  0  0  0  0  0  0  0  0  0  0
  -30.4090  -16.8920   20.2820 C   0  0  0  0  0  3  0  0  0  0  0  0
  -29.9050  -15.6840   20.6330 C   0  0  0  0  0  3  0  0  0  0  0  0
  -30.6900  -14.4780   20.3690 C   0  0  0  0  0  0  0  0  0  0  0  0
  -30.3420  -12.3400   19.2290 C   0  0  0  0  0  2  0  0  0  0  0  0
  -29.3840  -12.5790   18.0430 C   0  0  0  0  0  2  0  0  0  0  0  0
  -27.9210  -12.4340   18.5000 C   0  0  0  0  0  2  0  0  0  0  0  0
  -27.6020  -13.2640   19.7730 C   0  0  0  0  0  3  0  0  0  0  0  0
  -28.6710  -13.0220   20.8600 C   0  0  0  0  0  2  0  0  0  0  0  0
  -29.9920  -13.3110   20.2790 N   0  0  0  0  0  0  0  0  0  0  0  0
  -31.8700  -14.5520   20.0150 O   0  0  0  0  0  0  0  0  0  0  0  0
  -25.2080  -13.8710   20.5000 C   0  0  0  0  0  0  0  0  0  0  0  0
  -24.1400  -13.0990   20.8670 C   0  0  0  0  0  0  0  0  0  0  0  0
  -24.6000  -11.7460   20.8310 C   0  0  0  0  0  0  0  0  0  0  0  0
  -26.2520  -12.9900   20.2630 N   0  0  0  0  0  0  0  0  0  0  0  0
  -25.8900  -11.7060   20.5180 N   0  0  0  0  0  0  0  0  0  0  0  0
  -23.8770  -10.4840   21.0170 C   0  0  0  0  0  0  0  0  0  0  0  0
  -24.3000   -9.5230   21.9590 C   0  0  0  0  0  3  0  0  0  0  0  0
  -23.5790   -8.3230   22.1320 C   0  0  0  0  0  3  0  0  0  0  0  0
  -22.4180   -8.0740   21.3610 C   0  0  0  0  0  0  0  0  0  0  0  0
  -22.0150   -9.0230   20.4060 C   0  0  0  0  0  3  0  0  0  0  0  0
  -22.7370  -10.2160   20.2320 C   0  0  0  0  0  3  0  0  0  0  0  0
  -21.6690   -6.9250   21.4460 O   0  0  0  0  0  0  0  0  0  0  0  0
  -21.5890   -6.2020   22.6090 C   0  0  0  0  0  0  0  0  0  0  0  0
  -21.0690   -6.7580   23.7980 C   0  0  0  0  0  3  0  0  0  0  0  0
  -20.9380   -5.9580   24.9510 C   0  0  0  0  0  3  0  0  0  0  0  0
  -21.3160   -4.6030   24.9150 C   0  0  0  0  0  0  0  0  0  0  0  0
  -21.8290   -4.0450   23.7310 C   0  0  0  0  0  3  0  0  0  0  0  0
  -21.9600   -4.8430   22.5810 C   0  0  0  0  0  0  0  0  0  0  0  0
  -22.4350   -4.2950   21.4360 F   0  0  0  0  0  0  0  0  0  0  0  0
  -21.1840   -3.8320   26.0200 F   0  0  0  0  0  0  0  0  0  0  0  0
  -22.7420  -13.5730   21.1450 C   0  0  0  0  0  0  0  0  0  0  0  0
  -22.0140  -12.8710   22.0030 N   0  0  0  0  0  0  0  0  0  0  0  0
  -22.3070  -14.6060   20.6350 O   0  0  0  0  0  0  0  0  0  0  0  0
  -22.3730  -12.0360   22.4440 H   0  0  0  0  0  0  0  0  0  0  0  0
  -21.0740  -13.1710   22.2260 H   0  0  0  0  0  0  0  0  0  0  0  0
  -25.3770  -15.2410   20.3250 N   0  0  0  0  0  0  0  0  0  0  0  0
  -24.6240  -15.9070   20.4510 H   0  0  0  0  0  0  0  0  0  0  0  0
  -26.2350  -15.6720   20.0030 H   0  0  0  0  0  0  0  0  0  0  0  0
  -30.2100  -25.3770   21.4770 C   0  0  0  0  0  2  0  0  0  0  0  0
  -29.2150  -26.5580   21.5490 C   0  0  0  0  0  2  0  0  0  0  0  0
  -28.5140  -26.6840   20.3060 O   0  0  0  0  0  0  0  0  0  0  0  0
  -24.5440  -31.8550   23.2410 C   0  0  0  0  0  0  0  0  0  0  0  0
  -27.3650  -27.4410   20.3060 C   0  0  0  0  0  0  0  0  0  0  0  0
  -23.4130  -30.4300   21.5610 C   0  0  0  0  0  3  0  0  0  0  0  0
  -24.9440  -28.9010   20.2060 C   0  0  0  0  0  0  0  0  0  0  0  0
  -25.9380  -30.8200   21.4580 C   0  0  0  0  0  2  0  0  0  0  0  0
  -26.0640  -29.4420   20.8450 C   0  0  0  0  0  0  0  0  0  0  0  0
  -27.2780  -28.7210   20.9000 C   0  0  0  0  0  3  0  0  0  0  0  0
  -26.2340  -26.9160   19.6440 C   0  0  0  0  0  3  0  0  0  0  0  0
  -25.0230  -27.6340   19.5980 C   0  0  0  0  0  3  0  0  0  0  0  0
  -23.6890  -29.7440   20.1940 C   0  0  0  0  0  2  0  0  0  0  0  0
  -24.6460  -31.0510   22.1460 N   0  0  0  0  0  0  0  0  0  0  0  0
  -23.4430  -32.1200   23.7430 O   0  0  0  0  0  0  0  0  0  0  0  0
  -22.7340  -29.4110   22.5050 C   0  0  0  0  0  0  0  0  0  0  0  0
  -21.4070  -29.2480   22.3610 N   0  0  0  0  0  0  0  0  0  0  0  0
  -23.3980  -28.7740   23.3270 O   0  0  0  0  0  0  0  0  0  0  0  0
  -20.9360  -29.8170   21.6730 H   0  0  0  0  0  0  0  0  0  0  0  0
  -18.0010  -28.1490   22.8550 C   0  0  0  0  0  0  0  0  0  0  0  0
  -20.5680  -28.3180   23.1150 C   0  0  0  0  0  3  0  0  0  0  0  0
  -20.6190  -26.8990   22.5040 C   0  0  0  0  0  2  0  0  0  0  0  0
  -19.5030  -26.6380   21.4880 C   0  0  0  0  0  2  0  0  0  0  0  0
  -18.1300  -26.8130   22.1450 C   0  0  0  0  0  2  0  0  0  0  0  0
  -19.1460  -28.8630   23.2980 C   0  0  0  0  0  0  0  0  0  0  0  0
  -18.9700  -30.1150   23.9250 C   0  0  0  0  0  3  0  0  0  0  0  0
  -17.6820  -30.6520   24.1140 C   0  0  0  0  0  3  0  0  0  0  0  0
  -16.5520  -29.9350   23.6840 C   0  0  0  0  0  3  0  0  0  0  0  0
  -16.7130  -28.6850   23.0610 C   0  0  0  0  0  3  0  0  0  0  0  0
  -25.8040  -32.5010   23.9010 C   0  0  0  0  0  3  0  0  0  0  0  0
  -26.2840  -31.7460   25.2010 C   0  0  1  0  0  0  0  0  0  0  0  0
  -25.1560  -31.5160   26.2360 C   0  0  0  0  0  1  0  0  0  0  0  0
  -26.8820  -30.3660   24.8420 C   0  0  0  0  0  1  0  0  0  0  0  0
  -27.4130  -32.5490   25.8840 C   0  0  0  0  0  1  0  0  0  0  0  0
  -25.4820  -33.9020   24.2000 N   0  0  0  0  0  0  0  0  0  0  0  0
  -25.8490  -34.9430   23.4370 C   0  0  0  0  0  0  0  0  0  0  0  0
  -26.5620  -34.8220   22.4360 O   0  0  0  0  0  0  0  0  0  0  0  0
  -24.8520  -34.0680   24.9720 H   0  0  0  0  0  0  0  0  0  0  0  0
  -24.1590  -36.7400   22.9560 C   0  0  0  0  0  1  0  0  0  0  0  0
  -25.3440  -36.3360   23.8490 C   0  0  0  0  0  3  0  0  0  0  0  0
  -27.4260  -37.2200   24.8060 C   0  0  0  0  0  1  0  0  0  0  0  0
  -26.3880  -37.3830   23.7910 N   0  0  0  0  0  0  0  0  0  0  0  0
  -25.9800  -38.3070   23.9030 H   0  0  0  0  0  0  0  0  0  0  0  0
  1  6  1  0
  1  2  2  0
  2  9  1  0
  3  7  1  0
  3  9  1  0
  4  5  1  0
  4  7  1  0
  4  8  1  0
  6  3  2  0
  7 10  1  0
  8 11  1  0
 12  2  1  0
 12 13  2  0
 14 13  1  0
 15 20  1  0
 16 17  1  0
 16 15  1  0
 18 17  1  0
 18 25  1  0
 18 19  1  0
 20 14  1  0
 20 19  1  0
 21 14  2  0
 22 23  2  0
 23 42  1  0
 24 23  1  0
 24 27  1  0
 25 22  1  0
 25 26  1  0
 26 24  2  0
 27 28  1  0
 28 29  2  0
 30 33  1  0
 30 29  1  0
 31 30  2  0
 32 31  1  0
 32 27  2  0
 33 34  1  0
 34 35  1  0
 35 36  2  0
 37 36  1  0
 37 41  1  0
 38 37  2  0
 39 34  2  0
 39 38  1  0
 40 39  1  0
 42 43  1  0
 43 46  1  0
 43 45  1  0
 44 42  2  0
 47 48  1  0
 47 22  1  0
 49 47  1  0
 50 51  1  0
 50  8  1  0
 52 54  1  0
 52 51  1  0
 53 64  2  0
 54 59  1  0
 55 63  1  0
 55 65  1  0
 56 58  1  0
 57 63  1  0
 58 59  2  0
 58 57  1  0
 60 54  2  0
 61 60  1  0
 61 56  2  0
 62 56  1  0
 62 55  1  0
 63 53  1  0
 65 67  2  0
 66 65  1  0
 68 66  1  0
 69 78  2  0
 69 74  1  0
 70 66  1  0
 70 74  1  0
 71 70  1  0
 72 73  1  0
 72 71  1  0
 73 69  1  0
 74 75  2  0
 75 76  1  0
 77 76  2  0
 78 77  1  0
 79 53  1  0
 79 84  1  0
 79 80  1  0
 80 83  1  1
 80 81  1  0
 82 80  1  0
 84 87  1  0
 85 89  1  0
 85 84  1  0
 86 85  2  0
 89 88  1  0
 91 89  1  0
 91 92  1  0
 91 90  1  0
M  ISO  4  13 100  14 100  51 101  52 101
M  END
>  <TORSDO>  (66) 
F 19

>  <SCORE>  (66) 
-14.431

>  <name>  (66) 
65

>  <ligand_id>  (66) 
65

>  <original_smiles>  (66) 
[H]C(C(=O)N1C([H])([H])C([H])([H])C([H])([H])C([H])(n2nc(-c3c([H])c([H])c(Oc4c([H])c([H])c(F)c([H])c4F)c([H])c3[H])c(C(=O)N([H])[H])c2N([H])[H])C1([H])[H])=C([H])c1sc(N([H])C(=[N+]([H])C([H])([H])C([H])([H])Oc2c([H])c([H])c3c(c2[H])C([H])([H])N(C(=O)C([H])(N([H])C(=O)C([H])(N([H])C([H])([H])[H])C([H])([H])[H])C(C([H])([H])[H])(C([H])([H])[H])C([H])([H])[H])C([H])(C(=O)N([H])C2([H])c4c([H])c([H])c([H])c([H])c4C([H])([H])C([H])([H])C2([H])[H])C3([H])[H])C([H])([H])[H])nc1[H]

>  <smiles>  (66) 
[H]C(C(=O)N1C([H])([H])C([H])([H])C([H])([H])C([H])(n2nc(-c3c([H])c([H])c(Oc4c([H])c([H])c(F)c([H])c4F)c([H])c3[H])c(C(=O)N([H])[H])c2N([H])[H])C1([H])[H])=C([H])c1sc(N([H])C(=[N+]([H])C([H])([H])C([H])([H])Oc2c([H])c([H])c3c(c2[H])C([H])([H])N(C(=O)C([H])(N([H])C(=O)C([H])(N([H])C([H])([H])[H])C([H])([H])[H])C(C([H])([H])[H])(C([H])([H])[H])C([H])([H])[H])C([H])(C(=O)N([H])C2([H])c4c([H])c([H])c([H])c([H])c4C([H])([H])C([H])([H])C2([H])[H])C3([H])[H])C([H])([H])[H])nc1[H]

$$$$
66:0:0
     RDKit          3D

 92100  0  0  1  0  0  0  0  0999 V2000
  -29.1450  -18.4360   20.2690 C   0  0  0  0  0  3  0  0  0  0  0  0
  -31.4240  -17.7880   20.6400 C   0  0  0  0  0  3  0  0  0  0  0  0
  -30.0960  -17.3500   20.4500 C   0  0  0  0  0  0  0  0  0  0  0  0
  -29.5430  -19.8330   20.2930 C   0  0  0  0  0  0  0  0  0  0  0  0
  -31.7420  -19.1590   20.6430 C   0  0  0  0  0  0  0  0  0  0  0  0
  -30.8380  -20.1470   20.4740 N   0  0  0  0  0  0  0  0  0  0  0  0
  -28.6770  -20.9760   20.1180 N   0  0  0  0  0  0  0  0  0  0  0  0
  -33.0270  -19.5200   20.8470 F   0  0  0  0  0  0  0  0  0  0  0  0
  -27.6850  -20.7520   20.0730 H   0  0  0  0  0  0  0  0  0  0  0  0
  -30.5570  -14.7520   20.3680 C   0  0  0  0  0  0  0  0  0  0  0  0
  -30.3520  -12.4760   19.3710 C   0  0  0  0  0  2  0  0  0  0  0  0
  -29.4120  -12.5520   18.1480 C   0  0  0  0  0  2  0  0  0  0  0  0
  -27.9440  -12.3850   18.5850 C   0  0  0  0  0  2  0  0  0  0  0  0
  -27.5760  -13.2780   19.8000 C   0  0  0  0  0  3  0  0  0  0  0  0
  -28.6350  -13.1870   20.9200 C   0  0  0  0  0  2  0  0  0  0  0  0
  -29.9310  -13.5320   20.3190 N   0  0  0  0  0  0  0  0  0  0  0  0
  -31.7600  -14.8140   20.0850 O   0  0  0  0  0  0  0  0  0  0  0  0
  -29.7640  -15.8920   20.4850 N   0  0  0  0  0  0  0  0  0  0  0  0
  -28.7800  -15.6890   20.5770 H   0  0  0  0  0  0  0  0  0  0  0  0
  -25.1900  -13.8770   20.5340 C   0  0  0  0  0  0  0  0  0  0  0  0
  -24.1240  -13.1040   20.9040 C   0  0  0  0  0  0  0  0  0  0  0  0
  -24.5850  -11.7530   20.8710 C   0  0  0  0  0  0  0  0  0  0  0  0
  -26.2340  -12.9960   20.2960 N   0  0  0  0  0  0  0  0  0  0  0  0
  -25.8760  -11.7140   20.5650 N   0  0  0  0  0  0  0  0  0  0  0  0
  -23.8580  -10.4910   21.0580 C   0  0  0  0  0  0  0  0  0  0  0  0
  -24.2880   -9.5190   21.9880 C   0  0  0  0  0  3  0  0  0  0  0  0
  -23.5590   -8.3230   22.1600 C   0  0  0  0  0  3  0  0  0  0  0  0
  -22.3870   -8.0890   21.4020 C   0  0  0  0  0  0  0  0  0  0  0  0
  -21.9770   -9.0510   20.4600 C   0  0  0  0  0  3  0  0  0  0  0  0
  -22.7070  -10.2380   20.2850 C   0  0  0  0  0  3  0  0  0  0  0  0
  -21.6300   -6.9440   21.4840 O   0  0  0  0  0  0  0  0  0  0  0  0
  -21.5770   -6.2000   22.6350 C   0  0  0  0  0  0  0  0  0  0  0  0
  -21.1500   -6.7530   23.8620 C   0  0  0  0  0  3  0  0  0  0  0  0
  -21.0420   -5.9320   25.0030 C   0  0  0  0  0  3  0  0  0  0  0  0
  -21.3570   -4.5640   24.9200 C   0  0  0  0  0  0  0  0  0  0  0  0
  -21.7740   -4.0100   23.6970 C   0  0  0  0  0  3  0  0  0  0  0  0
  -21.8840   -4.8250   22.5580 C   0  0  0  0  0  0  0  0  0  0  0  0
  -22.2690   -4.2840   21.3770 F   0  0  0  0  0  0  0  0  0  0  0  0
  -21.2440   -3.7740   26.0140 F   0  0  0  0  0  0  0  0  0  0  0  0
  -22.7280  -13.5820   21.1700 C   0  0  0  0  0  0  0  0  0  0  0  0
  -21.9960  -12.8850   22.0300 N   0  0  0  0  0  0  0  0  0  0  0  0
  -22.2970  -14.6120   20.6530 O   0  0  0  0  0  0  0  0  0  0  0  0
  -22.3570  -12.0510   22.4680 H   0  0  0  0  0  0  0  0  0  0  0  0
  -21.0580  -13.1870   22.2520 H   0  0  0  0  0  0  0  0  0  0  0  0
  -25.3560  -15.2480   20.3540 N   0  0  0  0  0  0  0  0  0  0  0  0
  -24.5800  -15.8930   20.4460 H   0  0  0  0  0  0  0  0  0  0  0  0
  -26.1800  -15.6820   19.9580 H   0  0  0  0  0  0  0  0  0  0  0  0
  -28.9750  -22.3670   20.6770 C   0  0  0  0  0  2  0  0  0  0  0  0
  -28.5970  -23.7240   19.9110 C   0  0  0  0  0  0  0  0  0  0  0  0
  -28.7440  -23.7880   18.6870 O   0  0  0  0  0  0  0  0  0  0  0  0
  -28.0080  -24.9830   20.7100 C   0  0  0  0  0  2  0  0  0  0  0  0
  -28.3110  -26.3850   20.2500 O   0  0  0  0  0  0  0  0  0  0  0  0
  -24.6000  -31.9020   23.2230 C   0  0  0  0  0  0  0  0  0  0  0  0
  -27.2310  -27.2910   20.2210 C   0  0  0  0  0  0  0  0  0  0  0  0
  -23.4140  -30.4830   21.5870 C   0  0  0  0  0  3  0  0  0  0  0  0
  -24.8800  -28.9270   20.1810 C   0  0  0  0  0  0  0  0  0  0  0  0
  -25.9590  -30.7960   21.4290 C   0  0  0  0  0  2  0  0  0  0  0  0
  -26.0470  -29.4120   20.7890 C   0  0  0  0  0  0  0  0  0  0  0  0
  -27.2310  -28.6040   20.7970 C   0  0  0  0  0  3  0  0  0  0  0  0
  -26.0490  -26.8800   19.5740 C   0  0  0  0  0  3  0  0  0  0  0  0
  -24.8880  -27.6730   19.5560 C   0  0  0  0  0  3  0  0  0  0  0  0
  -23.6450  -29.8050   20.2110 C   0  0  0  0  0  2  0  0  0  0  0  0
  -24.6750  -31.0780   22.1360 N   0  0  0  0  0  0  0  0  0  0  0  0
  -23.5120  -32.1790   23.7480 O   0  0  0  0  0  0  0  0  0  0  0  0
  -22.7490  -29.4730   22.5510 C   0  0  0  0  0  0  0  0  0  0  0  0
  -21.4220  -29.2960   22.4250 N   0  0  0  0  0  0  0  0  0  0  0  0
  -23.4250  -28.8470   23.3700 O   0  0  0  0  0  0  0  0  0  0  0  0
  -20.9320  -29.8560   21.7430 H   0  0  0  0  0  0  0  0  0  0  0  0
  -18.0400  -28.1210   22.9500 C   0  0  0  0  0  0  0  0  0  0  0  0
  -20.6020  -28.3640   23.2020 C   0  0  0  0  0  3  0  0  0  0  0  0
  -20.6910  -26.9310   22.6270 C   0  0  0  0  0  2  0  0  0  0  0  0
  -19.5790  -26.6160   21.6190 C   0  0  0  0  0  2  0  0  0  0  0  0
  -18.2020  -26.7700   22.2740 C   0  0  0  0  0  2  0  0  0  0  0  0
  -19.1660  -28.8760   23.3720 C   0  0  0  0  0  0  0  0  0  0  0  0
  -18.9590  -30.1400   23.9660 C   0  0  0  0  0  3  0  0  0  0  0  0
  -17.6570  -30.6480   24.1420 C   0  0  0  0  0  3  0  0  0  0  0  0
  -16.5450  -29.8880   23.7360 C   0  0  0  0  0  3  0  0  0  0  0  0
  -16.7380  -28.6280   23.1450 C   0  0  0  0  0  3  0  0  0  0  0  0
  -25.8760  -32.5470   23.8450 C   0  0  0  0  0  3  0  0  0  0  0  0
  -26.3920  -31.7870   25.1290 C   0  0  1  0  0  0  0  0  0  0  0  0
  -25.2990  -31.5490   26.1960 C   0  0  0  0  0  1  0  0  0  0  0  0
  -26.9890  -30.4100   24.7530 C   0  0  0  0  0  1  0  0  0  0  0  0
  -27.5350  -32.5930   25.7910 C   0  0  0  0  0  1  0  0  0  0  0  0
  -25.5560  -33.9440   24.1690 N   0  0  0  0  0  0  0  0  0  0  0  0
  -25.8820  -34.9980   23.4110 C   0  0  0  0  0  0  0  0  0  0  0  0
  -26.5580  -34.8990   22.3820 O   0  0  0  0  0  0  0  0  0  0  0  0
  -24.9610  -34.0950   24.9700 H   0  0  0  0  0  0  0  0  0  0  0  0
  -24.1500  -36.7830   23.0370 C   0  0  0  0  0  1  0  0  0  0  0  0
  -25.3830  -36.3840   23.8630 C   0  0  0  0  0  3  0  0  0  0  0  0
  -27.5020  -37.2810   24.7150 C   0  0  0  0  0  1  0  0  0  0  0  0
  -26.4100  -37.4420   23.7600 N   0  0  0  0  0  0  0  0  0  0  0  0
  -25.9980  -38.3610   23.9100 H   0  0  0  0  0  0  0  0  0  0  0  0
  1  4  2  0
  1  3  1  0
  2  5  1  0
  3 18  1  0
  3  2  2  0
  4  6  1  0
  5  8  1  0
  6  5  2  0
  7  4  1  0
  7 48  1  0
  9  7  1  0
 10 18  1  0
 11 16  1  0
 12 13  1  0
 12 11  1  0
 14 13  1  0
 14 23  1  0
 14 15  1  0
 16 10  1  0
 16 15  1  0
 17 10  2  0
 18 19  1  0
 20 21  2  0
 21 40  1  0
 22 21  1  0
 22 25  1  0
 23 20  1  0
 23 24  1  0
 24 22  2  0
 25 26  1  0
 26 27  2  0
 28 31  1  0
 28 27  1  0
 29 28  2  0
 30 29  1  0
 30 25  2  0
 31 32  1  0
 32 33  1  0
 33 34  2  0
 35 34  1  0
 35 39  1  0
 36 35  2  0
 37 32  2  0
 37 36  1  0
 38 37  1  0
 40 41  1  0
 41 44  1  0
 41 43  1  0
 42 40  2  0
 45 46  1  0
 45 20  1  0
 47 45  1  0
 49 48  1  0
 49 51  1  0
 50 49  2  0
 52 51  1  0
 53 64  2  0
 54 52  1  0
 54 59  1  0
 55 63  1  0
 55 65  1  0
 56 62  1  0
 56 58  1  0
 57 63  1  0
 58 59  2  0
 58 57  1  0
 60 54  2  0
 61 60  1  0
 61 56  2  0
 62 55  1  0
 63 53  1  0
 65 67  2  0
 66 65  1  0
 68 66  1  0
 69 78  2  0
 69 74  1  0
 70 66  1  0
 70 74  1  0
 71 70  1  0
 72 73  1  0
 72 71  1  0
 73 69  1  0
 74 75  2  0
 75 76  1  0
 77 76  2  0
 78 77  1  0
 79 53  1  0
 79 84  1  0
 79 80  1  0
 80 83  1  1
 80 81  1  0
 82 80  1  0
 84 87  1  0
 85 89  1  0
 85 84  1  0
 86 85  2  0
 89 88  1  0
 91 89  1  0
 91 92  1  0
 91 90  1  0
M  ISO  4  10 100  18 100  51 101  52 101
M  END
>  <TORSDO>  (67) 
F 19

>  <SCORE>  (67) 
-14.426

>  <name>  (67) 
66

>  <ligand_id>  (67) 
66

>  <original_smiles>  (67) 
[H]c1c([H])c([H])c2c(c1[H])C([H])([H])C([H])([H])C([H])([H])C2([H])N([H])C(=O)C1([H])N(C(=O)C([H])(N([H])C(=O)C([H])(N([H])C([H])([H])[H])C([H])([H])[H])C(C([H])([H])[H])(C([H])([H])[H])C([H])([H])[H])C([H])([H])c2c([H])c(OC([H])([H])C(=O)C([H])([H])N([H])c3nc(F)c([H])c(N([H])C(=O)N4C([H])([H])C([H])([H])C([H])([H])C([H])(n5nc(-c6c([H])c([H])c(Oc7c([H])c([H])c(F)c([H])c7F)c([H])c6[H])c(C(=O)N([H])[H])c5N([H])[H])C4([H])[H])c3[H])c([H])c([H])c2C1([H])[H]

>  <smiles>  (67) 
[H]c1c([H])c([H])c2c(c1[H])C([H])([H])C([H])([H])C([H])([H])C2([H])N([H])C(=O)C1([H])N(C(=O)C([H])(N([H])C(=O)C([H])(N([H])C([H])([H])[H])C([H])([H])[H])C(C([H])([H])[H])(C([H])([H])[H])C([H])([H])[H])C([H])([H])c2c([H])c(OC([H])([H])C(=O)C([H])([H])N([H])c3nc(F)c([H])c(N([H])C(=O)N4C([H])([H])C([H])([H])C([H])([H])C([H])(n5nc(-c6c([H])c([H])c(Oc7c([H])c([H])c(F)c([H])c7F)c([H])c6[H])c(C(=O)N([H])[H])c5N([H])[H])C4([H])[H])c3[H])c([H])c([H])c2C1([H])[H]

$$$$
67:0:0
     RDKit          3D

 94102  0  0  1  0  0  0  0  0999 V2000
  -29.3780  -18.5280   20.2650 C   0  0  0  0  0  0  0  0  0  0  0  0
  -28.2660  -18.5350   19.4320 C   0  0  0  0  0  0  0  0  0  0  0  0
  -28.8390  -20.8910   20.2100 C   0  0  0  0  0  0  0  0  0  0  0  0
  -29.6560  -19.8980   20.6840 N   0  0  0  0  0  0  0  0  0  0  0  0
  -28.9180  -22.3250   20.4590 N   0  0  0  0  0  0  0  0  0  0  0  0
  -27.5970  -20.1630   19.1910 S   0  0  0  0  0  0  0  0  0  0  0  0
  -29.6380  -22.5230   21.1450 H   0  0  0  0  0  0  0  0  0  0  0  0
  -30.5920  -14.7820   20.4450 C   0  0  0  0  0  0  0  0  0  0  0  0
  -30.3660  -12.4830   19.4720 C   0  0  0  0  0  2  0  0  0  0  0  0
  -29.4560  -12.5320   18.2290 C   0  0  0  0  0  2  0  0  0  0  0  0
  -27.9800  -12.3730   18.6380 C   0  0  0  0  0  2  0  0  0  0  0  0
  -27.5860  -13.2820   19.8340 C   0  0  0  0  0  3  0  0  0  0  0  0
  -28.6290  -13.2370   20.9690 C   0  0  0  0  0  2  0  0  0  0  0  0
  -29.9270  -13.5760   20.3750 N   0  0  0  0  0  0  0  0  0  0  0  0
  -31.8050  -14.7850   20.2140 O   0  0  0  0  0  0  0  0  0  0  0  0
  -30.3110  -17.2860   20.5700 C   0  0  0  0  0  0  0  0  0  0  0  0
  -29.8580  -15.9650   20.5170 N   0  0  0  0  0  0  0  0  0  0  0  0
  -31.4830  -17.5350   20.8810 O   0  0  0  0  0  0  0  0  0  0  0  0
  -28.8590  -15.8740   20.4450 H   0  0  0  0  0  0  0  0  0  0  0  0
  -25.1960  -13.8880   20.5300 C   0  0  0  0  0  0  0  0  0  0  0  0
  -24.1220  -13.1220   20.8950 C   0  0  0  0  0  0  0  0  0  0  0  0
  -24.5790  -11.7690   20.8850 C   0  0  0  0  0  0  0  0  0  0  0  0
  -26.2380  -13.0020   20.3150 N   0  0  0  0  0  0  0  0  0  0  0  0
  -25.8740  -11.7230   20.5920 N   0  0  0  0  0  0  0  0  0  0  0  0
  -23.8440  -10.5100   21.0740 C   0  0  0  0  0  0  0  0  0  0  0  0
  -24.2710   -9.5350   22.0030 C   0  0  0  0  0  3  0  0  0  0  0  0
  -23.5360   -8.3430   22.1800 C   0  0  0  0  0  3  0  0  0  0  0  0
  -22.3590   -8.1180   21.4270 C   0  0  0  0  0  0  0  0  0  0  0  0
  -21.9510   -9.0800   20.4860 C   0  0  0  0  0  3  0  0  0  0  0  0
  -22.6890  -10.2630   20.3070 C   0  0  0  0  0  3  0  0  0  0  0  0
  -21.5930   -6.9800   21.5160 O   0  0  0  0  0  0  0  0  0  0  0  0
  -21.5540   -6.2250   22.6600 C   0  0  0  0  0  0  0  0  0  0  0  0
  -21.1600   -6.7720   23.9010 C   0  0  0  0  0  3  0  0  0  0  0  0
  -21.0690   -5.9450   25.0380 C   0  0  0  0  0  3  0  0  0  0  0  0
  -21.3590   -4.5710   24.9350 C   0  0  0  0  0  0  0  0  0  0  0  0
  -21.7440   -4.0230   23.6990 C   0  0  0  0  0  3  0  0  0  0  0  0
  -21.8390   -4.8480   22.5650 C   0  0  0  0  0  0  0  0  0  0  0  0
  -22.1910   -4.3110   21.3710 F   0  0  0  0  0  0  0  0  0  0  0  0
  -21.2640   -3.7730   26.0240 F   0  0  0  0  0  0  0  0  0  0  0  0
  -22.7230  -13.6070   21.1400 C   0  0  0  0  0  0  0  0  0  0  0  0
  -21.9770  -12.9230   22.0010 N   0  0  0  0  0  0  0  0  0  0  0  0
  -22.2970  -14.6300   20.6030 O   0  0  0  0  0  0  0  0  0  0  0  0
  -22.3370  -12.0970   22.4570 H   0  0  0  0  0  0  0  0  0  0  0  0
  -21.0360  -13.2270   22.2040 H   0  0  0  0  0  0  0  0  0  0  0  0
  -25.3650  -15.2570   20.3350 N   0  0  0  0  0  0  0  0  0  0  0  0
  -24.5860  -15.9020   20.4110 H   0  0  0  0  0  0  0  0  0  0  0  0
  -26.1840  -15.6930   19.9250 H   0  0  0  0  0  0  0  0  0  0  0  0
  -27.6600  -17.4790   18.7400 N   0  0  0  0  0  0  0  0  0  0  0  0
  -26.9430  -17.7210   18.0620 H   0  0  0  0  0  0  0  0  0  0  0  0
  -28.2460  -16.7430   18.3570 H   0  0  0  0  0  0  0  0  0  0  0  0
  -28.3610  -23.6280   19.8800 C   0  0  0  0  0  2  0  0  0  0  0  0
  -27.4830  -24.8990   21.9820 C   0  0  0  0  0  1  0  0  0  0  0  0
  -28.4060  -25.0060   20.7590 C   0  0  0  0  0  3  0  0  0  0  0  0
  -28.3800  -26.4130   20.1880 O   0  0  0  0  0  0  0  0  0  0  0  0
  -24.6200  -31.8580   23.2360 C   0  0  0  0  0  0  0  0  0  0  0  0
  -27.2510  -27.2650   20.2020 C   0  0  0  0  0  0  0  0  0  0  0  0
  -23.4280  -30.4590   21.5880 C   0  0  0  0  0  3  0  0  0  0  0  0
  -24.8900  -28.9030   20.1680 C   0  0  0  0  0  0  0  0  0  0  0  0
  -25.9690  -30.7740   21.4190 C   0  0  0  0  0  2  0  0  0  0  0  0
  -26.0560  -29.3900   20.7700 C   0  0  0  0  0  0  0  0  0  0  0  0
  -27.2430  -28.5880   20.7690 C   0  0  0  0  0  3  0  0  0  0  0  0
  -26.0640  -26.8380   19.5760 C   0  0  0  0  0  3  0  0  0  0  0  0
  -24.9000  -27.6370   19.5580 C   0  0  0  0  0  3  0  0  0  0  0  0
  -23.6530  -29.7790   20.2090 C   0  0  0  0  0  2  0  0  0  0  0  0
  -24.6910  -31.0500   22.1380 N   0  0  0  0  0  0  0  0  0  0  0  0
  -23.5330  -32.1320   23.7680 O   0  0  0  0  0  0  0  0  0  0  0  0
  -22.7610  -29.4430   22.5450 C   0  0  0  0  0  0  0  0  0  0  0  0
  -21.4330  -29.2720   22.4210 N   0  0  0  0  0  0  0  0  0  0  0  0
  -23.4390  -28.8110   23.3610 O   0  0  0  0  0  0  0  0  0  0  0  0
  -20.9470  -29.8300   21.7340 H   0  0  0  0  0  0  0  0  0  0  0  0
  -18.0540  -28.0830   22.9250 C   0  0  0  0  0  0  0  0  0  0  0  0
  -20.6140  -28.3310   23.1880 C   0  0  0  0  0  3  0  0  0  0  0  0
  -20.7090  -26.9040   22.5990 C   0  0  0  0  0  2  0  0  0  0  0  0
  -19.6020  -26.5940   21.5860 C   0  0  0  0  0  2  0  0  0  0  0  0
  -18.2230  -26.7380   22.2370 C   0  0  0  0  0  2  0  0  0  0  0  0
  -19.1770  -28.8370   23.3570 C   0  0  0  0  0  0  0  0  0  0  0  0
  -18.9650  -30.0950   23.9630 C   0  0  0  0  0  3  0  0  0  0  0  0
  -17.6620  -30.5990   24.1390 C   0  0  0  0  0  3  0  0  0  0  0  0
  -16.5540  -29.8410   23.7250 C   0  0  0  0  0  3  0  0  0  0  0  0
  -16.7500  -28.5850   23.1230 C   0  0  0  0  0  3  0  0  0  0  0  0
  -25.8980  -32.4950   23.8670 C   0  0  0  0  0  3  0  0  0  0  0  0
  -26.4050  -31.7280   25.1500 C   0  0  1  0  0  0  0  0  0  0  0  0
  -25.3030  -31.4980   26.2110 C   0  0  0  0  0  1  0  0  0  0  0  0
  -26.9870  -30.3470   24.7710 C   0  0  0  0  0  1  0  0  0  0  0  0
  -27.5530  -32.5230   25.8150 C   0  0  0  0  0  1  0  0  0  0  0  0
  -25.5830  -33.8940   24.1940 N   0  0  0  0  0  0  0  0  0  0  0  0
  -25.9170  -34.9470   23.4370 C   0  0  0  0  0  0  0  0  0  0  0  0
  -26.5900  -34.8450   22.4080 O   0  0  0  0  0  0  0  0  0  0  0  0
  -24.9850  -34.0480   24.9930 H   0  0  0  0  0  0  0  0  0  0  0  0
  -24.1850  -36.7380   23.0830 C   0  0  0  0  0  1  0  0  0  0  0  0
  -25.4260  -36.3350   23.8940 C   0  0  0  0  0  3  0  0  0  0  0  0
  -27.5590  -37.2250   24.7230 C   0  0  0  0  0  1  0  0  0  0  0  0
  -26.4550  -37.3920   23.7810 N   0  0  0  0  0  0  0  0  0  0  0  0
  -26.0460  -38.3100   23.9290 H   0  0  0  0  0  0  0  0  0  0  0  0
  1 16  1  0
  1  4  1  0
  2  1  2  0
  3  5  1  0
  3  4  2  0
  5  7  1  0
  6  2  1  0
  6  3  1  0
  8 17  1  0
  9 14  1  0
 10 11  1  0
 10  9  1  0
 12 11  1  0
 12 23  1  0
 12 13  1  0
 14  8  1  0
 14 13  1  0
 15  8  2  0
 16 18  2  0
 17 16  1  0
 19 17  1  0
 20 21  2  0
 21 40  1  0
 22 21  1  0
 22 25  1  0
 23 20  1  0
 23 24  1  0
 24 22  2  0
 25 26  1  0
 26 27  2  0
 28 31  1  0
 28 27  1  0
 29 28  2  0
 30 29  1  0
 30 25  2  0
 31 32  1  0
 32 33  1  0
 33 34  2  0
 35 34  1  0
 35 39  1  0
 36 35  2  0
 37 32  2  0
 37 36  1  0
 38 37  1  0
 40 41  1  0
 41 44  1  0
 41 43  1  0
 42 40  2  0
 45 46  1  0
 45 20  1  0
 47 45  1  0
 48  2  1  0
 49 48  1  0
 50 48  1  0
 51  5  1  0
 51 53  1  0
 53 52  1  0
 54 56  1  0
 54 53  1  0
 55 66  2  0
 56 61  1  0
 57 65  1  0
 57 67  1  0
 58 64  1  0
 58 60  1  0
 59 65  1  0
 60 59  1  0
 61 60  2  0
 62 56  2  0
 63 62  1  0
 63 58  2  0
 64 57  1  0
 65 55  1  0
 67 69  2  0
 68 67  1  0
 70 68  1  0
 71 80  2  0
 71 76  1  0
 72 68  1  0
 72 76  1  0
 73 72  1  0
 74 75  1  0
 74 73  1  0
 75 71  1  0
 76 77  2  0
 77 78  1  0
 79 78  2  0
 80 79  1  0
 81 55  1  0
 81 86  1  0
 81 82  1  0
 82 85  1  1
 82 83  1  0
 84 82  1  0
 86 89  1  0
 87 91  1  0
 87 86  1  0
 88 87  2  0
 91 90  1  0
 93 91  1  0
 93 94  1  0
 93 92  1  0
M  ISO  4   8 100  17 100  53 101  54 101
M  END
>  <TORSDO>  (68) 
F 19

>  <SCORE>  (68) 
-14.540

>  <name>  (68) 
67

>  <ligand_id>  (68) 
67

>  <original_smiles>  (68) 
[H]c1c([H])c([H])c2c(c1[H])C([H])([H])C([H])([H])C([H])([H])C2([H])N([H])C(=O)C1([H])N(C(=O)C([H])(N([H])C(=O)C([H])(N([H])C([H])([H])[H])C([H])([H])[H])C(C([H])([H])[H])(C([H])([H])[H])C([H])([H])[H])C([H])([H])c2c([H])c(OC([H])(C([H])([H])[H])C([H])([H])N([H])c3nc(C(=O)N([H])C(=O)N4C([H])([H])C([H])([H])C([H])([H])C([H])(n5nc(-c6c([H])c([H])c(Oc7c([H])c([H])c(F)c([H])c7F)c([H])c6[H])c(C(=O)N([H])[H])c5N([H])[H])C4([H])[H])c(N([H])[H])s3)c([H])c([H])c2C1([H])[H]

>  <smiles>  (68) 
[H]c1c([H])c([H])c2c(c1[H])C([H])([H])C([H])([H])C([H])([H])C2([H])N([H])C(=O)C1([H])N(C(=O)C([H])(N([H])C(=O)C([H])(N([H])C([H])([H])[H])C([H])([H])[H])C(C([H])([H])[H])(C([H])([H])[H])C([H])([H])[H])C([H])([H])c2c([H])c(OC([H])(C([H])([H])[H])C([H])([H])N([H])c3nc(C(=O)N([H])C(=O)N4C([H])([H])C([H])([H])C([H])([H])C([H])(n5nc(-c6c([H])c([H])c(Oc7c([H])c([H])c(F)c([H])c7F)c([H])c6[H])c(C(=O)N([H])[H])c5N([H])[H])C4([H])[H])c(N([H])[H])s3)c([H])c([H])c2C1([H])[H]

$$$$
68:0:0
     RDKit          3D

 97105  0  0  1  0  0  0  0  0999 V2000
  -30.0460  -21.1090   20.2810 C   0  0  0  0  0  0  0  0  0  0  0  0
  -29.4860  -23.6770   20.0670 C   0  0  0  0  0  0  0  0  0  0  0  0
  -29.5520  -22.2350   19.5880 N   0  0  0  0  0  0  0  0  0  0  0  0
  -30.4500  -21.2900   21.5500 N   0  0  0  0  0  4  0  0  0  0  0  0
  -30.0550  -23.9820   21.1260 O   0  0  0  0  0  0  0  0  0  0  0  0
  -29.1660  -21.9870   18.6910 H   0  0  0  0  0  0  0  0  0  0  0  0
  -30.8600  -20.5420   22.0900 H   0  0  0  0  0  0  0  0  0  0  0  0
  -30.4520  -22.2270   21.9390 H   0  0  0  0  0  0  0  0  0  0  0  0
  -31.1890  -18.0340   18.6040 C   0  0  0  0  0  3  0  0  0  0  0  0
  -29.8840  -18.4040   20.3730 C   0  0  0  0  0  0  0  0  0  0  0  0
  -30.5320  -17.3440   19.5920 C   0  0  0  0  0  0  0  0  0  0  0  0
  -30.2090  -19.6580   19.8280 C   0  0  0  0  0  0  0  0  0  0  0  0
  -30.9950  -19.4080   18.7250 O   0  0  0  0  0  0  0  0  0  0  0  0
  -31.0820  -14.7680   19.1730 C   0  0  0  0  0  0  0  0  0  0  0  0
  -30.6510  -12.5450   18.0940 C   0  0  0  0  0  2  0  0  0  0  0  0
  -29.5140  -12.7100   17.0590 C   0  0  0  0  0  2  0  0  0  0  0  0
  -28.1360  -12.5470   17.7300 C   0  0  0  0  0  2  0  0  0  0  0  0
  -28.0140  -13.3710   19.0400 C   0  0  0  0  0  3  0  0  0  0  0  0
  -29.2480  -13.1810   19.9510 C   0  0  0  0  0  2  0  0  0  0  0  0
  -30.4380  -13.5450   19.1700 N   0  0  0  0  0  0  0  0  0  0  0  0
  -32.1530  -14.8930   18.5700 O   0  0  0  0  0  0  0  0  0  0  0  0
  -30.4370  -15.8540   19.7650 N   0  0  0  0  0  0  0  0  0  0  0  0
  -29.6920  -15.5580   20.3770 H   0  0  0  0  0  0  0  0  0  0  0  0
  -25.8230  -13.9920   20.2210 C   0  0  0  0  0  0  0  0  0  0  0  0
  -24.8040  -13.2320   20.7250 C   0  0  0  0  0  0  0  0  0  0  0  0
  -25.1860  -11.8710   20.5200 C   0  0  0  0  0  0  0  0  0  0  0  0
  -26.7640  -13.0950   19.7410 N   0  0  0  0  0  0  0  0  0  0  0  0
  -26.3980  -11.8100   19.9800 N   0  0  0  0  0  0  0  0  0  0  0  0
  -24.4420  -10.6250   20.7510 C   0  0  0  0  0  0  0  0  0  0  0  0
  -24.8770   -9.6700   21.6960 C   0  0  0  0  0  3  0  0  0  0  0  0
  -24.1330   -8.4910   21.9160 C   0  0  0  0  0  3  0  0  0  0  0  0
  -22.9400   -8.2570   21.1910 C   0  0  0  0  0  0  0  0  0  0  0  0
  -22.5240   -9.2010   20.2350 C   0  0  0  0  0  3  0  0  0  0  0  0
  -23.2690  -10.3720   20.0140 C   0  0  0  0  0  3  0  0  0  0  0  0
  -22.1680   -7.1280   21.3190 O   0  0  0  0  0  0  0  0  0  0  0  0
  -21.9420   -6.5450   22.5400 C   0  0  0  0  0  0  0  0  0  0  0  0
  -21.3760   -7.2640   23.6150 C   0  0  0  0  0  3  0  0  0  0  0  0
  -21.0970   -6.6070   24.8310 C   0  0  0  0  0  3  0  0  0  0  0  0
  -21.3730   -5.2340   24.9700 C   0  0  0  0  0  0  0  0  0  0  0  0
  -21.9320   -4.5160   23.8990 C   0  0  0  0  0  3  0  0  0  0  0  0
  -22.2120   -5.1690   22.6860 C   0  0  0  0  0  0  0  0  0  0  0  0
  -22.7310   -4.4680   21.6490 F   0  0  0  0  0  0  0  0  0  0  0  0
  -21.0980   -4.6020   26.1350 F   0  0  0  0  0  0  0  0  0  0  0  0
  -23.5020  -13.7390   21.2760 C   0  0  0  0  0  0  0  0  0  0  0  0
  -22.9290  -13.0320   22.2430 N   0  0  0  0  0  0  0  0  0  0  0  0
  -23.0100  -14.7960   20.8830 O   0  0  0  0  0  0  0  0  0  0  0  0
  -23.3430  -12.1750   22.5800 H   0  0  0  0  0  0  0  0  0  0  0  0
  -22.0630  -13.3520   22.6550 H   0  0  0  0  0  0  0  0  0  0  0  0
  -26.0210  -15.3650   20.1090 N   0  0  0  0  0  0  0  0  0  0  0  0
  -25.3110  -16.0330   20.3870 H   0  0  0  0  0  0  0  0  0  0  0  0
  -26.8080  -15.7960   19.6410 H   0  0  0  0  0  0  0  0  0  0  0  0
  -29.0320  -18.2440   21.6120 C   0  0  1  0  0  0  0  0  0  0  0  0
  -28.6180  -16.9830   21.7550 F   0  0  0  0  0  0  0  0  0  0  0  0
  -29.7560  -18.5910   22.6770 F   0  0  0  0  0  0  0  0  0  0  0  0
  -27.9700  -19.0440   21.5330 F   0  0  0  0  0  0  0  0  0  0  0  0
  -28.6370  -24.8060   19.2900 C   0  0  0  0  0  2  0  0  0  0  0  0
  -28.6790  -26.2490   19.7860 O   0  0  0  0  0  0  0  0  0  0  0  0
  -24.6000  -31.3880   22.9460 C   0  0  0  0  0  0  0  0  0  0  0  0
  -27.5330  -27.0930   19.7190 C   0  0  0  0  0  0  0  0  0  0  0  0
  -23.5100  -29.9920   21.2300 C   0  0  0  0  0  3  0  0  0  0  0  0
  -25.0760  -28.6080   19.7450 C   0  0  0  0  0  0  0  0  0  0  0  0
  -26.0320  -30.4660   21.0990 C   0  0  0  0  0  2  0  0  0  0  0  0
  -26.2080  -29.1230   20.3880 C   0  0  0  0  0  0  0  0  0  0  0  0
  -27.4350  -28.3770   20.3670 C   0  0  0  0  0  3  0  0  0  0  0  0
  -26.3770  -26.6710   19.0250 C   0  0  0  0  0  3  0  0  0  0  0  0
  -25.1670  -27.3930   19.0520 C   0  0  0  0  0  3  0  0  0  0  0  0
  -23.7840  -29.4000   19.8220 C   0  0  0  0  0  2  0  0  0  0  0  0
  -24.7310  -30.6340   21.8150 N   0  0  0  0  0  0  0  0  0  0  0  0
  -23.4950  -31.5690   23.4790 O   0  0  0  0  0  0  0  0  0  0  0  0
  -22.9070  -28.8900   22.1350 C   0  0  0  0  0  0  0  0  0  0  0  0
  -21.6040  -28.6050   21.9610 N   0  0  0  0  0  0  0  0  0  0  0  0
  -23.6100  -28.2960   22.9560 O   0  0  0  0  0  0  0  0  0  0  0  0
  -21.0900  -29.1430   21.2760 H   0  0  0  0  0  0  0  0  0  0  0  0
  -18.3350  -27.0870   22.2970 C   0  0  0  0  0  0  0  0  0  0  0  0
  -20.8470  -27.5750   22.6750 C   0  0  0  0  0  3  0  0  0  0  0  0
  -21.1030  -26.1750   22.0690 C   0  0  0  0  0  2  0  0  0  0  0  0
  -20.0740  -25.7820   21.0050 C   0  0  0  0  0  2  0  0  0  0  0  0
  -18.6620  -25.7800   21.5960 C   0  0  0  0  0  2  0  0  0  0  0  0
  -19.3610  -27.9370   22.7900 C   0  0  0  0  0  0  0  0  0  0  0  0
  -19.0030  -29.1560   23.4060 C   0  0  0  0  0  3  0  0  0  0  0  0
  -17.6520  -29.5290   23.5330 C   0  0  0  0  0  3  0  0  0  0  0  0
  -16.6390  -28.6770   23.0570 C   0  0  0  0  0  3  0  0  0  0  0  0
  -16.9820  -27.4590   22.4450 C   0  0  0  0  0  3  0  0  0  0  0  0
  -25.8290  -32.0790   23.6130 C   0  0  0  0  0  3  0  0  0  0  0  0
  -26.3930  -31.2810   24.8530 C   0  0  1  0  0  0  0  0  0  0  0  0
  -25.3100  -30.8890   25.8860 C   0  0  0  0  0  1  0  0  0  0  0  0
  -27.0970  -29.9830   24.3960 C   0  0  0  0  0  1  0  0  0  0  0  0
  -27.4600  -32.1310   25.5810 C   0  0  0  0  0  1  0  0  0  0  0  0
  -25.4160  -33.4310   24.0150 N   0  0  0  0  0  0  0  0  0  0  0  0
  -25.6620  -34.5460   23.3120 C   0  0  0  0  0  0  0  0  0  0  0  0
  -26.3270  -34.5470   22.2730 O   0  0  0  0  0  0  0  0  0  0  0  0
  -24.8180  -33.4990   24.8260 H   0  0  0  0  0  0  0  0  0  0  0  0
  -23.7930  -36.2140   23.0750 C   0  0  0  0  0  1  0  0  0  0  0  0
  -25.0770  -35.8680   23.8460 C   0  0  0  0  0  3  0  0  0  0  0  0
  -27.1470  -36.8790   24.6960 C   0  0  0  0  0  1  0  0  0  0  0  0
  -26.0230  -37.0030   23.7720 N   0  0  0  0  0  0  0  0  0  0  0  0
  -25.5470  -37.8800   23.9680 H   0  0  0  0  0  0  0  0  0  0  0  0
  1  4  2  0
  2  5  2  0
  3  2  1  0
  3  1  1  0
  4  8  1  0
  4  7  1  0
  6  3  1  0
  9 13  1  0
  9 11  2  0
 10 52  1  0
 11 22  1  0
 11 10  1  0
 12  1  1  0
 12 10  2  0
 13 12  1  0
 14 22  1  0
 15 20  1  0
 16 17  1  0
 16 15  1  0
 18 17  1  0
 18 27  1  0
 18 19  1  0
 20 14  1  0
 20 19  1  0
 21 14  2  0
 22 23  1  0
 24 25  2  0
 25 44  1  0
 26 25  1  0
 26 29  1  0
 27 28  1  0
 27 24  1  0
 28 26  2  0
 29 30  1  0
 30 31  2  0
 32 35  1  0
 32 31  1  0
 33 32  2  0
 34 33  1  0
 34 29  2  0
 35 36  1  0
 36 41  2  0
 36 37  1  0
 37 38  2  0
 38 39  1  0
 39 43  1  0
 40 39  2  0
 41 40  1  0
 42 41  1  0
 44 45  1  0
 45 47  1  0
 45 48  1  0
 46 44  2  0
 49 24  1  0
 49 50  1  0
 51 49  1  0
 52 53  1  1
 52 54  1  0
 55 52  1  0
 56 57  1  0
 56  2  1  0
 58 69  2  0
 59 57  1  0
 59 64  1  0
 60 68  1  0
 60 70  1  0
 61 67  1  0
 61 63  1  0
 62 68  1  0
 63 62  1  0
 64 63  2  0
 65 66  1  0
 65 59  2  0
 66 61  2  0
 67 60  1  0
 68 58  1  0
 70 72  2  0
 71 70  1  0
 73 71  1  0
 74 83  2  0
 74 79  1  0
 75 71  1  0
 75 79  1  0
 76 75  1  0
 77 78  1  0
 77 76  1  0
 78 74  1  0
 79 80  2  0
 80 81  1  0
 82 81  2  0
 83 82  1  0
 84 58  1  0
 84 89  1  0
 84 85  1  0
 85 88  1  1
 85 86  1  0
 87 85  1  0
 89 92  1  0
 90 94  1  0
 90 89  1  0
 91 90  2  0
 94 93  1  0
 96 94  1  0
 96 97  1  0
 96 95  1  0
M  ISO  4  14 100  22 100  56 101  57 101
M  END
>  <TORSDO>  (69) 
F 19

>  <SCORE>  (69) 
-8.392

>  <name>  (69) 
68

>  <ligand_id>  (69) 
68

>  <original_smiles>  (69) 
[H]c1oc(C(N([H])C(=O)C([H])([H])Oc2c([H])c([H])c3c(c2[H])C([H])([H])N(C(=O)C([H])(N([H])C(=O)C([H])(N([H])C([H])([H])[H])C([H])([H])[H])C(C([H])([H])[H])(C([H])([H])[H])C([H])([H])[H])C([H])(C(=O)N([H])C2([H])c4c([H])c([H])c([H])c([H])c4C([H])([H])C([H])([H])C2([H])[H])C3([H])[H])=[N+]([H])[H])c(C(F)(F)F)c1N([H])C(=O)N1C([H])([H])C([H])([H])C([H])([H])C([H])(n2nc(-c3c([H])c([H])c(Oc4c([H])c([H])c(F)c([H])c4F)c([H])c3[H])c(C(=O)N([H])[H])c2N([H])[H])C1([H])[H]

>  <smiles>  (69) 
[H]c1oc(C(N([H])C(=O)C([H])([H])Oc2c([H])c([H])c3c(c2[H])C([H])([H])N(C(=O)C([H])(N([H])C(=O)C([H])(N([H])C([H])([H])[H])C([H])([H])[H])C(C([H])([H])[H])(C([H])([H])[H])C([H])([H])[H])C([H])(C(=O)N([H])C2([H])c4c([H])c([H])c([H])c([H])c4C([H])([H])C([H])([H])C2([H])[H])C3([H])[H])=[N+]([H])[H])c(C(F)(F)F)c1N([H])C(=O)N1C([H])([H])C([H])([H])C([H])([H])C([H])(n2nc(-c3c([H])c([H])c(Oc4c([H])c([H])c(F)c([H])c4F)c([H])c3[H])c(C(=O)N([H])[H])c2N([H])[H])C1([H])[H]

$$$$
69:0:0
     RDKit          3D

 96105  0  0  1  0  0  0  0  0999 V2000
  -30.6040  -15.0750   20.2740 C   0  0  0  0  0  0  0  0  0  0  0  0
  -30.4960  -12.7110   19.3280 C   0  0  0  0  0  2  0  0  0  0  0  0
  -29.5590  -12.6340   18.0990 C   0  0  0  0  0  2  0  0  0  0  0  0
  -28.0960  -12.4350   18.5380 C   0  0  0  0  0  2  0  0  0  0  0  0
  -27.6880  -13.3810   19.6970 C   0  0  0  0  0  3  0  0  0  0  0  0
  -28.7430  -13.4040   20.8210 C   0  0  0  0  0  2  0  0  0  0  0  0
  -30.0020  -13.8170   20.1930 N   0  0  0  0  0  0  0  0  0  0  0  0
  -31.8340  -15.1000   20.1210 O   0  0  0  0  0  0  0  0  0  0  0  0
  -30.5370  -17.9020   21.8680 C   0  0  0  0  0  3  0  0  0  0  0  0
  -30.5490  -19.1640   22.4820 C   0  0  0  0  0  0  0  0  0  0  0  0
  -30.0540  -20.3300   21.8880 C   0  0  0  0  0  0  0  0  0  0  0  0
  -29.4830  -20.2920   20.5840 C   0  0  0  0  0  0  0  0  0  0  0  0
  -29.9500  -17.7450   20.6030 C   0  0  0  0  0  0  0  0  0  0  0  0
  -31.0630  -19.4360   23.8580 C   0  0  0  0  0  3  0  0  0  0  0  0
  -30.8330  -20.9470   23.9850 C   0  0  0  0  0  3  0  0  0  0  0  0
  -29.4370  -18.9590   20.0130 N   0  0  0  0  0  0  0  0  0  0  0  0
  -30.2030  -21.4270   22.7480 N   0  0  0  0  0  0  0  0  0  0  0  0
  -29.8110  -16.2680   20.1760 N   0  0  0  0  0  0  0  0  0  0  0  0
  -30.5620  -22.2950   22.3580 H   0  0  0  0  0  0  0  0  0  0  0  0
  -28.8810  -16.0560   19.8560 H   0  0  0  0  0  0  0  0  0  0  0  0
  -25.3090  -13.9910   20.4070 C   0  0  0  0  0  0  0  0  0  0  0  0
  -24.2350  -13.2310   20.7740 C   0  0  0  0  0  0  0  0  0  0  0  0
  -24.6910  -11.8770   20.7770 C   0  0  0  0  0  0  0  0  0  0  0  0
  -26.3480  -13.1010   20.1960 N   0  0  0  0  0  0  0  0  0  0  0  0
  -25.9860  -11.8260   20.4870 N   0  0  0  0  0  0  0  0  0  0  0  0
  -23.9530  -10.6230   20.9780 C   0  0  0  0  0  0  0  0  0  0  0  0
  -24.3590   -9.6730   21.9400 C   0  0  0  0  0  3  0  0  0  0  0  0
  -23.6190   -8.4850   22.1280 C   0  0  0  0  0  3  0  0  0  0  0  0
  -22.4610   -8.2400   21.3540 C   0  0  0  0  0  0  0  0  0  0  0  0
  -22.0740   -9.1790   20.3820 C   0  0  0  0  0  3  0  0  0  0  0  0
  -22.8140  -10.3570   20.1920 C   0  0  0  0  0  3  0  0  0  0  0  0
  -21.6960   -7.1020   21.4500 O   0  0  0  0  0  0  0  0  0  0  0  0
  -21.6140   -6.3870   22.6170 C   0  0  0  0  0  0  0  0  0  0  0  0
  -21.1540   -6.9700   23.8180 C   0  0  0  0  0  3  0  0  0  0  0  0
  -21.0190   -6.1800   24.9770 C   0  0  0  0  0  3  0  0  0  0  0  0
  -21.3350   -4.8080   24.9360 C   0  0  0  0  0  0  0  0  0  0  0  0
  -21.7910   -4.2260   23.7400 C   0  0  0  0  0  3  0  0  0  0  0  0
  -21.9250   -5.0120   22.5830 C   0  0  0  0  0  0  0  0  0  0  0  0
  -22.3430   -4.4420   21.4260 F   0  0  0  0  0  0  0  0  0  0  0  0
  -21.1990   -4.0470   26.0470 F   0  0  0  0  0  0  0  0  0  0  0  0
  -22.8370  -13.7230   21.0110 C   0  0  0  0  0  0  0  0  0  0  0  0
  -22.0940  -13.0520   21.8830 N   0  0  0  0  0  0  0  0  0  0  0  0
  -22.4150  -14.7380   20.4600 O   0  0  0  0  0  0  0  0  0  0  0  0
  -22.4490  -12.2310   22.3480 H   0  0  0  0  0  0  0  0  0  0  0  0
  -21.1570  -13.3660   22.0920 H   0  0  0  0  0  0  0  0  0  0  0  0
  -25.4820  -15.3590   20.2070 N   0  0  0  0  0  0  0  0  0  0  0  0
  -24.7110  -16.0110   20.2970 H   0  0  0  0  0  0  0  0  0  0  0  0
  -26.3280  -15.7920   19.8650 H   0  0  0  0  0  0  0  0  0  0  0  0
  -28.9210  -21.6690   19.8600 C   0  0  0  0  0  0  0  0  0  0  0  0
  -28.5370  -21.5350   18.6930 O   0  0  0  0  0  0  0  0  0  0  0  0
  -28.6750  -23.2260   20.4930 C   0  0  0  0  0  2  0  0  0  0  0  0
  -30.3230  -25.0010   19.6840 C   0  0  0  0  0  1  0  0  0  0  0  0
  -28.7950  -24.7740   19.7300 C   0  0  1  0  0  0  0  0  0  0  0  0
  -29.2310  -24.2920   17.1450 C   0  0  0  0  0  1  0  0  0  0  0  0
  -28.2640  -24.7390   18.2620 C   0  0  0  0  0  2  0  0  0  0  0  0
  -28.4890  -26.2160   20.3350 O   0  0  0  0  0  0  0  0  0  0  0  0
  -24.6520  -31.8700   23.1760 C   0  0  0  0  0  0  0  0  0  0  0  0
  -27.3810  -27.1530   20.2150 C   0  0  0  0  0  0  0  0  0  0  0  0
  -23.5210  -30.4550   21.5100 C   0  0  0  0  0  3  0  0  0  0  0  0
  -25.0270  -28.8920   20.1300 C   0  0  0  0  0  0  0  0  0  0  0  0
  -26.0770  -30.7450   21.4150 C   0  0  0  0  0  2  0  0  0  0  0  0
  -26.1860  -29.3510   20.7630 C   0  0  0  0  0  0  0  0  0  0  0  0
  -27.3590  -28.5000   20.7830 C   0  0  0  0  0  3  0  0  0  0  0  0
  -26.1720  -26.7890   19.5840 C   0  0  0  0  0  3  0  0  0  0  0  0
  -25.0330  -27.6250   19.5280 C   0  0  0  0  0  3  0  0  0  0  0  0
  -23.7930  -29.7800   20.1390 C   0  0  0  0  0  2  0  0  0  0  0  0
  -24.7700  -31.0460   22.0910 N   0  0  0  0  0  0  0  0  0  0  0  0
  -23.5460  -32.1430   23.6690 O   0  0  0  0  0  0  0  0  0  0  0  0
  -22.8280  -29.4400   22.4550 C   0  0  0  0  0  0  0  0  0  0  0  0
  -21.4970  -29.2910   22.3290 N   0  0  0  0  0  0  0  0  0  0  0  0
  -23.4910  -28.7890   23.2660 O   0  0  0  0  0  0  0  0  0  0  0  0
  -21.0170  -29.8700   21.6540 H   0  0  0  0  0  0  0  0  0  0  0  0
  -18.0920  -28.1650   22.8520 C   0  0  0  0  0  0  0  0  0  0  0  0
  -20.6620  -28.3520   23.0830 C   0  0  0  0  0  3  0  0  0  0  0  0
  -20.7170  -26.9360   22.4610 C   0  0  0  0  0  2  0  0  0  0  0  0
  -19.5920  -26.6750   21.4550 C   0  0  0  0  0  2  0  0  0  0  0  0
  -18.2240  -26.8350   22.1280 C   0  0  0  0  0  2  0  0  0  0  0  0
  -19.2370  -28.8840   23.2860 C   0  0  0  0  0  0  0  0  0  0  0  0
  -19.0620  -30.1310   23.9230 C   0  0  0  0  0  3  0  0  0  0  0  0
  -17.7740  -30.6570   24.1330 C   0  0  0  0  0  3  0  0  0  0  0  0
  -16.6420  -29.9350   23.7160 C   0  0  0  0  0  3  0  0  0  0  0  0
  -16.8020  -28.6910   23.0790 C   0  0  0  0  0  3  0  0  0  0  0  0
  -25.8990  -32.5290   23.8410 C   0  0  0  0  0  3  0  0  0  0  0  0
  -26.3750  -31.7790   25.1460 C   0  0  1  0  0  0  0  0  0  0  0  0
  -25.2470  -31.5460   26.1770 C   0  0  0  0  0  1  0  0  0  0  0  0
  -26.9800  -30.4030   24.7920 C   0  0  0  0  0  1  0  0  0  0  0  0
  -27.4940  -32.5920   25.8370 C   0  0  0  0  0  1  0  0  0  0  0  0
  -25.5590  -33.9270   24.1530 N   0  0  0  0  0  0  0  0  0  0  0  0
  -25.9050  -34.9860   23.4080 C   0  0  0  0  0  0  0  0  0  0  0  0
  -26.6080  -34.8890   22.4000 O   0  0  0  0  0  0  0  0  0  0  0  0
  -24.9410  -34.0780   24.9360 H   0  0  0  0  0  0  0  0  0  0  0  0
  -24.1750  -36.7670   22.9970 C   0  0  0  0  0  1  0  0  0  0  0  0
  -25.3890  -36.3710   23.8510 C   0  0  0  0  0  3  0  0  0  0  0  0
  -27.4840  -37.2780   24.7550 C   0  0  0  0  0  1  0  0  0  0  0  0
  -26.4160  -37.4340   23.7730 N   0  0  0  0  0  0  0  0  0  0  0  0
  -25.9940  -38.3490   23.9090 H   0  0  0  0  0  0  0  0  0  0  0  0
  2  7  1  0
  3  4  1  0
  3  2  1  0
  5  4  1  0
  5 24  1  0
  5  6  1  0
  7  1  1  0
  7  6  1  0
  8  1  2  0
  9 10  1  0
 10 14  1  0
 11 10  2  0
 11 17  1  0
 12 11  1  0
 13  9  2  0
 14 15  2  0
 16 12  2  0
 16 13  1  0
 17 15  1  0
 18  1  1  0
 18 13  1  0
 19 17  1  0
 20 18  1  0
 21 22  2  0
 22 23  1  0
 22 41  1  0
 23 26  1  0
 24 21  1  0
 24 25  1  0
 25 23  2  0
 26 27  1  0
 27 28  2  0
 29 32  1  0
 29 28  1  0
 30 29  2  0
 31 30  1  0
 31 26  2  0
 32 33  1  0
 33 34  1  0
 34 35  2  0
 36 35  1  0
 36 40  1  0
 37 36  2  0
 38 33  2  0
 38 37  1  0
 39 38  1  0
 41 42  1  0
 42 45  1  0
 42 44  1  0
 43 41  2  0
 46 47  1  0
 46 21  1  0
 48 46  1  0
 49 51  1  0
 49 12  1  0
 50 49  2  0
 53 52  1  6
 53 56  1  0
 53 51  1  0
 54 55  1  0
 55 53  1  0
 57 68  2  0
 58 56  1  0
 58 63  1  0
 59 67  1  0
 59 69  1  0
 60 66  1  0
 60 62  1  0
 61 67  1  0
 62 63  2  0
 62 61  1  0
 64 58  2  0
 65 64  1  0
 65 60  2  0
 66 59  1  0
 67 57  1  0
 69 71  2  0
 70 69  1  0
 72 70  1  0
 73 82  2  0
 73 78  1  0
 74 70  1  0
 74 78  1  0
 75 74  1  0
 76 77  1  0
 76 75  1  0
 77 73  1  0
 78 79  2  0
 79 80  1  0
 81 80  2  0
 82 81  1  0
 83 57  1  0
 83 88  1  0
 83 84  1  0
 84 87  1  1
 84 85  1  0
 86 84  1  0
 88 91  1  0
 89 93  1  0
 89 88  1  0
 90 89  2  0
 93 92  1  0
 95 93  1  0
 95 96  1  0
 95 94  1  0
M  ISO  4   1 100  18 100  53 101  56 101
M  END
>  <TORSDO>  (70) 
F 19

>  <SCORE>  (70) 
-14.967

>  <name>  (70) 
69

>  <ligand_id>  (70) 
69

>  <original_smiles>  (70) 
[H]c1c([H])c([H])c2c(c1[H])C([H])([H])C([H])([H])C([H])([H])C2([H])N([H])C(=O)C1([H])N(C(=O)C([H])(N([H])C(=O)C([H])(N([H])C([H])([H])[H])C([H])([H])[H])C(C([H])([H])[H])(C([H])([H])[H])C([H])([H])[H])C([H])([H])c2c([H])c(OC(C([H])([H])[H])(C([H])([H])C(=O)c3nc(N([H])C(=O)N4C([H])([H])C([H])([H])C([H])([H])C([H])(n5nc(-c6c([H])c([H])c(Oc7c([H])c([H])c(F)c([H])c7F)c([H])c6[H])c(C(=O)N([H])[H])c5N([H])[H])C4([H])[H])c([H])c4c3N([H])C([H])([H])C4([H])[H])C([H])([H])C([H])([H])[H])c([H])c([H])c2C1([H])[H]

>  <smiles>  (70) 
[H]c1c([H])c([H])c2c(c1[H])C([H])([H])C([H])([H])C([H])([H])C2([H])N([H])C(=O)C1([H])N(C(=O)C([H])(N([H])C(=O)C([H])(N([H])C([H])([H])[H])C([H])([H])[H])C(C([H])([H])[H])(C([H])([H])[H])C([H])([H])[H])C([H])([H])c2c([H])c(OC(C([H])([H])[H])(C([H])([H])C(=O)c3nc(N([H])C(=O)N4C([H])([H])C([H])([H])C([H])([H])C([H])(n5nc(-c6c([H])c([H])c(Oc7c([H])c([H])c(F)c([H])c7F)c([H])c6[H])c(C(=O)N([H])[H])c5N([H])[H])C4([H])[H])c([H])c4c3N([H])C([H])([H])C4([H])[H])C([H])([H])C([H])([H])[H])c([H])c([H])c2C1([H])[H]

$$$$
70:0:0
     RDKit          3D

 93101  0  0  1  0  0  0  0  0999 V2000
  -28.3780  -23.6360   20.4670 C   0  0  0  0  0  3  0  0  0  0  0  0
  -26.9690  -23.4040   20.8580 N   0  0  0  0  0  4  0  0  0  0  0  0
  -26.3990  -23.2110   20.0520 H   0  0  0  0  0  0  0  0  0  0  0  0
  -26.6020  -24.2150   21.3230 H   0  0  0  0  0  0  0  0  0  0  0  0
  -26.8860  -22.6310   21.4950 H   0  0  0  0  0  0  0  0  0  0  0  0
  -28.9540  -22.3120   19.7280 C   0  0  0  0  0  0  0  0  0  0  0  0
  -29.3590  -22.4310   18.5340 N   0  0  0  0  0  2  0  0  0  0  0  0
  -29.6920  -21.5280   18.2040 H   0  0  0  0  0  0  0  0  0  0  0  0
  -29.0530  -20.8600   20.3850 C   0  0  0  0  0  3  0  0  0  0  0  0
  -29.5660  -19.7900   19.8020 N   0  0  0  0  0  2  0  0  0  0  0  0
  -30.6220  -14.7980   20.0570 C   0  0  0  0  0  0  0  0  0  0  0  0
  -30.3690  -12.5140   19.0940 C   0  0  0  0  0  2  0  0  0  0  0  0
  -29.4010  -12.6090   17.8920 C   0  0  0  0  0  2  0  0  0  0  0  0
  -27.9420  -12.4400   18.3590 C   0  0  0  0  0  2  0  0  0  0  0  0
  -27.6090  -13.3130   19.5970 C   0  0  0  0  0  3  0  0  0  0  0  0
  -28.7020  -13.2160   20.6830 C   0  0  0  0  0  2  0  0  0  0  0  0
  -29.9860  -13.5690   20.0700 N   0  0  0  0  0  0  0  0  0  0  0  0
  -31.7890  -14.8650   19.6450 O   0  0  0  0  0  0  0  0  0  0  0  0
  -30.4890  -17.4160   19.9020 C   0  0  0  0  0  2  0  0  0  0  0  0
  -29.5610  -18.3980   20.2280 C   0  0  0  0  0  0  0  0  0  0  0  0
  -28.5130  -17.7220   20.8590 N   0  0  0  0  0  0  0  0  0  0  0  0
  -28.7580  -16.4180   20.8920 N   0  0  0  0  0  2  0  0  0  0  0  0
  -29.9690  -16.1570   20.3100 N   0  0  0  0  0  0  0  0  0  0  0  0
  -25.2510  -13.8910   20.4210 C   0  0  0  0  0  0  0  0  0  0  0  0
  -24.2000  -13.1110   20.8190 C   0  0  0  0  0  0  0  0  0  0  0  0
  -24.6620  -11.7610   20.7550 C   0  0  0  0  0  0  0  0  0  0  0  0
  -26.2840  -13.0150   20.1330 N   0  0  0  0  0  0  0  0  0  0  0  0
  -25.9410  -11.7290   20.3980 N   0  0  0  0  0  0  0  0  0  0  0  0
  -23.9430  -10.4960   20.9570 C   0  0  0  0  0  0  0  0  0  0  0  0
  -24.3870   -9.5320   21.8890 C   0  0  0  0  0  3  0  0  0  0  0  0
  -23.6670   -8.3330   22.0780 C   0  0  0  0  0  3  0  0  0  0  0  0
  -22.4870   -8.0890   21.3350 C   0  0  0  0  0  0  0  0  0  0  0  0
  -22.0600   -9.0430   20.3930 C   0  0  0  0  0  3  0  0  0  0  0  0
  -22.7820  -10.2330   20.2020 C   0  0  0  0  0  3  0  0  0  0  0  0
  -21.7360   -6.9430   21.4340 O   0  0  0  0  0  0  0  0  0  0  0  0
  -21.6790   -6.2180   22.5970 C   0  0  0  0  0  0  0  0  0  0  0  0
  -21.2300   -6.7870   23.8090 C   0  0  0  0  0  3  0  0  0  0  0  0
  -21.1210   -5.9870   24.9640 C   0  0  0  0  0  3  0  0  0  0  0  0
  -21.4500   -4.6190   24.9090 C   0  0  0  0  0  0  0  0  0  0  0  0
  -21.8930   -4.0500   23.7020 C   0  0  0  0  0  3  0  0  0  0  0  0
  -22.0030   -4.8460   22.5490 C   0  0  0  0  0  0  0  0  0  0  0  0
  -22.4100   -4.2880   21.3830 F   0  0  0  0  0  0  0  0  0  0  0  0
  -21.3390   -3.8500   26.0170 F   0  0  0  0  0  0  0  0  0  0  0  0
  -22.8140  -13.5840   21.1480 C   0  0  0  0  0  0  0  0  0  0  0  0
  -22.1180  -12.8790   22.0320 N   0  0  0  0  0  0  0  0  0  0  0  0
  -22.3580  -14.6160   20.6550 O   0  0  0  0  0  0  0  0  0  0  0  0
  -22.5000  -12.0450   22.4520 H   0  0  0  0  0  0  0  0  0  0  0  0
  -21.1900  -13.1800   22.2950 H   0  0  0  0  0  0  0  0  0  0  0  0
  -25.4080  -15.2640   20.2570 N   0  0  0  0  0  0  0  0  0  0  0  0
  -24.6510  -15.9180   20.4240 H   0  0  0  0  0  0  0  0  0  0  0  0
  -26.2590  -15.7180   19.9490 H   0  0  0  0  0  0  0  0  0  0  0  0
  -28.4550  -25.0550   19.6530 C   0  0  0  0  0  2  0  0  0  0  0  0
  -28.3280  -26.4270   20.2740 O   0  0  0  0  0  0  0  0  0  0  0  0
  -24.5910  -31.8800   23.2380 C   0  0  0  0  0  0  0  0  0  0  0  0
  -27.2030  -27.2810   20.1780 C   0  0  0  0  0  0  0  0  0  0  0  0
  -23.3910  -30.4830   21.5920 C   0  0  0  0  0  3  0  0  0  0  0  0
  -24.8430  -28.9290   20.1620 C   0  0  0  0  0  0  0  0  0  0  0  0
  -25.9330  -30.7890   21.4170 C   0  0  0  0  0  2  0  0  0  0  0  0
  -26.0110  -29.4080   20.7650 C   0  0  0  0  0  0  0  0  0  0  0  0
  -27.1880  -28.5950   20.7640 C   0  0  0  0  0  3  0  0  0  0  0  0
  -26.0080  -26.8670   19.5480 C   0  0  0  0  0  3  0  0  0  0  0  0
  -24.8460  -27.6690   19.5440 C   0  0  0  0  0  3  0  0  0  0  0  0
  -23.6080  -29.8090   20.2110 C   0  0  0  0  0  2  0  0  0  0  0  0
  -24.6570  -31.0700   22.1390 N   0  0  0  0  0  0  0  0  0  0  0  0
  -23.5070  -32.1570   23.7700 O   0  0  0  0  0  0  0  0  0  0  0  0
  -22.7240  -29.4680   22.5520 C   0  0  0  0  0  0  0  0  0  0  0  0
  -21.3970  -29.2950   22.4270 N   0  0  0  0  0  0  0  0  0  0  0  0
  -23.4010  -28.8370   23.3680 O   0  0  0  0  0  0  0  0  0  0  0  0
  -20.9100  -29.8550   21.7420 H   0  0  0  0  0  0  0  0  0  0  0  0
  -18.0150  -28.1120   22.9380 C   0  0  0  0  0  0  0  0  0  0  0  0
  -20.5770  -28.3570   23.1950 C   0  0  0  0  0  3  0  0  0  0  0  0
  -20.6670  -26.9280   22.6090 C   0  0  0  0  0  2  0  0  0  0  0  0
  -19.5580  -26.6200   21.5980 C   0  0  0  0  0  2  0  0  0  0  0  0
  -18.1810  -26.7680   22.2510 C   0  0  0  0  0  2  0  0  0  0  0  0
  -19.1410  -28.8660   23.3670 C   0  0  0  0  0  0  0  0  0  0  0  0
  -18.9320  -30.1250   23.9710 C   0  0  0  0  0  3  0  0  0  0  0  0
  -17.6300  -30.6300   24.1490 C   0  0  0  0  0  3  0  0  0  0  0  0
  -16.5190  -29.8750   23.7350 C   0  0  0  0  0  3  0  0  0  0  0  0
  -16.7130  -28.6180   23.1360 C   0  0  0  0  0  3  0  0  0  0  0  0
  -25.8720  -32.5120   23.8640 C   0  0  0  0  0  3  0  0  0  0  0  0
  -26.3840  -31.7420   25.1430 C   0  0  1  0  0  0  0  0  0  0  0  0
  -25.2870  -31.5060   26.2080 C   0  0  0  0  0  1  0  0  0  0  0  0
  -26.9670  -30.3640   24.7580 C   0  0  0  0  0  1  0  0  0  0  0  0
  -27.5320  -32.5370   25.8090 C   0  0  0  0  0  1  0  0  0  0  0  0
  -25.5620  -33.9110   24.1950 N   0  0  0  0  0  0  0  0  0  0  0  0
  -25.8940  -34.9660   23.4400 C   0  0  0  0  0  0  0  0  0  0  0  0
  -26.5640  -34.8640   22.4090 O   0  0  0  0  0  0  0  0  0  0  0  0
  -24.9680  -34.0640   24.9970 H   0  0  0  0  0  0  0  0  0  0  0  0
  -24.1710  -36.7640   23.0850 C   0  0  0  0  0  1  0  0  0  0  0  0
  -25.4090  -36.3540   23.9000 C   0  0  0  0  0  3  0  0  0  0  0  0
  -27.5400  -37.2330   24.7450 C   0  0  0  0  0  1  0  0  0  0  0  0
  -26.4440  -37.4050   23.7950 N   0  0  0  0  0  0  0  0  0  0  0  0
  -26.0380  -38.3260   23.9410 H   0  0  0  0  0  0  0  0  0  0  0  0
  1 52  1  0
  1  2  1  0
  2  4  1  0
  2  5  1  0
  3  2  1  0
  6  9  2  0
  6  1  1  0
  7  6  1  0
  8  7  1  0
 10 20  1  0
 10  9  1  0
 11 17  1  0
 11 23  1  0
 12 17  1  0
 13 14  1  0
 13 12  1  0
 15 14  1  0
 15 27  1  0
 15 16  1  0
 17 16  1  0
 18 11  2  0
 19 20  1  0
 19 23  1  0
 20 21  2  0
 21 22  1  0
 23 22  1  0
 24 25  2  0
 25 44  1  0
 26 25  1  0
 26 29  1  0
 27 28  1  0
 27 24  1  0
 28 26  2  0
 29 30  1  0
 30 31  2  0
 32 35  1  0
 32 31  1  0
 33 32  2  0
 34 33  1  0
 34 29  2  0
 35 36  1  0
 36 37  1  0
 37 38  2  0
 39 38  1  0
 39 43  1  0
 40 39  2  0
 41 36  2  0
 41 40  1  0
 42 41  1  0
 44 45  1  0
 45 48  1  0
 45 47  1  0
 46 44  2  0
 49 24  1  0
 49 50  1  0
 51 49  1  0
 52 53  1  0
 54 65  2  0
 55 53  1  0
 55 60  1  0
 56 64  1  0
 56 66  1  0
 57 63  1  0
 57 59  1  0
 58 64  1  0
 59 58  1  0
 60 59  2  0
 61 55  2  0
 62 61  1  0
 62 57  2  0
 63 56  1  0
 64 54  1  0
 66 68  2  0
 67 66  1  0
 69 67  1  0
 70 79  2  0
 70 75  1  0
 71 67  1  0
 71 75  1  0
 72 71  1  0
 73 74  1  0
 73 72  1  0
 74 70  1  0
 75 76  2  0
 76 77  1  0
 78 77  2  0
 79 78  1  0
 80 54  1  0
 80 85  1  0
 80 81  1  0
 81 84  1  1
 81 82  1  0
 83 81  1  0
 85 88  1  0
 86 90  1  0
 86 85  1  0
 87 86  2  0
 90 89  1  0
 92 90  1  0
 92 93  1  0
 92 91  1  0
M  ISO  4  11 100  23 100  52 101  53 101
M  END
>  <TORSDO>  (71) 
F 20

>  <SCORE>  (71) 
-14.019

>  <name>  (71) 
70

>  <ligand_id>  (71) 
70

>  <original_smiles>  (71) 
[H]N=C(C([H])=Nc1nnn(C(=O)N2C([H])([H])C([H])([H])C([H])([H])C([H])(n3nc(-c4c([H])c([H])c(Oc5c([H])c([H])c(F)c([H])c5F)c([H])c4[H])c(C(=O)N([H])[H])c3N([H])[H])C2([H])[H])c1[H])C([H])(C([H])([H])Oc1c([H])c([H])c2c(c1[H])C([H])([H])N(C(=O)C([H])(N([H])C(=O)C([H])(N([H])C([H])([H])[H])C([H])([H])[H])C(C([H])([H])[H])(C([H])([H])[H])C([H])([H])[H])C([H])(C(=O)N([H])C1([H])c3c([H])c([H])c([H])c([H])c3C([H])([H])C([H])([H])C1([H])[H])C2([H])[H])[N+]([H])([H])[H]

>  <smiles>  (71) 
[H]N=C(C([H])=Nc1nnn(C(=O)N2C([H])([H])C([H])([H])C([H])([H])C([H])(n3nc(-c4c([H])c([H])c(Oc5c([H])c([H])c(F)c([H])c5F)c([H])c4[H])c(C(=O)N([H])[H])c3N([H])[H])C2([H])[H])c1[H])C([H])(C([H])([H])Oc1c([H])c([H])c2c(c1[H])C([H])([H])N(C(=O)C([H])(N([H])C(=O)C([H])(N([H])C([H])([H])[H])C([H])([H])[H])C(C([H])([H])[H])(C([H])([H])[H])C([H])([H])[H])C([H])(C(=O)N([H])C1([H])c3c([H])c([H])c([H])c([H])c3C([H])([H])C([H])([H])C1([H])[H])C2([H])[H])[N+]([H])([H])[H]

$$$$
72:0:0
     RDKit          3D

 97105  0  0  1  0  0  0  0  0999 V2000
  -28.9540  -21.2830   20.8070 C   0  0  0  0  0  0  0  0  0  0  0  0
  -28.3770  -23.8410   20.4820 C   0  0  0  0  0  0  0  0  0  0  0  0
  -29.8080  -22.5370   18.8400 C   0  0  0  0  0  1  0  0  0  0  0  0
  -29.0310  -22.5140   20.0970 N   0  0  0  0  0  0  0  0  0  0  0  0
  -28.0390  -21.1830   21.7930 N   0  0  0  0  0  4  0  0  0  0  0  0
  -27.7220  -23.9130   21.5350 O   0  0  0  0  0  0  0  0  0  0  0  0
  -27.9390  -20.3600   22.3660 H   0  0  0  0  0  0  0  0  0  0  0  0
  -27.4980  -22.0040   22.0560 H   0  0  0  0  0  0  0  0  0  0  0  0
  -29.3860  -18.6230   20.5700 C   0  0  0  0  0  3  0  0  0  0  0  0
  -31.6640  -17.8470   20.5590 C   0  0  0  0  0  3  0  0  0  0  0  0
  -29.8400  -20.0120   20.6390 C   0  0  0  0  0  0  0  0  0  0  0  0
  -30.2980  -17.4800   20.5430 C   0  0  0  0  0  0  0  0  0  0  0  0
  -31.2490  -20.1370   20.7000 C   0  0  0  0  0  0  0  0  0  0  0  0
  -32.1160  -19.1160   20.6250 N   0  0  0  0  0  0  0  0  0  0  0  0
  -31.8800  -21.3510   20.9160 N   0  0  0  0  0  0  0  0  0  0  0  0
  -31.4230  -22.0000   21.5420 H   0  0  0  0  0  0  0  0  0  0  0  0
  -32.8670  -21.2770   21.1270 H   0  0  0  0  0  0  0  0  0  0  0  0
  -30.6410  -14.8850   20.2230 C   0  0  0  0  0  0  0  0  0  0  0  0
  -30.3920  -12.6480   19.1300 C   0  0  0  0  0  2  0  0  0  0  0  0
  -29.4180  -12.7590   17.9360 C   0  0  0  0  0  2  0  0  0  0  0  0
  -27.9640  -12.5630   18.4070 C   0  0  0  0  0  2  0  0  0  0  0  0
  -27.6270  -13.4090   19.6630 C   0  0  0  0  0  3  0  0  0  0  0  0
  -28.7210  -13.2930   20.7490 C   0  0  0  0  0  2  0  0  0  0  0  0
  -29.9940  -13.6720   20.1270 N   0  0  0  0  0  0  0  0  0  0  0  0
  -31.8120  -14.9590   19.8430 O   0  0  0  0  0  0  0  0  0  0  0  0
  -29.9070  -16.0310   20.5360 N   0  0  0  0  0  0  0  0  0  0  0  0
  -28.9420  -15.8410   20.7610 H   0  0  0  0  0  0  0  0  0  0  0  0
  -25.2530  -13.9630   20.4560 C   0  0  0  0  0  0  0  0  0  0  0  0
  -24.2080  -13.1710   20.8480 C   0  0  0  0  0  0  0  0  0  0  0  0
  -24.6870  -11.8270   20.7950 C   0  0  0  0  0  0  0  0  0  0  0  0
  -26.3020  -13.0990   20.1860 N   0  0  0  0  0  0  0  0  0  0  0  0
  -25.9700  -11.8100   20.4530 N   0  0  0  0  0  0  0  0  0  0  0  0
  -23.9820  -10.5530   20.9910 C   0  0  0  0  0  0  0  0  0  0  0  0
  -24.4340   -9.5950   21.9240 C   0  0  0  0  0  3  0  0  0  0  0  0
  -23.7270   -8.3860   22.1080 C   0  0  0  0  0  3  0  0  0  0  0  0
  -22.5540   -8.1280   21.3580 C   0  0  0  0  0  0  0  0  0  0  0  0
  -22.1230   -9.0760   20.4130 C   0  0  0  0  0  3  0  0  0  0  0  0
  -22.8310  -10.2760   20.2260 C   0  0  0  0  0  3  0  0  0  0  0  0
  -21.8170   -6.9720   21.4520 O   0  0  0  0  0  0  0  0  0  0  0  0
  -21.7670   -6.2440   22.6140 C   0  0  0  0  0  0  0  0  0  0  0  0
  -21.2940   -6.7990   23.8220 C   0  0  0  0  0  3  0  0  0  0  0  0
  -21.1930   -5.9950   24.9740 C   0  0  0  0  0  3  0  0  0  0  0  0
  -21.5560   -4.6350   24.9190 C   0  0  0  0  0  0  0  0  0  0  0  0
  -22.0230   -4.0800   23.7150 C   0  0  0  0  0  3  0  0  0  0  0  0
  -22.1250   -4.8810   22.5650 C   0  0  0  0  0  0  0  0  0  0  0  0
  -22.5560   -4.3350   21.4020 F   0  0  0  0  0  0  0  0  0  0  0  0
  -21.4520   -3.8610   26.0240 F   0  0  0  0  0  0  0  0  0  0  0  0
  -22.8120  -13.6270   21.1570 C   0  0  0  0  0  0  0  0  0  0  0  0
  -22.1110  -12.9100   22.0270 N   0  0  0  0  0  0  0  0  0  0  0  0
  -22.3510  -14.6560   20.6610 O   0  0  0  0  0  0  0  0  0  0  0  0
  -22.4950  -12.0770   22.4500 H   0  0  0  0  0  0  0  0  0  0  0  0
  -21.1750  -13.1980   22.2760 H   0  0  0  0  0  0  0  0  0  0  0  0
  -25.3960  -15.3370   20.2830 N   0  0  0  0  0  0  0  0  0  0  0  0
  -24.6220  -15.9810   20.4060 H   0  0  0  0  0  0  0  0  0  0  0  0
  -26.2170  -15.7810   19.8940 H   0  0  0  0  0  0  0  0  0  0  0  0
  -28.4860  -25.1480   19.5480 C   0  0  0  0  0  2  0  0  0  0  0  0
  -28.3700  -26.5190   20.1640 O   0  0  0  0  0  0  0  0  0  0  0  0
  -24.6330  -31.9100   23.2060 C   0  0  0  0  0  0  0  0  0  0  0  0
  -27.2340  -27.3580   20.0880 C   0  0  0  0  0  0  0  0  0  0  0  0
  -23.4210  -30.5190   21.5660 C   0  0  0  0  0  3  0  0  0  0  0  0
  -24.8620  -28.9850   20.1070 C   0  0  0  0  0  0  0  0  0  0  0  0
  -25.9570  -30.8450   21.3590 C   0  0  0  0  0  2  0  0  0  0  0  0
  -26.0350  -29.4700   20.6970 C   0  0  0  0  0  0  0  0  0  0  0  0
  -27.2170  -28.6670   20.6790 C   0  0  0  0  0  3  0  0  0  0  0  0
  -26.0320  -26.9300   19.4810 C   0  0  0  0  0  3  0  0  0  0  0  0
  -24.8660  -27.7240   19.4890 C   0  0  0  0  0  3  0  0  0  0  0  0
  -23.6230  -29.8580   20.1750 C   0  0  0  0  0  2  0  0  0  0  0  0
  -24.6900  -31.1090   22.1000 N   0  0  0  0  0  0  0  0  0  0  0  0
  -23.5530  -32.1750   23.7550 O   0  0  0  0  0  0  0  0  0  0  0  0
  -22.7710  -29.4910   22.5270 C   0  0  0  0  0  0  0  0  0  0  0  0
  -21.4440  -29.3090   22.4160 N   0  0  0  0  0  0  0  0  0  0  0  0
  -23.4610  -28.8620   23.3330 O   0  0  0  0  0  0  0  0  0  0  0  0
  -20.9440  -29.8710   21.7410 H   0  0  0  0  0  0  0  0  0  0  0  0
  -18.0800  -28.0870   22.9450 C   0  0  0  0  0  0  0  0  0  0  0  0
  -20.6400  -28.3600   23.1880 C   0  0  0  0  0  3  0  0  0  0  0  0
  -20.7430  -26.9330   22.5990 C   0  0  0  0  0  2  0  0  0  0  0  0
  -19.6310  -26.6140   21.5940 C   0  0  0  0  0  2  0  0  0  0  0  0
  -18.2560  -26.7460   22.2560 C   0  0  0  0  0  2  0  0  0  0  0  0
  -19.1990  -28.8520   23.3700 C   0  0  0  0  0  0  0  0  0  0  0  0
  -18.9800  -30.1070   23.9780 C   0  0  0  0  0  3  0  0  0  0  0  0
  -17.6730  -30.5990   24.1650 C   0  0  0  0  0  3  0  0  0  0  0  0
  -16.5690  -29.8310   23.7570 C   0  0  0  0  0  3  0  0  0  0  0  0
  -16.7740  -28.5780   23.1540 C   0  0  0  0  0  3  0  0  0  0  0  0
  -25.9170  -32.5480   23.8200 C   0  0  0  0  0  3  0  0  0  0  0  0
  -25.6050  -33.9460   24.1550 N   0  0  0  0  0  0  0  0  0  0  0  0
  -25.9280  -35.0020   23.3970 C   0  0  0  0  0  0  0  0  0  0  0  0
  -26.5910  -34.9030   22.3600 O   0  0  0  0  0  0  0  0  0  0  0  0
  -25.0170  -34.0990   24.9620 H   0  0  0  0  0  0  0  0  0  0  0  0
  -24.2040  -36.8010   23.0510 C   0  0  0  0  0  1  0  0  0  0  0  0
  -25.4420  -36.3890   23.8620 C   0  0  0  0  0  3  0  0  0  0  0  0
  -27.5740  -37.2710   24.7030 C   0  0  0  0  0  1  0  0  0  0  0  0
  -26.4760  -37.4420   23.7540 N   0  0  0  0  0  0  0  0  0  0  0  0
  -26.0710  -38.3630   23.9010 H   0  0  0  0  0  0  0  0  0  0  0  0
  -26.4420  -31.7800   25.0950 C   0  0  1  0  0  0  0  0  0  0  0  0
  -25.3570  -31.5410   26.1710 C   0  0  0  0  0  1  0  0  0  0  0  0
  -27.0270  -30.4030   24.7010 C   0  0  0  0  0  1  0  0  0  0  0  0
  -27.5930  -32.5780   25.7500 C   0  0  0  0  0  1  0  0  0  0  0  0
  1  5  2  0
  2  6  2  0
  3  4  1  0
  4  2  1  0
  4  1  1  0
  5  8  1  0
  5  7  1  0
  9 11  1  0
 10 14  2  0
 11 13  2  0
 11  1  1  0
 12 10  1  0
 12  9  2  0
 13 15  1  0
 14 13  1  0
 15 17  1  0
 15 16  1  0
 18 26  1  0
 19 24  1  0
 20 21  1  0
 20 19  1  0
 22 21  1  0
 22 31  1  0
 22 23  1  0
 24 18  1  0
 24 23  1  0
 25 18  2  0
 26 12  1  0
 26 27  1  0
 28 29  2  0
 29 48  1  0
 30 29  1  0
 30 33  1  0
 31 32  1  0
 31 28  1  0
 32 30  2  0
 33 34  1  0
 34 35  2  0
 36 39  1  0
 36 35  1  0
 37 36  2  0
 38 37  1  0
 38 33  2  0
 39 40  1  0
 40 41  1  0
 41 42  2  0
 43 42  1  0
 43 47  1  0
 44 43  2  0
 45 40  2  0
 45 44  1  0
 46 45  1  0
 48 49  1  0
 49 52  1  0
 49 51  1  0
 50 48  2  0
 53 54  1  0
 53 28  1  0
 55 53  1  0
 56 57  1  0
 56  2  1  0
 58 69  2  0
 59 57  1  0
 59 64  1  0
 60 68  1  0
 60 70  1  0
 61 67  1  0
 61 63  1  0
 62 68  1  0
 63 62  1  0
 64 63  2  0
 65 66  1  0
 65 59  2  0
 66 61  2  0
 67 60  1  0
 68 58  1  0
 70 72  2  0
 71 70  1  0
 73 71  1  0
 74 83  2  0
 74 79  1  0
 75 71  1  0
 75 79  1  0
 76 75  1  0
 77 78  1  0
 77 76  1  0
 78 74  1  0
 79 80  2  0
 80 81  1  0
 82 81  2  0
 83 82  1  0
 84 58  1  0
 84 85  1  0
 84 94  1  0
 85 88  1  0
 86 90  1  0
 86 85  1  0
 87 86  2  0
 90 89  1  0
 92 90  1  0
 92 93  1  0
 92 91  1  0
 94 97  1  1
 94 95  1  0
 96 94  1  0
M  ISO  4  18 100  26 100  56 101  57 101
M  END
>  <TORSDO>  (72) 
F 18

>  <SCORE>  (72) 
-14.870

>  <name>  (72) 
72

>  <ligand_id>  (72) 
72

>  <original_smiles>  (72) 
[H]c1nc(N([H])[H])c(C(N(C(=O)C([H])([H])Oc2c([H])c([H])c3c(c2[H])C([H])([H])N(C(=O)C([H])(N([H])C(=O)C([H])(N([H])C([H])([H])[H])C([H])([H])[H])C(C([H])([H])[H])(C([H])([H])[H])C([H])([H])[H])C([H])(C(=O)N([H])C2([H])c4c([H])c([H])c([H])c([H])c4C([H])([H])C([H])([H])C2([H])[H])C3([H])[H])C([H])([H])[H])=[N+]([H])[H])c([H])c1N([H])C(=O)N1C([H])([H])C([H])([H])C([H])([H])C([H])(n2nc(-c3c([H])c([H])c(Oc4c([H])c([H])c(F)c([H])c4F)c([H])c3[H])c(C(=O)N([H])[H])c2N([H])[H])C1([H])[H]

>  <smiles>  (72) 
[H]c1nc(N([H])[H])c(C(N(C(=O)C([H])([H])Oc2c([H])c([H])c3c(c2[H])C([H])([H])N(C(=O)C([H])(N([H])C(=O)C([H])(N([H])C([H])([H])[H])C([H])([H])[H])C(C([H])([H])[H])(C([H])([H])[H])C([H])([H])[H])C([H])(C(=O)N([H])C2([H])c4c([H])c([H])c([H])c([H])c4C([H])([H])C([H])([H])C2([H])[H])C3([H])[H])C([H])([H])[H])=[N+]([H])[H])c([H])c1N([H])C(=O)N1C([H])([H])C([H])([H])C([H])([H])C([H])(n2nc(-c3c([H])c([H])c(Oc4c([H])c([H])c(F)c([H])c4F)c([H])c3[H])c(C(=O)N([H])[H])c2N([H])[H])C1([H])[H]

$$$$
73:0:0
     RDKit          3D

 92100  0  0  1  0  0  0  0  0999 V2000
  -29.6820  -20.1610   21.2770 C   0  0  0  0  0  3  0  0  0  0  0  0
  -29.1460  -20.8860   19.1180 C   0  0  0  0  0  3  0  0  0  0  0  0
  -29.2670  -21.2750   20.4310 C   0  0  0  0  0  0  0  0  0  0  0  0
  -29.9320  -18.9620   20.5940 C   0  0  0  0  0  0  0  0  0  0  0  0
  -29.5700  -19.1860   18.8960 S   0  0  0  0  0  0  0  0  0  0  0  0
  -29.0870  -23.8420   20.3050 C   0  0  0  0  0  0  0  0  0  0  0  0
  -28.8780  -22.6140   20.8920 N   0  0  0  0  0  0  0  0  0  0  0  0
  -30.1060  -24.0800   19.6510 O   0  0  0  0  0  0  0  0  0  0  0  0
  -28.2170  -22.6220   21.6590 H   0  0  0  0  0  0  0  0  0  0  0  0
  -27.9660  -24.9520   20.4170 C   0  0  0  0  0  2  0  0  0  0  0  0
  -28.3200  -26.4030   20.3690 O   0  0  0  0  0  0  0  0  0  0  0  0
  -24.6110  -31.9260   23.2470 C   0  0  0  0  0  0  0  0  0  0  0  0
  -27.2270  -27.2930   20.2920 C   0  0  0  0  0  0  0  0  0  0  0  0
  -23.4170  -30.4990   21.6310 C   0  0  0  0  0  3  0  0  0  0  0  0
  -24.8710  -28.9330   20.2370 C   0  0  0  0  0  0  0  0  0  0  0  0
  -25.9630  -30.8080   21.4570 C   0  0  0  0  0  2  0  0  0  0  0  0
  -26.0410  -29.4190   20.8330 C   0  0  0  0  0  0  0  0  0  0  0  0
  -27.2250  -28.6150   20.8470 C   0  0  0  0  0  3  0  0  0  0  0  0
  -26.0260  -26.8760   19.6630 C   0  0  0  0  0  3  0  0  0  0  0  0
  -24.8670  -27.6650   19.6450 C   0  0  0  0  0  3  0  0  0  0  0  0
  -23.6380  -29.8080   20.2630 C   0  0  0  0  0  2  0  0  0  0  0  0
  -24.6820  -31.0970   22.1660 N   0  0  0  0  0  0  0  0  0  0  0  0
  -23.5240  -32.2120   23.7680 O   0  0  0  0  0  0  0  0  0  0  0  0
  -22.7500  -29.4970   22.6040 C   0  0  0  0  0  0  0  0  0  0  0  0
  -21.4280  -29.3010   22.4620 N   0  0  0  0  0  0  0  0  0  0  0  0
  -23.4220  -28.8980   23.4480 O   0  0  0  0  0  0  0  0  0  0  0  0
  -20.9430  -29.8380   21.7570 H   0  0  0  0  0  0  0  0  0  0  0  0
  -18.0520  -28.0920   22.9530 C   0  0  0  0  0  0  0  0  0  0  0  0
  -20.6050  -28.3770   23.2460 C   0  0  0  0  0  3  0  0  0  0  0  0
  -20.7230  -26.9320   22.7080 C   0  0  0  0  0  2  0  0  0  0  0  0
  -19.6360  -26.5770   21.6900 C   0  0  0  0  0  2  0  0  0  0  0  0
  -18.2440  -26.7290   22.3100 C   0  0  0  0  0  2  0  0  0  0  0  0
  -19.1600  -28.8730   23.3780 C   0  0  0  0  0  0  0  0  0  0  0  0
  -18.9260  -30.1480   23.9380 C   0  0  0  0  0  3  0  0  0  0  0  0
  -17.6160  -30.6440   24.0790 C   0  0  0  0  0  3  0  0  0  0  0  0
  -16.5230  -29.8620   23.6680 C   0  0  0  0  0  3  0  0  0  0  0  0
  -16.7400  -28.5890   23.1130 C   0  0  0  0  0  3  0  0  0  0  0  0
  -25.8890  -32.5720   23.8630 C   0  0  0  0  0  3  0  0  0  0  0  0
  -26.4060  -31.8170   25.1480 C   0  0  1  0  0  0  0  0  0  0  0  0
  -25.3110  -31.5860   26.2150 C   0  0  0  0  0  1  0  0  0  0  0  0
  -26.9990  -30.4380   24.7740 C   0  0  0  0  0  1  0  0  0  0  0  0
  -27.5500  -32.6260   25.8050 C   0  0  0  0  0  1  0  0  0  0  0  0
  -25.5710  -33.9710   24.1800 N   0  0  0  0  0  0  0  0  0  0  0  0
  -25.9040  -35.0220   23.4190 C   0  0  0  0  0  0  0  0  0  0  0  0
  -26.5830  -34.9160   22.3940 O   0  0  0  0  0  0  0  0  0  0  0  0
  -24.9740  -34.1290   24.9790 H   0  0  0  0  0  0  0  0  0  0  0  0
  -24.1840  -36.8150   23.0240 C   0  0  0  0  0  1  0  0  0  0  0  0
  -25.4050  -36.4100   23.8660 C   0  0  0  0  0  3  0  0  0  0  0  0
  -27.5160  -37.2960   24.7550 C   0  0  0  0  0  1  0  0  0  0  0  0
  -26.4390  -37.4630   23.7810 N   0  0  0  0  0  0  0  0  0  0  0  0
  -26.0300  -38.3830   23.9150 H   0  0  0  0  0  0  0  0  0  0  0  0
  -32.1010  -17.4860   20.8860 O   0  0  0  0  0  0  0  0  0  0  0  0
  -30.3440  -17.4200   22.7100 O   0  0  0  0  0  0  0  0  0  0  0  0
  -30.6820  -17.3990   21.2730 S   0  0  1  0  0  0  0  0  0  0  0  0
  -30.7320  -14.6870   20.2050 C   0  0  0  0  0  0  0  0  0  0  0  0
  -30.4640  -12.4460   19.1450 C   0  0  0  0  0  2  0  0  0  0  0  0
  -29.4940  -12.5580   17.9470 C   0  0  0  0  0  2  0  0  0  0  0  0
  -28.0340  -12.3920   18.4110 C   0  0  0  0  0  2  0  0  0  0  0  0
  -27.7010  -13.2740   19.6450 C   0  0  0  0  0  3  0  0  0  0  0  0
  -28.7840  -13.1530   20.7370 C   0  0  0  0  0  2  0  0  0  0  0  0
  -30.0810  -13.4790   20.1310 N   0  0  0  0  0  0  0  0  0  0  0  0
  -31.8940  -14.7770   19.7940 O   0  0  0  0  0  0  0  0  0  0  0  0
  -30.0270  -15.8640   20.6310 N   0  0  0  0  0  0  0  0  0  0  0  0
  -29.0500  -15.7830   20.8900 H   0  0  0  0  0  0  0  0  0  0  0  0
  -25.3300  -13.8740   20.4280 C   0  0  0  0  0  0  0  0  0  0  0  0
  -24.2700  -13.1010   20.8200 C   0  0  0  0  0  0  0  0  0  0  0  0
  -24.7280  -11.7480   20.7710 C   0  0  0  0  0  0  0  0  0  0  0  0
  -26.3640  -12.9910   20.1640 N   0  0  0  0  0  0  0  0  0  0  0  0
  -26.0110  -11.7080   20.4360 N   0  0  0  0  0  0  0  0  0  0  0  0
  -24.0010  -10.4860   20.9730 C   0  0  0  0  0  0  0  0  0  0  0  0
  -24.4380   -9.5230   21.9110 C   0  0  0  0  0  3  0  0  0  0  0  0
  -23.7120   -8.3270   22.0990 C   0  0  0  0  0  3  0  0  0  0  0  0
  -22.5360   -8.0850   21.3480 C   0  0  0  0  0  0  0  0  0  0  0  0
  -22.1180   -9.0360   20.4000 C   0  0  0  0  0  3  0  0  0  0  0  0
  -22.8460  -10.2240   20.2090 C   0  0  0  0  0  3  0  0  0  0  0  0
  -21.7820   -6.9400   21.4450 O   0  0  0  0  0  0  0  0  0  0  0  0
  -21.7120   -6.2190   22.6090 C   0  0  0  0  0  0  0  0  0  0  0  0
  -21.2430   -6.7900   23.8120 C   0  0  0  0  0  3  0  0  0  0  0  0
  -21.1240   -5.9960   24.9710 C   0  0  0  0  0  3  0  0  0  0  0  0
  -21.4660   -4.6310   24.9260 C   0  0  0  0  0  0  0  0  0  0  0  0
  -21.9310   -4.0580   23.7280 C   0  0  0  0  0  3  0  0  0  0  0  0
  -22.0500   -4.8500   22.5720 C   0  0  0  0  0  0  0  0  0  0  0  0
  -22.4780   -4.2920   21.4140 F   0  0  0  0  0  0  0  0  0  0  0  0
  -21.3450   -3.8650   26.0330 F   0  0  0  0  0  0  0  0  0  0  0  0
  -22.8800  -13.5800   21.1230 C   0  0  0  0  0  0  0  0  0  0  0  0
  -22.1680  -12.8780   21.9960 N   0  0  0  0  0  0  0  0  0  0  0  0
  -22.4360  -14.6110   20.6210 O   0  0  0  0  0  0  0  0  0  0  0  0
  -22.5410  -12.0440   22.4230 H   0  0  0  0  0  0  0  0  0  0  0  0
  -21.2360  -13.1810   22.2430 H   0  0  0  0  0  0  0  0  0  0  0  0
  -25.4950  -15.2440   20.2450 N   0  0  0  0  0  0  0  0  0  0  0  0
  -24.7210  -15.8920   20.3470 H   0  0  0  0  0  0  0  0  0  0  0  0
  -26.3080  -15.6690   19.8160 H   0  0  0  0  0  0  0  0  0  0  0  0
  2  3  2  0
  3  7  1  0
  3  1  1  0
  4 54  1  0
  4  1  2  0
  5  2  1  0
  5  4  1  0
  6 10  1  0
  6  7  1  0
  7  9  1  0
  8  6  2  0
 11 10  1  0
 12 23  2  0
 13 11  1  0
 13 18  1  0
 14 22  1  0
 14 24  1  0
 15 21  1  0
 15 17  1  0
 16 22  1  0
 17 18  2  0
 17 16  1  0
 19 13  2  0
 20 19  1  0
 20 15  2  0
 21 14  1  0
 22 12  1  0
 24 26  2  0
 25 24  1  0
 27 25  1  0
 28 37  2  0
 28 33  1  0
 29 25  1  0
 29 33  1  0
 30 29  1  0
 31 32  1  0
 31 30  1  0
 32 28  1  0
 33 34  2  0
 34 35  1  0
 36 35  2  0
 37 36  1  0
 38 12  1  0
 38 43  1  0
 38 39  1  0
 39 42  1  1
 39 40  1  0
 41 39  1  0
 43 46  1  0
 44 48  1  0
 44 43  1  0
 45 44  2  0
 48 47  1  0
 50 48  1  0
 50 51  1  0
 50 49  1  0
 52 54  2  0
 54 53  2  0
 55 63  1  0
 56 61  1  0
 57 58  1  0
 57 56  1  0
 59 58  1  0
 59 68  1  0
 59 60  1  0
 61 55  1  0
 61 60  1  0
 62 55  2  0
 63 64  1  0
 54 63  1  6
 65 66  2  0
 66 85  1  0
 67 66  1  0
 67 70  1  0
 68 65  1  0
 68 69  1  0
 69 67  2  0
 70 71  1  0
 71 72  2  0
 73 76  1  0
 73 72  1  0
 74 73  2  0
 75 74  1  0
 75 70  2  0
 76 77  1  0
 77 78  1  0
 78 79  2  0
 80 79  1  0
 80 84  1  0
 81 80  2  0
 82 77  2  0
 82 81  1  0
 83 82  1  0
 85 86  1  0
 86 89  1  0
 86 88  1  0
 87 85  2  0
 90 91  1  0
 90 65  1  0
 92 90  1  0
M  ISO  4  10 101  11 101  55 100  63 100
M  END
>  <TORSDO>  (73) 
F 19

>  <SCORE>  (73) 
-14.396

>  <name>  (73) 
73

>  <ligand_id>  (73) 
73

>  <original_smiles>  (73) 
[H]c1sc(S(=O)(=O)N([H])C(=O)N2C([H])([H])C([H])([H])C([H])([H])C([H])(n3nc(-c4c([H])c([H])c(Oc5c([H])c([H])c(F)c([H])c5F)c([H])c4[H])c(C(=O)N([H])[H])c3N([H])[H])C2([H])[H])c([H])c1N([H])C(=O)C([H])([H])Oc1c([H])c([H])c2c(c1[H])C([H])([H])N(C(=O)C([H])(N([H])C(=O)C([H])(N([H])C([H])([H])[H])C([H])([H])[H])C(C([H])([H])[H])(C([H])([H])[H])C([H])([H])[H])C([H])(C(=O)N([H])C1([H])c3c([H])c([H])c([H])c([H])c3C([H])([H])C([H])([H])C1([H])[H])C2([H])[H]

>  <smiles>  (73) 
[H]c1sc(S(=O)(=O)N([H])C(=O)N2C([H])([H])C([H])([H])C([H])([H])C([H])(n3nc(-c4c([H])c([H])c(Oc5c([H])c([H])c(F)c([H])c5F)c([H])c4[H])c(C(=O)N([H])[H])c3N([H])[H])C2([H])[H])c([H])c1N([H])C(=O)C([H])([H])Oc1c([H])c([H])c2c(c1[H])C([H])([H])N(C(=O)C([H])(N([H])C(=O)C([H])(N([H])C([H])([H])[H])C([H])([H])[H])C(C([H])([H])[H])(C([H])([H])[H])C([H])([H])[H])C([H])(C(=O)N([H])C1([H])c3c([H])c([H])c([H])c([H])c3C([H])([H])C([H])([H])C1([H])[H])C2([H])[H]

$$$$
74:0:0
     RDKit          3D

 98102  0  0  1  0  0  0  0  0999 V2000
  -23.6070  -14.2950   22.0560 C   0  0  0  0  0  3  0  0  0  0  0  0
  -26.4610  -18.6020   21.1390 C   0  0  0  0  0  2  0  0  0  0  0  0
  -26.9340  -17.3520   19.6250 C   0  0  0  0  0  2  0  0  0  0  0  0
  -25.0850  -17.4340   21.8030 C   0  0  0  0  0  2  0  0  0  0  0  0
  -25.5430  -16.2140   20.1500 C   0  0  0  0  0  2  0  0  0  0  0  0
  -27.2590  -19.1250   19.5520 C   0  0  0  0  0  3  0  0  0  0  0  0
  -24.6490  -15.8050   21.5590 N   0  0  0  0  0  0  0  0  0  0  0  0
  -22.8550  -14.8050   23.1300 N   0  0  0  0  0  0  0  0  0  0  0  0
  -22.0980  -14.2910   23.5580 H   0  0  0  0  0  0  0  0  0  0  0  0
  -22.9600  -15.7660   23.4170 H   0  0  0  0  0  0  0  0  0  0  0  0
  -26.1610  -12.4400   21.8720 C   0  0  0  0  0  1  0  0  0  0  0  0
  -23.6570   -9.9430   20.9060 C   0  0  0  0  0  3  0  0  0  0  0  0
  -26.2870   -9.5700   22.1690 C   0  0  0  0  0  2  0  0  0  0  0  0
  -23.5610  -11.6830   20.8690 C   0  0  0  0  0  1  0  0  0  0  0  0
  -27.0750  -11.1030   22.1930 C   0  0  0  0  0  0  0  0  0  0  0  0
  -24.9080   -9.0910   21.4700 N   0  0  0  0  0  0  0  0  0  0  0  0
  -29.4800  -11.0130   20.7240 C   0  0  0  0  0  0  0  0  0  0  0  0
  -29.2670   -9.3530   18.7630 C   0  0  0  0  0  2  0  0  0  0  0  0
  -28.0150   -9.4760   17.7680 C   0  0  0  0  0  2  0  0  0  0  0  0
  -26.5760   -9.7800   18.3460 C   0  0  0  0  0  2  0  0  0  0  0  0
  -26.7840  -10.4830   19.6250 C   0  0  0  0  0  3  0  0  0  0  0  0
  -27.8050   -9.4550   20.2640 C   0  0  0  0  0  2  0  0  0  0  0  0
  -29.0040   -9.9900   20.0150 N   0  0  0  0  0  0  0  0  0  0  0  0
  -30.5730  -11.4490   20.2920 O   0  0  0  0  0  0  0  0  0  0  0  0
  -28.6120  -11.3620   21.8500 N   0  0  0  0  0  4  0  0  0  0  0  0
  -29.0230  -12.1200   22.3790 H   0  0  0  0  0  0  0  0  0  0  0  0
  -25.3130  -12.6810   19.7190 C   0  0  0  0  0  0  0  0  0  0  0  0
  -24.5370  -13.5270   20.7330 C   0  0  0  0  0  3  0  0  0  0  0  0
  -24.0110  -12.4900   22.7370 C   0  0  0  0  0  2  0  0  0  0  0  0
  -25.5930  -11.0940   20.2620 N   0  0  0  0  0  2  0  0  0  0  0  0
  -24.6350  -11.0870   22.6140 N   0  0  0  0  0  1  0  0  0  0  0  0
  -22.5980  -11.3120   23.0780 C   0  0  0  0  0  0  0  0  0  0  0  0
  -22.7070  -10.0460   23.8320 C   0  0  0  0  0  3  0  0  0  0  0  0
  -21.7590   -8.9680   23.9690 C   0  0  0  0  0  3  0  0  0  0  0  0
  -20.4970   -8.9770   23.3460 C   0  0  0  0  0  0  0  0  0  0  0  0
  -20.3560   -9.9930   22.3930 C   0  0  0  0  0  3  0  0  0  0  0  0
  -21.3350  -11.0510   22.2830 C   0  0  0  0  0  3  0  0  0  0  0  0
  -19.4550   -8.0940   23.6350 O   0  0  0  0  0  0  0  0  0  0  0  0
  -19.2880   -7.5800   24.9150 C   0  0  0  0  0  0  0  0  0  0  0  0
  -19.4050   -8.3880   26.0710 C   0  0  0  0  0  3  0  0  0  0  0  0
  -19.2730   -7.8290   27.3590 C   0  0  0  0  0  3  0  0  0  0  0  0
  -18.9990   -6.4570   27.5110 C   0  0  0  0  0  0  0  0  0  0  0  0
  -18.8350   -5.6510   26.3700 C   0  0  0  0  0  3  0  0  0  0  0  0
  -18.9680   -6.2100   25.0830 C   0  0  0  0  0  0  0  0  0  0  0  0
  -18.7920   -5.4120   24.0030 F   0  0  0  0  0  0  0  0  0  0  0  0
  -18.8880   -5.9210   28.7510 F   0  0  0  0  0  0  0  0  0  0  0  0
  -22.9480  -14.0110   20.1620 C   0  0  0  0  0  0  0  0  0  0  0  0
  -21.8590  -13.6640   20.9440 N   0  0  0  0  0  0  0  0  0  0  0  0
  -22.7000  -14.9840   19.5270 O   0  0  0  0  0  0  0  0  0  0  0  0
  -21.9110  -12.8660   21.5600 H   0  0  0  0  0  0  0  0  0  0  0  0
  -20.9560  -14.0620   20.7260 H   0  0  0  0  0  0  0  0  0  0  0  0
  -25.9080  -13.3190   18.7140 N   0  0  0  0  0  4  0  0  0  0  0  0
  -25.5610  -14.2000   18.3560 H   0  0  0  0  0  0  0  0  0  0  0  0
  -26.4700  -12.8240   18.0300 H   0  0  0  0  0  0  0  0  0  0  0  0
  -25.9310  -19.3770   17.5770 C   0  0  0  0  0  1  0  0  0  0  0  0
  -26.1210  -19.7230   18.9410 O   0  0  0  0  0  0  0  0  0  0  0  0
  -28.7920  -20.6460   18.9050 C   0  0  0  0  0 15  0  0  0  0  0  0
  -30.1130  -21.6740   17.7800 O   0  0  0  0  0  1  0  0  0  0  0  0
  -31.7670  -29.3260   18.3970 C   0  0  0  0  0  0  0  0  0  0  0  0
  -30.4370  -23.1600   17.1570 C   0  0  0  0  0  0  0  0  0  0  0  0
  -29.7750  -28.3770   17.3440 C   0  0  0  0  0  3  0  0  0  0  0  0
  -29.9510  -26.0210   16.2540 C   0  0  0  0  0  0  0  0  0  0  0  0
  -32.0080  -27.1420   17.0130 C   0  0  0  0  0  2  0  0  0  0  0  0
  -31.1970  -25.7760   16.8260 C   0  0  0  0  0  0  0  0  0  0  0  0
  -31.4540  -24.3410   17.2430 C   0  0  0  0  0  3  0  0  0  0  0  0
  -29.5090  -23.5750   16.1860 C   0  0  0  0  0  3  0  0  0  0  0  0
  -29.2050  -24.9150   15.8320 C   0  0  0  0  0  3  0  0  0  0  0  0
  -29.4080  -27.4500   16.1460 C   0  0  0  0  0  2  0  0  0  0  0  0
  -31.2450  -28.3230   17.6070 N   0  0  0  0  0  0  0  0  0  0  0  0
  -31.0440  -30.1890   18.9260 O   0  0  0  0  0  0  0  0  0  0  0  0
  -28.9540  -27.9990   18.6080 C   0  0  0  0  0  0  0  0  0  0  0  0
  -27.6860  -28.4410   18.7040 N   0  0  0  0  0  0  0  0  0  0  0  0
  -29.4710  -27.3080   19.4910 O   0  0  0  0  0  0  0  0  0  0  0  0
  -27.3230  -29.0220   17.9610 H   0  0  0  0  0  0  0  0  0  0  0  0
  -24.3140  -28.9560   19.9440 C   0  0  0  0  0  0  0  0  0  0  0  0
  -26.7610  -28.1300   19.8020 C   0  0  0  0  0  3  0  0  0  0  0  0
  -26.1590  -26.7150   19.6360 C   0  0  0  0  0  2  0  0  0  0  0  0
  -24.8210  -26.7150   18.8880 C   0  0  0  0  0  2  0  0  0  0  0  0
  -23.7900  -27.5650   19.6340 C   0  0  0  0  0  2  0  0  0  0  0  0
  -25.7080  -29.2260   20.0080 C   0  0  0  0  0  0  0  0  0  0  0  0
  -26.1350  -30.5450   20.2720 C   0  0  0  0  0  3  0  0  0  0  0  0
  -25.2010  -31.5800   20.4660 C   0  0  0  0  0  3  0  0  0  0  0  0
  -23.8240  -31.3050   20.4090 C   0  0  0  0  0  3  0  0  0  0  0  0
  -23.3830  -29.9950   20.1550 C   0  0  0  0  0  3  0  0  0  0  0  0
  -33.2940  -29.4540   18.6730 C   0  0  0  0  0  3  0  0  0  0  0  0
  -33.7460  -28.7340   20.0050 C   0  0  1  0  0  0  0  0  0  0  0  0
  -32.9260  -29.1480   21.2510 C   0  0  0  0  0  1  0  0  0  0  0  0
  -33.6410  -27.2000   19.8850 C   0  0  0  0  0  1  0  0  0  0  0  0
  -35.2350  -29.0410   20.2870 C   0  0  0  0  0  1  0  0  0  0  0  0
  -33.6300  -30.8930   18.7600 N   0  0  0  0  0  0  0  0  0  0  0  0
  -34.1740  -31.6310   17.7810 C   0  0  0  0  0  0  0  0  0  0  0  0
  -34.4950  -31.1490   16.6910 O   0  0  0  0  0  0  0  0  0  0  0  0
  -33.3410  -31.3650   19.6050 H   0  0  0  0  0  0  0  0  0  0  0  0
  -33.2570  -33.9540   17.4180 C   0  0  0  0  0  1  0  0  0  0  0  0
  -34.3980  -33.1370   18.0460 C   0  0  0  0  0  3  0  0  0  0  0  0
  -36.8460  -33.1170   18.2720 C   0  0  0  0  0  1  0  0  0  0  0  0
  -35.6970  -33.6440   17.5420 N   0  0  0  0  0  0  0  0  0  0  0  0
  -35.7300  -34.6580   17.5910 H   0  0  0  0  0  0  0  0  0  0  0  0
  1  8  1  0
  2  4  1  0
  3  5  1  0
  5  7  1  0
  6 56  1  0
  6  3  1  0
  6  2  1  0
  7  4  1  0
  7  1  1  0
  8 10  1  0
  8  9  1  0
 11 15  1  0
 12 16  2  0
 13 15  1  0
 14 12  1  0
 16 13  1  0
 17 25  1  0
 18 23  1  0
 19 20  1  0
 19 18  1  0
 20 21  1  0
 21 30  1  0
 21 22  1  0
 23 22  1  0
 23 17  1  0
 24 17  2  0
 25 15  2  0
 25 26  1  0
 27 30  1  0
 28 27  1  0
 28  1  1  0
 29 32  1  0
 31 29  1  0
 32 33  1  0
 33 34  2  0
 35 38  1  0
 35 34  1  0
 36 35  2  0
 37 36  1  0
 37 32  2  0
 38 39  1  0
 39 44  2  0
 39 40  1  0
 40 41  2  0
 41 42  1  0
 42 46  1  0
 43 42  2  0
 44 43  1  0
 45 44  1  0
 47 28  1  0
 47 48  1  0
 48 50  1  0
 49 47  2  0
 51 48  1  0
 52 27  2  0
 53 52  1  0
 54 52  1  0
 55 56  1  0
 59 70  2  0
 60 65  1  0
 60 58  1  0
 61 69  1  0
 61 71  1  0
 62 64  1  0
 63 69  1  0
 64 63  1  0
 64 65  2  0
 66 60  2  0
 67 66  1  0
 67 62  2  0
 68 62  1  0
 68 61  1  0
 69 59  1  0
 71 72  1  0
 71 73  2  0
 74 72  1  0
 75 80  2  0
 75 84  1  0
 76 72  1  0
 76 80  1  0
 77 76  1  0
 78 79  1  0
 78 77  1  0
 79 75  1  0
 80 81  1  0
 81 82  2  0
 83 82  1  0
 84 83  2  0
 85 59  1  0
 85 90  1  0
 85 86  1  0
 86 89  1  1
 86 87  1  0
 88 86  1  0
 90 93  1  0
 91 95  1  0
 91 90  1  0
 92 91  2  0
 95 94  1  0
 97 98  1  0
 97 95  1  0
 97 96  1  0
M  ISO  4  17 100  25 100  57 101  58 101
M  END
>  <TORSDO>  (74) 
F 19

>  <SCORE>  (74) 
54.986

>  <name>  (74) 
74

>  <ligand_id>  (74) 
74

>  <original_smiles>  (74) 
[H]c1nc([H])c(N([H])C(=O)N2C([H])([H])C([H])([H])C([H])([H])C([H])(n3nc(-c4c([H])c([H])c(Oc5c([H])c([H])c(F)c([H])c5F)c([H])c4[H])c(C(=O)N([H])[H])c3N([H])[H])C2([H])[H])c([H])c1C(N1C([H])([H])C([H])([H])C(OC([H])([H])[H])(C([H])([H])Oc2c([H])c([H])c3c(c2[H])C([H])([H])N(C(=O)C([H])(N([H])C(=O)C([H])(N([H])C([H])([H])[H])C([H])([H])[H])C(C([H])([H])[H])(C([H])([H])[H])C([H])([H])[H])C([H])(C(=O)N([H])C2([H])c4c([H])c([H])c([H])c([H])c4C([H])([H])C([H])([H])C2([H])[H])C3([H])[H])C([H])([H])C1([H])[H])=[N+]([H])[H]

>  <smiles>  (74) 
[H]c1nc([H])c(N([H])C(=O)N2C([H])([H])C([H])([H])C([H])([H])C([H])(n3nc(-c4c([H])c([H])c(Oc5c([H])c([H])c(F)c([H])c5F)c([H])c4[H])c(C(=O)N([H])[H])c3N([H])[H])C2([H])[H])c([H])c1C(N1C([H])([H])C([H])([H])C(OC([H])([H])[H])(C([H])([H])Oc2c([H])c([H])c3c(c2[H])C([H])([H])N(C(=O)C([H])(N([H])C(=O)C([H])(N([H])C([H])([H])[H])C([H])([H])[H])C(C([H])([H])[H])(C([H])([H])[H])C([H])([H])[H])C([H])(C(=O)N([H])C2([H])c4c([H])c([H])c([H])c([H])c4C([H])([H])C([H])([H])C2([H])[H])C3([H])[H])C([H])([H])C1([H])[H])=[N+]([H])[H]

$$$$
75:0:0
     RDKit          3D

 97106  0  0  1  0  0  0  0  0999 V2000
  -28.9400  -21.6440   20.3520 C   0  0  0  0  0  0  0  0  0  0  0  0
  -29.7090  -20.7220   19.7370 N   0  0  0  0  0  0  0  0  0  0  0  0
  -28.4390  -21.4680   21.4660 O   0  0  0  0  0  0  0  0  0  0  0  0
  -30.1490  -21.0470   18.8860 H   0  0  0  0  0  0  0  0  0  0  0  0
  -30.6560  -14.5220   20.3800 C   0  0  0  0  0  0  0  0  0  0  0  0
  -30.3540  -12.3500   19.2540 C   0  0  0  0  0  2  0  0  0  0  0  0
  -29.4070  -12.5590   18.0520 C   0  0  0  0  0  2  0  0  0  0  0  0
  -27.9340  -12.4310   18.4880 C   0  0  0  0  0  2  0  0  0  0  0  0
  -27.6080  -13.2620   19.7590 C   0  0  0  0  0  3  0  0  0  0  0  0
  -28.6700  -13.0380   20.8600 C   0  0  0  0  0  2  0  0  0  0  0  0
  -29.9870  -13.3390   20.2820 N   0  0  0  0  0  0  0  0  0  0  0  0
  -31.8090  -14.6450   19.9530 O   0  0  0  0  0  0  0  0  0  0  0  0
  -31.2400  -18.8390   19.8420 C   0  0  0  0  0  0  0  0  0  0  0  0
  -30.0210  -19.4370   20.0890 C   0  0  0  0  0  0  0  0  0  0  0  0
  -30.1340  -16.9740   20.5860 C   0  0  0  0  0  0  0  0  0  0  0  0
  -31.2890  -17.4710   20.1390 N   0  0  0  0  0  0  0  0  0  0  0  0
  -29.9220  -15.5730   20.8280 N   0  0  0  0  0  0  0  0  0  0  0  0
  -28.9050  -18.2430   20.7700 S   0  0  0  0  0  0  0  0  0  0  0  0
  -29.0110  -15.3320   21.1820 H   0  0  0  0  0  0  0  0  0  0  0  0
  -25.2200  -13.8780   20.4860 C   0  0  0  0  0  0  0  0  0  0  0  0
  -24.1510  -13.1080   20.8600 C   0  0  0  0  0  0  0  0  0  0  0  0
  -24.6060  -11.7550   20.8240 C   0  0  0  0  0  0  0  0  0  0  0  0
  -26.2590  -12.9900   20.2460 N   0  0  0  0  0  0  0  0  0  0  0  0
  -25.8950  -11.7100   20.5090 N   0  0  0  0  0  0  0  0  0  0  0  0
  -23.8760  -10.4950   21.0160 C   0  0  0  0  0  0  0  0  0  0  0  0
  -24.3040   -9.5290   21.9530 C   0  0  0  0  0  3  0  0  0  0  0  0
  -23.5750   -8.3340   22.1340 C   0  0  0  0  0  3  0  0  0  0  0  0
  -22.4050   -8.0960   21.3750 C   0  0  0  0  0  0  0  0  0  0  0  0
  -21.9950   -9.0510   20.4280 C   0  0  0  0  0  3  0  0  0  0  0  0
  -22.7250  -10.2370   20.2460 C   0  0  0  0  0  3  0  0  0  0  0  0
  -21.6470   -6.9540   21.4640 O   0  0  0  0  0  0  0  0  0  0  0  0
  -21.5830   -6.2210   22.6220 C   0  0  0  0  0  0  0  0  0  0  0  0
  -21.1310   -6.7810   23.8360 C   0  0  0  0  0  3  0  0  0  0  0  0
  -21.0170   -5.9740   24.9850 C   0  0  0  0  0  3  0  0  0  0  0  0
  -21.3430   -4.6060   24.9210 C   0  0  0  0  0  0  0  0  0  0  0  0
  -21.7890   -4.0450   23.7110 C   0  0  0  0  0  3  0  0  0  0  0  0
  -21.9060   -4.8490   22.5650 C   0  0  0  0  0  0  0  0  0  0  0  0
  -22.3140   -4.2980   21.3960 F   0  0  0  0  0  0  0  0  0  0  0  0
  -21.2260   -3.8280   26.0230 F   0  0  0  0  0  0  0  0  0  0  0  0
  -22.7570  -13.5910   21.1390 C   0  0  0  0  0  0  0  0  0  0  0  0
  -22.0270  -12.8910   22.0000 N   0  0  0  0  0  0  0  0  0  0  0  0
  -22.3230  -14.6240   20.6300 O   0  0  0  0  0  0  0  0  0  0  0  0
  -22.3900  -12.0540   22.4330 H   0  0  0  0  0  0  0  0  0  0  0  0
  -21.0910  -13.1960   22.2280 H   0  0  0  0  0  0  0  0  0  0  0  0
  -25.3900  -15.2470   20.3070 N   0  0  0  0  0  0  0  0  0  0  0  0
  -24.6230  -15.9020   20.4150 H   0  0  0  0  0  0  0  0  0  0  0  0
  -26.2250  -15.6780   19.9330 H   0  0  0  0  0  0  0  0  0  0  0  0
  -34.3840  -19.3990   17.8190 C   0  0  0  0  0  2  0  0  0  0  0  0
  -34.9240  -19.4580   19.2560 C   0  0  0  0  0  2  0  0  0  0  0  0
  -32.9430  -18.9030   17.9450 C   0  0  0  0  0  2  0  0  0  0  0  0
  -33.7010  -19.4320   20.1880 C   0  0  0  0  0  2  0  0  0  0  0  0
  -32.4710  -19.4960   19.2730 C   0  0  0  0  0  3  0  0  0  0  0  0
  -28.6610  -22.9450   19.5580 C   0  0  0  0  0  2  0  0  0  0  0  0
  -29.1810  -24.2550   20.1970 C   0  0  0  0  0  0  0  0  0  0  0  0
  -30.3930  -24.4930   20.2720 O   0  0  0  0  0  0  0  0  0  0  0  0
  -28.1390  -25.2830   20.6940 C   0  0  0  0  0  2  0  0  0  0  0  0
  -28.3810  -26.6330   20.2110 O   0  0  0  0  0  0  0  0  0  0  0  0
  -24.5820  -31.8750   23.2330 C   0  0  0  0  0  0  0  0  0  0  0  0
  -27.2450  -27.4230   20.1670 C   0  0  0  0  0  0  0  0  0  0  0  0
  -23.3920  -30.4780   21.5760 C   0  0  0  0  0  3  0  0  0  0  0  0
  -24.8600  -28.9540   20.1520 C   0  0  0  0  0  0  0  0  0  0  0  0
  -25.9210  -30.8380   21.4000 C   0  0  0  0  0  2  0  0  0  0  0  0
  -26.0160  -29.4680   20.7550 C   0  0  0  0  0  0  0  0  0  0  0  0
  -27.2150  -28.7130   20.7550 C   0  0  0  0  0  3  0  0  0  0  0  0
  -26.0770  -26.9440   19.5330 C   0  0  0  0  0  3  0  0  0  0  0  0
  -24.8890  -27.6950   19.5320 C   0  0  0  0  0  3  0  0  0  0  0  0
  -23.6140  -29.8100   20.1940 C   0  0  0  0  0  2  0  0  0  0  0  0
  -24.6500  -31.0790   22.1290 N   0  0  0  0  0  0  0  0  0  0  0  0
  -23.4960  -32.1420   23.7650 O   0  0  0  0  0  0  0  0  0  0  0  0
  -22.7340  -29.4510   22.5270 C   0  0  0  0  0  0  0  0  0  0  0  0
  -21.4100  -29.2760   22.3970 N   0  0  0  0  0  0  0  0  0  0  0  0
  -23.4140  -28.8160   23.3380 O   0  0  0  0  0  0  0  0  0  0  0  0
  -20.9230  -29.8410   21.7150 H   0  0  0  0  0  0  0  0  0  0  0  0
  -18.0240  -28.1150   22.9060 C   0  0  0  0  0  0  0  0  0  0  0  0
  -20.5870  -28.3360   23.1580 C   0  0  0  0  0  3  0  0  0  0  0  0
  -20.6660  -26.9140   22.5550 C   0  0  0  0  0  2  0  0  0  0  0  0
  -19.5520  -26.6230   21.5460 C   0  0  0  0  0  2  0  0  0  0  0  0
  -18.1770  -26.7760   22.2050 C   0  0  0  0  0  2  0  0  0  0  0  0
  -19.1570  -28.8540   23.3410 C   0  0  0  0  0  0  0  0  0  0  0  0
  -18.9600  -30.1090   23.9550 C   0  0  0  0  0  3  0  0  0  0  0  0
  -17.6640  -30.6250   24.1420 C   0  0  0  0  0  3  0  0  0  0  0  0
  -16.5460  -29.8830   23.7240 C   0  0  0  0  0  3  0  0  0  0  0  0
  -16.7270  -28.6300   23.1120 C   0  0  0  0  0  3  0  0  0  0  0  0
  -25.8600  -32.5070   23.8670 C   0  0  0  0  0  3  0  0  0  0  0  0
  -26.3620  -31.7390   25.1500 C   0  0  1  0  0  0  0  0  0  0  0  0
  -25.2570  -31.5000   26.2060 C   0  0  0  0  0  1  0  0  0  0  0  0
  -26.9500  -30.3620   24.7630 C   0  0  0  0  0  1  0  0  0  0  0  0
  -27.5050  -32.5350   25.8240 C   0  0  0  0  0  1  0  0  0  0  0  0
  -25.5510  -33.9070   24.1860 N   0  0  0  0  0  0  0  0  0  0  0  0
  -25.8980  -34.9550   23.4270 C   0  0  0  0  0  0  0  0  0  0  0  0
  -26.5860  -34.8440   22.4080 O   0  0  0  0  0  0  0  0  0  0  0  0
  -24.9450  -34.0680   24.9780 H   0  0  0  0  0  0  0  0  0  0  0  0
  -24.1910  -36.7560   23.0210 C   0  0  0  0  0  1  0  0  0  0  0  0
  -25.4070  -36.3460   23.8690 C   0  0  0  0  0  3  0  0  0  0  0  0
  -27.5220  -37.2180   24.7590 C   0  0  0  0  0  1  0  0  0  0  0  0
  -26.4480  -37.3940   23.7860 N   0  0  0  0  0  0  0  0  0  0  0  0
  -26.0420  -38.3160   23.9230 H   0  0  0  0  0  0  0  0  0  0  0  0
  1  3  2  0
  2 14  1  0
  2  1  1  0
  4  2  1  0
  5 17  1  0
  6 11  1  0
  7  8  1  0
  7  6  1  0
  9  8  1  0
  9 23  1  0
  9 10  1  0
 11  5  1  0
 11 10  1  0
 12  5  2  0
 13 14  2  0
 13 16  1  0
 14 18  1  0
 15 18  1  0
 15 17  1  0
 16 15  2  0
 17 19  1  0
 20 21  2  0
 21 40  1  0
 22 21  1  0
 22 25  1  0
 23 20  1  0
 23 24  1  0
 24 22  2  0
 25 26  1  0
 26 27  2  0
 28 31  1  0
 28 27  1  0
 29 28  2  0
 30 29  1  0
 30 25  2  0
 31 32  1  0
 32 33  1  0
 33 34  2  0
 35 34  1  0
 35 39  1  0
 36 35  2  0
 37 32  2  0
 37 36  1  0
 38 37  1  0
 40 41  1  0
 41 44  1  0
 41 43  1  0
 42 40  2  0
 45 46  1  0
 45 20  1  0
 47 45  1  0
 48 50  1  0
 48 49  1  0
 49 51  1  0
 50 52  1  0
 52 13  1  0
 52 51  1  0
 53 54  1  0
 53  1  1  0
 54 55  2  0
 54 56  1  0
 57 56  1  0
 58 69  2  0
 59 57  1  0
 59 64  1  0
 60 68  1  0
 60 70  1  0
 61 67  1  0
 61 63  1  0
 62 68  1  0
 63 64  2  0
 63 62  1  0
 65 59  2  0
 66 65  1  0
 66 61  2  0
 67 60  1  0
 68 58  1  0
 70 72  2  0
 71 70  1  0
 73 71  1  0
 74 83  2  0
 74 79  1  0
 75 71  1  0
 75 79  1  0
 76 75  1  0
 77 78  1  0
 77 76  1  0
 78 74  1  0
 79 80  2  0
 80 81  1  0
 82 81  2  0
 83 82  1  0
 84 58  1  0
 84 89  1  0
 84 85  1  0
 85 88  1  1
 85 86  1  0
 87 85  1  0
 89 92  1  0
 90 94  1  0
 90 89  1  0
 91 90  2  0
 94 93  1  0
 96 94  1  0
 96 97  1  0
 96 95  1  0
M  ISO  4   5 100  17 100  56 101  57 101
M  END
>  <TORSDO>  (75) 
F 20

>  <SCORE>  (75) 
-14.001

>  <name>  (75) 
75

>  <ligand_id>  (75) 
75

>  <original_smiles>  (75) 
[H]c1c([H])c([H])c2c(c1[H])C([H])([H])C([H])([H])C([H])([H])C2([H])N([H])C(=O)C1([H])N(C(=O)C([H])(N([H])C(=O)C([H])(N([H])C([H])([H])[H])C([H])([H])[H])C(C([H])([H])[H])(C([H])([H])[H])C([H])([H])[H])C([H])([H])c2c([H])c(OC([H])([H])C(=O)C([H])([H])C(=O)N([H])c3sc(N([H])C(=O)N4C([H])([H])C([H])([H])C([H])([H])C([H])(n5nc(-c6c([H])c([H])c(Oc7c([H])c([H])c(F)c([H])c7F)c([H])c6[H])c(C(=O)N([H])[H])c5N([H])[H])C4([H])[H])nc3C3([H])C([H])([H])C([H])([H])C([H])([H])C3([H])[H])c([H])c([H])c2C1([H])[H]

>  <smiles>  (75) 
[H]c1c([H])c([H])c2c(c1[H])C([H])([H])C([H])([H])C([H])([H])C2([H])N([H])C(=O)C1([H])N(C(=O)C([H])(N([H])C(=O)C([H])(N([H])C([H])([H])[H])C([H])([H])[H])C(C([H])([H])[H])(C([H])([H])[H])C([H])([H])[H])C([H])([H])c2c([H])c(OC([H])([H])C(=O)C([H])([H])C(=O)N([H])c3sc(N([H])C(=O)N4C([H])([H])C([H])([H])C([H])([H])C([H])(n5nc(-c6c([H])c([H])c(Oc7c([H])c([H])c(F)c([H])c7F)c([H])c6[H])c(C(=O)N([H])[H])c5N([H])[H])C4([H])[H])nc3C3([H])C([H])([H])C([H])([H])C([H])([H])C3([H])[H])c([H])c([H])c2C1([H])[H]

$$$$
76:0:0
     RDKit          3D

 98106  0  0  1  0  0  0  0  0999 V2000
  -28.7470  -19.8640   20.8880 C   0  0  0  0  0  3  0  0  0  0  0  0
  -30.0900  -17.9750   20.1030 C   0  0  0  0  0  0  0  0  0  0  0  0
  -29.3040  -18.5820   21.1260 C   0  0  0  0  0  0  0  0  0  0  0  0
  -28.9570  -20.5240   19.6530 C   0  0  0  0  0  3  0  0  0  0  0  0
  -30.2390  -18.6730   18.8790 C   0  0  0  0  0  0  0  0  0  0  0  0
  -29.6710  -19.8850   18.7050 N   0  0  0  0  0  0  0  0  0  0  0  0
  -28.4660  -21.8030   19.3460 N   0  0  0  0  0  0  0  0  0  0  0  0
  -30.9690  -18.1550   17.8610 F   0  0  0  0  0  0  0  0  0  0  0  0
  -29.8270  -20.3370   17.8010 H   0  0  0  0  0  0  0  0  0  0  0  0
  -28.6330  -22.1600   18.4140 H   0  0  0  0  0  0  0  0  0  0  0  0
  -30.8550  -14.4230   19.5410 C   0  0  0  0  0  0  0  0  0  0  0  0
  -30.2860  -12.3220   18.3880 C   0  0  0  0  0  2  0  0  0  0  0  0
  -29.1910  -12.5820   17.3360 C   0  0  0  0  0  2  0  0  0  0  0  0
  -27.7960  -12.4530   17.9740 C   0  0  0  0  0  2  0  0  0  0  0  0
  -27.6590  -13.2680   19.2890 C   0  0  0  0  0  3  0  0  0  0  0  0
  -28.8620  -13.0280   20.2290 C   0  0  0  0  0  2  0  0  0  0  0  0
  -30.0890  -13.3010   19.4680 N   0  0  0  0  0  0  0  0  0  0  0  0
  -31.9410  -14.4970   18.9590 O   0  0  0  0  0  0  0  0  0  0  0  0
  -30.8870  -16.7020   20.2800 C   0  0  0  0  0  0  0  0  0  0  0  0
  -30.2670  -15.5160   20.0750 N   0  0  0  0  0  0  0  0  0  0  0  0
  -32.0900  -16.8050   20.5620 O   0  0  0  0  0  0  0  0  0  0  0  0
  -29.2680  -15.4760   20.1950 H   0  0  0  0  0  0  0  0  0  0  0  0
  -25.4220  -13.8890   20.3930 C   0  0  0  0  0  0  0  0  0  0  0  0
  -24.3940  -13.1220   20.8710 C   0  0  0  0  0  0  0  0  0  0  0  0
  -24.7970  -11.7640   20.6910 C   0  0  0  0  0  0  0  0  0  0  0  0
  -26.3880  -12.9970   19.9530 N   0  0  0  0  0  0  0  0  0  0  0  0
  -26.0240  -11.7110   20.1900 N   0  0  0  0  0  0  0  0  0  0  0  0
  -24.0620  -10.5110   20.9100 C   0  0  0  0  0  0  0  0  0  0  0  0
  -24.4970   -9.5560   21.8550 C   0  0  0  0  0  3  0  0  0  0  0  0
  -23.7620   -8.3680   22.0610 C   0  0  0  0  0  3  0  0  0  0  0  0
  -22.5800   -8.1280   21.3220 C   0  0  0  0  0  0  0  0  0  0  0  0
  -22.1640   -9.0720   20.3670 C   0  0  0  0  0  3  0  0  0  0  0  0
  -22.8980  -10.2510   20.1590 C   0  0  0  0  0  3  0  0  0  0  0  0
  -21.8150   -6.9920   21.4380 O   0  0  0  0  0  0  0  0  0  0  0  0
  -21.6280   -6.3700   22.6460 C   0  0  0  0  0  0  0  0  0  0  0  0
  -21.0410   -7.0360   23.7440 C   0  0  0  0  0  3  0  0  0  0  0  0
  -20.8040   -6.3400   24.9460 C   0  0  0  0  0  3  0  0  0  0  0  0
  -21.1440   -4.9770   25.0490 C   0  0  0  0  0  0  0  0  0  0  0  0
  -21.7240   -4.3110   23.9560 C   0  0  0  0  0  3  0  0  0  0  0  0
  -21.9620   -5.0060   22.7560 C   0  0  0  0  0  0  0  0  0  0  0  0
  -22.5020   -4.3540   21.6980 F   0  0  0  0  0  0  0  0  0  0  0  0
  -20.9100   -4.3040   26.2000 F   0  0  0  0  0  0  0  0  0  0  0  0
  -23.0700  -13.6170   21.3790 C   0  0  0  0  0  0  0  0  0  0  0  0
  -22.4650  -12.8970   22.3160 N   0  0  0  0  0  0  0  0  0  0  0  0
  -22.5880  -14.6760   20.9780 O   0  0  0  0  0  0  0  0  0  0  0  0
  -22.8720  -12.0390   22.6580 H   0  0  0  0  0  0  0  0  0  0  0  0
  -21.5830  -13.2090   22.6980 H   0  0  0  0  0  0  0  0  0  0  0  0
  -25.6070  -15.2630   20.2700 N   0  0  0  0  0  0  0  0  0  0  0  0
  -24.8820  -15.9270   20.5220 H   0  0  0  0  0  0  0  0  0  0  0  0
  -26.3990  -15.6970   19.8140 H   0  0  0  0  0  0  0  0  0  0  0  0
  -29.0560  -17.9720   22.3700 N   0  0  0  0  0  0  0  0  0  0  0  0
  -28.6800  -18.5380   23.1220 H   0  0  0  0  0  0  0  0  0  0  0  0
  -29.6750  -17.2460   22.7100 H   0  0  0  0  0  0  0  0  0  0  0  0
  -28.5690  -22.8510   20.3570 C   0  0  0  0  0  2  0  0  0  0  0  0
  -28.6480  -24.2500   19.7240 C   0  0  0  0  0  0  0  0  0  0  0  0
  -28.7690  -24.3920   18.5000 O   0  0  0  0  0  0  0  0  0  0  0  0
  -28.5780  -25.4590   20.6750 C   0  0  0  0  0  2  0  0  0  0  0  0
  -28.6420  -26.7150   19.9760 O   0  0  0  0  0  0  0  0  0  0  0  0
  -24.6600  -31.6800   23.1510 C   0  0  0  0  0  0  0  0  0  0  0  0
  -27.4600  -27.4150   19.9780 C   0  0  0  0  0  0  0  0  0  0  0  0
  -23.5060  -30.2730   21.4740 C   0  0  0  0  0  3  0  0  0  0  0  0
  -25.0140  -28.8230   20.0160 C   0  0  0  0  0  0  0  0  0  0  0  0
  -26.0150  -30.7330   21.2860 C   0  0  0  0  0  2  0  0  0  0  0  0
  -26.1520  -29.3810   20.6140 C   0  0  0  0  0  0  0  0  0  0  0  0
  -27.3820  -28.6870   20.5860 C   0  0  0  0  0  3  0  0  0  0  0  0
  -26.3080  -26.8670   19.3750 C   0  0  0  0  0  3  0  0  0  0  0  0
  -25.0860  -27.5660   19.3920 C   0  0  0  0  0  3  0  0  0  0  0  0
  -23.7390  -29.6330   20.0800 C   0  0  0  0  0  2  0  0  0  0  0  0
  -24.7450  -30.9090   22.0300 N   0  0  0  0  0  0  0  0  0  0  0  0
  -23.5700  -31.9010   23.6950 O   0  0  0  0  0  0  0  0  0  0  0  0
  -22.8910  -29.2080   22.4100 C   0  0  0  0  0  0  0  0  0  0  0  0
  -21.5740  -28.9820   22.2750 N   0  0  0  0  0  0  0  0  0  0  0  0
  -23.5970  -28.5880   23.2100 O   0  0  0  0  0  0  0  0  0  0  0  0
  -21.0660  -29.5370   21.6030 H   0  0  0  0  0  0  0  0  0  0  0  0
  -18.2400  -27.6720   22.7490 C   0  0  0  0  0  0  0  0  0  0  0  0
  -20.7900  -27.9990   23.0220 C   0  0  0  0  0  3  0  0  0  0  0  0
  -20.9340  -26.5890   22.4040 C   0  0  0  0  0  2  0  0  0  0  0  0
  -19.8380  -26.2610   21.3850 C   0  0  0  0  0  2  0  0  0  0  0  0
  -18.4550  -26.3470   22.0360 C   0  0  0  0  0  2  0  0  0  0  0  0
  -19.3380  -28.4550   23.1980 C   0  0  0  0  0  0  0  0  0  0  0  0
  -19.0830  -29.6950   23.8220 C   0  0  0  0  0  3  0  0  0  0  0  0
  -17.7650  -30.1530   24.0040 C   0  0  0  0  0  3  0  0  0  0  0  0
  -16.6820  -29.3670   23.5730 C   0  0  0  0  0  3  0  0  0  0  0  0
  -16.9220  -28.1280   22.9520 C   0  0  0  0  0  3  0  0  0  0  0  0
  -25.9230  -32.3410   23.7860 C   0  0  0  0  0  3  0  0  0  0  0  0
  -26.4850  -31.5440   25.0280 C   0  0  1  0  0  0  0  0  0  0  0  0
  -25.4110  -31.2030   26.0860 C   0  0  0  0  0  1  0  0  0  0  0  0
  -27.1390  -30.2180   24.5740 C   0  0  0  0  0  1  0  0  0  0  0  0
  -27.5960  -32.3680   25.7200 C   0  0  0  0  0  1  0  0  0  0  0  0
  -25.5600  -33.7120   24.1700 N   0  0  0  0  0  0  0  0  0  0  0  0
  -25.8320  -34.8020   23.4390 C   0  0  0  0  0  0  0  0  0  0  0  0
  -26.4870  -34.7610   22.3950 O   0  0  0  0  0  0  0  0  0  0  0  0
  -24.9730  -33.8140   24.9850 H   0  0  0  0  0  0  0  0  0  0  0  0
  -24.0130  -36.5190   23.1770 C   0  0  0  0  0  1  0  0  0  0  0  0
  -25.2900  -36.1510   23.9490 C   0  0  0  0  0  3  0  0  0  0  0  0
  -27.3980  -37.1110   24.7640 C   0  0  0  0  0  1  0  0  0  0  0  0
  -26.2700  -37.2540   23.8480 N   0  0  0  0  0  0  0  0  0  0  0  0
  -25.8240  -38.1490   24.0310 H   0  0  0  0  0  0  0  0  0  0  0  0
  1  3  2  0
  2 19  1  0
  2  3  1  0
  3 51  1  0
  4  7  1  0
  4  1  1  0
  5  2  2  0
  6  5  1  0
  6  4  1  0
  7 54  1  0
  8  5  1  0
  9  6  1  0
 10  7  1  0
 11 20  1  0
 12 17  1  0
 13 14  1  0
 13 12  1  0
 15 14  1  0
 15 26  1  0
 15 16  1  0
 17 11  1  0
 17 16  1  0
 18 11  2  0
 19 21  2  0
 20 22  1  0
 20 19  1  0
 23 24  2  0
 24 43  1  0
 25 24  1  0
 25 28  1  0
 26 27  1  0
 26 23  1  0
 27 25  2  0
 28 29  1  0
 29 30  2  0
 31 34  1  0
 31 30  1  0
 32 31  2  0
 33 32  1  0
 33 28  2  0
 34 35  1  0
 35 40  2  0
 35 36  1  0
 36 37  2  0
 37 38  1  0
 38 42  1  0
 39 38  2  0
 40 39  1  0
 41 40  1  0
 43 44  1  0
 44 46  1  0
 44 47  1  0
 45 43  2  0
 48 23  1  0
 48 49  1  0
 50 48  1  0
 51 53  1  0
 51 52  1  0
 55 54  1  0
 55 57  1  0
 56 55  2  0
 58 60  1  0
 58 57  1  0
 59 70  2  0
 60 65  1  0
 61 69  1  0
 61 71  1  0
 62 68  1  0
 62 64  1  0
 63 69  1  0
 64 63  1  0
 65 64  2  0
 66 67  1  0
 66 60  2  0
 67 62  2  0
 68 61  1  0
 69 59  1  0
 71 73  2  0
 72 71  1  0
 74 72  1  0
 75 84  2  0
 75 80  1  0
 76 72  1  0
 76 80  1  0
 77 76  1  0
 78 79  1  0
 78 77  1  0
 79 75  1  0
 80 81  2  0
 81 82  1  0
 83 82  2  0
 84 83  1  0
 85 59  1  0
 85 90  1  0
 85 86  1  0
 86 89  1  1
 86 87  1  0
 88 86  1  0
 90 93  1  0
 91 95  1  0
 91 90  1  0
 92 91  2  0
 95 94  1  0
 97 95  1  0
 97 98  1  0
 97 96  1  0
M  ISO  4  11 100  20 100  57 101  58 101
M  END
>  <TORSDO>  (76) 
F 20

>  <SCORE>  (76) 
-10.755

>  <name>  (76) 
76

>  <ligand_id>  (76) 
76

>  <original_smiles>  (76) 
[H]c1c([H])c([H])c2c(c1[H])C([H])([H])C([H])([H])C([H])([H])C2([H])N([H])C(=O)C1([H])N(C(=O)C([H])(N([H])C(=O)C([H])(N([H])C([H])([H])[H])C([H])([H])[H])C(C([H])([H])[H])(C([H])([H])[H])C([H])([H])[H])C([H])([H])c2c([H])c(OC([H])([H])C(=O)C([H])([H])N([H])c3c([H])c(N([H])[H])c(C(=O)N([H])C(=O)N4C([H])([H])C([H])([H])C([H])([H])C([H])(n5nc(-c6c([H])c([H])c(Oc7c([H])c([H])c(F)c([H])c7F)c([H])c6[H])c(C(=O)N([H])[H])c5N([H])[H])C4([H])[H])c(F)[n+]3[H])c([H])c([H])c2C1([H])[H]

>  <smiles>  (76) 
[H]c1c([H])c([H])c2c(c1[H])C([H])([H])C([H])([H])C([H])([H])C2([H])N([H])C(=O)C1([H])N(C(=O)C([H])(N([H])C(=O)C([H])(N([H])C([H])([H])[H])C([H])([H])[H])C(C([H])([H])[H])(C([H])([H])[H])C([H])([H])[H])C([H])([H])c2c([H])c(OC([H])([H])C(=O)C([H])([H])N([H])c3c([H])c(N([H])[H])c(C(=O)N([H])C(=O)N4C([H])([H])C([H])([H])C([H])([H])C([H])(n5nc(-c6c([H])c([H])c(Oc7c([H])c([H])c(F)c([H])c7F)c([H])c6[H])c(C(=O)N([H])[H])c5N([H])[H])C4([H])[H])c(F)[n+]3[H])c([H])c([H])c2C1([H])[H]

$$$$
77:0:0
     RDKit          3D

 98106  0  0  1  0  0  0  0  0999 V2000
  -28.8550  -23.3250   20.4800 C   0  0  0  0  0  0  0  0  0  0  0  0
  -29.1760  -22.0100   20.2190 N   0  0  0  0  0  0  0  0  0  0  0  0
  -28.5910  -23.7150   21.6190 O   0  0  0  0  0  0  0  0  0  0  0  0
  -29.5440  -21.8390   19.2990 H   0  0  0  0  0  0  0  0  0  0  0  0
  -28.7850  -18.3070   22.4200 C   0  0  0  0  0  3  0  0  0  0  0  0
  -29.6290  -19.5570   20.5130 C   0  0  0  0  0  3  0  0  0  0  0  0
  -28.3610  -20.7180   22.2360 C   0  0  0  0  0  3  0  0  0  0  0  0
  -29.5120  -18.3050   21.2070 C   0  0  0  0  0  0  0  0  0  0  0  0
  -28.2260  -19.4970   22.9320 C   0  0  0  0  0  0  0  0  0  0  0  0
  -29.0660  -20.7830   21.0060 C   0  0  0  0  0  0  0  0  0  0  0  0
  -27.5240  -19.4540   24.1390 N   0  0  0  0  0  0  0  0  0  0  0  0
  -27.6940  -18.6930   24.7920 H   0  0  0  0  0  0  0  0  0  0  0  0
  -27.2370  -20.3150   24.5950 H   0  0  0  0  0  0  0  0  0  0  0  0
  -30.1240  -17.0260   20.6820 C   0  0  0  0  0  3  0  0  0  0  0  0
  -29.9490  -15.7390   21.1280 C   0  0  0  0  0  3  0  0  0  0  0  0
  -30.6740  -14.5860   20.5390 C   0  0  0  0  0  0  0  0  0  0  0  0
  -30.4270  -12.3620   19.4600 C   0  0  0  0  0  2  0  0  0  0  0  0
  -29.5110  -12.5150   18.2250 C   0  0  0  0  0  2  0  0  0  0  0  0
  -28.0290  -12.3700   18.6250 C   0  0  0  0  0  2  0  0  0  0  0  0
  -27.6610  -13.2210   19.8710 C   0  0  0  0  0  3  0  0  0  0  0  0
  -28.6990  -13.0440   20.9990 C   0  0  0  0  0  2  0  0  0  0  0  0
  -30.0210  -13.3800   20.4530 N   0  0  0  0  0  0  0  0  0  0  0  0
  -31.8040  -14.7180   20.0590 O   0  0  0  0  0  0  0  0  0  0  0  0
  -25.2610  -13.8190   20.5700 C   0  0  0  0  0  0  0  0  0  0  0  0
  -24.1870  -13.0450   20.9160 C   0  0  0  0  0  0  0  0  0  0  0  0
  -24.6430  -11.6910   20.8730 C   0  0  0  0  0  0  0  0  0  0  0  0
  -26.3040  -12.9370   20.3320 N   0  0  0  0  0  0  0  0  0  0  0  0
  -25.9370  -11.6520   20.5730 N   0  0  0  0  0  0  0  0  0  0  0  0
  -23.9100  -10.4290   21.0420 C   0  0  0  0  0  0  0  0  0  0  0  0
  -24.3650   -9.4200   21.9200 C   0  0  0  0  0  3  0  0  0  0  0  0
  -23.6310   -8.2240   22.0770 C   0  0  0  0  0  3  0  0  0  0  0  0
  -22.4290   -8.0300   21.3560 C   0  0  0  0  0  0  0  0  0  0  0  0
  -21.9930   -9.0270   20.4650 C   0  0  0  0  0  3  0  0  0  0  0  0
  -22.7270  -10.2140   20.3060 C   0  0  0  0  0  3  0  0  0  0  0  0
  -21.6660   -6.8890   21.4240 O   0  0  0  0  0  0  0  0  0  0  0  0
  -21.6860   -6.0740   22.5270 C   0  0  0  0  0  0  0  0  0  0  0  0
  -21.4020   -6.5650   23.8200 C   0  0  0  0  0  3  0  0  0  0  0  0
  -21.3660   -5.6810   24.9170 C   0  0  0  0  0  3  0  0  0  0  0  0
  -21.6050   -4.3060   24.7230 C   0  0  0  0  0  0  0  0  0  0  0  0
  -21.8830   -3.8150   23.4340 C   0  0  0  0  0  3  0  0  0  0  0  0
  -21.9200   -4.6970   22.3400 C   0  0  0  0  0  0  0  0  0  0  0  0
  -22.1670   -4.2150   21.0980 F   0  0  0  0  0  0  0  0  0  0  0  0
  -21.5630   -3.4540   25.7750 F   0  0  0  0  0  0  0  0  0  0  0  0
  -22.7870  -13.5230   21.1830 C   0  0  0  0  0  0  0  0  0  0  0  0
  -22.0500  -12.8220   22.0380 N   0  0  0  0  0  0  0  0  0  0  0  0
  -22.3550  -14.5540   20.6700 O   0  0  0  0  0  0  0  0  0  0  0  0
  -22.4150  -11.9890   22.4750 H   0  0  0  0  0  0  0  0  0  0  0  0
  -21.1110  -13.1220   22.2590 H   0  0  0  0  0  0  0  0  0  0  0  0
  -25.4360  -15.1910   20.4160 N   0  0  0  0  0  0  0  0  0  0  0  0
  -24.6780  -15.8510   20.5550 H   0  0  0  0  0  0  0  0  0  0  0  0
  -26.3070  -15.6270   20.1370 H   0  0  0  0  0  0  0  0  0  0  0  0
  -28.6120  -25.5740   19.2300 C   0  0  0  0  0  3  0  0  0  0  0  0
  -28.8720  -24.2200   19.2880 C   0  0  0  0  0  0  0  0  0  0  0  0
  -29.1810  -23.6460   17.9540 N   0  0  0  0  0  4  0  0  0  0  0  0
  -29.1950  -24.3670   17.2560 H   0  0  0  0  0  0  0  0  0  0  0  0
  -30.0900  -23.2210   17.9450 H   0  0  0  0  0  0  0  0  0  0  0  0
  -28.4950  -22.9670   17.6730 H   0  0  0  0  0  0  0  0  0  0  0  0
  -28.3400  -26.5060   20.2260 O   0  0  0  0  0  0  0  0  0  0  0  0
  -24.6240  -31.8620   23.2010 C   0  0  0  0  0  0  0  0  0  0  0  0
  -27.2370  -27.3550   20.1140 C   0  0  0  0  0  0  0  0  0  0  0  0
  -23.4190  -30.4810   21.5420 C   0  0  0  0  0  3  0  0  0  0  0  0
  -24.8670  -28.9400   20.1070 C   0  0  0  0  0  0  0  0  0  0  0  0
  -25.9550  -30.8040   21.3670 C   0  0  0  0  0  2  0  0  0  0  0  0
  -26.0320  -29.4330   20.7100 C   0  0  0  0  0  0  0  0  0  0  0  0
  -27.2180  -28.6480   20.7090 C   0  0  0  0  0  3  0  0  0  0  0  0
  -26.0500  -26.9000   19.4970 C   0  0  0  0  0  3  0  0  0  0  0  0
  -24.8760  -27.6770   19.4910 C   0  0  0  0  0  3  0  0  0  0  0  0
  -23.6320  -29.8130   20.1580 C   0  0  0  0  0  2  0  0  0  0  0  0
  -24.6840  -31.0640   22.0940 N   0  0  0  0  0  0  0  0  0  0  0  0
  -23.5410  -32.1370   23.7350 O   0  0  0  0  0  0  0  0  0  0  0  0
  -22.7470  -29.4630   22.4930 C   0  0  0  0  0  0  0  0  0  0  0  0
  -21.4180  -29.3060   22.3690 N   0  0  0  0  0  0  0  0  0  0  0  0
  -23.4190  -28.8190   23.3030 O   0  0  0  0  0  0  0  0  0  0  0  0
  -20.9350  -29.8760   21.6880 H   0  0  0  0  0  0  0  0  0  0  0  0
  -18.0290  -28.1400   22.8510 C   0  0  0  0  0  0  0  0  0  0  0  0
  -20.5870  -28.3700   23.1290 C   0  0  0  0  0  3  0  0  0  0  0  0
  -20.6790  -26.9430   22.5410 C   0  0  0  0  0  2  0  0  0  0  0  0
  -19.5760  -26.6400   21.5230 C   0  0  0  0  0  2  0  0  0  0  0  0
  -18.1930  -26.7950   22.1640 C   0  0  0  0  0  2  0  0  0  0  0  0
  -19.1540  -28.8870   23.2900 C   0  0  0  0  0  0  0  0  0  0  0  0
  -18.9470  -30.1470   23.8900 C   0  0  0  0  0  3  0  0  0  0  0  0
  -17.6470  -30.6600   24.0560 C   0  0  0  0  0  3  0  0  0  0  0  0
  -16.5360  -29.9100   23.6330 C   0  0  0  0  0  3  0  0  0  0  0  0
  -16.7280  -28.6510   23.0370 C   0  0  0  0  0  3  0  0  0  0  0  0
  -25.9090  -32.4800   23.8360 C   0  0  0  0  0  3  0  0  0  0  0  0
  -25.5890  -33.8600   24.2280 N   0  0  0  0  0  0  0  0  0  0  0  0
  -25.9050  -34.9470   23.5110 C   0  0  0  0  0  0  0  0  0  0  0  0
  -26.5610  -34.8940   22.4680 O   0  0  0  0  0  0  0  0  0  0  0  0
  -25.0050  -33.9770   25.0420 H   0  0  0  0  0  0  0  0  0  0  0  0
  -24.1490  -36.7310   23.2640 C   0  0  0  0  0  1  0  0  0  0  0  0
  -25.4120  -36.3100   24.0330 C   0  0  0  0  0  3  0  0  0  0  0  0
  -27.5580  -37.1810   24.8460 C   0  0  0  0  0  1  0  0  0  0  0  0
  -26.4300  -37.3790   23.9410 N   0  0  0  0  0  0  0  0  0  0  0  0
  -26.0190  -38.2870   24.1400 H   0  0  0  0  0  0  0  0  0  0  0  0
  -26.4490  -31.6590   25.0710 C   0  0  1  0  0  0  0  0  0  0  0  0
  -25.3730  -31.3730   26.1430 C   0  0  0  0  0  1  0  0  0  0  0  0
  -27.0310  -30.3020   24.6140 C   0  0  0  0  0  1  0  0  0  0  0  0
  -27.6050  -32.4310   25.7490 C   0  0  0  0  0  1  0  0  0  0  0  0
  1  3  2  0
  2  1  1  0
  2 10  1  0
  4  2  1  0
  5  9  1  0
  6 10  2  0
  6  8  1  0
  7  9  2  0
  8  5  2  0
  9 11  1  0
 10  7  1  0
 11 13  1  0
 11 12  1  0
 14 15  2  0
 14  8  1  0
 16 15  1  0
 17 22  1  0
 18 19  1  0
 18 17  1  0
 20 19  1  0
 20 27  1  0
 20 21  1  0
 22 16  1  0
 22 21  1  0
 23 16  2  0
 24 25  2  0
 25 44  1  0
 26 25  1  0
 26 29  1  0
 27 24  1  0
 27 28  1  0
 28 26  2  0
 29 30  1  0
 30 31  2  0
 32 35  1  0
 32 31  1  0
 33 32  2  0
 34 33  1  0
 34 29  2  0
 35 36  1  0
 36 37  1  0
 37 38  2  0
 39 38  1  0
 39 43  1  0
 40 39  2  0
 41 36  2  0
 41 40  1  0
 42 41  1  0
 44 45  1  0
 45 48  1  0
 45 47  1  0
 46 44  2  0
 49 50  1  0
 49 24  1  0
 51 49  1  0
 52 53  2  0
 52 58  1  0
 53  1  1  0
 54 53  1  0
 55 54  1  0
 56 54  1  0
 57 54  1  0
 59 70  2  0
 60 58  1  0
 60 65  1  0
 61 69  1  0
 61 71  1  0
 62 68  1  0
 62 64  1  0
 63 69  1  0
 64 63  1  0
 65 64  2  0
 66 60  2  0
 67 66  1  0
 67 62  2  0
 68 61  1  0
 69 59  1  0
 71 73  2  0
 72 71  1  0
 74 72  1  0
 75 84  2  0
 75 80  1  0
 76 72  1  0
 76 80  1  0
 77 76  1  0
 78 79  1  0
 78 77  1  0
 79 75  1  0
 80 81  2  0
 81 82  1  0
 83 82  2  0
 84 83  1  0
 85 59  1  0
 85 86  1  0
 85 95  1  0
 86 89  1  0
 87 91  1  0
 87 86  1  0
 88 87  2  0
 91 90  1  0
 93 91  1  0
 93 94  1  0
 93 92  1  0
 95 98  1  1
 95 96  1  0
 97 95  1  0
M  ISO  4  15 100  16 100  52 101  58 101
M  END
>  <TORSDO>  (77) 
F 21

>  <SCORE>  (77) 
6.179

>  <name>  (77) 
77

>  <ligand_id>  (77) 
77

>  <original_smiles>  (77) 
[H]C(Oc1c([H])c([H])c2c(c1[H])C([H])([H])N(C(=O)C([H])(N([H])C(=O)C([H])(N([H])C([H])([H])[H])C([H])([H])[H])C(C([H])([H])[H])(C([H])([H])[H])C([H])([H])[H])C([H])(C(=O)N([H])C1([H])c3c([H])c([H])c([H])c([H])c3C([H])([H])C([H])([H])C1([H])[H])C2([H])[H])=C(C(=O)N([H])c1c([H])c(C([H])=C([H])C(=O)N2C([H])([H])C([H])([H])C([H])([H])C([H])(n3nc(-c4c([H])c([H])c(Oc5c([H])c([H])c(F)c([H])c5F)c([H])c4[H])c(C(=O)N([H])[H])c3N([H])[H])C2([H])[H])c([H])c(N([H])[H])c1[H])[N+]([H])([H])[H]

>  <smiles>  (77) 
[H]C(Oc1c([H])c([H])c2c(c1[H])C([H])([H])N(C(=O)C([H])(N([H])C(=O)C([H])(N([H])C([H])([H])[H])C([H])([H])[H])C(C([H])([H])[H])(C([H])([H])[H])C([H])([H])[H])C([H])(C(=O)N([H])C1([H])c3c([H])c([H])c([H])c([H])c3C([H])([H])C([H])([H])C1([H])[H])C2([H])[H])=C(C(=O)N([H])c1c([H])c(C([H])=C([H])C(=O)N2C([H])([H])C([H])([H])C([H])([H])C([H])(n3nc(-c4c([H])c([H])c(Oc5c([H])c([H])c(F)c([H])c5F)c([H])c4[H])c(C(=O)N([H])[H])c3N([H])[H])C2([H])[H])c([H])c(N([H])[H])c1[H])[N+]([H])([H])[H]

$$$$
78:0:0
     RDKit          3D

101109  0  0  1  0  0  0  0  0999 V2000
  -30.8070  -19.2190   21.2290 C   0  0  0  0  0  3  0  0  0  0  0  0
  -30.2790  -21.3420   20.1520 C   0  0  0  0  0  3  0  0  0  0  0  0
  -30.0490  -21.1350   22.5610 C   0  0  0  0  0  3  0  0  0  0  0  0
  -30.7360  -19.9540   20.0240 C   0  0  0  0  0  0  0  0  0  0  0  0
  -30.4550  -19.7820   22.4760 C   0  0  0  0  0  0  0  0  0  0  0  0
  -29.9670  -21.9800   21.4320 C   0  0  0  0  0  0  0  0  0  0  0  0
  -32.8770  -17.4090   17.6880 C   0  0  0  0  0  0  0  0  0  0  0  0
  -33.1030  -15.3050   16.3800 C   0  0  0  0  0  2  0  0  0  0  0  0
  -31.6950  -14.7010   16.1940 C   0  0  0  0  0  2  0  0  0  0  0  0
  -31.3680  -13.7600   17.3660 C   0  0  0  0  0  2  0  0  0  0  0  0
  -31.6620  -14.4070   18.7440 C   0  0  0  0  0  3  0  0  0  0  0  0
  -33.0360  -15.1060   18.7860 C   0  0  0  0  0  2  0  0  0  0  0  0
  -33.0940  -16.0470   17.6610 N   0  0  0  0  0  0  0  0  0  0  0  0
  -33.2030  -18.1000   16.7110 O   0  0  0  0  0  0  0  0  0  0  0  0
  -31.3150  -19.2550   18.7700 C   0  0  0  0  0  0  0  0  0  0  0  0
  -32.0150  -18.0360   18.7510 N   0  0  0  0  0  0  0  0  0  0  0  0
  -31.1960  -19.9530   17.6280 N   0  0  0  0  0  4  0  0  0  0  0  0
  -31.8120  -17.5180   19.5880 H   0  0  0  0  0  0  0  0  0  0  0  0
  -30.6510  -20.8010   17.5850 H   0  0  0  0  0  0  0  0  0  0  0  0
  -31.7790  -19.7090   16.8390 H   0  0  0  0  0  0  0  0  0  0  0  0
  -30.3660  -13.0990   20.5180 C   0  0  0  0  0  0  0  0  0  0  0  0
  -30.7310  -12.1020   21.3750 C   0  0  0  0  0  0  0  0  0  0  0  0
  -32.1350  -11.9070   21.1830 C   0  0  0  0  0  0  0  0  0  0  0  0
  -31.5160  -13.4560   19.8370 N   0  0  0  0  0  0  0  0  0  0  0  0
  -32.6000  -12.7780   20.2930 N   0  0  0  0  0  0  0  0  0  0  0  0
  -33.0490  -10.9070   21.7490 C   0  0  0  0  0  0  0  0  0  0  0  0
  -34.4100  -11.2040   21.9990 C   0  0  0  0  0  3  0  0  0  0  0  0
  -35.2640  -10.2260   22.5530 C   0  0  0  0  0  3  0  0  0  0  0  0
  -34.7590   -8.9440   22.8750 C   0  0  0  0  0  0  0  0  0  0  0  0
  -33.4090   -8.6490   22.6130 C   0  0  0  0  0  3  0  0  0  0  0  0
  -32.5600   -9.6210   22.0560 C   0  0  0  0  0  3  0  0  0  0  0  0
  -35.5230   -7.9240   23.3880 O   0  0  0  0  0  0  0  0  0  0  0  0
  -36.8330   -8.1140   23.7490 C   0  0  0  0  0  0  0  0  0  0  0  0
  -37.2620   -9.2940   24.3940 C   0  0  0  0  0  3  0  0  0  0  0  0
  -38.6020   -9.4230   24.8110 C   0  0  0  0  0  3  0  0  0  0  0  0
  -39.5130   -8.3730   24.5860 C   0  0  0  0  0  0  0  0  0  0  0  0
  -39.0850   -7.1930   23.9500 C   0  0  0  0  0  3  0  0  0  0  0  0
  -37.7490   -7.0640   23.5370 C   0  0  0  0  0  0  0  0  0  0  0  0
  -37.3360   -5.9170   22.9450 F   0  0  0  0  0  0  0  0  0  0  0  0
  -40.7990   -8.4900   24.9890 F   0  0  0  0  0  0  0  0  0  0  0  0
  -29.8150  -11.3070   22.2590 C   0  0  0  0  0  0  0  0  0  0  0  0
  -30.3170  -10.8320   23.3910 N   0  0  0  0  0  0  0  0  0  0  0  0
  -28.6320  -11.1400   21.9650 O   0  0  0  0  0  0  0  0  0  0  0  0
  -31.2880  -10.9830   23.6240 H   0  0  0  0  0  0  0  0  0  0  0  0
  -29.7270  -10.3280   24.0380 H   0  0  0  0  0  0  0  0  0  0  0  0
  -29.1520  -13.7130   20.2350 N   0  0  0  0  0  0  0  0  0  0  0  0
  -28.2750  -13.3060   20.5410 H   0  0  0  0  0  0  0  0  0  0  0  0
  -29.0350  -14.3950   19.5000 H   0  0  0  0  0  0  0  0  0  0  0  0
  -29.2990  -24.1500   22.7990 C   0  0  0  0  0  0  0  0  0  0  0  0
  -29.6950  -23.4340   21.6610 N   0  0  0  0  0  0  0  0  0  0  0  0
  -28.8270  -23.5800   23.7830 O   0  0  0  0  0  0  0  0  0  0  0  0
  -29.9370  -24.0200   20.8710 H   0  0  0  0  0  0  0  0  0  0  0  0
  -28.5480  -26.4630   21.7640 C   0  0  0  0  0  1  0  0  0  0  0  0
  -29.3720  -25.7580   22.8680 C   0  0  0  0  0  3  0  0  0  0  0  0
  -29.3320  -26.4740   24.2020 O   0  0  0  0  0  0  0  0  0  0  0  0
  -26.6930  -30.4340   29.7180 C   0  0  0  0  0  0  0  0  0  0  0  0
  -28.4790  -27.5250   24.6200 C   0  0  0  0  0  0  0  0  0  0  0  0
  -25.5120  -30.6230   27.5610 C   0  0  0  0  0  3  0  0  0  0  0  0
  -26.7060  -29.6060   25.5290 C   0  0  0  0  0  0  0  0  0  0  0  0
  -28.0140  -30.0350   27.6150 C   0  0  0  0  0  2  0  0  0  0  0  0
  -27.8240  -29.2740   26.2990 C   0  0  0  0  0  0  0  0  0  0  0  0
  -28.7070  -28.2490   25.8410 C   0  0  0  0  0  3  0  0  0  0  0  0
  -27.3280  -27.8870   23.8920 C   0  0  0  0  0  3  0  0  0  0  0  0
  -26.4530  -28.9040   24.3360 C   0  0  0  0  0  3  0  0  0  0  0  0
  -25.8080  -30.7160   26.0380 C   0  0  0  0  0  2  0  0  0  0  0  0
  -26.7510  -30.3490   28.3550 N   0  0  0  0  0  0  0  0  0  0  0  0
  -25.6470  -30.7670   30.2960 O   0  0  0  0  0  0  0  0  0  0  0  0
  -24.3940  -29.5810   27.7950 C   0  0  0  0  0  0  0  0  0  0  0  0
  -23.8520  -29.5360   29.0250 N   0  0  0  0  0  0  0  0  0  0  0  0
  -24.0100  -28.8560   26.8740 O   0  0  0  0  0  0  0  0  0  0  0  0
  -24.2030  -30.1770   29.7200 H   0  0  0  0  0  0  0  0  0  0  0  0
  -22.8070  -27.1450   31.5230 C   0  0  0  0  0  0  0  0  0  0  0  0
  -22.7510  -28.6670   29.4350 C   0  0  0  0  0  3  0  0  0  0  0  0
  -21.6530  -29.4680   30.1730 C   0  0  0  0  0  2  0  0  0  0  0  0
  -21.8310  -29.4760   31.6940 C   0  0  0  0  0  2  0  0  0  0  0  0
  -21.8170  -28.0510   32.2450 C   0  0  0  0  0  2  0  0  0  0  0  0
  -23.2530  -27.4450   30.2090 C   0  0  0  0  0  0  0  0  0  0  0  0
  -24.1950  -26.5870   29.5930 C   0  0  0  0  0  3  0  0  0  0  0  0
  -24.6840  -25.4530   30.2670 C   0  0  0  0  0  3  0  0  0  0  0  0
  -24.2220  -25.1530   31.5600 C   0  0  0  0  0  3  0  0  0  0  0  0
  -23.2830  -25.9940   32.1840 C   0  0  0  0  0  3  0  0  0  0  0  0
  -27.9380  -30.1530   30.6140 C   0  0  0  0  0  3  0  0  0  0  0  0
  -28.0490  -28.6450   31.0670 C   0  0  1  0  0  0  0  0  0  0  0  0
  -26.7430  -28.0690   31.6620 C   0  0  0  0  0  1  0  0  0  0  0  0
  -28.4690  -27.7440   29.8810 C   0  0  0  0  0  1  0  0  0  0  0  0
  -29.1540  -28.5000   32.1430 C   0  0  0  0  0  1  0  0  0  0  0  0
  -27.8540  -31.0350   31.7900 N   0  0  0  0  0  0  0  0  0  0  0  0
  -28.4390  -32.2370   31.8860 C   0  0  0  0  0  0  0  0  0  0  0  0
  -29.1750  -32.6940   31.0110 O   0  0  0  0  0  0  0  0  0  0  0  0
  -27.2270  -30.7420   32.5240 H   0  0  0  0  0  0  0  0  0  0  0  0
  -27.3090  -34.2820   32.8180 C   0  0  0  0  0  1  0  0  0  0  0  0
  -28.1710  -33.0590   33.1650 C   0  0  0  0  0  3  0  0  0  0  0  0
  -30.0880  -32.4230   34.5600 C   0  0  0  0  0  1  0  0  0  0  0  0
  -29.4050  -33.5020   33.8490 N   0  0  0  0  0  0  0  0  0  0  0  0
  -29.2040  -34.2490   34.5070 H   0  0  0  0  0  0  0  0  0  0  0  0
  -30.5810  -18.9190   23.7330 C   0  0  0  0  0  2  0  0  0  0  0  0
  -29.3240  -19.1100   25.8360 C   0  0  0  0  0  0  0  0  0  0  0  0
  -28.8930  -19.9340   27.0440 C   0  0  0  0  0  1  0  0  0  0  0  0
  -30.9660  -20.8810   25.2280 C   0  0  0  0  0  1  0  0  0  0  0  0
  -30.2590  -19.6140   24.9900 N   0  0  0  0  0  0  0  0  0  0  0  0
  -28.7800  -18.0210   25.6520 O   0  0  0  0  0  0  0  0  0  0  0  0
  1  5  1  0
  2  6  2  0
  4  2  1  0
  4  1  2  0
  5  3  2  0
  5 96  1  0
  6 50  1  0
  6  3  1  0
  7 16  1  0
  8 13  1  0
  9  8  1  0
  9 10  1  0
 11 10  1  0
 11 12  1  0
 11 24  1  0
 13  7  1  0
 13 12  1  0
 14  7  2  0
 15  4  1  0
 16 15  1  0
 16 18  1  0
 17 15  2  0
 19 17  1  0
 20 17  1  0
 21 22  2  0
 22 41  1  0
 23 22  1  0
 23 26  1  0
 24 25  1  0
 24 21  1  0
 25 23  2  0
 26 27  2  0
 26 31  1  0
 27 28  1  0
 28 29  2  0
 29 32  1  0
 30 29  1  0
 31 30  2  0
 32 33  1  0
 33 34  1  0
 34 35  2  0
 36 35  1  0
 36 40  1  0
 37 36  2  0
 38 33  2  0
 38 37  1  0
 39 38  1  0
 41 42  1  0
 42 44  1  0
 42 45  1  0
 43 41  2  0
 46 21  1  0
 46 47  1  0
 48 46  1  0
 49 54  1  0
 49 51  2  0
 50 49  1  0
 52 50  1  0
 54 53  1  0
 54 55  1  0
 55 57  1  0
 56 67  2  0
 57 62  1  0
 58 68  1  0
 58 66  1  0
 59 65  1  0
 59 61  1  0
 60 66  1  0
 61 60  1  0
 62 61  2  0
 63 64  1  0
 63 57  2  0
 64 59  2  0
 65 58  1  0
 66 56  1  0
 68 69  1  0
 69 71  1  0
 70 68  2  0
 72 81  1  0
 72 76  1  0
 73 69  1  0
 73 74  1  0
 73 77  1  0
 74 75  1  0
 75 76  1  0
 77 72  2  0
 78 77  1  0
 78 79  2  0
 79 80  1  0
 80 81  2  0
 82 56  1  0
 82 83  1  0
 82 87  1  0
 83 84  1  1
 83 86  1  0
 85 83  1  0
 87 88  1  0
 87 90  1  0
 88 92  1  0
 89 88  2  0
 92 91  1  0
 92 94  1  0
 94 95  1  0
 94 93  1  0
 96100  1  0
 97 98  1  0
100 99  1  0
100 97  1  0
101 97  2  0
M  ISO  4   7 100  16 100  54 101  55 101
M  END
>  <TORSDO>  (78) 
F 20

>  <SCORE>  (78) 
9.457

>  <name>  (78) 
78

>  <ligand_id>  (78) 
78

>  <original_smiles>  (78) 
[H]c1c([H])c([H])c2c(c1[H])C([H])([H])C([H])([H])C([H])([H])C2([H])N([H])C(=O)C1([H])N(C(=O)C([H])(N([H])C(=O)C([H])(N([H])C([H])([H])[H])C([H])([H])[H])C(C([H])([H])[H])(C([H])([H])[H])C([H])([H])[H])C([H])([H])c2c([H])c(OC([H])(C(=O)N([H])c3c([H])c(C(N([H])C(=O)N4C([H])([H])C([H])([H])C([H])([H])C([H])(n5nc(-c6c([H])c([H])c(Oc7c([H])c([H])c(F)c([H])c7F)c([H])c6[H])c(C(=O)N([H])[H])c5N([H])[H])C4([H])[H])=[N+]([H])[H])c([H])c(C([H])([H])N(C(=O)C([H])([H])[H])C([H])([H])[H])c3[H])C([H])([H])[H])c([H])c([H])c2C1([H])[H]

>  <smiles>  (78) 
[H]c1c([H])c([H])c2c(c1[H])C([H])([H])C([H])([H])C([H])([H])C2([H])N([H])C(=O)C1([H])N(C(=O)C([H])(N([H])C(=O)C([H])(N([H])C([H])([H])[H])C([H])([H])[H])C(C([H])([H])[H])(C([H])([H])[H])C([H])([H])[H])C([H])([H])c2c([H])c(OC([H])(C(=O)N([H])c3c([H])c(C(N([H])C(=O)N4C([H])([H])C([H])([H])C([H])([H])C([H])(n5nc(-c6c([H])c([H])c(Oc7c([H])c([H])c(F)c([H])c7F)c([H])c6[H])c(C(=O)N([H])[H])c5N([H])[H])C4([H])[H])=[N+]([H])[H])c([H])c(C([H])([H])N(C(=O)C([H])([H])[H])C([H])([H])[H])c3[H])C([H])([H])[H])c([H])c([H])c2C1([H])[H]

$$$$
79:0:0
     RDKit          3D

 99108  0  0  1  0  0  0  0  0999 V2000
  -28.3080  -22.7050   18.9910 C   0  0  0  0  0  2  0  0  0  0  0  0
  -29.3720  -23.0650   21.1390 C   0  0  0  0  0  2  0  0  0  0  0  0
  -29.1500  -21.4260   18.7450 C   0  0  0  0  0  2  0  0  0  0  0  0
  -30.2540  -21.7770   20.8810 C   0  0  0  0  0  3  0  0  0  0  0  0
  -28.9910  -23.8380   19.8340 C   0  0  1  0  0  0  0  0  0  0  0  0
  -30.6850  -21.1330   22.2040 C   0  0  0  0  0  1  0  0  0  0  0  0
  -30.2680  -24.4000   19.1820 C   0  0  0  0  0  1  0  0  0  0  0  0
  -29.6140  -20.7820   19.9830 N   0  0  0  0  0  0  0  0  0  0  0  0
  -30.6470  -14.6610   20.4630 C   0  0  0  0  0  0  0  0  0  0  0  0
  -30.3950  -12.4160   19.4840 C   0  0  0  0  0  2  0  0  0  0  0  0
  -29.4880  -12.5350   18.2420 C   0  0  0  0  0  2  0  0  0  0  0  0
  -28.0080  -12.3830   18.6460 C   0  0  0  0  0  2  0  0  0  0  0  0
  -27.6170  -13.2780   19.8540 C   0  0  0  0  0  3  0  0  0  0  0  0
  -28.6560  -13.1870   20.9950 C   0  0  0  0  0  2  0  0  0  0  0  0
  -29.9760  -13.4740   20.4230 N   0  0  0  0  0  0  0  0  0  0  0  0
  -31.8540  -14.7030   20.2240 O   0  0  0  0  0  0  0  0  0  0  0  0
  -31.3700  -19.1740   19.1360 C   0  0  0  0  0  0  0  0  0  0  0  0
  -30.1880  -19.4660   19.8070 C   0  0  0  0  0  0  0  0  0  0  0  0
  -30.2870  -17.1360   20.0920 C   0  0  0  0  0  0  0  0  0  0  0  0
  -29.5900  -18.2800   20.3380 N   0  0  0  0  0  0  0  0  0  0  0  0
  -29.9030  -15.8090   20.5510 N   0  0  0  0  0  0  0  0  0  0  0  0
  -31.6940  -17.4540   19.0870 S   0  0  0  0  0  0  0  0  0  0  0  0
  -28.9420  -15.6920   20.8220 H   0  0  0  0  0  0  0  0  0  0  0  0
  -25.2150  -13.8710   20.5530 C   0  0  0  0  0  0  0  0  0  0  0  0
  -24.1450  -13.0960   20.9070 C   0  0  0  0  0  0  0  0  0  0  0  0
  -24.6110  -11.7440   20.8880 C   0  0  0  0  0  0  0  0  0  0  0  0
  -26.2650  -12.9940   20.3290 N   0  0  0  0  0  0  0  0  0  0  0  0
  -25.9060  -11.7100   20.5960 N   0  0  0  0  0  0  0  0  0  0  0  0
  -23.8850  -10.4820   21.0710 C   0  0  0  0  0  0  0  0  0  0  0  0
  -24.3020   -9.5160   22.0150 C   0  0  0  0  0  3  0  0  0  0  0  0
  -23.5750   -8.3180   22.1840 C   0  0  0  0  0  3  0  0  0  0  0  0
  -22.4150   -8.0770   21.4070 C   0  0  0  0  0  0  0  0  0  0  0  0
  -22.0180   -9.0300   20.4530 C   0  0  0  0  0  3  0  0  0  0  0  0
  -22.7470  -10.2190   20.2810 C   0  0  0  0  0  3  0  0  0  0  0  0
  -21.6610   -6.9310   21.4870 O   0  0  0  0  0  0  0  0  0  0  0  0
  -21.5830   -6.1970   22.6420 C   0  0  0  0  0  0  0  0  0  0  0  0
  -21.0800   -6.7500   23.8420 C   0  0  0  0  0  3  0  0  0  0  0  0
  -20.9480   -5.9410   24.9880 C   0  0  0  0  0  3  0  0  0  0  0  0
  -21.3130   -4.5830   24.9380 C   0  0  0  0  0  0  0  0  0  0  0  0
  -21.8110   -4.0290   23.7440 C   0  0  0  0  0  3  0  0  0  0  0  0
  -21.9410   -4.8350   22.5990 C   0  0  0  0  0  0  0  0  0  0  0  0
  -22.4010   -4.2930   21.4450 F   0  0  0  0  0  0  0  0  0  0  0  0
  -21.1810   -3.8030   26.0350 F   0  0  0  0  0  0  0  0  0  0  0  0
  -22.7410  -13.5700   21.1500 C   0  0  0  0  0  0  0  0  0  0  0  0
  -21.9950  -12.8800   22.0050 N   0  0  0  0  0  0  0  0  0  0  0  0
  -22.3120  -14.5920   20.6160 O   0  0  0  0  0  0  0  0  0  0  0  0
  -22.3530  -12.0610   22.4720 H   0  0  0  0  0  0  0  0  0  0  0  0
  -21.0480  -13.1790   22.1920 H   0  0  0  0  0  0  0  0  0  0  0  0
  -25.3750  -15.2430   20.3770 N   0  0  0  0  0  0  0  0  0  0  0  0
  -24.5960  -15.8850   20.4900 H   0  0  0  0  0  0  0  0  0  0  0  0
  -26.2190  -15.6970   20.0540 H   0  0  0  0  0  0  0  0  0  0  0  0
  -33.7070  -20.0770   19.3120 C   0  0  0  0  0  1  0  0  0  0  0  0
  -32.3910  -20.0940   18.5150 C   0  0  0  0  0  3  0  0  0  0  0  0
  -32.6200  -19.8040   17.0850 N   0  0  0  0  0  4  0  0  0  0  0  0
  -33.0440  -18.9030   16.9540 H   0  0  0  0  0  0  0  0  0  0  0  0
  -33.2300  -20.4880   16.6740 H   0  0  0  0  0  0  0  0  0  0  0  0
  -31.7540  -19.8290   16.5770 H   0  0  0  0  0  0  0  0  0  0  0  0
  -27.9440  -25.0380   19.9420 C   0  0  0  0  0  2  0  0  0  0  0  0
  -28.2560  -26.4680   20.1810 O   0  0  0  0  0  0  0  0  0  0  0  0
  -24.6100  -31.9000   23.3020 C   0  0  0  0  0  0  0  0  0  0  0  0
  -27.1560  -27.3520   20.1550 C   0  0  0  0  0  0  0  0  0  0  0  0
  -23.3900  -30.5290   21.6610 C   0  0  0  0  0  3  0  0  0  0  0  0
  -24.8140  -28.9990   20.2080 C   0  0  0  0  0  0  0  0  0  0  0  0
  -25.9360  -30.8320   21.4580 C   0  0  0  0  0  2  0  0  0  0  0  0
  -25.9990  -29.4620   20.7910 C   0  0  0  0  0  0  0  0  0  0  0  0
  -27.1790  -28.6530   20.7480 C   0  0  0  0  0  3  0  0  0  0  0  0
  -25.9300  -26.9510   19.5610 C   0  0  0  0  0  3  0  0  0  0  0  0
  -24.7780  -27.7480   19.5900 C   0  0  0  0  0  3  0  0  0  0  0  0
  -23.5920  -29.8870   20.2700 C   0  0  0  0  0  2  0  0  0  0  0  0
  -24.6660  -31.1010   22.1970 N   0  0  0  0  0  0  0  0  0  0  0  0
  -23.5280  -32.1780   23.8440 O   0  0  0  0  0  0  0  0  0  0  0  0
  -22.7290  -29.4980   22.6070 C   0  0  0  0  0  0  0  0  0  0  0  0
  -21.4030  -29.3140   22.4710 N   0  0  0  0  0  0  0  0  0  0  0  0
  -23.4040  -28.8700   23.4250 O   0  0  0  0  0  0  0  0  0  0  0  0
  -20.9190  -29.8710   21.7820 H   0  0  0  0  0  0  0  0  0  0  0  0
  -18.0220  -28.1110   22.9380 C   0  0  0  0  0  0  0  0  0  0  0  0
  -20.5790  -28.3710   23.2290 C   0  0  0  0  0  3  0  0  0  0  0  0
  -20.6900  -26.9450   22.6410 C   0  0  0  0  0  2  0  0  0  0  0  0
  -19.5940  -26.6260   21.6190 C   0  0  0  0  0  2  0  0  0  0  0  0
  -18.2070  -26.7680   22.2510 C   0  0  0  0  0  2  0  0  0  0  0  0
  -19.1370  -28.8720   23.3800 C   0  0  0  0  0  0  0  0  0  0  0  0
  -18.9110  -30.1320   23.9760 C   0  0  0  0  0  3  0  0  0  0  0  0
  -17.6030  -30.6290   24.1370 C   0  0  0  0  0  3  0  0  0  0  0  0
  -16.5040  -29.8620   23.7150 C   0  0  0  0  0  3  0  0  0  0  0  0
  -16.7140  -28.6060   23.1210 C   0  0  0  0  0  3  0  0  0  0  0  0
  -25.8960  -32.5200   23.9270 C   0  0  0  0  0  3  0  0  0  0  0  0
  -26.3890  -31.7530   25.2140 C   0  0  1  0  0  0  0  0  0  0  0  0
  -25.2840  -31.5410   26.2750 C   0  0  0  0  0  1  0  0  0  0  0  0
  -26.9550  -30.3660   24.8340 C   0  0  0  0  0  1  0  0  0  0  0  0
  -27.5480  -32.5350   25.8770 C   0  0  0  0  0  1  0  0  0  0  0  0
  -25.6070  -33.9250   24.2420 N   0  0  0  0  0  0  0  0  0  0  0  0
  -25.9380  -34.9630   23.4630 C   0  0  0  0  0  0  0  0  0  0  0  0
  -26.5930  -34.8380   22.4250 O   0  0  0  0  0  0  0  0  0  0  0  0
  -25.0270  -34.1010   25.0510 H   0  0  0  0  0  0  0  0  0  0  0  0
  -24.2280  -36.7740   23.1080 C   0  0  0  0  0  1  0  0  0  0  0  0
  -25.4730  -36.3620   23.9110 C   0  0  0  0  0  3  0  0  0  0  0  0
  -27.6220  -37.2380   24.7140 C   0  0  0  0  0  1  0  0  0  0  0  0
  -26.5170  -37.4020   23.7730 N   0  0  0  0  0  0  0  0  0  0  0  0
  -26.1210  -38.3290   23.9080 H   0  0  0  0  0  0  0  0  0  0  0  0
  1  5  1  0
  3  1  1  0
  3  8  1  0
  4  2  1  0
  4  6  1  0
  5  7  1  6
  5 58  1  0
  5  2  1  0
  8  4  1  0
  9 21  1  0
 10 15  1  0
 11 12  1  0
 11 10  1  0
 13 12  1  0
 13 27  1  0
 13 14  1  0
 15  9  1  0
 15 14  1  0
 16  9  2  0
 17 18  2  0
 18  8  1  0
 18 20  1  0
 19 20  2  0
 19 21  1  0
 21 23  1  0
 22 17  1  0
 22 19  1  0
 24 25  2  0
 25 44  1  0
 26 25  1  0
 26 29  1  0
 27 24  1  0
 27 28  1  0
 28 26  2  0
 29 30  1  0
 30 31  2  0
 32 35  1  0
 32 31  1  0
 33 32  2  0
 34 33  1  0
 34 29  2  0
 35 36  1  0
 36 37  1  0
 37 38  2  0
 39 38  1  0
 39 43  1  0
 40 39  2  0
 41 36  2  0
 41 40  1  0
 42 41  1  0
 44 45  1  0
 45 48  1  0
 45 47  1  0
 46 44  2  0
 49 50  1  0
 49 24  1  0
 51 49  1  0
 53 17  1  0
 53 52  1  0
 54 53  1  0
 55 54  1  0
 56 54  1  0
 57 54  1  0
 58 59  1  0
 60 71  2  0
 61 59  1  0
 61 66  1  0
 62 70  1  0
 62 72  1  0
 63 69  1  0
 63 65  1  0
 64 70  1  0
 65 64  1  0
 66 65  2  0
 67 68  1  0
 67 61  2  0
 68 63  2  0
 69 62  1  0
 70 60  1  0
 72 74  2  0
 73 72  1  0
 75 73  1  0
 76 85  2  0
 76 81  1  0
 77 73  1  0
 77 81  1  0
 78 77  1  0
 79 80  1  0
 79 78  1  0
 80 76  1  0
 81 82  2  0
 82 83  1  0
 84 83  2  0
 85 84  1  0
 86 60  1  0
 86 91  1  0
 86 87  1  0
 87 90  1  1
 87 88  1  0
 89 87  1  0
 91 94  1  0
 92 96  1  0
 92 91  1  0
 93 92  2  0
 96 95  1  0
 98 99  1  0
 98 96  1  0
 98 97  1  0
M  ISO  4   9 100  21 100  58 101  59 101
M  END
>  <TORSDO>  (79) 
F 19

>  <SCORE>  (79) 
-14.679

>  <name>  (79) 
79

>  <ligand_id>  (79) 
79

>  <original_smiles>  (79) 
[H]c1c([H])c([H])c2c(c1[H])C([H])([H])C([H])([H])C([H])([H])C2([H])N([H])C(=O)C1([H])N(C(=O)C([H])(N([H])C(=O)C([H])(N([H])C([H])([H])[H])C([H])([H])[H])C(C([H])([H])[H])(C([H])([H])[H])C([H])([H])[H])C([H])([H])c2c([H])c(OC([H])([H])C3(C([H])([H])[H])C([H])([H])C([H])([H])N(c4nc(N([H])C(=O)N5C([H])([H])C([H])([H])C([H])([H])C([H])(n6nc(-c7c([H])c([H])c(Oc8c([H])c([H])c(F)c([H])c8F)c([H])c7[H])c(C(=O)N([H])[H])c6N([H])[H])C5([H])[H])sc4C([H])(C([H])([H])[H])[N+]([H])([H])[H])C([H])(C([H])([H])[H])C3([H])[H])c([H])c([H])c2C1([H])[H]

>  <smiles>  (79) 
[H]c1c([H])c([H])c2c(c1[H])C([H])([H])C([H])([H])C([H])([H])C2([H])N([H])C(=O)C1([H])N(C(=O)C([H])(N([H])C(=O)C([H])(N([H])C([H])([H])[H])C([H])([H])[H])C(C([H])([H])[H])(C([H])([H])[H])C([H])([H])[H])C([H])([H])c2c([H])c(OC([H])([H])C3(C([H])([H])[H])C([H])([H])C([H])([H])N(c4nc(N([H])C(=O)N5C([H])([H])C([H])([H])C([H])([H])C([H])(n6nc(-c7c([H])c([H])c(Oc8c([H])c([H])c(F)c([H])c8F)c([H])c7[H])c(C(=O)N([H])[H])c6N([H])[H])C5([H])[H])sc4C([H])(C([H])([H])[H])[N+]([H])([H])[H])C([H])(C([H])([H])[H])C3([H])[H])c([H])c([H])c2C1([H])[H]

$$$$
80:0:0
     RDKit          3D

 84 91  0  0  1  0  0  0  0  0999 V2000
  -30.2630  -15.8890   20.2800 C   0  0  0  0  0  0  0  0  0  0  0  0
  -30.3890  -13.2780   19.5260 C   0  0  0  0  0  2  0  0  0  0  0  0
  -29.5590  -12.7170   18.3310 C   0  0  0  0  0  2  0  0  0  0  0  0
  -28.1470  -12.3240   18.7790 C   0  0  0  0  0  2  0  0  0  0  0  0
  -27.5760  -13.3710   19.7580 C   0  0  0  0  0  3  0  0  0  0  0  0
  -28.5630  -13.8310   20.8650 C   0  0  0  0  0  2  0  0  0  0  0  0
  -29.7040  -14.5080   20.1850 N   0  0  0  0  0  0  0  0  0  0  0  0
  -31.4990  -15.7020   20.1790 O   0  0  0  0  0  0  0  0  0  0  0  0
  -29.9140  -20.4900   19.5710 C   0  0  0  0  0  2  0  0  0  0  0  0
  -27.9800  -20.0390   20.3860 C   0  0  0  0  0  2  0  0  0  0  0  0
  -30.4550  -18.8200   19.9620 C   0  0  0  0  0  2  0  0  0  0  0  0
  -28.4760  -18.3370   20.7330 C   0  0  0  0  0  2  0  0  0  0  0  0
  -28.7980  -21.5780   20.3200 C   0  0  0  0  0  2  0  0  0  0  0  0
  -29.6870  -17.4100   20.1940 N   0  0  0  0  0  0  0  0  0  0  0  0
  -25.2020  -13.8870   20.4670 C   0  0  0  0  0  0  0  0  0  0  0  0
  -24.1390  -13.1060   20.8180 C   0  0  0  0  0  0  0  0  0  0  0  0
  -24.6170  -11.7590   20.8210 C   0  0  0  0  0  0  0  0  0  0  0  0
  -26.2570  -13.0210   20.2650 N   0  0  0  0  0  0  0  0  0  0  0  0
  -25.9200  -11.7330   20.5440 N   0  0  0  0  0  0  0  0  0  0  0  0
  -23.8890  -10.4960   21.0120 C   0  0  0  0  0  0  0  0  0  0  0  0
  -24.3040   -9.5380   21.9630 C   0  0  0  0  0  3  0  0  0  0  0  0
  -23.5710   -8.3450   22.1450 C   0  0  0  0  0  3  0  0  0  0  0  0
  -22.4080   -8.1020   21.3770 C   0  0  0  0  0  0  0  0  0  0  0  0
  -22.0110   -9.0490   20.4160 C   0  0  0  0  0  3  0  0  0  0  0  0
  -22.7460  -10.2330   20.2330 C   0  0  0  0  0  3  0  0  0  0  0  0
  -21.6480   -6.9600   21.4670 O   0  0  0  0  0  0  0  0  0  0  0  0
  -21.5890   -6.2240   22.6240 C   0  0  0  0  0  0  0  0  0  0  0  0
  -21.1770   -6.7920   23.8490 C   0  0  0  0  0  3  0  0  0  0  0  0
  -21.0630   -5.9840   24.9970 C   0  0  0  0  0  3  0  0  0  0  0  0
  -21.3520   -4.6090   24.9220 C   0  0  0  0  0  0  0  0  0  0  0  0
  -21.7570   -4.0390   23.7020 C   0  0  0  0  0  3  0  0  0  0  0  0
  -21.8720   -4.8450   22.5560 C   0  0  0  0  0  0  0  0  0  0  0  0
  -22.2420   -4.2860   21.3780 F   0  0  0  0  0  0  0  0  0  0  0  0
  -21.2370   -3.8300   26.0230 F   0  0  0  0  0  0  0  0  0  0  0  0
  -22.7320  -13.5800   21.0340 C   0  0  0  0  0  0  0  0  0  0  0  0
  -21.9850  -12.9050   21.8980 N   0  0  0  0  0  0  0  0  0  0  0  0
  -22.3060  -14.5890   20.4710 O   0  0  0  0  0  0  0  0  0  0  0  0
  -22.3430  -12.0910   22.3760 H   0  0  0  0  0  0  0  0  0  0  0  0
  -21.0390  -13.2070   22.0880 H   0  0  0  0  0  0  0  0  0  0  0  0
  -25.3580  -15.2560   20.2690 N   0  0  0  0  0  0  0  0  0  0  0  0
  -24.5830  -15.9060   20.3480 H   0  0  0  0  0  0  0  0  0  0  0  0
  -26.2130  -15.6940   19.9520 H   0  0  0  0  0  0  0  0  0  0  0  0
  -28.0840  -23.4630   19.9180 C   0  0  0  0  0  1  0  0  0  0  0  0
  -28.1950  -25.2910   20.1280 O   0  0  0  0  0  0  0  0  0  0  0  0
  -24.7220  -31.7780   23.0420 C   0  0  0  0  0  0  0  0  0  0  0  0
  -27.2410  -26.5740   20.0620 C   0  0  0  0  0  0  0  0  0  0  0  0
  -23.5360  -30.3700   21.4150 C   0  0  0  0  0  3  0  0  0  0  0  0
  -24.9830  -28.6970   20.0050 C   0  0  0  0  0  0  0  0  0  0  0  0
  -26.1200  -30.4770   21.2980 C   0  0  0  0  0  2  0  0  0  0  0  0
  -26.1830  -29.0280   20.6440 C   0  0  0  0  0  0  0  0  0  0  0  0
  -27.2880  -27.9990   20.6360 C   0  0  0  0  0  3  0  0  0  0  0  0
  -26.0050  -26.4930   19.3610 C   0  0  0  0  0  3  0  0  0  0  0  0
  -24.9420  -27.4570   19.3390 C   0  0  0  0  0  3  0  0  0  0  0  0
  -23.7790  -29.6610   20.0490 C   0  0  0  0  0  2  0  0  0  0  0  0
  -24.8180  -30.9120   21.9700 N   0  0  0  0  0  0  0  0  0  0  0  0
  -23.6270  -32.0800   23.5500 O   0  0  0  0  0  0  0  0  0  0  0  0
  -22.8130  -29.4050   22.3960 C   0  0  0  0  0  0  0  0  0  0  0  0
  -21.4760  -29.2740   22.2960 N   0  0  0  0  0  0  0  0  0  0  0  0
  -23.4720  -28.7680   23.2220 O   0  0  0  0  0  0  0  0  0  0  0  0
  -20.9920  -29.8360   21.6100 H   0  0  0  0  0  0  0  0  0  0  0  0
  -18.0800  -28.1080   22.8820 C   0  0  0  0  0  0  0  0  0  0  0  0
  -20.6510  -28.3420   23.0770 C   0  0  0  0  0  3  0  0  0  0  0  0
  -20.7150  -26.9140   22.4860 C   0  0  0  0  0  2  0  0  0  0  0  0
  -19.5850  -26.6200   21.4950 C   0  0  0  0  0  2  0  0  0  0  0  0
  -18.2230  -26.7700   22.1770 C   0  0  0  0  0  2  0  0  0  0  0  0
  -19.2190  -28.8530   23.2900 C   0  0  0  0  0  0  0  0  0  0  0  0
  -19.0260  -30.1030   23.9180 C   0  0  0  0  0  3  0  0  0  0  0  0
  -17.7310  -30.6090   24.1360 C   0  0  0  0  0  3  0  0  0  0  0  0
  -16.6080  -29.8620   23.7390 C   0  0  0  0  0  3  0  0  0  0  0  0
  -16.7840  -28.6120   23.1180 C   0  0  0  0  0  3  0  0  0  0  0  0
  -25.9790  -32.4410   23.6830 C   0  0  0  0  0  3  0  0  0  0  0  0
  -25.6320  -33.8270   24.0630 N   0  0  0  0  0  0  0  0  0  0  0  0
  -25.9330  -34.9240   23.3550 C   0  0  0  0  0  0  0  0  0  0  0  0
  -26.5860  -34.8790   22.3100 O   0  0  0  0  0  0  0  0  0  0  0  0
  -25.0460  -33.9330   24.8790 H   0  0  0  0  0  0  0  0  0  0  0  0
  -24.1640  -36.7090   23.1370 C   0  0  0  0  0  1  0  0  0  0  0  0
  -25.4380  -36.2880   23.8870 C   0  0  0  0  0  3  0  0  0  0  0  0
  -27.5830  -37.1860   24.6840 C   0  0  0  0  0  1  0  0  0  0  0  0
  -26.4470  -37.3670   23.7840 N   0  0  0  0  0  0  0  0  0  0  0  0
  -26.0280  -38.2720   23.9810 H   0  0  0  0  0  0  0  0  0  0  0  0
  -26.5090  -31.6630   24.9510 C   0  0  1  0  0  0  0  0  0  0  0  0
  -25.4240  -31.4030   26.0240 C   0  0  0  0  0  1  0  0  0  0  0  0
  -27.1050  -30.2940   24.5550 C   0  0  0  0  0  1  0  0  0  0  0  0
  -27.6560  -32.4610   25.6140 C   0  0  0  0  0  1  0  0  0  0  0  0
  2  7  1  0
  3  4  1  0
  3  2  1  0
  5  4  1  0
  5 18  1  0
  5  6  1  0
  7  1  1  0
  7  6  1  0
  8  1  2  0
  9 11  1  0
  9 13  1  0
 10 12  1  0
 11 14  1  0
 13 10  1  0
 14  1  1  0
 14 12  1  0
 15 16  2  0
 16 17  1  0
 16 35  1  0
 17 20  1  0
 18 15  1  0
 18 19  1  0
 19 17  2  0
 20 21  1  0
 21 22  2  0
 23 26  1  0
 23 22  1  0
 24 23  2  0
 25 24  1  0
 25 20  2  0
 26 27  1  0
 27 28  1  0
 28 29  2  0
 30 29  1  0
 30 34  1  0
 31 30  2  0
 32 27  2  0
 32 31  1  0
 33 32  1  0
 35 36  1  0
 36 39  1  0
 36 38  1  0
 37 35  2  0
 40 41  1  0
 40 15  1  0
 42 40  1  0
 43 44  1  0
 45 56  2  0
 46 44  1  0
 46 51  1  0
 47 55  1  0
 47 57  1  0
 48 54  1  0
 48 50  1  0
 49 55  1  0
 50 49  1  0
 51 50  2  0
 52 46  2  0
 53 52  1  0
 53 48  2  0
 54 47  1  0
 55 45  1  0
 57 59  2  0
 58 57  1  0
 60 58  1  0
 61 70  2  0
 61 66  1  0
 62 58  1  0
 62 66  1  0
 63 62  1  0
 64 65  1  0
 64 63  1  0
 65 61  1  0
 66 67  2  0
 67 68  1  0
 69 68  2  0
 70 69  1  0
 71 45  1  0
 71 72  1  0
 71 81  1  0
 72 75  1  0
 73 77  1  0
 73 72  1  0
 74 73  2  0
 77 76  1  0
 79 77  1  0
 79 80  1  0
 79 78  1  0
 81 84  1  1
 81 82  1  0
 83 81  1  0
M  ISO  4   1 100  14 100  43 101  44 101
M  END
>  <TORSDO>  (80) 
F 16

>  <SCORE>  (80) 
-15.898

>  <name>  (80) 
80

>  <ligand_id>  (80) 
80

>  <original_smiles>  (80) 
[H]c1c([H])c([H])c2c(c1[H])C([H])([H])C([H])([H])C([H])([H])C2([H])N([H])C(=O)C1([H])N(C(=O)C([H])(N([H])C(=O)C([H])(N([H])C([H])([H])[H])C([H])([H])[H])C(C([H])([H])[H])(C([H])([H])[H])C([H])([H])[H])C([H])([H])c2c([H])c(OC([H])([H])C3([H])C([H])([H])C([H])([H])N(C(=O)N4C([H])([H])C([H])([H])C([H])([H])C([H])(n5nc(-c6c([H])c([H])c(Oc7c([H])c([H])c(F)c([H])c7F)c([H])c6[H])c(C(=O)N([H])[H])c5N([H])[H])C4([H])[H])C([H])([H])C3([H])[H])c([H])c([H])c2C1([H])[H]

>  <smiles>  (80) 
[H]c1c([H])c([H])c2c(c1[H])C([H])([H])C([H])([H])C([H])([H])C2([H])N([H])C(=O)C1([H])N(C(=O)C([H])(N([H])C(=O)C([H])(N([H])C([H])([H])[H])C([H])([H])[H])C(C([H])([H])[H])(C([H])([H])[H])C([H])([H])[H])C([H])([H])c2c([H])c(OC([H])([H])C3([H])C([H])([H])C([H])([H])N(C(=O)N4C([H])([H])C([H])([H])C([H])([H])C([H])(n5nc(-c6c([H])c([H])c(Oc7c([H])c([H])c(F)c([H])c7F)c([H])c6[H])c(C(=O)N([H])[H])c5N([H])[H])C4([H])[H])C([H])([H])C3([H])[H])c([H])c([H])c2C1([H])[H]

$$$$
81:0:0
     RDKit          3D

 92100  0  0  1  0  0  0  0  0999 V2000
  -28.3760  -23.5570   20.5590 C   0  0  0  0  0  0  0  0  0  0  0  0
  -30.5590  -22.3610   20.6720 C   0  0  0  0  0  1  0  0  0  0  0  0
  -29.1250  -22.3750   20.3430 N   0  0  0  0  0  0  0  0  0  0  0  0
  -27.3790  -23.5000   21.2840 O   0  0  0  0  0  0  0  0  0  0  0  0
  -27.7700  -24.7010   18.4140 C   0  0  0  0  0  1  0  0  0  0  0  0
  -30.0630  -25.1220   19.3150 C   0  0  0  0  0  1  0  0  0  0  0  0
  -28.5770  -24.9440   19.7040 C   0  0  2  0  0  0  0  0  0  0  0  0
  -28.2920  -26.3280   20.3340 O   0  0  0  0  0  0  0  0  0  0  0  0
  -24.6000  -31.9050   23.2010 C   0  0  0  0  0  0  0  0  0  0  0  0
  -27.1850  -27.2250   20.2040 C   0  0  0  0  0  0  0  0  0  0  0  0
  -23.4090  -30.5050   21.5550 C   0  0  0  0  0  3  0  0  0  0  0  0
  -24.8570  -28.9490   20.1460 C   0  0  0  0  0  0  0  0  0  0  0  0
  -25.9580  -30.7890   21.4000 C   0  0  0  0  0  2  0  0  0  0  0  0
  -26.0310  -29.4050   20.7550 C   0  0  0  0  0  0  0  0  0  0  0  0
  -27.1940  -28.5590   20.7680 C   0  0  0  0  0  3  0  0  0  0  0  0
  -25.9580  -26.8570   19.5980 C   0  0  0  0  0  3  0  0  0  0  0  0
  -24.8300  -27.6860   19.5520 C   0  0  0  0  0  3  0  0  0  0  0  0
  -23.6340  -29.8410   20.1750 C   0  0  0  0  0  2  0  0  0  0  0  0
  -24.6760  -31.0850   22.1080 N   0  0  0  0  0  0  0  0  0  0  0  0
  -23.5160  -32.1840   23.7300 O   0  0  0  0  0  0  0  0  0  0  0  0
  -22.7340  -29.4900   22.5150 C   0  0  0  0  0  0  0  0  0  0  0  0
  -21.4040  -29.3240   22.3970 N   0  0  0  0  0  0  0  0  0  0  0  0
  -23.4090  -28.8540   23.3320 O   0  0  0  0  0  0  0  0  0  0  0  0
  -20.9160  -29.8880   21.7160 H   0  0  0  0  0  0  0  0  0  0  0  0
  -18.0200  -28.1660   22.9350 C   0  0  0  0  0  0  0  0  0  0  0  0
  -20.5830  -28.3940   23.1740 C   0  0  0  0  0  3  0  0  0  0  0  0
  -20.6620  -26.9660   22.5900 C   0  0  0  0  0  2  0  0  0  0  0  0
  -19.5430  -26.6670   21.5860 C   0  0  0  0  0  2  0  0  0  0  0  0
  -18.1720  -26.8210   22.2470 C   0  0  0  0  0  2  0  0  0  0  0  0
  -19.1520  -28.9120   23.3580 C   0  0  0  0  0  0  0  0  0  0  0  0
  -18.9540  -30.1720   23.9630 C   0  0  0  0  0  3  0  0  0  0  0  0
  -17.6560  -30.6880   24.1490 C   0  0  0  0  0  3  0  0  0  0  0  0
  -16.5380  -29.9380   23.7450 C   0  0  0  0  0  3  0  0  0  0  0  0
  -16.7220  -28.6780   23.1450 C   0  0  0  0  0  3  0  0  0  0  0  0
  -25.8780  -32.5450   23.8240 C   0  0  0  0  0  3  0  0  0  0  0  0
  -26.3940  -31.7810   25.1050 C   0  0  1  0  0  0  0  0  0  0  0  0
  -25.2990  -31.5430   26.1730 C   0  0  0  0  0  1  0  0  0  0  0  0
  -26.9810  -30.4020   24.7210 C   0  0  0  0  0  1  0  0  0  0  0  0
  -27.5430  -32.5770   25.7680 C   0  0  0  0  0  1  0  0  0  0  0  0
  -25.5670  -33.9440   24.1570 N   0  0  0  0  0  0  0  0  0  0  0  0
  -25.9020  -34.9970   23.4010 C   0  0  0  0  0  0  0  0  0  0  0  0
  -26.5730  -34.8930   22.3700 O   0  0  0  0  0  0  0  0  0  0  0  0
  -24.9720  -34.0970   24.9600 H   0  0  0  0  0  0  0  0  0  0  0  0
  -24.1810  -36.7940   23.0310 C   0  0  0  0  0  1  0  0  0  0  0  0
  -25.4100  -36.3870   23.8570 C   0  0  0  0  0  3  0  0  0  0  0  0
  -27.5430  -37.2540   24.7150 C   0  0  0  0  0  1  0  0  0  0  0  0
  -26.4440  -37.4400   23.7690 N   0  0  0  0  0  0  0  0  0  0  0  0
  -26.0390  -38.3580   23.9300 H   0  0  0  0  0  0  0  0  0  0  0  0
  -28.5350  -20.9810   20.0170 C   0  0  0  0  0  2  0  0  0  0  0  0
  -29.0720  -18.2560   19.5260 C   0  0  0  0  0  3  0  0  0  0  0  0
  -29.2310  -19.5380   20.2270 C   0  0  0  0  0  0  0  0  0  0  0  0
  -29.7820  -17.2730   20.2240 C   0  0  0  0  0  0  0  0  0  0  0  0
  -29.9580  -19.2640   21.3140 N   0  0  0  0  0  0  0  0  0  0  0  0
  -30.3090  -17.8920   21.3210 O   0  0  0  0  0  0  0  0  0  0  0  0
  -30.5910  -14.8230   20.0420 C   0  0  0  0  0  0  0  0  0  0  0  0
  -30.4570  -12.5300   19.0150 C   0  0  0  0  0  2  0  0  0  0  0  0
  -29.4420  -12.5730   17.8500 C   0  0  0  0  0  2  0  0  0  0  0  0
  -27.9990  -12.3950   18.3670 C   0  0  0  0  0  2  0  0  0  0  0  0
  -27.6830  -13.2760   19.6040 C   0  0  0  0  0  3  0  0  0  0  0  0
  -28.7960  -13.1560   20.6660 C   0  0  0  0  0  2  0  0  0  0  0  0
  -30.0500  -13.5570   20.0080 N   0  0  0  0  0  0  0  0  0  0  0  0
  -31.7850  -14.9770   19.7540 O   0  0  0  0  0  0  0  0  0  0  0  0
  -29.6860  -15.8750   20.1110 N   0  0  0  0  0  0  0  0  0  0  0  0
  -28.7390  -15.5410   20.2140 H   0  0  0  0  0  0  0  0  0  0  0  0
  -25.3370  -13.8810   20.4500 C   0  0  0  0  0  0  0  0  0  0  0  0
  -24.2770  -13.1100   20.8510 C   0  0  0  0  0  0  0  0  0  0  0  0
  -24.7260  -11.7580   20.7730 C   0  0  0  0  0  0  0  0  0  0  0  0
  -26.3590  -12.9980   20.1460 N   0  0  0  0  0  0  0  0  0  0  0  0
  -26.0000  -11.7150   20.4070 N   0  0  0  0  0  0  0  0  0  0  0  0
  -23.9970  -10.4970   20.9750 C   0  0  0  0  0  0  0  0  0  0  0  0
  -24.4440   -9.5300   21.9020 C   0  0  0  0  0  3  0  0  0  0  0  0
  -23.7240   -8.3310   22.0870 C   0  0  0  0  0  3  0  0  0  0  0  0
  -22.5420   -8.0910   21.3450 C   0  0  0  0  0  0  0  0  0  0  0  0
  -22.1150   -9.0480   20.4110 C   0  0  0  0  0  3  0  0  0  0  0  0
  -22.8350  -10.2410   20.2230 C   0  0  0  0  0  3  0  0  0  0  0  0
  -21.7870   -6.9470   21.4420 O   0  0  0  0  0  0  0  0  0  0  0  0
  -21.7240   -6.2260   22.6070 C   0  0  0  0  0  0  0  0  0  0  0  0
  -21.2620   -6.7940   23.8130 C   0  0  0  0  0  3  0  0  0  0  0  0
  -21.1490   -5.9930   24.9680 C   0  0  0  0  0  3  0  0  0  0  0  0
  -21.4860   -4.6280   24.9150 C   0  0  0  0  0  0  0  0  0  0  0  0
  -21.9400   -4.0600   23.7130 C   0  0  0  0  0  3  0  0  0  0  0  0
  -22.0560   -4.8570   22.5600 C   0  0  0  0  0  0  0  0  0  0  0  0
  -22.4740   -4.3000   21.3970 F   0  0  0  0  0  0  0  0  0  0  0  0
  -21.3710   -3.8560   26.0230 F   0  0  0  0  0  0  0  0  0  0  0  0
  -22.9000  -13.5940   21.1840 C   0  0  0  0  0  0  0  0  0  0  0  0
  -22.1930  -12.8860   22.0640 N   0  0  0  0  0  0  0  0  0  0  0  0
  -22.4510  -14.6300   20.7000 O   0  0  0  0  0  0  0  0  0  0  0  0
  -22.5700  -12.0460   22.4810 H   0  0  0  0  0  0  0  0  0  0  0  0
  -21.2650  -13.1970   22.3160 H   0  0  0  0  0  0  0  0  0  0  0  0
  -25.5010  -15.2530   20.2970 N   0  0  0  0  0  0  0  0  0  0  0  0
  -24.7480  -15.8960   20.5100 H   0  0  0  0  0  0  0  0  0  0  0  0
  -26.2960  -15.7150   19.8750 H   0  0  0  0  0  0  0  0  0  0  0  0
  1  4  2  0
  3  1  1  0
  3  2  1  0
  7  5  1  6
  6  7  1  0
  7  8  1  0
  7  1  1  0
  9 20  2  0
 10  8  1  0
 10 15  1  0
 11 19  1  0
 11 21  1  0
 12 18  1  0
 12 14  1  0
 13 19  1  0
 14 15  2  0
 14 13  1  0
 16 10  2  0
 17 16  1  0
 17 12  2  0
 18 11  1  0
 19  9  1  0
 21 23  2  0
 22 21  1  0
 24 22  1  0
 25 34  2  0
 25 30  1  0
 26 22  1  0
 26 30  1  0
 27 26  1  0
 28 29  1  0
 28 27  1  0
 29 25  1  0
 30 31  2  0
 31 32  1  0
 33 32  2  0
 34 33  1  0
 35  9  1  0
 35 40  1  0
 35 36  1  0
 36 39  1  1
 36 37  1  0
 38 36  1  0
 40 43  1  0
 41 45  1  0
 41 40  1  0
 42 41  2  0
 45 44  1  0
 47 45  1  0
 47 48  1  0
 47 46  1  0
 49 51  1  0
 49  3  1  0
 50 52  2  0
 50 51  1  0
 51 53  2  0
 52 54  1  0
 53 54  1  0
 55 63  1  0
 56 61  1  0
 57 58  1  0
 57 56  1  0
 59 58  1  0
 59 68  1  0
 59 60  1  0
 61 55  1  0
 61 60  1  0
 62 55  2  0
 63 64  1  0
 63 52  1  0
 65 66  2  0
 66 85  1  0
 67 66  1  0
 67 70  1  0
 68 69  1  0
 68 65  1  0
 69 67  2  0
 70 71  1  0
 71 72  2  0
 73 76  1  0
 73 72  1  0
 74 73  2  0
 75 74  1  0
 75 70  2  0
 76 77  1  0
 77 78  1  0
 78 79  2  0
 80 79  1  0
 80 84  1  0
 81 80  2  0
 82 77  2  0
 82 81  1  0
 83 82  1  0
 85 86  1  0
 86 89  1  0
 86 88  1  0
 87 85  2  0
 90 65  1  0
 90 91  1  0
 92 90  1  0
M  ISO  4   7 101   8 101  55 100  63 100
M  END
>  <TORSDO>  (81) 
F 19

>  <SCORE>  (81) 
-14.317

>  <name>  (81) 
81

>  <ligand_id>  (81) 
81

>  <original_smiles>  (81) 
[H]c1c(C([H])([H])N(C(=O)C(Oc2c([H])c([H])c3c(c2[H])C([H])([H])N(C(=O)C([H])(N([H])C(=O)C([H])(N([H])C([H])([H])[H])C([H])([H])[H])C(C([H])([H])[H])(C([H])([H])[H])C([H])([H])[H])C([H])(C(=O)N([H])C2([H])c4c([H])c([H])c([H])c([H])c4C([H])([H])C([H])([H])C2([H])[H])C3([H])[H])(C([H])([H])[H])C([H])([H])[H])C([H])([H])[H])noc1N([H])C(=O)N1C([H])([H])C([H])([H])C([H])([H])C([H])(n2nc(-c3c([H])c([H])c(Oc4c([H])c([H])c(F)c([H])c4F)c([H])c3[H])c(C(=O)N([H])[H])c2N([H])[H])C1([H])[H]

>  <smiles>  (81) 
[H]c1c(C([H])([H])N(C(=O)C(Oc2c([H])c([H])c3c(c2[H])C([H])([H])N(C(=O)C([H])(N([H])C(=O)C([H])(N([H])C([H])([H])[H])C([H])([H])[H])C(C([H])([H])[H])(C([H])([H])[H])C([H])([H])[H])C([H])(C(=O)N([H])C2([H])c4c([H])c([H])c([H])c([H])c4C([H])([H])C([H])([H])C2([H])[H])C3([H])[H])(C([H])([H])[H])C([H])([H])[H])C([H])([H])[H])noc1N([H])C(=O)N1C([H])([H])C([H])([H])C([H])([H])C([H])(n2nc(-c3c([H])c([H])c(Oc4c([H])c([H])c(F)c([H])c4F)c([H])c3[H])c(C(=O)N([H])[H])c2N([H])[H])C1([H])[H]

$$$$
82:0:0
     RDKit          3D

 98106  0  0  1  0  0  0  0  0999 V2000
  -29.2420  -22.2830   20.3010 C   0  0  0  0  0  0  0  0  0  0  0  0
  -29.9950  -21.2100   19.9890 N   0  0  0  0  0  0  0  0  0  0  0  0
  -28.1530  -22.1980   20.8780 O   0  0  0  0  0  0  0  0  0  0  0  0
  -30.9030  -21.4170   19.5910 H   0  0  0  0  0  0  0  0  0  0  0  0
  -28.6370  -19.1330   20.0290 C   0  0  0  0  0  3  0  0  0  0  0  0
  -28.7460  -17.7710   20.4730 C   0  0  0  0  0  0  0  0  0  0  0  0
  -29.9820  -17.5060   21.0360 C   0  0  0  0  0  0  0  0  0  0  0  0
  -29.7580  -19.8990   20.2560 C   0  0  0  0  0  0  0  0  0  0  0  0
  -31.0070  -18.9190   20.9730 S   0  0  0  0  0  0  0  0  0  0  0  0
  -27.6590  -16.7870   20.3650 C   0  0  0  0  0  0  0  0  0  0  0  0
  -27.7040  -15.6290   20.7920 O   0  0  0  0  0  0  0  0  0  0  0  0
  -25.1860  -16.3040   19.7860 C   0  0  0  0  0  1  0  0  0  0  0  0
  -26.3830  -17.2650   19.6540 C   0  0  0  0  0  2  0  0  0  0  0  0
  -30.5200  -16.2600   21.6920 C   0  0  0  0  0  2  0  0  0  0  0  0
  -30.3950  -14.2760   20.1610 C   0  0  0  0  0  0  0  0  0  0  0  0
  -30.0300  -12.2110   18.8510 C   0  0  0  0  0  2  0  0  0  0  0  0
  -28.9400  -12.4070   17.7790 C   0  0  0  0  0  2  0  0  0  0  0  0
  -27.5340  -12.1830   18.3650 C   0  0  0  0  0  2  0  0  0  0  0  0
  -27.3100  -12.9480   19.6970 C   0  0  0  0  0  3  0  0  0  0  0  0
  -28.4870  -12.7020   20.6640 C   0  0  0  0  0  2  0  0  0  0  0  0
  -29.7310  -13.1040   19.9800 N   0  0  0  0  0  0  0  0  0  0  0  0
  -31.3500  -14.6300   19.4630 O   0  0  0  0  0  0  0  0  0  0  0  0
  -29.9430  -15.0220   21.1770 N   0  0  0  0  0  0  0  0  0  0  0  0
  -29.1550  -14.6570   21.6930 H   0  0  0  0  0  0  0  0  0  0  0  0
  -24.9830  -13.4170   20.6960 C   0  0  0  0  0  0  0  0  0  0  0  0
  -23.9960  -12.5800   21.1450 C   0  0  0  0  0  0  0  0  0  0  0  0
  -24.4990  -11.2530   20.9800 C   0  0  0  0  0  0  0  0  0  0  0  0
  -26.0290  -12.5950   20.3060 N   0  0  0  0  0  0  0  0  0  0  0  0
  -25.7450  -11.2860   20.5280 N   0  0  0  0  0  0  0  0  0  0  0  0
  -23.8470   -9.9510   21.1720 C   0  0  0  0  0  0  0  0  0  0  0  0
  -24.3520   -8.9980   22.0840 C   0  0  0  0  0  3  0  0  0  0  0  0
  -23.6970   -7.7600   22.2630 C   0  0  0  0  0  3  0  0  0  0  0  0
  -22.5220   -7.4660   21.5320 C   0  0  0  0  0  0  0  0  0  0  0  0
  -22.0370   -8.4080   20.6070 C   0  0  0  0  0  3  0  0  0  0  0  0
  -22.6920   -9.6360   20.4260 C   0  0  0  0  0  3  0  0  0  0  0  0
  -21.8340   -6.2800   21.6230 O   0  0  0  0  0  0  0  0  0  0  0  0
  -21.7530   -5.5840   22.8020 C   0  0  0  0  0  0  0  0  0  0  0  0
  -21.1660   -6.1410   23.9600 C   0  0  0  0  0  3  0  0  0  0  0  0
  -21.0430   -5.3650   25.1300 C   0  0  0  0  0  3  0  0  0  0  0  0
  -21.4950   -4.0320   25.1410 C   0  0  0  0  0  0  0  0  0  0  0  0
  -22.0740   -3.4730   23.9880 C   0  0  0  0  0  3  0  0  0  0  0  0
  -22.2000   -4.2470   22.8210 C   0  0  0  0  0  0  0  0  0  0  0  0
  -22.7390   -3.6980   21.7070 F   0  0  0  0  0  0  0  0  0  0  0  0
  -21.3690   -3.2830   26.2620 F   0  0  0  0  0  0  0  0  0  0  0  0
  -22.6240  -12.9790   21.6030 C   0  0  0  0  0  0  0  0  0  0  0  0
  -22.0380  -12.2170   22.5210 N   0  0  0  0  0  0  0  0  0  0  0  0
  -22.0800  -13.9990   21.1810 O   0  0  0  0  0  0  0  0  0  0  0  0
  -22.4900  -11.3900   22.8820 H   0  0  0  0  0  0  0  0  0  0  0  0
  -21.1220  -12.4650   22.8690 H   0  0  0  0  0  0  0  0  0  0  0  0
  -25.0690  -14.8000   20.5640 N   0  0  0  0  0  0  0  0  0  0  0  0
  -24.2690  -15.3980   20.7370 H   0  0  0  0  0  0  0  0  0  0  0  0
  -25.8260  -15.2740   20.0890 H   0  0  0  0  0  0  0  0  0  0  0  0
  -29.8350  -23.6620   19.9410 C   0  0  0  0  0  2  0  0  0  0  0  0
  -28.9500  -24.5520   19.0570 C   0  0  0  0  0  0  0  0  0  0  0  0
  -28.0390  -24.1180   18.2850 N   0  0  0  0  0  0  0  0  0  0  0  0
  -27.9200  -23.1110   18.3450 H   0  0  0  0  0  0  0  0  0  0  0  0
  -29.3180  -26.0420   19.0750 C   0  0  0  0  0  2  0  0  0  0  0  0
  -28.9030  -26.7570   20.2500 O   0  0  0  0  0  0  0  0  0  0  0  0
  -24.8310  -31.8160   23.2010 C   0  0  0  0  0  0  0  0  0  0  0  0
  -27.7020  -27.4370   20.2120 C   0  0  0  0  0  0  0  0  0  0  0  0
  -23.7250  -30.3780   21.5220 C   0  0  0  0  0  3  0  0  0  0  0  0
  -25.2650  -28.8760   20.1570 C   0  0  0  0  0  0  0  0  0  0  0  0
  -26.2460  -30.7970   21.4180 C   0  0  0  0  0  2  0  0  0  0  0  0
  -26.3880  -29.4260   20.7890 C   0  0  0  0  0  0  0  0  0  0  0  0
  -27.6050  -28.7070   20.8270 C   0  0  0  0  0  3  0  0  0  0  0  0
  -26.5530  -26.8990   19.5880 C   0  0  0  0  0  3  0  0  0  0  0  0
  -25.3410  -27.6090   19.5620 C   0  0  0  0  0  3  0  0  0  0  0  0
  -24.0010  -29.7040   20.1530 C   0  0  0  0  0  2  0  0  0  0  0  0
  -24.9500  -31.0130   22.1060 N   0  0  0  0  0  0  0  0  0  0  0  0
  -23.7250  -32.0610   23.7010 O   0  0  0  0  0  0  0  0  0  0  0  0
  -23.0660  -29.3410   22.4600 C   0  0  0  0  0  0  0  0  0  0  0  0
  -21.7480  -29.1420   22.3020 N   0  0  0  0  0  0  0  0  0  0  0  0
  -23.7400  -28.7180   23.2860 O   0  0  0  0  0  0  0  0  0  0  0  0
  -21.2670  -29.6970   21.6090 H   0  0  0  0  0  0  0  0  0  0  0  0
  -18.3670  -27.9560   22.7690 C   0  0  0  0  0  0  0  0  0  0  0  0
  -20.9270  -28.1890   23.0490 C   0  0  0  0  0  3  0  0  0  0  0  0
  -21.0220  -26.7730   22.4350 C   0  0  0  0  0  2  0  0  0  0  0  0
  -19.9180  -26.4840   21.4130 C   0  0  0  0  0  2  0  0  0  0  0  0
  -18.5360  -26.6230   22.0600 C   0  0  0  0  0  2  0  0  0  0  0  0
  -19.4920  -28.6980   23.2200 C   0  0  0  0  0  0  0  0  0  0  0  0
  -19.2820  -29.9500   23.8400 C   0  0  0  0  0  3  0  0  0  0  0  0
  -17.9820  -30.4570   24.0160 C   0  0  0  0  0  3  0  0  0  0  0  0
  -16.8710  -29.7100   23.5840 C   0  0  0  0  0  3  0  0  0  0  0  0
  -17.0660  -28.4630   22.9650 C   0  0  0  0  0  3  0  0  0  0  0  0
  -26.0780  -32.4800   23.8630 C   0  0  0  0  0  3  0  0  0  0  0  0
  -25.7060  -33.8510   24.2360 N   0  0  0  0  0  0  0  0  0  0  0  0
  -25.9960  -34.9420   23.5130 C   0  0  0  0  0  0  0  0  0  0  0  0
  -26.6780  -34.9010   22.4850 O   0  0  0  0  0  0  0  0  0  0  0  0
  -25.1030  -33.9530   25.0380 H   0  0  0  0  0  0  0  0  0  0  0  0
  -24.1890  -36.6580   23.1900 C   0  0  0  0  0  1  0  0  0  0  0  0
  -25.4380  -36.2900   24.0080 C   0  0  0  0  0  3  0  0  0  0  0  0
  -27.5190  -37.2430   24.8950 C   0  0  0  0  0  1  0  0  0  0  0  0
  -26.4210  -37.3920   23.9420 N   0  0  0  0  0  0  0  0  0  0  0  0
  -25.9730  -38.2880   24.1140 H   0  0  0  0  0  0  0  0  0  0  0  0
  -26.6130  -31.6870   25.1170 C   0  0  1  0  0  0  0  0  0  0  0  0
  -25.5100  -31.3220   26.1380 C   0  0  0  0  0  1  0  0  0  0  0  0
  -27.3050  -30.3760   24.6780 C   0  0  0  0  0  1  0  0  0  0  0  0
  -27.6810  -32.5290   25.8530 C   0  0  0  0  0  1  0  0  0  0  0  0
  1  3  2  0
  2  8  1  0
  2  1  1  0
  4  2  1  0
  5  8  2  0
  5  6  1  0
  6  7  2  0
  7 14  1  0
  8  9  1  0
  9  7  1  0
 10  6  1  0
 10 11  2  0
 13 12  1  0
 13 10  1  0
 15 23  1  0
 16 21  1  0
 17 18  1  0
 17 16  1  0
 19 18  1  0
 19 28  1  0
 19 20  1  0
 21 15  1  0
 21 20  1  0
 22 15  2  0
 23 14  1  0
 23 24  1  0
 25 26  2  0
 26 45  1  0
 27 26  1  0
 27 30  1  0
 28 29  1  0
 28 25  1  0
 29 27  2  0
 30 31  1  0
 31 32  2  0
 33 36  1  0
 33 32  1  0
 34 33  2  0
 35 34  1  0
 35 30  2  0
 36 37  1  0
 37 42  2  0
 37 38  1  0
 38 39  2  0
 39 40  1  0
 40 44  1  0
 41 40  2  0
 42 41  1  0
 43 42  1  0
 45 46  1  0
 46 49  1  0
 46 48  1  0
 47 45  2  0
 50 25  1  0
 50 51  1  0
 52 50  1  0
 53  1  1  0
 54 57  1  0
 54 53  1  0
 55 56  1  0
 55 54  2  0
 57 58  1  0
 59 70  2  0
 60 58  1  0
 60 65  1  0
 61 69  1  0
 61 71  1  0
 62 64  1  0
 63 69  1  0
 64 65  2  0
 64 63  1  0
 66 60  2  0
 67 66  1  0
 67 62  2  0
 68 62  1  0
 68 61  1  0
 69 59  1  0
 71 73  2  0
 72 71  1  0
 74 72  1  0
 75 84  2  0
 75 80  1  0
 76 72  1  0
 76 80  1  0
 77 76  1  0
 78 79  1  0
 78 77  1  0
 79 75  1  0
 80 81  2  0
 81 82  1  0
 83 82  2  0
 84 83  1  0
 85 59  1  0
 85 86  1  0
 85 95  1  0
 86 89  1  0
 87 91  1  0
 87 86  1  0
 88 87  2  0
 91 90  1  0
 93 91  1  0
 93 94  1  0
 93 92  1  0
 95 98  1  1
 95 96  1  0
 97 95  1  0
M  ISO  4  15 100  23 100  57 101  58 101
M  END
>  <TORSDO>  (82) 
F 23

>  <SCORE>  (82) 
-11.790

>  <name>  (82) 
82

>  <ligand_id>  (82) 
82

>  <original_smiles>  (82) 
[H]N=C(C([H])([H])Oc1c([H])c([H])c2c(c1[H])C([H])([H])N(C(=O)C([H])(N([H])C(=O)C([H])(N([H])C([H])([H])[H])C([H])([H])[H])C(C([H])([H])[H])(C([H])([H])[H])C([H])([H])[H])C([H])(C(=O)N([H])C1([H])c3c([H])c([H])c([H])c([H])c3C([H])([H])C([H])([H])C1([H])[H])C2([H])[H])C([H])([H])C(=O)N([H])c1sc(C([H])([H])N([H])C(=O)N2C([H])([H])C([H])([H])C([H])([H])C([H])(n3nc(-c4c([H])c([H])c(Oc5c([H])c([H])c(F)c([H])c5F)c([H])c4[H])c(C(=O)N([H])[H])c3N([H])[H])C2([H])[H])c(C(=O)C([H])([H])C([H])([H])[H])c1[H]

>  <smiles>  (82) 
[H]N=C(C([H])([H])Oc1c([H])c([H])c2c(c1[H])C([H])([H])N(C(=O)C([H])(N([H])C(=O)C([H])(N([H])C([H])([H])[H])C([H])([H])[H])C(C([H])([H])[H])(C([H])([H])[H])C([H])([H])[H])C([H])(C(=O)N([H])C1([H])c3c([H])c([H])c([H])c([H])c3C([H])([H])C([H])([H])C1([H])[H])C2([H])[H])C([H])([H])C(=O)N([H])c1sc(C([H])([H])N([H])C(=O)N2C([H])([H])C([H])([H])C([H])([H])C([H])(n3nc(-c4c([H])c([H])c(Oc5c([H])c([H])c(F)c([H])c5F)c([H])c4[H])c(C(=O)N([H])[H])c3N([H])[H])C2([H])[H])c(C(=O)C([H])([H])C([H])([H])[H])c1[H]

$$$$
83:0:0
     RDKit          3D

 92101  0  0  1  0  0  0  0  0999 V2000
  -29.3120  -21.0240   20.5730 C   0  0  0  0  0  0  0  0  0  0  0  0
  -28.7180  -22.3300   19.8540 C   0  0  0  0  0  2  0  0  0  0  0  0
  -29.1630  -23.6090   21.9460 C   0  0  0  0  0  2  0  0  0  0  0  0
  -30.1850  -22.4990   22.2790 C   0  0  0  0  0  2  0  0  0  0  0  0
  -29.0430  -23.7930   20.4340 C   0  0  0  0  0  3  0  0  0  0  0  0
  -29.9020  -21.1830   21.7010 N   0  0  0  0  0  0  0  0  0  0  0  0
  -28.5300  -18.1500   18.1370 C   0  0  0  0  0  3  0  0  0  0  0  0
  -28.6440  -19.4270   18.7080 C   0  0  0  0  0  3  0  0  0  0  0  0
  -28.9750  -17.0220   18.8480 C   0  0  0  0  0  3  0  0  0  0  0  0
  -29.1950  -19.5720   19.9940 C   0  0  0  0  0  0  0  0  0  0  0  0
  -29.5340  -17.1510   20.1370 C   0  0  0  0  0  0  0  0  0  0  0  0
  -29.6160  -18.4300   20.6860 N   0  0  0  0  0  0  0  0  0  0  0  0
  -30.5530  -14.7930   20.4380 C   0  0  0  0  0  0  0  0  0  0  0  0
  -30.3850  -12.5150   19.4370 C   0  0  0  0  0  2  0  0  0  0  0  0
  -29.4580  -12.6110   18.2030 C   0  0  0  0  0  2  0  0  0  0  0  0
  -27.9830  -12.4410   18.6200 C   0  0  0  0  0  2  0  0  0  0  0  0
  -27.6010  -13.3080   19.8480 C   0  0  0  0  0  3  0  0  0  0  0  0
  -28.6510  -13.1950   20.9760 C   0  0  0  0  0  2  0  0  0  0  0  0
  -29.9570  -13.5510   20.4060 N   0  0  0  0  0  0  0  0  0  0  0  0
  -31.7110  -14.9280   20.0260 O   0  0  0  0  0  0  0  0  0  0  0  0
  -29.7910  -15.8770   20.8350 N   0  0  0  0  0  0  0  0  0  0  0  0
  -29.0140  -15.5970   21.4120 H   0  0  0  0  0  0  0  0  0  0  0  0
  -25.2020  -13.8900   20.5480 C   0  0  0  0  0  0  0  0  0  0  0  0
  -24.1350  -13.1120   20.9050 C   0  0  0  0  0  0  0  0  0  0  0  0
  -24.6030  -11.7620   20.8750 C   0  0  0  0  0  0  0  0  0  0  0  0
  -26.2520  -13.0150   20.3190 N   0  0  0  0  0  0  0  0  0  0  0  0
  -25.8960  -11.7290   20.5760 N   0  0  0  0  0  0  0  0  0  0  0  0
  -23.8790  -10.4960   21.0540 C   0  0  0  0  0  0  0  0  0  0  0  0
  -24.3060   -9.5280   21.9890 C   0  0  0  0  0  3  0  0  0  0  0  0
  -23.5830   -8.3280   22.1580 C   0  0  0  0  0  3  0  0  0  0  0  0
  -22.4170   -8.0890   21.3910 C   0  0  0  0  0  0  0  0  0  0  0  0
  -22.0090   -9.0440   20.4460 C   0  0  0  0  0  3  0  0  0  0  0  0
  -22.7340  -10.2360   20.2740 C   0  0  0  0  0  3  0  0  0  0  0  0
  -21.6670   -6.9400   21.4690 O   0  0  0  0  0  0  0  0  0  0  0  0
  -21.6050   -6.1980   22.6200 C   0  0  0  0  0  0  0  0  0  0  0  0
  -21.1440   -6.7460   23.8380 C   0  0  0  0  0  3  0  0  0  0  0  0
  -21.0300   -5.9290   24.9790 C   0  0  0  0  0  3  0  0  0  0  0  0
  -21.3670   -4.5640   24.9070 C   0  0  0  0  0  0  0  0  0  0  0  0
  -21.8230   -4.0150   23.6960 C   0  0  0  0  0  3  0  0  0  0  0  0
  -21.9390   -4.8300   22.5550 C   0  0  0  0  0  0  0  0  0  0  0  0
  -22.3580   -4.2910   21.3860 F   0  0  0  0  0  0  0  0  0  0  0  0
  -21.2510   -3.7770   26.0020 F   0  0  0  0  0  0  0  0  0  0  0  0
  -22.7340  -13.5830   21.1680 C   0  0  0  0  0  0  0  0  0  0  0  0
  -21.9990  -12.8780   22.0200 N   0  0  0  0  0  0  0  0  0  0  0  0
  -22.3000  -14.6130   20.6530 O   0  0  0  0  0  0  0  0  0  0  0  0
  -22.3630  -12.0470   22.4620 H   0  0  0  0  0  0  0  0  0  0  0  0
  -21.0590  -13.1780   22.2390 H   0  0  0  0  0  0  0  0  0  0  0  0
  -25.3600  -15.2630   20.3790 N   0  0  0  0  0  0  0  0  0  0  0  0
  -24.5800  -15.9020   20.4860 H   0  0  0  0  0  0  0  0  0  0  0  0
  -26.1950  -15.7160   20.0310 H   0  0  0  0  0  0  0  0  0  0  0  0
  -28.0410  -24.9970   20.0340 C   0  0  0  0  0  2  0  0  0  0  0  0
  -28.2940  -26.4460   20.3290 O   0  0  0  0  0  0  0  0  0  0  0  0
  -24.6390  -31.9640   23.3180 C   0  0  0  0  0  0  0  0  0  0  0  0
  -27.2070  -27.3510   20.2600 C   0  0  0  0  0  0  0  0  0  0  0  0
  -23.4280  -30.5840   21.6690 C   0  0  0  0  0  3  0  0  0  0  0  0
  -24.8680  -29.0230   20.2440 C   0  0  0  0  0  0  0  0  0  0  0  0
  -25.9770  -30.8630   21.5050 C   0  0  0  0  0  2  0  0  0  0  0  0
  -26.0430  -29.4840   20.8500 C   0  0  0  0  0  0  0  0  0  0  0  0
  -27.2140  -28.6600   20.8510 C   0  0  0  0  0  3  0  0  0  0  0  0
  -26.0060  -26.9640   19.6180 C   0  0  0  0  0  3  0  0  0  0  0  0
  -24.8530  -27.7700   19.6180 C   0  0  0  0  0  3  0  0  0  0  0  0
  -23.6460  -29.9170   20.2870 C   0  0  0  0  0  2  0  0  0  0  0  0
  -24.7010  -31.1540   22.2200 N   0  0  0  0  0  0  0  0  0  0  0  0
  -23.5550  -32.2530   23.8470 O   0  0  0  0  0  0  0  0  0  0  0  0
  -22.7480  -29.5710   22.6230 C   0  0  0  0  0  0  0  0  0  0  0  0
  -21.4240  -29.3950   22.4790 N   0  0  0  0  0  0  0  0  0  0  0  0
  -23.4130  -28.9470   23.4540 O   0  0  0  0  0  0  0  0  0  0  0  0
  -20.9450  -29.9510   21.7830 H   0  0  0  0  0  0  0  0  0  0  0  0
  -18.0390  -28.1980   22.9310 C   0  0  0  0  0  0  0  0  0  0  0  0
  -20.5910  -28.4630   23.2430 C   0  0  0  0  0  3  0  0  0  0  0  0
  -20.7060  -27.0270   22.6830 C   0  0  0  0  0  2  0  0  0  0  0  0
  -19.6220  -26.6940   21.6520 C   0  0  0  0  0  2  0  0  0  0  0  0
  -18.2290  -26.8430   22.2700 C   0  0  0  0  0  2  0  0  0  0  0  0
  -19.1480  -28.9650   23.3740 C   0  0  0  0  0  0  0  0  0  0  0  0
  -18.9180  -30.2310   23.9540 C   0  0  0  0  0  3  0  0  0  0  0  0
  -17.6090  -30.7320   24.0930 C   0  0  0  0  0  3  0  0  0  0  0  0
  -16.5140  -29.9620   23.6650 C   0  0  0  0  0  3  0  0  0  0  0  0
  -16.7290  -28.6980   23.0890 C   0  0  0  0  0  3  0  0  0  0  0  0
  -25.9240  -32.5840   23.9470 C   0  0  0  0  0  3  0  0  0  0  0  0
  -25.6340  -33.9910   24.2580 N   0  0  0  0  0  0  0  0  0  0  0  0
  -25.9800  -35.0290   23.4860 C   0  0  0  0  0  0  0  0  0  0  0  0
  -26.6470  -34.9020   22.4540 O   0  0  0  0  0  0  0  0  0  0  0  0
  -25.0430  -34.1630   25.0580 H   0  0  0  0  0  0  0  0  0  0  0  0
  -24.2780  -36.8450   23.1100 C   0  0  0  0  0  1  0  0  0  0  0  0
  -25.5130  -36.4310   23.9260 C   0  0  0  0  0  3  0  0  0  0  0  0
  -27.6600  -37.2990   24.7460 C   0  0  0  0  0  1  0  0  0  0  0  0
  -26.5620  -37.4670   23.7980 N   0  0  0  0  0  0  0  0  0  0  0  0
  -26.1690  -38.3950   23.9310 H   0  0  0  0  0  0  0  0  0  0  0  0
  -26.4110  -31.8210   25.2390 C   0  0  1  0  0  0  0  0  0  0  0  0
  -25.3000  -31.6160   26.2980 C   0  0  0  0  0  1  0  0  0  0  0  0
  -26.9760  -30.4280   24.8740 C   0  0  0  0  0  1  0  0  0  0  0  0
  -27.5640  -32.6050   25.9080 C   0  0  0  0  0  1  0  0  0  0  0  0
  1  6  2  0
  2  5  1  0
  2  1  1  0
  3  4  1  0
  5 51  1  0
  5  3  1  0
  6  4  1  0
  7  8  2  0
  7  9  1  0
  8 10  1  0
  9 11  2  0
 10  1  1  0
 10 12  2  0
 11 12  1  0
 11 21  1  0
 13 21  1  0
 14 19  1  0
 15 16  1  0
 15 14  1  0
 17 16  1  0
 17 26  1  0
 17 18  1  0
 19 13  1  0
 19 18  1  0
 20 13  2  0
 21 22  1  0
 23 24  2  0
 24 43  1  0
 25 24  1  0
 25 28  1  0
 26 23  1  0
 26 27  1  0
 27 25  2  0
 28 29  1  0
 29 30  2  0
 31 34  1  0
 31 30  1  0
 32 31  2  0
 33 32  1  0
 33 28  2  0
 34 35  1  0
 35 36  1  0
 36 37  2  0
 38 37  1  0
 38 42  1  0
 39 38  2  0
 40 35  2  0
 40 39  1  0
 41 40  1  0
 43 44  1  0
 44 47  1  0
 44 46  1  0
 45 43  2  0
 48 49  1  0
 48 23  1  0
 50 48  1  0
 51 52  1  0
 53 64  2  0
 54 52  1  0
 54 59  1  0
 55 63  1  0
 55 65  1  0
 56 62  1  0
 56 58  1  0
 57 63  1  0
 58 59  2  0
 58 57  1  0
 60 61  1  0
 60 54  2  0
 61 56  2  0
 62 55  1  0
 63 53  1  0
 65 67  2  0
 66 65  1  0
 68 66  1  0
 69 78  2  0
 69 74  1  0
 70 66  1  0
 70 74  1  0
 71 70  1  0
 72 73  1  0
 72 71  1  0
 73 69  1  0
 74 75  2  0
 75 76  1  0
 77 76  2  0
 78 77  1  0
 79 53  1  0
 79 80  1  0
 79 89  1  0
 80 83  1  0
 81 85  1  0
 81 80  1  0
 82 81  2  0
 85 84  1  0
 87 85  1  0
 87 88  1  0
 87 86  1  0
 89 92  1  1
 89 90  1  0
 91 89  1  0
M  ISO  4  13 100  21 100  51 101  52 101
M  END
>  <TORSDO>  (83) 
F 18

>  <SCORE>  (83) 
-15.052

>  <name>  (83) 
83

>  <ligand_id>  (83) 
83

>  <original_smiles>  (83) 
[H]c1c(C2=NC([H])([H])C([H])([H])C([H])(C([H])([H])Oc3c([H])c([H])c4c(c3[H])C([H])([H])N(C(=O)C([H])(N([H])C(=O)C([H])(N([H])C([H])([H])[H])C([H])([H])[H])C(C([H])([H])[H])(C([H])([H])[H])C([H])([H])[H])C([H])(C(=O)N([H])C3([H])c5c([H])c([H])c([H])c([H])c5C([H])([H])C([H])([H])C3([H])[H])C4([H])[H])C2([H])[H])nc(N([H])C(=O)N2C([H])([H])C([H])([H])C([H])([H])C([H])(n3nc(-c4c([H])c([H])c(Oc5c([H])c([H])c(F)c([H])c5F)c([H])c4[H])c(C(=O)N([H])[H])c3N([H])[H])C2([H])[H])c([H])c1[H]

>  <smiles>  (83) 
[H]c1c(C2=NC([H])([H])C([H])([H])C([H])(C([H])([H])Oc3c([H])c([H])c4c(c3[H])C([H])([H])N(C(=O)C([H])(N([H])C(=O)C([H])(N([H])C([H])([H])[H])C([H])([H])[H])C(C([H])([H])[H])(C([H])([H])[H])C([H])([H])[H])C([H])(C(=O)N([H])C3([H])c5c([H])c([H])c([H])c([H])c5C([H])([H])C([H])([H])C3([H])[H])C4([H])[H])C2([H])[H])nc(N([H])C(=O)N2C([H])([H])C([H])([H])C([H])([H])C([H])(n3nc(-c4c([H])c([H])c(Oc5c([H])c([H])c(F)c([H])c5F)c([H])c4[H])c(C(=O)N([H])[H])c3N([H])[H])C2([H])[H])c([H])c1[H]

$$$$
84:0:0
     RDKit          3D

101110  0  0  1  0  0  0  0  0999 V2000
  -29.9920  -21.8450   20.6970 C   0  0  0  0  0  3  0  0  0  0  0  0
  -30.8390  -20.8490   20.7540 N   0  0  0  0  0  0  0  0  0  0  0  0
  -29.1890  -18.9600   20.5390 C   0  0  0  0  0  3  0  0  0  0  0  0
  -29.1410  -17.5270   20.5930 C   0  0  0  0  0  0  0  0  0  0  0  0
  -30.4440  -19.4940   20.6720 C   0  0  0  0  0  0  0  0  0  0  0  0
  -30.3320  -16.8350   20.7090 C   0  0  0  0  0  0  0  0  0  0  0  0
  -31.5780  -18.1140   20.8330 S   0  0  0  0  0  0  0  0  0  0  0  0
  -30.8880  -14.5390   19.9030 C   0  0  0  0  0  0  0  0  0  0  0  0
  -30.5250  -12.3640   18.7080 C   0  0  0  0  0  2  0  0  0  0  0  0
  -29.5330  -12.4750   17.5330 C   0  0  0  0  0  2  0  0  0  0  0  0
  -28.0890  -12.2830   18.0220 C   0  0  0  0  0  2  0  0  0  0  0  0
  -27.7660  -13.1520   19.2650 C   0  0  0  0  0  3  0  0  0  0  0  0
  -28.8680  -13.0230   20.3460 C   0  0  0  0  0  2  0  0  0  0  0  0
  -30.1710  -13.3680   19.7430 N   0  0  0  0  0  0  0  0  0  0  0  0
  -31.8950  -14.7430   19.2190 O   0  0  0  0  0  0  0  0  0  0  0  0
  -30.7800  -15.0410   22.2550 C   0  0  0  0  0  1  0  0  0  0  0  0
  -30.5030  -15.4530   20.8710 N   0  0  0  0  0  0  0  0  0  0  0  0
  -25.3580  -13.6850   20.0070 C   0  0  0  0  0  0  0  0  0  0  0  0
  -24.3460  -12.9190   20.4960 C   0  0  0  0  0  0  0  0  0  0  0  0
  -24.8560  -11.5830   20.5190 C   0  0  0  0  0  0  0  0  0  0  0  0
  -26.4410  -12.8450   19.8030 N   0  0  0  0  0  0  0  0  0  0  0  0
  -26.1350  -11.5700   20.1620 N   0  0  0  0  0  0  0  0  0  0  0  0
  -24.1700  -10.3160   20.7930 C   0  0  0  0  0  0  0  0  0  0  0  0
  -24.6210   -9.4400   21.8030 C   0  0  0  0  0  3  0  0  0  0  0  0
  -23.9310   -8.2380   22.0660 C   0  0  0  0  0  3  0  0  0  0  0  0
  -22.7770   -7.9040   21.3200 C   0  0  0  0  0  0  0  0  0  0  0  0
  -22.3460   -8.7710   20.3000 C   0  0  0  0  0  3  0  0  0  0  0  0
  -23.0350   -9.9640   20.0370 C   0  0  0  0  0  3  0  0  0  0  0  0
  -22.0600   -6.7480   21.4890 O   0  0  0  0  0  0  0  0  0  0  0  0
  -21.9600   -6.1350   22.7130 C   0  0  0  0  0  0  0  0  0  0  0  0
  -21.4360   -6.7980   23.8430 C   0  0  0  0  0  3  0  0  0  0  0  0
  -21.2970   -6.1050   25.0610 C   0  0  0  0  0  3  0  0  0  0  0  0
  -21.6620   -4.7500   25.1490 C   0  0  0  0  0  0  0  0  0  0  0  0
  -22.1790   -4.0870   24.0220 C   0  0  0  0  0  3  0  0  0  0  0  0
  -22.3240   -4.7780   22.8070 C   0  0  0  0  0  0  0  0  0  0  0  0
  -22.8010   -4.1290   21.7190 F   0  0  0  0  0  0  0  0  0  0  0  0
  -21.5200   -4.0800   26.3180 F   0  0  0  0  0  0  0  0  0  0  0  0
  -22.9500  -13.3790   20.7980 C   0  0  0  0  0  0  0  0  0  0  0  0
  -22.2720  -12.7290   21.7360 N   0  0  0  0  0  0  0  0  0  0  0  0
  -22.4730  -14.3630   20.2300 O   0  0  0  0  0  0  0  0  0  0  0  0
  -22.6710  -11.9380   22.2210 H   0  0  0  0  0  0  0  0  0  0  0  0
  -21.3340  -13.0200   21.9750 H   0  0  0  0  0  0  0  0  0  0  0  0
  -25.4130  -15.0340   19.6850 N   0  0  0  0  0  4  0  0  0  0  0  0
  -24.4460  -15.3450   19.5880 H   0  0  0  0  0  0  0  0  0  0  0  0
  -25.8990  -15.1500   18.8030 H   0  0  0  0  0  0  0  0  0  0  0  0
  -27.8420  -16.8980   20.4900 C   0  0  0  0  0  3  0  0  0  0  0  0
  -26.1580  -15.2580   21.4250 C   0  0  0  0  0  2  0  0  0  0  0  0
  -27.0710  -17.2600   19.4670 N   0  0  0  0  0  0  0  0  0  0  0  0
  -27.4300  -16.0000   21.4040 N   0  0  0  0  0  0  0  0  0  0  0  0
  -27.4440  -17.8980   18.7790 H   0  0  0  0  0  0  0  0  0  0  0  0
  -26.4140  -16.5580   19.1140 H   0  0  0  0  0  0  0  0  0  0  0  0
  -28.0280  -15.8610   22.2080 H   0  0  0  0  0  0  0  0  0  0  0  0
  -30.2990  -23.3480   21.0170 C   0  0  0  0  0  3  0  0  0  0  0  0
  -31.7450  -23.5880   20.9110 N   0  0  0  0  0  4  0  0  0  0  0  0
  -32.2450  -22.7190   20.9850 H   0  0  0  0  0  0  0  0  0  0  0  0
  -32.0510  -24.2560   21.5970 H   0  0  0  0  0  0  0  0  0  0  0  0
  -31.8670  -23.9970   19.9950 H   0  0  0  0  0  0  0  0  0  0  0  0
  -29.6930  -24.4350   20.0580 C   0  0  0  0  0  0  0  0  0  0  0  0
  -30.3030  -24.7840   19.0360 O   0  0  0  0  0  0  0  0  0  0  0  0
  -28.3560  -25.1580   20.3850 C   0  0  0  0  0  2  0  0  0  0  0  0
  -28.4520  -26.5940   20.1470 O   0  0  0  0  0  0  0  0  0  0  0  0
  -24.6160  -31.8360   23.1730 C   0  0  0  0  0  0  0  0  0  0  0  0
  -27.2770  -27.3360   20.1400 C   0  0  0  0  0  0  0  0  0  0  0  0
  -23.4220  -30.4240   21.5330 C   0  0  0  0  0  3  0  0  0  0  0  0
  -24.8860  -28.8780   20.1210 C   0  0  0  0  0  0  0  0  0  0  0  0
  -25.9540  -30.7750   21.3480 C   0  0  0  0  0  2  0  0  0  0  0  0
  -26.0430  -29.3970   20.7150 C   0  0  0  0  0  0  0  0  0  0  0  0
  -27.2430  -28.6400   20.7090 C   0  0  0  0  0  3  0  0  0  0  0  0
  -26.0970  -26.8470   19.5340 C   0  0  0  0  0  3  0  0  0  0  0  0
  -24.9110  -27.6080   19.5230 C   0  0  0  0  0  3  0  0  0  0  0  0
  -23.6440  -29.7470   20.1550 C   0  0  0  0  0  2  0  0  0  0  0  0
  -24.6820  -31.0250   22.0780 N   0  0  0  0  0  0  0  0  0  0  0  0
  -23.5310  -32.1080   23.7050 O   0  0  0  0  0  0  0  0  0  0  0  0
  -22.7620  -29.4060   22.4890 C   0  0  0  0  0  0  0  0  0  0  0  0
  -21.4350  -29.2390   22.3690 N   0  0  0  0  0  0  0  0  0  0  0  0
  -23.4420  -28.7740   23.3020 O   0  0  0  0  0  0  0  0  0  0  0  0
  -20.9460  -29.8020   21.6860 H   0  0  0  0  0  0  0  0  0  0  0  0
  -18.0470  -28.0990   22.8990 C   0  0  0  0  0  0  0  0  0  0  0  0
  -20.6120  -28.3080   23.1410 C   0  0  0  0  0  3  0  0  0  0  0  0
  -20.6830  -26.8810   22.5480 C   0  0  0  0  0  2  0  0  0  0  0  0
  -19.5650  -26.5870   21.5450 C   0  0  0  0  0  2  0  0  0  0  0  0
  -18.1910  -26.7540   22.2070 C   0  0  0  0  0  2  0  0  0  0  0  0
  -19.1840  -28.8360   23.3230 C   0  0  0  0  0  0  0  0  0  0  0  0
  -18.9950  -30.0950   23.9310 C   0  0  0  0  0  3  0  0  0  0  0  0
  -17.7030  -30.6190   24.1150 C   0  0  0  0  0  3  0  0  0  0  0  0
  -16.5790  -29.8780   23.7070 C   0  0  0  0  0  3  0  0  0  0  0  0
  -16.7520  -28.6200   23.1040 C   0  0  0  0  0  3  0  0  0  0  0  0
  -25.8970  -32.4710   23.8000 C   0  0  0  0  0  3  0  0  0  0  0  0
  -25.5810  -33.8650   24.1400 N   0  0  0  0  0  0  0  0  0  0  0  0
  -25.9200  -34.9230   23.3920 C   0  0  0  0  0  0  0  0  0  0  0  0
  -26.5990  -34.8310   22.3650 O   0  0  0  0  0  0  0  0  0  0  0  0
  -24.9870  -34.0160   24.9430 H   0  0  0  0  0  0  0  0  0  0  0  0
  -24.1980  -36.7180   23.0230 C   0  0  0  0  0  1  0  0  0  0  0  0
  -25.4230  -36.3060   23.8550 C   0  0  0  0  0  3  0  0  0  0  0  0
  -27.5420  -37.1740   24.7430 C   0  0  0  0  0  1  0  0  0  0  0  0
  -26.4600  -37.3590   23.7760 N   0  0  0  0  0  0  0  0  0  0  0  0
  -26.0520  -38.2790   23.9330 H   0  0  0  0  0  0  0  0  0  0  0  0
  -26.4200  -31.6930   25.0670 C   0  0  1  0  0  0  0  0  0  0  0  0
  -25.3270  -31.4250   26.1290 C   0  0  0  0  0  1  0  0  0  0  0  0
  -27.0240  -30.3320   24.6530 C   0  0  0  0  0  1  0  0  0  0  0  0
  -27.5600  -32.4950   25.7420 C   0  0  0  0  0  1  0  0  0  0  0  0
  1  2  2  0
  3  4  1  0
  3  5  2  0
  4  6  2  0
  5  2  1  0
  5  7  1  0
  6  7  1  0
  6 17  1  0
  8 17  1  0
  9 14  1  0
 10 11  1  0
 10  9  1  0
 12 11  1  0
 12 21  1  0
 12 13  1  0
 14  8  1  0
 14 13  1  0
 15  8  2  0
 17 16  1  0
 18 19  2  0
 19 20  1  0
 19 38  1  0
 20 23  1  0
 21 18  1  0
 21 22  1  0
 22 20  2  0
 23 24  1  0
 24 25  2  0
 26 29  1  0
 26 25  1  0
 27 26  2  0
 28 27  1  0
 28 23  2  0
 29 30  1  0
 30 35  2  0
 30 31  1  0
 31 32  2  0
 32 33  1  0
 33 37  1  0
 34 33  2  0
 35 34  1  0
 36 35  1  0
 38 39  1  0
 39 42  1  0
 39 41  1  0
 40 38  2  0
 43 18  1  0
 43 47  1  0
 44 43  1  0
 45 43  1  0
 46 48  1  0
 46  4  1  0
 46 49  1  0
 49 47  1  0
 49 52  1  0
 50 48  1  0
 51 48  1  0
 53  1  1  0
 54 55  1  0
 54 53  1  0
 54 56  1  0
 57 54  1  0
 58 60  1  0
 58 53  1  0
 59 58  2  0
 61 60  1  0
 62 73  2  0
 63 61  1  0
 63 68  1  0
 64 72  1  0
 64 74  1  0
 65 71  1  0
 65 67  1  0
 66 72  1  0
 67 66  1  0
 68 67  2  0
 69 63  2  0
 70 69  1  0
 70 65  2  0
 71 64  1  0
 72 62  1  0
 74 76  2  0
 75 74  1  0
 77 75  1  0
 78 87  2  0
 78 83  1  0
 79 75  1  0
 79 83  1  0
 80 79  1  0
 81 82  1  0
 81 80  1  0
 82 78  1  0
 83 84  2  0
 84 85  1  0
 86 85  2  0
 87 86  1  0
 88 62  1  0
 88 89  1  0
 88 98  1  0
 89 92  1  0
 90 94  1  0
 90 89  1  0
 91 90  2  0
 94 93  1  0
 96 94  1  0
 96 97  1  0
 96 95  1  0
 98101  1  1
 98 99  1  0
100 98  1  0
M  ISO  4   8 100  17 100  60 101  61 101
M  END
>  <TORSDO>  (84) 
F 22

>  <SCORE>  (84) 
-10.092

>  <name>  (84) 
84

>  <ligand_id>  (84) 
84

>  <original_smiles>  (84) 
[H]C(=Nc1sc(N(C(=O)N2C([H])([H])C([H])([H])C([H])([H])C([H])(n3nc(-c4c([H])c([H])c(Oc5c([H])c([H])c(F)c([H])c5F)c([H])c4[H])c(C(=O)N([H])[H])c3N([H])[H])C2([H])[H])C([H])([H])[H])c(C(N([H])[H])=[N+]([H])C([H])([H])[H])c1[H])C([H])(C(=O)C([H])([H])Oc1c([H])c([H])c2c(c1[H])C([H])([H])N(C(=O)C([H])(N([H])C(=O)C([H])(N([H])C([H])([H])[H])C([H])([H])[H])C(C([H])([H])[H])(C([H])([H])[H])C([H])([H])[H])C([H])(C(=O)N([H])C1([H])c3c([H])c([H])c([H])c([H])c3C([H])([H])C([H])([H])C1([H])[H])C2([H])[H])[N+]([H])([H])[H]

>  <smiles>  (84) 
[H]C(=Nc1sc(N(C(=O)N2C([H])([H])C([H])([H])C([H])([H])C([H])(n3nc(-c4c([H])c([H])c(Oc5c([H])c([H])c(F)c([H])c5F)c([H])c4[H])c(C(=O)N([H])[H])c3N([H])[H])C2([H])[H])C([H])([H])[H])c(C(N([H])[H])=[N+]([H])C([H])([H])[H])c1[H])C([H])(C(=O)C([H])([H])Oc1c([H])c([H])c2c(c1[H])C([H])([H])N(C(=O)C([H])(N([H])C(=O)C([H])(N([H])C([H])([H])[H])C([H])([H])[H])C(C([H])([H])[H])(C([H])([H])[H])C([H])([H])[H])C([H])(C(=O)N([H])C1([H])c3c([H])c([H])c([H])c([H])c3C([H])([H])C([H])([H])C1([H])[H])C2([H])[H])[N+]([H])([H])[H]

$$$$
85:0:0
     RDKit          3D

 93101  0  0  1  0  0  0  0  0999 V2000
  -29.7540  -20.8840   19.7670 N   0  0  0  0  0  0  0  0  0  0  0  0
  -30.6630  -21.1480   19.3910 H   0  0  0  0  0  0  0  0  0  0  0  0
  -30.2360  -18.3380   20.1460 C   0  0  0  0  0  3  0  0  0  0  0  0
  -29.3560  -17.1680   20.2220 C   0  0  0  0  0  0  0  0  0  0  0  0
  -28.0870  -17.7060   20.0700 C   0  0  0  0  0  0  0  0  0  0  0  0
  -29.4300  -19.4720   19.9330 C   0  0  0  0  0  0  0  0  0  0  0  0
  -28.1360  -19.0770   19.8940 O   0  0  0  0  0  0  0  0  0  0  0  0
  -30.4390  -14.6750   19.9590 C   0  0  0  0  0  0  0  0  0  0  0  0
  -30.4020  -12.2970   19.1390 C   0  0  0  0  0  2  0  0  0  0  0  0
  -29.4170  -12.2060   17.9490 C   0  0  0  0  0  2  0  0  0  0  0  0
  -27.9690  -11.9990   18.4370 C   0  0  0  0  0  2  0  0  0  0  0  0
  -27.5870  -12.9690   19.5870 C   0  0  0  0  0  3  0  0  0  0  0  0
  -28.6780  -12.9910   20.6790 C   0  0  0  0  0  2  0  0  0  0  0  0
  -29.9400  -13.3870   20.0310 N   0  0  0  0  0  0  0  0  0  0  0  0
  -31.5680  -14.8800   19.5000 O   0  0  0  0  0  0  0  0  0  0  0  0
  -29.5520  -15.6800   20.3200 N   0  0  0  0  0  0  0  0  0  0  0  0
  -28.7760  -15.2440   20.7990 H   0  0  0  0  0  0  0  0  0  0  0  0
  -25.2160  -13.5430   20.3910 C   0  0  0  0  0  0  0  0  0  0  0  0
  -24.1800  -12.7630   20.8280 C   0  0  0  0  0  0  0  0  0  0  0  0
  -24.6640  -11.4200   20.8080 C   0  0  0  0  0  0  0  0  0  0  0  0
  -26.2660  -12.6750   20.1340 N   0  0  0  0  0  0  0  0  0  0  0  0
  -25.9400  -11.3940   20.4440 N   0  0  0  0  0  0  0  0  0  0  0  0
  -23.9660  -10.1500   21.0540 C   0  0  0  0  0  0  0  0  0  0  0  0
  -24.4210   -9.2340   22.0280 C   0  0  0  0  0  3  0  0  0  0  0  0
  -23.7220   -8.0290   22.2590 C   0  0  0  0  0  3  0  0  0  0  0  0
  -22.5540   -7.7330   21.5180 C   0  0  0  0  0  0  0  0  0  0  0  0
  -22.1180   -8.6380   20.5340 C   0  0  0  0  0  3  0  0  0  0  0  0
  -22.8190   -9.8340   20.3010 C   0  0  0  0  0  3  0  0  0  0  0  0
  -21.8240   -6.5770   21.6580 O   0  0  0  0  0  0  0  0  0  0  0  0
  -21.7440   -5.9180   22.8580 C   0  0  0  0  0  0  0  0  0  0  0  0
  -21.2870   -6.5570   24.0320 C   0  0  0  0  0  3  0  0  0  0  0  0
  -21.1550   -5.8240   25.2270 C   0  0  0  0  0  3  0  0  0  0  0  0
  -21.4710   -4.4520   25.2500 C   0  0  0  0  0  0  0  0  0  0  0  0
  -21.9200   -3.8120   24.0820 C   0  0  0  0  0  3  0  0  0  0  0  0
  -22.0540   -4.5430   22.8890 C   0  0  0  0  0  0  0  0  0  0  0  0
  -22.4680   -3.9180   21.7610 F   0  0  0  0  0  0  0  0  0  0  0  0
  -21.3360   -3.7450   26.3960 F   0  0  0  0  0  0  0  0  0  0  0  0
  -22.7890  -13.2250   21.1500 C   0  0  0  0  0  0  0  0  0  0  0  0
  -22.1140  -12.5460   22.0700 N   0  0  0  0  0  0  0  0  0  0  0  0
  -22.3080  -14.2250   20.6180 O   0  0  0  0  0  0  0  0  0  0  0  0
  -22.5170  -11.7380   22.5210 H   0  0  0  0  0  0  0  0  0  0  0  0
  -21.1820  -12.8400   22.3280 H   0  0  0  0  0  0  0  0  0  0  0  0
  -25.3430  -14.9100   20.1610 N   0  0  0  0  0  2  0  0  0  0  0  0
  -24.5490  -15.5350   20.2490 H   0  0  0  0  0  0  0  0  0  0  0  0
  -26.1340  -15.3380   19.6980 H   0  0  0  0  0  0  0  0  0  0  0  0
  -26.7580  -17.0880   20.0590 C   0  0  0  0  0  3  0  0  0  0  0  0
  -25.5620  -17.9500   19.6750 C   0  0  0  0  0  1  0  0  0  0  0  0
  -26.5780  -15.9040   20.3620 O   0  0  0  0  0  0  0  0  0  0  0  0
  -28.7620  -22.0450   19.8680 C   0  0  0  0  0  2  0  0  0  0  0  0
  -29.2180  -23.5900   19.6780 C   0  0  0  0  0  0  0  0  0  0  0  0
  -30.4260  -23.8490   19.6530 O   0  0  0  0  0  0  0  0  0  0  0  0
  -28.1400  -24.7760   19.4910 C   0  0  0  0  0  2  0  0  0  0  0  0
  -28.5250  -26.2430   19.6370 O   0  0  0  0  0  0  0  0  0  0  0  0
  -25.0820  -31.5970   23.2210 C   0  0  0  0  0  0  0  0  0  0  0  0
  -27.4730  -27.2020   19.6940 C   0  0  0  0  0  0  0  0  0  0  0  0
  -23.8060  -30.3990   21.4850 C   0  0  0  0  0  3  0  0  0  0  0  0
  -25.1770  -28.9430   19.8870 C   0  0  0  0  0  0  0  0  0  0  0  0
  -26.3580  -30.6320   21.2840 C   0  0  0  0  0  2  0  0  0  0  0  0
  -26.3790  -29.3150   20.5030 C   0  0  0  0  0  0  0  0  0  0  0  0
  -27.5310  -28.4620   20.3920 C   0  0  0  0  0  3  0  0  0  0  0  0
  -26.2440  -26.9140   19.0550 C   0  0  0  0  0  3  0  0  0  0  0  0
  -25.1180  -27.7520   19.1530 C   0  0  0  0  0  3  0  0  0  0  0  0
  -23.9750  -29.8540   20.0430 C   0  0  0  0  0  2  0  0  0  0  0  0
  -25.1030  -30.8890   22.0530 N   0  0  0  0  0  0  0  0  0  0  0  0
  -24.0170  -31.8590   23.8010 O   0  0  0  0  0  0  0  0  0  0  0  0
  -23.1240  -29.3180   22.3610 C   0  0  0  0  0  0  0  0  0  0  0  0
  -21.7900  -29.1900   22.2410 N   0  0  0  0  0  0  0  0  0  0  0  0
  -23.7950  -28.6020   23.1080 O   0  0  0  0  0  0  0  0  0  0  0  0
  -21.3080  -29.8190   21.6150 H   0  0  0  0  0  0  0  0  0  0  0  0
  -18.3860  -28.0520   22.7080 C   0  0  0  0  0  0  0  0  0  0  0  0
  -20.9560  -28.2080   22.9390 C   0  0  0  0  0  3  0  0  0  0  0  0
  -20.9990  -26.8350   22.2280 C   0  0  0  0  0  2  0  0  0  0  0  0
  -19.8670  -26.6460   21.2150 C   0  0  0  0  0  2  0  0  0  0  0  0
  -18.5040  -26.7700   21.9020 C   0  0  0  0  0  2  0  0  0  0  0  0
  -19.5370  -28.7360   23.1810 C   0  0  0  0  0  0  0  0  0  0  0  0
  -19.3710  -29.9420   23.8970 C   0  0  0  0  0  3  0  0  0  0  0  0
  -18.0870  -30.4620   24.1430 C   0  0  0  0  0  3  0  0  0  0  0  0
  -16.9500  -29.7740   23.6850 C   0  0  0  0  0  3  0  0  0  0  0  0
  -17.1010  -28.5700   22.9740 C   0  0  0  0  0  3  0  0  0  0  0  0
  -26.3950  -32.1320   23.8720 C   0  0  0  0  0  3  0  0  0  0  0  0
  -26.1200  -33.4860   24.3790 N   0  0  0  0  0  0  0  0  0  0  0  0
  -26.4260  -34.6190   23.7330 C   0  0  0  0  0  0  0  0  0  0  0  0
  -27.0390  -34.6330   22.6620 O   0  0  0  0  0  0  0  0  0  0  0  0
  -25.5740  -33.5500   25.2250 H   0  0  0  0  0  0  0  0  0  0  0  0
  -24.7010  -36.4510   23.6950 C   0  0  0  0  0  1  0  0  0  0  0  0
  -25.9840  -35.9480   24.3770 C   0  0  0  0  0  3  0  0  0  0  0  0
  -28.1770  -36.7200   25.1720 C   0  0  0  0  0  1  0  0  0  0  0  0
  -27.0210  -37.0030   24.3260 N   0  0  0  0  0  0  0  0  0  0  0  0
  -26.6340  -37.8990   24.6070 H   0  0  0  0  0  0  0  0  0  0  0  0
  -26.9330  -31.2070   25.0320 C   0  0  1  0  0  0  0  0  0  0  0  0
  -25.8650  -30.8550   26.0940 C   0  0  0  0  0  1  0  0  0  0  0  0
  -27.4840  -29.8780   24.4640 C   0  0  0  0  0  1  0  0  0  0  0  0
  -28.1130  -31.9020   25.7520 C   0  0  0  0  0  1  0  0  0  0  0  0
  1 49  1  0
  1  6  1  0
  2  1  1  0
  3  4  1  0
  4 16  1  0
  5  4  2  0
  6  3  2  0
  7  6  1  0
  7  5  1  0
  8 14  1  0
  8 16  1  0
  9 14  1  0
 10 11  1  0
 10  9  1  0
 12 11  1  0
 12 21  1  0
 12 13  1  0
 14 13  1  0
 15  8  2  0
 16 17  1  0
 18 19  2  0
 19 38  1  0
 20 19  1  0
 20 23  1  0
 21 18  1  0
 21 22  1  0
 22 20  2  0
 23 24  1  0
 24 25  2  0
 26 29  1  0
 26 25  1  0
 27 26  2  0
 28 27  1  0
 28 23  2  0
 29 30  1  0
 30 35  2  0
 30 31  1  0
 31 32  2  0
 32 33  1  0
 33 37  1  0
 34 33  2  0
 35 34  1  0
 36 35  1  0
 38 39  1  0
 39 42  1  0
 39 41  1  0
 40 38  2  0
 43 44  1  0
 43 18  1  0
 45 48  1  0
 46 47  1  0
 46  5  1  0
 46 48  1  0
 50 49  1  0
 51 50  2  0
 52 53  1  0
 52 50  1  0
 53 55  1  0
 54 65  2  0
 55 60  1  0
 56 64  1  0
 56 66  1  0
 57 63  1  0
 57 59  1  0
 58 64  1  0
 59 58  1  0
 60 59  2  0
 61 62  1  0
 61 55  2  0
 62 57  2  0
 63 56  1  0
 64 54  1  0
 66 68  2  0
 67 66  1  0
 69 67  1  0
 70 79  2  0
 70 75  1  0
 71 67  1  0
 71 75  1  0
 72 71  1  0
 73 74  1  0
 73 72  1  0
 74 70  1  0
 75 76  2  0
 76 77  1  0
 78 77  2  0
 79 78  1  0
 80 54  1  0
 80 81  1  0
 80 90  1  0
 81 84  1  0
 82 86  1  0
 82 81  1  0
 83 82  2  0
 86 85  1  0
 88 86  1  0
 88 89  1  0
 88 87  1  0
 90 93  1  1
 90 91  1  0
 92 90  1  0
M  ISO  4   8 100  16 100  52 101  53 101
M  END
>  <TORSDO>  (85) 
F 21

>  <SCORE>  (85) 
-11.988

>  <name>  (85) 
85

>  <ligand_id>  (85) 
85

>  <original_smiles>  (85) 
[H]c1c([H])c([H])c2c(c1[H])C([H])([H])C([H])([H])C([H])([H])C2([H])N([H])C(=O)C1([H])N(C(=O)C([H])(N([H])C(=O)C([H])(N([H])C([H])([H])[H])C([H])([H])[H])C(C([H])([H])[H])(C([H])([H])[H])C([H])([H])[H])C([H])([H])c2c([H])c(OC([H])([H])C(=O)C([H])([H])N([H])c3oc(C(=O)C([H])([H])[H])c(N([H])C(=O)N4C([H])([H])C([H])([H])C([H])([H])C([H])(n5nc(-c6c([H])c([H])c(Oc7c([H])c([H])c(F)c([H])c7F)c([H])c6[H])c(C(=O)N([H])[H])c5N([H])[H])C4([H])[H])c3[H])c([H])c([H])c2C1([H])[H]

>  <smiles>  (85) 
[H]c1c([H])c([H])c2c(c1[H])C([H])([H])C([H])([H])C([H])([H])C2([H])N([H])C(=O)C1([H])N(C(=O)C([H])(N([H])C(=O)C([H])(N([H])C([H])([H])[H])C([H])([H])[H])C(C([H])([H])[H])(C([H])([H])[H])C([H])([H])[H])C([H])([H])c2c([H])c(OC([H])([H])C(=O)C([H])([H])N([H])c3oc(C(=O)C([H])([H])[H])c(N([H])C(=O)N4C([H])([H])C([H])([H])C([H])([H])C([H])(n5nc(-c6c([H])c([H])c(Oc7c([H])c([H])c(F)c([H])c7F)c([H])c6[H])c(C(=O)N([H])[H])c5N([H])[H])C4([H])[H])c3[H])c([H])c([H])c2C1([H])[H]

$$$$
86:0:0
     RDKit          3D

 99107  0  0  1  0  0  0  0  0999 V2000
  -29.7350  -21.1440   20.8270 C   0  0  0  0  0  0  0  0  0  0  0  0
  -30.5320  -21.4480   21.8590 N   0  0  0  0  0  4  0  0  0  0  0  0
  -29.0360  -22.2260   20.2760 N   0  0  0  0  0  0  0  0  0  0  0  0
  -31.0870  -20.7170   22.2790 H   0  0  0  0  0  0  0  0  0  0  0  0
  -30.6150  -22.3730   22.2470 H   0  0  0  0  0  0  0  0  0  0  0  0
  -28.3550  -22.0030   19.5660 H   0  0  0  0  0  0  0  0  0  0  0  0
  -29.8740  -18.4940   21.2520 C   0  0  0  0  0  3  0  0  0  0  0  0
  -29.9470  -17.7610   19.1500 C   0  0  0  0  0  3  0  0  0  0  0  0
  -30.0230  -17.2990   20.4360 C   0  0  0  0  0  0  0  0  0  0  0  0
  -29.7680  -19.6570   20.4710 C   0  0  0  0  0  0  0  0  0  0  0  0
  -29.7650  -19.1580   19.1560 N   0  0  0  0  0  0  0  0  0  0  0  0
  -30.7550  -14.7670   20.3980 C   0  0  0  0  0  0  0  0  0  0  0  0
  -30.5360  -12.4990   19.3620 C   0  0  0  0  0  2  0  0  0  0  0  0
  -29.6140  -12.6150   18.1250 C   0  0  0  0  0  2  0  0  0  0  0  0
  -28.1330  -12.4740   18.5300 C   0  0  0  0  0  2  0  0  0  0  0  0
  -27.7700  -13.3510   19.7580 C   0  0  0  0  0  3  0  0  0  0  0  0
  -28.8090  -13.2040   20.8930 C   0  0  0  0  0  2  0  0  0  0  0  0
  -30.1270  -13.5400   20.3360 N   0  0  0  0  0  0  0  0  0  0  0  0
  -31.9150  -14.8810   19.9870 O   0  0  0  0  0  0  0  0  0  0  0  0
  -30.0300  -15.8660   20.8430 N   0  0  0  0  0  0  0  0  0  0  0  0
  -29.2090  -15.5900   21.3630 H   0  0  0  0  0  0  0  0  0  0  0  0
  -25.3790  -13.9960   20.4250 C   0  0  0  0  0  0  0  0  0  0  0  0
  -24.2930  -13.2460   20.7870 C   0  0  0  0  0  0  0  0  0  0  0  0
  -24.7320  -11.8870   20.7900 C   0  0  0  0  0  0  0  0  0  0  0  0
  -26.4110  -13.0940   20.2240 N   0  0  0  0  0  0  0  0  0  0  0  0
  -26.0280  -11.8230   20.5070 N   0  0  0  0  0  0  0  0  0  0  0  0
  -23.9810  -10.6410   20.9880 C   0  0  0  0  0  0  0  0  0  0  0  0
  -24.3910   -9.6720   21.9310 C   0  0  0  0  0  3  0  0  0  0  0  0
  -23.6410   -8.4910   22.1170 C   0  0  0  0  0  3  0  0  0  0  0  0
  -22.4650   -8.2710   21.3610 C   0  0  0  0  0  0  0  0  0  0  0  0
  -22.0730   -9.2270   20.4070 C   0  0  0  0  0  3  0  0  0  0  0  0
  -22.8230  -10.4000   20.2190 C   0  0  0  0  0  3  0  0  0  0  0  0
  -21.6880   -7.1420   21.4560 O   0  0  0  0  0  0  0  0  0  0  0  0
  -21.6310   -6.4010   22.6090 C   0  0  0  0  0  0  0  0  0  0  0  0
  -21.2320   -6.9660   23.8410 C   0  0  0  0  0  3  0  0  0  0  0  0
  -21.1230   -6.1530   24.9860 C   0  0  0  0  0  3  0  0  0  0  0  0
  -21.4030   -4.7760   24.9020 C   0  0  0  0  0  0  0  0  0  0  0  0
  -21.7940   -4.2090   23.6760 C   0  0  0  0  0  3  0  0  0  0  0  0
  -21.9050   -5.0210   22.5320 C   0  0  0  0  0  0  0  0  0  0  0  0
  -22.2630   -4.4670   21.3480 F   0  0  0  0  0  0  0  0  0  0  0  0
  -21.2910   -3.9920   26.0000 F   0  0  0  0  0  0  0  0  0  0  0  0
  -22.8990  -13.7520   21.0240 C   0  0  0  0  0  0  0  0  0  0  0  0
  -22.1470  -13.0930   21.8990 N   0  0  0  0  0  0  0  0  0  0  0  0
  -22.4840  -14.7670   20.4650 O   0  0  0  0  0  0  0  0  0  0  0  0
  -22.4940  -12.2730   22.3750 H   0  0  0  0  0  0  0  0  0  0  0  0
  -21.2100  -13.4150   22.0990 H   0  0  0  0  0  0  0  0  0  0  0  0
  -25.5710  -15.3610   20.2280 N   0  0  0  0  0  0  0  0  0  0  0  0
  -24.8140  -16.0310   20.3160 H   0  0  0  0  0  0  0  0  0  0  0  0
  -26.4370  -15.7800   19.9160 H   0  0  0  0  0  0  0  0  0  0  0  0
  -29.5980  -19.9090   17.9220 C   0  0  0  0  0  2  0  0  0  0  0  0
  -30.9430  -20.1780   17.2170 C   0  0  0  0  0  2  0  0  0  0  0  0
  -30.0610  -19.9460   14.8330 C   0  0  0  0  0  1  0  0  0  0  0  0
  -32.2770  -21.0100   15.2650 C   0  0  0  0  0  1  0  0  0  0  0  0
  -30.1870  -22.2250   15.8970 C   0  0  0  0  0  1  0  0  0  0  0  0
  -30.8490  -20.8360   15.8150 C   0  0  2  0  0  0  0  0  0  0  0  0
  -29.1080  -23.7330   20.6590 C   0  0  0  0  0  2  0  0  0  0  0  0
  -28.5070  -24.7470   18.3720 C   0  0  0  0  0  1  0  0  0  0  0  0
  -28.2190  -24.8540   19.8800 C   0  0  0  0  0  3  0  0  0  0  0  0
  -28.3430  -26.3300   20.2160 O   0  0  0  0  0  0  0  0  0  0  0  0
  -24.5890  -31.8360   23.1400 C   0  0  0  0  0  0  0  0  0  0  0  0
  -27.2380  -27.2210   20.1240 C   0  0  0  0  0  0  0  0  0  0  0  0
  -23.4080  -30.4270   21.4950 C   0  0  0  0  0  3  0  0  0  0  0  0
  -24.8770  -28.8770   20.0820 C   0  0  0  0  0  0  0  0  0  0  0  0
  -25.9530  -30.7380   21.3400 C   0  0  0  0  0  2  0  0  0  0  0  0
  -26.0430  -29.3540   20.6940 C   0  0  0  0  0  0  0  0  0  0  0  0
  -27.2230  -28.5390   20.7040 C   0  0  0  0  0  3  0  0  0  0  0  0
  -26.0440  -26.8230   19.4770 C   0  0  0  0  0  3  0  0  0  0  0  0
  -24.8840  -27.6200   19.4630 C   0  0  0  0  0  3  0  0  0  0  0  0
  -23.6390  -29.7520   20.1180 C   0  0  0  0  0  2  0  0  0  0  0  0
  -24.6690  -31.0190   22.0480 N   0  0  0  0  0  0  0  0  0  0  0  0
  -23.4990  -32.1130   23.6600 O   0  0  0  0  0  0  0  0  0  0  0  0
  -22.7380  -29.4110   22.4520 C   0  0  0  0  0  0  0  0  0  0  0  0
  -21.4070  -29.2570   22.3420 N   0  0  0  0  0  0  0  0  0  0  0  0
  -23.4170  -28.7660   23.2560 O   0  0  0  0  0  0  0  0  0  0  0  0
  -20.9190  -29.8280   21.6670 H   0  0  0  0  0  0  0  0  0  0  0  0
  -18.0150  -28.1250   22.9010 C   0  0  0  0  0  0  0  0  0  0  0  0
  -20.5840  -28.3240   23.1160 C   0  0  0  0  0  3  0  0  0  0  0  0
  -20.6400  -26.9010   22.5140 C   0  0  0  0  0  2  0  0  0  0  0  0
  -19.5090  -26.6210   21.5190 C   0  0  0  0  0  2  0  0  0  0  0  0
  -18.1460  -26.7850   22.1970 C   0  0  0  0  0  2  0  0  0  0  0  0
  -19.1590  -28.8550   23.3180 C   0  0  0  0  0  0  0  0  0  0  0  0
  -18.9820  -30.1100   23.9390 C   0  0  0  0  0  3  0  0  0  0  0  0
  -17.6920  -30.6370   24.1440 C   0  0  0  0  0  3  0  0  0  0  0  0
  -16.5620  -29.9030   23.7400 C   0  0  0  0  0  3  0  0  0  0  0  0
  -16.7250  -28.6500   23.1260 C   0  0  0  0  0  3  0  0  0  0  0  0
  -25.8620  -32.4780   23.7710 C   0  0  0  0  0  3  0  0  0  0  0  0
  -25.5320  -33.8680   24.1210 N   0  0  0  0  0  0  0  0  0  0  0  0
  -25.8690  -34.9390   23.3900 C   0  0  0  0  0  0  0  0  0  0  0  0
  -26.5600  -34.8620   22.3700 O   0  0  0  0  0  0  0  0  0  0  0  0
  -24.9190  -34.0010   24.9110 H   0  0  0  0  0  0  0  0  0  0  0  0
  -24.1450  -36.7350   23.0230 C   0  0  0  0  0  1  0  0  0  0  0  0
  -25.3610  -36.3140   23.8650 C   0  0  0  0  0  3  0  0  0  0  0  0
  -27.4600  -37.1860   24.7910 C   0  0  0  0  0  1  0  0  0  0  0  0
  -26.3910  -37.3740   23.8140 N   0  0  0  0  0  0  0  0  0  0  0  0
  -25.9760  -38.2880   23.9700 H   0  0  0  0  0  0  0  0  0  0  0  0
  -26.3870  -31.6990   25.0400 C   0  0  1  0  0  0  0  0  0  0  0  0
  -25.2950  -31.4360   26.1040 C   0  0  0  0  0  1  0  0  0  0  0  0
  -26.9850  -30.3320   24.6350 C   0  0  0  0  0  1  0  0  0  0  0  0
  -27.5290  -32.4970   25.7100 C   0  0  0  0  0  1  0  0  0  0  0  0
  1  2  2  0
  2  5  1  0
  2  4  1  0
  3 56  1  0
  3  1  1  0
  6  3  1  0
  8 11  1  0
  8  9  2  0
  9 20  1  0
  9  7  1  0
 10  1  1  0
 10  7  2  0
 11 10  1  0
 12 20  1  0
 13 18  1  0
 14 15  1  0
 14 13  1  0
 16 15  1  0
 16 25  1  0
 16 17  1  0
 18 12  1  0
 18 17  1  0
 19 12  2  0
 20 21  1  0
 22 23  2  0
 23 24  1  0
 23 42  1  0
 24 27  1  0
 25 22  1  0
 25 26  1  0
 26 24  2  0
 27 28  1  0
 28 29  2  0
 30 33  1  0
 30 29  1  0
 31 30  2  0
 32 31  1  0
 32 27  2  0
 33 34  1  0
 34 35  1  0
 35 36  2  0
 37 36  1  0
 37 41  1  0
 38 37  2  0
 39 34  2  0
 39 38  1  0
 40 39  1  0
 42 43  1  0
 43 46  1  0
 43 45  1  0
 44 42  2  0
 47 48  1  0
 47 22  1  0
 49 47  1  0
 50 11  1  0
 51 50  1  0
 55 52  1  6
 53 55  1  0
 55 54  1  0
 55 51  1  0
 58 57  1  0
 58 59  1  0
 58 56  1  0
 60 71  2  0
 61 59  1  0
 61 66  1  0
 62 70  1  0
 62 72  1  0
 63 69  1  0
 63 65  1  0
 64 70  1  0
 65 66  2  0
 65 64  1  0
 67 61  2  0
 68 67  1  0
 68 63  2  0
 69 62  1  0
 70 60  1  0
 72 74  2  0
 73 72  1  0
 75 73  1  0
 76 85  2  0
 76 81  1  0
 77 73  1  0
 77 81  1  0
 78 77  1  0
 79 80  1  0
 79 78  1  0
 80 76  1  0
 81 82  2  0
 82 83  1  0
 84 83  2  0
 85 84  1  0
 86 60  1  0
 86 87  1  0
 86 96  1  0
 87 90  1  0
 88 92  1  0
 88 87  1  0
 89 88  2  0
 92 91  1  0
 94 92  1  0
 94 95  1  0
 94 93  1  0
 96 99  1  1
 96 97  1  0
 98 96  1  0
M  ISO  4  12 100  20 100  58 101  59 101
M  END
>  <TORSDO>  (86) 
F 22

>  <SCORE>  (86) 
-13.285

>  <name>  (86) 
86

>  <ligand_id>  (86) 
86

>  <original_smiles>  (86) 
[H]c1c([H])c([H])c2c(c1[H])C([H])([H])C([H])([H])C([H])([H])C2([H])N([H])C(=O)C1([H])N(C(=O)C([H])(N([H])C(=O)C([H])(N([H])C([H])([H])[H])C([H])([H])[H])C(C([H])([H])[H])(C([H])([H])[H])C([H])([H])[H])C([H])([H])c2c([H])c(OC([H])(C([H])([H])[H])C([H])([H])[N+]([H])=C(c3c([H])c(N([H])C(=O)N4C([H])([H])C([H])([H])C([H])([H])C([H])(n5nc(-c6c([H])c([H])c(Oc7c([H])c([H])c(F)c([H])c7F)c([H])c6[H])c(C(=O)N([H])[H])c5N([H])[H])C4([H])[H])c([H])n3C([H])([H])C([H])([H])C(C([H])([H])[H])(C([H])([H])[H])C([H])([H])[H])N([H])[H])c([H])c([H])c2C1([H])[H]

>  <smiles>  (86) 
[H]c1c([H])c([H])c2c(c1[H])C([H])([H])C([H])([H])C([H])([H])C2([H])N([H])C(=O)C1([H])N(C(=O)C([H])(N([H])C(=O)C([H])(N([H])C([H])([H])[H])C([H])([H])[H])C(C([H])([H])[H])(C([H])([H])[H])C([H])([H])[H])C([H])([H])c2c([H])c(OC([H])(C([H])([H])[H])C([H])([H])[N+]([H])=C(c3c([H])c(N([H])C(=O)N4C([H])([H])C([H])([H])C([H])([H])C([H])(n5nc(-c6c([H])c([H])c(Oc7c([H])c([H])c(F)c([H])c7F)c([H])c6[H])c(C(=O)N([H])[H])c5N([H])[H])C4([H])[H])c([H])n3C([H])([H])C([H])([H])C(C([H])([H])[H])(C([H])([H])[H])C([H])([H])[H])N([H])[H])c([H])c([H])c2C1([H])[H]

$$$$
87:0:0
     RDKit          3D

 95103  0  0  1  0  0  0  0  0999 V2000
  -29.1050  -23.4020   20.0270 C   0  0  0  0  0  0  0  0  0  0  0  0
  -28.8170  -22.0700   20.1480 N   0  0  0  0  0  0  0  0  0  0  0  0
  -30.0030  -23.7980   19.2840 O   0  0  0  0  0  0  0  0  0  0  0  0
  -27.8980  -21.9590   20.5500 H   0  0  0  0  0  0  0  0  0  0  0  0
  -28.1850  -25.6110   21.0660 C   0  0  0  0  0  3  0  0  0  0  0  0
  -28.3450  -24.2470   20.9870 C   0  0  0  0  0  0  0  0  0  0  0  0
  -27.7400  -23.5740   21.9810 O   0  0  0  0  0  0  0  0  0  0  0  0
  -27.3640  -24.2120   22.5710 H   0  0  0  0  0  0  0  0  0  0  0  0
  -28.5170  -26.7080   20.2700 O   0  0  0  0  0  0  0  0  0  0  0  0
  -24.6570  -31.9330   23.3800 C   0  0  0  0  0  0  0  0  0  0  0  0
  -27.4530  -27.6080   20.1820 C   0  0  0  0  0  0  0  0  0  0  0  0
  -23.5250  -30.5870   21.6450 C   0  0  0  0  0  3  0  0  0  0  0  0
  -25.0500  -29.1290   20.1920 C   0  0  0  0  0  0  0  0  0  0  0  0
  -26.0600  -30.9640   21.5520 C   0  0  0  0  0  2  0  0  0  0  0  0
  -26.1890  -29.6230   20.8440 C   0  0  0  0  0  0  0  0  0  0  0  0
  -27.3970  -28.8690   20.8380 C   0  0  0  0  0  3  0  0  0  0  0  0
  -26.2980  -27.1560   19.5130 C   0  0  0  0  0  3  0  0  0  0  0  0
  -25.1050  -27.9000   19.5160 C   0  0  0  0  0  3  0  0  0  0  0  0
  -23.7930  -29.9760   20.2440 C   0  0  0  0  0  2  0  0  0  0  0  0
  -24.7640  -31.1780   22.2500 N   0  0  0  0  0  0  0  0  0  0  0  0
  -23.5530  -32.1670   23.8970 O   0  0  0  0  0  0  0  0  0  0  0  0
  -22.8590  -29.5190   22.5440 C   0  0  0  0  0  0  0  0  0  0  0  0
  -21.5430  -29.3130   22.3640 N   0  0  0  0  0  0  0  0  0  0  0  0
  -23.5270  -28.8770   23.3590 O   0  0  0  0  0  0  0  0  0  0  0  0
  -21.0640  -29.8910   21.6870 H   0  0  0  0  0  0  0  0  0  0  0  0
  -18.1820  -28.0320   22.7210 C   0  0  0  0  0  0  0  0  0  0  0  0
  -20.7240  -28.3290   23.0740 C   0  0  0  0  0  3  0  0  0  0  0  0
  -20.8700  -26.9250   22.4450 C   0  0  0  0  0  2  0  0  0  0  0  0
  -19.8030  -26.6260   21.3870 C   0  0  0  0  0  2  0  0  0  0  0  0
  -18.4020  -26.7180   21.9950 C   0  0  0  0  0  2  0  0  0  0  0  0
  -19.2710  -28.7980   23.2150 C   0  0  0  0  0  0  0  0  0  0  0  0
  -19.0090  -30.0320   23.8490 C   0  0  0  0  0  3  0  0  0  0  0  0
  -17.6890  -30.4990   23.9960 C   0  0  0  0  0  3  0  0  0  0  0  0
  -16.6140  -29.7320   23.5150 C   0  0  0  0  0  3  0  0  0  0  0  0
  -16.8620  -28.4990   22.8850 C   0  0  0  0  0  3  0  0  0  0  0  0
  -25.9140  -32.5570   24.0660 C   0  0  0  0  0  3  0  0  0  0  0  0
  -26.3390  -31.8080   25.3840 C   0  0  1  0  0  0  0  0  0  0  0  0
  -25.1820  -31.6040   26.3880 C   0  0  0  0  0  1  0  0  0  0  0  0
  -26.9330  -30.4170   25.0580 C   0  0  0  0  0  1  0  0  0  0  0  0
  -27.4530  -32.6070   26.1020 C   0  0  0  0  0  1  0  0  0  0  0  0
  -25.6080  -33.9670   24.3440 N   0  0  0  0  0  0  0  0  0  0  0  0
  -26.0040  -34.9970   23.5840 C   0  0  0  0  0  0  0  0  0  0  0  0
  -26.7390  -34.8570   22.6000 O   0  0  0  0  0  0  0  0  0  0  0  0
  -24.9730  -34.1480   25.1060 H   0  0  0  0  0  0  0  0  0  0  0  0
  -24.3410  -36.8150   23.0730 C   0  0  0  0  0  1  0  0  0  0  0  0
  -25.5110  -36.4040   23.9820 C   0  0  0  0  0  3  0  0  0  0  0  0
  -27.5910  -37.2690   24.9580 C   0  0  0  0  0  1  0  0  0  0  0  0
  -26.5700  -37.4360   23.9260 N   0  0  0  0  0  0  0  0  0  0  0  0
  -26.1700  -38.3640   24.0250 H   0  0  0  0  0  0  0  0  0  0  0  0
  -29.4010  -20.7460   22.1170 C   0  0  0  0  0  1  0  0  0  0  0  0
  -29.7320  -20.9840   20.6210 C   0  0  0  0  0  3  0  0  0  0  0  0
  -30.1880  -18.4280   17.7030 C   0  0  0  0  0  3  0  0  0  0  0  0
  -29.9520  -19.6340   18.4050 C   0  0  0  0  0  3  0  0  0  0  0  0
  -30.2960  -17.2000   18.3910 C   0  0  0  0  0  3  0  0  0  0  0  0
  -29.8800  -18.3660   20.4810 C   0  0  0  0  0  3  0  0  0  0  0  0
  -29.8170  -19.6380   19.8170 C   0  0  0  0  0  0  0  0  0  0  0  0
  -30.1400  -17.1410   19.7980 C   0  0  0  0  0  0  0  0  0  0  0  0
  -30.9640  -14.8130   20.2980 C   0  0  0  0  0  0  0  0  0  0  0  0
  -30.7480  -12.5550   19.3460 C   0  0  0  0  0  2  0  0  0  0  0  0
  -29.8300  -12.7030   18.1140 C   0  0  0  0  0  2  0  0  0  0  0  0
  -28.3460  -12.5910   18.5240 C   0  0  0  0  0  2  0  0  0  0  0  0
  -27.9880  -13.4780   19.7490 C   0  0  0  0  0  3  0  0  0  0  0  0
  -29.0290  -13.3050   20.8800 C   0  0  0  0  0  2  0  0  0  0  0  0
  -30.3530  -13.5950   20.3120 N   0  0  0  0  0  0  0  0  0  0  0  0
  -32.1380  -14.9590   19.9450 O   0  0  0  0  0  0  0  0  0  0  0  0
  -30.1480  -15.8810   20.5120 N   0  0  0  0  0  0  0  0  0  0  0  0
  -29.2980  -15.6650   21.0120 H   0  0  0  0  0  0  0  0  0  0  0  0
  -25.5940  -14.1260   20.4360 C   0  0  0  0  0  0  0  0  0  0  0  0
  -24.5120  -13.3730   20.8010 C   0  0  0  0  0  0  0  0  0  0  0  0
  -24.9500  -12.0140   20.7780 C   0  0  0  0  0  0  0  0  0  0  0  0
  -26.6280  -13.2270   20.2180 N   0  0  0  0  0  0  0  0  0  0  0  0
  -26.2420  -11.9520   20.4800 N   0  0  0  0  0  0  0  0  0  0  0  0
  -24.2010  -10.7650   20.9630 C   0  0  0  0  0  0  0  0  0  0  0  0
  -24.5800   -9.8170   21.9390 C   0  0  0  0  0  3  0  0  0  0  0  0
  -23.8350   -8.6310   22.1110 C   0  0  0  0  0  3  0  0  0  0  0  0
  -22.6980   -8.3860   21.3070 C   0  0  0  0  0  0  0  0  0  0  0  0
  -22.3390   -9.3220   20.3210 C   0  0  0  0  0  3  0  0  0  0  0  0
  -23.0840  -10.4990   20.1460 C   0  0  0  0  0  3  0  0  0  0  0  0
  -21.9290   -7.2500   21.3840 O   0  0  0  0  0  0  0  0  0  0  0  0
  -21.7790   -6.5620   22.5610 C   0  0  0  0  0  0  0  0  0  0  0  0
  -21.1920   -7.1540   23.7000 C   0  0  0  0  0  3  0  0  0  0  0  0
  -20.9930   -6.3890   24.8680 C   0  0  0  0  0  3  0  0  0  0  0  0
  -21.3720   -5.0340   24.8960 C   0  0  0  0  0  0  0  0  0  0  0  0
  -21.9540   -4.4420   23.7620 C   0  0  0  0  0  3  0  0  0  0  0  0
  -22.1540   -5.2040   22.5960 C   0  0  0  0  0  0  0  0  0  0  0  0
  -22.6940   -4.6230   21.4980 F   0  0  0  0  0  0  0  0  0  0  0  0
  -21.1760   -4.2970   26.0140 F   0  0  0  0  0  0  0  0  0  0  0  0
  -23.1210  -13.8770   21.0580 C   0  0  0  0  0  0  0  0  0  0  0  0
  -22.3710  -13.1940   21.9150 N   0  0  0  0  0  0  0  0  0  0  0  0
  -22.7070  -14.9100   20.5310 O   0  0  0  0  0  0  0  0  0  0  0  0
  -22.7150  -12.3560   22.3590 H   0  0  0  0  0  0  0  0  0  0  0  0
  -21.4390  -13.5170   22.1310 H   0  0  0  0  0  0  0  0  0  0  0  0
  -25.7830  -15.4930   20.2490 N   0  0  0  0  0  0  0  0  0  0  0  0
  -25.0130  -16.1480   20.3200 H   0  0  0  0  0  0  0  0  0  0  0  0
  -26.6210  -15.9080   19.8610 H   0  0  0  0  0  0  0  0  0  0  0  0
  1  2  1  0
  1  6  1  0
  2  4  1  0
  2 51  1  0
  3  1  2  0
  6  5  2  0
  6  7  1  0
  7  8  1  0
  9  5  1  0
 10 21  2  0
 11  9  1  0
 11 16  1  0
 12 20  1  0
 12 22  1  0
 13 19  1  0
 13 15  1  0
 14 20  1  0
 15 14  1  0
 16 15  2  0
 17 18  1  0
 17 11  2  0
 18 13  2  0
 19 12  1  0
 20 10  1  0
 22 24  2  0
 23 22  1  0
 25 23  1  0
 26 35  2  0
 26 31  1  0
 27 23  1  0
 27 31  1  0
 28 27  1  0
 29 30  1  0
 29 28  1  0
 30 26  1  0
 31 32  2  0
 32 33  1  0
 34 33  2  0
 35 34  1  0
 36 10  1  0
 36 41  1  0
 36 37  1  0
 37 40  1  1
 37 38  1  0
 39 37  1  0
 41 44  1  0
 42 46  1  0
 42 41  1  0
 43 42  2  0
 46 45  1  0
 48 46  1  0
 48 49  1  0
 48 47  1  0
 51 50  1  0
 52 54  2  0
 52 53  1  0
 53 56  2  0
 54 57  1  0
 56 55  1  0
 56 51  1  0
 57 55  2  0
 57 66  1  0
 58 64  1  0
 58 66  1  0
 59 64  1  0
 60 61  1  0
 60 59  1  0
 62 61  1  0
 62 71  1  0
 62 63  1  0
 64 63  1  0
 65 58  2  0
 66 67  1  0
 68 69  2  0
 69 88  1  0
 70 69  1  0
 70 73  1  0
 71 68  1  0
 71 72  1  0
 72 70  2  0
 73 74  1  0
 74 75  2  0
 76 79  1  0
 76 75  1  0
 77 76  2  0
 78 77  1  0
 78 73  2  0
 79 80  1  0
 80 85  2  0
 80 81  1  0
 81 82  2  0
 82 83  1  0
 83 87  1  0
 84 83  2  0
 85 84  1  0
 86 85  1  0
 88 89  1  0
 89 92  1  0
 89 91  1  0
 90 88  2  0
 93 94  1  0
 93 68  1  0
 95 93  1  0
M  ISO  4   5 101   9 101  58 100  66 100
M  END
>  <TORSDO>  (87) 
F 20

>  <SCORE>  (87) 
-13.595

>  <name>  (87) 
87

>  <ligand_id>  (87) 
87

>  <original_smiles>  (87) 
[H]OC(C(=O)N([H])C([H])(c1c([H])c([H])c([H])c(N([H])C(=O)N2C([H])([H])C([H])([H])C([H])([H])C([H])(n3nc(-c4c([H])c([H])c(Oc5c([H])c([H])c(F)c([H])c5F)c([H])c4[H])c(C(=O)N([H])[H])c3N([H])[H])C2([H])[H])c1[H])C([H])([H])[H])=C([H])Oc1c([H])c([H])c2c(c1[H])C([H])([H])N(C(=O)C([H])(N([H])C(=O)C([H])(N([H])C([H])([H])[H])C([H])([H])[H])C(C([H])([H])[H])(C([H])([H])[H])C([H])([H])[H])C([H])(C(=O)N([H])C1([H])c3c([H])c([H])c([H])c([H])c3C([H])([H])C([H])([H])C1([H])[H])C2([H])[H]

>  <smiles>  (87) 
[H]OC(C(=O)N([H])C([H])(c1c([H])c([H])c([H])c(N([H])C(=O)N2C([H])([H])C([H])([H])C([H])([H])C([H])(n3nc(-c4c([H])c([H])c(Oc5c([H])c([H])c(F)c([H])c5F)c([H])c4[H])c(C(=O)N([H])[H])c3N([H])[H])C2([H])[H])c1[H])C([H])([H])[H])=C([H])Oc1c([H])c([H])c2c(c1[H])C([H])([H])N(C(=O)C([H])(N([H])C(=O)C([H])(N([H])C([H])([H])[H])C([H])([H])[H])C(C([H])([H])[H])(C([H])([H])[H])C([H])([H])[H])C([H])(C(=O)N([H])C1([H])c3c([H])c([H])c([H])c([H])c3C([H])([H])C([H])([H])C1([H])[H])C2([H])[H]

$$$$
88:0:0
     RDKit          3D

 94102  0  0  1  0  0  0  0  0999 V2000
  -29.3810  -18.5810   20.2710 C   0  0  0  0  0  3  0  0  0  0  0  0
  -31.4130  -17.7100   21.2910 C   0  0  0  0  0  3  0  0  0  0  0  0
  -29.7900  -19.9760   20.4560 C   0  0  0  0  0  0  0  0  0  0  0  0
  -30.1800  -17.4150   20.6690 C   0  0  0  0  0  0  0  0  0  0  0  0
  -31.0610  -20.1390   21.0790 C   0  0  0  0  0  0  0  0  0  0  0  0
  -31.8370  -19.0350   21.4940 C   0  0  0  0  0  0  0  0  0  0  0  0
  -33.0480  -19.2620   22.0630 F   0  0  0  0  0  0  0  0  0  0  0  0
  -30.5600  -14.8170   20.3640 C   0  0  0  0  0  0  0  0  0  0  0  0
  -30.3520  -12.5370   19.3420 C   0  0  0  0  0  2  0  0  0  0  0  0
  -29.4160  -12.6140   18.1170 C   0  0  0  0  0  2  0  0  0  0  0  0
  -27.9440  -12.4380   18.5470 C   0  0  0  0  0  2  0  0  0  0  0  0
  -27.5720  -13.3140   19.7730 C   0  0  0  0  0  3  0  0  0  0  0  0
  -28.6360  -13.2280   20.8880 C   0  0  0  0  0  2  0  0  0  0  0  0
  -29.9230  -13.5940   20.2870 N   0  0  0  0  0  0  0  0  0  0  0  0
  -31.7540  -14.8860   20.0670 O   0  0  0  0  0  0  0  0  0  0  0  0
  -29.7880  -15.9750   20.5210 N   0  0  0  0  0  0  0  0  0  0  0  0
  -28.7970  -15.8000   20.5560 H   0  0  0  0  0  0  0  0  0  0  0  0
  -25.1870  -13.8990   20.5100 C   0  0  0  0  0  0  0  0  0  0  0  0
  -24.1220  -13.1220   20.8780 C   0  0  0  0  0  0  0  0  0  0  0  0
  -24.5850  -11.7720   20.8460 C   0  0  0  0  0  0  0  0  0  0  0  0
  -26.2300  -13.0200   20.2660 N   0  0  0  0  0  0  0  0  0  0  0  0
  -25.8760  -11.7360   20.5340 N   0  0  0  0  0  0  0  0  0  0  0  0
  -23.8580  -10.5090   21.0370 C   0  0  0  0  0  0  0  0  0  0  0  0
  -24.2900   -9.5400   21.9690 C   0  0  0  0  0  3  0  0  0  0  0  0
  -23.5650   -8.3430   22.1460 C   0  0  0  0  0  3  0  0  0  0  0  0
  -22.3920   -8.1050   21.3900 C   0  0  0  0  0  0  0  0  0  0  0  0
  -21.9780   -9.0610   20.4470 C   0  0  0  0  0  3  0  0  0  0  0  0
  -22.7060  -10.2510   20.2670 C   0  0  0  0  0  3  0  0  0  0  0  0
  -21.6360   -6.9620   21.4770 O   0  0  0  0  0  0  0  0  0  0  0  0
  -21.5810   -6.2200   22.6300 C   0  0  0  0  0  0  0  0  0  0  0  0
  -21.1480   -6.7760   23.8530 C   0  0  0  0  0  3  0  0  0  0  0  0
  -21.0430   -5.9600   24.9980 C   0  0  0  0  0  3  0  0  0  0  0  0
  -21.3610   -4.5910   24.9180 C   0  0  0  0  0  0  0  0  0  0  0  0
  -21.7890   -4.0350   23.6990 C   0  0  0  0  0  3  0  0  0  0  0  0
  -21.8960   -4.8490   22.5570 C   0  0  0  0  0  0  0  0  0  0  0  0
  -22.2890   -4.3050   21.3810 F   0  0  0  0  0  0  0  0  0  0  0  0
  -21.2530   -3.8040   26.0150 F   0  0  0  0  0  0  0  0  0  0  0  0
  -22.7230  -13.5980   21.1490 C   0  0  0  0  0  0  0  0  0  0  0  0
  -21.9920  -12.9000   22.0100 N   0  0  0  0  0  0  0  0  0  0  0  0
  -22.2890  -14.6260   20.6310 O   0  0  0  0  0  0  0  0  0  0  0  0
  -22.3580  -12.0690   22.4530 H   0  0  0  0  0  0  0  0  0  0  0  0
  -21.0540  -13.2020   22.2320 H   0  0  0  0  0  0  0  0  0  0  0  0
  -25.3480  -15.2690   20.3380 N   0  0  0  0  0  0  0  0  0  0  0  0
  -24.5700  -15.9120   20.4450 H   0  0  0  0  0  0  0  0  0  0  0  0
  -26.1800  -15.7130   19.9740 H   0  0  0  0  0  0  0  0  0  0  0  0
  -31.6540  -21.3920   21.2220 N   0  0  0  0  0  0  0  0  0  0  0  0
  -31.3920  -22.0450   20.4940 H   0  0  0  0  0  0  0  0  0  0  0  0
  -32.6590  -21.3380   21.3510 H   0  0  0  0  0  0  0  0  0  0  0  0
  -28.9410  -22.3350   20.4610 C   0  0  0  0  0  2  0  0  0  0  0  0
  -29.1000  -21.1490   19.8890 N   0  0  0  0  0  2  0  0  0  0  0  0
  -27.8990  -23.6830   18.4640 C   0  0  0  0  0  1  0  0  0  0  0  0
  -28.7110  -23.7770   19.7680 C   0  0  0  0  0  3  0  0  0  0  0  0
  -28.1670  -25.0160   20.6620 C   0  0  0  0  0  2  0  0  0  0  0  0
  -28.3400  -26.4520   20.2470 O   0  0  0  0  0  0  0  0  0  0  0  0
  -24.5870  -31.9150   23.2490 C   0  0  0  0  0  0  0  0  0  0  0  0
  -27.2280  -27.3190   20.2380 C   0  0  0  0  0  0  0  0  0  0  0  0
  -23.4020  -30.5080   21.6040 C   0  0  0  0  0  3  0  0  0  0  0  0
  -24.8700  -28.9460   20.2010 C   0  0  0  0  0  0  0  0  0  0  0  0
  -25.9450  -30.8230   21.4430 C   0  0  0  0  0  2  0  0  0  0  0  0
  -26.0360  -29.4370   20.8020 C   0  0  0  0  0  0  0  0  0  0  0  0
  -27.2240  -28.6380   20.8030 C   0  0  0  0  0  3  0  0  0  0  0  0
  -26.0420  -26.8880   19.6130 C   0  0  0  0  0  3  0  0  0  0  0  0
  -24.8760  -27.6790   19.5950 C   0  0  0  0  0  3  0  0  0  0  0  0
  -23.6320  -29.8230   20.2290 C   0  0  0  0  0  2  0  0  0  0  0  0
  -24.6630  -31.1010   22.1540 N   0  0  0  0  0  0  0  0  0  0  0  0
  -23.4970  -32.1900   23.7740 O   0  0  0  0  0  0  0  0  0  0  0  0
  -22.7300  -29.4950   22.5630 C   0  0  0  0  0  0  0  0  0  0  0  0
  -21.4050  -29.3170   22.4290 N   0  0  0  0  0  0  0  0  0  0  0  0
  -23.4030  -28.8720   23.3890 O   0  0  0  0  0  0  0  0  0  0  0  0
  -20.9210  -29.8700   21.7360 H   0  0  0  0  0  0  0  0  0  0  0  0
  -18.0220  -28.1370   22.9220 C   0  0  0  0  0  0  0  0  0  0  0  0
  -20.5800  -28.3840   23.1990 C   0  0  0  0  0  3  0  0  0  0  0  0
  -20.6780  -26.9540   22.6210 C   0  0  0  0  0  2  0  0  0  0  0  0
  -19.5760  -26.6370   21.6040 C   0  0  0  0  0  2  0  0  0  0  0  0
  -18.1940  -26.7870   22.2450 C   0  0  0  0  0  2  0  0  0  0  0  0
  -19.1420  -28.8940   23.3550 C   0  0  0  0  0  0  0  0  0  0  0  0
  -18.9260  -30.1560   23.9490 C   0  0  0  0  0  3  0  0  0  0  0  0
  -17.6220  -30.6620   24.1140 C   0  0  0  0  0  3  0  0  0  0  0  0
  -16.5160  -29.9010   23.6980 C   0  0  0  0  0  3  0  0  0  0  0  0
  -16.7160  -28.6410   23.1070 C   0  0  0  0  0  3  0  0  0  0  0  0
  -25.8610  -32.5550   23.8830 C   0  0  0  0  0  3  0  0  0  0  0  0
  -26.3610  -31.7980   25.1750 C   0  0  1  0  0  0  0  0  0  0  0  0
  -25.2530  -31.5740   26.2310 C   0  0  0  0  0  1  0  0  0  0  0  0
  -26.9460  -30.4150   24.8080 C   0  0  0  0  0  1  0  0  0  0  0  0
  -27.5060  -32.5970   25.8420 C   0  0  0  0  0  1  0  0  0  0  0  0
  -25.5480  -33.9570   24.1940 N   0  0  0  0  0  0  0  0  0  0  0  0
  -25.8960  -35.0020   23.4300 C   0  0  0  0  0  0  0  0  0  0  0  0
  -26.5780  -34.8860   22.4090 O   0  0  0  0  0  0  0  0  0  0  0  0
  -24.9460  -34.1210   24.9880 H   0  0  0  0  0  0  0  0  0  0  0  0
  -24.1830  -36.8010   23.0280 C   0  0  0  0  0  1  0  0  0  0  0  0
  -25.4050  -36.3970   23.8680 C   0  0  0  0  0  3  0  0  0  0  0  0
  -27.5260  -37.2790   24.7350 C   0  0  0  0  0  1  0  0  0  0  0  0
  -26.4430  -37.4450   23.7680 N   0  0  0  0  0  0  0  0  0  0  0  0
  -26.0360  -38.3660   23.9070 H   0  0  0  0  0  0  0  0  0  0  0  0
  1  3  2  0
  1  4  1  0
  2  6  1  0
  3  5  1  0
  4  2  2  0
  5 46  1  0
  5  6  2  0
  6  7  1  0
  8 16  1  0
  9 14  1  0
 10 11  1  0
 10  9  1  0
 12 11  1  0
 12 21  1  0
 12 13  1  0
 14  8  1  0
 14 13  1  0
 15  8  2  0
 16 17  1  0
 16  4  1  0
 18 19  2  0
 19 38  1  0
 20 19  1  0
 20 23  1  0
 21 18  1  0
 21 22  1  0
 22 20  2  0
 23 24  1  0
 24 25  2  0
 26 29  1  0
 26 25  1  0
 27 26  2  0
 28 27  1  0
 28 23  2  0
 29 30  1  0
 30 31  1  0
 31 32  2  0
 33 32  1  0
 33 37  1  0
 34 33  2  0
 35 30  2  0
 35 34  1  0
 36 35  1  0
 38 39  1  0
 39 42  1  0
 39 41  1  0
 40 38  2  0
 43 44  1  0
 43 18  1  0
 45 43  1  0
 46 48  1  0
 47 46  1  0
 50  3  1  0
 50 49  1  0
 52 51  1  0
 52 49  1  0
 52 53  1  0
 54 53  1  0
 55 66  2  0
 56 54  1  0
 56 61  1  0
 57 65  1  0
 57 67  1  0
 58 64  1  0
 58 60  1  0
 59 65  1  0
 60 61  2  0
 60 59  1  0
 62 56  2  0
 63 62  1  0
 63 58  2  0
 64 57  1  0
 65 55  1  0
 67 69  2  0
 68 67  1  0
 70 68  1  0
 71 80  2  0
 71 76  1  0
 72 68  1  0
 72 76  1  0
 73 72  1  0
 74 75  1  0
 74 73  1  0
 75 71  1  0
 76 77  2  0
 77 78  1  0
 79 78  2  0
 80 79  1  0
 81 55  1  0
 81 86  1  0
 81 82  1  0
 82 85  1  1
 82 83  1  0
 84 82  1  0
 86 89  1  0
 87 91  1  0
 87 86  1  0
 88 87  2  0
 91 90  1  0
 93 91  1  0
 93 94  1  0
 93 92  1  0
M  ISO  4   8 100  16 100  53 101  54 101
M  END
>  <TORSDO>  (88) 
F 20

>  <SCORE>  (88) 
-14.383

>  <name>  (88) 
88

>  <ligand_id>  (88) 
88

>  <original_smiles>  (88) 
[H]C(=Nc1c([H])c(N([H])C(=O)N2C([H])([H])C([H])([H])C([H])([H])C([H])(n3nc(-c4c([H])c([H])c(Oc5c([H])c([H])c(F)c([H])c5F)c([H])c4[H])c(C(=O)N([H])[H])c3N([H])[H])C2([H])[H])c([H])c(F)c1N([H])[H])C([H])(C([H])([H])[H])C([H])([H])Oc1c([H])c([H])c2c(c1[H])C([H])([H])N(C(=O)C([H])(N([H])C(=O)C([H])(N([H])C([H])([H])[H])C([H])([H])[H])C(C([H])([H])[H])(C([H])([H])[H])C([H])([H])[H])C([H])(C(=O)N([H])C1([H])c3c([H])c([H])c([H])c([H])c3C([H])([H])C([H])([H])C1([H])[H])C2([H])[H]

>  <smiles>  (88) 
[H]C(=Nc1c([H])c(N([H])C(=O)N2C([H])([H])C([H])([H])C([H])([H])C([H])(n3nc(-c4c([H])c([H])c(Oc5c([H])c([H])c(F)c([H])c5F)c([H])c4[H])c(C(=O)N([H])[H])c3N([H])[H])C2([H])[H])c([H])c(F)c1N([H])[H])C([H])(C([H])([H])[H])C([H])([H])Oc1c([H])c([H])c2c(c1[H])C([H])([H])N(C(=O)C([H])(N([H])C(=O)C([H])(N([H])C([H])([H])[H])C([H])([H])[H])C(C([H])([H])[H])(C([H])([H])[H])C([H])([H])[H])C([H])(C(=O)N([H])C1([H])c3c([H])c([H])c([H])c([H])c3C([H])([H])C([H])([H])C1([H])[H])C2([H])[H]

$$$$
89:0:0
     RDKit          3D

 97105  0  0  1  0  0  0  0  0999 V2000
  -30.1690  -19.6960   21.0490 C   0  0  0  0  0  3  0  0  0  0  0  0
  -28.9770  -19.2780   19.0120 C   0  0  0  0  0  3  0  0  0  0  0  0
  -30.3840  -18.2880   21.2280 C   0  0  0  0  0  0  0  0  0  0  0  0
  -29.4470  -20.2340   19.9510 C   0  0  0  0  0  0  0  0  0  0  0  0
  -29.8740  -17.3380   20.2890 C   0  0  0  0  0  0  0  0  0  0  0  0
  -29.1710  -17.8730   19.1790 C   0  0  0  0  0  0  0  0  0  0  0  0
  -28.6310  -17.0220   18.2710 F   0  0  0  0  0  0  0  0  0  0  0  0
  -30.6250  -14.8900   20.0010 C   0  0  0  0  0  0  0  0  0  0  0  0
  -30.3970  -12.6470   18.9430 C   0  0  0  0  0  2  0  0  0  0  0  0
  -29.3820  -12.7680   17.7800 C   0  0  0  0  0  2  0  0  0  0  0  0
  -27.9430  -12.5760   18.2940 C   0  0  0  0  0  2  0  0  0  0  0  0
  -27.6420  -13.4400   19.5470 C   0  0  0  0  0  3  0  0  0  0  0  0
  -28.7600  -13.2900   20.6040 C   0  0  0  0  0  2  0  0  0  0  0  0
  -30.0340  -13.6530   19.9620 N   0  0  0  0  0  0  0  0  0  0  0  0
  -31.7330  -15.0920   19.4980 O   0  0  0  0  0  0  0  0  0  0  0  0
  -29.8710  -15.8950   20.5370 N   0  0  0  0  0  0  0  0  0  0  0  0
  -29.0370  -15.5580   20.9930 H   0  0  0  0  0  0  0  0  0  0  0  0
  -25.2990  -14.0130   20.4330 C   0  0  0  0  0  0  0  0  0  0  0  0
  -24.2590  -13.2250   20.8470 C   0  0  0  0  0  0  0  0  0  0  0  0
  -24.7200  -11.8780   20.7440 C   0  0  0  0  0  0  0  0  0  0  0  0
  -26.3260  -13.1430   20.1040 N   0  0  0  0  0  0  0  0  0  0  0  0
  -25.9860  -11.8520   20.3500 N   0  0  0  0  0  0  0  0  0  0  0  0
  -24.0090  -10.6070   20.9350 C   0  0  0  0  0  0  0  0  0  0  0  0
  -24.4460   -9.6510   21.8800 C   0  0  0  0  0  3  0  0  0  0  0  0
  -23.7330   -8.4470   22.0610 C   0  0  0  0  0  3  0  0  0  0  0  0
  -22.5700   -8.1890   21.2950 C   0  0  0  0  0  0  0  0  0  0  0  0
  -22.1540   -9.1330   20.3410 C   0  0  0  0  0  3  0  0  0  0  0  0
  -22.8670  -10.3290   20.1580 C   0  0  0  0  0  3  0  0  0  0  0  0
  -21.8300   -7.0330   21.3850 O   0  0  0  0  0  0  0  0  0  0  0  0
  -21.7230   -6.3370   22.5610 C   0  0  0  0  0  0  0  0  0  0  0  0
  -21.1450   -6.9090   23.7170 C   0  0  0  0  0  3  0  0  0  0  0  0
  -20.9920   -6.1350   24.8850 C   0  0  0  0  0  3  0  0  0  0  0  0
  -21.4060   -4.7890   24.8960 C   0  0  0  0  0  0  0  0  0  0  0  0
  -21.9750   -4.2170   23.7460 C   0  0  0  0  0  3  0  0  0  0  0  0
  -22.1300   -4.9880   22.5810 C   0  0  0  0  0  0  0  0  0  0  0  0
  -22.6620   -4.4260   21.4690 F   0  0  0  0  0  0  0  0  0  0  0  0
  -21.2500   -4.0430   26.0140 F   0  0  0  0  0  0  0  0  0  0  0  0
  -22.8830  -13.6890   21.2260 C   0  0  0  0  0  0  0  0  0  0  0  0
  -22.2110  -12.9550   22.1060 N   0  0  0  0  0  0  0  0  0  0  0  0
  -22.4160  -14.7350   20.7770 O   0  0  0  0  0  0  0  0  0  0  0  0
  -22.6060  -12.1050   22.4820 H   0  0  0  0  0  0  0  0  0  0  0  0
  -21.2930  -13.2460   22.4090 H   0  0  0  0  0  0  0  0  0  0  0  0
  -25.4510  -15.3880   20.2910 N   0  0  0  0  0  0  0  0  0  0  0  0
  -24.6820  -16.0270   20.4580 H   0  0  0  0  0  0  0  0  0  0  0  0
  -26.2530  -15.8360   19.8640 H   0  0  0  0  0  0  0  0  0  0  0  0
  -31.1560  -17.8160   22.4540 C   0  0  1  0  0  0  0  0  0  0  0  0
  -31.7010  -18.8300   23.1320 F   0  0  0  0  0  0  0  0  0  0  0  0
  -30.3450  -17.1570   23.2820 F   0  0  0  0  0  0  0  0  0  0  0  0
  -32.1410  -17.0000   22.0790 F   0  0  0  0  0  0  0  0  0  0  0  0
  -29.0940  -22.7250   20.5910 C   0  0  0  0  0  0  0  0  0  0  0  0
  -29.2400  -21.6730   19.7180 N   0  0  0  0  0  0  0  0  0  0  0  0
  -28.9930  -22.5180   21.8030 O   0  0  0  0  0  0  0  0  0  0  0  0
  -29.1830  -21.9430   18.7450 H   0  0  0  0  0  0  0  0  0  0  0  0
  -29.0810  -24.2200   20.0500 C   0  0  0  0  0  2  0  0  0  0  0  0
  -28.3050  -25.5230   22.2240 C   0  0  0  0  0  1  0  0  0  0  0  0
  -28.1450  -25.3530   20.6980 C   0  0  0  0  0  3  0  0  0  0  0  0
  -28.3190  -26.7290   20.1750 O   0  0  0  0  0  0  0  0  0  0  0  0
  -24.5310  -32.0140   23.3030 C   0  0  0  0  0  0  0  0  0  0  0  0
  -27.1920  -27.5600   20.1670 C   0  0  0  0  0  0  0  0  0  0  0  0
  -23.3360  -30.6220   21.6490 C   0  0  0  0  0  3  0  0  0  0  0  0
  -24.8010  -29.1150   20.1900 C   0  0  0  0  0  0  0  0  0  0  0  0
  -25.8650  -30.9900   21.4490 C   0  0  0  0  0  2  0  0  0  0  0  0
  -25.9640  -29.6210   20.7870 C   0  0  0  0  0  0  0  0  0  0  0  0
  -27.1650  -28.8540   20.7660 C   0  0  0  0  0  3  0  0  0  0  0  0
  -26.0150  -27.1050   19.5360 C   0  0  0  0  0  3  0  0  0  0  0  0
  -24.8280  -27.8630   19.5540 C   0  0  0  0  0  3  0  0  0  0  0  0
  -23.5500  -29.9680   20.2570 C   0  0  0  0  0  2  0  0  0  0  0  0
  -24.5960  -31.2260   22.1920 N   0  0  0  0  0  0  0  0  0  0  0  0
  -23.4490  -32.2670   23.8520 O   0  0  0  0  0  0  0  0  0  0  0  0
  -22.6930  -29.5840   22.5990 C   0  0  0  0  0  0  0  0  0  0  0  0
  -21.3750  -29.3660   22.4530 N   0  0  0  0  0  0  0  0  0  0  0  0
  -23.3800  -28.9760   23.4240 O   0  0  0  0  0  0  0  0  0  0  0  0
  -20.8800  -29.9110   21.7620 H   0  0  0  0  0  0  0  0  0  0  0  0
  -18.0290  -28.0640   22.9060 C   0  0  0  0  0  0  0  0  0  0  0  0
  -20.5750  -28.4010   23.2110 C   0  0  0  0  0  3  0  0  0  0  0  0
  -20.7280  -26.9740   22.6350 C   0  0  0  0  0  2  0  0  0  0  0  0
  -19.6500  -26.6200   21.6060 C   0  0  0  0  0  2  0  0  0  0  0  0
  -18.2560  -26.7220   22.2320 C   0  0  0  0  0  2  0  0  0  0  0  0
  -19.1190  -28.8590   23.3530 C   0  0  0  0  0  0  0  0  0  0  0  0
  -18.8550  -30.1140   23.9450 C   0  0  0  0  0  3  0  0  0  0  0  0
  -17.5340  -30.5740   24.0950 C   0  0  0  0  0  3  0  0  0  0  0  0
  -16.4590  -29.7790   23.6620 C   0  0  0  0  0  3  0  0  0  0  0  0
  -16.7070  -28.5250   23.0760 C   0  0  0  0  0  3  0  0  0  0  0  0
  -25.8100  -32.6540   23.9270 C   0  0  0  0  0  3  0  0  0  0  0  0
  -26.3140  -31.8980   25.2180 C   0  0  1  0  0  0  0  0  0  0  0  0
  -25.2110  -31.6640   26.2760 C   0  0  0  0  0  1  0  0  0  0  0  0
  -26.9120  -30.5220   24.8510 C   0  0  0  0  0  1  0  0  0  0  0  0
  -27.4510  -32.7060   25.8840 C   0  0  0  0  0  1  0  0  0  0  0  0
  -25.5000  -34.0570   24.2340 N   0  0  0  0  0  0  0  0  0  0  0  0
  -25.8670  -35.1000   23.4780 C   0  0  0  0  0  0  0  0  0  0  0  0
  -26.5710  -34.9830   22.4710 O   0  0  0  0  0  0  0  0  0  0  0  0
  -24.8790  -34.2250   25.0130 H   0  0  0  0  0  0  0  0  0  0  0  0
  -24.1960  -36.9240   23.0180 C   0  0  0  0  0  1  0  0  0  0  0  0
  -25.3760  -36.4960   23.9060 C   0  0  0  0  0  3  0  0  0  0  0  0
  -27.4620  -37.3490   24.8800 C   0  0  0  0  0  1  0  0  0  0  0  0
  -26.4340  -37.5300   23.8580 N   0  0  0  0  0  0  0  0  0  0  0  0
  -26.0350  -38.4580   23.9710 H   0  0  0  0  0  0  0  0  0  0  0  0
  1  3  1  0
  2  6  2  0
  2  4  1  0
  3 46  1  0
  4  1  2  0
  5 16  1  0
  5  3  2  0
  6  5  1  0
  7  6  1  0
  8 16  1  0
  9 14  1  0
 10 11  1  0
 10  9  1  0
 12 11  1  0
 12 21  1  0
 12 13  1  0
 14  8  1  0
 14 13  1  0
 15  8  2  0
 16 17  1  0
 18 19  2  0
 19 38  1  0
 20 19  1  0
 20 23  1  0
 21 22  1  0
 21 18  1  0
 22 20  2  0
 23 24  1  0
 24 25  2  0
 26 29  1  0
 26 25  1  0
 27 26  2  0
 28 27  1  0
 28 23  2  0
 29 30  1  0
 30 35  2  0
 30 31  1  0
 31 32  2  0
 32 33  1  0
 33 37  1  0
 34 33  2  0
 35 34  1  0
 36 35  1  0
 38 39  1  0
 39 42  1  0
 39 41  1  0
 40 38  2  0
 43 18  1  0
 43 44  1  0
 45 43  1  0
 46 47  1  1
 46 48  1  0
 49 46  1  0
 50 52  2  0
 51  4  1  0
 51 50  1  0
 53 51  1  0
 54 50  1  0
 54 56  1  0
 56 55  1  0
 57 56  1  0
 58 69  2  0
 59 57  1  0
 59 64  1  0
 60 68  1  0
 60 70  1  0
 61 67  1  0
 61 63  1  0
 62 68  1  0
 63 62  1  0
 64 63  2  0
 65 66  1  0
 65 59  2  0
 66 61  2  0
 67 60  1  0
 68 58  1  0
 70 72  2  0
 71 70  1  0
 73 71  1  0
 74 83  2  0
 74 79  1  0
 75 71  1  0
 75 79  1  0
 76 75  1  0
 77 78  1  0
 77 76  1  0
 78 74  1  0
 79 80  2  0
 80 81  1  0
 82 81  2  0
 83 82  1  0
 84 58  1  0
 84 89  1  0
 84 85  1  0
 85 88  1  1
 85 86  1  0
 87 85  1  0
 89 92  1  0
 90 94  1  0
 90 89  1  0
 91 90  2  0
 94 93  1  0
 96 94  1  0
 96 97  1  0
 96 95  1  0
M  ISO  4   8 100  16 100  56 101  57 101
M  END
>  <TORSDO>  (89) 
F 20

>  <SCORE>  (89) 
-13.266

>  <name>  (89) 
89

>  <ligand_id>  (89) 
89

>  <original_smiles>  (89) 
[H]c1c([H])c([H])c2c(c1[H])C([H])([H])C([H])([H])C([H])([H])C2([H])N([H])C(=O)C1([H])N(C(=O)C([H])(N([H])C(=O)C([H])(N([H])C([H])([H])[H])C([H])([H])[H])C(C([H])([H])[H])(C([H])([H])[H])C([H])([H])[H])C([H])([H])c2c([H])c(OC([H])(C([H])([H])[H])C([H])([H])C(=O)N([H])c3c([H])c(F)c(N([H])C(=O)N4C([H])([H])C([H])([H])C([H])([H])C([H])(n5nc(-c6c([H])c([H])c(Oc7c([H])c([H])c(F)c([H])c7F)c([H])c6[H])c(C(=O)N([H])[H])c5N([H])[H])C4([H])[H])c(C(F)(F)F)c3[H])c([H])c([H])c2C1([H])[H]

>  <smiles>  (89) 
[H]c1c([H])c([H])c2c(c1[H])C([H])([H])C([H])([H])C([H])([H])C2([H])N([H])C(=O)C1([H])N(C(=O)C([H])(N([H])C(=O)C([H])(N([H])C([H])([H])[H])C([H])([H])[H])C(C([H])([H])[H])(C([H])([H])[H])C([H])([H])[H])C([H])([H])c2c([H])c(OC([H])(C([H])([H])[H])C([H])([H])C(=O)N([H])c3c([H])c(F)c(N([H])C(=O)N4C([H])([H])C([H])([H])C([H])([H])C([H])(n5nc(-c6c([H])c([H])c(Oc7c([H])c([H])c(F)c([H])c7F)c([H])c6[H])c(C(=O)N([H])[H])c5N([H])[H])C4([H])[H])c(C(F)(F)F)c3[H])c([H])c([H])c2C1([H])[H]

$$$$
90:0:0
     RDKit          3D

101110  0  0  1  0  0  0  0  0999 V2000
  -29.1980  -20.4070   19.5480 C   0  0  0  0  0  3  0  0  0  0  0  0
  -27.9060  -23.9550   19.2100 C   0  0  0  0  0  2  0  0  0  0  0  0
  -28.8510  -23.6600   21.4490 C   0  0  0  0  0  2  0  0  0  0  0  0
  -28.5910  -22.6680   18.7180 C   0  0  0  0  0  2  0  0  0  0  0  0
  -29.6150  -22.3950   21.0110 C   0  0  0  0  0  2  0  0  0  0  0  0
  -28.7070  -24.6850   20.3010 C   0  0  1  0  0  0  0  0  0  0  0  0
  -29.0300  -21.7390   19.8070 N   0  0  0  0  0  0  0  0  0  0  0  0
  -28.6430  -19.9020   18.4460 N   0  0  0  0  0  0  0  0  0  0  0  0
  -28.8550  -18.9540   18.1760 H   0  0  0  0  0  0  0  0  0  0  0  0
  -27.9930  -20.4250   17.8870 H   0  0  0  0  0  0  0  0  0  0  0  0
  -31.2720  -19.8120   20.8330 C   0  0  0  0  0  3  0  0  0  0  0  0
  -29.5490  -18.1160   20.4970 C   0  0  0  0  0  3  0  0  0  0  0  0
  -31.6860  -17.5070   21.5120 C   0  0  0  0  0  3  0  0  0  0  0  0
  -29.9910  -19.4570   20.3520 C   0  0  0  0  0  0  0  0  0  0  0  0
  -32.1030  -18.8530   21.4410 C   0  0  0  0  0  0  0  0  0  0  0  0
  -30.4210  -17.1270   21.0070 C   0  0  0  0  0  0  0  0  0  0  0  0
  -30.6720  -14.8150   20.2360 C   0  0  0  0  0  0  0  0  0  0  0  0
  -30.3860  -12.6530   19.0780 C   0  0  0  0  0  2  0  0  0  0  0  0
  -29.3960  -12.8140   17.9060 C   0  0  0  0  0  2  0  0  0  0  0  0
  -27.9430  -12.6330   18.3880 C   0  0  0  0  0  2  0  0  0  0  0  0
  -27.6240  -13.4810   19.6480 C   0  0  0  0  0  3  0  0  0  0  0  0
  -28.7180  -13.3000   20.7240 C   0  0  0  0  0  2  0  0  0  0  0  0
  -30.0170  -13.6310   20.1140 N   0  0  0  0  0  0  0  0  0  0  0  0
  -31.7360  -15.0520   19.6510 O   0  0  0  0  0  0  0  0  0  0  0  0
  -30.0420  -15.7580   20.9660 N   0  0  0  0  0  0  0  0  0  0  0  0
  -29.1310  -15.5090   21.3210 H   0  0  0  0  0  0  0  0  0  0  0  0
  -25.2550  -14.0490   20.4870 C   0  0  0  0  0  0  0  0  0  0  0  0
  -24.2100  -13.2590   20.8850 C   0  0  0  0  0  0  0  0  0  0  0  0
  -24.6770  -11.9120   20.7870 C   0  0  0  0  0  0  0  0  0  0  0  0
  -26.2930  -13.1830   20.1760 N   0  0  0  0  0  0  0  0  0  0  0  0
  -25.9510  -11.8900   20.4120 N   0  0  0  0  0  0  0  0  0  0  0  0
  -23.9690  -10.6390   20.9760 C   0  0  0  0  0  0  0  0  0  0  0  0
  -24.4140   -9.6790   21.9120 C   0  0  0  0  0  3  0  0  0  0  0  0
  -23.7080   -8.4690   22.0860 C   0  0  0  0  0  3  0  0  0  0  0  0
  -22.5420   -8.2120   21.3270 C   0  0  0  0  0  0  0  0  0  0  0  0
  -22.1160   -9.1620   20.3820 C   0  0  0  0  0  3  0  0  0  0  0  0
  -22.8220  -10.3620   20.2050 C   0  0  0  0  0  3  0  0  0  0  0  0
  -21.8060   -7.0540   21.4120 O   0  0  0  0  0  0  0  0  0  0  0  0
  -21.7050   -6.3500   22.5850 C   0  0  0  0  0  0  0  0  0  0  0  0
  -21.1510   -6.9210   23.7510 C   0  0  0  0  0  3  0  0  0  0  0  0
  -20.9990   -6.1400   24.9150 C   0  0  0  0  0  3  0  0  0  0  0  0
  -21.3920   -4.7880   24.9120 C   0  0  0  0  0  0  0  0  0  0  0  0
  -21.9390   -4.2170   23.7490 C   0  0  0  0  0  3  0  0  0  0  0  0
  -22.0910   -4.9950   22.5880 C   0  0  0  0  0  0  0  0  0  0  0  0
  -22.6000   -4.4340   21.4650 F   0  0  0  0  0  0  0  0  0  0  0  0
  -21.2410   -4.0350   26.0260 F   0  0  0  0  0  0  0  0  0  0  0  0
  -22.8250  -13.7160   21.2430 C   0  0  0  0  0  0  0  0  0  0  0  0
  -22.1470  -12.9920   22.1270 N   0  0  0  0  0  0  0  0  0  0  0  0
  -22.3520  -14.7490   20.7710 O   0  0  0  0  0  0  0  0  0  0  0  0
  -22.5410  -12.1580   22.5350 H   0  0  0  0  0  0  0  0  0  0  0  0
  -21.2190  -13.2790   22.4030 H   0  0  0  0  0  0  0  0  0  0  0  0
  -25.4040  -15.4270   20.3450 N   0  0  0  0  0  0  0  0  0  0  0  0
  -24.6370  -16.0730   20.4950 H   0  0  0  0  0  0  0  0  0  0  0  0
  -26.2320  -15.8750   19.9730 H   0  0  0  0  0  0  0  0  0  0  0  0
  -33.3550  -19.2360   21.9280 N   0  0  0  0  0  0  0  0  0  0  0  0
  -33.5000  -20.2130   22.1650 H   0  0  0  0  0  0  0  0  0  0  0  0
  -33.8380  -18.6100   22.5640 H   0  0  0  0  0  0  0  0  0  0  0  0
  -30.8920  -25.7550   20.5640 C   0  0  0  0  0  1  0  0  0  0  0  0
  -29.9790  -25.0370   19.7370 O   0  0  0  0  0  0  0  0  0  0  0  0
  -27.9570  -25.9650   20.7640 C   0  0  0  0  0  2  0  0  0  0  0  0
  -27.9730  -27.0090   19.7740 O   0  0  0  0  0  0  0  0  0  0  0  0
  -24.4760  -32.0970   23.2900 C   0  0  0  0  0  0  0  0  0  0  0  0
  -26.8550  -27.7990   19.8420 C   0  0  0  0  0  0  0  0  0  0  0  0
  -23.1500  -30.7850   21.6640 C   0  0  0  0  0  3  0  0  0  0  0  0
  -24.4920  -29.3180   20.0680 C   0  0  0  0  0  0  0  0  0  0  0  0
  -25.6600  -31.1430   21.3160 C   0  0  0  0  0  2  0  0  0  0  0  0
  -25.6900  -29.8060   20.6060 C   0  0  0  0  0  0  0  0  0  0  0  0
  -26.8810  -29.0540   20.4890 C   0  0  0  0  0  3  0  0  0  0  0  0
  -25.6470  -27.3240   19.2930 C   0  0  0  0  0  3  0  0  0  0  0  0
  -24.4640  -28.0770   19.4060 C   0  0  0  0  0  3  0  0  0  0  0  0
  -23.2600  -30.1750   20.2420 C   0  0  0  0  0  2  0  0  0  0  0  0
  -24.4510  -31.3520   22.1480 N   0  0  0  0  0  0  0  0  0  0  0  0
  -23.4360  -32.3500   23.9120 O   0  0  0  0  0  0  0  0  0  0  0  0
  -22.5530  -29.7230   22.6150 C   0  0  0  0  0  0  0  0  0  0  0  0
  -21.2330  -29.4990   22.5070 N   0  0  0  0  0  0  0  0  0  0  0  0
  -23.2720  -29.1040   23.4020 O   0  0  0  0  0  0  0  0  0  0  0  0
  -20.7140  -30.0500   21.8400 H   0  0  0  0  0  0  0  0  0  0  0  0
  -17.9250  -28.1270   22.9730 C   0  0  0  0  0  0  0  0  0  0  0  0
  -20.4620  -28.5210   23.2730 C   0  0  0  0  0  3  0  0  0  0  0  0
  -20.6480  -27.0970   22.7000 C   0  0  0  0  0  2  0  0  0  0  0  0
  -19.5760  -26.7140   21.6760 C   0  0  0  0  0  2  0  0  0  0  0  0
  -18.1810  -26.7870   22.3030 C   0  0  0  0  0  2  0  0  0  0  0  0
  -18.9960  -28.9490   23.4120 C   0  0  0  0  0  0  0  0  0  0  0  0
  -18.7020  -30.2010   23.9950 C   0  0  0  0  0  3  0  0  0  0  0  0
  -17.3720  -30.6330   24.1420 C   0  0  0  0  0  3  0  0  0  0  0  0
  -16.3150  -29.8090   23.7190 C   0  0  0  0  0  3  0  0  0  0  0  0
  -16.5920  -28.5580   23.1400 C   0  0  0  0  0  3  0  0  0  0  0  0
  -25.8070  -32.6860   23.8520 C   0  0  0  0  0  3  0  0  0  0  0  0
  -26.3590  -31.8920   25.0990 C   0  0  1  0  0  0  0  0  0  0  0  0
  -25.3080  -31.6750   26.2120 C   0  0  0  0  0  1  0  0  0  0  0  0
  -26.8890  -30.5030   24.6700 C   0  0  0  0  0  1  0  0  0  0  0  0
  -27.5560  -32.6540   25.7160 C   0  0  0  0  0  1  0  0  0  0  0  0
  -25.5550  -34.0910   24.2000 N   0  0  0  0  0  0  0  0  0  0  0  0
  -25.9100  -35.1360   23.4400 C   0  0  0  0  0  0  0  0  0  0  0  0
  -26.5530  -35.0170   22.3940 O   0  0  0  0  0  0  0  0  0  0  0  0
  -24.9810  -34.2600   25.0120 H   0  0  0  0  0  0  0  0  0  0  0  0
  -24.2490  -36.9990   23.1240 C   0  0  0  0  0  1  0  0  0  0  0  0
  -25.4810  -36.5360   23.9180 C   0  0  0  0  0  3  0  0  0  0  0  0
  -27.6510  -37.3310   24.7450 C   0  0  0  0  0  1  0  0  0  0  0  0
  -26.5530  -37.5500   23.8080 N   0  0  0  0  0  0  0  0  0  0  0  0
  -26.1820  -38.4830   23.9670 H   0  0  0  0  0  0  0  0  0  0  0  0
  1  8  1  0
  1  7  1  0
  1 14  1  0
  2  6  1  0
  4  2  1  0
  4  7  1  0
  5  3  1  0
  6 60  1  1
  6  3  1  0
  7  5  1  0
  9  8  1  0
 10  8  1  0
 11 15  1  0
 12 16  2  0
 14 12  1  0
 14 11  2  0
 15 13  2  0
 15 55  1  0
 16 13  1  0
 17 25  1  0
 18 23  1  0
 19 20  1  0
 19 18  1  0
 21 20  1  0
 21 30  1  0
 21 22  1  0
 23 17  1  0
 23 22  1  0
 24 17  2  0
 25 16  1  0
 25 26  1  0
 27 28  2  0
 28 47  1  0
 29 28  1  0
 29 32  1  0
 30 31  1  0
 30 27  1  0
 31 29  2  0
 32 33  1  0
 33 34  2  0
 35 38  1  0
 35 34  1  0
 36 35  2  0
 37 36  1  0
 37 32  2  0
 38 39  1  0
 39 44  2  0
 39 40  1  0
 40 41  2  0
 42 41  1  0
 42 46  1  0
 43 42  2  0
 44 43  1  0
 45 44  1  0
 47 48  1  0
 48 51  1  0
 48 50  1  0
 49 47  2  0
 52 27  1  0
 52 53  1  0
 54 52  1  0
 55 56  1  0
 55 57  1  0
 59  6  1  0
 59 58  1  0
 61 63  1  0
 61 60  1  0
 62 73  2  0
 63 68  1  0
 64 72  1  0
 64 74  1  0
 65 71  1  0
 65 67  1  0
 66 72  1  0
 67 66  1  0
 68 67  2  0
 69 70  1  0
 69 63  2  0
 70 65  2  0
 71 64  1  0
 72 62  1  0
 74 76  2  0
 75 74  1  0
 77 75  1  0
 78 87  2  0
 78 83  1  0
 79 75  1  0
 79 83  1  0
 80 79  1  0
 81 82  1  0
 81 80  1  0
 82 78  1  0
 83 84  2  0
 84 85  1  0
 86 85  2  0
 87 86  1  0
 88 62  1  0
 88 93  1  0
 88 89  1  0
 89 92  1  1
 89 90  1  0
 91 89  1  0
 93 96  1  0
 94 98  1  0
 94 93  1  0
 95 94  2  0
 98 97  1  0
100 98  1  0
100101  1  0
100 99  1  0
M  ISO  4  17 100  25 100  60 101  61 101
M  END
>  <TORSDO>  (90) 
F 20

>  <SCORE>  (90) 
-13.836

>  <name>  (90) 
90

>  <ligand_id>  (90) 
90

>  <original_smiles>  (90) 
[H]c1c([H])c([H])c2c(c1[H])C([H])([H])C([H])([H])C([H])([H])C2([H])N([H])C(=O)C1([H])N(C(=O)C([H])(N([H])C(=O)C([H])(N([H])C([H])([H])[H])C([H])([H])[H])C(C([H])([H])[H])(C([H])([H])[H])C([H])([H])[H])C([H])([H])c2c([H])c(OC([H])([H])C3(OC([H])([H])[H])C([H])([H])C([H])([H])N(C(c4c([H])c(N([H])[H])c([H])c(N([H])C(=O)N5C([H])([H])C([H])([H])C([H])([H])C([H])(n6nc(-c7c([H])c([H])c(Oc8c([H])c([H])c(F)c([H])c8F)c([H])c7[H])c(C(=O)N([H])[H])c6N([H])[H])C5([H])[H])c4[H])=[N+]([H])[H])C([H])([H])C3([H])[H])c([H])c([H])c2C1([H])[H]

>  <smiles>  (90) 
[H]c1c([H])c([H])c2c(c1[H])C([H])([H])C([H])([H])C([H])([H])C2([H])N([H])C(=O)C1([H])N(C(=O)C([H])(N([H])C(=O)C([H])(N([H])C([H])([H])[H])C([H])([H])[H])C(C([H])([H])[H])(C([H])([H])[H])C([H])([H])[H])C([H])([H])c2c([H])c(OC([H])([H])C3(OC([H])([H])[H])C([H])([H])C([H])([H])N(C(c4c([H])c(N([H])[H])c([H])c(N([H])C(=O)N5C([H])([H])C([H])([H])C([H])([H])C([H])(n6nc(-c7c([H])c([H])c(Oc8c([H])c([H])c(F)c([H])c8F)c([H])c7[H])c(C(=O)N([H])[H])c6N([H])[H])C5([H])[H])c4[H])=[N+]([H])[H])C([H])([H])C3([H])[H])c([H])c([H])c2C1([H])[H]

$$$$
91:0:0
     RDKit          3D

 96105  0  0  1  0  0  0  0  0999 V2000
  -28.1270  -22.9460   19.5390 C   0  0  0  0  0  0  0  0  0  0  0  0
  -28.6020  -23.7540   20.5300 C   0  0  0  0  0  0  0  0  0  0  0  0
  -28.4960  -21.4440   19.3770 C   0  0  0  0  0  2  0  0  0  0  0  0
  -29.5670  -23.1100   21.5530 C   0  0  0  0  0  2  0  0  0  0  0  0
  -29.0610  -20.7800   20.6690 C   0  0  0  0  0  3  0  0  0  0  0  0
  -30.0630  -21.7230   21.2270 N   0  0  0  0  0  4  0  0  0  0  0  0
  -30.4570  -21.3040   22.0530 H   0  0  0  0  0  0  0  0  0  0  0  0
  -30.8120  -21.7750   20.5560 H   0  0  0  0  0  0  0  0  0  0  0  0
  -31.3050  -17.8230   20.2070 C   0  0  0  0  0  3  0  0  0  0  0  0
  -30.1420  -17.1590   20.5380 C   0  0  0  0  0  0  0  0  0  0  0  0
  -29.7990  -19.4050   20.5230 C   0  0  0  0  0  0  0  0  0  0  0  0
  -31.0840  -19.2100   20.2050 N   0  0  0  0  0  0  0  0  0  0  0  0
  -29.1810  -18.1760   20.7290 O   0  0  0  0  0  0  0  0  0  0  0  0
  -30.5900  -14.6970   20.3870 C   0  0  0  0  0  0  0  0  0  0  0  0
  -30.3590  -12.4600   19.3260 C   0  0  0  0  0  2  0  0  0  0  0  0
  -29.4210  -12.5810   18.1050 C   0  0  0  0  0  2  0  0  0  0  0  0
  -27.9490  -12.4170   18.5320 C   0  0  0  0  0  2  0  0  0  0  0  0
  -27.5850  -13.2820   19.7700 C   0  0  0  0  0  3  0  0  0  0  0  0
  -28.6430  -13.1480   20.8890 C   0  0  0  0  0  2  0  0  0  0  0  0
  -29.9490  -13.4860   20.3070 N   0  0  0  0  0  0  0  0  0  0  0  0
  -31.7660  -14.8060   20.0290 O   0  0  0  0  0  0  0  0  0  0  0  0
  -29.8260  -15.8080   20.6810 N   0  0  0  0  0  0  0  0  0  0  0  0
  -28.8770  -15.6050   20.9520 H   0  0  0  0  0  0  0  0  0  0  0  0
  -25.1920  -13.8740   20.4850 C   0  0  0  0  0  0  0  0  0  0  0  0
  -24.1250  -13.0990   20.8530 C   0  0  0  0  0  0  0  0  0  0  0  0
  -24.5880  -11.7480   20.8230 C   0  0  0  0  0  0  0  0  0  0  0  0
  -26.2370  -12.9960   20.2520 N   0  0  0  0  0  0  0  0  0  0  0  0
  -25.8810  -11.7120   20.5180 N   0  0  0  0  0  0  0  0  0  0  0  0
  -23.8620  -10.4860   21.0090 C   0  0  0  0  0  0  0  0  0  0  0  0
  -24.2830   -9.5240   21.9550 C   0  0  0  0  0  3  0  0  0  0  0  0
  -23.5570   -8.3250   22.1280 C   0  0  0  0  0  3  0  0  0  0  0  0
  -22.3960   -8.0810   21.3570 C   0  0  0  0  0  0  0  0  0  0  0  0
  -21.9960   -9.0310   20.4000 C   0  0  0  0  0  3  0  0  0  0  0  0
  -22.7220  -10.2210   20.2250 C   0  0  0  0  0  3  0  0  0  0  0  0
  -21.6440   -6.9340   21.4400 O   0  0  0  0  0  0  0  0  0  0  0  0
  -21.5680   -6.2040   22.5990 C   0  0  0  0  0  0  0  0  0  0  0  0
  -21.0980   -6.7670   23.8050 C   0  0  0  0  0  3  0  0  0  0  0  0
  -20.9710   -5.9630   24.9550 C   0  0  0  0  0  3  0  0  0  0  0  0
  -21.3050   -4.5970   24.8990 C   0  0  0  0  0  0  0  0  0  0  0  0
  -21.7680   -4.0330   23.6970 C   0  0  0  0  0  3  0  0  0  0  0  0
  -21.8960   -4.8350   22.5490 C   0  0  0  0  0  0  0  0  0  0  0  0
  -22.3240   -4.2810   21.3890 F   0  0  0  0  0  0  0  0  0  0  0  0
  -21.1770   -3.8210   26.0010 F   0  0  0  0  0  0  0  0  0  0  0  0
  -22.7260  -13.5750   21.1190 C   0  0  0  0  0  0  0  0  0  0  0  0
  -21.9910  -12.8750   21.9760 N   0  0  0  0  0  0  0  0  0  0  0  0
  -22.2910  -14.6030   20.6010 O   0  0  0  0  0  0  0  0  0  0  0  0
  -22.3540  -12.0430   22.4180 H   0  0  0  0  0  0  0  0  0  0  0  0
  -21.0520  -13.1770   22.1940 H   0  0  0  0  0  0  0  0  0  0  0  0
  -25.3540  -15.2450   20.3070 N   0  0  0  0  0  0  0  0  0  0  0  0
  -24.5790  -15.8930   20.4030 H   0  0  0  0  0  0  0  0  0  0  0  0
  -26.1920  -15.6830   19.9450 H   0  0  0  0  0  0  0  0  0  0  0  0
  -27.1170  -23.4400   18.5890 C   0  0  0  0  0  0  0  0  0  0  0  0
  -27.6060  -24.2020   17.3630 C   0  0  0  0  0  1  0  0  0  0  0  0
  -25.9110  -23.2360   18.7380 O   0  0  0  0  0  0  0  0  0  0  0  0
  -27.9870  -25.1580   20.9480 C   0  0  0  0  0  2  0  0  0  0  0  0
  -28.3000  -26.4340   20.2530 O   0  0  0  0  0  0  0  0  0  0  0  0
  -24.6190  -31.9140   23.2410 C   0  0  0  0  0  0  0  0  0  0  0  0
  -27.2280  -27.3390   20.2060 C   0  0  0  0  0  0  0  0  0  0  0  0
  -23.4200  -30.5120   21.6020 C   0  0  0  0  0  3  0  0  0  0  0  0
  -24.8730  -28.9590   20.1830 C   0  0  0  0  0  0  0  0  0  0  0  0
  -25.9620  -30.8250   21.4280 C   0  0  0  0  0  2  0  0  0  0  0  0
  -26.0430  -29.4440   20.7840 C   0  0  0  0  0  0  0  0  0  0  0  0
  -27.2290  -28.6470   20.7860 C   0  0  0  0  0  3  0  0  0  0  0  0
  -26.0400  -26.9150   19.5720 C   0  0  0  0  0  3  0  0  0  0  0  0
  -24.8740  -27.6990   19.5680 C   0  0  0  0  0  3  0  0  0  0  0  0
  -23.6380  -29.8340   20.2250 C   0  0  0  0  0  2  0  0  0  0  0  0
  -24.6860  -31.1010   22.1470 N   0  0  0  0  0  0  0  0  0  0  0  0
  -23.5340  -32.1940   23.7700 O   0  0  0  0  0  0  0  0  0  0  0  0
  -22.7520  -29.4980   22.5610 C   0  0  0  0  0  0  0  0  0  0  0  0
  -21.4240  -29.3300   22.4370 N   0  0  0  0  0  0  0  0  0  0  0  0
  -23.4280  -28.8660   23.3780 O   0  0  0  0  0  0  0  0  0  0  0  0
  -20.9390  -29.8880   21.7490 H   0  0  0  0  0  0  0  0  0  0  0  0
  -18.0360  -28.1700   22.9520 C   0  0  0  0  0  0  0  0  0  0  0  0
  -20.5990  -28.3990   23.2100 C   0  0  0  0  0  3  0  0  0  0  0  0
  -20.6810  -26.9690   22.6310 C   0  0  0  0  0  2  0  0  0  0  0  0
  -19.5700  -26.6620   21.6210 C   0  0  0  0  0  2  0  0  0  0  0  0
  -18.1930  -26.8210   22.2710 C   0  0  0  0  0  2  0  0  0  0  0  0
  -19.1650  -28.9180   23.3780 C   0  0  0  0  0  0  0  0  0  0  0  0
  -18.9630  -30.1820   23.9740 C   0  0  0  0  0  3  0  0  0  0  0  0
  -17.6640  -30.6960   24.1480 C   0  0  0  0  0  3  0  0  0  0  0  0
  -16.5500  -29.9440   23.7390 C   0  0  0  0  0  3  0  0  0  0  0  0
  -16.7360  -28.6830   23.1470 C   0  0  0  0  0  3  0  0  0  0  0  0
  -25.9010  -32.5460   23.8660 C   0  0  0  0  0  3  0  0  0  0  0  0
  -26.4070  -31.7810   25.1510 C   0  0  1  0  0  0  0  0  0  0  0  0
  -25.3060  -31.5580   26.2150 C   0  0  0  0  0  1  0  0  0  0  0  0
  -26.9840  -30.3980   24.7720 C   0  0  0  0  0  1  0  0  0  0  0  0
  -27.5590  -32.5740   25.8120 C   0  0  0  0  0  1  0  0  0  0  0  0
  -25.5930  -33.9480   24.1840 N   0  0  0  0  0  0  0  0  0  0  0  0
  -25.9310  -34.9940   23.4200 C   0  0  0  0  0  0  0  0  0  0  0  0
  -26.6000  -34.8840   22.3900 O   0  0  0  0  0  0  0  0  0  0  0  0
  -24.9990  -34.1080   24.9850 H   0  0  0  0  0  0  0  0  0  0  0  0
  -24.2080  -36.7900   23.0460 C   0  0  0  0  0  1  0  0  0  0  0  0
  -25.4430  -36.3860   23.8680 C   0  0  0  0  0  3  0  0  0  0  0  0
  -27.5800  -37.2630   24.7030 C   0  0  0  0  0  1  0  0  0  0  0  0
  -26.4780  -37.4380   23.7610 N   0  0  0  0  0  0  0  0  0  0  0  0
  -26.0710  -38.3570   23.9170 H   0  0  0  0  0  0  0  0  0  0  0  0
  1  2  2  0
  2 55  1  0
  2  4  1  0
  3  1  1  0
  3  5  1  0
  5 11  1  0
  5  6  1  0
  6  4  1  0
  6  7  1  0
  8  6  1  0
  9 10  2  0
 10 22  1  0
 10 13  1  0
 11 13  1  0
 12  9  1  0
 12 11  2  0
 14 22  1  0
 15 20  1  0
 16 17  1  0
 16 15  1  0
 18 17  1  0
 18 27  1  0
 18 19  1  0
 20 14  1  0
 20 19  1  0
 21 14  2  0
 22 23  1  0
 24 25  2  0
 25 44  1  0
 26 25  1  0
 26 29  1  0
 27 24  1  0
 27 28  1  0
 28 26  2  0
 29 30  1  0
 30 31  2  0
 32 35  1  0
 32 31  1  0
 33 32  2  0
 34 33  1  0
 34 29  2  0
 35 36  1  0
 36 37  1  0
 37 38  2  0
 39 38  1  0
 39 43  1  0
 40 39  2  0
 41 36  2  0
 41 40  1  0
 42 41  1  0
 44 45  1  0
 45 48  1  0
 45 47  1  0
 46 44  2  0
 49 50  1  0
 49 24  1  0
 51 49  1  0
 52 54  2  0
 52  1  1  0
 53 52  1  0
 56 55  1  0
 57 68  2  0
 58 56  1  0
 58 63  1  0
 59 67  1  0
 59 69  1  0
 60 66  1  0
 60 62  1  0
 61 67  1  0
 62 63  2  0
 62 61  1  0
 64 58  2  0
 65 64  1  0
 65 60  2  0
 66 59  1  0
 67 57  1  0
 69 71  2  0
 70 69  1  0
 72 70  1  0
 73 82  2  0
 73 78  1  0
 74 70  1  0
 74 78  1  0
 75 74  1  0
 76 77  1  0
 76 75  1  0
 77 73  1  0
 78 79  2  0
 79 80  1  0
 81 80  2  0
 82 81  1  0
 83 57  1  0
 83 88  1  0
 83 84  1  0
 84 87  1  1
 84 85  1  0
 86 84  1  0
 88 91  1  0
 89 93  1  0
 89 88  1  0
 90 89  2  0
 93 92  1  0
 95 93  1  0
 95 96  1  0
 95 94  1  0
M  ISO  4  14 100  22 100  55 101  56 101
M  END
>  <TORSDO>  (91) 
F 19

>  <SCORE>  (91) 
-14.518

>  <name>  (91) 
91

>  <ligand_id>  (91) 
91

>  <original_smiles>  (91) 
[H]c1nc(C2([H])C([H])([H])C(C(=O)C([H])([H])[H])=C(C([H])([H])Oc3c([H])c([H])c4c(c3[H])C([H])([H])N(C(=O)C([H])(N([H])C(=O)C([H])(N([H])C([H])([H])[H])C([H])([H])[H])C(C([H])([H])[H])(C([H])([H])[H])C([H])([H])[H])C([H])(C(=O)N([H])C3([H])c5c([H])c([H])c([H])c([H])c5C([H])([H])C([H])([H])C3([H])[H])C4([H])[H])C([H])([H])[N+]2([H])[H])oc1N([H])C(=O)N1C([H])([H])C([H])([H])C([H])([H])C([H])(n2nc(-c3c([H])c([H])c(Oc4c([H])c([H])c(F)c([H])c4F)c([H])c3[H])c(C(=O)N([H])[H])c2N([H])[H])C1([H])[H]

>  <smiles>  (91) 
[H]c1nc(C2([H])C([H])([H])C(C(=O)C([H])([H])[H])=C(C([H])([H])Oc3c([H])c([H])c4c(c3[H])C([H])([H])N(C(=O)C([H])(N([H])C(=O)C([H])(N([H])C([H])([H])[H])C([H])([H])[H])C(C([H])([H])[H])(C([H])([H])[H])C([H])([H])[H])C([H])(C(=O)N([H])C3([H])c5c([H])c([H])c([H])c([H])c5C([H])([H])C([H])([H])C3([H])[H])C4([H])[H])C([H])([H])[N+]2([H])[H])oc1N([H])C(=O)N1C([H])([H])C([H])([H])C([H])([H])C([H])(n2nc(-c3c([H])c([H])c(Oc4c([H])c([H])c(F)c([H])c4F)c([H])c3[H])c(C(=O)N([H])[H])c2N([H])[H])C1([H])[H]

$$$$
92:0:0
     RDKit          3D

 96105  0  0  1  0  0  0  0  0999 V2000
  -29.3180  -23.5070   20.5500 C   0  0  0  0  0  0  0  0  0  0  0  0
  -31.4880  -21.0020   22.9130 C   0  0  0  0  0  2  0  0  0  0  0  0
  -30.1520  -21.5740   23.4300 C   0  0  0  0  0  2  0  0  0  0  0  0
  -31.8500  -21.4960   21.4970 C   0  0  0  0  0  2  0  0  0  0  0  0
  -29.0400  -21.7100   22.3470 C   0  0  0  0  0  2  0  0  0  0  0  0
  -30.6600  -21.3390   20.5290 C   0  0  0  0  0  3  0  0  0  0  0  0
  -29.5720  -22.2360   21.0740 N   0  0  0  0  0  0  0  0  0  0  0  0
  -29.3930  -23.6920   19.3330 O   0  0  0  0  0  0  0  0  0  0  0  0
  -31.1780  -17.8060   19.3130 C   0  0  0  0  0  3  0  0  0  0  0  0
  -30.3920  -17.2330   20.2920 C   0  0  0  0  0  0  0  0  0  0  0  0
  -30.4350  -19.8200   20.2200 C   0  0  0  0  0  0  0  0  0  0  0  0
  -31.1820  -19.2160   19.2830 N   0  0  0  0  0  0  0  0  0  0  0  0
  -29.5630  -18.5520   21.1510 S   0  0  0  0  0  0  0  0  0  0  0  0
  -30.9300  -14.8070   20.1750 C   0  0  0  0  0  0  0  0  0  0  0  0
  -30.6650  -12.5600   19.1650 C   0  0  0  0  0  2  0  0  0  0  0  0
  -29.7010  -12.6840   17.9650 C   0  0  0  0  0  2  0  0  0  0  0  0
  -28.2370  -12.5440   18.4260 C   0  0  0  0  0  2  0  0  0  0  0  0
  -27.9100  -13.4290   19.6590 C   0  0  0  0  0  3  0  0  0  0  0  0
  -28.9900  -13.2880   20.7560 C   0  0  0  0  0  2  0  0  0  0  0  0
  -30.2920  -13.5980   20.1470 N   0  0  0  0  0  0  0  0  0  0  0  0
  -32.0730  -14.9380   19.7250 O   0  0  0  0  0  0  0  0  0  0  0  0
  -30.1970  -15.8890   20.5800 N   0  0  0  0  0  0  0  0  0  0  0  0
  -29.3400  -15.6620   21.0630 H   0  0  0  0  0  0  0  0  0  0  0  0
  -25.5460  -14.0520   20.4500 C   0  0  0  0  0  0  0  0  0  0  0  0
  -24.4780  -13.2890   20.8370 C   0  0  0  0  0  0  0  0  0  0  0  0
  -24.9180  -11.9310   20.7700 C   0  0  0  0  0  0  0  0  0  0  0  0
  -26.5700  -13.1610   20.1740 N   0  0  0  0  0  0  0  0  0  0  0  0
  -26.1980  -11.8790   20.4260 N   0  0  0  0  0  0  0  0  0  0  0  0
  -24.1770  -10.6780   20.9600 C   0  0  0  0  0  0  0  0  0  0  0  0
  -24.5870   -9.7130   21.9050 C   0  0  0  0  0  3  0  0  0  0  0  0
  -23.8460   -8.5240   22.0820 C   0  0  0  0  0  3  0  0  0  0  0  0
  -22.6820   -8.2910   21.3130 C   0  0  0  0  0  0  0  0  0  0  0  0
  -22.2920   -9.2450   20.3560 C   0  0  0  0  0  3  0  0  0  0  0  0
  -23.0320  -10.4250   20.1780 C   0  0  0  0  0  3  0  0  0  0  0  0
  -21.9160   -7.1540   21.3970 O   0  0  0  0  0  0  0  0  0  0  0  0
  -21.7900   -6.4570   22.5720 C   0  0  0  0  0  0  0  0  0  0  0  0
  -21.2590   -7.0500   23.7370 C   0  0  0  0  0  3  0  0  0  0  0  0
  -21.0840   -6.2770   24.9040 C   0  0  0  0  0  3  0  0  0  0  0  0
  -21.4280   -4.9130   24.9030 C   0  0  0  0  0  0  0  0  0  0  0  0
  -21.9530   -4.3190   23.7420 C   0  0  0  0  0  3  0  0  0  0  0  0
  -22.1300   -5.0890   22.5780 C   0  0  0  0  0  0  0  0  0  0  0  0
  -22.6160   -4.5060   21.4560 F   0  0  0  0  0  0  0  0  0  0  0  0
  -21.2530   -4.1680   26.0200 F   0  0  0  0  0  0  0  0  0  0  0  0
  -23.0970  -13.7830   21.1570 C   0  0  0  0  0  0  0  0  0  0  0  0
  -22.3880  -13.0940   22.0440 N   0  0  0  0  0  0  0  0  0  0  0  0
  -22.6540  -14.8160   20.6540 O   0  0  0  0  0  0  0  0  0  0  0  0
  -22.7590  -12.2580   22.4720 H   0  0  0  0  0  0  0  0  0  0  0  0
  -21.4630  -13.4080   22.3010 H   0  0  0  0  0  0  0  0  0  0  0  0
  -25.7280  -15.4230   20.2920 N   0  0  0  0  0  0  0  0  0  0  0  0
  -24.9740  -16.0870   20.4310 H   0  0  0  0  0  0  0  0  0  0  0  0
  -26.5720  -15.8540   19.9340 H   0  0  0  0  0  0  0  0  0  0  0  0
  -28.8390  -25.9710   21.2350 C   0  0  0  0  0  3  0  0  0  0  0  0
  -29.1280  -24.6540   21.5030 C   0  0  0  0  0  0  0  0  0  0  0  0
  -29.3030  -24.4270   22.8100 O   0  0  0  0  0  0  0  0  0  0  0  0
  -29.5220  -23.5070   22.9020 H   0  0  0  0  0  0  0  0  0  0  0  0
  -28.6310  -26.6830   20.0610 O   0  0  0  0  0  0  0  0  0  0  0  0
  -24.7320  -31.8300   23.2660 C   0  0  0  0  0  0  0  0  0  0  0  0
  -27.5150  -27.5170   20.0620 C   0  0  0  0  0  0  0  0  0  0  0  0
  -23.5750  -30.4350   21.5880 C   0  0  0  0  0  3  0  0  0  0  0  0
  -25.0820  -28.9910   20.1090 C   0  0  0  0  0  0  0  0  0  0  0  0
  -26.0920  -30.8730   21.4000 C   0  0  0  0  0  2  0  0  0  0  0  0
  -26.2270  -29.5210   20.7180 C   0  0  0  0  0  0  0  0  0  0  0  0
  -27.4500  -28.7920   20.6940 C   0  0  0  0  0  3  0  0  0  0  0  0
  -26.3550  -27.0270   19.4330 C   0  0  0  0  0  3  0  0  0  0  0  0
  -25.1430  -27.7460   19.4600 C   0  0  0  0  0  3  0  0  0  0  0  0
  -23.8070  -29.8060   20.1870 C   0  0  0  0  0  2  0  0  0  0  0  0
  -24.8180  -31.0610   22.1430 N   0  0  0  0  0  0  0  0  0  0  0  0
  -23.6420  -32.0470   23.8160 O   0  0  0  0  0  0  0  0  0  0  0  0
  -22.9600  -29.3640   22.5200 C   0  0  0  0  0  0  0  0  0  0  0  0
  -21.6510  -29.1050   22.3610 N   0  0  0  0  0  0  0  0  0  0  0  0
  -23.6590  -28.7710   23.3460 O   0  0  0  0  0  0  0  0  0  0  0  0
  -21.1440  -29.6380   21.6690 H   0  0  0  0  0  0  0  0  0  0  0  0
  -18.3590  -27.6510   22.7230 C   0  0  0  0  0  0  0  0  0  0  0  0
  -20.8760  -28.1070   23.1010 C   0  0  0  0  0  3  0  0  0  0  0  0
  -21.1140  -26.6870   22.5360 C   0  0  0  0  0  2  0  0  0  0  0  0
  -20.0840  -26.2790   21.4780 C   0  0  0  0  0  2  0  0  0  0  0  0
  -18.6690  -26.3180   22.0610 C   0  0  0  0  0  2  0  0  0  0  0  0
  -19.3970  -28.4980   23.1960 C   0  0  0  0  0  0  0  0  0  0  0  0
  -19.0550  -29.7400   23.7720 C   0  0  0  0  0  3  0  0  0  0  0  0
  -17.7100  -30.1400   23.8790 C   0  0  0  0  0  3  0  0  0  0  0  0
  -16.6870  -29.2910   23.4230 C   0  0  0  0  0  3  0  0  0  0  0  0
  -17.0120  -28.0490   22.8500 C   0  0  0  0  0  3  0  0  0  0  0  0
  -25.9940  -32.4930   23.9010 C   0  0  0  0  0  3  0  0  0  0  0  0
  -26.5090  -31.7400   25.1890 C   0  0  1  0  0  0  0  0  0  0  0  0
  -25.4050  -31.4800   26.2410 C   0  0  0  0  0  1  0  0  0  0  0  0
  -27.1310  -30.3760   24.8120 C   0  0  0  0  0  1  0  0  0  0  0  0
  -27.6280  -32.5660   25.8660 C   0  0  0  0  0  1  0  0  0  0  0  0
  -25.6510  -33.8870   24.2180 N   0  0  0  0  0  0  0  0  0  0  0  0
  -25.9620  -34.9400   23.4520 C   0  0  0  0  0  0  0  0  0  0  0  0
  -26.6370  -34.8420   22.4230 O   0  0  0  0  0  0  0  0  0  0  0  0
  -25.0500  -34.0350   25.0160 H   0  0  0  0  0  0  0  0  0  0  0  0
  -24.1930  -36.6880   23.0780 C   0  0  0  0  0  1  0  0  0  0  0  0
  -25.4420  -36.3210   23.8950 C   0  0  0  0  0  3  0  0  0  0  0  0
  -27.5500  -37.2690   24.7240 C   0  0  0  0  0  1  0  0  0  0  0  0
  -26.4500  -37.3970   23.7720 N   0  0  0  0  0  0  0  0  0  0  0  0
  -26.0220  -38.3090   23.9020 H   0  0  0  0  0  0  0  0  0  0  0  0
  1  7  1  0
  1 53  1  0
  2  3  1  0
  4  2  1  0
  5  3  1  0
  6 11  1  0
  6  7  1  0
  6  4  1  0
  7  5  1  0
  8  1  2  0
  9 10  2  0
 10 22  1  0
 10 13  1  0
 11 13  1  0
 12  9  1  0
 12 11  2  0
 14 22  1  0
 15 20  1  0
 16 17  1  0
 16 15  1  0
 18 17  1  0
 18 27  1  0
 18 19  1  0
 20 14  1  0
 20 19  1  0
 21 14  2  0
 22 23  1  0
 24 25  2  0
 25 44  1  0
 26 25  1  0
 26 29  1  0
 27 28  1  0
 27 24  1  0
 28 26  2  0
 29 30  1  0
 30 31  2  0
 32 35  1  0
 32 31  1  0
 33 32  2  0
 34 33  1  0
 34 29  2  0
 35 36  1  0
 36 41  2  0
 36 37  1  0
 37 38  2  0
 39 38  1  0
 39 43  1  0
 40 39  2  0
 41 40  1  0
 42 41  1  0
 44 45  1  0
 45 48  1  0
 45 47  1  0
 46 44  2  0
 49 50  1  0
 49 24  1  0
 51 49  1  0
 52 53  2  0
 53 54  1  0
 54 55  1  0
 56 58  1  0
 56 52  1  0
 57 68  2  0
 58 63  1  0
 59 67  1  0
 59 69  1  0
 60 66  1  0
 60 62  1  0
 61 67  1  0
 62 61  1  0
 63 62  2  0
 64 65  1  0
 64 58  2  0
 65 60  2  0
 66 59  1  0
 67 57  1  0
 69 71  2  0
 70 69  1  0
 72 70  1  0
 73 82  2  0
 73 78  1  0
 74 70  1  0
 74 78  1  0
 75 74  1  0
 76 77  1  0
 76 75  1  0
 77 73  1  0
 78 79  2  0
 79 80  1  0
 81 80  2  0
 82 81  1  0
 83 57  1  0
 83 88  1  0
 83 84  1  0
 84 87  1  1
 84 85  1  0
 86 84  1  0
 88 91  1  0
 89 93  1  0
 89 88  1  0
 90 89  2  0
 93 92  1  0
 95 93  1  0
 95 96  1  0
 95 94  1  0
M  ISO  4  14 100  22 100  52 101  56 101
M  END
>  <TORSDO>  (92) 
F 19

>  <SCORE>  (92) 
-14.359

>  <name>  (92) 
92

>  <ligand_id>  (92) 
92

>  <original_smiles>  (92) 
[H]OC(C(=O)N1C([H])([H])C([H])([H])C([H])([H])C([H])([H])C1([H])c1nc([H])c(N([H])C(=O)N2C([H])([H])C([H])([H])C([H])([H])C([H])(n3nc(-c4c([H])c([H])c(Oc5c([H])c([H])c(F)c([H])c5F)c([H])c4[H])c(C(=O)N([H])[H])c3N([H])[H])C2([H])[H])s1)=C([H])Oc1c([H])c([H])c2c(c1[H])C([H])([H])N(C(=O)C([H])(N([H])C(=O)C([H])(N([H])C([H])([H])[H])C([H])([H])[H])C(C([H])([H])[H])(C([H])([H])[H])C([H])([H])[H])C([H])(C(=O)N([H])C1([H])c3c([H])c([H])c([H])c([H])c3C([H])([H])C([H])([H])C1([H])[H])C2([H])[H]

>  <smiles>  (92) 
[H]OC(C(=O)N1C([H])([H])C([H])([H])C([H])([H])C([H])([H])C1([H])c1nc([H])c(N([H])C(=O)N2C([H])([H])C([H])([H])C([H])([H])C([H])(n3nc(-c4c([H])c([H])c(Oc5c([H])c([H])c(F)c([H])c5F)c([H])c4[H])c(C(=O)N([H])[H])c3N([H])[H])C2([H])[H])s1)=C([H])Oc1c([H])c([H])c2c(c1[H])C([H])([H])N(C(=O)C([H])(N([H])C(=O)C([H])(N([H])C([H])([H])[H])C([H])([H])[H])C(C([H])([H])[H])(C([H])([H])[H])C([H])([H])[H])C([H])(C(=O)N([H])C1([H])c3c([H])c([H])c([H])c([H])c3C([H])([H])C([H])([H])C1([H])[H])C2([H])[H]

$$$$
93:0:0
     RDKit          3D

 93101  0  0  1  0  0  0  0  0999 V2000
  -29.7470  -21.1380   20.6480 C   0  0  0  0  0  0  0  0  0  0  0  0
  -30.9150  -21.4560   21.2210 N   0  0  0  0  0  4  0  0  0  0  0  0
  -28.9050  -22.2190   20.3440 N   0  0  0  0  0  0  0  0  0  0  0  0
  -31.5700  -20.7210   21.4400 H   0  0  0  0  0  0  0  0  0  0  0  0
  -31.1890  -22.3980   21.4440 H   0  0  0  0  0  0  0  0  0  0  0  0
  -27.9970  -21.9850   19.9720 H   0  0  0  0  0  0  0  0  0  0  0  0
  -30.1000  -18.4930   21.0660 C   0  0  0  0  0  3  0  0  0  0  0  0
  -28.8520  -17.6960   19.3980 C   0  0  0  0  0  3  0  0  0  0  0  0
  -29.6710  -17.2670   20.4070 C   0  0  0  0  0  0  0  0  0  0  0  0
  -29.5760  -19.6350   20.4320 C   0  0  0  0  0  0  0  0  0  0  0  0
  -28.0320  -19.8630   18.4260 C   0  0  0  0  0  1  0  0  0  0  0  0
  -28.7980  -19.1010   19.3950 N   0  0  0  0  0  0  0  0  0  0  0  0
  -30.5530  -14.7800   20.3650 C   0  0  0  0  0  0  0  0  0  0  0  0
  -30.3720  -12.5020   19.3360 C   0  0  0  0  0  2  0  0  0  0  0  0
  -29.4200  -12.5850   18.1200 C   0  0  0  0  0  2  0  0  0  0  0  0
  -27.9520  -12.4150   18.5590 C   0  0  0  0  0  2  0  0  0  0  0  0
  -27.5930  -13.2900   19.7900 C   0  0  0  0  0  3  0  0  0  0  0  0
  -28.6590  -13.1680   20.9020 C   0  0  0  0  0  2  0  0  0  0  0  0
  -29.9570  -13.5360   20.3140 N   0  0  0  0  0  0  0  0  0  0  0  0
  -31.7010  -14.9300   19.9300 O   0  0  0  0  0  0  0  0  0  0  0  0
  -29.7940  -15.8450   20.8300 N   0  0  0  0  0  0  0  0  0  0  0  0
  -28.9530  -15.4980   21.2690 H   0  0  0  0  0  0  0  0  0  0  0  0
  -25.2090  -13.8890   20.5330 C   0  0  0  0  0  0  0  0  0  0  0  0
  -24.1420  -13.1180   20.9070 C   0  0  0  0  0  0  0  0  0  0  0  0
  -24.5990  -11.7650   20.8670 C   0  0  0  0  0  0  0  0  0  0  0  0
  -26.2480  -13.0060   20.2860 N   0  0  0  0  0  0  0  0  0  0  0  0
  -25.8870  -11.7230   20.5470 N   0  0  0  0  0  0  0  0  0  0  0  0
  -23.8680  -10.5060   21.0600 C   0  0  0  0  0  0  0  0  0  0  0  0
  -24.3110   -9.5270   21.9770 C   0  0  0  0  0  3  0  0  0  0  0  0
  -23.5790   -8.3330   22.1580 C   0  0  0  0  0  3  0  0  0  0  0  0
  -22.3920   -8.1080   21.4210 C   0  0  0  0  0  0  0  0  0  0  0  0
  -21.9700   -9.0750   20.4920 C   0  0  0  0  0  3  0  0  0  0  0  0
  -22.7020  -10.2600   20.3090 C   0  0  0  0  0  3  0  0  0  0  0  0
  -21.6330   -6.9660   21.5100 O   0  0  0  0  0  0  0  0  0  0  0  0
  -21.6020   -6.2100   22.6540 C   0  0  0  0  0  0  0  0  0  0  0  0
  -21.2000   -6.7510   23.8950 C   0  0  0  0  0  3  0  0  0  0  0  0
  -21.1160   -5.9220   25.0300 C   0  0  0  0  0  3  0  0  0  0  0  0
  -21.4240   -4.5520   24.9280 C   0  0  0  0  0  0  0  0  0  0  0  0
  -21.8200   -4.0110   23.6920 C   0  0  0  0  0  3  0  0  0  0  0  0
  -21.9050   -4.8370   22.5580 C   0  0  0  0  0  0  0  0  0  0  0  0
  -22.2670   -4.3060   21.3660 F   0  0  0  0  0  0  0  0  0  0  0  0
  -21.3370   -3.7530   26.0170 F   0  0  0  0  0  0  0  0  0  0  0  0
  -22.7500  -13.6010   21.1920 C   0  0  0  0  0  0  0  0  0  0  0  0
  -22.0250  -12.9070   22.0630 N   0  0  0  0  0  0  0  0  0  0  0  0
  -22.3130  -14.6300   20.6790 O   0  0  0  0  0  0  0  0  0  0  0  0
  -22.3910  -12.0760   22.5040 H   0  0  0  0  0  0  0  0  0  0  0  0
  -21.0910  -13.2150   22.2960 H   0  0  0  0  0  0  0  0  0  0  0  0
  -25.3790  -15.2590   20.3630 N   0  0  0  0  0  0  0  0  0  0  0  0
  -24.6210  -15.9190   20.4900 H   0  0  0  0  0  0  0  0  0  0  0  0
  -26.2340  -15.6960   20.0430 H   0  0  0  0  0  0  0  0  0  0  0  0
  -29.1620  -23.7460   20.5210 C   0  0  0  0  0  3  0  0  0  0  0  0
  -28.0290  -24.8630   20.1600 C   0  0  0  0  0  3  0  0  0  0  0  0
  -28.2750  -26.3570   20.2910 O   0  0  0  0  0  0  0  0  0  0  0  0
  -24.6220  -31.9220   23.2370 C   0  0  0  0  0  0  0  0  0  0  0  0
  -27.1870  -27.2690   20.2160 C   0  0  0  0  0  0  0  0  0  0  0  0
  -23.4100  -30.5260   21.6050 C   0  0  0  0  0  3  0  0  0  0  0  0
  -24.8480  -28.9520   20.1830 C   0  0  0  0  0  0  0  0  0  0  0  0
  -25.9570  -30.8080   21.4210 C   0  0  0  0  0  2  0  0  0  0  0  0
  -26.0250  -29.4200   20.7810 C   0  0  0  0  0  0  0  0  0  0  0  0
  -27.1980  -28.5930   20.7810 C   0  0  0  0  0  3  0  0  0  0  0  0
  -25.9840  -26.8750   19.5870 C   0  0  0  0  0  3  0  0  0  0  0  0
  -24.8350  -27.6900   19.5720 C   0  0  0  0  0  3  0  0  0  0  0  0
  -23.6200  -29.8440   20.2280 C   0  0  0  0  0  2  0  0  0  0  0  0
  -24.6830  -31.1050   22.1440 N   0  0  0  0  0  0  0  0  0  0  0  0
  -23.5410  -32.2120   23.7690 O   0  0  0  0  0  0  0  0  0  0  0  0
  -22.7360  -29.5210   22.5710 C   0  0  0  0  0  0  0  0  0  0  0  0
  -21.4070  -29.3560   22.4490 N   0  0  0  0  0  0  0  0  0  0  0  0
  -23.4090  -28.8910   23.3920 O   0  0  0  0  0  0  0  0  0  0  0  0
  -20.9240  -29.9130   21.7590 H   0  0  0  0  0  0  0  0  0  0  0  0
  -18.0190  -28.1870   22.9640 C   0  0  0  0  0  0  0  0  0  0  0  0
  -20.5810  -28.4290   23.2260 C   0  0  0  0  0  3  0  0  0  0  0  0
  -20.6690  -26.9940   22.6580 C   0  0  0  0  0  2  0  0  0  0  0  0
  -19.5620  -26.6750   21.6480 C   0  0  0  0  0  2  0  0  0  0  0  0
  -18.1830  -26.8340   22.2940 C   0  0  0  0  0  2  0  0  0  0  0  0
  -19.1460  -28.9430   23.3880 C   0  0  0  0  0  0  0  0  0  0  0  0
  -18.9370  -30.2090   23.9770 C   0  0  0  0  0  3  0  0  0  0  0  0
  -17.6360  -30.7210   24.1420 C   0  0  0  0  0  3  0  0  0  0  0  0
  -16.5250  -29.9630   23.7330 C   0  0  0  0  0  3  0  0  0  0  0  0
  -16.7180  -28.6980   23.1510 C   0  0  0  0  0  3  0  0  0  0  0  0
  -25.9080  -32.5510   23.8570 C   0  0  0  0  0  3  0  0  0  0  0  0
  -26.4250  -31.7730   25.1300 C   0  0  1  0  0  0  0  0  0  0  0  0
  -25.3350  -31.5350   26.1990 C   0  0  0  0  0  1  0  0  0  0  0  0
  -27.0030  -30.3950   24.7310 C   0  0  0  0  0  1  0  0  0  0  0  0
  -27.5820  -32.5610   25.7890 C   0  0  0  0  0  1  0  0  0  0  0  0
  -25.6010  -33.9490   24.1980 N   0  0  0  0  0  0  0  0  0  0  0  0
  -25.9170  -35.0050   23.4370 C   0  0  0  0  0  0  0  0  0  0  0  0
  -26.5660  -34.9060   22.3930 O   0  0  0  0  0  0  0  0  0  0  0  0
  -25.0210  -34.0980   25.0090 H   0  0  0  0  0  0  0  0  0  0  0  0
  -24.1760  -36.7960   23.1290 C   0  0  0  0  0  1  0  0  0  0  0  0
  -25.4370  -36.3910   23.9090 C   0  0  0  0  0  3  0  0  0  0  0  0
  -27.5900  -37.2800   24.6870 C   0  0  0  0  0  1  0  0  0  0  0  0
  -26.4630  -37.4480   23.7730 N   0  0  0  0  0  0  0  0  0  0  0  0
  -26.0590  -38.3670   23.9320 H   0  0  0  0  0  0  0  0  0  0  0  0
  1  2  2  0
  2  4  1  0
  2  5  1  0
  3 51  1  0
  3  1  1  0
  6  3  1  0
  8  9  2  0
  9 21  1  0
  9  7  1  0
 10  1  1  0
 10  7  2  0
 11 12  1  0
 12  8  1  0
 12 10  1  0
 13 21  1  0
 14 19  1  0
 15 16  1  0
 15 14  1  0
 17 16  1  0
 17 26  1  0
 17 18  1  0
 19 13  1  0
 19 18  1  0
 20 13  2  0
 21 22  1  0
 23 24  2  0
 24 43  1  0
 25 24  1  0
 25 28  1  0
 26 23  1  0
 26 27  1  0
 27 25  2  0
 28 29  1  0
 29 30  2  0
 31 34  1  0
 31 30  1  0
 32 31  2  0
 33 32  1  0
 33 28  2  0
 34 35  1  0
 35 36  1  0
 36 37  2  0
 38 37  1  0
 38 42  1  0
 39 38  2  0
 40 35  2  0
 40 39  1  0
 41 40  1  0
 43 44  1  0
 44 47  1  0
 44 46  1  0
 45 43  2  0
 48 49  1  0
 48 23  1  0
 50 48  1  0
 52 53  1  0
 52 51  2  0
 54 65  2  0
 55 53  1  0
 55 60  1  0
 56 64  1  0
 56 66  1  0
 57 63  1  0
 57 59  1  0
 58 64  1  0
 59 60  2  0
 59 58  1  0
 61 55  2  0
 62 61  1  0
 62 57  2  0
 63 56  1  0
 64 54  1  0
 66 68  2  0
 67 66  1  0
 69 67  1  0
 70 79  2  0
 70 75  1  0
 71 67  1  0
 71 75  1  0
 72 71  1  0
 73 74  1  0
 73 72  1  0
 74 70  1  0
 75 76  2  0
 76 77  1  0
 78 77  2  0
 79 78  1  0
 80 54  1  0
 80 85  1  0
 80 81  1  0
 81 84  1  1
 81 82  1  0
 83 81  1  0
 85 88  1  0
 86 90  1  0
 86 85  1  0
 87 86  2  0
 90 89  1  0
 92 90  1  0
 92 93  1  0
 92 91  1  0
M  ISO  4  13 100  21 100  52 101  53 101
M  END
>  <TORSDO>  (93) 
F 19

>  <SCORE>  (93) 
-14.343

>  <name>  (93) 
93

>  <ligand_id>  (93) 
93

>  <original_smiles>  (93) 
[H]c1c([H])c([H])c2c(c1[H])C([H])([H])C([H])([H])C([H])([H])C2([H])N([H])C(=O)C1([H])N(C(=O)C([H])(N([H])C(=O)C([H])(N([H])C([H])([H])[H])C([H])([H])[H])C(C([H])([H])[H])(C([H])([H])[H])C([H])([H])[H])C([H])([H])c2c([H])c(OC([H])([H])C([H])([H])[N+]([H])=C(c3c([H])c(N([H])C(=O)N4C([H])([H])C([H])([H])C([H])([H])C([H])(n5nc(-c6c([H])c([H])c(Oc7c([H])c([H])c(F)c([H])c7F)c([H])c6[H])c(C(=O)N([H])[H])c5N([H])[H])C4([H])[H])c([H])n3C([H])([H])[H])N([H])[H])c([H])c([H])c2C1([H])[H]

>  <smiles>  (93) 
[H]c1c([H])c([H])c2c(c1[H])C([H])([H])C([H])([H])C([H])([H])C2([H])N([H])C(=O)C1([H])N(C(=O)C([H])(N([H])C(=O)C([H])(N([H])C([H])([H])[H])C([H])([H])[H])C(C([H])([H])[H])(C([H])([H])[H])C([H])([H])[H])C([H])([H])c2c([H])c(OC([H])([H])C([H])([H])[N+]([H])=C(c3c([H])c(N([H])C(=O)N4C([H])([H])C([H])([H])C([H])([H])C([H])(n5nc(-c6c([H])c([H])c(Oc7c([H])c([H])c(F)c([H])c7F)c([H])c6[H])c(C(=O)N([H])[H])c5N([H])[H])C4([H])[H])c([H])n3C([H])([H])[H])N([H])[H])c([H])c([H])c2C1([H])[H]

$$$$
94:0:0
     RDKit          3D

 93101  0  0  1  0  0  0  0  0999 V2000
  -29.6610  -20.7980   20.1130 N   0  0  0  0  0  0  0  0  0  0  0  0
  -30.6260  -21.0540   19.9260 H   0  0  0  0  0  0  0  0  0  0  0  0
  -28.0560  -18.8830   20.1870 C   0  0  0  0  0  3  0  0  0  0  0  0
  -28.1180  -17.4670   20.4090 C   0  0  0  0  0  0  0  0  0  0  0  0
  -29.3250  -19.3720   20.1670 C   0  0  0  0  0  0  0  0  0  0  0  0
  -29.4470  -17.0750   20.4140 C   0  0  0  0  0  0  0  0  0  0  0  0
  -30.2310  -18.2680   20.2970 O   0  0  0  0  0  0  0  0  0  0  0  0
  -30.5110  -14.6820   19.9030 C   0  0  0  0  0  0  0  0  0  0  0  0
  -30.3760  -12.3270   19.0010 C   0  0  0  0  0  2  0  0  0  0  0  0
  -29.3920  -12.3010   17.8060 C   0  0  0  0  0  2  0  0  0  0  0  0
  -27.9410  -12.0990   18.2800 C   0  0  0  0  0  2  0  0  0  0  0  0
  -27.5820  -13.0440   19.4590 C   0  0  0  0  0  3  0  0  0  0  0  0
  -28.6770  -13.0300   20.5560 C   0  0  0  0  0  2  0  0  0  0  0  0
  -29.9580  -13.4100   19.9290 N   0  0  0  0  0  0  0  0  0  0  0  0
  -31.6030  -14.8710   19.3520 O   0  0  0  0  0  0  0  0  0  0  0  0
  -29.7720  -15.6880   20.5080 N   0  0  0  0  0  0  0  0  0  0  0  0
  -29.1250  -15.2310   21.1390 H   0  0  0  0  0  0  0  0  0  0  0  0
  -25.2000  -13.6340   20.2180 C   0  0  0  0  0  0  0  0  0  0  0  0
  -24.1580  -12.8660   20.6660 C   0  0  0  0  0  0  0  0  0  0  0  0
  -24.6390  -11.5210   20.6790 C   0  0  0  0  0  0  0  0  0  0  0  0
  -26.2520  -12.7590   19.9960 N   0  0  0  0  0  0  0  0  0  0  0  0
  -25.9200  -11.4860   20.3300 N   0  0  0  0  0  0  0  0  0  0  0  0
  -23.9370  -10.2580   20.9520 C   0  0  0  0  0  0  0  0  0  0  0  0
  -24.3990   -9.3490   21.9280 C   0  0  0  0  0  3  0  0  0  0  0  0
  -23.6930   -8.1500   22.1830 C   0  0  0  0  0  3  0  0  0  0  0  0
  -22.5100   -7.8580   21.4620 C   0  0  0  0  0  0  0  0  0  0  0  0
  -22.0650   -8.7570   20.4770 C   0  0  0  0  0  3  0  0  0  0  0  0
  -22.7720   -9.9460   20.2220 C   0  0  0  0  0  3  0  0  0  0  0  0
  -21.7760   -6.7050   21.6230 O   0  0  0  0  0  0  0  0  0  0  0  0
  -21.7370   -6.0440   22.8210 C   0  0  0  0  0  0  0  0  0  0  0  0
  -21.3210   -6.6750   24.0160 C   0  0  0  0  0  3  0  0  0  0  0  0
  -21.2310   -5.9350   25.2100 C   0  0  0  0  0  3  0  0  0  0  0  0
  -21.5470   -4.5620   25.2140 C   0  0  0  0  0  0  0  0  0  0  0  0
  -21.9570   -3.9310   24.0250 C   0  0  0  0  0  3  0  0  0  0  0  0
  -22.0480   -4.6690   22.8340 C   0  0  0  0  0  0  0  0  0  0  0  0
  -22.4220   -4.0480   21.6890 F   0  0  0  0  0  0  0  0  0  0  0  0
  -21.4510   -3.8500   26.3610 F   0  0  0  0  0  0  0  0  0  0  0  0
  -22.7620  -13.3400   20.9620 C   0  0  0  0  0  0  0  0  0  0  0  0
  -22.0740  -12.6820   21.8900 N   0  0  0  0  0  0  0  0  0  0  0  0
  -22.2890  -14.3280   20.4020 O   0  0  0  0  0  0  0  0  0  0  0  0
  -22.4670  -11.8860   22.3700 H   0  0  0  0  0  0  0  0  0  0  0  0
  -21.1410  -12.9810   22.1320 H   0  0  0  0  0  0  0  0  0  0  0  0
  -25.3340  -14.9950   19.9590 N   0  0  0  0  0  0  0  0  0  0  0  0
  -24.5290  -15.6090   19.9770 H   0  0  0  0  0  0  0  0  0  0  0  0
  -26.1110  -15.3790   19.4380 H   0  0  0  0  0  0  0  0  0  0  0  0
  -26.9710  -16.5550   20.6550 C   0  0  0  0  0  0  0  0  0  0  0  0
  -25.6400  -16.9120   20.0240 C   0  0  0  0  0  1  0  0  0  0  0  0
  -27.0690  -15.5400   21.3430 O   0  0  0  0  0  0  0  0  0  0  0  0
  -28.6640  -21.9700   19.9760 C   0  0  0  0  0  2  0  0  0  0  0  0
  -29.0760  -23.5500   20.1480 C   0  0  0  0  0  0  0  0  0  0  0  0
  -30.1780  -23.8260   20.6360 O   0  0  0  0  0  0  0  0  0  0  0  0
  -28.0760  -24.7590   19.7090 C   0  0  0  0  0  2  0  0  0  0  0  0
  -28.3690  -26.2240   20.0470 O   0  0  0  0  0  0  0  0  0  0  0  0
  -24.6730  -31.7250   23.1540 C   0  0  0  0  0  0  0  0  0  0  0  0
  -27.2960  -27.1650   19.9940 C   0  0  0  0  0  0  0  0  0  0  0  0
  -23.4820  -30.3680   21.4710 C   0  0  0  0  0  3  0  0  0  0  0  0
  -24.9440  -28.8500   20.0150 C   0  0  0  0  0  0  0  0  0  0  0  0
  -26.0310  -30.6700   21.3180 C   0  0  0  0  0  2  0  0  0  0  0  0
  -26.1210  -29.3020   20.6310 C   0  0  0  0  0  0  0  0  0  0  0  0
  -27.2950  -28.4700   20.6170 C   0  0  0  0  0  3  0  0  0  0  0  0
  -26.1010  -26.8130   19.3240 C   0  0  0  0  0  3  0  0  0  0  0  0
  -24.9380  -27.6100   19.3590 C   0  0  0  0  0  3  0  0  0  0  0  0
  -23.7110  -29.7320   20.0750 C   0  0  0  0  0  2  0  0  0  0  0  0
  -24.7470  -30.9410   22.0380 N   0  0  0  0  0  0  0  0  0  0  0  0
  -23.5850  -31.9910   23.6840 O   0  0  0  0  0  0  0  0  0  0  0  0
  -22.8080  -29.3300   22.4020 C   0  0  0  0  0  0  0  0  0  0  0  0
  -21.4850  -29.1510   22.2570 N   0  0  0  0  0  0  0  0  0  0  0  0
  -23.4780  -28.6860   23.2150 O   0  0  0  0  0  0  0  0  0  0  0  0
  -20.9940  -29.7040   21.5690 H   0  0  0  0  0  0  0  0  0  0  0  0
  -18.1130  -27.9390   22.7060 C   0  0  0  0  0  0  0  0  0  0  0  0
  -20.6660  -28.1970   23.0000 C   0  0  0  0  0  3  0  0  0  0  0  0
  -20.7760  -26.7790   22.3890 C   0  0  0  0  0  2  0  0  0  0  0  0
  -19.6850  -26.4770   21.3560 C   0  0  0  0  0  2  0  0  0  0  0  0
  -18.2970  -26.6090   21.9910 C   0  0  0  0  0  2  0  0  0  0  0  0
  -19.2240  -28.6890   23.1670 C   0  0  0  0  0  0  0  0  0  0  0  0
  -19.0010  -29.9360   23.7900 C   0  0  0  0  0  3  0  0  0  0  0  0
  -17.6910  -30.4240   23.9640 C   0  0  0  0  0  3  0  0  0  0  0  0
  -16.5900  -29.6690   23.5190 C   0  0  0  0  0  3  0  0  0  0  0  0
  -16.8020  -28.4280   22.8980 C   0  0  0  0  0  3  0  0  0  0  0  0
  -25.9500  -32.3440   23.7990 C   0  0  0  0  0  3  0  0  0  0  0  0
  -25.6340  -33.7310   24.1680 N   0  0  0  0  0  0  0  0  0  0  0  0
  -25.9380  -34.8040   23.4260 C   0  0  0  0  0  0  0  0  0  0  0  0
  -26.5790  -34.7290   22.3750 O   0  0  0  0  0  0  0  0  0  0  0  0
  -25.0640  -33.8650   24.9900 H   0  0  0  0  0  0  0  0  0  0  0  0
  -24.1700  -36.5770   23.1830 C   0  0  0  0  0  1  0  0  0  0  0  0
  -25.4540  -36.1780   23.9290 C   0  0  0  0  0  3  0  0  0  0  0  0
  -27.6120  -37.0820   24.6740 C   0  0  0  0  0  1  0  0  0  0  0  0
  -26.4660  -37.2480   23.7860 N   0  0  0  0  0  0  0  0  0  0  0  0
  -26.0530  -38.1590   23.9680 H   0  0  0  0  0  0  0  0  0  0  0  0
  -26.4560  -31.5380   25.0580 C   0  0  1  0  0  0  0  0  0  0  0  0
  -25.3550  -31.2670   26.1110 C   0  0  0  0  0  1  0  0  0  0  0  0
  -27.0520  -30.1720   24.6380 C   0  0  0  0  0  1  0  0  0  0  0  0
  -27.5980  -32.3180   25.7540 C   0  0  0  0  0  1  0  0  0  0  0  0
  1  5  1  0
  2  1  1  0
  3  4  1  0
  4  6  2  0
  4 46  1  0
  5  3  2  0
  5  7  1  0
  6 16  1  0
  7  6  1  0
  8 14  1  0
  8 16  1  0
  9 14  1  0
 10 11  1  0
 10  9  1  0
 12 11  1  0
 12 21  1  0
 12 13  1  0
 14 13  1  0
 15  8  2  0
 16 17  1  0
 18 19  2  0
 19 20  1  0
 19 38  1  0
 20 23  1  0
 21 18  1  0
 21 22  1  0
 22 20  2  0
 23 24  1  0
 24 25  2  0
 26 29  1  0
 26 25  1  0
 27 26  2  0
 28 27  1  0
 28 23  2  0
 29 30  1  0
 30 35  2  0
 30 31  1  0
 31 32  2  0
 32 33  1  0
 33 37  1  0
 34 33  2  0
 35 34  1  0
 36 35  1  0
 38 39  1  0
 39 42  1  0
 39 41  1  0
 40 38  2  0
 43 44  1  0
 43 18  1  0
 45 43  1  0
 46 48  2  0
 47 46  1  0
 49  1  1  0
 49 50  1  0
 50 51  2  0
 52 53  1  0
 52 50  1  0
 54 65  2  0
 55 53  1  0
 55 60  1  0
 56 64  1  0
 56 66  1  0
 57 63  1  0
 57 59  1  0
 58 64  1  0
 59 58  1  0
 60 59  2  0
 61 62  1  0
 61 55  2  0
 62 57  2  0
 63 56  1  0
 64 54  1  0
 66 68  2  0
 67 66  1  0
 69 67  1  0
 70 79  2  0
 70 75  1  0
 71 67  1  0
 71 75  1  0
 72 71  1  0
 73 74  1  0
 73 72  1  0
 74 70  1  0
 75 76  2  0
 76 77  1  0
 78 77  2  0
 79 78  1  0
 80 54  1  0
 80 81  1  0
 80 90  1  0
 81 84  1  0
 82 86  1  0
 82 81  1  0
 83 82  2  0
 86 85  1  0
 88 86  1  0
 88 89  1  0
 88 87  1  0
 90 93  1  1
 90 91  1  0
 92 90  1  0
M  ISO  4   8 100  16 100  52 101  53 101
M  END
>  <TORSDO>  (94) 
F 21

>  <SCORE>  (94) 
-12.241

>  <name>  (94) 
94

>  <ligand_id>  (94) 
94

>  <original_smiles>  (94) 
[H]c1c([H])c([H])c2c(c1[H])C([H])([H])C([H])([H])C([H])([H])C2([H])N([H])C(=O)C1([H])N(C(=O)C([H])(N([H])C(=O)C([H])(N([H])C([H])([H])[H])C([H])([H])[H])C(C([H])([H])[H])(C([H])([H])[H])C([H])([H])[H])C([H])([H])c2c([H])c(OC([H])([H])C(=O)C([H])([H])N([H])c3oc(N([H])C(=O)N4C([H])([H])C([H])([H])C([H])([H])C([H])(n5nc(-c6c([H])c([H])c(Oc7c([H])c([H])c(F)c([H])c7F)c([H])c6[H])c(C(=O)N([H])[H])c5N([H])[H])C4([H])[H])c(C(=O)C([H])([H])[H])c3[H])c([H])c([H])c2C1([H])[H]

>  <smiles>  (94) 
[H]c1c([H])c([H])c2c(c1[H])C([H])([H])C([H])([H])C([H])([H])C2([H])N([H])C(=O)C1([H])N(C(=O)C([H])(N([H])C(=O)C([H])(N([H])C([H])([H])[H])C([H])([H])[H])C(C([H])([H])[H])(C([H])([H])[H])C([H])([H])[H])C([H])([H])c2c([H])c(OC([H])([H])C(=O)C([H])([H])N([H])c3oc(N([H])C(=O)N4C([H])([H])C([H])([H])C([H])([H])C([H])(n5nc(-c6c([H])c([H])c(Oc7c([H])c([H])c(F)c([H])c7F)c([H])c6[H])c(C(=O)N([H])[H])c5N([H])[H])C4([H])[H])c(C(=O)C([H])([H])[H])c3[H])c([H])c([H])c2C1([H])[H]

$$$$
95:0:0
     RDKit          3D

 93101  0  0  1  0  0  0  0  0999 V2000
  -29.5170  -21.0740   20.6960 C   0  0  0  0  0  0  0  0  0  0  0  0
  -28.9630  -23.6750   20.6220 C   0  0  0  0  0  0  0  0  0  0  0  0
  -28.9120  -22.2300   20.1450 N   0  0  0  0  0  0  0  0  0  0  0  0
  -30.1680  -21.1730   21.8650 N   0  0  0  0  0  4  0  0  0  0  0  0
  -29.7140  -23.9650   21.5650 O   0  0  0  0  0  0  0  0  0  0  0  0
  -28.3600  -21.9990   19.3370 H   0  0  0  0  0  0  0  0  0  0  0  0
  -30.2850  -22.0660   22.3250 H   0  0  0  0  0  0  0  0  0  0  0  0
  -30.6180  -20.3510   22.2440 H   0  0  0  0  0  0  0  0  0  0  0  0
  -29.7570  -19.1710   18.8270 C   0  0  0  0  0  3  0  0  0  0  0  0
  -29.9420  -17.7390   18.8760 C   0  0  0  0  0  3  0  0  0  0  0  0
  -29.5860  -19.6680   20.0990 C   0  0  0  0  0  0  0  0  0  0  0  0
  -29.8780  -17.3400   20.1870 C   0  0  0  0  0  0  0  0  0  0  0  0
  -29.6360  -18.5180   20.9490 O   0  0  0  0  0  0  0  0  0  0  0  0
  -30.5750  -14.8560   20.2770 C   0  0  0  0  0  0  0  0  0  0  0  0
  -30.3800  -12.5460   19.3200 C   0  0  0  0  0  2  0  0  0  0  0  0
  -29.4370  -12.6020   18.0950 C   0  0  0  0  0  2  0  0  0  0  0  0
  -27.9690  -12.4340   18.5290 C   0  0  0  0  0  2  0  0  0  0  0  0
  -27.6040  -13.3190   19.7530 C   0  0  0  0  0  3  0  0  0  0  0  0
  -28.6710  -13.2500   20.8670 C   0  0  0  0  0  2  0  0  0  0  0  0
  -29.9630  -13.6130   20.2670 N   0  0  0  0  0  0  0  0  0  0  0  0
  -31.7380  -14.9470   19.8720 O   0  0  0  0  0  0  0  0  0  0  0  0
  -29.8390  -15.9940   20.6360 N   0  0  0  0  0  0  0  0  0  0  0  0
  -29.0270  -15.7750   21.1900 H   0  0  0  0  0  0  0  0  0  0  0  0
  -25.2230  -13.8990   20.5040 C   0  0  0  0  0  0  0  0  0  0  0  0
  -24.1600  -13.1240   20.8830 C   0  0  0  0  0  0  0  0  0  0  0  0
  -24.6250  -11.7740   20.8460 C   0  0  0  0  0  0  0  0  0  0  0  0
  -26.2660  -13.0230   20.2570 N   0  0  0  0  0  0  0  0  0  0  0  0
  -25.9140  -11.7380   20.5260 N   0  0  0  0  0  0  0  0  0  0  0  0
  -23.9010  -10.5100   21.0410 C   0  0  0  0  0  0  0  0  0  0  0  0
  -24.3420   -9.5380   21.9660 C   0  0  0  0  0  3  0  0  0  0  0  0
  -23.6160   -8.3410   22.1490 C   0  0  0  0  0  3  0  0  0  0  0  0
  -22.4340   -8.1070   21.4060 C   0  0  0  0  0  0  0  0  0  0  0  0
  -22.0120   -9.0670   20.4690 C   0  0  0  0  0  3  0  0  0  0  0  0
  -22.7390  -10.2550   20.2850 C   0  0  0  0  0  3  0  0  0  0  0  0
  -21.6780   -6.9620   21.4960 O   0  0  0  0  0  0  0  0  0  0  0  0
  -21.6410   -6.2130   22.6450 C   0  0  0  0  0  0  0  0  0  0  0  0
  -21.2220   -6.7610   23.8780 C   0  0  0  0  0  3  0  0  0  0  0  0
  -21.1320   -5.9390   25.0190 C   0  0  0  0  0  3  0  0  0  0  0  0
  -21.4510   -4.5710   24.9300 C   0  0  0  0  0  0  0  0  0  0  0  0
  -21.8620   -4.0220   23.7020 C   0  0  0  0  0  3  0  0  0  0  0  0
  -21.9540   -4.8410   22.5620 C   0  0  0  0  0  0  0  0  0  0  0  0
  -22.3310   -4.3030   21.3770 F   0  0  0  0  0  0  0  0  0  0  0  0
  -21.3560   -3.7800   26.0230 F   0  0  0  0  0  0  0  0  0  0  0  0
  -22.7650  -13.6010   21.1630 C   0  0  0  0  0  0  0  0  0  0  0  0
  -22.0400  -12.9050   22.0320 N   0  0  0  0  0  0  0  0  0  0  0  0
  -22.3250  -14.6250   20.6440 O   0  0  0  0  0  0  0  0  0  0  0  0
  -22.4090  -12.0780   22.4760 H   0  0  0  0  0  0  0  0  0  0  0  0
  -21.1030  -13.2070   22.2560 H   0  0  0  0  0  0  0  0  0  0  0  0
  -25.3850  -15.2730   20.3310 N   0  0  0  0  0  0  0  0  0  0  0  0
  -24.6130  -15.9240   20.4280 H   0  0  0  0  0  0  0  0  0  0  0  0
  -26.2320  -15.7170   20.0000 H   0  0  0  0  0  0  0  0  0  0  0  0
  -28.0290  -24.8270   19.9670 C   0  0  0  0  0  2  0  0  0  0  0  0
  -28.2480  -26.3040   20.3130 O   0  0  0  0  0  0  0  0  0  0  0  0
  -24.6020  -31.9060   23.2460 C   0  0  0  0  0  0  0  0  0  0  0  0
  -27.1730  -27.2390   20.2210 C   0  0  0  0  0  0  0  0  0  0  0  0
  -23.3950  -30.5100   21.6120 C   0  0  0  0  0  3  0  0  0  0  0  0
  -24.8370  -28.9410   20.1890 C   0  0  0  0  0  0  0  0  0  0  0  0
  -25.9440  -30.7870   21.4400 C   0  0  0  0  0  2  0  0  0  0  0  0
  -26.0130  -29.4000   20.7950 C   0  0  0  0  0  0  0  0  0  0  0  0
  -27.1820  -28.5610   20.8010 C   0  0  0  0  0  3  0  0  0  0  0  0
  -25.9740  -26.8690   19.5690 C   0  0  0  0  0  3  0  0  0  0  0  0
  -24.8250  -27.6870   19.5640 C   0  0  0  0  0  3  0  0  0  0  0  0
  -23.6100  -29.8330   20.2330 C   0  0  0  0  0  2  0  0  0  0  0  0
  -24.6670  -31.0870   22.1550 N   0  0  0  0  0  0  0  0  0  0  0  0
  -23.5180  -32.1940   23.7760 O   0  0  0  0  0  0  0  0  0  0  0  0
  -22.7220  -29.5020   22.5760 C   0  0  0  0  0  0  0  0  0  0  0  0
  -21.3940  -29.3330   22.4550 N   0  0  0  0  0  0  0  0  0  0  0  0
  -23.3960  -28.8740   23.3970 O   0  0  0  0  0  0  0  0  0  0  0  0
  -20.9080  -29.8920   21.7670 H   0  0  0  0  0  0  0  0  0  0  0  0
  -18.0080  -28.1570   22.9720 C   0  0  0  0  0  0  0  0  0  0  0  0
  -20.5690  -28.4040   23.2320 C   0  0  0  0  0  3  0  0  0  0  0  0
  -20.6620  -26.9700   22.6630 C   0  0  0  0  0  2  0  0  0  0  0  0
  -19.5550  -26.6480   21.6530 C   0  0  0  0  0  2  0  0  0  0  0  0
  -18.1760  -26.8050   22.3000 C   0  0  0  0  0  2  0  0  0  0  0  0
  -19.1330  -28.9150   23.3940 C   0  0  0  0  0  0  0  0  0  0  0  0
  -18.9220  -30.1800   23.9860 C   0  0  0  0  0  3  0  0  0  0  0  0
  -17.6210  -30.6880   24.1570 C   0  0  0  0  0  3  0  0  0  0  0  0
  -16.5110  -29.9290   23.7470 C   0  0  0  0  0  3  0  0  0  0  0  0
  -16.7060  -28.6650   23.1610 C   0  0  0  0  0  3  0  0  0  0  0  0
  -25.8850  -32.5390   23.8660 C   0  0  0  0  0  3  0  0  0  0  0  0
  -25.5800  -33.9410   24.1890 N   0  0  0  0  0  0  0  0  0  0  0  0
  -25.9070  -34.9910   23.4220 C   0  0  0  0  0  0  0  0  0  0  0  0
  -26.5690  -34.8820   22.3850 O   0  0  0  0  0  0  0  0  0  0  0  0
  -25.0000  -34.1000   24.9990 H   0  0  0  0  0  0  0  0  0  0  0  0
  -24.1830  -36.7920   23.0760 C   0  0  0  0  0  1  0  0  0  0  0  0
  -25.4280  -36.3830   23.8790 C   0  0  0  0  0  3  0  0  0  0  0  0
  -27.5720  -37.2700   24.6920 C   0  0  0  0  0  1  0  0  0  0  0  0
  -26.4630  -37.4340   23.7540 N   0  0  0  0  0  0  0  0  0  0  0  0
  -26.0590  -38.3540   23.8990 H   0  0  0  0  0  0  0  0  0  0  0  0
  -26.3960  -31.7760   25.1490 C   0  0  1  0  0  0  0  0  0  0  0  0
  -25.3000  -31.5550   26.2180 C   0  0  0  0  0  1  0  0  0  0  0  0
  -26.9760  -30.3930   24.7740 C   0  0  0  0  0  1  0  0  0  0  0  0
  -27.5450  -32.5740   25.8110 C   0  0  0  0  0  1  0  0  0  0  0  0
  1  4  2  0
  2  5  2  0
  3  2  1  0
  3  1  1  0
  4  8  1  0
  4  7  1  0
  6  3  1  0
  9 10  1  0
  9 11  2  0
 10 12  2  0
 11  1  1  0
 11 13  1  0
 12 22  1  0
 12 13  1  0
 14 22  1  0
 15 20  1  0
 16 17  1  0
 16 15  1  0
 18 17  1  0
 18 27  1  0
 18 19  1  0
 20 14  1  0
 20 19  1  0
 21 14  2  0
 22 23  1  0
 24 25  2  0
 25 44  1  0
 26 25  1  0
 26 29  1  0
 27 24  1  0
 27 28  1  0
 28 26  2  0
 29 30  1  0
 30 31  2  0
 32 35  1  0
 32 31  1  0
 33 32  2  0
 34 33  1  0
 34 29  2  0
 35 36  1  0
 36 37  1  0
 37 38  2  0
 39 38  1  0
 39 43  1  0
 40 39  2  0
 41 36  2  0
 41 40  1  0
 42 41  1  0
 44 45  1  0
 45 48  1  0
 45 47  1  0
 46 44  2  0
 49 50  1  0
 49 24  1  0
 51 49  1  0
 52 53  1  0
 52  2  1  0
 54 65  2  0
 55 53  1  0
 55 60  1  0
 56 64  1  0
 56 66  1  0
 57 63  1  0
 57 59  1  0
 58 64  1  0
 59 60  2  0
 59 58  1  0
 61 55  2  0
 62 61  1  0
 62 57  2  0
 63 56  1  0
 64 54  1  0
 66 68  2  0
 67 66  1  0
 69 67  1  0
 70 79  2  0
 70 75  1  0
 71 67  1  0
 71 75  1  0
 72 71  1  0
 73 74  1  0
 73 72  1  0
 74 70  1  0
 75 76  2  0
 76 77  1  0
 78 77  2  0
 79 78  1  0
 80 54  1  0
 80 81  1  0
 80 90  1  0
 81 84  1  0
 82 86  1  0
 82 81  1  0
 83 82  2  0
 86 85  1  0
 88 86  1  0
 88 89  1  0
 88 87  1  0
 90 93  1  1
 90 91  1  0
 92 90  1  0
M  ISO  4  14 100  22 100  52 101  53 101
M  END
>  <TORSDO>  (95) 
F 18

>  <SCORE>  (95) 
-14.756

>  <name>  (95) 
95

>  <ligand_id>  (95) 
95

>  <original_smiles>  (95) 
[H]c1c(C(N([H])C(=O)C([H])([H])Oc2c([H])c([H])c3c(c2[H])C([H])([H])N(C(=O)C([H])(N([H])C(=O)C([H])(N([H])C([H])([H])[H])C([H])([H])[H])C(C([H])([H])[H])(C([H])([H])[H])C([H])([H])[H])C([H])(C(=O)N([H])C2([H])c4c([H])c([H])c([H])c([H])c4C([H])([H])C([H])([H])C2([H])[H])C3([H])[H])=[N+]([H])[H])oc(N([H])C(=O)N2C([H])([H])C([H])([H])C([H])([H])C([H])(n3nc(-c4c([H])c([H])c(Oc5c([H])c([H])c(F)c([H])c5F)c([H])c4[H])c(C(=O)N([H])[H])c3N([H])[H])C2([H])[H])c1[H]

>  <smiles>  (95) 
[H]c1c(C(N([H])C(=O)C([H])([H])Oc2c([H])c([H])c3c(c2[H])C([H])([H])N(C(=O)C([H])(N([H])C(=O)C([H])(N([H])C([H])([H])[H])C([H])([H])[H])C(C([H])([H])[H])(C([H])([H])[H])C([H])([H])[H])C([H])(C(=O)N([H])C2([H])c4c([H])c([H])c([H])c([H])c4C([H])([H])C([H])([H])C2([H])[H])C3([H])[H])=[N+]([H])[H])oc(N([H])C(=O)N2C([H])([H])C([H])([H])C([H])([H])C([H])(n3nc(-c4c([H])c([H])c(Oc5c([H])c([H])c(F)c([H])c5F)c([H])c4[H])c(C(=O)N([H])[H])c3N([H])[H])C2([H])[H])c1[H]

$$$$
96:0:0
     RDKit          3D

 94102  0  0  1  0  0  0  0  0999 V2000
  -28.6810  -20.3350   20.5710 C   0  0  0  0  0  0  0  0  0  0  0  0
  -27.3550  -20.2140   20.7420 N   0  0  0  0  0  4  0  0  0  0  0  0
  -29.2160  -21.5830   20.4860 N   0  0  0  0  0  0  0  0  0  0  0  0
  -26.9480  -19.2920   20.7790 H   0  0  0  0  0  0  0  0  0  0  0  0
  -26.7250  -20.9940   20.8120 H   0  0  0  0  0  0  0  0  0  0  0  0
  -30.2080  -21.6790   20.3110 H   0  0  0  0  0  0  0  0  0  0  0  0
  -29.2060  -17.8240   21.0180 C   0  0  0  0  0  3  0  0  0  0  0  0
  -31.0320  -17.7480   19.7250 C   0  0  0  0  0  3  0  0  0  0  0  0
  -30.2140  -16.9630   20.4940 C   0  0  0  0  0  0  0  0  0  0  0  0
  -29.4320  -19.0780   20.4970 C   0  0  0  0  0  0  0  0  0  0  0  0
  -30.5600  -19.0450   19.7160 O   0  0  0  0  0  0  0  0  0  0  0  0
  -30.9450  -14.5840   20.0700 C   0  0  0  0  0  0  0  0  0  0  0  0
  -30.6180  -12.4270   18.9080 C   0  0  0  0  0  2  0  0  0  0  0  0
  -29.5990  -12.6480   17.7680 C   0  0  0  0  0  2  0  0  0  0  0  0
  -28.1520  -12.5020   18.2820 C   0  0  0  0  0  2  0  0  0  0  0  0
  -27.8950  -13.3120   19.5810 C   0  0  0  0  0  3  0  0  0  0  0  0
  -29.0140  -13.0530   20.6160 C   0  0  0  0  0  2  0  0  0  0  0  0
  -30.3040  -13.3840   19.9830 N   0  0  0  0  0  0  0  0  0  0  0  0
  -32.0270  -14.8060   19.5160 O   0  0  0  0  0  0  0  0  0  0  0  0
  -30.2570  -15.5460   20.7290 N   0  0  0  0  0  0  0  0  0  0  0  0
  -29.4880  -15.1800   21.2680 H   0  0  0  0  0  0  0  0  0  0  0  0
  -25.5540  -13.9240   20.4580 C   0  0  0  0  0  0  0  0  0  0  0  0
  -24.5000  -13.1520   20.8680 C   0  0  0  0  0  0  0  0  0  0  0  0
  -24.9390  -11.7960   20.7600 C   0  0  0  0  0  0  0  0  0  0  0  0
  -26.5700  -13.0380   20.1320 N   0  0  0  0  0  0  0  0  0  0  0  0
  -26.2050  -11.7520   20.3690 N   0  0  0  0  0  0  0  0  0  0  0  0
  -24.2080  -10.5370   20.9520 C   0  0  0  0  0  0  0  0  0  0  0  0
  -24.6380   -9.5690   21.8860 C   0  0  0  0  0  3  0  0  0  0  0  0
  -23.9090   -8.3740   22.0660 C   0  0  0  0  0  3  0  0  0  0  0  0
  -22.7360   -8.1380   21.3100 C   0  0  0  0  0  0  0  0  0  0  0  0
  -22.3240   -9.0940   20.3660 C   0  0  0  0  0  3  0  0  0  0  0  0
  -23.0540  -10.2810   20.1840 C   0  0  0  0  0  3  0  0  0  0  0  0
  -21.9790   -6.9950   21.3990 O   0  0  0  0  0  0  0  0  0  0  0  0
  -21.8630   -6.2970   22.5750 C   0  0  0  0  0  0  0  0  0  0  0  0
  -21.3250   -6.8870   23.7400 C   0  0  0  0  0  3  0  0  0  0  0  0
  -21.1600   -6.1140   24.9070 C   0  0  0  0  0  3  0  0  0  0  0  0
  -21.5200   -4.7530   24.9090 C   0  0  0  0  0  0  0  0  0  0  0  0
  -22.0510   -4.1630   23.7480 C   0  0  0  0  0  3  0  0  0  0  0  0
  -22.2180   -4.9340   22.5830 C   0  0  0  0  0  0  0  0  0  0  0  0
  -22.7090   -4.3560   21.4610 F   0  0  0  0  0  0  0  0  0  0  0  0
  -21.3550   -4.0090   26.0270 F   0  0  0  0  0  0  0  0  0  0  0  0
  -23.1290  -13.6350   21.2470 C   0  0  0  0  0  0  0  0  0  0  0  0
  -22.4480  -12.9170   22.1320 N   0  0  0  0  0  0  0  0  0  0  0  0
  -22.6730  -14.6840   20.7930 O   0  0  0  0  0  0  0  0  0  0  0  0
  -22.8310  -12.0660   22.5200 H   0  0  0  0  0  0  0  0  0  0  0  0
  -21.5310  -13.2210   22.4270 H   0  0  0  0  0  0  0  0  0  0  0  0
  -25.7270  -15.2980   20.3190 N   0  0  0  0  0  0  0  0  0  0  0  0
  -24.9750  -15.9550   20.4880 H   0  0  0  0  0  0  0  0  0  0  0  0
  -26.5580  -15.7320   19.9350 H   0  0  0  0  0  0  0  0  0  0  0  0
  -28.4330  -22.8450   20.6630 C   0  0  0  0  0  2  0  0  0  0  0  0
  -29.1300  -24.1970   20.3790 C   0  0  0  0  0  0  0  0  0  0  0  0
  -30.1730  -24.2620   19.7190 O   0  0  0  0  0  0  0  0  0  0  0  0
  -28.4480  -25.4540   20.9890 C   0  0  0  0  0  2  0  0  0  0  0  0
  -28.6360  -26.6850   20.2440 O   0  0  0  0  0  0  0  0  0  0  0  0
  -24.6670  -31.8250   23.2410 C   0  0  0  0  0  0  0  0  0  0  0  0
  -27.4910  -27.4570   20.1930 C   0  0  0  0  0  0  0  0  0  0  0  0
  -23.5400  -30.4180   21.5470 C   0  0  0  0  0  3  0  0  0  0  0  0
  -25.0690  -28.9300   20.1440 C   0  0  0  0  0  0  0  0  0  0  0  0
  -26.0640  -30.8290   21.4280 C   0  0  0  0  0  2  0  0  0  0  0  0
  -26.2020  -29.4670   20.7730 C   0  0  0  0  0  0  0  0  0  0  0  0
  -27.4180  -28.7400   20.7900 C   0  0  0  0  0  3  0  0  0  0  0  0
  -26.3440  -26.9440   19.5500 C   0  0  0  0  0  3  0  0  0  0  0  0
  -25.1370  -27.6700   19.5270 C   0  0  0  0  0  3  0  0  0  0  0  0
  -23.8060  -29.7620   20.1660 C   0  0  0  0  0  2  0  0  0  0  0  0
  -24.7740  -31.0380   22.1320 N   0  0  0  0  0  0  0  0  0  0  0  0
  -23.5650  -32.0670   23.7520 O   0  0  0  0  0  0  0  0  0  0  0  0
  -22.8820  -29.3720   22.4770 C   0  0  0  0  0  0  0  0  0  0  0  0
  -21.5580  -29.1930   22.3370 N   0  0  0  0  0  0  0  0  0  0  0  0
  -23.5600  -28.7250   23.2800 O   0  0  0  0  0  0  0  0  0  0  0  0
  -21.0730  -29.7670   21.6620 H   0  0  0  0  0  0  0  0  0  0  0  0
  -18.1720  -28.0300   22.8280 C   0  0  0  0  0  0  0  0  0  0  0  0
  -20.7370  -28.2350   23.0760 C   0  0  0  0  0  3  0  0  0  0  0  0
  -20.8080  -26.8290   22.4350 C   0  0  0  0  0  2  0  0  0  0  0  0
  -19.6870  -26.5700   21.4220 C   0  0  0  0  0  2  0  0  0  0  0  0
  -18.3160  -26.7090   22.0920 C   0  0  0  0  0  2  0  0  0  0  0  0
  -19.3090  -28.7540   23.2770 C   0  0  0  0  0  0  0  0  0  0  0  0
  -19.1180  -29.9920   23.9260 C   0  0  0  0  0  3  0  0  0  0  0  0
  -17.8240  -30.5070   24.1310 C   0  0  0  0  0  3  0  0  0  0  0  0
  -16.7030  -29.7790   23.6990 C   0  0  0  0  0  3  0  0  0  0  0  0
  -16.8770  -28.5420   23.0540 C   0  0  0  0  0  3  0  0  0  0  0  0
  -25.9200  -32.4750   23.9060 C   0  0  0  0  0  3  0  0  0  0  0  0
  -26.3990  -31.7170   25.2040 C   0  0  1  0  0  0  0  0  0  0  0  0
  -25.2700  -31.4650   26.2300 C   0  0  0  0  0  1  0  0  0  0  0  0
  -27.0190  -30.3480   24.8370 C   0  0  0  0  0  1  0  0  0  0  0  0
  -27.5120  -32.5300   25.9060 C   0  0  0  0  0  1  0  0  0  0  0  0
  -25.5830  -33.8710   24.2150 N   0  0  0  0  0  0  0  0  0  0  0  0
  -25.9300  -34.9220   23.4590 C   0  0  0  0  0  0  0  0  0  0  0  0
  -26.6360  -34.8190   22.4520 O   0  0  0  0  0  0  0  0  0  0  0  0
  -24.9590  -34.0240   24.9930 H   0  0  0  0  0  0  0  0  0  0  0  0
  -24.1980  -36.6930   23.0230 C   0  0  0  0  0  1  0  0  0  0  0  0
  -25.4090  -36.3070   23.8880 C   0  0  0  0  0  3  0  0  0  0  0  0
  -27.4950  -37.2230   24.8040 C   0  0  0  0  0  1  0  0  0  0  0  0
  -26.4350  -37.3700   23.8110 N   0  0  0  0  0  0  0  0  0  0  0  0
  -26.0130  -38.2870   23.9310 H   0  0  0  0  0  0  0  0  0  0  0  0
  1  2  2  0
  2  4  1  0
  2  5  1  0
  3  1  1  0
  3 50  1  0
  6  3  1  0
  8  9  2  0
  9 20  1  0
  9  7  1  0
 10  1  1  0
 10  7  2  0
 11  8  1  0
 11 10  1  0
 12 20  1  0
 13 18  1  0
 14 15  1  0
 14 13  1  0
 16 15  1  0
 16 25  1  0
 16 17  1  0
 18 12  1  0
 18 17  1  0
 19 12  2  0
 20 21  1  0
 22 23  2  0
 23 42  1  0
 24 23  1  0
 24 27  1  0
 25 26  1  0
 25 22  1  0
 26 24  2  0
 27 28  1  0
 28 29  2  0
 30 33  1  0
 30 29  1  0
 31 30  2  0
 32 31  1  0
 32 27  2  0
 33 34  1  0
 34 39  2  0
 34 35  1  0
 35 36  2  0
 36 37  1  0
 37 41  1  0
 38 37  2  0
 39 38  1  0
 40 39  1  0
 42 43  1  0
 43 46  1  0
 43 45  1  0
 44 42  2  0
 47 22  1  0
 47 48  1  0
 49 47  1  0
 51 50  1  0
 51 53  1  0
 52 51  2  0
 54 53  1  0
 55 66  2  0
 56 54  1  0
 56 61  1  0
 57 65  1  0
 57 67  1  0
 58 64  1  0
 58 60  1  0
 59 65  1  0
 60 61  2  0
 60 59  1  0
 62 56  2  0
 63 62  1  0
 63 58  2  0
 64 57  1  0
 65 55  1  0
 67 69  2  0
 68 67  1  0
 70 68  1  0
 71 80  2  0
 71 76  1  0
 72 68  1  0
 72 76  1  0
 73 72  1  0
 74 75  1  0
 74 73  1  0
 75 71  1  0
 76 77  2  0
 77 78  1  0
 79 78  2  0
 80 79  1  0
 81 55  1  0
 81 86  1  0
 81 82  1  0
 82 85  1  1
 82 83  1  0
 84 82  1  0
 86 89  1  0
 87 91  1  0
 87 86  1  0
 88 87  2  0
 91 90  1  0
 93 91  1  0
 93 94  1  0
 93 92  1  0
M  ISO  4  12 100  20 100  53 101  54 101
M  END
>  <TORSDO>  (96) 
F 20

>  <SCORE>  (96) 
-13.295

>  <name>  (96) 
96

>  <ligand_id>  (96) 
96

>  <original_smiles>  (96) 
[H]c1oc(C(N([H])[H])=[N+]([H])C([H])([H])C(=O)C([H])([H])Oc2c([H])c([H])c3c(c2[H])C([H])([H])N(C(=O)C([H])(N([H])C(=O)C([H])(N([H])C([H])([H])[H])C([H])([H])[H])C(C([H])([H])[H])(C([H])([H])[H])C([H])([H])[H])C([H])(C(=O)N([H])C2([H])c4c([H])c([H])c([H])c([H])c4C([H])([H])C([H])([H])C2([H])[H])C3([H])[H])c([H])c1N([H])C(=O)N1C([H])([H])C([H])([H])C([H])([H])C([H])(n2nc(-c3c([H])c([H])c(Oc4c([H])c([H])c(F)c([H])c4F)c([H])c3[H])c(C(=O)N([H])[H])c2N([H])[H])C1([H])[H]

>  <smiles>  (96) 
[H]c1oc(C(N([H])[H])=[N+]([H])C([H])([H])C(=O)C([H])([H])Oc2c([H])c([H])c3c(c2[H])C([H])([H])N(C(=O)C([H])(N([H])C(=O)C([H])(N([H])C([H])([H])[H])C([H])([H])[H])C(C([H])([H])[H])(C([H])([H])[H])C([H])([H])[H])C([H])(C(=O)N([H])C2([H])c4c([H])c([H])c([H])c([H])c4C([H])([H])C([H])([H])C2([H])[H])C3([H])[H])c([H])c1N([H])C(=O)N1C([H])([H])C([H])([H])C([H])([H])C([H])(n2nc(-c3c([H])c([H])c(Oc4c([H])c([H])c(F)c([H])c4F)c([H])c3[H])c(C(=O)N([H])[H])c2N([H])[H])C1([H])[H]

$$$$
97:0:0
     RDKit          3D

100108  0  0  1  0  0  0  0  0999 V2000
  -29.5940  -19.1960   19.1700 C   0  0  0  0  0  3  0  0  0  0  0  0
  -30.6040  -17.4090   18.0840 C   0  0  0  0  0  3  0  0  0  0  0  0
  -29.8610  -17.7330   19.1930 C   0  0  0  0  0  0  0  0  0  0  0  0
  -30.0000  -19.9580   18.0670 C   0  0  0  0  0  0  0  0  0  0  0  0
  -30.9200  -18.8390   17.0580 S   0  0  0  0  0  0  0  0  0  0  0  0
  -30.7060  -14.6880   21.4440 C   0  0  0  0  0  0  0  0  0  0  0  0
  -31.0940  -12.2100   21.8050 C   0  0  0  0  0  2  0  0  0  0  0  0
  -30.6640  -11.4410   20.5290 C   0  0  0  0  0  2  0  0  0  0  0  0
  -29.1460  -11.1600   20.5230 C   0  0  0  0  0  2  0  0  0  0  0  0
  -28.3170  -12.4100   20.9070 C   0  0  0  0  0  3  0  0  0  0  0  0
  -28.8840  -13.0810   22.1820 C   0  0  0  0  0  2  0  0  0  0  0  0
  -30.2830  -13.4500   21.9010 N   0  0  0  0  0  0  0  0  0  0  0  0
  -31.9140  -14.9360   21.3020 O   0  0  0  0  0  0  0  0  0  0  0  0
  -29.2410  -16.7670   20.2550 C   0  0  0  0  0  3  0  0  0  0  0  0
  -26.9690  -17.4060   19.6360 C   0  0  0  0  0  0  0  0  0  0  0  0
  -29.6020  -15.6230   21.0220 N   0  0  0  0  0  0  0  0  0  0  0  0
  -27.0140  -17.0540   18.3270 N   0  0  0  0  0  4  0  0  0  0  0  0
  -27.9440  -17.0600   20.5350 N   0  0  0  0  0  0  0  0  0  0  0  0
  -28.7230  -15.2430   21.3280 H   0  0  0  0  0  0  0  0  0  0  0  0
  -26.2140  -17.2780   17.7470 H   0  0  0  0  0  0  0  0  0  0  0  0
  -27.7510  -16.5320   17.8760 H   0  0  0  0  0  0  0  0  0  0  0  0
  -27.7080  -17.1650   21.5080 H   0  0  0  0  0  0  0  0  0  0  0  0
  -25.8100  -12.9470   20.7910 C   0  0  0  0  0  0  0  0  0  0  0  0
  -24.6950  -12.1730   20.9740 C   0  0  0  0  0  0  0  0  0  0  0  0
  -25.1740  -10.8710   21.3170 C   0  0  0  0  0  0  0  0  0  0  0  0
  -26.8930  -12.1140   21.0240 N   0  0  0  0  0  0  0  0  0  0  0  0
  -26.5000  -10.8720   21.4020 N   0  0  0  0  0  0  0  0  0  0  0  0
  -24.4490   -9.6070   21.5080 C   0  0  0  0  0  0  0  0  0  0  0  0
  -24.6340   -8.8200   22.6650 C   0  0  0  0  0  3  0  0  0  0  0  0
  -23.9140   -7.6170   22.8350 C   0  0  0  0  0  3  0  0  0  0  0  0
  -22.9960   -7.1940   21.8450 C   0  0  0  0  0  0  0  0  0  0  0  0
  -22.8340   -7.9710   20.6830 C   0  0  0  0  0  3  0  0  0  0  0  0
  -23.5560   -9.1640   20.5140 C   0  0  0  0  0  3  0  0  0  0  0  0
  -22.2710   -6.0290   21.9130 O   0  0  0  0  0  0  0  0  0  0  0  0
  -21.2910   -5.8470   22.8550 C   0  0  0  0  0  0  0  0  0  0  0  0
  -20.3980   -6.8810   23.2130 C   0  0  0  0  0  3  0  0  0  0  0  0
  -19.3610   -6.6310   24.1330 C   0  0  0  0  0  3  0  0  0  0  0  0
  -19.2090   -5.3470   24.6900 C   0  0  0  0  0  0  0  0  0  0  0  0
  -20.0940   -4.3140   24.3330 C   0  0  0  0  0  3  0  0  0  0  0  0
  -21.1300   -4.5640   23.4170 C   0  0  0  0  0  0  0  0  0  0  0  0
  -21.9660   -3.5590   23.0590 F   0  0  0  0  0  0  0  0  0  0  0  0
  -18.2090   -5.1040   25.5700 F   0  0  0  0  0  0  0  0  0  0  0  0
  -23.2730  -12.5890   20.7340 C   0  0  0  0  0  0  0  0  0  0  0  0
  -22.3220  -11.8770   21.3290 N   0  0  0  0  0  0  0  0  0  0  0  0
  -23.0030  -13.5770   20.0550 O   0  0  0  0  0  0  0  0  0  0  0  0
  -22.5500  -11.0780   21.9010 H   0  0  0  0  0  0  0  0  0  0  0  0
  -21.3540  -12.1340   21.2080 H   0  0  0  0  0  0  0  0  0  0  0  0
  -26.0010  -14.2770   20.4230 N   0  0  0  0  0  0  0  0  0  0  0  0
  -25.1610  -14.7250   20.0730 H   0  0  0  0  0  0  0  0  0  0  0  0
  -26.7770  -14.4460   19.7950 H   0  0  0  0  0  0  0  0  0  0  0  0
  -26.0180  -19.1540   21.2000 C   0  0  0  0  0  1  0  0  0  0  0  0
  -24.7520  -17.0160   20.6920 C   0  0  0  0  0  1  0  0  0  0  0  0
  -24.9710  -18.8220   18.9580 C   0  0  0  0  0  1  0  0  0  0  0  0
  -25.6890  -18.0970   20.1240 C   0  0  2  0  0  0  0  0  0  0  0  0
  -30.1400  -22.3380   16.9890 C   0  0  0  0  0  0  0  0  0  0  0  0
  -29.6320  -21.2940   17.7640 N   0  0  0  0  0  0  0  0  0  0  0  0
  -31.2850  -22.2950   16.5310 O   0  0  0  0  0  0  0  0  0  0  0  0
  -28.7340  -21.5480   18.1490 H   0  0  0  0  0  0  0  0  0  0  0  0
  -29.1940  -23.6120   16.6560 C   0  0  0  0  0  2  0  0  0  0  0  0
  -29.5030  -25.0270   17.1280 O   0  0  0  0  0  0  0  0  0  0  0  0
  -25.2710  -28.3960   22.0810 C   0  0  0  0  0  0  0  0  0  0  0  0
  -28.4080  -25.8930   17.4410 C   0  0  0  0  0  0  0  0  0  0  0  0
  -24.3760  -28.1720   19.7930 C   0  0  0  0  0  3  0  0  0  0  0  0
  -26.0620  -27.4920   17.9950 C   0  0  0  0  0  0  0  0  0  0  0  0
  -26.9160  -28.3140   20.1830 C   0  0  0  0  0  2  0  0  0  0  0  0
  -27.1210  -27.4800   18.9130 C   0  0  0  0  0  0  0  0  0  0  0  0
  -28.2950  -26.6980   18.6340 C   0  0  0  0  0  3  0  0  0  0  0  0
  -27.3140  -25.9840   16.5470 C   0  0  0  0  0  3  0  0  0  0  0  0
  -26.1640  -26.7500   16.8150 C   0  0  0  0  0  3  0  0  0  0  0  0
  -24.8310  -28.3120   18.3190 C   0  0  0  0  0  2  0  0  0  0  0  0
  -25.5300  -28.2810   20.7440 N   0  0  0  0  0  0  0  0  0  0  0  0
  -24.1080  -28.4380   22.5140 O   0  0  0  0  0  0  0  0  0  0  0  0
  -23.5710  -26.8590   19.9580 C   0  0  0  0  0  0  0  0  0  0  0  0
  -22.3180  -26.8450   19.4650 N   0  0  0  0  0  0  0  0  0  0  0  0
  -24.0780  -25.8740   20.5010 O   0  0  0  0  0  0  0  0  0  0  0  0
  -21.9600  -27.6990   19.0580 H   0  0  0  0  0  0  0  0  0  0  0  0
  -18.9810  -25.7600   18.5670 C   0  0  0  0  0  0  0  0  0  0  0  0
  -21.4080  -25.6950   19.4620 C   0  0  0  0  0  3  0  0  0  0  0  0
  -21.7080  -24.7500   18.2760 C   0  0  0  0  0  2  0  0  0  0  0  0
  -20.8580  -25.0440   17.0320 C   0  0  0  0  0  2  0  0  0  0  0  0
  -19.3680  -24.9220   17.3590 C   0  0  0  0  0  2  0  0  0  0  0  0
  -19.9410  -26.1340   19.5460 C   0  0  0  0  0  0  0  0  0  0  0  0
  -19.5320  -26.9430   20.6290 C   0  0  0  0  0  3  0  0  0  0  0  0
  -18.1960  -27.3700   20.7470 C   0  0  0  0  0  3  0  0  0  0  0  0
  -17.2500  -26.9830   19.7830 C   0  0  0  0  0  3  0  0  0  0  0  0
  -17.6410  -26.1750   18.7000 C   0  0  0  0  0  3  0  0  0  0  0  0
  -26.4230  -28.5040   23.1290 C   0  0  0  0  0  3  0  0  0  0  0  0
  -26.3060  -27.4440   24.2930 C   0  0  1  0  0  0  0  0  0  0  0  0
  -24.9140  -27.4080   24.9650 C   0  0  0  0  0  1  0  0  0  0  0  0
  -26.6090  -26.0180   23.7740 C   0  0  0  0  0  1  0  0  0  0  0  0
  -27.3600  -27.7440   25.3820 C   0  0  0  0  0  1  0  0  0  0  0  0
  -26.4050  -29.8710   23.6720 N   0  0  0  0  0  0  0  0  0  0  0  0
  -27.3240  -30.8070   23.4060 C   0  0  0  0  0  0  0  0  0  0  0  0
  -28.3230  -30.5860   22.7170 O   0  0  0  0  0  0  0  0  0  0  0  0
  -25.5870  -30.1360   24.2010 H   0  0  0  0  0  0  0  0  0  0  0  0
  -26.7450  -33.1950   22.8700 C   0  0  0  0  0  1  0  0  0  0  0  0
  -27.1010  -32.2130   23.9970 C   0  0  0  0  0  3  0  0  0  0  0  0
  -28.4940  -32.0190   26.0090 C   0  0  0  0  0  1  0  0  0  0  0  0
  -28.2640  -32.7280   24.7530 N   0  0  0  0  0  0  0  0  0  0  0  0
  -28.1500  -33.7150   24.9620 H   0  0  0  0  0  0  0  0  0  0  0  0
  1  3  1  0
  2  3  2  0
  3 14  1  0
  4  1  2  0
  5  4  1  0
  5  2  1  0
  6 12  1  0
  7 12  1  0
  8  7  1  0
  9  8  1  0
 10  9  1  0
 10 26  1  0
 10 11  1  0
 12 11  1  0
 13  6  2  0
 14 18  1  0
 14 16  1  0
 15 54  1  0
 15 18  1  0
 16 19  1  0
 16  6  1  0
 17 15  2  0
 18 22  1  0
 20 17  1  0
 21 17  1  0
 23 24  2  0
 23 26  1  0
 24 25  1  0
 25 27  2  0
 25 28  1  0
 26 27  1  0
 28 29  1  0
 29 30  2  0
 31 34  1  0
 31 30  1  0
 32 31  2  0
 33 32  1  0
 33 28  2  0
 34 35  1  0
 35 36  2  0
 35 40  1  0
 36 37  1  0
 37 38  2  0
 38 42  1  0
 39 38  1  0
 40 39  2  0
 41 40  1  0
 43 24  1  0
 43 44  1  0
 44 46  1  0
 45 43  2  0
 47 44  1  0
 48 23  1  0
 49 48  1  0
 50 48  1  0
 54 53  1  6
 54 52  1  0
 54 51  1  0
 55 56  1  0
 56  4  1  0
 56 58  1  0
 57 55  2  0
 59 55  1  0
 59 60  1  0
 60 62  1  0
 61 72  2  0
 62 67  1  0
 63 73  1  0
 63 71  1  0
 64 70  1  0
 64 66  1  0
 65 71  1  0
 66 65  1  0
 67 66  2  0
 68 69  1  0
 68 62  2  0
 69 64  2  0
 70 63  1  0
 71 61  1  0
 73 75  2  0
 74 73  1  0
 76 74  1  0
 77 86  2  0
 77 82  1  0
 78 74  1  0
 78 82  1  0
 79 78  1  0
 80 81  1  0
 80 79  1  0
 81 77  1  0
 82 83  2  0
 83 84  1  0
 85 84  2  0
 86 85  1  0
 87 61  1  0
 87 92  1  0
 87 88  1  0
 88 89  1  1
 88 91  1  0
 90 88  1  0
 92 95  1  0
 93 92  1  0
 93 97  1  0
 94 93  2  0
 97 96  1  0
 97 99  1  0
 99100  1  0
 99 98  1  0
M  ISO  4   6 100  16 100  59 101  60 101
M  END
>  <TORSDO>  (97) 
F 19

>  <SCORE>  (97) 
-1.220

>  <name>  (97) 
97

>  <ligand_id>  (97) 
97

>  <original_smiles>  (97) 
[H]c1sc(N([H])C(=O)C([H])([H])Oc2c([H])c([H])c3c(c2[H])C([H])([H])N(C(=O)C([H])(N([H])C(=O)C([H])(N([H])C([H])([H])[H])C([H])([H])[H])C(C([H])([H])[H])(C([H])([H])[H])C([H])([H])[H])C([H])(C(=O)N([H])C2([H])c4c([H])c([H])c([H])c([H])c4C([H])([H])C([H])([H])C2([H])[H])C3([H])[H])c([H])c1C(N([H])C(=[N+]([H])[H])C(C([H])([H])[H])(C([H])([H])[H])C([H])([H])[H])=[N+]([H])C(=O)N1C([H])([H])C([H])([H])C([H])([H])C([H])(n2nc(-c3c([H])c([H])c(Oc4c([H])c([H])c(F)c([H])c4F)c([H])c3[H])c(C(=O)N([H])[H])c2N([H])[H])C1([H])[H]

>  <smiles>  (97) 
[H]c1sc(N([H])C(=O)C([H])([H])Oc2c([H])c([H])c3c(c2[H])C([H])([H])N(C(=O)C([H])(N([H])C(=O)C([H])(N([H])C([H])([H])[H])C([H])([H])[H])C(C([H])([H])[H])(C([H])([H])[H])C([H])([H])[H])C([H])(C(=O)N([H])C2([H])c4c([H])c([H])c([H])c([H])c4C([H])([H])C([H])([H])C2([H])[H])C3([H])[H])c([H])c1C(N([H])C(=[N+]([H])[H])C(C([H])([H])[H])(C([H])([H])[H])C([H])([H])[H])=[N+]([H])C(=O)N1C([H])([H])C([H])([H])C([H])([H])C([H])(n2nc(-c3c([H])c([H])c(Oc4c([H])c([H])c(F)c([H])c4F)c([H])c3[H])c(C(=O)N([H])[H])c2N([H])[H])C1([H])[H]

$$$$
98:0:0
     RDKit          3D

 97105  0  0  1  0  0  0  0  0999 V2000
  -28.9540  -20.2420   20.4440 C   0  0  0  0  0  3  0  0  0  0  0  0
  -31.0100  -18.9820   21.6970 C   0  0  0  0  0  3  0  0  0  0  0  0
  -29.0760  -18.7920   20.3930 C   0  0  0  0  0  0  0  0  0  0  0  0
  -30.1230  -18.0480   21.0640 C   0  0  0  0  0  0  0  0  0  0  0  0
  -29.8560  -21.0990   21.1390 C   0  0  0  0  0  0  0  0  0  0  0  0
  -29.2280  -23.7520   20.6410 C   0  0  0  0  0  0  0  0  0  0  0  0
  -30.8710  -20.3790   21.7450 N   0  0  0  0  0  0  0  0  0  0  0  0
  -29.6080  -22.5950   21.3800 N   0  0  0  0  0  0  0  0  0  0  0  0
  -29.2230  -23.7150   19.4080 O   0  0  0  0  0  0  0  0  0  0  0  0
  -29.7530  -22.8430   22.3460 H   0  0  0  0  0  0  0  0  0  0  0  0
  -30.9790  -15.3790   21.1920 C   0  0  0  0  0  0  0  0  0  0  0  0
  -31.0300  -13.0130   20.2640 C   0  0  0  0  0  2  0  0  0  0  0  0
  -30.2710  -12.9590   18.9150 C   0  0  0  0  0  2  0  0  0  0  0  0
  -28.7600  -12.7510   19.1340 C   0  0  0  0  0  2  0  0  0  0  0  0
  -28.1910  -13.6690   20.2460 C   0  0  0  0  0  3  0  0  0  0  0  0
  -29.0820  -13.6760   21.5070 C   0  0  0  0  0  2  0  0  0  0  0  0
  -30.4270  -14.1010   21.0840 N   0  0  0  0  0  0  0  0  0  0  0  0
  -32.2050  -15.4860   21.0890 O   0  0  0  0  0  0  0  0  0  0  0  0
  -30.1020  -16.5030   21.1860 N   0  0  0  0  0  0  0  0  0  0  0  0
  -29.1590  -16.1500   21.1940 H   0  0  0  0  0  0  0  0  0  0  0  0
  -25.7070  -14.2340   20.5430 C   0  0  0  0  0  0  0  0  0  0  0  0
  -24.6100  -13.4630   20.7900 C   0  0  0  0  0  0  0  0  0  0  0  0
  -25.0940  -12.1270   20.9290 C   0  0  0  0  0  0  0  0  0  0  0  0
  -26.7930  -13.3740   20.5410 N   0  0  0  0  0  0  0  0  0  0  0  0
  -26.4200  -12.1020   20.8390 N   0  0  0  0  0  0  0  0  0  0  0  0
  -24.3640  -10.8670   21.0880 C   0  0  0  0  0  0  0  0  0  0  0  0
  -24.6990   -9.9420   22.1010 C   0  0  0  0  0  3  0  0  0  0  0  0
  -23.9630   -8.7460   22.2480 C   0  0  0  0  0  3  0  0  0  0  0  0
  -22.8820   -8.4670   21.3790 C   0  0  0  0  0  0  0  0  0  0  0  0
  -22.5660   -9.3820   20.3580 C   0  0  0  0  0  3  0  0  0  0  0  0
  -23.3030  -10.5680   20.2090 C   0  0  0  0  0  3  0  0  0  0  0  0
  -22.1270   -7.3200   21.4320 O   0  0  0  0  0  0  0  0  0  0  0  0
  -21.9680   -6.6180   22.5990 C   0  0  0  0  0  0  0  0  0  0  0  0
  -21.4310   -7.2150   23.7600 C   0  0  0  0  0  3  0  0  0  0  0  0
  -21.2170   -6.4380   24.9160 C   0  0  0  0  0  3  0  0  0  0  0  0
  -21.5330   -5.0660   24.9110 C   0  0  0  0  0  0  0  0  0  0  0  0
  -22.0670   -4.4710   23.7550 C   0  0  0  0  0  3  0  0  0  0  0  0
  -22.2800   -5.2440   22.6000 C   0  0  0  0  0  0  0  0  0  0  0  0
  -22.7720   -4.6600   21.4830 F   0  0  0  0  0  0  0  0  0  0  0  0
  -21.3220   -4.3190   26.0200 F   0  0  0  0  0  0  0  0  0  0  0  0
  -23.1820  -13.9250   20.7960 C   0  0  0  0  0  0  0  0  0  0  0  0
  -22.3410  -13.2920   21.6040 N   0  0  0  0  0  0  0  0  0  0  0  0
  -22.8190  -14.8890   20.1210 O   0  0  0  0  0  0  0  0  0  0  0  0
  -22.6480  -12.5160   22.1720 H   0  0  0  0  0  0  0  0  0  0  0  0
  -21.3760  -13.5850   21.6570 H   0  0  0  0  0  0  0  0  0  0  0  0
  -25.8500  -15.5910   20.2940 N   0  0  0  0  0  0  0  0  0  0  0  0
  -25.0390  -16.1920   20.2060 H   0  0  0  0  0  0  0  0  0  0  0  0
  -26.6910  -16.0060   19.9260 H   0  0  0  0  0  0  0  0  0  0  0  0
  -27.3510  -24.8850   21.9520 C   0  0  0  0  0  1  0  0  0  0  0  0
  -29.7020  -25.5070   22.5130 C   0  0  0  0  0  1  0  0  0  0  0  0
  -28.7420  -25.1840   21.3560 C   0  0  1  0  0  0  0  0  0  0  0  0
  -28.7210  -26.5510   20.5930 O   0  0  0  0  0  0  0  0  0  0  0  0
  -24.7600  -32.1010   23.5100 C   0  0  0  0  0  0  0  0  0  0  0  0
  -27.6190  -27.4850   20.5940 C   0  0  0  0  0  0  0  0  0  0  0  0
  -23.6650  -30.6410   21.8530 C   0  0  0  0  0  3  0  0  0  0  0  0
  -25.2170  -29.1200   20.4830 C   0  0  0  0  0  0  0  0  0  0  0  0
  -26.2080  -31.0150   21.7550 C   0  0  0  0  0  2  0  0  0  0  0  0
  -26.3580  -29.6220   21.1240 C   0  0  0  0  0  0  0  0  0  0  0  0
  -27.5610  -28.8190   21.1670 C   0  0  0  0  0  3  0  0  0  0  0  0
  -26.4580  -27.0930   19.8950 C   0  0  0  0  0  3  0  0  0  0  0  0
  -25.2800  -27.8690   19.8510 C   0  0  0  0  0  3  0  0  0  0  0  0
  -23.9500  -29.9600   20.4890 C   0  0  0  0  0  2  0  0  0  0  0  0
  -24.8950  -31.2750   22.4280 N   0  0  0  0  0  0  0  0  0  0  0  0
  -23.6490  -32.3450   24.0060 O   0  0  0  0  0  0  0  0  0  0  0  0
  -23.0010  -29.6170   22.8060 C   0  0  0  0  0  0  0  0  0  0  0  0
  -21.7040  -29.3300   22.5900 N   0  0  0  0  0  0  0  0  0  0  0  0
  -23.6570  -29.0790   23.7020 O   0  0  0  0  0  0  0  0  0  0  0  0
  -21.2280  -29.8180   21.8450 H   0  0  0  0  0  0  0  0  0  0  0  0
  -18.4110  -27.8490   22.8790 C   0  0  0  0  0  0  0  0  0  0  0  0
  -20.9060  -28.3540   23.3370 C   0  0  0  0  0  3  0  0  0  0  0  0
  -21.1800  -26.9150   22.8420 C   0  0  0  0  0  2  0  0  0  0  0  0
  -20.1980  -26.4510   21.7610 C   0  0  0  0  0  2  0  0  0  0  0  0
  -18.7600  -26.4960   22.2840 C   0  0  0  0  0  2  0  0  0  0  0  0
  -19.4180  -28.7290   23.3580 C   0  0  0  0  0  0  0  0  0  0  0  0
  -19.0380  -29.9900   23.8680 C   0  0  0  0  0  3  0  0  0  0  0  0
  -17.6830  -30.3710   23.9080 C   0  0  0  0  0  3  0  0  0  0  0  0
  -16.6900  -29.4900   23.4450 C   0  0  0  0  0  3  0  0  0  0  0  0
  -17.0540  -28.2300   22.9370 C   0  0  0  0  0  3  0  0  0  0  0  0
  -25.9930  -32.7930   24.1680 C   0  0  0  0  0  3  0  0  0  0  0  0
  -26.4410  -32.1100   25.5180 C   0  0  1  0  0  0  0  0  0  0  0  0
  -25.2710  -31.8290   26.4910 C   0  0  0  0  0  1  0  0  0  0  0  0
  -27.1580  -30.7660   25.2460 C   0  0  0  0  0  1  0  0  0  0  0  0
  -27.4640  -33.0140   26.2460 C   0  0  0  0  0  1  0  0  0  0  0  0
  -25.6470  -34.2050   24.4000 N   0  0  0  0  0  0  0  0  0  0  0  0
  -26.0070  -35.2200   23.6030 C   0  0  0  0  0  0  0  0  0  0  0  0
  -26.7320  -35.0680   22.6150 O   0  0  0  0  0  0  0  0  0  0  0  0
  -25.0120  -34.3960   25.1610 H   0  0  0  0  0  0  0  0  0  0  0  0
  -24.2830  -36.9670   23.0580 C   0  0  0  0  0  1  0  0  0  0  0  0
  -25.4810  -36.6240   23.9570 C   0  0  0  0  0  3  0  0  0  0  0  0
  -27.5530  -37.5870   24.8570 C   0  0  0  0  0  1  0  0  0  0  0  0
  -26.5060  -37.6860   23.8420 N   0  0  0  0  0  0  0  0  0  0  0  0
  -26.0780  -38.6040   23.9160 H   0  0  0  0  0  0  0  0  0  0  0  0
  -27.9770  -18.0430   19.6440 C   0  0  0  0  0  2  0  0  0  0  0  0
  -29.3920  -18.4910   17.5100 C   0  0  0  0  0  1  0  0  0  0  0  0
  -28.2470  -16.2870   17.8240 C   0  0  0  0  0  1  0  0  0  0  0  0
  -26.9020  -18.3290   17.3730 C   0  0  0  0  0  1  0  0  0  0  0  0
  -28.1500  -17.8000   18.1090 C   0  0  1  0  0  0  0  0  0  0  0  0
  1  5  1  0
  2  7  1  0
  3  1  2  0
  3  4  1  0
  4 19  1  0
  4  2  2  0
  5  8  1  0
  5  7  2  0
  6 51  1  0
  6  8  1  0
  8 10  1  0
  9  6  2  0
 12 17  1  0
 13 14  1  0
 13 12  1  0
 15 14  1  0
 15 24  1  0
 15 16  1  0
 17 11  1  0
 17 16  1  0
 18 11  2  0
 19 11  1  0
 19 20  1  0
 21 22  2  0
 22 41  1  0
 22 23  1  0
 23 26  1  0
 24 21  1  0
 24 25  1  0
 25 23  2  0
 26 27  1  0
 27 28  2  0
 29 32  1  0
 29 28  1  0
 30 29  2  0
 31 30  1  0
 31 26  2  0
 32 33  1  0
 33 38  2  0
 33 34  1  0
 34 35  2  0
 36 35  1  0
 36 40  1  0
 37 36  2  0
 38 37  1  0
 39 38  1  0
 41 42  1  0
 42 45  1  0
 42 44  1  0
 43 41  2  0
 46 21  1  0
 47 46  1  0
 48 46  1  0
 51 49  1  1
 51 50  1  0
 52 54  1  0
 52 51  1  0
 53 64  2  0
 54 59  1  0
 55 63  1  0
 55 65  1  0
 56 62  1  0
 56 58  1  0
 57 63  1  0
 58 59  2  0
 58 57  1  0
 60 54  2  0
 61 60  1  0
 61 56  2  0
 62 55  1  0
 63 53  1  0
 65 67  2  0
 66 65  1  0
 68 66  1  0
 69 78  2  0
 69 74  1  0
 70 66  1  0
 70 74  1  0
 71 70  1  0
 72 73  1  0
 72 71  1  0
 73 69  1  0
 74 75  2  0
 75 76  1  0
 77 76  2  0
 78 77  1  0
 79 53  1  0
 79 84  1  0
 79 80  1  0
 80 83  1  1
 80 81  1  0
 82 80  1  0
 84 87  1  0
 85 89  1  0
 85 84  1  0
 86 85  2  0
 89 88  1  0
 91 92  1  0
 91 89  1  0
 91 90  1  0
 93  3  1  0
 97 94  1  6
 95 97  1  0
 96 97  1  0
 97 93  1  0
M  ISO  4  11 100  19 100  51 101  52 101
M  END
>  <TORSDO>  (98) 
F 19

>  <SCORE>  (98) 
-10.876

>  <name>  (98) 
98

>  <ligand_id>  (98) 
98

>  <original_smiles>  (98) 
[H]c1nc(N([H])C(=O)C(Oc2c([H])c([H])c3c(c2[H])C([H])([H])N(C(=O)C([H])(N([H])C(=O)C([H])(N([H])C([H])([H])[H])C([H])([H])[H])C(C([H])([H])[H])(C([H])([H])[H])C([H])([H])[H])C([H])(C(=O)N([H])C2([H])c4c([H])c([H])c([H])c([H])c4C([H])([H])C([H])([H])C2([H])[H])C3([H])[H])(C([H])([H])[H])C([H])([H])[H])c([H])c(C([H])([H])C(C([H])([H])[H])(C([H])([H])[H])C([H])([H])[H])c1N([H])C(=O)N1C([H])([H])C([H])([H])C([H])([H])C([H])(n2nc(-c3c([H])c([H])c(Oc4c([H])c([H])c(F)c([H])c4F)c([H])c3[H])c(C(=O)N([H])[H])c2N([H])[H])C1([H])[H]

>  <smiles>  (98) 
[H]c1nc(N([H])C(=O)C(Oc2c([H])c([H])c3c(c2[H])C([H])([H])N(C(=O)C([H])(N([H])C(=O)C([H])(N([H])C([H])([H])[H])C([H])([H])[H])C(C([H])([H])[H])(C([H])([H])[H])C([H])([H])[H])C([H])(C(=O)N([H])C2([H])c4c([H])c([H])c([H])c([H])c4C([H])([H])C([H])([H])C2([H])[H])C3([H])[H])(C([H])([H])[H])C([H])([H])[H])c([H])c(C([H])([H])C(C([H])([H])[H])(C([H])([H])[H])C([H])([H])[H])c1N([H])C(=O)N1C([H])([H])C([H])([H])C([H])([H])C([H])(n2nc(-c3c([H])c([H])c(Oc4c([H])c([H])c(F)c([H])c4F)c([H])c3[H])c(C(=O)N([H])[H])c2N([H])[H])C1([H])[H]

$$$$
