0:0:0
     RDKit          3D

 98107  0  0  1  0  0  0  0  0999 V2000
  -28.8940  -23.9800   20.9960 C   0  0  0  0  0  0  0  0  0  0  0  0
  -29.3750  -22.6590   20.9910 C   0  0  0  0  0  0  0  0  0  0  0  0
  -29.7910  -23.5630   18.2240 C   0  0  0  0  0  0  0  0  0  0  0  0
  -28.6530  -24.5610   18.3980 C   0  0  0  0  0  2  0  0  0  0  0  0
  -29.4450  -22.0980   18.5100 C   0  0  0  0  0  2  0  0  0  0  0  0
  -28.3370  -24.9430   19.8600 C   0  0  0  0  0  3  0  0  0  0  0  0
  -28.8110  -24.7650   22.3080 C   0  0  0  0  0  1  0  0  0  0  0  0
  -29.9020  -22.0860   22.3130 C   0  0  0  0  0  1  0  0  0  0  0  0
  -29.5570  -21.7040   19.9230 N   0  0  0  0  0  0  0  0  0  0  0  0
  -30.9240  -23.9160   17.8800 O   0  0  0  0  0  0  0  0  0  0  0  0
  -30.7720  -19.5280   19.3680 C   0  0  0  0  0  3  0  0  0  0  0  0
  -30.9150  -18.0980   19.4310 C   0  0  0  0  0  3  0  0  0  0  0  0
  -28.8380  -19.4190   20.7610 C   0  0  0  0  0  3  0  0  0  0  0  0
  -29.7280  -20.2530   20.0260 C   0  0  0  0  0  0  0  0  0  0  0  0
  -30.0060  -17.2770   20.1540 C   0  0  0  0  0  0  0  0  0  0  0  0
  -28.9670  -17.9900   20.8220 C   0  0  0  0  0  0  0  0  0  0  0  0
  -30.7210  -14.7730   19.6490 C   0  0  0  0  0  0  0  0  0  0  0  0
  -30.4050  -12.5640   18.5240 C   0  0  0  0  0  2  0  0  0  0  0  0
  -29.3140  -12.7250   17.4410 C   0  0  0  0  0  2  0  0  0  0  0  0
  -27.9100  -12.5240   18.0450 C   0  0  0  0  0  2  0  0  0  0  0  0
  -27.7050  -13.3320   19.3550 C   0  0  0  0  0  3  0  0  0  0  0  0
  -28.8970  -13.1420   20.3210 C   0  0  0  0  0  2  0  0  0  0  0  0
  -30.1180  -13.5370   19.6020 N   0  0  0  0  0  0  0  0  0  0  0  0
  -31.8180  -14.9560   19.1120 O   0  0  0  0  0  0  0  0  0  0  0  0
  -29.9810  -15.7970   20.2050 N   0  0  0  0  0  0  0  0  0  0  0  0
  -29.1670  -15.4560   20.6930 H   0  0  0  0  0  0  0  0  0  0  0  0
  -25.4380  -13.8920   20.4260 C   0  0  0  0  0  0  0  0  0  0  0  0
  -24.4140  -13.1010   20.8720 C   0  0  0  0  0  0  0  0  0  0  0  0
  -24.8450  -11.7530   20.6830 C   0  0  0  0  0  0  0  0  0  0  0  0
  -26.4270  -13.0230   19.9920 N   0  0  0  0  0  0  0  0  0  0  0  0
  -26.0850  -11.7270   20.2060 N   0  0  0  0  0  0  0  0  0  0  0  0
  -24.1280  -10.4850   20.8770 C   0  0  0  0  0  0  0  0  0  0  0  0
  -24.5580   -9.5310   21.8240 C   0  0  0  0  0  3  0  0  0  0  0  0
  -23.8430   -8.3280   22.0060 C   0  0  0  0  0  3  0  0  0  0  0  0
  -22.6810   -8.0720   21.2390 C   0  0  0  0  0  0  0  0  0  0  0  0
  -22.2700   -9.0160   20.2810 C   0  0  0  0  0  3  0  0  0  0  0  0
  -22.9880  -10.2090   20.0980 C   0  0  0  0  0  3  0  0  0  0  0  0
  -21.9370   -6.9200   21.3290 O   0  0  0  0  0  0  0  0  0  0  0  0
  -21.7280   -6.2890   22.5290 C   0  0  0  0  0  0  0  0  0  0  0  0
  -21.1180   -6.9450   23.6190 C   0  0  0  0  0  3  0  0  0  0  0  0
  -20.8600   -6.2380   24.8120 C   0  0  0  0  0  3  0  0  0  0  0  0
  -21.2010   -4.8760   24.9110 C   0  0  0  0  0  0  0  0  0  0  0  0
  -21.8040   -4.2190   23.8220 C   0  0  0  0  0  3  0  0  0  0  0  0
  -22.0630   -4.9240   22.6350 C   0  0  0  0  0  0  0  0  0  0  0  0
  -22.6240   -4.2820   21.5820 F   0  0  0  0  0  0  0  0  0  0  0  0
  -20.9470   -4.1930   26.0520 F   0  0  0  0  0  0  0  0  0  0  0  0
  -23.0740  -13.5680   21.3600 C   0  0  0  0  0  0  0  0  0  0  0  0
  -22.4640  -12.8280   22.2800 N   0  0  0  0  0  0  0  0  0  0  0  0
  -22.5810  -14.6220   20.9610 O   0  0  0  0  0  0  0  0  0  0  0  0
  -22.8770  -11.9740   22.6230 H   0  0  0  0  0  0  0  0  0  0  0  0
  -21.5700  -13.1220   22.6470 H   0  0  0  0  0  0  0  0  0  0  0  0
  -25.6030  -15.2700   20.3420 N   0  0  0  0  0  0  0  0  0  0  0  0
  -24.8950  -15.9120   20.6780 H   0  0  0  0  0  0  0  0  0  0  0  0
  -26.4650  -15.7370   20.0860 H   0  0  0  0  0  0  0  0  0  0  0  0
  -28.0330  -17.2560   21.5580 N   0  0  0  0  0  0  0  0  0  0  0  0
  -27.4320  -17.7850   22.1810 H   0  0  0  0  0  0  0  0  0  0  0  0
  -28.3720  -16.4160   22.0110 H   0  0  0  0  0  0  0  0  0  0  0  0
  -28.5060  -26.4300   20.0700 O   0  0  0  0  0  0  0  0  0  0  0  0
  -24.7530  -31.7470   23.2320 C   0  0  0  0  0  0  0  0  0  0  0  0
  -27.3980  -27.3070   20.0090 C   0  0  0  0  0  0  0  0  0  0  0  0
  -23.5690  -30.4260   21.5150 C   0  0  0  0  0  3  0  0  0  0  0  0
  -25.0380  -28.9460   20.0290 C   0  0  0  0  0  0  0  0  0  0  0  0
  -26.1110  -30.7500   21.3750 C   0  0  0  0  0  2  0  0  0  0  0  0
  -26.2000  -29.3990   20.6670 C   0  0  0  0  0  0  0  0  0  0  0  0
  -27.3800  -28.5920   20.6470 C   0  0  0  0  0  3  0  0  0  0  0  0
  -26.2180  -26.9310   19.3250 C   0  0  0  0  0  3  0  0  0  0  0  0
  -25.0520  -27.7210   19.3460 C   0  0  0  0  0  3  0  0  0  0  0  0
  -23.8000  -29.8160   20.1050 C   0  0  0  0  0  2  0  0  0  0  0  0
  -24.8290  -30.9920   22.0970 N   0  0  0  0  0  0  0  0  0  0  0  0
  -23.6630  -31.9970   23.7680 O   0  0  0  0  0  0  0  0  0  0  0  0
  -22.8980  -29.3650   22.4190 C   0  0  0  0  0  0  0  0  0  0  0  0
  -21.5730  -29.1920   22.2740 N   0  0  0  0  0  0  0  0  0  0  0  0
  -23.5690  -28.7040   23.2160 O   0  0  0  0  0  0  0  0  0  0  0  0
  -21.0890  -29.7790   21.6080 H   0  0  0  0  0  0  0  0  0  0  0  0
  -18.1860  -27.9990   22.7180 C   0  0  0  0  0  0  0  0  0  0  0  0
  -20.7480  -28.2190   22.9920 C   0  0  0  0  0  3  0  0  0  0  0  0
  -20.8340  -26.8220   22.3350 C   0  0  0  0  0  2  0  0  0  0  0  0
  -19.7270  -26.5700   21.3070 C   0  0  0  0  0  2  0  0  0  0  0  0
  -18.3480  -26.6920   21.9610 C   0  0  0  0  0  2  0  0  0  0  0  0
  -19.3130  -28.7240   23.1870 C   0  0  0  0  0  0  0  0  0  0  0  0
  -19.1070  -29.9520   23.8540 C   0  0  0  0  0  3  0  0  0  0  0  0
  -17.8070  -30.4540   24.0530 C   0  0  0  0  0  3  0  0  0  0  0  0
  -16.6940  -29.7240   23.6000 C   0  0  0  0  0  3  0  0  0  0  0  0
  -16.8850  -28.4980   22.9380 C   0  0  0  0  0  3  0  0  0  0  0  0
  -26.0260  -32.3530   23.8960 C   0  0  0  0  0  3  0  0  0  0  0  0
  -25.7120  -33.7360   24.2840 N   0  0  0  0  0  0  0  0  0  0  0  0
  -26.0260  -34.8190   23.5620 C   0  0  0  0  0  0  0  0  0  0  0  0
  -26.6780  -34.7610   22.5160 O   0  0  0  0  0  0  0  0  0  0  0  0
  -25.1330  -33.8560   25.1020 H   0  0  0  0  0  0  0  0  0  0  0  0
  -24.2780  -36.6090   23.3080 C   0  0  0  0  0  1  0  0  0  0  0  0
  -25.5370  -36.1850   24.0810 C   0  0  0  0  0  3  0  0  0  0  0  0
  -27.6750  -37.0580   24.9130 C   0  0  0  0  0  1  0  0  0  0  0  0
  -26.5580  -37.2510   23.9920 N   0  0  0  0  0  0  0  0  0  0  0  0
  -26.1460  -38.1610   24.1800 H   0  0  0  0  0  0  0  0  0  0  0  0
  -26.5260  -31.5300   25.1460 C   0  0  1  0  0  0  0  0  0  0  0  0
  -25.4160  -31.2380   26.1840 C   0  0  0  0  0  1  0  0  0  0  0  0
  -27.1240  -30.1740   24.7030 C   0  0  0  0  0  1  0  0  0  0  0  0
  -27.6620  -32.2990   25.8630 C   0  0  0  0  0  1  0  0  0  0  0  0
  1  7  1  0
  2  1  2  0
  2  8  1  0
  3  4  1  0
  3  5  1  0
  4  6  1  0
  5  9  1  0
  6 58  1  0
  6  1  1  0
  9 14  1  0
  9  2  1  0
 10  3  2  0
 11 12  2  0
 11 14  1  0
 12 15  1  0
 13 16  1  0
 14 13  2  0
 15 25  1  0
 15 16  2  0
 16 55  1  0
 17 25  1  0
 18 23  1  0
 19 20  1  0
 19 18  1  0
 21 20  1  0
 21 30  1  0
 21 22  1  0
 23 17  1  0
 23 22  1  0
 24 17  2  0
 25 26  1  0
 27 28  2  0
 28 47  1  0
 29 28  1  0
 29 32  1  0
 30 31  1  0
 30 27  1  0
 31 29  2  0
 32 33  1  0
 33 34  2  0
 35 38  1  0
 35 34  1  0
 36 35  2  0
 37 36  1  0
 37 32  2  0
 38 39  1  0
 39 44  2  0
 39 40  1  0
 40 41  2  0
 41 42  1  0
 42 46  1  0
 43 42  2  0
 44 43  1  0
 45 44  1  0
 47 48  1  0
 48 50  1  0
 48 51  1  0
 49 47  2  0
 52 27  1  0
 52 53  1  0
 54 52  1  0
 55 57  1  0
 55 56  1  0
 59 70  2  0
 60 58  1  0
 60 65  1  0
 61 69  1  0
 61 71  1  0
 62 68  1  0
 62 64  1  0
 63 69  1  0
 64 63  1  0
 65 64  2  0
 66 67  1  0
 66 60  2  0
 67 62  2  0
 68 61  1  0
 69 59  1  0
 71 73  2  0
 72 71  1  0
 74 72  1  0
 75 84  2  0
 75 80  1  0
 76 72  1  0
 76 80  1  0
 77 76  1  0
 78 79  1  0
 78 77  1  0
 79 75  1  0
 80 81  2  0
 81 82  1  0
 83 82  2  0
 84 83  1  0
 85 59  1  0
 85 86  1  0
 85 95  1  0
 86 89  1  0
 87 91  1  0
 87 86  1  0
 88 87  2  0
 91 90  1  0
 93 91  1  0
 93 94  1  0
 93 92  1  0
 95 98  1  1
 95 96  1  0
 97 95  1  0
M  ISO  4   6 101  17 100  25 100  58 101
M  END
>  <TORSDO>  (1) 
F 18

>  <SCORE>  (1) 
-12.613

>  <name>  (1) 
0

>  <ligand_id>  (1) 
0

>  <original_smiles>  (1) 
[H]c1c([H])c([H])c2c(c1[H])C([H])([H])C([H])([H])C([H])([H])C2([H])N([H])C(=O)C1([H])N(C(=O)C([H])(N([H])C(=O)C([H])(N([H])C([H])([H])[H])C([H])([H])[H])C(C([H])([H])[H])(C([H])([H])[H])C([H])([H])[H])C([H])([H])c2c([H])c(OC3([H])C(C([H])([H])[H])=C(C([H])([H])[H])N(c4c([H])c([H])c(N([H])C(=O)N5C([H])([H])C([H])([H])C([H])([H])C([H])(n6nc(-c7c([H])c([H])c(Oc8c([H])c([H])c(F)c([H])c8F)c([H])c7[H])c(C(=O)N([H])[H])c6N([H])[H])C5([H])[H])c(N([H])[H])c4[H])C([H])([H])C(=O)C3([H])[H])c([H])c([H])c2C1([H])[H]

>  <smiles>  (1) 
[H]c1c([H])c([H])c2c(c1[H])C([H])([H])C([H])([H])C([H])([H])C2([H])N([H])C(=O)C1([H])N(C(=O)C([H])(N([H])C(=O)C([H])(N([H])C([H])([H])[H])C([H])([H])[H])C(C([H])([H])[H])(C([H])([H])[H])C([H])([H])[H])C([H])([H])c2c([H])c(OC3([H])C(C([H])([H])[H])=C(C([H])([H])[H])N(c4c([H])c([H])c(N([H])C(=O)N5C([H])([H])C([H])([H])C([H])([H])C([H])(n6nc(-c7c([H])c([H])c(Oc8c([H])c([H])c(F)c([H])c8F)c([H])c7[H])c(C(=O)N([H])[H])c6N([H])[H])C5([H])[H])c(N([H])[H])c4[H])C([H])([H])C(=O)C3([H])[H])c([H])c([H])c2C1([H])[H]

$$$$
1:0:0
     RDKit          3D

 94103  0  0  1  0  0  0  0  0999 V2000
  -30.6320  -20.0600   20.9330 C   0  0  0  0  0  3  0  0  0  0  0  0
  -30.3700  -18.8480   20.1880 C   0  0  0  0  0  0  0  0  0  0  0  0
  -29.6940  -19.0870   19.0070 C   0  0  0  0  0  0  0  0  0  0  0  0
  -30.1680  -21.2140   20.3160 C   0  0  0  0  0  0  0  0  0  0  0  0
  -29.3240  -20.7890   18.8510 S   0  0  0  0  0  0  0  0  0  0  0  0
  -29.8720  -23.3510   21.5150 C   0  0  0  0  0  0  0  0  0  0  0  0
  -30.3940  -22.5400   20.5690 N   0  0  0  0  0  0  0  0  0  0  0  0
  -29.2320  -22.9220   22.4780 O   0  0  0  0  0  0  0  0  0  0  0  0
  -30.8420  -23.0410   19.8120 H   0  0  0  0  0  0  0  0  0  0  0  0
  -30.1550  -24.8780   21.3570 C   0  0  0  0  0  2  0  0  0  0  0  0
  -29.1900  -25.8630   22.0910 C   0  0  0  0  0  2  0  0  0  0  0  0
  -29.3130  -27.2510   21.6660 O   0  0  0  0  0  0  0  0  0  0  0  0
  -24.8250  -32.3620   23.8910 C   0  0  0  0  0  0  0  0  0  0  0  0
  -28.1310  -27.9450   21.4550 C   0  0  0  0  0  0  0  0  0  0  0  0
  -23.9510  -30.8160   22.1700 C   0  0  0  0  0  3  0  0  0  0  0  0
  -25.6820  -29.3180   21.0400 C   0  0  0  0  0  0  0  0  0  0  0  0
  -26.4550  -31.3270   22.3080 C   0  0  0  0  0  2  0  0  0  0  0  0
  -26.7150  -29.9370   21.7580 C   0  0  0  0  0  0  0  0  0  0  0  0
  -27.9460  -29.2600   21.9550 C   0  0  0  0  0  3  0  0  0  0  0  0
  -27.0860  -27.3560   20.7120 C   0  0  0  0  0  3  0  0  0  0  0  0
  -25.8670  -28.0300   20.5090 C   0  0  0  0  0  3  0  0  0  0  0  0
  -24.3950  -30.0960   20.8700 C   0  0  0  0  0  2  0  0  0  0  0  0
  -25.0860  -31.5210   22.8480 N   0  0  0  0  0  0  0  0  0  0  0  0
  -23.6620  -32.5860   24.2600 O   0  0  0  0  0  0  0  0  0  0  0  0
  -23.2290  -29.7970   23.0810 C   0  0  0  0  0  0  0  0  0  0  0  0
  -21.9700  -29.4720   22.7390 N   0  0  0  0  0  0  0  0  0  0  0  0
  -23.8050  -29.2970   24.0510 O   0  0  0  0  0  0  0  0  0  0  0  0
  -21.5630  -29.9320   21.9360 H   0  0  0  0  0  0  0  0  0  0  0  0
  -18.6590  -28.0250   22.7830 C   0  0  0  0  0  0  0  0  0  0  0  0
  -21.1160  -28.5040   23.4280 C   0  0  0  0  0  3  0  0  0  0  0  0
  -21.4140  -27.0630   22.9560 C   0  0  0  0  0  2  0  0  0  0  0  0
  -20.5120  -26.6060   21.8030 C   0  0  0  0  0  2  0  0  0  0  0  0
  -19.0400  -26.6660   22.2200 C   0  0  0  0  0  2  0  0  0  0  0  0
  -19.6360  -28.8940   23.3360 C   0  0  0  0  0  0  0  0  0  0  0  0
  -19.2340  -30.1600   23.8160 C   0  0  0  0  0  3  0  0  0  0  0  0
  -17.8860  -30.5590   23.7490 C   0  0  0  0  0  3  0  0  0  0  0  0
  -16.9210  -29.6880   23.2140 C   0  0  0  0  0  3  0  0  0  0  0  0
  -17.3060  -28.4230   22.7370 C   0  0  0  0  0  3  0  0  0  0  0  0
  -25.9680  -33.1020   24.6510 C   0  0  0  0  0  3  0  0  0  0  0  0
  -25.5420  -34.4960   24.8450 N   0  0  0  0  0  0  0  0  0  0  0  0
  -25.9290  -35.5230   24.0790 C   0  0  0  0  0  0  0  0  0  0  0  0
  -26.7510  -35.4040   23.1650 O   0  0  0  0  0  0  0  0  0  0  0  0
  -24.8270  -34.6550   25.5410 H   0  0  0  0  0  0  0  0  0  0  0  0
  -24.1890  -37.1890   23.3580 C   0  0  0  0  0  1  0  0  0  0  0  0
  -25.3090  -36.9020   24.3710 C   0  0  0  0  0  3  0  0  0  0  0  0
  -27.2650  -37.9350   25.4380 C   0  0  0  0  0  1  0  0  0  0  0  0
  -26.2920  -38.0070   24.3510 N   0  0  0  0  0  0  0  0  0  0  0  0
  -25.8250  -38.9080   24.4050 H   0  0  0  0  0  0  0  0  0  0  0  0
  -26.3300  -32.4330   26.0330 C   0  0  1  0  0  0  0  0  0  0  0  0
  -25.0950  -32.0580   26.8850 C   0  0  0  0  0  1  0  0  0  0  0  0
  -27.1610  -31.1460   25.8130 C   0  0  0  0  0  1  0  0  0  0  0  0
  -27.2110  -33.3920   26.8680 C   0  0  0  0  0  1  0  0  0  0  0  0
  -28.5770  -18.2120   15.8360 C   0  0  0  0  0  2  0  0  0  0  0  0
  -27.9590  -18.1790   17.2340 C   0  0  0  0  0  2  0  0  0  0  0  0
  -29.9380  -18.5000   16.4720 C   0  0  0  0  0  2  0  0  0  0  0  0
  -29.3630  -18.1690   17.8580 C   0  0  0  0  0  3  0  0  0  0  0  0
  -30.9340  -17.4970   20.5560 C   0  0  0  0  0  2  0  0  0  0  0  0
  -30.4190  -16.3410   20.2880 N   0  0  0  0  0  2  0  0  0  0  0  0
  -31.2730  -15.2260   20.2060 C   0  0  0  0  0  0  0  0  0  0  0  0
  -30.9970  -13.0240   19.1440 C   0  0  0  0  0  2  0  0  0  0  0  0
  -30.0830  -13.2510   17.9180 C   0  0  0  0  0  2  0  0  0  0  0  0
  -28.5960  -13.1380   18.3120 C   0  0  0  0  0  2  0  0  0  0  0  0
  -28.2420  -13.9610   19.5780 C   0  0  0  0  0  3  0  0  0  0  0  0
  -29.2840  -13.7510   20.6980 C   0  0  0  0  0  2  0  0  0  0  0  0
  -30.6220  -14.0270   20.1540 N   0  0  0  0  0  0  0  0  0  0  0  0
  -32.4770  -15.2890   19.9390 O   0  0  0  0  0  0  0  0  0  0  0  0
  -25.8400  -14.5830   20.2570 C   0  0  0  0  0  0  0  0  0  0  0  0
  -24.7580  -13.8180   20.5990 C   0  0  0  0  0  0  0  0  0  0  0  0
  -25.2130  -12.4650   20.5860 C   0  0  0  0  0  0  0  0  0  0  0  0
  -26.8820  -13.6940   20.0410 N   0  0  0  0  0  0  0  0  0  0  0  0
  -26.5080  -12.4150   20.3010 N   0  0  0  0  0  0  0  0  0  0  0  0
  -24.4760  -11.2080   20.7720 C   0  0  0  0  0  0  0  0  0  0  0  0
  -24.8220  -10.2930   21.7910 C   0  0  0  0  0  3  0  0  0  0  0  0
  -24.0850   -9.1010   21.9630 C   0  0  0  0  0  3  0  0  0  0  0  0
  -22.9890   -8.8160   21.1150 C   0  0  0  0  0  0  0  0  0  0  0  0
  -22.6630   -9.7200   20.0890 C   0  0  0  0  0  3  0  0  0  0  0  0
  -23.4010  -10.9030   19.9150 C   0  0  0  0  0  3  0  0  0  0  0  0
  -22.2330   -7.6700   21.1910 O   0  0  0  0  0  0  0  0  0  0  0  0
  -22.0070   -7.0350   22.3850 C   0  0  0  0  0  0  0  0  0  0  0  0
  -21.3790   -7.6860   23.4690 C   0  0  0  0  0  3  0  0  0  0  0  0
  -21.1030   -6.9760   24.6530 C   0  0  0  0  0  3  0  0  0  0  0  0
  -21.4450   -5.6130   24.7530 C   0  0  0  0  0  0  0  0  0  0  0  0
  -22.0650   -4.9610   23.6740 C   0  0  0  0  0  3  0  0  0  0  0  0
  -22.3430   -5.6700   22.4920 C   0  0  0  0  0  0  0  0  0  0  0  0
  -22.9230   -5.0310   21.4460 F   0  0  0  0  0  0  0  0  0  0  0  0
  -21.1720   -4.9270   25.8880 F   0  0  0  0  0  0  0  0  0  0  0  0
  -23.3580  -14.3060   20.8390 C   0  0  0  0  0  0  0  0  0  0  0  0
  -22.6180  -13.6420   21.7180 N   0  0  0  0  0  0  0  0  0  0  0  0
  -22.9280  -15.3140   20.2790 O   0  0  0  0  0  0  0  0  0  0  0  0
  -22.9790  -12.8290   22.1980 H   0  0  0  0  0  0  0  0  0  0  0  0
  -21.6780  -13.9530   21.9220 H   0  0  0  0  0  0  0  0  0  0  0  0
  -26.0190  -15.9520   20.0950 N   0  0  0  0  0  0  0  0  0  0  0  0
  -25.2610  -16.6180   20.1940 H   0  0  0  0  0  0  0  0  0  0  0  0
  -26.9030  -16.3850   19.8610 H   0  0  0  0  0  0  0  0  0  0  0  0
  2 57  1  0
  2  1  1  0
  3  2  2  0
  4  7  1  0
  4  1  2  0
  5  3  1  0
  5  4  1  0
  6  8  2  0
  7  6  1  0
  9  7  1  0
 10  6  1  0
 10 11  1  0
 12 11  1  0
 13 24  2  0
 14 12  1  0
 14 19  1  0
 15 23  1  0
 15 25  1  0
 16 18  1  0
 17 23  1  0
 18 19  2  0
 18 17  1  0
 20 14  2  0
 21 20  1  0
 21 16  2  0
 22 16  1  0
 22 15  1  0
 23 13  1  0
 25 27  2  0
 26 25  1  0
 28 26  1  0
 29 34  1  0
 30 26  1  0
 31 30  1  0
 32 33  1  0
 32 31  1  0
 33 29  1  0
 34 30  1  0
 34 35  2  0
 36 35  1  0
 37 36  2  0
 38 29  2  0
 38 37  1  0
 39 13  1  0
 39 40  1  0
 39 49  1  0
 40 43  1  0
 41 45  1  0
 41 40  1  0
 42 41  2  0
 45 44  1  0
 47 45  1  0
 47 48  1  0
 47 46  1  0
 49 52  1  1
 49 50  1  0
 51 49  1  0
 53 55  1  0
 53 54  1  0
 54 56  1  0
 55 56  1  0
 56  3  1  0
 58 57  1  0
 59 58  1  0
 60 65  1  0
 61 62  1  0
 61 60  1  0
 63 62  1  0
 63 70  1  0
 63 64  1  0
 65 59  1  0
 65 64  1  0
 66 59  2  0
 67 68  2  0
 68 87  1  0
 69 68  1  0
 69 72  1  0
 70 67  1  0
 70 71  1  0
 71 69  2  0
 72 73  1  0
 73 74  2  0
 75 78  1  0
 75 74  1  0
 76 75  2  0
 77 76  1  0
 77 72  2  0
 78 79  1  0
 79 84  2  0
 79 80  1  0
 80 81  2  0
 81 82  1  0
 82 86  1  0
 83 82  2  0
 84 83  1  0
 85 84  1  0
 87 88  1  0
 88 91  1  0
 88 90  1  0
 89 87  2  0
 92 93  1  0
 92 67  1  0
 94 92  1  0
M  ISO  4  11 101  12 101  58 100  59 100
M  END
>  <TORSDO>  (2) 
F 21

>  <SCORE>  (2) 
-9.153

>  <name>  (2) 
1

>  <ligand_id>  (2) 
1

>  <original_smiles>  (2) 
[H]C(=NC(=O)N1C([H])([H])C([H])([H])C([H])([H])C([H])(n2nc(-c3c([H])c([H])c(Oc4c([H])c([H])c(F)c([H])c4F)c([H])c3[H])c(C(=O)N([H])[H])c2N([H])[H])C1([H])[H])c1c(C2([H])C([H])([H])C([H])([H])C2([H])[H])sc(N([H])C(=O)C([H])([H])C([H])([H])Oc2c([H])c([H])c3c(c2[H])C([H])([H])N(C(=O)C([H])(N([H])C(=O)C([H])(N([H])C([H])([H])[H])C([H])([H])[H])C(C([H])([H])[H])(C([H])([H])[H])C([H])([H])[H])C([H])(C(=O)N([H])C2([H])c4c([H])c([H])c([H])c([H])c4C([H])([H])C([H])([H])C2([H])[H])C3([H])[H])c1[H]

>  <smiles>  (2) 
[H]C(=NC(=O)N1C([H])([H])C([H])([H])C([H])([H])C([H])(n2nc(-c3c([H])c([H])c(Oc4c([H])c([H])c(F)c([H])c4F)c([H])c3[H])c(C(=O)N([H])[H])c2N([H])[H])C1([H])[H])c1c(C2([H])C([H])([H])C([H])([H])C2([H])[H])sc(N([H])C(=O)C([H])([H])C([H])([H])Oc2c([H])c([H])c3c(c2[H])C([H])([H])N(C(=O)C([H])(N([H])C(=O)C([H])(N([H])C([H])([H])[H])C([H])([H])[H])C(C([H])([H])[H])(C([H])([H])[H])C([H])([H])[H])C([H])(C(=O)N([H])C2([H])c4c([H])c([H])c([H])c([H])c4C([H])([H])C([H])([H])C2([H])[H])C3([H])[H])c1[H]

$$$$
2:0:0
     RDKit          3D

 93101  0  0  1  0  0  0  0  0999 V2000
  -27.7800  -21.0000   21.4220 O   0  0  0  0  0  0  0  0  0  0  0  0
  -30.1170  -21.7280   22.0750 O   0  0  0  0  0  0  0  0  0  0  0  0
  -29.1710  -21.2890   21.0370 S   0  0  1  0  0  0  0  0  0  0  0  0
  -31.2580  -18.8040   18.4720 C   0  0  0  0  0  3  0  0  0  0  0  0
  -31.0430  -17.5030   18.9700 C   0  0  0  0  0  3  0  0  0  0  0  0
  -30.6910  -19.9260   19.1060 C   0  0  0  0  0  3  0  0  0  0  0  0
  -29.6680  -18.4250   20.7480 C   0  0  0  0  0  3  0  0  0  0  0  0
  -30.2610  -17.2630   20.1300 C   0  0  0  0  0  0  0  0  0  0  0  0
  -29.8870  -19.7610   20.2470 C   0  0  0  0  0  0  0  0  0  0  0  0
  -30.7770  -14.7540   20.3250 C   0  0  0  0  0  0  0  0  0  0  0  0
  -30.5250  -12.5060   19.3170 C   0  0  0  0  0  2  0  0  0  0  0  0
  -29.5820  -12.6250   18.1010 C   0  0  0  0  0  2  0  0  0  0  0  0
  -28.1150  -12.4620   18.5400 C   0  0  0  0  0  2  0  0  0  0  0  0
  -27.7580  -13.3350   19.7730 C   0  0  0  0  0  3  0  0  0  0  0  0
  -28.8250  -13.2270   20.8850 C   0  0  0  0  0  2  0  0  0  0  0  0
  -30.1280  -13.5470   20.2880 N   0  0  0  0  0  0  0  0  0  0  0  0
  -31.9550  -14.8370   19.9660 O   0  0  0  0  0  0  0  0  0  0  0  0
  -30.0390  -15.8830   20.5990 N   0  0  0  0  0  0  0  0  0  0  0  0
  -29.1560  -15.7090   21.0560 H   0  0  0  0  0  0  0  0  0  0  0  0
  -25.3730  -13.9130   20.5270 C   0  0  0  0  0  0  0  0  0  0  0  0
  -24.3130  -13.1320   20.8980 C   0  0  0  0  0  0  0  0  0  0  0  0
  -24.7790  -11.7830   20.8470 C   0  0  0  0  0  0  0  0  0  0  0  0
  -26.4170  -13.0410   20.2710 N   0  0  0  0  0  0  0  0  0  0  0  0
  -26.0670  -11.7530   20.5260 N   0  0  0  0  0  0  0  0  0  0  0  0
  -24.0580  -10.5160   21.0310 C   0  0  0  0  0  0  0  0  0  0  0  0
  -24.4830   -9.5540   21.9740 C   0  0  0  0  0  3  0  0  0  0  0  0
  -23.7610   -8.3530   22.1440 C   0  0  0  0  0  3  0  0  0  0  0  0
  -22.6010   -8.1040   21.3720 C   0  0  0  0  0  0  0  0  0  0  0  0
  -22.1970   -9.0560   20.4190 C   0  0  0  0  0  3  0  0  0  0  0  0
  -22.9190  -10.2490   20.2460 C   0  0  0  0  0  3  0  0  0  0  0  0
  -21.8520   -6.9550   21.4510 O   0  0  0  0  0  0  0  0  0  0  0  0
  -21.7710   -6.2280   22.6120 C   0  0  0  0  0  0  0  0  0  0  0  0
  -21.2500   -6.7790   23.8020 C   0  0  0  0  0  3  0  0  0  0  0  0
  -21.1200   -5.9770   24.9520 C   0  0  0  0  0  3  0  0  0  0  0  0
  -21.5010   -4.6220   24.9130 C   0  0  0  0  0  0  0  0  0  0  0  0
  -22.0160   -4.0690   23.7270 C   0  0  0  0  0  3  0  0  0  0  0  0
  -22.1470   -4.8700   22.5790 C   0  0  0  0  0  0  0  0  0  0  0  0
  -22.6240   -4.3280   21.4330 F   0  0  0  0  0  0  0  0  0  0  0  0
  -21.3710   -3.8470   26.0150 F   0  0  0  0  0  0  0  0  0  0  0  0
  -22.9170  -13.6020   21.1900 C   0  0  0  0  0  0  0  0  0  0  0  0
  -22.1970  -12.8870   22.0470 N   0  0  0  0  0  0  0  0  0  0  0  0
  -22.4750  -14.6380   20.6940 O   0  0  0  0  0  0  0  0  0  0  0  0
  -22.5690  -12.0500   22.4700 H   0  0  0  0  0  0  0  0  0  0  0  0
  -21.2600  -13.1830   22.2850 H   0  0  0  0  0  0  0  0  0  0  0  0
  -25.5310  -15.2870   20.3620 N   0  0  0  0  0  0  0  0  0  0  0  0
  -24.7600  -15.9350   20.4800 H   0  0  0  0  0  0  0  0  0  0  0  0
  -26.3690  -15.7300   20.0070 H   0  0  0  0  0  0  0  0  0  0  0  0
  -28.2120  -22.4090   18.6880 C   0  0  0  0  0  1  0  0  0  0  0  0
  -29.0910  -22.6190   19.8490 N   0  0  0  0  0  0  0  0  0  0  0  0
  -29.3830  -24.0890   20.1840 C   0  0  0  0  0  2  0  0  0  0  0  0
  -27.3680  -24.7570   21.5710 C   0  0  0  0  0  1  0  0  0  0  0  0
  -28.1370  -25.0790   20.2750 C   0  0  0  0  0  3  0  0  0  0  0  0
  -28.3890  -26.5490   20.2150 O   0  0  0  0  0  0  0  0  0  0  0  0
  -24.6080  -31.8760   23.2730 C   0  0  0  0  0  0  0  0  0  0  0  0
  -27.2830  -27.4150   20.1350 C   0  0  0  0  0  0  0  0  0  0  0  0
  -23.4380  -30.5260   21.5690 C   0  0  0  0  0  3  0  0  0  0  0  0
  -24.9180  -29.0290   20.1230 C   0  0  0  0  0  0  0  0  0  0  0  0
  -25.9810  -30.8540   21.4450 C   0  0  0  0  0  2  0  0  0  0  0  0
  -26.0750  -29.4980   20.7580 C   0  0  0  0  0  0  0  0  0  0  0  0
  -27.2600  -28.7030   20.7560 C   0  0  0  0  0  3  0  0  0  0  0  0
  -26.1050  -27.0160   19.4560 C   0  0  0  0  0  3  0  0  0  0  0  0
  -24.9370  -27.7950   19.4620 C   0  0  0  0  0  3  0  0  0  0  0  0
  -23.6800  -29.8980   20.1730 C   0  0  0  0  0  2  0  0  0  0  0  0
  -24.6940  -31.1010   22.1530 N   0  0  0  0  0  0  0  0  0  0  0  0
  -23.5140  -32.1350   23.7950 O   0  0  0  0  0  0  0  0  0  0  0  0
  -22.7610  -29.4780   22.4840 C   0  0  0  0  0  0  0  0  0  0  0  0
  -21.4360  -29.3090   22.3330 N   0  0  0  0  0  0  0  0  0  0  0  0
  -23.4250  -28.8230   23.2900 O   0  0  0  0  0  0  0  0  0  0  0  0
  -20.9590  -29.8890   21.6570 H   0  0  0  0  0  0  0  0  0  0  0  0
  -18.0410  -28.1420   22.7780 C   0  0  0  0  0  0  0  0  0  0  0  0
  -20.6020  -28.3520   23.0610 C   0  0  0  0  0  3  0  0  0  0  0  0
  -20.6840  -26.9450   22.4240 C   0  0  0  0  0  2  0  0  0  0  0  0
  -19.5790  -26.6810   21.3970 C   0  0  0  0  0  2  0  0  0  0  0  0
  -18.1990  -26.8200   22.0440 C   0  0  0  0  0  2  0  0  0  0  0  0
  -19.1700  -28.8670   23.2420 C   0  0  0  0  0  0  0  0  0  0  0  0
  -18.9690  -30.1060   23.8880 C   0  0  0  0  0  3  0  0  0  0  0  0
  -17.6710  -30.6200   24.0730 C   0  0  0  0  0  3  0  0  0  0  0  0
  -16.5560  -29.8910   23.6260 C   0  0  0  0  0  3  0  0  0  0  0  0
  -16.7420  -28.6530   22.9840 C   0  0  0  0  0  3  0  0  0  0  0  0
  -25.8780  -32.4920   23.9360 C   0  0  0  0  0  3  0  0  0  0  0  0
  -26.3570  -31.6970   25.2120 C   0  0  1  0  0  0  0  0  0  0  0  0
  -25.2340  -31.4420   26.2440 C   0  0  0  0  0  1  0  0  0  0  0  0
  -26.9490  -30.3260   24.8120 C   0  0  0  0  0  1  0  0  0  0  0  0
  -27.4890  -32.4780   25.9200 C   0  0  0  0  0  1  0  0  0  0  0  0
  -25.5660  -33.8860   24.2820 N   0  0  0  0  0  0  0  0  0  0  0  0
  -25.9150  -34.9500   23.5460 C   0  0  0  0  0  0  0  0  0  0  0  0
  -26.6050  -34.8600   22.5270 O   0  0  0  0  0  0  0  0  0  0  0  0
  -24.9570  -34.0290   25.0750 H   0  0  0  0  0  0  0  0  0  0  0  0
  -24.2140  -36.7640   23.1700 C   0  0  0  0  0  1  0  0  0  0  0  0
  -25.4230  -36.3330   24.0150 C   0  0  0  0  0  3  0  0  0  0  0  0
  -27.5290  -37.1880   24.9450 C   0  0  0  0  0  1  0  0  0  0  0  0
  -26.4670  -37.3790   23.9600 N   0  0  0  0  0  0  0  0  0  0  0  0
  -26.0620  -38.3000   24.1060 H   0  0  0  0  0  0  0  0  0  0  0  0
  3  1  2  0
  3  2  2  0
  4  5  2  0
  4  6  1  0
  5  8  1  0
  6  9  2  0
  8 18  1  0
  8  7  2  0
  9  7  1  0
  9  3  1  0
 10 18  1  0
 11 16  1  0
 12 13  1  0
 12 11  1  0
 14 13  1  0
 14 23  1  0
 14 15  1  0
 16 10  1  0
 16 15  1  0
 17 10  2  0
 18 19  1  0
 20 21  2  0
 21 40  1  0
 22 21  1  0
 22 25  1  0
 23 24  1  0
 23 20  1  0
 24 22  2  0
 25 26  1  0
 26 27  2  0
 28 31  1  0
 28 27  1  0
 29 28  2  0
 30 29  1  0
 30 25  2  0
 31 32  1  0
 32 33  1  0
 33 34  2  0
 35 34  1  0
 35 39  1  0
 36 35  2  0
 37 32  2  0
 37 36  1  0
 38 37  1  0
 40 41  1  0
 41 44  1  0
 41 43  1  0
 42 40  2  0
 45 46  1  0
 45 20  1  0
 47 45  1  0
 48 49  1  0
 49 50  1  0
  3 49  1  6
 50 52  1  0
 52 51  1  0
 53 52  1  0
 54 65  2  0
 55 53  1  0
 55 60  1  0
 56 64  1  0
 56 66  1  0
 57 63  1  0
 57 59  1  0
 58 64  1  0
 59 58  1  0
 60 59  2  0
 61 62  1  0
 61 55  2  0
 62 57  2  0
 63 56  1  0
 64 54  1  0
 66 68  2  0
 67 66  1  0
 69 67  1  0
 70 79  2  0
 70 75  1  0
 71 67  1  0
 71 75  1  0
 72 71  1  0
 73 74  1  0
 73 72  1  0
 74 70  1  0
 75 76  2  0
 76 77  1  0
 78 77  2  0
 79 78  1  0
 80 54  1  0
 80 85  1  0
 80 81  1  0
 81 84  1  1
 81 82  1  0
 83 81  1  0
 85 88  1  0
 86 90  1  0
 86 85  1  0
 87 86  2  0
 90 89  1  0
 92 90  1  0
 92 93  1  0
 92 91  1  0
M  ISO  4  10 100  18 100  52 101  53 101
M  END
>  <TORSDO>  (3) 
F 20

>  <SCORE>  (3) 
-13.821

>  <name>  (3) 
2

>  <ligand_id>  (3) 
2

>  <original_smiles>  (3) 
[H]c1c([H])c([H])c2c(c1[H])C([H])([H])C([H])([H])C([H])([H])C2([H])N([H])C(=O)C1([H])N(C(=O)C([H])(N([H])C(=O)C([H])(N([H])C([H])([H])[H])C([H])([H])[H])C(C([H])([H])[H])(C([H])([H])[H])C([H])([H])[H])C([H])([H])c2c([H])c(OC([H])(C([H])([H])[H])C([H])([H])N(C([H])([H])[H])S(=O)(=O)c3c([H])c([H])c([H])c(N([H])C(=O)N4C([H])([H])C([H])([H])C([H])([H])C([H])(n5nc(-c6c([H])c([H])c(Oc7c([H])c([H])c(F)c([H])c7F)c([H])c6[H])c(C(=O)N([H])[H])c5N([H])[H])C4([H])[H])c3[H])c([H])c([H])c2C1([H])[H]

>  <smiles>  (3) 
[H]c1c([H])c([H])c2c(c1[H])C([H])([H])C([H])([H])C([H])([H])C2([H])N([H])C(=O)C1([H])N(C(=O)C([H])(N([H])C(=O)C([H])(N([H])C([H])([H])[H])C([H])([H])[H])C(C([H])([H])[H])(C([H])([H])[H])C([H])([H])[H])C([H])([H])c2c([H])c(OC([H])(C([H])([H])[H])C([H])([H])N(C([H])([H])[H])S(=O)(=O)c3c([H])c([H])c([H])c(N([H])C(=O)N4C([H])([H])C([H])([H])C([H])([H])C([H])(n5nc(-c6c([H])c([H])c(Oc7c([H])c([H])c(F)c([H])c7F)c([H])c6[H])c(C(=O)N([H])[H])c5N([H])[H])C4([H])[H])c3[H])c([H])c([H])c2C1([H])[H]

$$$$
3:0:0
     RDKit          3D

 95104  0  0  1  0  0  0  0  0999 V2000
  -28.3530  -23.8460   19.8470 C   0  0  0  0  0  0  0  0  0  0  0  0
  -29.1930  -22.7190   20.0200 C   0  0  0  0  0  0  0  0  0  0  0  0
  -26.6980  -21.4110   18.8390 C   0  0  0  0  0  0  0  0  0  0  0  0
  -26.8500  -23.8340   19.4330 C   0  0  0  0  0  2  0  0  0  0  0  0
  -25.9930  -22.5710   19.4820 C   0  0  0  0  0  2  0  0  0  0  0  0
  -27.5980  -20.6700   19.7920 C   0  0  0  0  0  2  0  0  0  0  0  0
  -30.6730  -23.0460   20.2200 C   0  0  0  0  0  1  0  0  0  0  0  0
  -28.9430  -21.2560   19.9380 N   0  0  0  0  0  0  0  0  0  0  0  0
  -26.5790  -21.1170   17.6450 O   0  0  0  0  0  0  0  0  0  0  0  0
  -31.8680  -19.3440   21.4600 C   0  0  0  0  0  3  0  0  0  0  0  0
  -30.9670  -20.3620   21.0800 C   0  0  0  0  0  3  0  0  0  0  0  0
  -31.6160  -17.9940   21.1650 C   0  0  0  0  0  3  0  0  0  0  0  0
  -29.5680  -18.6860   20.0630 C   0  0  0  0  0  3  0  0  0  0  0  0
  -29.8100  -20.1170   20.3090 C   0  0  0  0  0  0  0  0  0  0  0  0
  -30.4290  -17.5990   20.5110 C   0  0  0  0  0  0  0  0  0  0  0  0
  -30.8840  -15.0300   20.1930 C   0  0  0  0  0  0  0  0  0  0  0  0
  -30.6660  -12.7520   19.1960 C   0  0  0  0  0  2  0  0  0  0  0  0
  -29.6960  -12.7900   17.9920 C   0  0  0  0  0  2  0  0  0  0  0  0
  -28.2360  -12.6260   18.4580 C   0  0  0  0  0  2  0  0  0  0  0  0
  -27.8880  -13.5450   19.6610 C   0  0  0  0  0  3  0  0  0  0  0  0
  -28.9670  -13.4610   20.7620 C   0  0  0  0  0  2  0  0  0  0  0  0
  -30.2500  -13.8110   20.1420 N   0  0  0  0  0  0  0  0  0  0  0  0
  -32.0630  -15.1210   19.8410 O   0  0  0  0  0  0  0  0  0  0  0  0
  -30.0920  -16.1550   20.4030 N   0  0  0  0  0  0  0  0  0  0  0  0
  -29.1170  -15.9370   20.5410 H   0  0  0  0  0  0  0  0  0  0  0  0
  -25.5450  -14.1720   20.4980 C   0  0  0  0  0  0  0  0  0  0  0  0
  -24.4670  -13.4100   20.8580 C   0  0  0  0  0  0  0  0  0  0  0  0
  -24.8880  -12.0490   20.7430 C   0  0  0  0  0  0  0  0  0  0  0  0
  -26.5520  -13.2750   20.1800 N   0  0  0  0  0  0  0  0  0  0  0  0
  -26.1660  -11.9910   20.3930 N   0  0  0  0  0  0  0  0  0  0  0  0
  -24.1310  -10.8000   20.8870 C   0  0  0  0  0  0  0  0  0  0  0  0
  -24.5270   -9.7940   21.7950 C   0  0  0  0  0  3  0  0  0  0  0  0
  -23.7680   -8.6120   21.9320 C   0  0  0  0  0  3  0  0  0  0  0  0
  -22.6010   -8.4260   21.1540 C   0  0  0  0  0  0  0  0  0  0  0  0
  -22.2240   -9.4180   20.2310 C   0  0  0  0  0  3  0  0  0  0  0  0
  -22.9840  -10.5920   20.0940 C   0  0  0  0  0  3  0  0  0  0  0  0
  -21.8180   -7.2990   21.1980 O   0  0  0  0  0  0  0  0  0  0  0  0
  -21.6960   -6.5490   22.3410 C   0  0  0  0  0  0  0  0  0  0  0  0
  -21.1950   -7.0970   23.5410 C   0  0  0  0  0  3  0  0  0  0  0  0
  -21.0260   -6.2740   24.6730 C   0  0  0  0  0  3  0  0  0  0  0  0
  -21.3440   -4.9050   24.6020 C   0  0  0  0  0  0  0  0  0  0  0  0
  -21.8400   -4.3570   23.4060 C   0  0  0  0  0  3  0  0  0  0  0  0
  -22.0100   -5.1760   22.2770 C   0  0  0  0  0  0  0  0  0  0  0  0
  -22.4670   -4.6400   21.1190 F   0  0  0  0  0  0  0  0  0  0  0  0
  -21.1720   -4.1120   25.6860 F   0  0  0  0  0  0  0  0  0  0  0  0
  -23.0920  -13.9120   21.1940 C   0  0  0  0  0  0  0  0  0  0  0  0
  -22.3760  -13.2040   22.0620 N   0  0  0  0  0  0  0  0  0  0  0  0
  -22.6630  -14.9650   20.7240 O   0  0  0  0  0  0  0  0  0  0  0  0
  -22.7420  -12.3540   22.4660 H   0  0  0  0  0  0  0  0  0  0  0  0
  -21.4500  -13.5110   22.3220 H   0  0  0  0  0  0  0  0  0  0  0  0
  -25.7380  -15.5460   20.3860 N   0  0  0  0  0  0  0  0  0  0  0  0
  -24.9790  -16.1990   20.5540 H   0  0  0  0  0  0  0  0  0  0  0  0
  -26.5690  -15.9910   20.0220 H   0  0  0  0  0  0  0  0  0  0  0  0
  -28.8940  -25.3730   19.7570 C   0  0  0  0  0  2  0  0  0  0  0  0
  -28.6390  -26.6920   20.4640 O   0  0  0  0  0  0  0  0  0  0  0  0
  -24.5780  -31.9780   23.3000 C   0  0  0  0  0  0  0  0  0  0  0  0
  -27.4850  -27.5090   20.3280 C   0  0  0  0  0  0  0  0  0  0  0  0
  -23.4970  -30.5470   21.6000 C   0  0  0  0  0  3  0  0  0  0  0  0
  -25.0690  -29.0610   20.2340 C   0  0  0  0  0  0  0  0  0  0  0  0
  -26.0360  -30.9500   21.5390 C   0  0  0  0  0  2  0  0  0  0  0  0
  -26.1940  -29.5810   20.8810 C   0  0  0  0  0  0  0  0  0  0  0  0
  -27.4040  -28.8170   20.9190 C   0  0  0  0  0  3  0  0  0  0  0  0
  -26.3330  -27.0590   19.6480 C   0  0  0  0  0  3  0  0  0  0  0  0
  -25.1400  -27.8050   19.6100 C   0  0  0  0  0  3  0  0  0  0  0  0
  -23.8030  -29.8890   20.2290 C   0  0  0  0  0  2  0  0  0  0  0  0
  -24.7190  -31.1810   22.2000 N   0  0  0  0  0  0  0  0  0  0  0  0
  -23.4660  -32.2110   23.7930 O   0  0  0  0  0  0  0  0  0  0  0  0
  -22.8280  -29.5040   22.5290 C   0  0  0  0  0  0  0  0  0  0  0  0
  -21.5090  -29.2940   22.3620 N   0  0  0  0  0  0  0  0  0  0  0  0
  -23.5010  -28.8890   23.3610 O   0  0  0  0  0  0  0  0  0  0  0  0
  -21.0190  -29.8550   21.6770 H   0  0  0  0  0  0  0  0  0  0  0  0
  -18.1360  -28.0670   22.8130 C   0  0  0  0  0  0  0  0  0  0  0  0
  -20.6900  -28.3280   23.0970 C   0  0  0  0  0  3  0  0  0  0  0  0
  -20.8030  -26.9130   22.4790 C   0  0  0  0  0  2  0  0  0  0  0  0
  -19.7050  -26.6190   21.4520 C   0  0  0  0  0  2  0  0  0  0  0  0
  -18.3210  -26.7440   22.0890 C   0  0  0  0  0  2  0  0  0  0  0  0
  -19.2500  -28.8190   23.2690 C   0  0  0  0  0  0  0  0  0  0  0  0
  -19.0230  -30.0590   23.9050 C   0  0  0  0  0  3  0  0  0  0  0  0
  -17.7170  -30.5500   24.0860 C   0  0  0  0  0  3  0  0  0  0  0  0
  -16.6180  -29.7950   23.6420 C   0  0  0  0  0  3  0  0  0  0  0  0
  -16.8270  -28.5540   23.0130 C   0  0  0  0  0  3  0  0  0  0  0  0
  -25.8110  -32.6540   23.9760 C   0  0  0  0  0  3  0  0  0  0  0  0
  -25.4660  -34.0580   24.2380 N   0  0  0  0  0  0  0  0  0  0  0  0
  -25.8270  -35.0930   23.4650 C   0  0  0  0  0  0  0  0  0  0  0  0
  -26.5570  -34.9670   22.4770 O   0  0  0  0  0  0  0  0  0  0  0  0
  -24.8290  -34.2290   25.0020 H   0  0  0  0  0  0  0  0  0  0  0  0
  -24.1010  -36.8500   22.9600 C   0  0  0  0  0  1  0  0  0  0  0  0
  -25.2980  -36.4860   23.8510 C   0  0  0  0  0  3  0  0  0  0  0  0
  -27.3630  -37.4360   24.7830 C   0  0  0  0  0  1  0  0  0  0  0  0
  -26.3210  -37.5490   23.7660 N   0  0  0  0  0  0  0  0  0  0  0  0
  -25.8910  -38.4640   23.8560 H   0  0  0  0  0  0  0  0  0  0  0  0
  -26.2690  -31.9340   25.3030 C   0  0  1  0  0  0  0  0  0  0  0  0
  -25.1110  -31.6790   26.2950 C   0  0  0  0  0  1  0  0  0  0  0  0
  -26.9320  -30.5710   24.9990 C   0  0  0  0  0  1  0  0  0  0  0  0
  -27.3350  -32.7910   26.0260 C   0  0  0  0  0  1  0  0  0  0  0  0
  1  2  2  0
  2  7  1  0
  3  5  1  0
  3  6  1  0
  4  5  1  0
  4  1  1  0
  6  8  1  0
  8  2  1  0
  8 14  1  0
  9  3  2  0
 11 10  2  0
 12 10  1  0
 13 14  2  0
 13 15  1  0
 14 11  1  0
 15 12  2  0
 16 24  1  0
 17 22  1  0
 18 19  1  0
 18 17  1  0
 20 19  1  0
 20 29  1  0
 20 21  1  0
 22 16  1  0
 22 21  1  0
 23 16  2  0
 24 15  1  0
 24 25  1  0
 26 27  2  0
 27 46  1  0
 28 27  1  0
 28 31  1  0
 29 30  1  0
 29 26  1  0
 30 28  2  0
 31 32  1  0
 32 33  2  0
 34 37  1  0
 34 33  1  0
 35 34  2  0
 36 35  1  0
 36 31  2  0
 37 38  1  0
 38 39  1  0
 39 40  2  0
 41 40  1  0
 41 45  1  0
 42 41  2  0
 43 38  2  0
 43 42  1  0
 44 43  1  0
 46 47  1  0
 47 50  1  0
 47 49  1  0
 48 46  2  0
 51 26  1  0
 51 52  1  0
 53 51  1  0
 54  1  1  0
 54 55  1  0
 56 67  2  0
 57 55  1  0
 57 62  1  0
 58 66  1  0
 58 68  1  0
 59 61  1  0
 60 66  1  0
 61 62  2  0
 61 60  1  0
 63 57  2  0
 64 63  1  0
 64 59  2  0
 65 59  1  0
 65 58  1  0
 66 56  1  0
 68 70  2  0
 69 68  1  0
 71 69  1  0
 72 81  2  0
 72 77  1  0
 73 69  1  0
 73 77  1  0
 74 73  1  0
 75 76  1  0
 75 74  1  0
 76 72  1  0
 77 78  2  0
 78 79  1  0
 80 79  2  0
 81 80  1  0
 82 56  1  0
 82 83  1  0
 82 92  1  0
 83 86  1  0
 84 88  1  0
 84 83  1  0
 85 84  2  0
 88 87  1  0
 90 88  1  0
 90 91  1  0
 90 89  1  0
 92 95  1  1
 92 93  1  0
 94 92  1  0
M  ISO  4  16 100  24 100  54 101  55 101
M  END
>  <TORSDO>  (4) 
F 18

>  <SCORE>  (4) 
-14.625

>  <name>  (4) 
3

>  <ligand_id>  (4) 
3

>  <original_smiles>  (4) 
[H]c1c([H])c(N([H])C(=O)N2C([H])([H])C([H])([H])C([H])([H])C([H])(n3nc(-c4c([H])c([H])c(Oc5c([H])c([H])c(F)c([H])c5F)c([H])c4[H])c(C(=O)N([H])[H])c3N([H])[H])C2([H])[H])c([H])c(N2C(C([H])([H])[H])=C(C([H])([H])Oc3c([H])c([H])c4c(c3[H])C([H])([H])N(C(=O)C([H])(N([H])C(=O)C([H])(N([H])C([H])([H])[H])C([H])([H])[H])C(C([H])([H])[H])(C([H])([H])[H])C([H])([H])[H])C([H])(C(=O)N([H])C3([H])c5c([H])c([H])c([H])c([H])c5C([H])([H])C([H])([H])C3([H])[H])C4([H])[H])C([H])([H])C([H])([H])C(=O)C2([H])[H])c1[H]

>  <smiles>  (4) 
[H]c1c([H])c(N([H])C(=O)N2C([H])([H])C([H])([H])C([H])([H])C([H])(n3nc(-c4c([H])c([H])c(Oc5c([H])c([H])c(F)c([H])c5F)c([H])c4[H])c(C(=O)N([H])[H])c3N([H])[H])C2([H])[H])c([H])c(N2C(C([H])([H])[H])=C(C([H])([H])Oc3c([H])c([H])c4c(c3[H])C([H])([H])N(C(=O)C([H])(N([H])C(=O)C([H])(N([H])C([H])([H])[H])C([H])([H])[H])C(C([H])([H])[H])(C([H])([H])[H])C([H])([H])[H])C([H])(C(=O)N([H])C3([H])c5c([H])c([H])c([H])c([H])c5C([H])([H])C([H])([H])C3([H])[H])C4([H])[H])C([H])([H])C([H])([H])C(=O)C2([H])[H])c1[H]

$$$$
4:0:0
     RDKit          3D

 99107  0  0  1  0  0  0  0  0999 V2000
  -30.7510  -21.0980   20.0980 C   0  0  0  0  0  0  0  0  0  0  0  0
  -29.8190  -22.0480   20.3480 N   0  0  0  0  0  0  0  0  0  0  0  0
  -32.0060  -21.4750   19.7940 N   0  0  0  0  0  4  0  0  0  0  0  0
  -28.8540  -21.7720   20.4800 H   0  0  0  0  0  0  0  0  0  0  0  0
  -32.6820  -20.7670   19.5420 H   0  0  0  0  0  0  0  0  0  0  0  0
  -32.3350  -22.4280   19.8110 H   0  0  0  0  0  0  0  0  0  0  0  0
  -30.6950  -14.4670   20.1220 C   0  0  0  0  0  0  0  0  0  0  0  0
  -30.3200  -12.3500   18.9260 C   0  0  0  0  0  2  0  0  0  0  0  0
  -29.3210  -12.6210   17.7810 C   0  0  0  0  0  2  0  0  0  0  0  0
  -27.8680  -12.4880   18.2830 C   0  0  0  0  0  2  0  0  0  0  0  0
  -27.6130  -13.2680   19.6010 C   0  0  0  0  0  3  0  0  0  0  0  0
  -28.7230  -12.9740   20.6340 C   0  0  0  0  0  2  0  0  0  0  0  0
  -30.0190  -13.2910   20.0120 N   0  0  0  0  0  0  0  0  0  0  0  0
  -31.8030  -14.6380   19.6010 O   0  0  0  0  0  0  0  0  0  0  0  0
  -29.9420  -19.1250   21.4070 C   0  0  0  0  0  3  0  0  0  0  0  0
  -29.8030  -17.7290   21.5640 C   0  0  0  0  0  3  0  0  0  0  0  0
  -30.4510  -19.6500   20.1980 C   0  0  0  0  0  0  0  0  0  0  0  0
  -30.1700  -16.8620   20.5130 C   0  0  0  0  0  0  0  0  0  0  0  0
  -30.7430  -18.7090   19.1800 C   0  0  0  0  0  0  0  0  0  0  0  0
  -30.5990  -17.3780   19.3330 N   0  0  0  0  0  0  0  0  0  0  0  0
  -30.0340  -15.4620   20.7430 N   0  0  0  0  0  0  0  0  0  0  0  0
  -29.2570  -15.1850   21.3190 H   0  0  0  0  0  0  0  0  0  0  0  0
  -25.2520  -13.8550   20.4400 C   0  0  0  0  0  0  0  0  0  0  0  0
  -24.2060  -13.0720   20.8480 C   0  0  0  0  0  0  0  0  0  0  0  0
  -24.6690  -11.7220   20.7720 C   0  0  0  0  0  0  0  0  0  0  0  0
  -26.2870  -12.9800   20.1420 N   0  0  0  0  0  0  0  0  0  0  0  0
  -25.9410  -11.6940   20.3970 N   0  0  0  0  0  0  0  0  0  0  0  0
  -23.9590  -10.4540   20.9730 C   0  0  0  0  0  0  0  0  0  0  0  0
  -24.4110   -9.4870   21.8980 C   0  0  0  0  0  3  0  0  0  0  0  0
  -23.6940   -8.2860   22.0850 C   0  0  0  0  0  3  0  0  0  0  0  0
  -22.5110   -8.0430   21.3480 C   0  0  0  0  0  0  0  0  0  0  0  0
  -22.0790   -8.9980   20.4110 C   0  0  0  0  0  3  0  0  0  0  0  0
  -22.7970  -10.1900   20.2210 C   0  0  0  0  0  3  0  0  0  0  0  0
  -21.7650   -6.8950   21.4460 O   0  0  0  0  0  0  0  0  0  0  0  0
  -21.7040   -6.1730   22.6110 C   0  0  0  0  0  0  0  0  0  0  0  0
  -21.2360   -6.7420   23.8160 C   0  0  0  0  0  3  0  0  0  0  0  0
  -21.1250   -5.9470   24.9730 C   0  0  0  0  0  3  0  0  0  0  0  0
  -21.4700   -4.5830   24.9270 C   0  0  0  0  0  0  0  0  0  0  0  0
  -21.9310   -4.0130   23.7270 C   0  0  0  0  0  3  0  0  0  0  0  0
  -22.0440   -4.8060   22.5720 C   0  0  0  0  0  0  0  0  0  0  0  0
  -22.4700   -4.2470   21.4120 F   0  0  0  0  0  0  0  0  0  0  0  0
  -21.3560   -3.8170   26.0370 F   0  0  0  0  0  0  0  0  0  0  0  0
  -22.8230  -13.5390   21.1980 C   0  0  0  0  0  0  0  0  0  0  0  0
  -22.1430  -12.8280   22.0890 N   0  0  0  0  0  0  0  0  0  0  0  0
  -22.3580  -14.5740   20.7200 O   0  0  0  0  0  0  0  0  0  0  0  0
  -22.5390  -11.9910   22.4910 H   0  0  0  0  0  0  0  0  0  0  0  0
  -21.2180  -13.1210   22.3690 H   0  0  0  0  0  0  0  0  0  0  0  0
  -25.4090  -15.2270   20.2790 N   0  0  0  0  0  0  0  0  0  0  0  0
  -24.6510  -15.8800   20.4460 H   0  0  0  0  0  0  0  0  0  0  0  0
  -26.2400  -15.6690   19.9050 H   0  0  0  0  0  0  0  0  0  0  0  0
  -31.2490  -19.0700   17.9390 N   0  0  0  0  0  0  0  0  0  0  0  0
  -31.2670  -18.3550   17.2210 H   0  0  0  0  0  0  0  0  0  0  0  0
  -31.0670  -20.0010   17.5790 H   0  0  0  0  0  0  0  0  0  0  0  0
  -30.0600  -23.5030   20.4690 C   0  0  0  0  0  2  0  0  0  0  0  0
  -28.8600  -24.3090   19.9850 C   0  0  0  0  0  0  0  0  0  0  0  0
  -28.2470  -24.0270   18.9100 N   0  0  0  0  0  0  0  0  0  0  0  0
  -28.6630  -23.2340   18.4350 H   0  0  0  0  0  0  0  0  0  0  0  0
  -28.4360  -25.4800   20.8690 C   0  0  0  0  0  2  0  0  0  0  0  0
  -28.5060  -26.7450   20.1980 O   0  0  0  0  0  0  0  0  0  0  0  0
  -24.6320  -31.8800   23.2340 C   0  0  0  0  0  0  0  0  0  0  0  0
  -27.3320  -27.4600   20.2000 C   0  0  0  0  0  0  0  0  0  0  0  0
  -23.4470  -30.4580   21.5930 C   0  0  0  0  0  3  0  0  0  0  0  0
  -24.9220  -28.9250   20.1900 C   0  0  0  0  0  0  0  0  0  0  0  0
  -25.9690  -30.8430   21.4080 C   0  0  0  0  0  2  0  0  0  0  0  0
  -26.0700  -29.4720   20.7790 C   0  0  0  0  0  0  0  0  0  0  0  0
  -27.2830  -28.7470   20.7740 C   0  0  0  0  0  3  0  0  0  0  0  0
  -26.1680  -26.9170   19.6170 C   0  0  0  0  0  3  0  0  0  0  0  0
  -24.9630  -27.6480   19.6060 C   0  0  0  0  0  3  0  0  0  0  0  0
  -23.6690  -29.7700   20.2200 C   0  0  0  0  0  2  0  0  0  0  0  0
  -24.7000  -31.0730   22.1370 N   0  0  0  0  0  0  0  0  0  0  0  0
  -23.5440  -32.1470   23.7660 O   0  0  0  0  0  0  0  0  0  0  0  0
  -22.7970  -29.4370   22.5540 C   0  0  0  0  0  0  0  0  0  0  0  0
  -21.4730  -29.2570   22.4290 N   0  0  0  0  0  0  0  0  0  0  0  0
  -23.4800  -28.8100   23.3680 O   0  0  0  0  0  0  0  0  0  0  0  0
  -20.9840  -29.8160   21.7440 H   0  0  0  0  0  0  0  0  0  0  0  0
  -18.0920  -28.0920   22.9400 C   0  0  0  0  0  0  0  0  0  0  0  0
  -20.6530  -28.3210   23.1960 C   0  0  0  0  0  3  0  0  0  0  0  0
  -20.7380  -26.8940   22.6070 C   0  0  0  0  0  2  0  0  0  0  0  0
  -19.6250  -26.5900   21.5990 C   0  0  0  0  0  2  0  0  0  0  0  0
  -18.2500  -26.7440   22.2550 C   0  0  0  0  0  2  0  0  0  0  0  0
  -19.2200  -28.8390   23.3680 C   0  0  0  0  0  0  0  0  0  0  0  0
  -19.0200  -30.1010   23.9680 C   0  0  0  0  0  3  0  0  0  0  0  0
  -17.7220  -30.6140   24.1470 C   0  0  0  0  0  3  0  0  0  0  0  0
  -16.6070  -29.8630   23.7370 C   0  0  0  0  0  3  0  0  0  0  0  0
  -16.7920  -28.6050   23.1400 C   0  0  0  0  0  3  0  0  0  0  0  0
  -25.9090  -32.5220   23.8600 C   0  0  0  0  0  3  0  0  0  0  0  0
  -26.4250  -31.7610   25.1430 C   0  0  1  0  0  0  0  0  0  0  0  0
  -25.3220  -31.5200   26.2000 C   0  0  0  0  0  1  0  0  0  0  0  0
  -27.0260  -30.3860   24.7640 C   0  0  0  0  0  1  0  0  0  0  0  0
  -27.5630  -32.5690   25.8120 C   0  0  0  0  0  1  0  0  0  0  0  0
  -25.5870  -33.9190   24.1770 N   0  0  0  0  0  0  0  0  0  0  0  0
  -25.9200  -34.9690   23.4130 C   0  0  0  0  0  0  0  0  0  0  0  0
  -26.6000  -34.8640   22.3900 O   0  0  0  0  0  0  0  0  0  0  0  0
  -24.9790  -34.0750   24.9680 H   0  0  0  0  0  0  0  0  0  0  0  0
  -24.1860  -36.7530   23.0200 C   0  0  0  0  0  1  0  0  0  0  0  0
  -25.4160  -36.3570   23.8540 C   0  0  0  0  0  3  0  0  0  0  0  0
  -27.5290  -37.2620   24.7150 C   0  0  0  0  0  1  0  0  0  0  0  0
  -26.4430  -37.4160   23.7520 N   0  0  0  0  0  0  0  0  0  0  0  0
  -26.0260  -38.3340   23.8870 H   0  0  0  0  0  0  0  0  0  0  0  0
  1 17  1  0
  1  2  1  0
  2 54  1  0
  2  4  1  0
  3  6  1  0
  3  1  2  0
  5  3  1  0
  7 21  1  0
  8 13  1  0
  9 10  1  0
  9  8  1  0
 11 10  1  0
 11 26  1  0
 11 12  1  0
 13  7  1  0
 13 12  1  0
 14  7  2  0
 15 16  1  0
 17 15  2  0
 18 21  1  0
 18 16  2  0
 19 20  2  0
 19 17  1  0
 20 18  1  0
 21 22  1  0
 23 24  2  0
 24 43  1  0
 25 24  1  0
 25 28  1  0
 26 27  1  0
 26 23  1  0
 27 25  2  0
 28 29  1  0
 29 30  2  0
 31 34  1  0
 31 30  1  0
 32 31  2  0
 33 32  1  0
 33 28  2  0
 34 35  1  0
 35 36  1  0
 36 37  2  0
 38 37  1  0
 38 42  1  0
 39 38  2  0
 40 35  2  0
 40 39  1  0
 41 40  1  0
 43 44  1  0
 44 47  1  0
 44 46  1  0
 45 43  2  0
 48 23  1  0
 48 49  1  0
 50 48  1  0
 51 19  1  0
 52 51  1  0
 53 51  1  0
 55 54  1  0
 55 58  1  0
 56 55  2  0
 57 56  1  0
 59 61  1  0
 59 58  1  0
 60 71  2  0
 61 66  1  0
 62 70  1  0
 62 72  1  0
 63 69  1  0
 63 65  1  0
 64 70  1  0
 65 64  1  0
 66 65  2  0
 67 61  2  0
 68 67  1  0
 68 63  2  0
 69 62  1  0
 70 60  1  0
 72 74  2  0
 73 72  1  0
 75 73  1  0
 76 85  2  0
 76 81  1  0
 77 73  1  0
 77 81  1  0
 78 77  1  0
 79 80  1  0
 79 78  1  0
 80 76  1  0
 81 82  2  0
 82 83  1  0
 84 83  2  0
 85 84  1  0
 86 60  1  0
 86 91  1  0
 86 87  1  0
 87 90  1  1
 87 88  1  0
 89 87  1  0
 91 94  1  0
 92 96  1  0
 92 91  1  0
 93 92  2  0
 96 95  1  0
 98 96  1  0
 98 99  1  0
 98 97  1  0
M  ISO  4   7 100  21 100  58 101  59 101
M  END
>  <TORSDO>  (5) 
F 20

>  <SCORE>  (5) 
-13.758

>  <name>  (5) 
4

>  <ligand_id>  (5) 
4

>  <original_smiles>  (5) 
[H]N=C(C([H])([H])Oc1c([H])c([H])c2c(c1[H])C([H])([H])N(C(=O)C([H])(N([H])C(=O)C([H])(N([H])C([H])([H])[H])C([H])([H])[H])C(C([H])([H])[H])(C([H])([H])[H])C([H])([H])[H])C([H])(C(=O)N([H])C1([H])c3c([H])c([H])c([H])c([H])c3C([H])([H])C([H])([H])C1([H])[H])C2([H])[H])C([H])([H])N([H])C(c1c(N([H])[H])nc(N([H])C(=O)N2C([H])([H])C([H])([H])C([H])([H])C([H])(n3nc(-c4c([H])c([H])c(Oc5c([H])c([H])c(F)c([H])c5F)c([H])c4[H])c(C(=O)N([H])[H])c3N([H])[H])C2([H])[H])c([H])c1[H])=[N+]([H])[H]

>  <smiles>  (5) 
[H]N=C(C([H])([H])Oc1c([H])c([H])c2c(c1[H])C([H])([H])N(C(=O)C([H])(N([H])C(=O)C([H])(N([H])C([H])([H])[H])C([H])([H])[H])C(C([H])([H])[H])(C([H])([H])[H])C([H])([H])[H])C([H])(C(=O)N([H])C1([H])c3c([H])c([H])c([H])c([H])c3C([H])([H])C([H])([H])C1([H])[H])C2([H])[H])C([H])([H])N([H])C(c1c(N([H])[H])nc(N([H])C(=O)N2C([H])([H])C([H])([H])C([H])([H])C([H])(n3nc(-c4c([H])c([H])c(Oc5c([H])c([H])c(F)c([H])c5F)c([H])c4[H])c(C(=O)N([H])[H])c3N([H])[H])C2([H])[H])c([H])c1[H])=[N+]([H])[H]

$$$$
5:0:0
     RDKit          3D

 97105  0  0  1  0  0  0  0  0999 V2000
  -30.7320  -17.9460   19.4270 C   0  0  0  0  0  3  0  0  0  0  0  0
  -29.3520  -18.4130   21.1190 C   0  0  0  0  0  3  0  0  0  0  0  0
  -29.9680  -17.3410   20.4690 C   0  0  0  0  0  0  0  0  0  0  0  0
  -30.6090  -19.3220   19.5060 C   0  0  0  0  0  0  0  0  0  0  0  0
  -29.7480  -19.6690   20.5620 N   0  0  0  0  0  0  0  0  0  0  0  0
  -30.5840  -14.7760   20.3860 C   0  0  0  0  0  0  0  0  0  0  0  0
  -30.4030  -12.4920   19.3760 C   0  0  0  0  0  2  0  0  0  0  0  0
  -29.4750  -12.5770   18.1420 C   0  0  0  0  0  2  0  0  0  0  0  0
  -28.0010  -12.4070   18.5560 C   0  0  0  0  0  2  0  0  0  0  0  0
  -27.6200  -13.2880   19.7760 C   0  0  0  0  0  3  0  0  0  0  0  0
  -28.6680  -13.1810   20.9080 C   0  0  0  0  0  2  0  0  0  0  0  0
  -29.9740  -13.5390   20.3360 N   0  0  0  0  0  0  0  0  0  0  0  0
  -31.7530  -14.8920   20.0020 O   0  0  0  0  0  0  0  0  0  0  0  0
  -29.8170  -15.8820   20.7390 N   0  0  0  0  0  0  0  0  0  0  0  0
  -28.9500  -15.6250   21.1880 H   0  0  0  0  0  0  0  0  0  0  0  0
  -25.2230  -13.8860   20.4700 C   0  0  0  0  0  0  0  0  0  0  0  0
  -24.1520  -13.1160   20.8350 C   0  0  0  0  0  0  0  0  0  0  0  0
  -24.6150  -11.7640   20.8210 C   0  0  0  0  0  0  0  0  0  0  0  0
  -26.2690  -13.0040   20.2520 N   0  0  0  0  0  0  0  0  0  0  0  0
  -25.9090  -11.7230   20.5250 N   0  0  0  0  0  0  0  0  0  0  0  0
  -23.8850  -10.5040   21.0130 C   0  0  0  0  0  0  0  0  0  0  0  0
  -24.3070   -9.5410   21.9570 C   0  0  0  0  0  3  0  0  0  0  0  0
  -23.5760   -8.3470   22.1370 C   0  0  0  0  0  3  0  0  0  0  0  0
  -22.4110   -8.1060   21.3720 C   0  0  0  0  0  0  0  0  0  0  0  0
  -22.0070   -9.0560   20.4170 C   0  0  0  0  0  3  0  0  0  0  0  0
  -22.7380  -10.2420   20.2360 C   0  0  0  0  0  3  0  0  0  0  0  0
  -21.6520   -6.9630   21.4620 O   0  0  0  0  0  0  0  0  0  0  0  0
  -21.5920   -6.2280   22.6180 C   0  0  0  0  0  0  0  0  0  0  0  0
  -21.1500   -6.7890   23.8370 C   0  0  0  0  0  3  0  0  0  0  0  0
  -21.0370   -5.9800   24.9850 C   0  0  0  0  0  3  0  0  0  0  0  0
  -21.3550   -4.6110   24.9160 C   0  0  0  0  0  0  0  0  0  0  0  0
  -21.7880   -4.0480   23.7020 C   0  0  0  0  0  3  0  0  0  0  0  0
  -21.9030   -4.8550   22.5560 C   0  0  0  0  0  0  0  0  0  0  0  0
  -22.3020   -4.3030   21.3850 F   0  0  0  0  0  0  0  0  0  0  0  0
  -21.2380   -3.8320   26.0170 F   0  0  0  0  0  0  0  0  0  0  0  0
  -22.7520  -13.5970   21.0870 C   0  0  0  0  0  0  0  0  0  0  0  0
  -22.0100  -12.9060   21.9470 N   0  0  0  0  0  0  0  0  0  0  0  0
  -22.3240  -14.6210   20.5570 O   0  0  0  0  0  0  0  0  0  0  0  0
  -22.3690  -12.0780   22.3990 H   0  0  0  0  0  0  0  0  0  0  0  0
  -21.0710  -13.2110   22.1560 H   0  0  0  0  0  0  0  0  0  0  0  0
  -25.3890  -15.2550   20.2830 N   0  0  0  0  0  0  0  0  0  0  0  0
  -24.6190  -15.9080   20.3820 H   0  0  0  0  0  0  0  0  0  0  0  0
  -26.2380  -15.6920   19.9450 H   0  0  0  0  0  0  0  0  0  0  0  0
  -31.2290  -20.3510   18.7030 C   0  0  0  0  0  0  0  0  0  0  0  0
  -31.1480  -20.2700   17.3740 N   0  0  0  0  0  4  0  0  0  0  0  0
  -31.9160  -21.3520   19.2610 N   0  0  0  0  0  0  0  0  0  0  0  0
  -30.6350  -19.5070   16.9600 H   0  0  0  0  0  0  0  0  0  0  0  0
  -31.5720  -20.9320   16.7440 H   0  0  0  0  0  0  0  0  0  0  0  0
  -32.0770  -21.3380   20.2550 H   0  0  0  0  0  0  0  0  0  0  0  0
  -32.3670  -22.0760   18.7270 H   0  0  0  0  0  0  0  0  0  0  0  0
  -29.4440  -21.0760   21.1210 C   0  0  0  0  0  2  0  0  0  0  0  0
  -28.7840  -22.3000   20.3200 C   0  0  0  0  0  0  0  0  0  0  0  0
  -28.8500  -23.6660   20.6500 C   0  0  0  0  0  0  0  0  0  0  0  0
  -27.9700  -21.8220   19.1290 C   0  0  0  0  0  1  0  0  0  0  0  0
  -29.6620  -24.1660   21.8320 C   0  0  0  0  0  1  0  0  0  0  0  0
  -28.0800  -24.8680   19.9230 C   0  0  0  0  0  2  0  0  0  0  0  0
  -28.2730  -26.3220   20.3120 O   0  0  0  0  0  0  0  0  0  0  0  0
  -24.5940  -31.8730   23.2580 C   0  0  0  0  0  0  0  0  0  0  0  0
  -27.1940  -27.2460   20.2140 C   0  0  0  0  0  0  0  0  0  0  0  0
  -23.3970  -30.4820   21.6110 C   0  0  0  0  0  3  0  0  0  0  0  0
  -24.8510  -28.9270   20.1840 C   0  0  0  0  0  0  0  0  0  0  0  0
  -25.9460  -30.7700   21.4520 C   0  0  0  0  0  2  0  0  0  0  0  0
  -26.0210  -29.3870   20.8010 C   0  0  0  0  0  0  0  0  0  0  0  0
  -27.1920  -28.5560   20.8110 C   0  0  0  0  0  3  0  0  0  0  0  0
  -26.0060  -26.8800   19.5370 C   0  0  0  0  0  3  0  0  0  0  0  0
  -24.8500  -27.6820   19.5410 C   0  0  0  0  0  3  0  0  0  0  0  0
  -23.6200  -29.8120   20.2290 C   0  0  0  0  0  2  0  0  0  0  0  0
  -24.6650  -31.0610   22.1620 N   0  0  0  0  0  0  0  0  0  0  0  0
  -23.5080  -32.1550   23.7840 O   0  0  0  0  0  0  0  0  0  0  0  0
  -22.7220  -29.4650   22.5650 C   0  0  0  0  0  0  0  0  0  0  0  0
  -21.3970  -29.2880   22.4270 N   0  0  0  0  0  0  0  0  0  0  0  0
  -23.3920  -28.8420   23.3920 O   0  0  0  0  0  0  0  0  0  0  0  0
  -20.9130  -29.8440   21.7350 H   0  0  0  0  0  0  0  0  0  0  0  0
  -18.0180  -28.0790   22.8940 C   0  0  0  0  0  0  0  0  0  0  0  0
  -20.5720  -28.3510   23.1920 C   0  0  0  0  0  3  0  0  0  0  0  0
  -20.6850  -26.9160   22.6260 C   0  0  0  0  0  2  0  0  0  0  0  0
  -19.5980  -26.5850   21.6010 C   0  0  0  0  0  2  0  0  0  0  0  0
  -18.2080  -26.7280   22.2270 C   0  0  0  0  0  2  0  0  0  0  0  0
  -19.1280  -28.8480   23.3340 C   0  0  0  0  0  0  0  0  0  0  0  0
  -18.8970  -30.1110   23.9190 C   0  0  0  0  0  3  0  0  0  0  0  0
  -17.5880  -30.6090   24.0670 C   0  0  0  0  0  3  0  0  0  0  0  0
  -16.4920  -29.8370   23.6440 C   0  0  0  0  0  3  0  0  0  0  0  0
  -16.7070  -28.5750   23.0640 C   0  0  0  0  0  3  0  0  0  0  0  0
  -25.8740  -32.5020   23.8880 C   0  0  0  0  0  3  0  0  0  0  0  0
  -26.3740  -31.7380   25.1750 C   0  0  1  0  0  0  0  0  0  0  0  0
  -25.2680  -31.5140   26.2340 C   0  0  0  0  0  1  0  0  0  0  0  0
  -26.9520  -30.3530   24.8010 C   0  0  0  0  0  1  0  0  0  0  0  0
  -27.5230  -32.5290   25.8420 C   0  0  0  0  0  1  0  0  0  0  0  0
  -25.5700  -33.9050   24.2090 N   0  0  0  0  0  0  0  0  0  0  0  0
  -25.9040  -34.9540   23.4450 C   0  0  0  0  0  0  0  0  0  0  0  0
  -26.5730  -34.8410   22.4140 O   0  0  0  0  0  0  0  0  0  0  0  0
  -24.9760  -34.0660   25.0090 H   0  0  0  0  0  0  0  0  0  0  0  0
  -24.1830  -36.7530   23.0830 C   0  0  0  0  0  1  0  0  0  0  0  0
  -25.4240  -36.3460   23.8950 C   0  0  0  0  0  3  0  0  0  0  0  0
  -27.5610  -37.2300   24.7220 C   0  0  0  0  0  1  0  0  0  0  0  0
  -26.4610  -37.3950   23.7740 N   0  0  0  0  0  0  0  0  0  0  0  0
  -26.0590  -38.3180   23.9140 H   0  0  0  0  0  0  0  0  0  0  0  0
  1  4  2  0
  1  3  1  0
  3 14  1  0
  3  2  2  0
  4  5  1  0
  5  2  1  0
  5 51  1  0
  6 14  1  0
  7 12  1  0
  8  9  1  0
  8  7  1  0
 10  9  1  0
 10 19  1  0
 10 11  1  0
 12  6  1  0
 12 11  1  0
 13  6  2  0
 14 15  1  0
 16 17  2  0
 17 36  1  0
 18 17  1  0
 18 21  1  0
 19 16  1  0
 19 20  1  0
 20 18  2  0
 21 22  1  0
 22 23  2  0
 24 27  1  0
 24 23  1  0
 25 24  2  0
 26 25  1  0
 26 21  2  0
 27 28  1  0
 28 29  1  0
 29 30  2  0
 31 30  1  0
 31 35  1  0
 32 31  2  0
 33 28  2  0
 33 32  1  0
 34 33  1  0
 36 37  1  0
 37 40  1  0
 37 39  1  0
 38 36  2  0
 41 42  1  0
 41 16  1  0
 43 41  1  0
 44 46  1  0
 44  4  1  0
 45 44  2  0
 46 49  1  0
 47 45  1  0
 48 45  1  0
 50 46  1  0
 52 53  2  0
 52 51  1  0
 53 55  1  0
 54 52  1  0
 56 57  1  0
 56 53  1  0
 58 69  2  0
 59 57  1  0
 59 64  1  0
 60 68  1  0
 60 70  1  0
 61 67  1  0
 61 63  1  0
 62 68  1  0
 63 64  2  0
 63 62  1  0
 65 66  1  0
 65 59  2  0
 66 61  2  0
 67 60  1  0
 68 58  1  0
 70 72  2  0
 71 70  1  0
 73 71  1  0
 74 83  2  0
 74 79  1  0
 75 71  1  0
 75 79  1  0
 76 75  1  0
 77 78  1  0
 77 76  1  0
 78 74  1  0
 79 80  2  0
 80 81  1  0
 82 81  2  0
 83 82  1  0
 84 58  1  0
 84 89  1  0
 84 85  1  0
 85 88  1  1
 85 86  1  0
 87 85  1  0
 89 92  1  0
 90 94  1  0
 90 89  1  0
 91 90  2  0
 94 93  1  0
 96 94  1  0
 96 97  1  0
 96 95  1  0
M  ISO  4   6 100  14 100  56 101  57 101
M  END
>  <TORSDO>  (6) 
F 20

>  <SCORE>  (6) 
-13.891

>  <name>  (6) 
5

>  <ligand_id>  (6) 
5

>  <original_smiles>  (6) 
[H]c1c([H])c([H])c2c(c1[H])C([H])([H])C([H])([H])C([H])([H])C2([H])N([H])C(=O)C1([H])N(C(=O)C([H])(N([H])C(=O)C([H])(N([H])C([H])([H])[H])C([H])([H])[H])C(C([H])([H])[H])(C([H])([H])[H])C([H])([H])[H])C([H])([H])c2c([H])c(OC([H])([H])C(=C(C([H])([H])[H])C([H])([H])n3c([H])c(N([H])C(=O)N4C([H])([H])C([H])([H])C([H])([H])C([H])(n5nc(-c6c([H])c([H])c(Oc7c([H])c([H])c(F)c([H])c7F)c([H])c6[H])c(C(=O)N([H])[H])c5N([H])[H])C4([H])[H])c([H])c3C(N([H])[H])=[N+]([H])[H])C([H])([H])[H])c([H])c([H])c2C1([H])[H]

>  <smiles>  (6) 
[H]c1c([H])c([H])c2c(c1[H])C([H])([H])C([H])([H])C([H])([H])C2([H])N([H])C(=O)C1([H])N(C(=O)C([H])(N([H])C(=O)C([H])(N([H])C([H])([H])[H])C([H])([H])[H])C(C([H])([H])[H])(C([H])([H])[H])C([H])([H])[H])C([H])([H])c2c([H])c(OC([H])([H])C(=C(C([H])([H])[H])C([H])([H])n3c([H])c(N([H])C(=O)N4C([H])([H])C([H])([H])C([H])([H])C([H])(n5nc(-c6c([H])c([H])c(Oc7c([H])c([H])c(F)c([H])c7F)c([H])c6[H])c(C(=O)N([H])[H])c5N([H])[H])C4([H])[H])c([H])c3C(N([H])[H])=[N+]([H])[H])C([H])([H])[H])c([H])c([H])c2C1([H])[H]

$$$$
6:0:0
     RDKit          3D

 99107  0  0  1  0  0  0  0  0999 V2000
  -29.2500  -20.5360   19.9210 C   0  0  0  0  0  0  0  0  0  0  0  0
  -29.7610  -21.7830   19.9200 N   0  0  0  0  0  0  0  0  0  0  0  0
  -27.9290  -20.3700   19.9300 N   0  0  0  0  0  4  0  0  0  0  0  0
  -30.7650  -21.8620   20.0300 H   0  0  0  0  0  0  0  0  0  0  0  0
  -27.5510  -19.4460   19.7910 H   0  0  0  0  0  0  0  0  0  0  0  0
  -27.2950  -21.1120   20.1690 H   0  0  0  0  0  0  0  0  0  0  0  0
  -31.2620  -19.4740   18.9850 C   0  0  0  0  0  3  0  0  0  0  0  0
  -29.7500  -18.0860   20.3250 C   0  0  0  0  0  3  0  0  0  0  0  0
  -31.6430  -17.0840   19.1720 C   0  0  0  0  0  3  0  0  0  0  0  0
  -30.1100  -19.3530   19.7890 C   0  0  0  0  0  0  0  0  0  0  0  0
  -32.0270  -18.3440   18.6740 C   0  0  0  0  0  0  0  0  0  0  0  0
  -30.5100  -16.9240   20.0230 C   0  0  0  0  0  0  0  0  0  0  0  0
  -30.7410  -14.4650   20.4220 C   0  0  0  0  0  0  0  0  0  0  0  0
  -30.3500  -12.3000   19.3640 C   0  0  0  0  0  2  0  0  0  0  0  0
  -29.4330  -12.5140   18.1450 C   0  0  0  0  0  2  0  0  0  0  0  0
  -27.9550  -12.4000   18.5650 C   0  0  0  0  0  2  0  0  0  0  0  0
  -27.6140  -13.2550   19.8180 C   0  0  0  0  0  3  0  0  0  0  0  0
  -28.6710  -13.0930   20.9350 C   0  0  0  0  0  2  0  0  0  0  0  0
  -29.9960  -13.3320   20.3470 N   0  0  0  0  0  0  0  0  0  0  0  0
  -31.9440  -14.4560   20.1820 O   0  0  0  0  0  0  0  0  0  0  0  0
  -30.0710  -15.6360   20.5170 N   0  0  0  0  0  0  0  0  0  0  0  0
  -29.1110  -15.5680   20.8190 H   0  0  0  0  0  0  0  0  0  0  0  0
  -25.2150  -13.8550   20.5240 C   0  0  0  0  0  0  0  0  0  0  0  0
  -24.1480  -13.0820   20.8940 C   0  0  0  0  0  0  0  0  0  0  0  0
  -24.6120  -11.7310   20.8740 C   0  0  0  0  0  0  0  0  0  0  0  0
  -26.2620  -12.9750   20.3020 N   0  0  0  0  0  0  0  0  0  0  0  0
  -25.9050  -11.6940   20.5740 N   0  0  0  0  0  0  0  0  0  0  0  0
  -23.8860  -10.4680   21.0660 C   0  0  0  0  0  0  0  0  0  0  0  0
  -24.3260   -9.4950   21.9900 C   0  0  0  0  0  3  0  0  0  0  0  0
  -23.5990   -8.2980   22.1710 C   0  0  0  0  0  3  0  0  0  0  0  0
  -22.4170   -8.0660   21.4270 C   0  0  0  0  0  0  0  0  0  0  0  0
  -21.9960   -9.0280   20.4920 C   0  0  0  0  0  3  0  0  0  0  0  0
  -22.7240  -10.2150   20.3090 C   0  0  0  0  0  3  0  0  0  0  0  0
  -21.6600   -6.9240   21.5180 O   0  0  0  0  0  0  0  0  0  0  0  0
  -21.6350   -6.1650   22.6620 C   0  0  0  0  0  0  0  0  0  0  0  0
  -21.2490   -6.7080   23.9070 C   0  0  0  0  0  3  0  0  0  0  0  0
  -21.1710   -5.8760   25.0420 C   0  0  0  0  0  3  0  0  0  0  0  0
  -21.4700   -4.5050   24.9330 C   0  0  0  0  0  0  0  0  0  0  0  0
  -21.8500   -3.9620   23.6930 C   0  0  0  0  0  3  0  0  0  0  0  0
  -21.9300   -4.7900   22.5590 C   0  0  0  0  0  0  0  0  0  0  0  0
  -22.2750   -4.2590   21.3620 F   0  0  0  0  0  0  0  0  0  0  0  0
  -21.3880   -3.7030   26.0220 F   0  0  0  0  0  0  0  0  0  0  0  0
  -22.7470  -13.5590   21.1540 C   0  0  0  0  0  0  0  0  0  0  0  0
  -22.0150  -12.8680   22.0200 N   0  0  0  0  0  0  0  0  0  0  0  0
  -22.3110  -14.5790   20.6220 O   0  0  0  0  0  0  0  0  0  0  0  0
  -22.3800  -12.0460   22.4750 H   0  0  0  0  0  0  0  0  0  0  0  0
  -21.0740  -13.1710   22.2330 H   0  0  0  0  0  0  0  0  0  0  0  0
  -25.3790  -15.2240   20.3360 N   0  0  0  0  0  0  0  0  0  0  0  0
  -24.6080  -15.8760   20.4380 H   0  0  0  0  0  0  0  0  0  0  0  0
  -26.2230  -15.6590   19.9850 H   0  0  0  0  0  0  0  0  0  0  0  0
  -33.1420  -18.4710   17.8440 N   0  0  0  0  0  0  0  0  0  0  0  0
  -33.2150  -19.2940   17.2540 H   0  0  0  0  0  0  0  0  0  0  0  0
  -33.5070  -17.6370   17.3950 H   0  0  0  0  0  0  0  0  0  0  0  0
  -29.0730  -22.9800   19.3710 C   0  0  0  0  0  2  0  0  0  0  0  0
  -29.2380  -24.2590   20.1940 C   0  0  0  0  0  0  0  0  0  0  0  0
  -30.1600  -24.4450   21.0430 N   0  0  0  0  0  0  0  0  0  0  0  0
  -30.7610  -23.6320   21.1000 H   0  0  0  0  0  0  0  0  0  0  0  0
  -28.1260  -25.2540   19.8880 C   0  0  0  0  0  2  0  0  0  0  0  0
  -28.3370  -26.6430   20.2200 O   0  0  0  0  0  0  0  0  0  0  0  0
  -24.5880  -31.8980   23.2620 C   0  0  0  0  0  0  0  0  0  0  0  0
  -27.1880  -27.4220   20.1770 C   0  0  0  0  0  0  0  0  0  0  0  0
  -23.3720  -30.5060   21.6250 C   0  0  0  0  0  3  0  0  0  0  0  0
  -24.8120  -28.9720   20.1940 C   0  0  0  0  0  0  0  0  0  0  0  0
  -25.9060  -30.8410   21.4280 C   0  0  0  0  0  2  0  0  0  0  0  0
  -25.9790  -29.4720   20.7820 C   0  0  0  0  0  0  0  0  0  0  0  0
  -27.1710  -28.7050   20.7740 C   0  0  0  0  0  3  0  0  0  0  0  0
  -25.9920  -26.9550   19.5700 C   0  0  0  0  0  3  0  0  0  0  0  0
  -24.8120  -27.7120   19.5860 C   0  0  0  0  0  3  0  0  0  0  0  0
  -23.5760  -29.8390   20.2420 C   0  0  0  0  0  2  0  0  0  0  0  0
  -24.6400  -31.0960   22.1620 N   0  0  0  0  0  0  0  0  0  0  0  0
  -23.5080  -32.1780   23.8010 O   0  0  0  0  0  0  0  0  0  0  0  0
  -22.7190  -29.4810   22.5810 C   0  0  0  0  0  0  0  0  0  0  0  0
  -21.3940  -29.3010   22.4510 N   0  0  0  0  0  0  0  0  0  0  0  0
  -23.4010  -28.8530   23.3950 O   0  0  0  0  0  0  0  0  0  0  0  0
  -20.9070  -29.8600   21.7640 H   0  0  0  0  0  0  0  0  0  0  0  0
  -18.0140  -28.1190   22.9470 C   0  0  0  0  0  0  0  0  0  0  0  0
  -20.5730  -28.3690   23.2230 C   0  0  0  0  0  3  0  0  0  0  0  0
  -20.6720  -26.9360   22.6520 C   0  0  0  0  0  2  0  0  0  0  0  0
  -19.5700  -26.6130   21.6380 C   0  0  0  0  0  2  0  0  0  0  0  0
  -18.1870  -26.7650   22.2770 C   0  0  0  0  0  2  0  0  0  0  0  0
  -19.1350  -28.8780   23.3760 C   0  0  0  0  0  0  0  0  0  0  0  0
  -18.9210  -30.1450   23.9620 C   0  0  0  0  0  3  0  0  0  0  0  0
  -17.6180  -30.6530   24.1220 C   0  0  0  0  0  3  0  0  0  0  0  0
  -16.5120  -29.8910   23.7090 C   0  0  0  0  0  3  0  0  0  0  0  0
  -16.7100  -28.6260   23.1280 C   0  0  0  0  0  3  0  0  0  0  0  0
  -25.8780  -32.5220   23.8770 C   0  0  0  0  0  3  0  0  0  0  0  0
  -25.5770  -33.9220   24.2050 N   0  0  0  0  0  0  0  0  0  0  0  0
  -25.9090  -34.9700   23.4410 C   0  0  0  0  0  0  0  0  0  0  0  0
  -26.5740  -34.8610   22.4060 O   0  0  0  0  0  0  0  0  0  0  0  0
  -24.9850  -34.0800   25.0080 H   0  0  0  0  0  0  0  0  0  0  0  0
  -24.1850  -36.7650   23.0860 C   0  0  0  0  0  1  0  0  0  0  0  0
  -25.4280  -36.3600   23.8940 C   0  0  0  0  0  3  0  0  0  0  0  0
  -27.5680  -37.2390   24.7130 C   0  0  0  0  0  1  0  0  0  0  0  0
  -26.4630  -37.4100   23.7740 N   0  0  0  0  0  0  0  0  0  0  0  0
  -26.0610  -38.3320   23.9220 H   0  0  0  0  0  0  0  0  0  0  0  0
  -26.3960  -31.7470   25.1510 C   0  0  1  0  0  0  0  0  0  0  0  0
  -25.3050  -31.5140   26.2200 C   0  0  0  0  0  1  0  0  0  0  0  0
  -26.9720  -30.3670   24.7540 C   0  0  0  0  0  1  0  0  0  0  0  0
  -27.5530  -32.5350   25.8090 C   0  0  0  0  0  1  0  0  0  0  0  0
  1  3  2  0
  2  1  1  0
  2  4  1  0
  3  6  1  0
  5  3  1  0
  7 10  1  0
  9 12  2  0
 10  1  1  0
 10  8  2  0
 11  7  2  0
 11  9  1  0
 12  8  1  0
 12 21  1  0
 13 21  1  0
 14 19  1  0
 15 16  1  0
 15 14  1  0
 17 16  1  0
 17 26  1  0
 17 18  1  0
 19 13  1  0
 19 18  1  0
 20 13  2  0
 21 22  1  0
 23 24  2  0
 24 43  1  0
 25 24  1  0
 25 28  1  0
 26 23  1  0
 26 27  1  0
 27 25  2  0
 28 29  1  0
 29 30  2  0
 31 34  1  0
 31 30  1  0
 32 31  2  0
 33 32  1  0
 33 28  2  0
 34 35  1  0
 35 36  1  0
 36 37  2  0
 38 37  1  0
 38 42  1  0
 39 38  2  0
 40 35  2  0
 40 39  1  0
 41 40  1  0
 43 44  1  0
 44 47  1  0
 44 46  1  0
 45 43  2  0
 48 49  1  0
 48 23  1  0
 50 48  1  0
 51 11  1  0
 52 51  1  0
 53 51  1  0
 54  2  1  0
 54 55  1  0
 55 56  2  0
 56 57  1  0
 58 55  1  0
 58 59  1  0
 60 71  2  0
 61 59  1  0
 61 66  1  0
 62 70  1  0
 62 72  1  0
 63 69  1  0
 63 65  1  0
 64 70  1  0
 65 64  1  0
 66 65  2  0
 67 68  1  0
 67 61  2  0
 68 63  2  0
 69 62  1  0
 70 60  1  0
 72 74  2  0
 73 72  1  0
 75 73  1  0
 76 85  2  0
 76 81  1  0
 77 73  1  0
 77 81  1  0
 78 77  1  0
 79 80  1  0
 79 78  1  0
 80 76  1  0
 81 82  2  0
 82 83  1  0
 84 83  2  0
 85 84  1  0
 86 60  1  0
 86 87  1  0
 86 96  1  0
 87 90  1  0
 88 92  1  0
 88 87  1  0
 89 88  2  0
 92 91  1  0
 94 92  1  0
 94 95  1  0
 94 93  1  0
 96 99  1  1
 96 97  1  0
 98 96  1  0
M  ISO  4  13 100  21 100  58 101  59 101
M  END
>  <TORSDO>  (7) 
F 21

>  <SCORE>  (7) 
-13.886

>  <name>  (7) 
6

>  <ligand_id>  (7) 
6

>  <original_smiles>  (7) 
[H]N=C(C([H])([H])Oc1c([H])c([H])c2c(c1[H])C([H])([H])N(C(=O)C([H])(N([H])C(=O)C([H])(N([H])C([H])([H])[H])C([H])([H])[H])C(C([H])([H])[H])(C([H])([H])[H])C([H])([H])[H])C([H])(C(=O)N([H])C1([H])c3c([H])c([H])c([H])c([H])c3C([H])([H])C([H])([H])C1([H])[H])C2([H])[H])C([H])([H])N([H])C(c1c([H])c(N([H])[H])c([H])c(N([H])C(=O)N2C([H])([H])C([H])([H])C([H])([H])C([H])(n3nc(-c4c([H])c([H])c(Oc5c([H])c([H])c(F)c([H])c5F)c([H])c4[H])c(C(=O)N([H])[H])c3N([H])[H])C2([H])[H])c1[H])=[N+]([H])[H]

>  <smiles>  (7) 
[H]N=C(C([H])([H])Oc1c([H])c([H])c2c(c1[H])C([H])([H])N(C(=O)C([H])(N([H])C(=O)C([H])(N([H])C([H])([H])[H])C([H])([H])[H])C(C([H])([H])[H])(C([H])([H])[H])C([H])([H])[H])C([H])(C(=O)N([H])C1([H])c3c([H])c([H])c([H])c([H])c3C([H])([H])C([H])([H])C1([H])[H])C2([H])[H])C([H])([H])N([H])C(c1c([H])c(N([H])[H])c([H])c(N([H])C(=O)N2C([H])([H])C([H])([H])C([H])([H])C([H])(n3nc(-c4c([H])c([H])c(Oc5c([H])c([H])c(F)c([H])c5F)c([H])c4[H])c(C(=O)N([H])[H])c3N([H])[H])C2([H])[H])c1[H])=[N+]([H])[H]

$$$$
7:0:0
     RDKit          3D

100109  0  0  1  0  0  0  0  0999 V2000
  -28.8950  -23.2230   21.3730 C   0  0  0  0  0  0  0  0  0  0  0  0
  -29.0410  -20.7000   21.0460 C   0  0  0  0  0  3  0  0  0  0  0  0
  -29.3350  -23.9410   19.1510 C   0  0  0  0  0  2  0  0  0  0  0  0
  -29.7890  -22.4780   19.3450 C   0  0  0  0  0  2  0  0  0  0  0  0
  -29.1610  -24.5100   20.5590 C   0  0  0  0  0  3  0  0  0  0  0  0
  -29.2090  -22.0110   20.6250 N   0  0  0  0  0  0  0  0  0  0  0  0
  -28.5710  -20.4700   22.2750 N   0  0  0  0  0  0  0  0  0  0  0  0
  -28.4310  -23.2270   22.5190 O   0  0  0  0  0  0  0  0  0  0  0  0
  -28.3430  -19.5340   22.5710 H   0  0  0  0  0  0  0  0  0  0  0  0
  -28.3520  -21.2600   22.8690 H   0  0  0  0  0  0  0  0  0  0  0  0
  -28.8900  -19.4020   18.8940 C   0  0  0  0  0  3  0  0  0  0  0  0
  -29.8270  -18.2690   20.8380 C   0  0  0  0  0  3  0  0  0  0  0  0
  -29.6300  -17.0780   18.7190 C   0  0  0  0  0  3  0  0  0  0  0  0
  -29.3020  -19.4640   20.2440 C   0  0  0  0  0  0  0  0  0  0  0  0
  -29.0850  -18.2370   18.1290 C   0  0  0  0  0  0  0  0  0  0  0  0
  -29.9710  -17.0580   20.0930 C   0  0  0  0  0  0  0  0  0  0  0  0
  -30.9860  -14.7790   20.1580 C   0  0  0  0  0  0  0  0  0  0  0  0
  -30.6970  -12.5850   19.0570 C   0  0  0  0  0  2  0  0  0  0  0  0
  -29.7410  -12.7850   17.8610 C   0  0  0  0  0  2  0  0  0  0  0  0
  -28.2720  -12.6500   18.3080 C   0  0  0  0  0  2  0  0  0  0  0  0
  -27.9540  -13.4800   19.5800 C   0  0  0  0  0  3  0  0  0  0  0  0
  -29.0270  -13.2670   20.6740 C   0  0  0  0  0  2  0  0  0  0  0  0
  -30.3420  -13.5760   20.0890 N   0  0  0  0  0  0  0  0  0  0  0  0
  -32.0870  -14.9680   19.6330 O   0  0  0  0  0  0  0  0  0  0  0  0
  -30.3020  -15.8020   20.7290 N   0  0  0  0  0  0  0  0  0  0  0  0
  -29.6200  -15.5010   21.4090 H   0  0  0  0  0  0  0  0  0  0  0  0
  -25.5730  -14.0950   20.3300 C   0  0  0  0  0  0  0  0  0  0  0  0
  -24.5080  -13.3280   20.7150 C   0  0  0  0  0  0  0  0  0  0  0  0
  -24.9590  -11.9730   20.6690 C   0  0  0  0  0  0  0  0  0  0  0  0
  -26.6090  -13.2090   20.0770 N   0  0  0  0  0  0  0  0  0  0  0  0
  -26.2430  -11.9270   20.3370 N   0  0  0  0  0  0  0  0  0  0  0  0
  -24.2290  -10.7150   20.8680 C   0  0  0  0  0  0  0  0  0  0  0  0
  -24.6240   -9.7830   21.8530 C   0  0  0  0  0  3  0  0  0  0  0  0
  -23.8980   -8.5870   22.0390 C   0  0  0  0  0  3  0  0  0  0  0  0
  -22.7610   -8.3160   21.2410 C   0  0  0  0  0  0  0  0  0  0  0  0
  -22.3870   -9.2370   20.2470 C   0  0  0  0  0  3  0  0  0  0  0  0
  -23.1130  -10.4250   20.0590 C   0  0  0  0  0  3  0  0  0  0  0  0
  -22.0100   -7.1690   21.3320 O   0  0  0  0  0  0  0  0  0  0  0  0
  -21.8430   -6.5120   22.5240 C   0  0  0  0  0  0  0  0  0  0  0  0
  -21.2700   -7.1430   23.6510 C   0  0  0  0  0  3  0  0  0  0  0  0
  -21.0540   -6.4090   24.8330 C   0  0  0  0  0  3  0  0  0  0  0  0
  -21.3990   -5.0460   24.8910 C   0  0  0  0  0  0  0  0  0  0  0  0
  -21.9640   -4.4150   23.7680 C   0  0  0  0  0  3  0  0  0  0  0  0
  -22.1830   -5.1460   22.5870 C   0  0  0  0  0  0  0  0  0  0  0  0
  -22.7080   -4.5270   21.5030 F   0  0  0  0  0  0  0  0  0  0  0  0
  -21.1820   -4.3390   26.0240 F   0  0  0  0  0  0  0  0  0  0  0  0
  -23.1200  -13.8130   21.0180 C   0  0  0  0  0  0  0  0  0  0  0  0
  -22.4100  -13.1270   21.9060 N   0  0  0  0  0  0  0  0  0  0  0  0
  -22.6730  -14.8350   20.5000 O   0  0  0  0  0  0  0  0  0  0  0  0
  -22.7840  -12.2980   22.3480 H   0  0  0  0  0  0  0  0  0  0  0  0
  -21.4790  -13.4340   22.1480 H   0  0  0  0  0  0  0  0  0  0  0  0
  -25.7450  -15.4660   20.1550 N   0  0  0  0  0  0  0  0  0  0  0  0
  -24.9830  -16.1230   20.2720 H   0  0  0  0  0  0  0  0  0  0  0  0
  -26.5890  -15.9010   19.8080 H   0  0  0  0  0  0  0  0  0  0  0  0
  -28.6910  -18.2290   16.7910 N   0  0  0  0  0  0  0  0  0  0  0  0
  -28.5820  -19.1220   16.3200 H   0  0  0  0  0  0  0  0  0  0  0  0
  -29.0780  -17.5140   16.1800 H   0  0  0  0  0  0  0  0  0  0  0  0
  -28.0540  -25.5010   20.6900 N   0  0  0  0  0  0  0  0  0  0  0  0
  -27.8960  -25.7350   21.6660 H   0  0  0  0  0  0  0  0  0  0  0  0
  -28.4080  -26.7730   20.0250 O   0  0  0  0  0  0  0  0  0  0  0  0
  -24.6360  -31.9470   23.2270 C   0  0  0  0  0  0  0  0  0  0  0  0
  -27.2860  -27.5860   20.0090 C   0  0  0  0  0  0  0  0  0  0  0  0
  -23.4270  -30.5690   21.5660 C   0  0  0  0  0  3  0  0  0  0  0  0
  -24.8840  -29.0930   20.0730 C   0  0  0  0  0  0  0  0  0  0  0  0
  -25.9500  -30.9610   21.3470 C   0  0  0  0  0  2  0  0  0  0  0  0
  -26.0450  -29.6050   20.6680 C   0  0  0  0  0  0  0  0  0  0  0  0
  -27.2500  -28.8570   20.6380 C   0  0  0  0  0  3  0  0  0  0  0  0
  -26.1140  -27.1130   19.3810 C   0  0  0  0  0  3  0  0  0  0  0  0
  -24.9160  -27.8480   19.4230 C   0  0  0  0  0  3  0  0  0  0  0  0
  -23.6260  -29.9300   20.1660 C   0  0  0  0  0  2  0  0  0  0  0  0
  -24.6900  -31.1750   22.1030 N   0  0  0  0  0  0  0  0  0  0  0  0
  -23.5590  -32.1900   23.7890 O   0  0  0  0  0  0  0  0  0  0  0  0
  -22.8050  -29.5150   22.5110 C   0  0  0  0  0  0  0  0  0  0  0  0
  -21.4830  -29.3090   22.3920 N   0  0  0  0  0  0  0  0  0  0  0  0
  -23.5080  -28.8870   23.3070 O   0  0  0  0  0  0  0  0  0  0  0  0
  -20.9760  -29.8680   21.7200 H   0  0  0  0  0  0  0  0  0  0  0  0
  -18.1400  -28.0260   22.8880 C   0  0  0  0  0  0  0  0  0  0  0  0
  -20.6920  -28.3390   23.1510 C   0  0  0  0  0  3  0  0  0  0  0  0
  -20.8240  -26.9210   22.5470 C   0  0  0  0  0  2  0  0  0  0  0  0
  -19.7250  -26.5920   21.5330 C   0  0  0  0  0  2  0  0  0  0  0  0
  -18.3440  -26.6920   22.1870 C   0  0  0  0  0  2  0  0  0  0  0  0
  -19.2430  -28.8060   23.3260 C   0  0  0  0  0  0  0  0  0  0  0  0
  -18.9970  -30.0540   23.9400 C   0  0  0  0  0  3  0  0  0  0  0  0
  -17.6820  -30.5200   24.1230 C   0  0  0  0  0  3  0  0  0  0  0  0
  -16.5940  -29.7350   23.7030 C   0  0  0  0  0  3  0  0  0  0  0  0
  -16.8230  -28.4900   23.0910 C   0  0  0  0  0  3  0  0  0  0  0  0
  -25.9220  -32.5830   23.8420 C   0  0  0  0  0  3  0  0  0  0  0  0
  -26.4500  -31.8120   25.1140 C   0  0  1  0  0  0  0  0  0  0  0  0
  -25.3640  -31.5580   26.1850 C   0  0  0  0  0  1  0  0  0  0  0  0
  -27.0470  -30.4420   24.7150 C   0  0  0  0  0  1  0  0  0  0  0  0
  -27.5960  -32.6150   25.7720 C   0  0  0  0  0  1  0  0  0  0  0  0
  -25.6100  -33.9800   24.1760 N   0  0  0  0  0  0  0  0  0  0  0  0
  -25.9460  -35.0350   23.4220 C   0  0  0  0  0  0  0  0  0  0  0  0
  -26.6210  -34.9350   22.3940 O   0  0  0  0  0  0  0  0  0  0  0  0
  -25.0130  -34.1310   24.9750 H   0  0  0  0  0  0  0  0  0  0  0  0
  -24.2270  -36.8320   23.0480 C   0  0  0  0  0  1  0  0  0  0  0  0
  -25.4530  -36.4210   23.8780 C   0  0  0  0  0  3  0  0  0  0  0  0
  -27.5730  -37.2970   24.7540 C   0  0  0  0  0  1  0  0  0  0  0  0
  -26.4890  -37.4730   23.7900 N   0  0  0  0  0  0  0  0  0  0  0  0
  -26.0830  -38.3930   23.9350 H   0  0  0  0  0  0  0  0  0  0  0  0
  1  8  2  0
  2  7  1  0
  3  4  1  0
  3  5  1  0
  4  6  1  0
  5 58  1  0
  5  1  1  0
  6  2  1  0
  6  1  1  0
  7  9  1  0
  7 10  1  0
 11 14  1  0
 13 16  2  0
 14 12  2  0
 14  2  1  0
 15 13  1  0
 15 11  2  0
 16 25  1  0
 16 12  1  0
 17 25  1  0
 18 23  1  0
 19 20  1  0
 19 18  1  0
 21 20  1  0
 21 30  1  0
 21 22  1  0
 23 17  1  0
 23 22  1  0
 24 17  2  0
 25 26  1  0
 27 28  2  0
 28 47  1  0
 29 28  1  0
 29 32  1  0
 30 27  1  0
 30 31  1  0
 31 29  2  0
 32 33  1  0
 33 34  2  0
 35 38  1  0
 35 34  1  0
 36 35  2  0
 37 36  1  0
 37 32  2  0
 38 39  1  0
 39 44  2  0
 39 40  1  0
 40 41  2  0
 41 42  1  0
 42 46  1  0
 43 42  2  0
 44 43  1  0
 45 44  1  0
 47 48  1  0
 48 51  1  0
 48 50  1  0
 49 47  2  0
 52 53  1  0
 52 27  1  0
 54 52  1  0
 55 15  1  0
 56 55  1  0
 57 55  1  0
 58 59  1  0
 60 58  1  0
 61 72  2  0
 62 60  1  0
 62 67  1  0
 63 71  1  0
 63 73  1  0
 64 70  1  0
 64 66  1  0
 65 71  1  0
 66 65  1  0
 67 66  2  0
 68 69  1  0
 68 62  2  0
 69 64  2  0
 70 63  1  0
 71 61  1  0
 73 75  2  0
 74 73  1  0
 76 74  1  0
 77 86  2  0
 77 82  1  0
 78 74  1  0
 78 82  1  0
 79 78  1  0
 80 81  1  0
 80 79  1  0
 81 77  1  0
 82 83  2  0
 83 84  1  0
 85 84  2  0
 86 85  1  0
 87 61  1  0
 87 92  1  0
 87 88  1  0
 88 91  1  1
 88 89  1  0
 90 88  1  0
 92 95  1  0
 93 97  1  0
 93 92  1  0
 94 93  2  0
 97 96  1  0
 99 97  1  0
 99100  1  0
 99 98  1  0
M  ISO  4  17 100  25 100  58 101  60 101
M  END
>  <TORSDO>  (8) 
F 19

>  <SCORE>  (8) 
-13.181

>  <name>  (8) 
7

>  <ligand_id>  (8) 
7

>  <original_smiles>  (8) 
[H]c1c([H])c([H])c2c(c1[H])C([H])([H])C([H])([H])C([H])([H])C2([H])N([H])C(=O)C1([H])N(C(=O)C([H])(N([H])C(=O)C([H])(N([H])C([H])([H])[H])C([H])([H])[H])C(C([H])([H])[H])(C([H])([H])[H])C([H])([H])[H])C([H])([H])c2c([H])c(ON([H])C3([H])C(=O)N(C(c4c([H])c(N([H])[H])c([H])c(N([H])C(=O)N5C([H])([H])C([H])([H])C([H])([H])C([H])(n6nc(-c7c([H])c([H])c(Oc8c([H])c([H])c(F)c([H])c8F)c([H])c7[H])c(C(=O)N([H])[H])c6N([H])[H])C5([H])[H])c4[H])=[N+]([H])[H])C([H])([H])C3([H])[H])c([H])c([H])c2C1([H])[H]

>  <smiles>  (8) 
[H]c1c([H])c([H])c2c(c1[H])C([H])([H])C([H])([H])C([H])([H])C2([H])N([H])C(=O)C1([H])N(C(=O)C([H])(N([H])C(=O)C([H])(N([H])C([H])([H])[H])C([H])([H])[H])C(C([H])([H])[H])(C([H])([H])[H])C([H])([H])[H])C([H])([H])c2c([H])c(ON([H])C3([H])C(=O)N(C(c4c([H])c(N([H])[H])c([H])c(N([H])C(=O)N5C([H])([H])C([H])([H])C([H])([H])C([H])(n6nc(-c7c([H])c([H])c(Oc8c([H])c([H])c(F)c([H])c8F)c([H])c7[H])c(C(=O)N([H])[H])c6N([H])[H])C5([H])[H])c4[H])=[N+]([H])[H])C([H])([H])C3([H])[H])c([H])c([H])c2C1([H])[H]

$$$$
8:0:0
     RDKit          3D

 95104  0  0  1  0  0  0  0  0999 V2000
  -29.4660  -24.2470   19.5760 C   0  0  0  0  0  0  0  0  0  0  0  0
  -31.1140  -20.6110   19.4520 C   0  0  0  0  0  3  0  0  0  0  0  0
  -29.4950  -22.6710   19.8360 C   0  0  0  0  0  2  0  0  0  0  0  0
  -31.1770  -23.9910   17.9980 C   0  0  0  0  0  2  0  0  0  0  0  0
  -31.8080  -22.9120   18.8860 C   0  0  0  0  0  2  0  0  0  0  0  0
  -30.2470  -24.8160   18.7400 N   0  0  0  0  0  0  0  0  0  0  0  0
  -30.7690  -21.9670   19.3870 N   0  0  0  0  0  0  0  0  0  0  0  0
  -32.3740  -20.2660   19.1200 N   0  0  0  0  0  0  0  0  0  0  0  0
  -32.6820  -19.3130   19.2320 H   0  0  0  0  0  0  0  0  0  0  0  0
  -33.0590  -20.9460   18.8310 H   0  0  0  0  0  0  0  0  0  0  0  0
  -30.6860  -18.0670   19.6710 C   0  0  0  0  0  3  0  0  0  0  0  0
  -28.8050  -17.7670   21.0100 C   0  0  0  0  0  3  0  0  0  0  0  0
  -29.8280  -17.1250   20.3550 C   0  0  0  0  0  0  0  0  0  0  0  0
  -30.3400  -19.4130   19.8620 C   0  0  0  0  0  0  0  0  0  0  0  0
  -28.8990  -19.5140   20.8430 S   0  0  0  0  0  0  0  0  0  0  0  0
  -30.7280  -14.7070   19.8980 C   0  0  0  0  0  0  0  0  0  0  0  0
  -30.5630  -12.4300   18.8980 C   0  0  0  0  0  2  0  0  0  0  0  0
  -29.5120  -12.4660   17.7650 C   0  0  0  0  0  2  0  0  0  0  0  0
  -28.0850  -12.2750   18.3210 C   0  0  0  0  0  2  0  0  0  0  0  0
  -27.7950  -13.1730   19.5520 C   0  0  0  0  0  3  0  0  0  0  0  0
  -28.9430  -13.0590   20.5820 C   0  0  0  0  0  2  0  0  0  0  0  0
  -30.1880  -13.4460   19.8980 N   0  0  0  0  0  0  0  0  0  0  0  0
  -31.8230  -14.9490   19.3840 O   0  0  0  0  0  0  0  0  0  0  0  0
  -29.8890  -15.6680   20.3920 N   0  0  0  0  0  0  0  0  0  0  0  0
  -29.0860  -15.2410   20.8270 H   0  0  0  0  0  0  0  0  0  0  0  0
  -25.4870  -13.7470   20.5250 C   0  0  0  0  0  0  0  0  0  0  0  0
  -24.4550  -12.9610   20.9600 C   0  0  0  0  0  0  0  0  0  0  0  0
  -24.8950  -11.6120   20.8020 C   0  0  0  0  0  0  0  0  0  0  0  0
  -26.4960  -12.8750   20.1470 N   0  0  0  0  0  0  0  0  0  0  0  0
  -26.1490  -11.5830   20.3680 N   0  0  0  0  0  0  0  0  0  0  0  0
  -24.1760  -10.3440   20.9790 C   0  0  0  0  0  0  0  0  0  0  0  0
  -24.6090   -9.3720   21.9090 C   0  0  0  0  0  3  0  0  0  0  0  0
  -23.8900   -8.1680   22.0740 C   0  0  0  0  0  3  0  0  0  0  0  0
  -22.7240   -7.9270   21.3090 C   0  0  0  0  0  0  0  0  0  0  0  0
  -22.3110   -8.8870   20.3680 C   0  0  0  0  0  3  0  0  0  0  0  0
  -23.0310  -10.0820   20.2010 C   0  0  0  0  0  3  0  0  0  0  0  0
  -21.9780   -6.7770   21.3850 O   0  0  0  0  0  0  0  0  0  0  0  0
  -21.8220   -6.0990   22.5680 C   0  0  0  0  0  0  0  0  0  0  0  0
  -21.2290   -6.7020   23.7000 C   0  0  0  0  0  3  0  0  0  0  0  0
  -21.0240   -5.9480   24.8730 C   0  0  0  0  0  3  0  0  0  0  0  0
  -21.3990   -4.5910   24.9130 C   0  0  0  0  0  0  0  0  0  0  0  0
  -21.9830   -3.9880   23.7860 C   0  0  0  0  0  3  0  0  0  0  0  0
  -22.1920   -4.7400   22.6160 C   0  0  0  0  0  0  0  0  0  0  0  0
  -22.7360   -4.1470   21.5260 F   0  0  0  0  0  0  0  0  0  0  0  0
  -21.1950   -3.8640   26.0360 F   0  0  0  0  0  0  0  0  0  0  0  0
  -23.0990  -13.4290   21.4010 C   0  0  0  0  0  0  0  0  0  0  0  0
  -22.4520  -12.6900   22.2940 N   0  0  0  0  0  0  0  0  0  0  0  0
  -22.6230  -14.4870   20.9890 O   0  0  0  0  0  0  0  0  0  0  0  0
  -22.8510  -11.8340   22.6520 H   0  0  0  0  0  0  0  0  0  0  0  0
  -21.5460  -12.9860   22.6300 H   0  0  0  0  0  0  0  0  0  0  0  0
  -25.6360  -15.1250   20.3950 N   0  0  0  0  0  0  0  0  0  0  0  0
  -24.8190  -15.7240   20.4510 H   0  0  0  0  0  0  0  0  0  0  0  0
  -26.3920  -15.5530   19.8740 H   0  0  0  0  0  0  0  0  0  0  0  0
  -28.4450  -25.1500   20.3490 C   0  0  0  0  0  2  0  0  0  0  0  0
  -28.5600  -26.6140   20.1310 O   0  0  0  0  0  0  0  0  0  0  0  0
  -24.6790  -31.8680   23.2080 C   0  0  0  0  0  0  0  0  0  0  0  0
  -27.4010  -27.4010   20.1270 C   0  0  0  0  0  0  0  0  0  0  0  0
  -23.5120  -30.4630   21.5450 C   0  0  0  0  0  3  0  0  0  0  0  0
  -24.9980  -28.9500   20.1210 C   0  0  0  0  0  0  0  0  0  0  0  0
  -26.0450  -30.8320   21.3840 C   0  0  0  0  0  2  0  0  0  0  0  0
  -26.1530  -29.4620   20.7270 C   0  0  0  0  0  0  0  0  0  0  0  0
  -27.3570  -28.6990   20.7180 C   0  0  0  0  0  3  0  0  0  0  0  0
  -26.2250  -26.9380   19.4950 C   0  0  0  0  0  3  0  0  0  0  0  0
  -25.0370  -27.6930   19.4980 C   0  0  0  0  0  3  0  0  0  0  0  0
  -23.7460  -29.8010   20.1620 C   0  0  0  0  0  2  0  0  0  0  0  0
  -24.7630  -31.0710   22.1020 N   0  0  0  0  0  0  0  0  0  0  0  0
  -23.5870  -32.1230   23.7350 O   0  0  0  0  0  0  0  0  0  0  0  0
  -22.8590  -29.4260   22.4910 C   0  0  0  0  0  0  0  0  0  0  0  0
  -21.5330  -29.2510   22.3710 N   0  0  0  0  0  0  0  0  0  0  0  0
  -23.5450  -28.7840   23.2900 O   0  0  0  0  0  0  0  0  0  0  0  0
  -21.0380  -29.8240   21.7010 H   0  0  0  0  0  0  0  0  0  0  0  0
  -18.1540  -28.0750   22.9010 C   0  0  0  0  0  0  0  0  0  0  0  0
  -20.7200  -28.2990   23.1290 C   0  0  0  0  0  3  0  0  0  0  0  0
  -20.7940  -26.8830   22.5090 C   0  0  0  0  0  2  0  0  0  0  0  0
  -19.6700  -26.6020   21.5070 C   0  0  0  0  0  2  0  0  0  0  0  0
  -18.3020  -26.7420   22.1830 C   0  0  0  0  0  2  0  0  0  0  0  0
  -19.2890  -28.8110   23.3310 C   0  0  0  0  0  0  0  0  0  0  0  0
  -19.0950  -30.0590   23.9620 C   0  0  0  0  0  3  0  0  0  0  0  0
  -17.7990  -30.5690   24.1690 C   0  0  0  0  0  3  0  0  0  0  0  0
  -16.6790  -29.8280   23.7540 C   0  0  0  0  0  3  0  0  0  0  0  0
  -16.8570  -28.5830   23.1260 C   0  0  0  0  0  3  0  0  0  0  0  0
  -25.9450  -32.5150   23.8480 C   0  0  0  0  0  3  0  0  0  0  0  0
  -25.6120  -33.9050   24.1860 N   0  0  0  0  0  0  0  0  0  0  0  0
  -25.9220  -34.9680   23.4310 C   0  0  0  0  0  0  0  0  0  0  0  0
  -26.5900  -34.8820   22.3960 O   0  0  0  0  0  0  0  0  0  0  0  0
  -25.0200  -34.0450   24.9910 H   0  0  0  0  0  0  0  0  0  0  0  0
  -24.1610  -36.7330   23.0950 C   0  0  0  0  0  1  0  0  0  0  0  0
  -25.4120  -36.3440   23.9000 C   0  0  0  0  0  3  0  0  0  0  0  0
  -27.5270  -37.2690   24.7380 C   0  0  0  0  0  1  0  0  0  0  0  0
  -26.4260  -37.4170   23.7900 N   0  0  0  0  0  0  0  0  0  0  0  0
  -26.0010  -38.3290   23.9350 H   0  0  0  0  0  0  0  0  0  0  0  0
  -26.4640  -31.7420   25.1230 C   0  0  1  0  0  0  0  0  0  0  0  0
  -25.3650  -31.4760   26.1770 C   0  0  0  0  0  1  0  0  0  0  0  0
  -27.0750  -30.3780   24.7230 C   0  0  0  0  0  1  0  0  0  0  0  0
  -27.5930  -32.5510   25.8030 C   0  0  0  0  0  1  0  0  0  0  0  0
  1  3  1  0
  1 54  1  0
  2  8  1  0
  2 14  1  0
  4  6  1  0
  4  5  1  0
  5  7  1  0
  6  1  2  0
  7  2  1  0
  7  3  1  0
  8  9  1  0
 10  8  1  0
 11 14  2  0
 11 13  1  0
 13 24  1  0
 13 12  2  0
 14 15  1  0
 15 12  1  0
 16 24  1  0
 17 22  1  0
 18 19  1  0
 18 17  1  0
 20 19  1  0
 20 29  1  0
 20 21  1  0
 22 16  1  0
 22 21  1  0
 23 16  2  0
 24 25  1  0
 26 27  2  0
 27 46  1  0
 28 27  1  0
 28 31  1  0
 29 30  1  0
 29 26  1  0
 30 28  2  0
 31 32  1  0
 32 33  2  0
 34 37  1  0
 34 33  1  0
 35 34  2  0
 36 35  1  0
 36 31  2  0
 37 38  1  0
 38 43  2  0
 38 39  1  0
 39 40  2  0
 40 41  1  0
 41 45  1  0
 42 41  2  0
 43 42  1  0
 44 43  1  0
 46 47  1  0
 47 50  1  0
 47 49  1  0
 48 46  2  0
 51 52  1  0
 51 26  1  0
 53 51  1  0
 55 54  1  0
 56 67  2  0
 57 55  1  0
 57 62  1  0
 58 66  1  0
 58 68  1  0
 59 65  1  0
 59 61  1  0
 60 66  1  0
 61 60  1  0
 62 61  2  0
 63 64  1  0
 63 57  2  0
 64 59  2  0
 65 58  1  0
 66 56  1  0
 68 70  2  0
 69 68  1  0
 71 69  1  0
 72 81  2  0
 72 77  1  0
 73 69  1  0
 73 77  1  0
 74 73  1  0
 75 76  1  0
 75 74  1  0
 76 72  1  0
 77 78  2  0
 78 79  1  0
 80 79  2  0
 81 80  1  0
 82 56  1  0
 82 83  1  0
 82 92  1  0
 83 86  1  0
 84 88  1  0
 84 83  1  0
 85 84  2  0
 88 87  1  0
 90 88  1  0
 90 91  1  0
 90 89  1  0
 92 95  1  1
 92 93  1  0
 94 92  1  0
M  ISO  4  16 100  24 100  54 101  55 101
M  END
>  <TORSDO>  (9) 
F 18

>  <SCORE>  (9) 
-13.675

>  <name>  (9) 
8

>  <ligand_id>  (9) 
8

>  <original_smiles>  (9) 
[H]c1sc(C(N2C([H])([H])C(C([H])([H])Oc3c([H])c([H])c4c(c3[H])C([H])([H])N(C(=O)C([H])(N([H])C(=O)C([H])(N([H])C([H])([H])[H])C([H])([H])[H])C(C([H])([H])[H])(C([H])([H])[H])C([H])([H])[H])C([H])(C(=O)N([H])C3([H])c5c([H])c([H])c([H])c([H])c5C([H])([H])C([H])([H])C3([H])[H])C4([H])[H])=NC([H])([H])C2([H])[H])=[N+]([H])[H])c([H])c1N([H])C(=O)N1C([H])([H])C([H])([H])C([H])([H])C([H])(n2nc(-c3c([H])c([H])c(Oc4c([H])c([H])c(F)c([H])c4F)c([H])c3[H])c(C(=O)N([H])[H])c2N([H])[H])C1([H])[H]

>  <smiles>  (9) 
[H]c1sc(C(N2C([H])([H])C(C([H])([H])Oc3c([H])c([H])c4c(c3[H])C([H])([H])N(C(=O)C([H])(N([H])C(=O)C([H])(N([H])C([H])([H])[H])C([H])([H])[H])C(C([H])([H])[H])(C([H])([H])[H])C([H])([H])[H])C([H])(C(=O)N([H])C3([H])c5c([H])c([H])c([H])c([H])c5C([H])([H])C([H])([H])C3([H])[H])C4([H])[H])=NC([H])([H])C2([H])[H])=[N+]([H])[H])c([H])c1N([H])C(=O)N1C([H])([H])C([H])([H])C([H])([H])C([H])(n2nc(-c3c([H])c([H])c(Oc4c([H])c([H])c(F)c([H])c4F)c([H])c3[H])c(C(=O)N([H])[H])c2N([H])[H])C1([H])[H]

$$$$
9:0:0
     RDKit          3D

 91 99  0  0  1  0  0  0  0  0999 V2000
  -28.9280  -23.2050   20.2990 C   0  0  0  0  0  0  0  0  0  0  0  0
  -31.4780  -23.1400   20.5890 C   0  0  0  0  0  1  0  0  0  0  0  0
  -28.6700  -21.7480   20.2570 N   0  0  0  0  0  0  0  0  0  0  0  0
  -30.1540  -23.7390   20.4440 N   0  0  0  0  0  0  0  0  0  0  0  0
  -27.6940  -21.4960   20.2310 H   0  0  0  0  0  0  0  0  0  0  0  0
  -30.1570  -24.7510   20.4410 H   0  0  0  0  0  0  0  0  0  0  0  0
  -30.4210  -15.2020   20.2630 C   0  0  0  0  0  0  0  0  0  0  0  0
  -30.3640  -12.7970   19.3630 C   0  0  0  0  0  2  0  0  0  0  0  0
  -29.4220  -12.6630   18.1440 C   0  0  0  0  0  2  0  0  0  0  0  0
  -27.9700  -12.4100   18.5940 C   0  0  0  0  0  2  0  0  0  0  0  0
  -27.5520  -13.3480   19.7560 C   0  0  0  0  0  3  0  0  0  0  0  0
  -28.6200  -13.4380   20.8670 C   0  0  0  0  0  2  0  0  0  0  0  0
  -29.8570  -13.9100   20.2310 N   0  0  0  0  0  0  0  0  0  0  0  0
  -31.6310  -15.2360   19.9920 O   0  0  0  0  0  0  0  0  0  0  0  0
  -30.7680  -20.0190   20.1730 C   0  0  0  0  0  3  0  0  0  0  0  0
  -29.4350  -20.4040   20.2880 C   0  0  0  0  0  0  0  0  0  0  0  0
  -29.8100  -17.9660   20.3250 C   0  0  0  0  0  0  0  0  0  0  0  0
  -30.9810  -18.6060   20.2120 N   0  0  0  0  0  0  0  0  0  0  0  0
  -29.6150  -16.4060   20.3920 N   0  0  0  0  0  0  0  0  0  0  0  0
  -28.8350  -19.0390   20.3750 O   0  0  0  0  0  0  0  0  0  0  0  0
  -28.6500  -16.1660   20.5470 H   0  0  0  0  0  0  0  0  0  0  0  0
  -25.1910  -13.9000   20.5550 C   0  0  0  0  0  0  0  0  0  0  0  0
  -24.1360  -13.1170   20.9340 C   0  0  0  0  0  0  0  0  0  0  0  0
  -24.6030  -11.7680   20.8730 C   0  0  0  0  0  0  0  0  0  0  0  0
  -26.2290  -13.0290   20.2790 N   0  0  0  0  0  0  0  0  0  0  0  0
  -25.8880  -11.7390   20.5380 N   0  0  0  0  0  0  0  0  0  0  0  0
  -23.8800  -10.5030   21.0530 C   0  0  0  0  0  0  0  0  0  0  0  0
  -24.3080   -9.5330   21.9850 C   0  0  0  0  0  3  0  0  0  0  0  0
  -23.5830   -8.3320   22.1540 C   0  0  0  0  0  3  0  0  0  0  0  0
  -22.4160   -8.0950   21.3900 C   0  0  0  0  0  0  0  0  0  0  0  0
  -22.0070   -9.0540   20.4460 C   0  0  0  0  0  3  0  0  0  0  0  0
  -22.7330  -10.2450   20.2750 C   0  0  0  0  0  3  0  0  0  0  0  0
  -21.6620   -6.9490   21.4690 O   0  0  0  0  0  0  0  0  0  0  0  0
  -21.5830   -6.2170   22.6260 C   0  0  0  0  0  0  0  0  0  0  0  0
  -21.0790   -6.7680   23.8250 C   0  0  0  0  0  3  0  0  0  0  0  0
  -20.9490   -5.9610   24.9720 C   0  0  0  0  0  3  0  0  0  0  0  0
  -21.3180   -4.6020   24.9220 C   0  0  0  0  0  0  0  0  0  0  0  0
  -21.8150   -4.0510   23.7290 C   0  0  0  0  0  3  0  0  0  0  0  0
  -21.9450   -4.8550   22.5840 C   0  0  0  0  0  0  0  0  0  0  0  0
  -22.4040   -4.3120   21.4310 F   0  0  0  0  0  0  0  0  0  0  0  0
  -21.1860   -3.8250   26.0230 F   0  0  0  0  0  0  0  0  0  0  0  0
  -22.7430  -13.5890   21.2340 C   0  0  0  0  0  0  0  0  0  0  0  0
  -22.0300  -12.8840   22.1020 N   0  0  0  0  0  0  0  0  0  0  0  0
  -22.2980  -14.6210   20.7320 O   0  0  0  0  0  0  0  0  0  0  0  0
  -22.4020  -12.0510   22.5350 H   0  0  0  0  0  0  0  0  0  0  0  0
  -21.0950  -13.1840   22.3390 H   0  0  0  0  0  0  0  0  0  0  0  0
  -25.3480  -15.2740   20.3930 N   0  0  0  0  0  0  0  0  0  0  0  0
  -24.5720  -15.9180   20.5080 H   0  0  0  0  0  0  0  0  0  0  0  0
  -26.1680  -15.7120   19.9950 H   0  0  0  0  0  0  0  0  0  0  0  0
  -27.8380  -24.4840   20.1800 C   0  0  0  0  0  3  0  0  0  0  0  0
  -28.1610  -26.0550   20.2970 O   0  0  0  0  0  0  0  0  0  0  0  0
  -24.6270  -31.9250   23.2690 C   0  0  0  0  0  0  0  0  0  0  0  0
  -27.1430  -27.1120   20.2380 C   0  0  0  0  0  0  0  0  0  0  0  0
  -23.4160  -30.5390   21.6350 C   0  0  0  0  0  3  0  0  0  0  0  0
  -24.8460  -28.9460   20.2000 C   0  0  0  0  0  0  0  0  0  0  0  0
  -25.9790  -30.7600   21.4690 C   0  0  0  0  0  2  0  0  0  0  0  0
  -26.0370  -29.3610   20.8110 C   0  0  0  0  0  0  0  0  0  0  0  0
  -27.1850  -28.4650   20.8060 C   0  0  0  0  0  3  0  0  0  0  0  0
  -25.9230  -26.8240   19.5880 C   0  0  0  0  0  3  0  0  0  0  0  0
  -24.8110  -27.6960   19.5650 C   0  0  0  0  0  3  0  0  0  0  0  0
  -23.6320  -29.8640   20.2540 C   0  0  0  0  0  2  0  0  0  0  0  0
  -24.6950  -31.0990   22.1780 N   0  0  0  0  0  0  0  0  0  0  0  0
  -23.5430  -32.2200   23.7960 O   0  0  0  0  0  0  0  0  0  0  0  0
  -22.7250  -29.5390   22.5980 C   0  0  0  0  0  0  0  0  0  0  0  0
  -21.3980  -29.3710   22.4670 N   0  0  0  0  0  0  0  0  0  0  0  0
  -23.3910  -28.9170   23.4310 O   0  0  0  0  0  0  0  0  0  0  0  0
  -20.9150  -29.9230   21.7720 H   0  0  0  0  0  0  0  0  0  0  0  0
  -18.0130  -28.1720   22.9650 C   0  0  0  0  0  0  0  0  0  0  0  0
  -20.5700  -28.4380   23.2400 C   0  0  0  0  0  3  0  0  0  0  0  0
  -20.6750  -27.0020   22.6730 C   0  0  0  0  0  2  0  0  0  0  0  0
  -19.5770  -26.6740   21.6570 C   0  0  0  0  0  2  0  0  0  0  0  0
  -18.1930  -26.8200   22.2950 C   0  0  0  0  0  2  0  0  0  0  0  0
  -19.1290  -28.9380   23.3950 C   0  0  0  0  0  0  0  0  0  0  0  0
  -18.9020  -30.2000   23.9840 C   0  0  0  0  0  3  0  0  0  0  0  0
  -17.5940  -30.6960   24.1480 C   0  0  0  0  0  3  0  0  0  0  0  0
  -16.4940  -29.9260   23.7330 C   0  0  0  0  0  3  0  0  0  0  0  0
  -16.7040  -28.6660   23.1460 C   0  0  0  0  0  3  0  0  0  0  0  0
  -25.9080  -32.5550   23.8960 C   0  0  0  0  0  3  0  0  0  0  0  0
  -25.6020  -33.9550   24.2340 N   0  0  0  0  0  0  0  0  0  0  0  0
  -25.9090  -35.0120   23.4700 C   0  0  0  0  0  0  0  0  0  0  0  0
  -26.5440  -34.9130   22.4170 O   0  0  0  0  0  0  0  0  0  0  0  0
  -25.0300  -34.1070   25.0510 H   0  0  0  0  0  0  0  0  0  0  0  0
  -24.1580  -36.8010   23.2030 C   0  0  0  0  0  1  0  0  0  0  0  0
  -25.4390  -36.4000   23.9510 C   0  0  0  0  0  3  0  0  0  0  0  0
  -27.6030  -37.3030   24.6820 C   0  0  0  0  0  1  0  0  0  0  0  0
  -26.4590  -37.4580   23.7860 N   0  0  0  0  0  0  0  0  0  0  0  0
  -26.0530  -38.3760   23.9470 H   0  0  0  0  0  0  0  0  0  0  0  0
  -26.4160  -31.7830   25.1760 C   0  0  1  0  0  0  0  0  0  0  0  0
  -25.3190  -31.5480   26.2420 C   0  0  0  0  0  1  0  0  0  0  0  0
  -26.9940  -30.4020   24.7940 C   0  0  0  0  0  1  0  0  0  0  0  0
  -27.5710  -32.5720   25.8410 C   0  0  0  0  0  1  0  0  0  0  0  0
  1  4  1  0
  3 16  1  0
  3  1  1  0
  4  2  1  0
  5  3  1  0
  6  4  1  0
  7 19  1  0
  8 13  1  0
  9 10  1  0
  9  8  1  0
 11 10  1  0
 11 25  1  0
 11 12  1  0
 13  7  1  0
 13 12  1  0
 14  7  2  0
 15 18  1  0
 15 16  2  0
 16 20  1  0
 17 20  1  0
 17 19  1  0
 18 17  2  0
 19 21  1  0
 22 23  2  0
 23 42  1  0
 24 23  1  0
 24 27  1  0
 25 26  1  0
 25 22  1  0
 26 24  2  0
 27 28  1  0
 28 29  2  0
 30 33  1  0
 30 29  1  0
 31 30  2  0
 32 31  1  0
 32 27  2  0
 33 34  1  0
 34 35  1  0
 35 36  2  0
 37 36  1  0
 37 41  1  0
 38 37  2  0
 39 34  2  0
 39 38  1  0
 40 39  1  0
 42 43  1  0
 43 46  1  0
 43 45  1  0
 44 42  2  0
 47 48  1  0
 47 22  1  0
 49 47  1  0
 50 51  1  0
 50  1  2  0
 52 63  2  0
 53 51  1  0
 53 58  1  0
 54 62  1  0
 54 64  1  0
 55 61  1  0
 55 57  1  0
 56 62  1  0
 57 56  1  0
 58 57  2  0
 59 53  2  0
 60 59  1  0
 60 55  2  0
 61 54  1  0
 62 52  1  0
 64 66  2  0
 65 64  1  0
 67 65  1  0
 68 77  2  0
 68 73  1  0
 69 65  1  0
 69 73  1  0
 70 69  1  0
 71 72  1  0
 71 70  1  0
 72 68  1  0
 73 74  2  0
 74 75  1  0
 76 75  2  0
 77 76  1  0
 78 52  1  0
 78 79  1  0
 78 88  1  0
 79 82  1  0
 80 84  1  0
 80 79  1  0
 81 80  2  0
 84 83  1  0
 86 87  1  0
 86 84  1  0
 86 85  1  0
 88 91  1  1
 88 89  1  0
 90 88  1  0
M  ISO  4   7 100  19 100  50 101  51 101
M  END
>  <TORSDO>  (10) 
F 17

>  <SCORE>  (10) 
-15.001

>  <name>  (10) 
9

>  <ligand_id>  (10) 
9

>  <original_smiles>  (10) 
[H]c1nc(N([H])C(=O)N2C([H])([H])C([H])([H])C([H])([H])C([H])(n3nc(-c4c([H])c([H])c(Oc5c([H])c([H])c(F)c([H])c5F)c([H])c4[H])c(C(=O)N([H])[H])c3N([H])[H])C2([H])[H])oc1N([H])C(=[N+]([H])C([H])([H])[H])C([H])([H])Oc1c([H])c([H])c2c(c1[H])C([H])([H])N(C(=O)C([H])(N([H])C(=O)C([H])(N([H])C([H])([H])[H])C([H])([H])[H])C(C([H])([H])[H])(C([H])([H])[H])C([H])([H])[H])C([H])(C(=O)N([H])C1([H])c3c([H])c([H])c([H])c([H])c3C([H])([H])C([H])([H])C1([H])[H])C2([H])[H]

>  <smiles>  (10) 
[H]c1nc(N([H])C(=O)N2C([H])([H])C([H])([H])C([H])([H])C([H])(n3nc(-c4c([H])c([H])c(Oc5c([H])c([H])c(F)c([H])c5F)c([H])c4[H])c(C(=O)N([H])[H])c3N([H])[H])C2([H])[H])oc1N([H])C(=[N+]([H])C([H])([H])[H])C([H])([H])Oc1c([H])c([H])c2c(c1[H])C([H])([H])N(C(=O)C([H])(N([H])C(=O)C([H])(N([H])C([H])([H])[H])C([H])([H])[H])C(C([H])([H])[H])(C([H])([H])[H])C([H])([H])[H])C([H])(C(=O)N([H])C1([H])c3c([H])c([H])c([H])c([H])c3C([H])([H])C([H])([H])C1([H])[H])C2([H])[H]

$$$$
10:0:0
     RDKit          3D

 90 98  0  0  1  0  0  0  0  0999 V2000
  -29.1020  -22.5140   20.7140 N   0  0  0  0  0  0  0  0  0  0  0  0
  -29.8100  -22.7930   21.3900 H   0  0  0  0  0  0  0  0  0  0  0  0
  -29.8460  -20.0400   20.8350 C   0  0  0  0  0  3  0  0  0  0  0  0
  -28.4150  -18.7500   19.5720 C   0  0  0  0  0  3  0  0  0  0  0  0
  -29.5300  -18.6750   20.3750 C   0  0  0  0  0  0  0  0  0  0  0  0
  -29.0320  -21.0980   20.3930 C   0  0  0  0  0  0  0  0  0  0  0  0
  -27.8040  -20.4000   19.3610 S   0  0  0  0  0  0  0  0  0  0  0  0
  -30.3680  -17.3660   20.6990 C   0  0  0  0  0  2  0  0  0  0  0  0
  -30.5980  -14.7890   20.3010 C   0  0  0  0  0  0  0  0  0  0  0  0
  -30.3870  -12.5200   19.2730 C   0  0  0  0  0  2  0  0  0  0  0  0
  -29.4340  -12.5870   18.0590 C   0  0  0  0  0  2  0  0  0  0  0  0
  -27.9710  -12.4080   18.5070 C   0  0  0  0  0  2  0  0  0  0  0  0
  -27.6060  -13.2920   19.7300 C   0  0  0  0  0  3  0  0  0  0  0  0
  -28.6770  -13.2110   20.8380 C   0  0  0  0  0  2  0  0  0  0  0  0
  -29.9610  -13.5710   20.2260 N   0  0  0  0  0  0  0  0  0  0  0  0
  -31.7880  -14.8740   19.9840 O   0  0  0  0  0  0  0  0  0  0  0  0
  -29.8520  -15.9350   20.5430 N   0  0  0  0  0  0  0  0  0  0  0  0
  -28.8700  -15.7970   20.7250 H   0  0  0  0  0  0  0  0  0  0  0  0
  -25.2230  -13.8710   20.4830 C   0  0  0  0  0  0  0  0  0  0  0  0
  -24.1660  -13.0920   20.8630 C   0  0  0  0  0  0  0  0  0  0  0  0
  -24.6360  -11.7440   20.8300 C   0  0  0  0  0  0  0  0  0  0  0  0
  -26.2700  -12.9970   20.2360 N   0  0  0  0  0  0  0  0  0  0  0  0
  -25.9240  -11.7120   20.5100 N   0  0  0  0  0  0  0  0  0  0  0  0
  -23.9170  -10.4770   21.0280 C   0  0  0  0  0  0  0  0  0  0  0  0
  -24.3670   -9.5090   21.9510 C   0  0  0  0  0  3  0  0  0  0  0  0
  -23.6470   -8.3090   22.1380 C   0  0  0  0  0  3  0  0  0  0  0  0
  -22.4650   -8.0690   21.3990 C   0  0  0  0  0  0  0  0  0  0  0  0
  -22.0340   -9.0260   20.4630 C   0  0  0  0  0  3  0  0  0  0  0  0
  -22.7540  -10.2170   20.2760 C   0  0  0  0  0  3  0  0  0  0  0  0
  -21.7150   -6.9200   21.4940 O   0  0  0  0  0  0  0  0  0  0  0  0
  -21.6910   -6.1710   22.6420 C   0  0  0  0  0  0  0  0  0  0  0  0
  -21.2860   -6.7170   23.8810 C   0  0  0  0  0  3  0  0  0  0  0  0
  -21.2090   -5.8940   25.0210 C   0  0  0  0  0  3  0  0  0  0  0  0
  -21.5250   -4.5250   24.9270 C   0  0  0  0  0  0  0  0  0  0  0  0
  -21.9210   -3.9780   23.6940 C   0  0  0  0  0  3  0  0  0  0  0  0
  -22.0000   -4.7990   22.5540 C   0  0  0  0  0  0  0  0  0  0  0  0
  -22.3630   -4.2620   21.3640 F   0  0  0  0  0  0  0  0  0  0  0  0
  -21.4440   -3.7330   26.0200 F   0  0  0  0  0  0  0  0  0  0  0  0
  -22.7680  -13.5630   21.1440 C   0  0  0  0  0  0  0  0  0  0  0  0
  -22.0510  -12.8650   22.0170 N   0  0  0  0  0  0  0  0  0  0  0  0
  -22.3220  -14.5860   20.6260 O   0  0  0  0  0  0  0  0  0  0  0  0
  -22.4240  -12.0380   22.4590 H   0  0  0  0  0  0  0  0  0  0  0  0
  -21.1130  -13.1630   22.2470 H   0  0  0  0  0  0  0  0  0  0  0  0
  -25.3780  -15.2430   20.3010 N   0  0  0  0  0  0  0  0  0  0  0  0
  -24.6080  -15.8920   20.4230 H   0  0  0  0  0  0  0  0  0  0  0  0
  -26.2170  -15.6860   19.9490 H   0  0  0  0  0  0  0  0  0  0  0  0
  -28.4330  -23.6930   20.0210 C   0  0  0  0  0  2  0  0  0  0  0  0
  -27.4150  -25.0290   22.0110 C   0  0  0  0  0  1  0  0  0  0  0  0
  -28.3980  -25.1060   20.8290 C   0  0  0  0  0  3  0  0  0  0  0  0
  -28.3660  -26.4650   20.1780 O   0  0  0  0  0  0  0  0  0  0  0  0
  -24.6080  -31.8800   23.2370 C   0  0  0  0  0  0  0  0  0  0  0  0
  -27.2360  -27.3070   20.1930 C   0  0  0  0  0  0  0  0  0  0  0  0
  -23.4110  -30.4760   21.5940 C   0  0  0  0  0  3  0  0  0  0  0  0
  -24.8680  -28.9230   20.1700 C   0  0  0  0  0  0  0  0  0  0  0  0
  -25.9490  -30.8010   21.4120 C   0  0  0  0  0  2  0  0  0  0  0  0
  -26.0350  -29.4190   20.7670 C   0  0  0  0  0  0  0  0  0  0  0  0
  -27.2240  -28.6250   20.7600 C   0  0  0  0  0  3  0  0  0  0  0  0
  -26.0490  -26.8660   19.5760 C   0  0  0  0  0  3  0  0  0  0  0  0
  -24.8790  -27.6540   19.5650 C   0  0  0  0  0  3  0  0  0  0  0  0
  -23.6290  -29.7970   20.2150 C   0  0  0  0  0  2  0  0  0  0  0  0
  -24.6750  -31.0710   22.1370 N   0  0  0  0  0  0  0  0  0  0  0  0
  -23.5220  -32.1510   23.7720 O   0  0  0  0  0  0  0  0  0  0  0  0
  -22.7510  -29.4600   22.5550 C   0  0  0  0  0  0  0  0  0  0  0  0
  -21.4240  -29.2820   22.4340 N   0  0  0  0  0  0  0  0  0  0  0  0
  -23.4320  -28.8320   23.3690 O   0  0  0  0  0  0  0  0  0  0  0  0
  -20.9320  -29.8410   21.7500 H   0  0  0  0  0  0  0  0  0  0  0  0
  -18.0490  -28.0830   22.9450 C   0  0  0  0  0  0  0  0  0  0  0  0
  -20.6090  -28.3410   23.2040 C   0  0  0  0  0  3  0  0  0  0  0  0
  -20.7070  -26.9120   22.6200 C   0  0  0  0  0  2  0  0  0  0  0  0
  -19.6000  -26.5950   21.6090 C   0  0  0  0  0  2  0  0  0  0  0  0
  -18.2220  -26.7370   22.2600 C   0  0  0  0  0  2  0  0  0  0  0  0
  -19.1700  -28.8420   23.3730 C   0  0  0  0  0  0  0  0  0  0  0  0
  -18.9540  -30.1020   23.9730 C   0  0  0  0  0  3  0  0  0  0  0  0
  -17.6490  -30.6030   24.1480 C   0  0  0  0  0  3  0  0  0  0  0  0
  -16.5430  -29.8390   23.7360 C   0  0  0  0  0  3  0  0  0  0  0  0
  -16.7430  -28.5830   23.1400 C   0  0  0  0  0  3  0  0  0  0  0  0
  -25.8860  -32.5170   23.8600 C   0  0  0  0  0  3  0  0  0  0  0  0
  -26.4030  -31.7500   25.1390 C   0  0  1  0  0  0  0  0  0  0  0  0
  -25.3100  -31.5130   26.2060 C   0  0  0  0  0  1  0  0  0  0  0  0
  -26.9900  -30.3720   24.7520 C   0  0  0  0  0  1  0  0  0  0  0  0
  -27.5500  -32.5500   25.8020 C   0  0  0  0  0  1  0  0  0  0  0  0
  -25.5710  -33.9160   24.1910 N   0  0  0  0  0  0  0  0  0  0  0  0
  -25.8990  -34.9710   23.4340 C   0  0  0  0  0  0  0  0  0  0  0  0
  -26.5690  -34.8720   22.4020 O   0  0  0  0  0  0  0  0  0  0  0  0
  -24.9750  -34.0670   24.9910 H   0  0  0  0  0  0  0  0  0  0  0  0
  -24.1640  -36.7600   23.0870 C   0  0  0  0  0  1  0  0  0  0  0  0
  -25.4090  -36.3570   23.8940 C   0  0  0  0  0  3  0  0  0  0  0  0
  -27.5430  -37.2500   24.7190 C   0  0  0  0  0  1  0  0  0  0  0  0
  -26.4380  -37.4140   23.7790 N   0  0  0  0  0  0  0  0  0  0  0  0
  -26.0300  -38.3340   23.9280 H   0  0  0  0  0  0  0  0  0  0  0  0
  1  2  1  0
  4  5  2  0
  5  8  1  0
  5  3  1  0
  6  1  1  0
  6  3  2  0
  7  4  1  0
  7  6  1  0
  9 17  1  0
 10 15  1  0
 11 12  1  0
 11 10  1  0
 13 12  1  0
 13 22  1  0
 13 14  1  0
 15  9  1  0
 15 14  1  0
 16  9  2  0
 17  8  1  0
 17 18  1  0
 19 20  2  0
 20 39  1  0
 21 20  1  0
 21 24  1  0
 22 19  1  0
 22 23  1  0
 23 21  2  0
 24 25  1  0
 25 26  2  0
 27 30  1  0
 27 26  1  0
 28 27  2  0
 29 28  1  0
 29 24  2  0
 30 31  1  0
 31 32  1  0
 32 33  2  0
 34 33  1  0
 34 38  1  0
 35 34  2  0
 36 31  2  0
 36 35  1  0
 37 36  1  0
 39 40  1  0
 40 43  1  0
 40 42  1  0
 41 39  2  0
 44 45  1  0
 44 19  1  0
 46 44  1  0
 47  1  1  0
 47 49  1  0
 49 48  1  0
 50 52  1  0
 50 49  1  0
 51 62  2  0
 52 57  1  0
 53 61  1  0
 53 63  1  0
 54 60  1  0
 54 56  1  0
 55 61  1  0
 56 55  1  0
 57 56  2  0
 58 52  2  0
 59 58  1  0
 59 54  2  0
 60 53  1  0
 61 51  1  0
 63 65  2  0
 64 63  1  0
 66 64  1  0
 67 76  2  0
 67 72  1  0
 68 64  1  0
 68 72  1  0
 69 68  1  0
 70 71  1  0
 70 69  1  0
 71 67  1  0
 72 73  2  0
 73 74  1  0
 75 74  2  0
 76 75  1  0
 77 51  1  0
 77 82  1  0
 77 78  1  0
 78 81  1  1
 78 79  1  0
 80 78  1  0
 82 85  1  0
 83 87  1  0
 83 82  1  0
 84 83  2  0
 87 86  1  0
 89 87  1  0
 89 90  1  0
 89 88  1  0
M  ISO  4   9 100  17 100  49 101  50 101
M  END
>  <TORSDO>  (11) 
F 20

>  <SCORE>  (11) 
-13.843

>  <name>  (11) 
10

>  <ligand_id>  (11) 
10

>  <original_smiles>  (11) 
[H]c1sc(N([H])C([H])([H])C([H])(Oc2c([H])c([H])c3c(c2[H])C([H])([H])N(C(=O)C([H])(N([H])C(=O)C([H])(N([H])C([H])([H])[H])C([H])([H])[H])C(C([H])([H])[H])(C([H])([H])[H])C([H])([H])[H])C([H])(C(=O)N([H])C2([H])c4c([H])c([H])c([H])c([H])c4C([H])([H])C([H])([H])C2([H])[H])C3([H])[H])C([H])([H])[H])c([H])c1C([H])([H])N([H])C(=O)N1C([H])([H])C([H])([H])C([H])([H])C([H])(n2nc(-c3c([H])c([H])c(Oc4c([H])c([H])c(F)c([H])c4F)c([H])c3[H])c(C(=O)N([H])[H])c2N([H])[H])C1([H])[H]

>  <smiles>  (11) 
[H]c1sc(N([H])C([H])([H])C([H])(Oc2c([H])c([H])c3c(c2[H])C([H])([H])N(C(=O)C([H])(N([H])C(=O)C([H])(N([H])C([H])([H])[H])C([H])([H])[H])C(C([H])([H])[H])(C([H])([H])[H])C([H])([H])[H])C([H])(C(=O)N([H])C2([H])c4c([H])c([H])c([H])c([H])c4C([H])([H])C([H])([H])C2([H])[H])C3([H])[H])C([H])([H])[H])c([H])c1C([H])([H])N([H])C(=O)N1C([H])([H])C([H])([H])C([H])([H])C([H])(n2nc(-c3c([H])c([H])c(Oc4c([H])c([H])c(F)c([H])c4F)c([H])c3[H])c(C(=O)N([H])[H])c2N([H])[H])C1([H])[H]

$$$$
11:0:0
     RDKit          3D

 93103  0  0  1  0  0  0  0  0999 V2000
  -28.8310  -21.3660   19.4440 C   0  0  0  0  0  2  0  0  0  0  0  0
  -28.5680  -22.7600   18.8140 C   0  0  0  0  0  2  0  0  0  0  0  0
  -29.5250  -23.0240   20.9950 C   0  0  0  0  0  2  0  0  0  0  0  0
  -29.9390  -21.5950   20.4640 C   0  0  0  0  0  3  0  0  0  0  0  0
  -29.1020  -23.8810   19.7590 C   0  0  0  0  0  3  0  0  0  0  0  0
  -30.6980  -14.6770   20.0630 C   0  0  0  0  0  0  0  0  0  0  0  0
  -30.3810  -12.4840   18.9310 C   0  0  0  0  0  2  0  0  0  0  0  0
  -29.3640  -12.6420   17.7800 C   0  0  0  0  0  2  0  0  0  0  0  0
  -27.9180  -12.4810   18.2980 C   0  0  0  0  0  2  0  0  0  0  0  0
  -27.6400  -13.3170   19.5760 C   0  0  0  0  0  3  0  0  0  0  0  0
  -28.7690  -13.1460   20.6180 C   0  0  0  0  0  2  0  0  0  0  0  0
  -30.0330  -13.4860   19.9520 N   0  0  0  0  0  0  0  0  0  0  0  0
  -31.8720  -14.7970   19.6990 O   0  0  0  0  0  0  0  0  0  0  0  0
  -30.1910  -20.5080   21.5270 C   0  0  0  0  0  0  0  0  0  0  0  0
  -30.7680  -18.6940   22.6840 C   0  0  0  0  0  0  0  0  0  0  0  0
  -30.2780  -17.0130   20.9330 C   0  0  0  0  0  0  0  0  0  0  0  0
  -30.5880  -20.8700   22.7620 N   0  0  0  0  0  0  0  0  0  0  0  0
  -30.9420  -19.7180   23.4850 N   0  0  0  0  0  0  0  0  0  0  0  0
  -29.9760  -18.2620   20.4680 N   0  0  0  0  0  0  0  0  0  0  0  0
  -30.2840  -19.1420   21.4930 N   0  0  0  0  0  0  0  0  0  0  0  0
  -29.9230  -15.7830   20.2620 N   0  0  0  0  0  0  0  0  0  0  0  0
  -30.9550  -16.9470   22.5880 S   0  0  0  0  0  0  0  0  0  0  0  0
  -28.9320  -15.6200   20.1940 H   0  0  0  0  0  0  0  0  0  0  0  0
  -25.3060  -13.9070   20.4670 C   0  0  0  0  0  0  0  0  0  0  0  0
  -24.2570  -13.1290   20.8790 C   0  0  0  0  0  0  0  0  0  0  0  0
  -24.7050  -11.7760   20.7750 C   0  0  0  0  0  0  0  0  0  0  0  0
  -26.3250  -13.0260   20.1380 N   0  0  0  0  0  0  0  0  0  0  0  0
  -25.9740  -11.7390   20.3850 N   0  0  0  0  0  0  0  0  0  0  0  0
  -23.9810  -10.5120   20.9670 C   0  0  0  0  0  0  0  0  0  0  0  0
  -24.4250   -9.5410   21.8910 C   0  0  0  0  0  3  0  0  0  0  0  0
  -23.7020   -8.3420   22.0710 C   0  0  0  0  0  3  0  0  0  0  0  0
  -22.5200   -8.1080   21.3290 C   0  0  0  0  0  0  0  0  0  0  0  0
  -22.0950   -9.0680   20.3940 C   0  0  0  0  0  3  0  0  0  0  0  0
  -22.8200  -10.2580   20.2120 C   0  0  0  0  0  3  0  0  0  0  0  0
  -21.7670   -6.9630   21.4210 O   0  0  0  0  0  0  0  0  0  0  0  0
  -21.6770   -6.2500   22.5900 C   0  0  0  0  0  0  0  0  0  0  0  0
  -21.1930   -6.8320   23.7810 C   0  0  0  0  0  3  0  0  0  0  0  0
  -21.0520   -6.0460   24.9430 C   0  0  0  0  0  3  0  0  0  0  0  0
  -21.3850   -4.6790   24.9120 C   0  0  0  0  0  0  0  0  0  0  0  0
  -21.8620   -4.0960   23.7260 C   0  0  0  0  0  3  0  0  0  0  0  0
  -22.0050   -4.8800   22.5670 C   0  0  0  0  0  0  0  0  0  0  0  0
  -22.4450   -4.3080   21.4200 F   0  0  0  0  0  0  0  0  0  0  0  0
  -21.2430   -3.9210   26.0250 F   0  0  0  0  0  0  0  0  0  0  0  0
  -22.8830  -13.6040   21.2510 C   0  0  0  0  0  0  0  0  0  0  0  0
  -22.2120  -12.8950   22.1520 N   0  0  0  0  0  0  0  0  0  0  0  0
  -22.4160  -14.6390   20.7780 O   0  0  0  0  0  0  0  0  0  0  0  0
  -22.6030  -12.0580   22.5570 H   0  0  0  0  0  0  0  0  0  0  0  0
  -21.2920  -13.1950   22.4420 H   0  0  0  0  0  0  0  0  0  0  0  0
  -25.4680  -15.2810   20.3220 N   0  0  0  0  0  0  0  0  0  0  0  0
  -24.7040  -15.9290   20.4860 H   0  0  0  0  0  0  0  0  0  0  0  0
  -26.2760  -15.7260   19.9060 H   0  0  0  0  0  0  0  0  0  0  0  0
  -28.0450  -25.0640   19.8850 C   0  0  0  0  0  2  0  0  0  0  0  0
  -28.3240  -26.4870   20.1920 O   0  0  0  0  0  0  0  0  0  0  0  0
  -24.6440  -31.9260   23.2330 C   0  0  0  0  0  0  0  0  0  0  0  0
  -27.2100  -27.3530   20.1580 C   0  0  0  0  0  0  0  0  0  0  0  0
  -23.4180  -30.5210   21.6200 C   0  0  0  0  0  3  0  0  0  0  0  0
  -24.8460  -28.9750   20.1820 C   0  0  0  0  0  0  0  0  0  0  0  0
  -25.9580  -30.8380   21.4000 C   0  0  0  0  0  2  0  0  0  0  0  0
  -26.0280  -29.4590   20.7570 C   0  0  0  0  0  0  0  0  0  0  0  0
  -27.2130  -28.6610   20.7360 C   0  0  0  0  0  3  0  0  0  0  0  0
  -25.9910  -26.9300   19.5630 C   0  0  0  0  0  3  0  0  0  0  0  0
  -24.8300  -27.7150   19.5780 C   0  0  0  0  0  3  0  0  0  0  0  0
  -23.6130  -29.8480   20.2390 C   0  0  0  0  0  2  0  0  0  0  0  0
  -24.6940  -31.1110   22.1400 N   0  0  0  0  0  0  0  0  0  0  0  0
  -23.5680  -32.2070   23.7790 O   0  0  0  0  0  0  0  0  0  0  0  0
  -22.7710  -29.5040   22.5900 C   0  0  0  0  0  0  0  0  0  0  0  0
  -21.4500  -29.2960   22.4550 N   0  0  0  0  0  0  0  0  0  0  0  0
  -23.4560  -28.9060   23.4240 O   0  0  0  0  0  0  0  0  0  0  0  0
  -20.9570  -29.8310   21.7540 H   0  0  0  0  0  0  0  0  0  0  0  0
  -18.0990  -28.0150   22.9210 C   0  0  0  0  0  0  0  0  0  0  0  0
  -20.6420  -28.3590   23.2370 C   0  0  0  0  0  3  0  0  0  0  0  0
  -20.7980  -26.9140   22.7090 C   0  0  0  0  0  2  0  0  0  0  0  0
  -19.7280  -26.5260   21.6840 C   0  0  0  0  0  2  0  0  0  0  0  0
  -18.3290  -26.6500   22.2940 C   0  0  0  0  0  2  0  0  0  0  0  0
  -19.1850  -28.8240   23.3490 C   0  0  0  0  0  0  0  0  0  0  0  0
  -18.9160  -30.0980   23.8950 C   0  0  0  0  0  3  0  0  0  0  0  0
  -17.5940  -30.5650   24.0170 C   0  0  0  0  0  3  0  0  0  0  0  0
  -16.5220  -29.7550   23.6050 C   0  0  0  0  0  3  0  0  0  0  0  0
  -16.7750  -28.4820   23.0630 C   0  0  0  0  0  3  0  0  0  0  0  0
  -25.9340  -32.5630   23.8340 C   0  0  0  0  0  3  0  0  0  0  0  0
  -25.6230  -33.9570   24.1760 N   0  0  0  0  0  0  0  0  0  0  0  0
  -25.9330  -35.0160   23.4160 C   0  0  0  0  0  0  0  0  0  0  0  0
  -26.5840  -34.9220   22.3710 O   0  0  0  0  0  0  0  0  0  0  0  0
  -25.0440  -34.1040   24.9900 H   0  0  0  0  0  0  0  0  0  0  0  0
  -24.1890  -36.8010   23.1020 C   0  0  0  0  0  1  0  0  0  0  0  0
  -25.4460  -36.3990   23.8900 C   0  0  0  0  0  3  0  0  0  0  0  0
  -27.5880  -37.2900   24.6930 C   0  0  0  0  0  1  0  0  0  0  0  0
  -26.4710  -37.4570   23.7670 N   0  0  0  0  0  0  0  0  0  0  0  0
  -26.0630  -38.3740   23.9240 H   0  0  0  0  0  0  0  0  0  0  0  0
  -26.4780  -31.7870   25.0960 C   0  0  1  0  0  0  0  0  0  0  0  0
  -25.4040  -31.5350   26.1800 C   0  0  0  0  0  1  0  0  0  0  0  0
  -27.0640  -30.4160   24.6860 C   0  0  0  0  0  1  0  0  0  0  0  0
  -27.6350  -32.5850   25.7420 C   0  0  0  0  0  1  0  0  0  0  0  0
  1  4  1  0
  2  1  1  0
  2  5  1  0
  4  3  1  0
  4 14  1  0
  5 52  1  0
  5  3  1  0
  6 21  1  0
  7 12  1  0
  8  9  1  0
  8  7  1  0
 10  9  1  0
 10 27  1  0
 10 11  1  0
 12  6  1  0
 12 11  1  0
 13  6  2  0
 14 17  2  0
 15 18  2  0
 16 22  1  0
 17 18  1  0
 19 16  2  0
 19 20  1  0
 20 14  1  0
 20 15  1  0
 21 16  1  0
 22 15  1  0
 23 21  1  0
 24 25  2  0
 25 44  1  0
 26 25  1  0
 26 29  1  0
 27 28  1  0
 27 24  1  0
 28 26  2  0
 29 30  1  0
 30 31  2  0
 32 35  1  0
 32 31  1  0
 33 32  2  0
 34 33  1  0
 34 29  2  0
 35 36  1  0
 36 37  1  0
 37 38  2  0
 39 38  1  0
 39 43  1  0
 40 39  2  0
 41 36  2  0
 41 40  1  0
 42 41  1  0
 44 45  1  0
 45 48  1  0
 45 47  1  0
 46 44  2  0
 49 24  1  0
 49 50  1  0
 51 49  1  0
 52 53  1  0
 54 65  2  0
 55 53  1  0
 55 60  1  0
 56 64  1  0
 56 66  1  0
 57 63  1  0
 57 59  1  0
 58 64  1  0
 59 58  1  0
 60 59  2  0
 61 62  1  0
 61 55  2  0
 62 57  2  0
 63 56  1  0
 64 54  1  0
 66 68  2  0
 67 66  1  0
 69 67  1  0
 70 79  2  0
 70 75  1  0
 71 67  1  0
 71 75  1  0
 72 71  1  0
 73 74  1  0
 73 72  1  0
 74 70  1  0
 75 76  2  0
 76 77  1  0
 78 77  2  0
 79 78  1  0
 80 54  1  0
 80 81  1  0
 80 90  1  0
 81 84  1  0
 82 86  1  0
 82 81  1  0
 83 82  2  0
 86 85  1  0
 88 86  1  0
 88 89  1  0
 88 87  1  0
 90 93  1  1
 90 91  1  0
 92 90  1  0
M  ISO  4   6 100  21 100  52 101  53 101
M  END
>  <TORSDO>  (12) 
F 17

>  <SCORE>  (12) 
-14.460

>  <name>  (12) 
11

>  <ligand_id>  (12) 
11

>  <original_smiles>  (12) 
[H]c1c([H])c([H])c2c(c1[H])C([H])([H])C([H])([H])C([H])([H])C2([H])N([H])C(=O)C1([H])N(C(=O)C([H])(N([H])C(=O)C([H])(N([H])C([H])([H])[H])C([H])([H])[H])C(C([H])([H])[H])(C([H])([H])[H])C([H])([H])[H])C([H])([H])c2c([H])c(OC([H])([H])C3([H])C([H])([H])C([H])([H])C([H])(c4nnc5sc(N([H])C(=O)N6C([H])([H])C([H])([H])C([H])([H])C([H])(n7nc(-c8c([H])c([H])c(Oc9c([H])c([H])c(F)c([H])c9F)c([H])c8[H])c(C(=O)N([H])[H])c7N([H])[H])C6([H])[H])nn45)C3([H])[H])c([H])c([H])c2C1([H])[H]

>  <smiles>  (12) 
[H]c1c([H])c([H])c2c(c1[H])C([H])([H])C([H])([H])C([H])([H])C2([H])N([H])C(=O)C1([H])N(C(=O)C([H])(N([H])C(=O)C([H])(N([H])C([H])([H])[H])C([H])([H])[H])C(C([H])([H])[H])(C([H])([H])[H])C([H])([H])[H])C([H])([H])c2c([H])c(OC([H])([H])C3([H])C([H])([H])C([H])([H])C([H])(c4nnc5sc(N([H])C(=O)N6C([H])([H])C([H])([H])C([H])([H])C([H])(n7nc(-c8c([H])c([H])c(Oc9c([H])c([H])c(F)c([H])c9F)c([H])c8[H])c(C(=O)N([H])[H])c7N([H])[H])C6([H])[H])nn45)C3([H])[H])c([H])c([H])c2C1([H])[H]

$$$$
12:0:0
     RDKit          3D

 96104  0  0  1  0  0  0  0  0999 V2000
  -28.2750  -20.7300   20.4050 C   0  0  0  0  0  3  0  0  0  0  0  0
  -28.4130  -19.2820   20.3320 C   0  0  0  0  0  0  0  0  0  0  0  0
  -29.7480  -18.9070   20.3510 C   0  0  0  0  0  0  0  0  0  0  0  0
  -29.5330  -21.2590   20.4190 C   0  0  0  0  0  0  0  0  0  0  0  0
  -30.4230  -20.1550   20.3970 O   0  0  0  0  0  0  0  0  0  0  0  0
  -27.2650  -18.3440   20.3770 C   0  0  0  0  0  0  0  0  0  0  0  0
  -27.2320  -17.3830   21.2040 N   0  0  0  0  0  2  0  0  0  0  0  0
  -28.0560  -17.3820   21.7920 H   0  0  0  0  0  0  0  0  0  0  0  0
  -26.1160  -18.5530   19.4030 C   0  0  0  0  0  0  0  0  0  0  0  0
  -26.2700  -19.5780   18.2920 C   0  0  0  0  0  1  0  0  0  0  0  0
  -25.0480  -17.8800   19.5050 N   0  0  0  0  0  2  0  0  0  0  0  0
  -25.1690  -17.2530   20.2980 H   0  0  0  0  0  0  0  0  0  0  0  0
  -29.6230  -23.8900   20.6370 C   0  0  0  0  0  0  0  0  0  0  0  0
  -30.7790  -24.8210   20.9580 C   0  0  0  0  0  1  0  0  0  0  0  0
  -30.0000  -22.6030   20.6000 N   0  0  0  0  0  0  0  0  0  0  0  0
  -28.3070  -24.8120   20.4140 C   0  0  0  0  0  2  0  0  0  0  0  0
  -28.4630  -26.3400   20.4980 O   0  0  0  0  0  0  0  0  0  0  0  0
  -24.6050  -31.9520   23.1620 C   0  0  0  0  0  0  0  0  0  0  0  0
  -27.3560  -27.2310   20.3840 C   0  0  0  0  0  0  0  0  0  0  0  0
  -23.4800  -30.4900   21.5250 C   0  0  0  0  0  3  0  0  0  0  0  0
  -24.9960  -28.8930   20.2110 C   0  0  0  0  0  0  0  0  0  0  0  0
  -26.0300  -30.7980   21.4410 C   0  0  0  0  0  2  0  0  0  0  0  0
  -26.1430  -29.3920   20.8390 C   0  0  0  0  0  0  0  0  0  0  0  0
  -27.3260  -28.5790   20.9040 C   0  0  0  0  0  3  0  0  0  0  0  0
  -26.1790  -26.8080   19.7260 C   0  0  0  0  0  3  0  0  0  0  0  0
  -25.0240  -27.6110   19.6400 C   0  0  0  0  0  3  0  0  0  0  0  0
  -23.7560  -29.7700   20.1790 C   0  0  0  0  0  2  0  0  0  0  0  0
  -24.7220  -31.1020   22.0980 N   0  0  0  0  0  0  0  0  0  0  0  0
  -23.4970  -32.2400   23.6400 O   0  0  0  0  0  0  0  0  0  0  0  0
  -22.7800  -29.5050   22.4930 C   0  0  0  0  0  0  0  0  0  0  0  0
  -21.4560  -29.3310   22.3360 N   0  0  0  0  0  0  0  0  0  0  0  0
  -23.4320  -28.8980   23.3470 O   0  0  0  0  0  0  0  0  0  0  0  0
  -20.9900  -29.8720   21.6210 H   0  0  0  0  0  0  0  0  0  0  0  0
  -18.0430  -28.2470   22.8640 C   0  0  0  0  0  0  0  0  0  0  0  0
  -20.6120  -28.4160   23.1070 C   0  0  0  0  0  3  0  0  0  0  0  0
  -20.6580  -26.9860   22.5200 C   0  0  0  0  0  2  0  0  0  0  0  0
  -19.5360  -26.7110   21.5160 C   0  0  0  0  0  2  0  0  0  0  0  0
  -18.1670  -26.8980   22.1750 C   0  0  0  0  0  2  0  0  0  0  0  0
  -19.1920  -28.9660   23.2870 C   0  0  0  0  0  0  0  0  0  0  0  0
  -19.0220  -30.2310   23.8920 C   0  0  0  0  0  3  0  0  0  0  0  0
  -17.7360  -30.7740   24.0780 C   0  0  0  0  0  3  0  0  0  0  0  0
  -16.6020  -30.0500   23.6700 C   0  0  0  0  0  3  0  0  0  0  0  0
  -16.7570  -28.7880   23.0690 C   0  0  0  0  0  3  0  0  0  0  0  0
  -25.8540  -32.6200   23.8140 C   0  0  0  0  0  3  0  0  0  0  0  0
  -25.4880  -33.9990   24.1720 N   0  0  0  0  0  0  0  0  0  0  0  0
  -25.7380  -35.0760   23.4170 C   0  0  0  0  0  0  0  0  0  0  0  0
  -26.3690  -35.0170   22.3580 O   0  0  0  0  0  0  0  0  0  0  0  0
  -24.9230  -34.1150   25.0010 H   0  0  0  0  0  0  0  0  0  0  0  0
  -23.8920  -36.7690   23.1860 C   0  0  0  0  0  1  0  0  0  0  0  0
  -25.2040  -36.4340   23.9130 C   0  0  0  0  0  3  0  0  0  0  0  0
  -27.3290  -37.4410   24.6160 C   0  0  0  0  0  1  0  0  0  0  0  0
  -26.1650  -37.5440   23.7410 N   0  0  0  0  0  0  0  0  0  0  0  0
  -25.7150  -38.4390   23.9140 H   0  0  0  0  0  0  0  0  0  0  0  0
  -26.3810  -31.8430   25.0830 C   0  0  1  0  0  0  0  0  0  0  0  0
  -25.2750  -31.4940   26.1050 C   0  0  0  0  0  1  0  0  0  0  0  0
  -27.0740  -30.5230   24.6700 C   0  0  0  0  0  1  0  0  0  0  0  0
  -27.4490  -32.6930   25.8100 C   0  0  0  0  0  1  0  0  0  0  0  0
  -30.6480  -17.5650   20.4040 C   0  0  0  0  0  2  0  0  0  0  0  0
  -30.9610  -14.9380   20.5730 C   0  0  0  0  0  0  0  0  0  0  0  0
  -30.9230  -12.5820   19.6980 C   0  0  0  0  0  2  0  0  0  0  0  0
  -30.0770  -12.4970   18.4070 C   0  0  0  0  0  2  0  0  0  0  0  0
  -28.5900  -12.2810   18.7480 C   0  0  0  0  0  2  0  0  0  0  0  0
  -28.0900  -13.2340   19.8640 C   0  0  0  0  0  3  0  0  0  0  0  0
  -29.0640  -13.2940   21.0610 C   0  0  0  0  0  2  0  0  0  0  0  0
  -30.3740  -13.6850   20.5310 N   0  0  0  0  0  0  0  0  0  0  0  0
  -32.1720  -15.0230   20.3450 O   0  0  0  0  0  0  0  0  0  0  0  0
  -30.1790  -16.1040   20.6460 N   0  0  0  0  0  0  0  0  0  0  0  0
  -29.1930  -15.9720   20.8150 H   0  0  0  0  0  0  0  0  0  0  0  0
  -25.6480  -13.7760   20.4010 C   0  0  0  0  0  0  0  0  0  0  0  0
  -24.5780  -12.9920   20.7380 C   0  0  0  0  0  0  0  0  0  0  0  0
  -25.0790  -11.6560   20.8000 C   0  0  0  0  0  0  0  0  0  0  0  0
  -26.7270  -12.9200   20.2780 N   0  0  0  0  0  0  0  0  0  0  0  0
  -26.3890  -11.6410   20.5820 N   0  0  0  0  0  0  0  0  0  0  0  0
  -24.3740  -10.3840   20.9940 C   0  0  0  0  0  0  0  0  0  0  0  0
  -24.7280   -9.4930   22.0300 C   0  0  0  0  0  3  0  0  0  0  0  0
  -24.0220   -8.2840   22.2070 C   0  0  0  0  0  3  0  0  0  0  0  0
  -22.9470   -7.9570   21.3470 C   0  0  0  0  0  0  0  0  0  0  0  0
  -22.6140   -8.8360   20.3020 C   0  0  0  0  0  3  0  0  0  0  0  0
  -23.3210  -10.0370   20.1230 C   0  0  0  0  0  3  0  0  0  0  0  0
  -22.2210   -6.7930   21.4280 O   0  0  0  0  0  0  0  0  0  0  0  0
  -21.9890   -6.1730   22.6290 C   0  0  0  0  0  0  0  0  0  0  0  0
  -21.3330   -6.8290   23.6940 C   0  0  0  0  0  3  0  0  0  0  0  0
  -21.0540   -6.1320   24.8850 C   0  0  0  0  0  3  0  0  0  0  0  0
  -21.4220   -4.7780   25.0130 C   0  0  0  0  0  0  0  0  0  0  0  0
  -22.0710   -4.1220   23.9520 C   0  0  0  0  0  3  0  0  0  0  0  0
  -22.3520   -4.8180   22.7620 C   0  0  0  0  0  0  0  0  0  0  0  0
  -22.9580   -4.1750   21.7360 F   0  0  0  0  0  0  0  0  0  0  0  0
  -21.1470   -4.1050   26.1540 F   0  0  0  0  0  0  0  0  0  0  0  0
  -23.1540  -13.4430   20.8870 C   0  0  0  0  0  0  0  0  0  0  0  0
  -22.3920  -12.7820   21.7520 N   0  0  0  0  0  0  0  0  0  0  0  0
  -22.7210  -14.4140   20.2700 O   0  0  0  0  0  0  0  0  0  0  0  0
  -22.7530  -11.9980   22.2730 H   0  0  0  0  0  0  0  0  0  0  0  0
  -21.4330  -13.0670   21.8950 H   0  0  0  0  0  0  0  0  0  0  0  0
  -25.7990  -15.1340   20.1610 N   0  0  0  0  0  0  0  0  0  0  0  0
  -25.0660  -15.8180   20.3300 H   0  0  0  0  0  0  0  0  0  0  0  0
  -26.6780  -15.5630   19.9110 H   0  0  0  0  0  0  0  0  0  0  0  0
  1  4  2  0
  2  3  2  0
  2  6  1  0
  2  1  1  0
  3  5  1  0
  3 58  1  0
  4 15  1  0
  5  4  1  0
  6  7  1  0
  7  8  1  0
  9 11  1  0
  9  6  2  0
 10  9  1  0
 11 12  1  0
 13 14  1  0
 15 13  2  0
 16 17  1  0
 16 13  1  0
 18 29  2  0
 19 17  1  0
 19 24  1  0
 20 28  1  0
 20 30  1  0
 21 23  1  0
 22 28  1  0
 23 24  2  0
 23 22  1  0
 25 19  2  0
 26 25  1  0
 26 21  2  0
 27 21  1  0
 27 20  1  0
 28 18  1  0
 30 32  2  0
 31 30  1  0
 33 31  1  0
 34 43  2  0
 34 39  1  0
 35 31  1  0
 35 39  1  0
 36 35  1  0
 37 38  1  0
 37 36  1  0
 38 34  1  0
 39 40  2  0
 40 41  1  0
 42 41  2  0
 43 42  1  0
 44 18  1  0
 44 45  1  0
 44 54  1  0
 45 48  1  0
 46 50  1  0
 46 45  1  0
 47 46  2  0
 50 49  1  0
 52 50  1  0
 52 53  1  0
 52 51  1  0
 54 57  1  1
 54 55  1  0
 56 54  1  0
 58 67  1  0
 59 67  1  0
 60 65  1  0
 61 62  1  0
 61 60  1  0
 63 62  1  0
 63 72  1  0
 63 64  1  0
 65 59  1  0
 65 64  1  0
 66 59  2  0
 67 68  1  0
 69 70  2  0
 70 71  1  0
 70 89  1  0
 71 74  1  0
 72 69  1  0
 72 73  1  0
 73 71  2  0
 74 75  1  0
 75 76  2  0
 77 80  1  0
 77 76  1  0
 78 77  2  0
 79 78  1  0
 79 74  2  0
 80 81  1  0
 81 86  2  0
 81 82  1  0
 82 83  2  0
 83 84  1  0
 84 88  1  0
 85 84  2  0
 86 85  1  0
 87 86  1  0
 89 90  1  0
 90 93  1  0
 90 92  1  0
 91 89  2  0
 94 95  1  0
 94 69  1  0
 96 94  1  0
M  ISO  4  16 101  17 101  59 100  67 100
M  END
>  <TORSDO>  (13) 
F 21

>  <SCORE>  (13) 
-11.560

>  <name>  (13) 
12

>  <ligand_id>  (13) 
12

>  <original_smiles>  (13) 
[H]N=C(C(=N[H])C([H])([H])[H])c1c(C([H])([H])N([H])C(=O)N2C([H])([H])C([H])([H])C([H])([H])C([H])(n3nc(-c4c([H])c([H])c(Oc5c([H])c([H])c(F)c([H])c5F)c([H])c4[H])c(C(=O)N([H])[H])c3N([H])[H])C2([H])[H])oc(N=C(C([H])([H])[H])C([H])([H])Oc2c([H])c([H])c3c(c2[H])C([H])([H])N(C(=O)C([H])(N([H])C(=O)C([H])(N([H])C([H])([H])[H])C([H])([H])[H])C(C([H])([H])[H])(C([H])([H])[H])C([H])([H])[H])C([H])(C(=O)N([H])C2([H])c4c([H])c([H])c([H])c([H])c4C([H])([H])C([H])([H])C2([H])[H])C3([H])[H])c1[H]

>  <smiles>  (13) 
[H]N=C(C(=N[H])C([H])([H])[H])c1c(C([H])([H])N([H])C(=O)N2C([H])([H])C([H])([H])C([H])([H])C([H])(n3nc(-c4c([H])c([H])c(Oc5c([H])c([H])c(F)c([H])c5F)c([H])c4[H])c(C(=O)N([H])[H])c3N([H])[H])C2([H])[H])oc(N=C(C([H])([H])[H])C([H])([H])Oc2c([H])c([H])c3c(c2[H])C([H])([H])N(C(=O)C([H])(N([H])C(=O)C([H])(N([H])C([H])([H])[H])C([H])([H])[H])C(C([H])([H])[H])(C([H])([H])[H])C([H])([H])[H])C([H])(C(=O)N([H])C2([H])c4c([H])c([H])c([H])c([H])c4C([H])([H])C([H])([H])C2([H])[H])C3([H])[H])c1[H]

$$$$
13:0:0
     RDKit          3D

 95104  0  0  1  0  0  0  0  0999 V2000
  -28.6690  -23.7650   19.7150 C   0  0  0  0  0  0  0  0  0  0  0  0
  -29.3800  -21.2520   19.9670 C   0  0  0  0  0  3  0  0  0  0  0  0
  -28.4220  -24.3900   21.9820 C   0  0  0  0  0  2  0  0  0  0  0  0
  -28.6460  -22.8430   21.8770 C   0  0  0  0  0  2  0  0  0  0  0  0
  -27.9990  -24.8910   20.5900 C   0  0  0  0  0  3  0  0  0  0  0  0
  -28.9530  -22.5030   20.4670 N   0  0  0  0  0  0  0  0  0  0  0  0
  -29.4470  -21.1210   18.6420 N   0  0  0  0  0  0  0  0  0  0  0  0
  -28.8900  -23.8850   18.5050 O   0  0  0  0  0  0  0  0  0  0  0  0
  -29.8970  -20.3140   18.2420 H   0  0  0  0  0  0  0  0  0  0  0  0
  -29.2390  -21.9190   18.0560 H   0  0  0  0  0  0  0  0  0  0  0  0
  -31.5370  -18.9860   22.2100 C   0  0  0  0  0  3  0  0  0  0  0  0
  -30.8800  -20.1200   21.6730 C   0  0  0  0  0  3  0  0  0  0  0  0
  -31.2190  -17.6690   21.8000 C   0  0  0  0  0  3  0  0  0  0  0  0
  -29.5340  -18.6060   20.3190 C   0  0  0  0  0  3  0  0  0  0  0  0
  -29.8670  -19.9810   20.6960 C   0  0  0  0  0  0  0  0  0  0  0  0
  -30.2070  -17.4170   20.8430 C   0  0  0  0  0  0  0  0  0  0  0  0
  -30.6250  -14.8430   20.3750 C   0  0  0  0  0  0  0  0  0  0  0  0
  -30.4180  -12.5470   19.3620 C   0  0  0  0  0  2  0  0  0  0  0  0
  -29.4700  -12.5540   18.1410 C   0  0  0  0  0  2  0  0  0  0  0  0
  -28.0120  -12.3700   18.5960 C   0  0  0  0  0  2  0  0  0  0  0  0
  -27.6280  -13.3030   19.7720 C   0  0  0  0  0  3  0  0  0  0  0  0
  -28.6920  -13.2810   20.8920 C   0  0  0  0  0  2  0  0  0  0  0  0
  -29.9780  -13.6290   20.2770 N   0  0  0  0  0  0  0  0  0  0  0  0
  -31.8280  -14.9130   20.0950 O   0  0  0  0  0  0  0  0  0  0  0  0
  -29.8560  -16.0020   20.5030 N   0  0  0  0  0  0  0  0  0  0  0  0
  -28.8700  -15.8370   20.3750 H   0  0  0  0  0  0  0  0  0  0  0  0
  -25.2600  -13.9090   20.5320 C   0  0  0  0  0  0  0  0  0  0  0  0
  -24.1850  -13.1420   20.8900 C   0  0  0  0  0  0  0  0  0  0  0  0
  -24.6340  -11.7880   20.8470 C   0  0  0  0  0  0  0  0  0  0  0  0
  -26.2890  -13.0200   20.2770 N   0  0  0  0  0  0  0  0  0  0  0  0
  -25.9240  -11.7380   20.5370 N   0  0  0  0  0  0  0  0  0  0  0  0
  -23.9000  -10.5320   21.0350 C   0  0  0  0  0  0  0  0  0  0  0  0
  -24.3190   -9.5630   21.9730 C   0  0  0  0  0  3  0  0  0  0  0  0
  -23.5830   -8.3710   22.1480 C   0  0  0  0  0  3  0  0  0  0  0  0
  -22.4170   -8.1380   21.3830 C   0  0  0  0  0  0  0  0  0  0  0  0
  -22.0160   -9.0980   20.4370 C   0  0  0  0  0  3  0  0  0  0  0  0
  -22.7510  -10.2820   20.2610 C   0  0  0  0  0  3  0  0  0  0  0  0
  -21.6530   -7.0000   21.4670 O   0  0  0  0  0  0  0  0  0  0  0  0
  -21.5790   -6.2650   22.6210 C   0  0  0  0  0  0  0  0  0  0  0  0
  -21.1160   -6.8270   23.8310 C   0  0  0  0  0  3  0  0  0  0  0  0
  -20.9890   -6.0200   24.9790 C   0  0  0  0  0  3  0  0  0  0  0  0
  -21.3130   -4.6520   24.9200 C   0  0  0  0  0  0  0  0  0  0  0  0
  -21.7650   -4.0900   23.7140 C   0  0  0  0  0  3  0  0  0  0  0  0
  -21.8960   -4.8920   22.5680 C   0  0  0  0  0  0  0  0  0  0  0  0
  -22.3140   -4.3410   21.4040 F   0  0  0  0  0  0  0  0  0  0  0  0
  -21.1840   -3.8740   26.0200 F   0  0  0  0  0  0  0  0  0  0  0  0
  -22.7960  -13.6320   21.1700 C   0  0  0  0  0  0  0  0  0  0  0  0
  -22.0600  -12.9340   22.0280 N   0  0  0  0  0  0  0  0  0  0  0  0
  -22.3700  -14.6700   20.6640 O   0  0  0  0  0  0  0  0  0  0  0  0
  -22.4120  -12.0870   22.4510 H   0  0  0  0  0  0  0  0  0  0  0  0
  -21.1310  -13.2520   22.2620 H   0  0  0  0  0  0  0  0  0  0  0  0
  -25.4520  -15.2810   20.3900 N   0  0  0  0  0  0  0  0  0  0  0  0
  -24.7250  -15.9620   20.5810 H   0  0  0  0  0  0  0  0  0  0  0  0
  -26.3550  -15.7090   20.2300 H   0  0  0  0  0  0  0  0  0  0  0  0
  -28.2780  -26.3530   20.2600 O   0  0  0  0  0  0  0  0  0  0  0  0
  -24.6150  -31.8830   23.2220 C   0  0  0  0  0  0  0  0  0  0  0  0
  -27.1990  -27.2700   20.1870 C   0  0  0  0  0  0  0  0  0  0  0  0
  -23.4060  -30.4870   21.5860 C   0  0  0  0  0  3  0  0  0  0  0  0
  -24.8530  -28.9320   20.1500 C   0  0  0  0  0  0  0  0  0  0  0  0
  -25.9500  -30.7940   21.3920 C   0  0  0  0  0  2  0  0  0  0  0  0
  -26.0270  -29.4100   20.7480 C   0  0  0  0  0  0  0  0  0  0  0  0
  -27.2080  -28.5940   20.7480 C   0  0  0  0  0  3  0  0  0  0  0  0
  -26.0090  -26.8760   19.5370 C   0  0  0  0  0  3  0  0  0  0  0  0
  -24.8500  -27.6760   19.5260 C   0  0  0  0  0  3  0  0  0  0  0  0
  -23.6160  -29.8090   20.2060 C   0  0  0  0  0  2  0  0  0  0  0  0
  -24.6770  -31.0750   22.1220 N   0  0  0  0  0  0  0  0  0  0  0  0
  -23.5340  -32.1600   23.7640 O   0  0  0  0  0  0  0  0  0  0  0  0
  -22.7470  -29.4710   22.5510 C   0  0  0  0  0  0  0  0  0  0  0  0
  -21.4210  -29.2900   22.4270 N   0  0  0  0  0  0  0  0  0  0  0  0
  -23.4290  -28.8500   23.3710 O   0  0  0  0  0  0  0  0  0  0  0  0
  -20.9280  -29.8410   21.7380 H   0  0  0  0  0  0  0  0  0  0  0  0
  -18.0490  -28.0730   22.9450 C   0  0  0  0  0  0  0  0  0  0  0  0
  -20.6070  -28.3490   23.2010 C   0  0  0  0  0  3  0  0  0  0  0  0
  -20.7160  -26.9160   22.6310 C   0  0  0  0  0  2  0  0  0  0  0  0
  -19.6120  -26.5830   21.6240 C   0  0  0  0  0  2  0  0  0  0  0  0
  -18.2320  -26.7230   22.2700 C   0  0  0  0  0  2  0  0  0  0  0  0
  -19.1640  -28.8420   23.3680 C   0  0  0  0  0  0  0  0  0  0  0  0
  -18.9400  -30.1030   23.9630 C   0  0  0  0  0  3  0  0  0  0  0  0
  -17.6320  -30.5960   24.1340 C   0  0  0  0  0  3  0  0  0  0  0  0
  -16.5320  -29.8230   23.7230 C   0  0  0  0  0  3  0  0  0  0  0  0
  -16.7420  -28.5640   23.1350 C   0  0  0  0  0  3  0  0  0  0  0  0
  -25.8970  -32.5200   23.8380 C   0  0  0  0  0  3  0  0  0  0  0  0
  -25.5870  -33.9180   24.1760 N   0  0  0  0  0  0  0  0  0  0  0  0
  -25.9050  -34.9760   23.4160 C   0  0  0  0  0  0  0  0  0  0  0  0
  -26.5620  -34.8770   22.3760 O   0  0  0  0  0  0  0  0  0  0  0  0
  -25.0060  -34.0680   24.9880 H   0  0  0  0  0  0  0  0  0  0  0  0
  -24.1720  -36.7680   23.0820 C   0  0  0  0  0  1  0  0  0  0  0  0
  -25.4170  -36.3610   23.8850 C   0  0  0  0  0  3  0  0  0  0  0  0
  -27.5560  -37.2470   24.7040 C   0  0  0  0  0  1  0  0  0  0  0  0
  -26.4480  -37.4170   23.7680 N   0  0  0  0  0  0  0  0  0  0  0  0
  -26.0410  -38.3370   23.9210 H   0  0  0  0  0  0  0  0  0  0  0  0
  -26.4200  -31.7490   25.1140 C   0  0  1  0  0  0  0  0  0  0  0  0
  -25.3360  -31.5090   26.1890 C   0  0  0  0  0  1  0  0  0  0  0  0
  -27.0080  -30.3760   24.7190 C   0  0  0  0  0  1  0  0  0  0  0  0
  -27.5740  -32.5490   25.7690 C   0  0  0  0  0  1  0  0  0  0  0  0
  1  6  1  0
  1  5  1  0
  2  7  1  0
  2  6  1  0
  2 15  1  0
  4  3  1  0
  5 55  1  0
  5  3  1  0
  6  4  1  0
  8  1  2  0
  9  7  1  0
 10  7  1  0
 12 11  2  0
 13 11  1  0
 14 15  2  0
 14 16  1  0
 15 12  1  0
 16 13  2  0
 17 25  1  0
 18 23  1  0
 19 20  1  0
 19 18  1  0
 21 20  1  0
 21 30  1  0
 21 22  1  0
 23 17  1  0
 23 22  1  0
 24 17  2  0
 25 16  1  0
 26 25  1  0
 27 28  2  0
 28 47  1  0
 29 28  1  0
 29 32  1  0
 30 27  1  0
 30 31  1  0
 31 29  2  0
 32 33  1  0
 33 34  2  0
 35 38  1  0
 35 34  1  0
 36 35  2  0
 37 36  1  0
 37 32  2  0
 38 39  1  0
 39 40  1  0
 40 41  2  0
 42 41  1  0
 42 46  1  0
 43 42  2  0
 44 39  2  0
 44 43  1  0
 45 44  1  0
 47 48  1  0
 48 51  1  0
 48 50  1  0
 49 47  2  0
 52 27  1  0
 52 53  1  0
 54 52  1  0
 56 67  2  0
 57 55  1  0
 57 62  1  0
 58 66  1  0
 58 68  1  0
 59 65  1  0
 59 61  1  0
 60 66  1  0
 61 62  2  0
 61 60  1  0
 63 57  2  0
 64 63  1  0
 64 59  2  0
 65 58  1  0
 66 56  1  0
 68 70  2  0
 69 68  1  0
 71 69  1  0
 72 81  2  0
 72 77  1  0
 73 69  1  0
 73 77  1  0
 74 73  1  0
 75 76  1  0
 75 74  1  0
 76 72  1  0
 77 78  2  0
 78 79  1  0
 80 79  2  0
 81 80  1  0
 82 56  1  0
 82 83  1  0
 82 92  1  0
 83 86  1  0
 84 88  1  0
 84 83  1  0
 85 84  2  0
 88 87  1  0
 90 88  1  0
 90 91  1  0
 90 89  1  0
 92 95  1  1
 92 93  1  0
 94 92  1  0
M  ISO  4   5 101  17 100  25 100  55 101
M  END
>  <TORSDO>  (14) 
F 17

>  <SCORE>  (14) 
-15.351

>  <name>  (14) 
13

>  <ligand_id>  (14) 
13

>  <original_smiles>  (14) 
[H]c1c([H])c(C(N2C(=O)C([H])(Oc3c([H])c([H])c4c(c3[H])C([H])([H])N(C(=O)C([H])(N([H])C(=O)C([H])(N([H])C([H])([H])[H])C([H])([H])[H])C(C([H])([H])[H])(C([H])([H])[H])C([H])([H])[H])C([H])(C(=O)N([H])C3([H])c5c([H])c([H])c([H])c([H])c5C([H])([H])C([H])([H])C3([H])[H])C4([H])[H])C([H])([H])C2([H])[H])=[N+]([H])[H])c([H])c(N([H])C(=O)N2C([H])([H])C([H])([H])C([H])([H])C([H])(n3nc(-c4c([H])c([H])c(Oc5c([H])c([H])c(F)c([H])c5F)c([H])c4[H])c(C(=O)N([H])[H])c3N([H])[H])C2([H])[H])c1[H]

>  <smiles>  (14) 
[H]c1c([H])c(C(N2C(=O)C([H])(Oc3c([H])c([H])c4c(c3[H])C([H])([H])N(C(=O)C([H])(N([H])C(=O)C([H])(N([H])C([H])([H])[H])C([H])([H])[H])C(C([H])([H])[H])(C([H])([H])[H])C([H])([H])[H])C([H])(C(=O)N([H])C3([H])c5c([H])c([H])c([H])c([H])c5C([H])([H])C([H])([H])C3([H])[H])C4([H])[H])C([H])([H])C2([H])[H])=[N+]([H])[H])c([H])c(N([H])C(=O)N2C([H])([H])C([H])([H])C([H])([H])C([H])(n3nc(-c4c([H])c([H])c(Oc5c([H])c([H])c(F)c([H])c5F)c([H])c4[H])c(C(=O)N([H])[H])c3N([H])[H])C2([H])[H])c1[H]

$$$$
14:0:0
     RDKit          3D

 96105  0  0  1  0  0  0  0  0999 V2000
  -28.2830  -19.7850   19.8810 C   0  0  0  0  0  3  0  0  0  0  0  0
  -27.5940  -23.3870   20.3310 C   0  0  0  0  0  2  0  0  0  0  0  0
  -30.0300  -23.0580   19.9710 C   0  0  0  0  0  2  0  0  0  0  0  0
  -27.3130  -22.0680   19.5840 C   0  0  0  0  0  2  0  0  0  0  0  0
  -29.7490  -21.7280   19.2360 C   0  0  0  0  0  2  0  0  0  0  0  0
  -28.8860  -24.0850   19.8420 C   0  0  1  0  0  0  0  0  0  0  0  0
  -28.4600  -21.1250   19.6440 N   0  0  0  0  0  0  0  0  0  0  0  0
  -27.1030  -19.3500   20.3580 N   0  0  0  0  0  0  0  0  0  0  0  0
  -28.7200  -24.3380   18.5380 F   0  0  0  0  0  0  0  0  0  0  0  0
  -26.9580  -18.3710   20.5480 H   0  0  0  0  0  0  0  0  0  0  0  0
  -26.3450  -19.9810   20.5660 H   0  0  0  0  0  0  0  0  0  0  0  0
  -29.6760  -17.7570   20.5240 C   0  0  0  0  0  3  0  0  0  0  0  0
  -30.8340  -17.0580   18.6060 C   0  0  0  0  0  3  0  0  0  0  0  0
  -30.5450  -16.7930   19.9220 C   0  0  0  0  0  0  0  0  0  0  0  0
  -29.2790  -18.7440   19.6480 C   0  0  0  0  0  0  0  0  0  0  0  0
  -29.9880  -18.4840   18.0620 S   0  0  0  0  0  0  0  0  0  0  0  0
  -31.6510  -14.5960   20.1220 C   0  0  0  0  0  0  0  0  0  0  0  0
  -31.3540  -12.3530   19.1710 C   0  0  0  0  0  2  0  0  0  0  0  0
  -30.4090  -12.4930   17.9560 C   0  0  0  0  0  2  0  0  0  0  0  0
  -28.9260  -12.4420   18.3860 C   0  0  0  0  0  2  0  0  0  0  0  0
  -28.6160  -13.3810   19.5850 C   0  0  0  0  0  3  0  0  0  0  0  0
  -29.6610  -13.1670   20.7050 C   0  0  0  0  0  2  0  0  0  0  0  0
  -30.9990  -13.4050   20.1330 N   0  0  0  0  0  0  0  0  0  0  0  0
  -32.7530  -14.7650   19.5840 O   0  0  0  0  0  0  0  0  0  0  0  0
  -30.9480  -15.6220   20.6320 N   0  0  0  0  0  0  0  0  0  0  0  0
  -30.3120  -15.3530   21.3700 H   0  0  0  0  0  0  0  0  0  0  0  0
  -26.2850  -14.1470   20.3750 C   0  0  0  0  0  0  0  0  0  0  0  0
  -25.1660  -13.4420   20.7340 C   0  0  0  0  0  0  0  0  0  0  0  0
  -25.5170  -12.0630   20.6240 C   0  0  0  0  0  0  0  0  0  0  0  0
  -27.2520  -13.1970   20.0760 N   0  0  0  0  0  0  0  0  0  0  0  0
  -26.7910  -11.9370   20.2790 N   0  0  0  0  0  0  0  0  0  0  0  0
  -24.6990  -10.8530   20.7740 C   0  0  0  0  0  0  0  0  0  0  0  0
  -25.0290   -9.8440   21.7050 C   0  0  0  0  0  3  0  0  0  0  0  0
  -24.2190   -8.6970   21.8400 C   0  0  0  0  0  3  0  0  0  0  0  0
  -23.0600   -8.5500   21.0410 C   0  0  0  0  0  0  0  0  0  0  0  0
  -22.7460   -9.5450   20.0980 C   0  0  0  0  0  3  0  0  0  0  0  0
  -23.5570  -10.6840   19.9630 C   0  0  0  0  0  3  0  0  0  0  0  0
  -22.2260   -7.4580   21.0850 O   0  0  0  0  0  0  0  0  0  0  0  0
  -22.0050   -6.7680   22.2500 C   0  0  0  0  0  0  0  0  0  0  0  0
  -21.4070   -7.3770   23.3750 C   0  0  0  0  0  3  0  0  0  0  0  0
  -21.1350   -6.6120   24.5260 C   0  0  0  0  0  3  0  0  0  0  0  0
  -21.4510   -5.2410   24.5530 C   0  0  0  0  0  0  0  0  0  0  0  0
  -22.0430   -4.6330   23.4320 C   0  0  0  0  0  3  0  0  0  0  0  0
  -22.3170   -5.3940   22.2830 C   0  0  0  0  0  0  0  0  0  0  0  0
  -22.8690   -4.7990   21.1990 F   0  0  0  0  0  0  0  0  0  0  0  0
  -21.1810   -4.5040   25.6560 F   0  0  0  0  0  0  0  0  0  0  0  0
  -23.8190  -14.0140   21.0680 C   0  0  0  0  0  0  0  0  0  0  0  0
  -23.0630  -13.3420   21.9310 N   0  0  0  0  0  0  0  0  0  0  0  0
  -23.4450  -15.0890   20.6010 O   0  0  0  0  0  0  0  0  0  0  0  0
  -23.3740  -12.4710   22.3330 H   0  0  0  0  0  0  0  0  0  0  0  0
  -22.1570  -13.7070   22.1950 H   0  0  0  0  0  0  0  0  0  0  0  0
  -26.5550  -15.5060   20.2590 N   0  0  0  0  0  0  0  0  0  0  0  0
  -25.8390  -16.2090   20.4000 H   0  0  0  0  0  0  0  0  0  0  0  0
  -27.4220  -15.8910   19.9070 H   0  0  0  0  0  0  0  0  0  0  0  0
  -29.2400  -25.3900   20.6520 C   0  0  0  0  0  2  0  0  0  0  0  0
  -29.1150  -26.8130   20.3600 O   0  0  0  0  0  0  0  0  0  0  0  0
  -24.8570  -31.6710   23.3380 C   0  0  0  0  0  0  0  0  0  0  0  0
  -27.8940  -27.4670   20.3060 C   0  0  0  0  0  0  0  0  0  0  0  0
  -23.8260  -30.2860   21.5630 C   0  0  0  0  0  3  0  0  0  0  0  0
  -25.4410  -28.8610   20.1970 C   0  0  0  0  0  0  0  0  0  0  0  0
  -26.3410  -30.7580   21.5570 C   0  0  0  0  0  2  0  0  0  0  0  0
  -26.5300  -29.4180   20.8790 C   0  0  0  0  0  0  0  0  0  0  0  0
  -27.7600  -28.7290   20.9270 C   0  0  0  0  0  3  0  0  0  0  0  0
  -26.7860  -26.9160   19.6280 C   0  0  0  0  0  3  0  0  0  0  0  0
  -25.5640  -27.6090   19.5680 C   0  0  0  0  0  3  0  0  0  0  0  0
  -24.1620  -29.6660   20.1790 C   0  0  0  0  0  2  0  0  0  0  0  0
  -25.0200  -30.9190   22.2120 N   0  0  0  0  0  0  0  0  0  0  0  0
  -23.7300  -31.8760   23.8110 O   0  0  0  0  0  0  0  0  0  0  0  0
  -23.1530  -29.2050   22.4390 C   0  0  0  0  0  0  0  0  0  0  0  0
  -21.8370  -29.0160   22.2520 N   0  0  0  0  0  0  0  0  0  0  0  0
  -23.8150  -28.5400   23.2410 O   0  0  0  0  0  0  0  0  0  0  0  0
  -21.3630  -29.6100   21.5850 H   0  0  0  0  0  0  0  0  0  0  0  0
  -18.4440  -27.8200   22.6240 C   0  0  0  0  0  0  0  0  0  0  0  0
  -21.0040  -28.0230   22.9300 C   0  0  0  0  0  3  0  0  0  0  0  0
  -21.0960  -26.6480   22.2300 C   0  0  0  0  0  2  0  0  0  0  0  0
  -19.9910  -26.4110   21.1950 C   0  0  0  0  0  2  0  0  0  0  0  0
  -18.6060  -26.5340   21.8320 C   0  0  0  0  0  2  0  0  0  0  0  0
  -19.5690  -28.5270   23.1240 C   0  0  0  0  0  0  0  0  0  0  0  0
  -19.3610  -29.7360   23.8220 C   0  0  0  0  0  3  0  0  0  0  0  0
  -18.0620  -30.2410   24.0230 C   0  0  0  0  0  3  0  0  0  0  0  0
  -16.9510  -29.5300   23.5350 C   0  0  0  0  0  3  0  0  0  0  0  0
  -17.1430  -28.3220   22.8410 C   0  0  0  0  0  3  0  0  0  0  0  0
  -26.0690  -32.3280   24.0680 C   0  0  0  0  0  3  0  0  0  0  0  0
  -25.6990  -33.7120   24.3850 N   0  0  0  0  0  0  0  0  0  0  0  0
  -26.0380  -34.7800   23.6480 C   0  0  0  0  0  0  0  0  0  0  0  0
  -26.7680  -34.7020   22.6560 O   0  0  0  0  0  0  0  0  0  0  0  0
  -25.0590  -33.8430   25.1540 H   0  0  0  0  0  0  0  0  0  0  0  0
  -24.2590  -36.5030   23.2170 C   0  0  0  0  0  1  0  0  0  0  0  0
  -25.4790  -36.1480   24.0810 C   0  0  0  0  0  3  0  0  0  0  0  0
  -27.5250  -37.1330   25.0180 C   0  0  0  0  0  1  0  0  0  0  0  0
  -26.4740  -37.2410   24.0090 N   0  0  0  0  0  0  0  0  0  0  0  0
  -26.0230  -38.1450   24.1180 H   0  0  0  0  0  0  0  0  0  0  0  0
  -26.5040  -31.5540   25.3730 C   0  0  1  0  0  0  0  0  0  0  0  0
  -25.3320  -31.2590   26.3370 C   0  0  0  0  0  1  0  0  0  0  0  0
  -27.1730  -30.2070   25.0130 C   0  0  0  0  0  1  0  0  0  0  0  0
  -27.5590  -32.3800   26.1450 C   0  0  0  0  0  1  0  0  0  0  0  0
  1  8  1  0
  4  7  1  0
  4  2  1  0
  5  7  1  0
  5  3  1  0
  6  9  1  6
  6  3  1  0
  6  2  1  0
  6 55  1  0
  7  1  1  0
  8 10  1  0
  8 11  1  0
 13 14  2  0
 14 12  1  0
 14 25  1  0
 15  1  1  0
 15 12  2  0
 16 13  1  0
 16 15  1  0
 17 23  1  0
 17 25  1  0
 18 23  1  0
 19 20  1  0
 19 18  1  0
 21 20  1  0
 21 30  1  0
 21 22  1  0
 23 22  1  0
 24 17  2  0
 25 26  1  0
 27 28  2  0
 28 47  1  0
 29 28  1  0
 29 32  1  0
 30 31  1  0
 30 27  1  0
 31 29  2  0
 32 33  1  0
 33 34  2  0
 35 38  1  0
 35 34  1  0
 36 35  2  0
 37 36  1  0
 37 32  2  0
 38 39  1  0
 39 44  2  0
 39 40  1  0
 40 41  2  0
 41 42  1  0
 42 46  1  0
 43 42  2  0
 44 43  1  0
 45 44  1  0
 47 48  1  0
 48 51  1  0
 48 50  1  0
 49 47  2  0
 52 27  1  0
 52 53  1  0
 54 52  1  0
 56 55  1  0
 57 68  2  0
 58 56  1  0
 58 63  1  0
 59 67  1  0
 59 69  1  0
 60 62  1  0
 61 67  1  0
 62 63  2  0
 62 61  1  0
 64 58  2  0
 65 64  1  0
 65 60  2  0
 66 60  1  0
 66 59  1  0
 67 57  1  0
 69 71  2  0
 70 69  1  0
 72 70  1  0
 73 82  2  0
 73 78  1  0
 74 70  1  0
 74 78  1  0
 75 74  1  0
 76 77  1  0
 76 75  1  0
 77 73  1  0
 78 79  2  0
 79 80  1  0
 81 80  2  0
 82 81  1  0
 83 57  1  0
 83 84  1  0
 83 93  1  0
 84 87  1  0
 85 89  1  0
 85 84  1  0
 86 85  2  0
 89 88  1  0
 91 89  1  0
 91 92  1  0
 91 90  1  0
 93 96  1  1
 93 94  1  0
 95 93  1  0
M  ISO  4  17 100  25 100  55 101  56 101
M  END
>  <TORSDO>  (15) 
F 18

>  <SCORE>  (15) 
-13.071

>  <name>  (15) 
14

>  <ligand_id>  (15) 
14

>  <original_smiles>  (15) 
[H]c1sc(C(N2C([H])([H])C([H])([H])C(F)(C([H])([H])Oc3c([H])c([H])c4c(c3[H])C([H])([H])N(C(=O)C([H])(N([H])C(=O)C([H])(N([H])C([H])([H])[H])C([H])([H])[H])C(C([H])([H])[H])(C([H])([H])[H])C([H])([H])[H])C([H])(C(=O)N([H])C3([H])c5c([H])c([H])c([H])c([H])c5C([H])([H])C([H])([H])C3([H])[H])C4([H])[H])C([H])([H])C2([H])[H])=[N+]([H])[H])c([H])c1N([H])C(=O)N1C([H])([H])C([H])([H])C([H])([H])C([H])(n2nc(-c3c([H])c([H])c(Oc4c([H])c([H])c(F)c([H])c4F)c([H])c3[H])c(C(=O)N([H])[H])c2N([H])[H])C1([H])[H]

>  <smiles>  (15) 
[H]c1sc(C(N2C([H])([H])C([H])([H])C(F)(C([H])([H])Oc3c([H])c([H])c4c(c3[H])C([H])([H])N(C(=O)C([H])(N([H])C(=O)C([H])(N([H])C([H])([H])[H])C([H])([H])[H])C(C([H])([H])[H])(C([H])([H])[H])C([H])([H])[H])C([H])(C(=O)N([H])C3([H])c5c([H])c([H])c([H])c([H])c5C([H])([H])C([H])([H])C3([H])[H])C4([H])[H])C([H])([H])C2([H])[H])=[N+]([H])[H])c([H])c1N([H])C(=O)N1C([H])([H])C([H])([H])C([H])([H])C([H])(n2nc(-c3c([H])c([H])c(Oc4c([H])c([H])c(F)c([H])c4F)c([H])c3[H])c(C(=O)N([H])[H])c2N([H])[H])C1([H])[H]

$$$$
15:0:0
     RDKit          3D

 91 99  0  0  1  0  0  0  0  0999 V2000
  -28.4330  -23.7090   20.0780 C   0  0  0  0  0  0  0  0  0  0  0  0
  -28.8760  -22.5700   20.7440 N   0  0  0  0  0  0  0  0  0  0  0  0
  -28.1960  -23.6830   18.8670 O   0  0  0  0  0  0  0  0  0  0  0  0
  -29.1700  -22.7710   21.6920 H   0  0  0  0  0  0  0  0  0  0  0  0
  -28.5890  -19.0080   19.4650 C   0  0  0  0  0  3  0  0  0  0  0  0
  -28.2700  -20.4340   19.4940 C   0  0  0  0  0  3  0  0  0  0  0  0
  -29.5790  -18.5910   20.3330 C   0  0  0  0  0  0  0  0  0  0  0  0
  -28.9810  -21.2080   20.3960 C   0  0  0  0  0  0  0  0  0  0  0  0
  -30.0990  -20.0690   21.2090 S   0  0  0  0  0  0  0  0  0  0  0  0
  -30.6210  -14.8000   20.1740 C   0  0  0  0  0  0  0  0  0  0  0  0
  -30.3620  -12.5320   19.1420 C   0  0  0  0  0  2  0  0  0  0  0  0
  -29.3950  -12.5930   17.9410 C   0  0  0  0  0  2  0  0  0  0  0  0
  -27.9400  -12.4110   18.4120 C   0  0  0  0  0  2  0  0  0  0  0  0
  -27.5910  -13.2990   19.6370 C   0  0  0  0  0  3  0  0  0  0  0  0
  -28.6800  -13.2400   20.7280 C   0  0  0  0  0  2  0  0  0  0  0  0
  -29.9500  -13.5970   20.0860 N   0  0  0  0  0  0  0  0  0  0  0  0
  -31.8200  -14.8140   19.8810 O   0  0  0  0  0  0  0  0  0  0  0  0
  -30.3890  -17.2730   20.5350 C   0  0  0  0  0  0  0  0  0  0  0  0
  -29.8970  -15.9850   20.3330 N   0  0  0  0  0  0  0  0  0  0  0  0
  -31.5520  -17.4360   20.9220 O   0  0  0  0  0  0  0  0  0  0  0  0
  -28.8970  -15.9100   20.2580 H   0  0  0  0  0  0  0  0  0  0  0  0
  -25.2230  -13.8720   20.4340 C   0  0  0  0  0  0  0  0  0  0  0  0
  -24.1720  -13.0900   20.8260 C   0  0  0  0  0  0  0  0  0  0  0  0
  -24.6420  -11.7410   20.7800 C   0  0  0  0  0  0  0  0  0  0  0  0
  -26.2660  -12.9990   20.1660 N   0  0  0  0  0  0  0  0  0  0  0  0
  -25.9260  -11.7130   20.4390 N   0  0  0  0  0  0  0  0  0  0  0  0
  -23.9260  -10.4740   20.9800 C   0  0  0  0  0  0  0  0  0  0  0  0
  -24.3760   -9.5110   21.9100 C   0  0  0  0  0  3  0  0  0  0  0  0
  -23.6590   -8.3090   22.0980 C   0  0  0  0  0  3  0  0  0  0  0  0
  -22.4780   -8.0630   21.3590 C   0  0  0  0  0  0  0  0  0  0  0  0
  -22.0470   -9.0160   20.4180 C   0  0  0  0  0  3  0  0  0  0  0  0
  -22.7650  -10.2080   20.2270 C   0  0  0  0  0  3  0  0  0  0  0  0
  -21.7310   -6.9150   21.4580 O   0  0  0  0  0  0  0  0  0  0  0  0
  -21.6890   -6.1820   22.6160 C   0  0  0  0  0  0  0  0  0  0  0  0
  -21.2460   -6.7390   23.8350 C   0  0  0  0  0  3  0  0  0  0  0  0
  -21.1530   -5.9310   24.9870 C   0  0  0  0  0  3  0  0  0  0  0  0
  -21.4910   -4.5670   24.9190 C   0  0  0  0  0  0  0  0  0  0  0  0
  -21.9280   -4.0080   23.7050 C   0  0  0  0  0  3  0  0  0  0  0  0
  -22.0230   -4.8130   22.5560 C   0  0  0  0  0  0  0  0  0  0  0  0
  -22.4230   -4.2650   21.3830 F   0  0  0  0  0  0  0  0  0  0  0  0
  -21.3950   -3.7880   26.0220 F   0  0  0  0  0  0  0  0  0  0  0  0
  -22.7790  -13.5590   21.1300 C   0  0  0  0  0  0  0  0  0  0  0  0
  -22.0730  -12.8550   22.0070 N   0  0  0  0  0  0  0  0  0  0  0  0
  -22.3260  -14.5840   20.6240 O   0  0  0  0  0  0  0  0  0  0  0  0
  -22.4530  -12.0250   22.4390 H   0  0  0  0  0  0  0  0  0  0  0  0
  -21.1390  -13.1510   22.2540 H   0  0  0  0  0  0  0  0  0  0  0  0
  -25.3740  -15.2430   20.2560 N   0  0  0  0  0  0  0  0  0  0  0  0
  -24.6000  -15.8870   20.3870 H   0  0  0  0  0  0  0  0  0  0  0  0
  -26.1980  -15.6900   19.8760 H   0  0  0  0  0  0  0  0  0  0  0  0
  -28.2000  -25.0850   20.8830 C   0  0  0  0  0  2  0  0  0  0  0  0
  -28.3490  -26.4170   20.1980 O   0  0  0  0  0  0  0  0  0  0  0  0
  -24.6120  -31.8820   23.2350 C   0  0  0  0  0  0  0  0  0  0  0  0
  -27.2510  -27.3020   20.1990 C   0  0  0  0  0  0  0  0  0  0  0  0
  -23.4260  -30.4840   21.5820 C   0  0  0  0  0  3  0  0  0  0  0  0
  -24.8910  -28.9340   20.1660 C   0  0  0  0  0  0  0  0  0  0  0  0
  -25.9680  -30.8020   21.4190 C   0  0  0  0  0  2  0  0  0  0  0  0
  -26.0580  -29.4200   20.7710 C   0  0  0  0  0  0  0  0  0  0  0  0
  -27.2450  -28.6190   20.7710 C   0  0  0  0  0  3  0  0  0  0  0  0
  -26.0640  -26.8740   19.5730 C   0  0  0  0  0  3  0  0  0  0  0  0
  -24.8990  -27.6680   19.5540 C   0  0  0  0  0  3  0  0  0  0  0  0
  -23.6540  -29.8090   20.2030 C   0  0  0  0  0  2  0  0  0  0  0  0
  -24.6880  -31.0740   22.1350 N   0  0  0  0  0  0  0  0  0  0  0  0
  -23.5240  -32.1550   23.7620 O   0  0  0  0  0  0  0  0  0  0  0  0
  -22.7560  -29.4660   22.5360 C   0  0  0  0  0  0  0  0  0  0  0  0
  -21.4300  -29.2920   22.4060 N   0  0  0  0  0  0  0  0  0  0  0  0
  -23.4310  -28.8340   23.3540 O   0  0  0  0  0  0  0  0  0  0  0  0
  -20.9450  -29.8530   21.7190 H   0  0  0  0  0  0  0  0  0  0  0  0
  -18.0480  -28.1010   22.8970 C   0  0  0  0  0  0  0  0  0  0  0  0
  -20.6080  -28.3510   23.1690 C   0  0  0  0  0  3  0  0  0  0  0  0
  -20.7050  -26.9240   22.5820 C   0  0  0  0  0  2  0  0  0  0  0  0
  -19.6020  -26.6120   21.5650 C   0  0  0  0  0  2  0  0  0  0  0  0
  -18.2220  -26.7560   22.2110 C   0  0  0  0  0  2  0  0  0  0  0  0
  -19.1700  -28.8560   23.3330 C   0  0  0  0  0  0  0  0  0  0  0  0
  -18.9540  -30.1150   23.9350 C   0  0  0  0  0  3  0  0  0  0  0  0
  -17.6490  -30.6180   24.1060 C   0  0  0  0  0  3  0  0  0  0  0  0
  -16.5440  -29.8580   23.6860 C   0  0  0  0  0  3  0  0  0  0  0  0
  -16.7440  -28.6020   23.0870 C   0  0  0  0  0  3  0  0  0  0  0  0
  -25.8880  -32.5180   23.8690 C   0  0  0  0  0  3  0  0  0  0  0  0
  -25.5740  -33.9170   24.1920 N   0  0  0  0  0  0  0  0  0  0  0  0
  -25.9050  -34.9690   23.4320 C   0  0  0  0  0  0  0  0  0  0  0  0
  -26.5760  -34.8630   22.4020 O   0  0  0  0  0  0  0  0  0  0  0  0
  -24.9770  -34.0720   24.9920 H   0  0  0  0  0  0  0  0  0  0  0  0
  -24.1750  -36.7600   23.0710 C   0  0  0  0  0  1  0  0  0  0  0  0
  -25.4160  -36.3590   23.8850 C   0  0  0  0  0  3  0  0  0  0  0  0
  -27.5470  -37.2510   24.7170 C   0  0  0  0  0  1  0  0  0  0  0  0
  -26.4470  -37.4120   23.7690 N   0  0  0  0  0  0  0  0  0  0  0  0
  -26.0400  -38.3330   23.9110 H   0  0  0  0  0  0  0  0  0  0  0  0
  -26.3900  -31.7520   25.1540 C   0  0  1  0  0  0  0  0  0  0  0  0
  -25.2850  -31.5190   26.2120 C   0  0  0  0  0  1  0  0  0  0  0  0
  -26.9760  -30.3730   24.7770 C   0  0  0  0  0  1  0  0  0  0  0  0
  -27.5330  -32.5490   25.8260 C   0  0  0  0  0  1  0  0  0  0  0  0
  1  2  1  0
  1 50  1  0
  2  4  1  0
  3  1  2  0
  5  6  1  0
  5  7  2  0
  6  8  2  0
  7 18  1  0
  7  9  1  0
  8  2  1  0
  8  9  1  0
 10 19  1  0
 11 16  1  0
 12 13  1  0
 12 11  1  0
 14 13  1  0
 14 25  1  0
 14 15  1  0
 16 10  1  0
 16 15  1  0
 17 10  2  0
 18 20  2  0
 19 18  1  0
 21 19  1  0
 22 23  2  0
 23 42  1  0
 24 23  1  0
 24 27  1  0
 25 22  1  0
 25 26  1  0
 26 24  2  0
 27 28  1  0
 28 29  2  0
 30 33  1  0
 30 29  1  0
 31 30  2  0
 32 31  1  0
 32 27  2  0
 33 34  1  0
 34 35  1  0
 35 36  2  0
 37 36  1  0
 37 41  1  0
 38 37  2  0
 39 34  2  0
 39 38  1  0
 40 39  1  0
 42 43  1  0
 43 46  1  0
 43 45  1  0
 44 42  2  0
 47 48  1  0
 47 22  1  0
 49 47  1  0
 51 53  1  0
 51 50  1  0
 52 63  2  0
 53 58  1  0
 54 62  1  0
 54 64  1  0
 55 61  1  0
 55 57  1  0
 56 62  1  0
 57 56  1  0
 58 57  2  0
 59 53  2  0
 60 59  1  0
 60 55  2  0
 61 54  1  0
 62 52  1  0
 64 66  2  0
 65 64  1  0
 67 65  1  0
 68 77  2  0
 68 73  1  0
 69 65  1  0
 69 73  1  0
 70 69  1  0
 71 72  1  0
 71 70  1  0
 72 68  1  0
 73 74  2  0
 74 75  1  0
 76 75  2  0
 77 76  1  0
 78 52  1  0
 78 79  1  0
 78 88  1  0
 79 82  1  0
 80 84  1  0
 80 79  1  0
 81 80  2  0
 84 83  1  0
 86 84  1  0
 86 87  1  0
 86 85  1  0
 88 91  1  1
 88 89  1  0
 90 88  1  0
M  ISO  4  10 100  19 100  50 101  51 101
M  END
>  <TORSDO>  (16) 
F 18

>  <SCORE>  (16) 
-14.744

>  <name>  (16) 
15

>  <ligand_id>  (16) 
15

>  <original_smiles>  (16) 
[H]c1c(C(=O)N([H])C(=O)N2C([H])([H])C([H])([H])C([H])([H])C([H])(n3nc(-c4c([H])c([H])c(Oc5c([H])c([H])c(F)c([H])c5F)c([H])c4[H])c(C(=O)N([H])[H])c3N([H])[H])C2([H])[H])sc(N([H])C(=O)C([H])([H])Oc2c([H])c([H])c3c(c2[H])C([H])([H])N(C(=O)C([H])(N([H])C(=O)C([H])(N([H])C([H])([H])[H])C([H])([H])[H])C(C([H])([H])[H])(C([H])([H])[H])C([H])([H])[H])C([H])(C(=O)N([H])C2([H])c4c([H])c([H])c([H])c([H])c4C([H])([H])C([H])([H])C2([H])[H])C3([H])[H])c1[H]

>  <smiles>  (16) 
[H]c1c(C(=O)N([H])C(=O)N2C([H])([H])C([H])([H])C([H])([H])C([H])(n3nc(-c4c([H])c([H])c(Oc5c([H])c([H])c(F)c([H])c5F)c([H])c4[H])c(C(=O)N([H])[H])c3N([H])[H])C2([H])[H])sc(N([H])C(=O)C([H])([H])Oc2c([H])c([H])c3c(c2[H])C([H])([H])N(C(=O)C([H])(N([H])C(=O)C([H])(N([H])C([H])([H])[H])C([H])([H])[H])C(C([H])([H])[H])(C([H])([H])[H])C([H])([H])[H])C([H])(C(=O)N([H])C2([H])c4c([H])c([H])c([H])c([H])c4C([H])([H])C([H])([H])C2([H])[H])C3([H])[H])c1[H]

$$$$
16:0:0
     RDKit          3D

 99108  0  0  1  0  0  0  0  0999 V2000
  -29.3240  -23.2920   22.1410 C   0  0  0  0  0  0  0  0  0  0  0  0
  -28.9340  -21.8370   21.8350 C   0  0  0  0  0  2  0  0  0  0  0  0
  -28.9560  -21.7310   19.3110 C   0  0  0  0  0  2  0  0  0  0  0  0
  -29.2350  -23.2080   18.9680 C   0  0  0  0  0  2  0  0  0  0  0  0
  -29.6530  -21.2500   20.6020 C   0  0  0  0  0  3  0  0  0  0  0  0
  -28.6030  -24.2860   19.8880 C   0  0  0  0  0  3  0  0  0  0  0  0
  -29.1560  -24.2790   21.2470 N   0  0  0  0  0  0  0  0  0  0  0  0
  -29.8040  -23.5550   23.2430 O   0  0  0  0  0  0  0  0  0  0  0  0
  -29.4230  -25.1970   21.5730 H   0  0  0  0  0  0  0  0  0  0  0  0
  -31.2210  -17.7100   21.1180 C   0  0  0  0  0  3  0  0  0  0  0  0
  -28.8720  -17.4490   20.5800 C   0  0  0  0  0  3  0  0  0  0  0  0
  -29.8300  -19.7140   20.6930 C   0  0  0  0  0  0  0  0  0  0  0  0
  -30.1170  -16.8590   20.8850 C   0  0  0  0  0  0  0  0  0  0  0  0
  -31.0800  -19.1190   21.0410 C   0  0  0  0  0  0  0  0  0  0  0  0
  -28.7290  -18.8490   20.4700 C   0  0  0  0  0  0  0  0  0  0  0  0
  -27.5090  -19.3580   20.1700 F   0  0  0  0  0  0  0  0  0  0  0  0
  -30.8410  -14.5400   20.2970 C   0  0  0  0  0  0  0  0  0  0  0  0
  -30.5220  -12.4220   19.0600 C   0  0  0  0  0  2  0  0  0  0  0  0
  -29.5320  -12.6990   17.9090 C   0  0  0  0  0  2  0  0  0  0  0  0
  -28.0770  -12.5320   18.3900 C   0  0  0  0  0  2  0  0  0  0  0  0
  -27.7960  -13.3100   19.7040 C   0  0  0  0  0  3  0  0  0  0  0  0
  -28.8910  -13.0110   20.7550 C   0  0  0  0  0  2  0  0  0  0  0  0
  -30.1990  -13.3460   20.1570 N   0  0  0  0  0  0  0  0  0  0  0  0
  -31.9110  -14.7970   19.7310 O   0  0  0  0  0  0  0  0  0  0  0  0
  -30.1760  -15.4400   21.0490 N   0  0  0  0  0  0  0  0  0  0  0  0
  -29.3690  -15.0350   21.5030 H   0  0  0  0  0  0  0  0  0  0  0  0
  -25.4270  -13.9090   20.5170 C   0  0  0  0  0  0  0  0  0  0  0  0
  -24.3730  -13.1320   20.9130 C   0  0  0  0  0  0  0  0  0  0  0  0
  -24.8240  -11.7790   20.8220 C   0  0  0  0  0  0  0  0  0  0  0  0
  -26.4590  -13.0300   20.2210 N   0  0  0  0  0  0  0  0  0  0  0  0
  -26.0990  -11.7430   20.4520 N   0  0  0  0  0  0  0  0  0  0  0  0
  -24.0990  -10.5170   21.0050 C   0  0  0  0  0  0  0  0  0  0  0  0
  -24.5270   -9.5490   21.9410 C   0  0  0  0  0  3  0  0  0  0  0  0
  -23.8020   -8.3500   22.1130 C   0  0  0  0  0  3  0  0  0  0  0  0
  -22.6350   -8.1120   21.3490 C   0  0  0  0  0  0  0  0  0  0  0  0
  -22.2260   -9.0680   20.4030 C   0  0  0  0  0  3  0  0  0  0  0  0
  -22.9530  -10.2580   20.2290 C   0  0  0  0  0  3  0  0  0  0  0  0
  -21.8820   -6.9670   21.4300 O   0  0  0  0  0  0  0  0  0  0  0  0
  -21.7700   -6.2590   22.5990 C   0  0  0  0  0  0  0  0  0  0  0  0
  -21.2360   -6.8380   23.7720 C   0  0  0  0  0  3  0  0  0  0  0  0
  -21.0750   -6.0560   24.9330 C   0  0  0  0  0  3  0  0  0  0  0  0
  -21.4360   -4.6960   24.9220 C   0  0  0  0  0  0  0  0  0  0  0  0
  -21.9630   -4.1160   23.7550 C   0  0  0  0  0  3  0  0  0  0  0  0
  -22.1270   -4.8960   22.5970 C   0  0  0  0  0  0  0  0  0  0  0  0
  -22.6150   -4.3260   21.4680 F   0  0  0  0  0  0  0  0  0  0  0  0
  -21.2730   -3.9420   26.0360 F   0  0  0  0  0  0  0  0  0  0  0  0
  -22.9920  -13.6080   21.2650 C   0  0  0  0  0  0  0  0  0  0  0  0
  -22.2980  -12.8850   22.1370 N   0  0  0  0  0  0  0  0  0  0  0  0
  -22.5400  -14.6560   20.8040 O   0  0  0  0  0  0  0  0  0  0  0  0
  -22.6730  -12.0320   22.5250 H   0  0  0  0  0  0  0  0  0  0  0  0
  -21.3750  -13.1860   22.4150 H   0  0  0  0  0  0  0  0  0  0  0  0
  -25.5880  -15.2840   20.3650 N   0  0  0  0  0  0  0  0  0  0  0  0
  -24.8100  -15.9250   20.4850 H   0  0  0  0  0  0  0  0  0  0  0  0
  -26.3890  -15.7170   19.9250 H   0  0  0  0  0  0  0  0  0  0  0  0
  -32.2000  -19.8960   21.3510 N   0  0  0  0  0  0  0  0  0  0  0  0
  -32.9360  -19.4710   21.9060 H   0  0  0  0  0  0  0  0  0  0  0  0
  -32.0460  -20.8670   21.6030 H   0  0  0  0  0  0  0  0  0  0  0  0
  -28.8600  -25.6910   19.2710 C   0  0  0  0  0  2  0  0  0  0  0  0
  -28.5990  -26.7940   20.1470 O   0  0  0  0  0  0  0  0  0  0  0  0
  -24.6490  -31.8620   23.1660 C   0  0  0  0  0  0  0  0  0  0  0  0
  -27.3960  -27.4700   20.0950 C   0  0  0  0  0  0  0  0  0  0  0  0
  -23.4860  -30.4610   21.4890 C   0  0  0  0  0  3  0  0  0  0  0  0
  -24.9810  -28.9510   20.0740 C   0  0  0  0  0  0  0  0  0  0  0  0
  -26.0090  -30.8390   21.3510 C   0  0  0  0  0  2  0  0  0  0  0  0
  -26.1170  -29.4770   20.6980 C   0  0  0  0  0  0  0  0  0  0  0  0
  -27.3200  -28.7380   20.7150 C   0  0  0  0  0  3  0  0  0  0  0  0
  -26.2380  -26.9560   19.4650 C   0  0  0  0  0  3  0  0  0  0  0  0
  -25.0360  -27.6890   19.4550 C   0  0  0  0  0  3  0  0  0  0  0  0
  -23.7280  -29.7980   20.1060 C   0  0  0  0  0  2  0  0  0  0  0  0
  -24.7310  -31.0700   22.0600 N   0  0  0  0  0  0  0  0  0  0  0  0
  -23.5550  -32.1220   23.6890 O   0  0  0  0  0  0  0  0  0  0  0  0
  -22.8300  -29.4260   22.4310 C   0  0  0  0  0  0  0  0  0  0  0  0
  -21.5030  -29.2650   22.3100 N   0  0  0  0  0  0  0  0  0  0  0  0
  -23.5120  -28.7750   23.2270 O   0  0  0  0  0  0  0  0  0  0  0  0
  -21.0160  -29.8460   21.6410 H   0  0  0  0  0  0  0  0  0  0  0  0
  -18.1110  -28.1510   22.8550 C   0  0  0  0  0  0  0  0  0  0  0  0
  -20.6800  -28.3220   23.0650 C   0  0  0  0  0  3  0  0  0  0  0  0
  -20.7230  -26.9140   22.4290 C   0  0  0  0  0  2  0  0  0  0  0  0
  -19.5860  -26.6680   21.4330 C   0  0  0  0  0  2  0  0  0  0  0  0
  -18.2270  -26.8270   22.1190 C   0  0  0  0  0  2  0  0  0  0  0  0
  -19.2630  -28.8620   23.2820 C   0  0  0  0  0  0  0  0  0  0  0  0
  -19.1000  -30.1080   23.9270 C   0  0  0  0  0  3  0  0  0  0  0  0
  -17.8150  -30.6400   24.1480 C   0  0  0  0  0  3  0  0  0  0  0  0
  -16.6780  -29.9240   23.7340 C   0  0  0  0  0  3  0  0  0  0  0  0
  -16.8270  -28.6810   23.0960 C   0  0  0  0  0  3  0  0  0  0  0  0
  -25.9190  -32.5020   23.8120 C   0  0  0  0  0  3  0  0  0  0  0  0
  -26.4320  -31.7220   25.0860 C   0  0  1  0  0  0  0  0  0  0  0  0
  -25.3290  -31.4370   26.1310 C   0  0  0  0  0  1  0  0  0  0  0  0
  -27.0540  -30.3640   24.6810 C   0  0  0  0  0  1  0  0  0  0  0  0
  -27.5590  -32.5280   25.7730 C   0  0  0  0  0  1  0  0  0  0  0  0
  -25.5880  -33.8940   24.1490 N   0  0  0  0  0  0  0  0  0  0  0  0
  -25.9180  -34.9560   23.4030 C   0  0  0  0  0  0  0  0  0  0  0  0
  -26.6030  -34.8690   22.3800 O   0  0  0  0  0  0  0  0  0  0  0  0
  -24.9810  -34.0350   24.9440 H   0  0  0  0  0  0  0  0  0  0  0  0
  -24.1760  -36.7320   23.0300 C   0  0  0  0  0  1  0  0  0  0  0  0
  -25.4050  -36.3340   23.8630 C   0  0  0  0  0  3  0  0  0  0  0  0
  -27.5070  -37.2330   24.7590 C   0  0  0  0  0  1  0  0  0  0  0  0
  -26.4260  -37.4010   23.7900 N   0  0  0  0  0  0  0  0  0  0  0  0
  -26.0040  -38.3110   23.9430 H   0  0  0  0  0  0  0  0  0  0  0  0
  1  8  2  0
  2  1  1  0
  3  5  1  0
  4  3  1  0
  4  6  1  0
  5 12  1  0
  5  2  1  0
  6 58  1  0
  6  7  1  0
  7  9  1  0
  7  1  1  0
 11 13  1  0
 12 14  2  0
 13 25  1  0
 13 10  2  0
 14 10  1  0
 14 55  1  0
 15 11  2  0
 15 12  1  0
 16 15  1  0
 17 25  1  0
 18 23  1  0
 19 20  1  0
 19 18  1  0
 21 20  1  0
 21 30  1  0
 21 22  1  0
 23 17  1  0
 23 22  1  0
 24 17  2  0
 25 26  1  0
 27 28  2  0
 28 47  1  0
 29 28  1  0
 29 32  1  0
 30 31  1  0
 30 27  1  0
 31 29  2  0
 32 33  1  0
 33 34  2  0
 35 38  1  0
 35 34  1  0
 36 35  2  0
 37 36  1  0
 37 32  2  0
 38 39  1  0
 39 40  1  0
 40 41  2  0
 42 41  1  0
 42 46  1  0
 43 42  2  0
 44 39  2  0
 44 43  1  0
 45 44  1  0
 47 48  1  0
 48 51  1  0
 48 50  1  0
 49 47  2  0
 52 53  1  0
 52 27  1  0
 54 52  1  0
 55 57  1  0
 55 56  1  0
 58 59  1  0
 60 71  2  0
 61 59  1  0
 61 66  1  0
 62 70  1  0
 62 72  1  0
 63 69  1  0
 63 65  1  0
 64 70  1  0
 65 66  2  0
 65 64  1  0
 67 61  2  0
 68 67  1  0
 68 63  2  0
 69 62  1  0
 70 60  1  0
 72 74  2  0
 73 72  1  0
 75 73  1  0
 76 85  2  0
 76 81  1  0
 77 73  1  0
 77 81  1  0
 78 77  1  0
 79 80  1  0
 79 78  1  0
 80 76  1  0
 81 82  2  0
 82 83  1  0
 84 83  2  0
 85 84  1  0
 86 60  1  0
 86 91  1  0
 86 87  1  0
 87 90  1  1
 87 88  1  0
 89 87  1  0
 91 94  1  0
 92 96  1  0
 92 91  1  0
 93 92  2  0
 96 95  1  0
 98 96  1  0
 98 99  1  0
 98 97  1  0
M  ISO  4  17 100  25 100  58 101  59 101
M  END
>  <TORSDO>  (17) 
F 19

>  <SCORE>  (17) 
-15.090

>  <name>  (17) 
16

>  <ligand_id>  (17) 
16

>  <original_smiles>  (17) 
[H]c1c([H])c([H])c2c(c1[H])C([H])([H])C([H])([H])C([H])([H])C2([H])N([H])C(=O)C1([H])N(C(=O)C([H])(N([H])C(=O)C([H])(N([H])C([H])([H])[H])C([H])([H])[H])C(C([H])([H])[H])(C([H])([H])[H])C([H])([H])[H])C([H])([H])c2c([H])c(OC([H])([H])C3([H])N([H])C(=O)C([H])([H])C([H])(c4c(F)c([H])c(N([H])C(=O)N5C([H])([H])C([H])([H])C([H])([H])C([H])(n6nc(-c7c([H])c([H])c(Oc8c([H])c([H])c(F)c([H])c8F)c([H])c7[H])c(C(=O)N([H])[H])c6N([H])[H])C5([H])[H])c([H])c4N([H])[H])C([H])([H])C3([H])[H])c([H])c([H])c2C1([H])[H]

>  <smiles>  (17) 
[H]c1c([H])c([H])c2c(c1[H])C([H])([H])C([H])([H])C([H])([H])C2([H])N([H])C(=O)C1([H])N(C(=O)C([H])(N([H])C(=O)C([H])(N([H])C([H])([H])[H])C([H])([H])[H])C(C([H])([H])[H])(C([H])([H])[H])C([H])([H])[H])C([H])([H])c2c([H])c(OC([H])([H])C3([H])N([H])C(=O)C([H])([H])C([H])(c4c(F)c([H])c(N([H])C(=O)N5C([H])([H])C([H])([H])C([H])([H])C([H])(n6nc(-c7c([H])c([H])c(Oc8c([H])c([H])c(F)c([H])c8F)c([H])c7[H])c(C(=O)N([H])[H])c6N([H])[H])C5([H])[H])c([H])c4N([H])[H])C([H])([H])C3([H])[H])c([H])c([H])c2C1([H])[H]

$$$$
17:0:0
     RDKit          3D

 90 98  0  0  1  0  0  0  0  0999 V2000
  -28.5370  -23.6250   20.0370 C   0  0  0  0  0  0  0  0  0  0  0  0
  -28.8110  -22.4470   20.7400 N   0  0  0  0  0  0  0  0  0  0  0  0
  -28.5880  -23.6560   18.8040 O   0  0  0  0  0  0  0  0  0  0  0  0
  -28.8250  -22.5930   21.7380 H   0  0  0  0  0  0  0  0  0  0  0  0
  -29.5890  -20.0820   21.1550 C   0  0  0  0  0  3  0  0  0  0  0  0
  -29.6400  -18.8500   20.3670 C   0  0  0  0  0  0  0  0  0  0  0  0
  -29.0490  -21.1040   20.3690 C   0  0  0  0  0  0  0  0  0  0  0  0
  -29.1080  -19.1520   19.1770 N   0  0  0  0  0  0  0  0  0  0  0  0
  -28.7400  -20.5300   19.1670 O   0  0  0  0  0  0  0  0  0  0  0  0
  -30.4060  -17.4590   20.6430 C   0  0  0  0  0  2  0  0  0  0  0  0
  -30.5870  -14.8510   20.3080 C   0  0  0  0  0  0  0  0  0  0  0  0
  -30.3940  -12.5490   19.3290 C   0  0  0  0  0  2  0  0  0  0  0  0
  -29.4580  -12.5650   18.1000 C   0  0  0  0  0  2  0  0  0  0  0  0
  -27.9910  -12.3860   18.5340 C   0  0  0  0  0  2  0  0  0  0  0  0
  -27.6050  -13.3020   19.7260 C   0  0  0  0  0  3  0  0  0  0  0  0
  -28.6620  -13.2670   20.8500 C   0  0  0  0  0  2  0  0  0  0  0  0
  -29.9460  -13.6290   20.2410 N   0  0  0  0  0  0  0  0  0  0  0  0
  -31.7880  -14.9080   20.0300 O   0  0  0  0  0  0  0  0  0  0  0  0
  -29.8540  -16.0270   20.4920 N   0  0  0  0  0  0  0  0  0  0  0  0
  -28.8600  -15.9260   20.6210 H   0  0  0  0  0  0  0  0  0  0  0  0
  -25.2210  -13.8940   20.4590 C   0  0  0  0  0  0  0  0  0  0  0  0
  -24.1550  -13.1210   20.8280 C   0  0  0  0  0  0  0  0  0  0  0  0
  -24.6150  -11.7700   20.7970 C   0  0  0  0  0  0  0  0  0  0  0  0
  -26.2640  -13.0130   20.2220 N   0  0  0  0  0  0  0  0  0  0  0  0
  -25.9070  -11.7300   20.4910 N   0  0  0  0  0  0  0  0  0  0  0  0
  -23.8850  -10.5090   20.9840 C   0  0  0  0  0  0  0  0  0  0  0  0
  -24.3050   -9.5450   21.9270 C   0  0  0  0  0  3  0  0  0  0  0  0
  -23.5740   -8.3490   22.1010 C   0  0  0  0  0  3  0  0  0  0  0  0
  -22.4100   -8.1100   21.3340 C   0  0  0  0  0  0  0  0  0  0  0  0
  -22.0100   -9.0630   20.3800 C   0  0  0  0  0  3  0  0  0  0  0  0
  -22.7410  -10.2490   20.2040 C   0  0  0  0  0  3  0  0  0  0  0  0
  -21.6510   -6.9680   21.4170 O   0  0  0  0  0  0  0  0  0  0  0  0
  -21.5760   -6.2380   22.5760 C   0  0  0  0  0  0  0  0  0  0  0  0
  -21.1080   -6.8010   23.7830 C   0  0  0  0  0  3  0  0  0  0  0  0
  -20.9820   -5.9970   24.9330 C   0  0  0  0  0  3  0  0  0  0  0  0
  -21.3120   -4.6300   24.8780 C   0  0  0  0  0  0  0  0  0  0  0  0
  -21.7730   -4.0660   23.6740 C   0  0  0  0  0  3  0  0  0  0  0  0
  -21.9010   -4.8670   22.5270 C   0  0  0  0  0  0  0  0  0  0  0  0
  -22.3250   -4.3130   21.3650 F   0  0  0  0  0  0  0  0  0  0  0  0
  -21.1830   -3.8550   25.9800 F   0  0  0  0  0  0  0  0  0  0  0  0
  -22.7580  -13.6020   21.0950 C   0  0  0  0  0  0  0  0  0  0  0  0
  -22.0250  -12.9060   21.9570 N   0  0  0  0  0  0  0  0  0  0  0  0
  -22.3260  -14.6300   20.5760 O   0  0  0  0  0  0  0  0  0  0  0  0
  -22.3890  -12.0740   22.3980 H   0  0  0  0  0  0  0  0  0  0  0  0
  -21.0880  -13.2090   22.1790 H   0  0  0  0  0  0  0  0  0  0  0  0
  -25.3880  -15.2640   20.2810 N   0  0  0  0  0  0  0  0  0  0  0  0
  -24.6160  -15.9150   20.3810 H   0  0  0  0  0  0  0  0  0  0  0  0
  -26.2240  -15.6990   19.9140 H   0  0  0  0  0  0  0  0  0  0  0  0
  -28.1250  -24.9890   20.8180 C   0  0  0  0  0  2  0  0  0  0  0  0
  -28.3090  -26.3620   20.1900 O   0  0  0  0  0  0  0  0  0  0  0  0
  -24.6340  -31.9040   23.2300 C   0  0  0  0  0  0  0  0  0  0  0  0
  -27.2230  -27.2750   20.1930 C   0  0  0  0  0  0  0  0  0  0  0  0
  -23.4260  -30.5010   21.5980 C   0  0  0  0  0  3  0  0  0  0  0  0
  -24.8710  -28.9380   20.1730 C   0  0  0  0  0  0  0  0  0  0  0  0
  -25.9700  -30.8040   21.4080 C   0  0  0  0  0  2  0  0  0  0  0  0
  -26.0480  -29.4170   20.7630 C   0  0  0  0  0  0  0  0  0  0  0  0
  -27.2310  -28.6010   20.7560 C   0  0  0  0  0  3  0  0  0  0  0  0
  -26.0230  -26.8640   19.5780 C   0  0  0  0  0  3  0  0  0  0  0  0
  -24.8660  -27.6700   19.5660 C   0  0  0  0  0  3  0  0  0  0  0  0
  -23.6370  -29.8210   20.2210 C   0  0  0  0  0  2  0  0  0  0  0  0
  -24.6960  -31.0890   22.1350 N   0  0  0  0  0  0  0  0  0  0  0  0
  -23.5520  -32.1820   23.7680 O   0  0  0  0  0  0  0  0  0  0  0  0
  -22.7640  -29.4890   22.5660 C   0  0  0  0  0  0  0  0  0  0  0  0
  -21.4360  -29.3150   22.4500 N   0  0  0  0  0  0  0  0  0  0  0  0
  -23.4450  -28.8650   23.3830 O   0  0  0  0  0  0  0  0  0  0  0  0
  -20.9430  -29.8720   21.7650 H   0  0  0  0  0  0  0  0  0  0  0  0
  -18.0610  -28.1130   22.9720 C   0  0  0  0  0  0  0  0  0  0  0  0
  -20.6210  -28.3790   23.2270 C   0  0  0  0  0  3  0  0  0  0  0  0
  -20.7220  -26.9450   22.6560 C   0  0  0  0  0  2  0  0  0  0  0  0
  -19.6150  -26.6180   21.6480 C   0  0  0  0  0  2  0  0  0  0  0  0
  -18.2360  -26.7620   22.2990 C   0  0  0  0  0  2  0  0  0  0  0  0
  -19.1810  -28.8790   23.3940 C   0  0  0  0  0  0  0  0  0  0  0  0
  -18.9620  -30.1420   23.9860 C   0  0  0  0  0  3  0  0  0  0  0  0
  -17.6580  -30.6400   24.1580 C   0  0  0  0  0  3  0  0  0  0  0  0
  -16.5530  -29.8720   23.7540 C   0  0  0  0  0  3  0  0  0  0  0  0
  -16.7550  -28.6110   23.1650 C   0  0  0  0  0  3  0  0  0  0  0  0
  -25.9170  -32.5420   23.8460 C   0  0  0  0  0  3  0  0  0  0  0  0
  -26.4440  -31.7710   25.1180 C   0  0  1  0  0  0  0  0  0  0  0  0
  -25.3580  -31.5280   26.1930 C   0  0  0  0  0  1  0  0  0  0  0  0
  -27.0320  -30.3960   24.7230 C   0  0  0  0  0  1  0  0  0  0  0  0
  -27.5950  -32.5690   25.7760 C   0  0  0  0  0  1  0  0  0  0  0  0
  -25.6020  -33.9380   24.1860 N   0  0  0  0  0  0  0  0  0  0  0  0
  -25.9180  -34.9980   23.4310 C   0  0  0  0  0  0  0  0  0  0  0  0
  -26.5750  -34.9030   22.3900 O   0  0  0  0  0  0  0  0  0  0  0  0
  -25.0190  -34.0850   24.9970 H   0  0  0  0  0  0  0  0  0  0  0  0
  -24.1790  -36.7870   23.1100 C   0  0  0  0  0  1  0  0  0  0  0  0
  -25.4310  -36.3810   23.9030 C   0  0  0  0  0  3  0  0  0  0  0  0
  -27.5700  -37.2740   24.7170 C   0  0  0  0  0  1  0  0  0  0  0  0
  -26.4580  -37.4390   23.7840 N   0  0  0  0  0  0  0  0  0  0  0  0
  -26.0490  -38.3580   23.9360 H   0  0  0  0  0  0  0  0  0  0  0  0
  1  2  1  0
  1 49  1  0
  2  4  1  0
  3  1  2  0
  6 10  1  0
  6  5  1  0
  7  2  1  0
  7  5  2  0
  8  6  2  0
  9  8  1  0
  9  7  1  0
 11 19  1  0
 12 17  1  0
 13 14  1  0
 13 12  1  0
 15 14  1  0
 15 24  1  0
 15 16  1  0
 17 11  1  0
 17 16  1  0
 18 11  2  0
 19 20  1  0
 19 10  1  0
 21 22  2  0
 22 41  1  0
 23 22  1  0
 23 26  1  0
 24 21  1  0
 24 25  1  0
 25 23  2  0
 26 27  1  0
 27 28  2  0
 29 32  1  0
 29 28  1  0
 30 29  2  0
 31 30  1  0
 31 26  2  0
 32 33  1  0
 33 34  1  0
 34 35  2  0
 36 35  1  0
 36 40  1  0
 37 36  2  0
 38 33  2  0
 38 37  1  0
 39 38  1  0
 41 42  1  0
 42 45  1  0
 42 44  1  0
 43 41  2  0
 46 47  1  0
 46 21  1  0
 48 46  1  0
 50 52  1  0
 50 49  1  0
 51 62  2  0
 52 57  1  0
 53 61  1  0
 53 63  1  0
 54 60  1  0
 54 56  1  0
 55 61  1  0
 56 55  1  0
 57 56  2  0
 58 52  2  0
 59 58  1  0
 59 54  2  0
 60 53  1  0
 61 51  1  0
 63 65  2  0
 64 63  1  0
 66 64  1  0
 67 76  2  0
 67 72  1  0
 68 64  1  0
 68 72  1  0
 69 68  1  0
 70 71  1  0
 70 69  1  0
 71 67  1  0
 72 73  2  0
 73 74  1  0
 75 74  2  0
 76 75  1  0
 77 51  1  0
 77 82  1  0
 77 78  1  0
 78 81  1  1
 78 79  1  0
 80 78  1  0
 82 85  1  0
 83 87  1  0
 83 82  1  0
 84 83  2  0
 87 86  1  0
 89 87  1  0
 89 90  1  0
 89 88  1  0
M  ISO  4  11 100  19 100  49 101  50 101
M  END
>  <TORSDO>  (18) 
F 19

>  <SCORE>  (18) 
-14.117

>  <name>  (18) 
17

>  <ligand_id>  (18) 
17

>  <original_smiles>  (18) 
[H]c1c(C([H])([H])N([H])C(=O)N2C([H])([H])C([H])([H])C([H])([H])C([H])(n3nc(-c4c([H])c([H])c(Oc5c([H])c([H])c(F)c([H])c5F)c([H])c4[H])c(C(=O)N([H])[H])c3N([H])[H])C2([H])[H])noc1N([H])C(=O)C([H])([H])Oc1c([H])c([H])c2c(c1[H])C([H])([H])N(C(=O)C([H])(N([H])C(=O)C([H])(N([H])C([H])([H])[H])C([H])([H])[H])C(C([H])([H])[H])(C([H])([H])[H])C([H])([H])[H])C([H])(C(=O)N([H])C1([H])c3c([H])c([H])c([H])c([H])c3C([H])([H])C([H])([H])C1([H])[H])C2([H])[H]

>  <smiles>  (18) 
[H]c1c(C([H])([H])N([H])C(=O)N2C([H])([H])C([H])([H])C([H])([H])C([H])(n3nc(-c4c([H])c([H])c(Oc5c([H])c([H])c(F)c([H])c5F)c([H])c4[H])c(C(=O)N([H])[H])c3N([H])[H])C2([H])[H])noc1N([H])C(=O)C([H])([H])Oc1c([H])c([H])c2c(c1[H])C([H])([H])N(C(=O)C([H])(N([H])C(=O)C([H])(N([H])C([H])([H])[H])C([H])([H])[H])C(C([H])([H])[H])(C([H])([H])[H])C([H])([H])[H])C([H])(C(=O)N([H])C1([H])c3c([H])c([H])c([H])c([H])c3C([H])([H])C([H])([H])C1([H])[H])C2([H])[H]

$$$$
18:0:0
     RDKit          3D

 91 99  0  0  1  0  0  0  0  0999 V2000
  -28.8150  -23.5630   20.3060 C   0  0  0  0  0  0  0  0  0  0  0  0
  -28.2600  -22.2960   20.1300 N   0  0  0  0  0  0  0  0  0  0  0  0
  -29.9690  -23.7220   20.7150 O   0  0  0  0  0  0  0  0  0  0  0  0
  -27.2980  -22.4070   19.8370 H   0  0  0  0  0  0  0  0  0  0  0  0
  -29.8350  -20.0500   20.3910 C   0  0  0  0  0  3  0  0  0  0  0  0
  -27.6410  -19.8740   20.2330 C   0  0  0  0  0  3  0  0  0  0  0  0
  -28.6150  -20.8420   20.2730 C   0  0  0  0  0  0  0  0  0  0  0  0
  -29.5220  -18.6700   20.3990 C   0  0  0  0  0  0  0  0  0  0  0  0
  -28.1560  -18.5920   20.3100 O   0  0  0  0  0  0  0  0  0  0  0  0
  -30.6290  -14.8530   20.3490 C   0  0  0  0  0  0  0  0  0  0  0  0
  -30.4060  -12.5410   19.4010 C   0  0  0  0  0  2  0  0  0  0  0  0
  -29.4810  -12.5530   18.1650 C   0  0  0  0  0  2  0  0  0  0  0  0
  -28.0130  -12.3730   18.5950 C   0  0  0  0  0  2  0  0  0  0  0  0
  -27.6210  -13.2970   19.7780 C   0  0  0  0  0  3  0  0  0  0  0  0
  -28.6770  -13.2890   20.9060 C   0  0  0  0  0  2  0  0  0  0  0  0
  -29.9640  -13.6400   20.2960 N   0  0  0  0  0  0  0  0  0  0  0  0
  -31.8330  -14.8420   20.0780 O   0  0  0  0  0  0  0  0  0  0  0  0
  -30.4010  -17.3730   20.4500 C   0  0  0  0  0  0  0  0  0  0  0  0
  -29.9150  -16.0560   20.4770 N   0  0  0  0  0  0  0  0  0  0  0  0
  -31.6160  -17.5950   20.4620 O   0  0  0  0  0  0  0  0  0  0  0  0
  -28.9160  -15.9780   20.5510 H   0  0  0  0  0  0  0  0  0  0  0  0
  -25.2380  -13.8810   20.5150 C   0  0  0  0  0  0  0  0  0  0  0  0
  -24.1730  -13.1070   20.8810 C   0  0  0  0  0  0  0  0  0  0  0  0
  -24.6350  -11.7550   20.8480 C   0  0  0  0  0  0  0  0  0  0  0  0
  -26.2810  -13.0030   20.2750 N   0  0  0  0  0  0  0  0  0  0  0  0
  -25.9260  -11.7180   20.5410 N   0  0  0  0  0  0  0  0  0  0  0  0
  -23.9060  -10.4930   21.0320 C   0  0  0  0  0  0  0  0  0  0  0  0
  -24.3240   -9.5280   21.9740 C   0  0  0  0  0  3  0  0  0  0  0  0
  -23.5940   -8.3320   22.1470 C   0  0  0  0  0  3  0  0  0  0  0  0
  -22.4310   -8.0920   21.3770 C   0  0  0  0  0  0  0  0  0  0  0  0
  -22.0330   -9.0450   20.4230 C   0  0  0  0  0  3  0  0  0  0  0  0
  -22.7630  -10.2330   20.2490 C   0  0  0  0  0  3  0  0  0  0  0  0
  -21.6750   -6.9480   21.4580 O   0  0  0  0  0  0  0  0  0  0  0  0
  -21.5910   -6.2210   22.6190 C   0  0  0  0  0  0  0  0  0  0  0  0
  -21.0990   -6.7830   23.8160 C   0  0  0  0  0  3  0  0  0  0  0  0
  -20.9650   -5.9810   24.9680 C   0  0  0  0  0  3  0  0  0  0  0  0
  -21.3130   -4.6190   24.9220 C   0  0  0  0  0  0  0  0  0  0  0  0
  -21.7990   -4.0560   23.7280 C   0  0  0  0  0  3  0  0  0  0  0  0
  -21.9340   -4.8550   22.5790 C   0  0  0  0  0  0  0  0  0  0  0  0
  -22.3820   -4.3020   21.4260 F   0  0  0  0  0  0  0  0  0  0  0  0
  -21.1780   -3.8460   26.0250 F   0  0  0  0  0  0  0  0  0  0  0  0
  -22.7740  -13.5850   21.1500 C   0  0  0  0  0  0  0  0  0  0  0  0
  -22.0470  -12.8920   22.0180 N   0  0  0  0  0  0  0  0  0  0  0  0
  -22.3390  -14.6080   20.6240 O   0  0  0  0  0  0  0  0  0  0  0  0
  -22.4130  -12.0650   22.4660 H   0  0  0  0  0  0  0  0  0  0  0  0
  -21.1090  -13.1960   22.2400 H   0  0  0  0  0  0  0  0  0  0  0  0
  -25.4020  -15.2520   20.3410 N   0  0  0  0  0  0  0  0  0  0  0  0
  -24.6300  -15.9010   20.4500 H   0  0  0  0  0  0  0  0  0  0  0  0
  -26.2400  -15.6930   19.9860 H   0  0  0  0  0  0  0  0  0  0  0  0
  -27.8890  -24.8450   19.9390 C   0  0  0  0  0  2  0  0  0  0  0  0
  -28.2450  -26.2950   20.2580 O   0  0  0  0  0  0  0  0  0  0  0  0
  -24.5970  -31.8750   23.2690 C   0  0  0  0  0  0  0  0  0  0  0  0
  -27.1910  -27.2570   20.1830 C   0  0  0  0  0  0  0  0  0  0  0  0
  -23.3990  -30.4940   21.6160 C   0  0  0  0  0  3  0  0  0  0  0  0
  -24.8520  -28.9560   20.1740 C   0  0  0  0  0  0  0  0  0  0  0  0
  -25.9510  -30.7840   21.4540 C   0  0  0  0  0  2  0  0  0  0  0  0
  -26.0280  -29.4070   20.7890 C   0  0  0  0  0  0  0  0  0  0  0  0
  -27.2000  -28.5710   20.7840 C   0  0  0  0  0  3  0  0  0  0  0  0
  -25.9900  -26.9060   19.5200 C   0  0  0  0  0  3  0  0  0  0  0  0
  -24.8420  -27.7160   19.5270 C   0  0  0  0  0  3  0  0  0  0  0  0
  -23.6200  -29.8390   20.2290 C   0  0  0  0  0  2  0  0  0  0  0  0
  -24.6680  -31.0690   22.1690 N   0  0  0  0  0  0  0  0  0  0  0  0
  -23.5100  -32.1500   23.7990 O   0  0  0  0  0  0  0  0  0  0  0  0
  -22.7280  -29.4680   22.5630 C   0  0  0  0  0  0  0  0  0  0  0  0
  -21.4030  -29.2920   22.4300 N   0  0  0  0  0  0  0  0  0  0  0  0
  -23.4020  -28.8360   23.3810 O   0  0  0  0  0  0  0  0  0  0  0  0
  -20.9170  -29.8540   21.7450 H   0  0  0  0  0  0  0  0  0  0  0  0
  -18.0210  -28.0930   22.9210 C   0  0  0  0  0  0  0  0  0  0  0  0
  -20.5810  -28.3480   23.1910 C   0  0  0  0  0  3  0  0  0  0  0  0
  -20.6800  -26.9210   22.6020 C   0  0  0  0  0  2  0  0  0  0  0  0
  -19.5770  -26.6100   21.5850 C   0  0  0  0  0  2  0  0  0  0  0  0
  -18.1960  -26.7510   22.2300 C   0  0  0  0  0  2  0  0  0  0  0  0
  -19.1410  -28.8500   23.3580 C   0  0  0  0  0  0  0  0  0  0  0  0
  -18.9220  -30.1050   23.9640 C   0  0  0  0  0  3  0  0  0  0  0  0
  -17.6180  -30.6060   24.1370 C   0  0  0  0  0  3  0  0  0  0  0  0
  -16.5130  -29.8460   23.7150 C   0  0  0  0  0  3  0  0  0  0  0  0
  -16.7160  -28.5910   23.1130 C   0  0  0  0  0  3  0  0  0  0  0  0
  -25.8750  -32.5050   23.9010 C   0  0  0  0  0  3  0  0  0  0  0  0
  -25.5650  -33.9040   24.2290 N   0  0  0  0  0  0  0  0  0  0  0  0
  -25.8790  -34.9560   23.4600 C   0  0  0  0  0  0  0  0  0  0  0  0
  -26.5270  -34.8500   22.4150 O   0  0  0  0  0  0  0  0  0  0  0  0
  -24.9870  -34.0610   25.0420 H   0  0  0  0  0  0  0  0  0  0  0  0
  -24.1280  -36.7370   23.1490 C   0  0  0  0  0  1  0  0  0  0  0  0
  -25.3970  -36.3460   23.9220 C   0  0  0  0  0  3  0  0  0  0  0  0
  -27.5490  -37.2560   24.6800 C   0  0  0  0  0  1  0  0  0  0  0  0
  -26.4190  -37.4040   23.7670 N   0  0  0  0  0  0  0  0  0  0  0  0
  -26.0120  -38.3240   23.9130 H   0  0  0  0  0  0  0  0  0  0  0  0
  -26.3760  -31.7340   25.1840 C   0  0  1  0  0  0  0  0  0  0  0  0
  -25.2710  -31.5010   26.2410 C   0  0  0  0  0  1  0  0  0  0  0  0
  -26.9600  -30.3540   24.8040 C   0  0  0  0  0  1  0  0  0  0  0  0
  -27.5220  -32.5270   25.8560 C   0  0  0  0  0  1  0  0  0  0  0  0
  1  3  2  0
  2  7  1  0
  2  1  1  0
  4  2  1  0
  5  8  2  0
  6  7  2  0
  6  9  1  0
  7  5  1  0
  8 18  1  0
  9  8  1  0
 10 19  1  0
 11 16  1  0
 12 13  1  0
 12 11  1  0
 14 13  1  0
 14 25  1  0
 14 15  1  0
 16 10  1  0
 16 15  1  0
 17 10  2  0
 18 20  2  0
 18 19  1  0
 19 21  1  0
 22 23  2  0
 23 42  1  0
 24 23  1  0
 24 27  1  0
 25 22  1  0
 25 26  1  0
 26 24  2  0
 27 28  1  0
 28 29  2  0
 30 33  1  0
 30 29  1  0
 31 30  2  0
 32 31  1  0
 32 27  2  0
 33 34  1  0
 34 35  1  0
 35 36  2  0
 37 36  1  0
 37 41  1  0
 38 37  2  0
 39 34  2  0
 39 38  1  0
 40 39  1  0
 42 43  1  0
 43 46  1  0
 43 45  1  0
 44 42  2  0
 47 48  1  0
 47 22  1  0
 49 47  1  0
 50 51  1  0
 50  1  1  0
 52 63  2  0
 53 51  1  0
 53 58  1  0
 54 62  1  0
 54 64  1  0
 55 61  1  0
 55 57  1  0
 56 62  1  0
 57 56  1  0
 58 57  2  0
 59 60  1  0
 59 53  2  0
 60 55  2  0
 61 54  1  0
 62 52  1  0
 64 66  2  0
 65 64  1  0
 67 65  1  0
 68 77  2  0
 68 73  1  0
 69 65  1  0
 69 73  1  0
 70 69  1  0
 71 72  1  0
 71 70  1  0
 72 68  1  0
 73 74  2  0
 74 75  1  0
 76 75  2  0
 77 76  1  0
 78 52  1  0
 78 79  1  0
 78 88  1  0
 79 82  1  0
 80 84  1  0
 80 79  1  0
 81 80  2  0
 84 83  1  0
 86 87  1  0
 86 84  1  0
 86 85  1  0
 88 91  1  1
 88 89  1  0
 90 88  1  0
M  ISO  4  10 100  19 100  50 101  51 101
M  END
>  <TORSDO>  (19) 
F 18

>  <SCORE>  (19) 
-14.558

>  <name>  (19) 
18

>  <ligand_id>  (19) 
18

>  <original_smiles>  (19) 
[H]c1oc(C(=O)N([H])C(=O)N2C([H])([H])C([H])([H])C([H])([H])C([H])(n3nc(-c4c([H])c([H])c(Oc5c([H])c([H])c(F)c([H])c5F)c([H])c4[H])c(C(=O)N([H])[H])c3N([H])[H])C2([H])[H])c([H])c1N([H])C(=O)C([H])([H])Oc1c([H])c([H])c2c(c1[H])C([H])([H])N(C(=O)C([H])(N([H])C(=O)C([H])(N([H])C([H])([H])[H])C([H])([H])[H])C(C([H])([H])[H])(C([H])([H])[H])C([H])([H])[H])C([H])(C(=O)N([H])C1([H])c3c([H])c([H])c([H])c([H])c3C([H])([H])C([H])([H])C1([H])[H])C2([H])[H]

>  <smiles>  (19) 
[H]c1oc(C(=O)N([H])C(=O)N2C([H])([H])C([H])([H])C([H])([H])C([H])(n3nc(-c4c([H])c([H])c(Oc5c([H])c([H])c(F)c([H])c5F)c([H])c4[H])c(C(=O)N([H])[H])c3N([H])[H])C2([H])[H])c([H])c1N([H])C(=O)C([H])([H])Oc1c([H])c([H])c2c(c1[H])C([H])([H])N(C(=O)C([H])(N([H])C(=O)C([H])(N([H])C([H])([H])[H])C([H])([H])[H])C(C([H])([H])[H])(C([H])([H])[H])C([H])([H])[H])C([H])(C(=O)N([H])C1([H])c3c([H])c([H])c([H])c([H])c3C([H])([H])C([H])([H])C1([H])[H])C2([H])[H]

$$$$
19:0:0
     RDKit          3D

 95104  0  0  1  0  0  0  0  0999 V2000
  -30.1110  -24.0970   20.8240 C   0  0  0  0  0  3  0  0  0  0  0  0
  -28.8840  -23.7550   20.3710 C   0  0  0  0  0  0  0  0  0  0  0  0
  -31.2340  -23.1850   21.1220 C   0  0  0  0  0  0  0  0  0  0  0  0
  -31.0680  -21.9120   21.9690 C   0  0  0  0  0  2  0  0  0  0  0  0
  -29.6650  -21.2950   22.0370 C   0  0  0  0  0  2  0  0  0  0  0  0
  -28.4050  -22.2530   20.0950 C   0  0  0  0  0  3  0  0  0  0  0  0
  -27.9940  -22.0460   18.6240 C   0  0  0  0  0  1  0  0  0  0  0  0
  -29.1170  -21.0570   20.7110 N   0  0  0  0  0  0  0  0  0  0  0  0
  -32.3730  -23.4620   20.7360 O   0  0  0  0  0  0  0  0  0  0  0  0
  -30.8150  -18.7620   18.2550 C   0  0  0  0  0  3  0  0  0  0  0  0
  -30.2980  -19.9090   18.8890 C   0  0  0  0  0  3  0  0  0  0  0  0
  -30.6490  -17.4800   18.8080 C   0  0  0  0  0  3  0  0  0  0  0  0
  -29.4180  -18.4780   20.6470 C   0  0  0  0  0  3  0  0  0  0  0  0
  -29.5660  -19.8210   20.0910 C   0  0  0  0  0  0  0  0  0  0  0  0
  -29.9670  -17.2750   20.0310 C   0  0  0  0  0  0  0  0  0  0  0  0
  -30.5430  -14.7430   20.2270 C   0  0  0  0  0  0  0  0  0  0  0  0
  -30.3040  -12.4740   19.2280 C   0  0  0  0  0  2  0  0  0  0  0  0
  -29.3410  -12.5730   18.0270 C   0  0  0  0  0  2  0  0  0  0  0  0
  -27.8790  -12.4100   18.4870 C   0  0  0  0  0  2  0  0  0  0  0  0
  -27.5400  -13.2760   19.7310 C   0  0  0  0  0  3  0  0  0  0  0  0
  -28.6300  -13.1750   20.8230 C   0  0  0  0  0  2  0  0  0  0  0  0
  -29.9110  -13.5220   20.2000 N   0  0  0  0  0  0  0  0  0  0  0  0
  -31.7120  -14.8260   19.8380 O   0  0  0  0  0  0  0  0  0  0  0  0
  -29.8080  -15.8830   20.5350 N   0  0  0  0  0  0  0  0  0  0  0  0
  -28.9560  -15.7060   21.0470 H   0  0  0  0  0  0  0  0  0  0  0  0
  -25.1790  -13.8540   20.5460 C   0  0  0  0  0  0  0  0  0  0  0  0
  -24.1240  -13.0750   20.9360 C   0  0  0  0  0  0  0  0  0  0  0  0
  -24.5810  -11.7240   20.8620 C   0  0  0  0  0  0  0  0  0  0  0  0
  -26.2110  -12.9780   20.2570 N   0  0  0  0  0  0  0  0  0  0  0  0
  -25.8600  -11.6900   20.5100 N   0  0  0  0  0  0  0  0  0  0  0  0
  -23.8550  -10.4600   21.0470 C   0  0  0  0  0  0  0  0  0  0  0  0
  -24.3060   -9.4790   21.9590 C   0  0  0  0  0  3  0  0  0  0  0  0
  -23.5790   -8.2810   22.1370 C   0  0  0  0  0  3  0  0  0  0  0  0
  -22.3900   -8.0560   21.4030 C   0  0  0  0  0  0  0  0  0  0  0  0
  -21.9590   -9.0250   20.4810 C   0  0  0  0  0  3  0  0  0  0  0  0
  -22.6850  -10.2140   20.3000 C   0  0  0  0  0  3  0  0  0  0  0  0
  -21.6360   -6.9100   21.4890 O   0  0  0  0  0  0  0  0  0  0  0  0
  -21.5990   -6.1560   22.6350 C   0  0  0  0  0  0  0  0  0  0  0  0
  -21.1660   -6.6930   23.8680 C   0  0  0  0  0  3  0  0  0  0  0  0
  -21.0770   -5.8660   25.0050 C   0  0  0  0  0  3  0  0  0  0  0  0
  -21.4120   -4.5010   24.9100 C   0  0  0  0  0  0  0  0  0  0  0  0
  -21.8400   -3.9640   23.6830 C   0  0  0  0  0  3  0  0  0  0  0  0
  -21.9290   -4.7890   22.5480 C   0  0  0  0  0  0  0  0  0  0  0  0
  -22.3190   -4.2610   21.3640 F   0  0  0  0  0  0  0  0  0  0  0  0
  -21.3220   -3.7040   26.0000 F   0  0  0  0  0  0  0  0  0  0  0  0
  -22.7390  -13.5510   21.2630 C   0  0  0  0  0  0  0  0  0  0  0  0
  -22.0360  -12.8380   22.1350 N   0  0  0  0  0  0  0  0  0  0  0  0
  -22.2880  -14.5900   20.7810 O   0  0  0  0  0  0  0  0  0  0  0  0
  -22.4150  -12.0020   22.5550 H   0  0  0  0  0  0  0  0  0  0  0  0
  -21.1030  -13.1340   22.3880 H   0  0  0  0  0  0  0  0  0  0  0  0
  -25.3410  -15.2280   20.3890 N   0  0  0  0  0  0  0  0  0  0  0  0
  -24.5790  -15.8810   20.5430 H   0  0  0  0  0  0  0  0  0  0  0  0
  -26.1700  -15.6720   20.0170 H   0  0  0  0  0  0  0  0  0  0  0  0
  -27.8400  -24.9120   20.0830 C   0  0  0  0  0  2  0  0  0  0  0  0
  -28.1600  -26.3640   20.2880 O   0  0  0  0  0  0  0  0  0  0  0  0
  -24.5350  -31.9080   23.2320 C   0  0  0  0  0  0  0  0  0  0  0  0
  -27.0820  -27.2780   20.2030 C   0  0  0  0  0  0  0  0  0  0  0  0
  -23.3110  -30.5080   21.6120 C   0  0  0  0  0  3  0  0  0  0  0  0
  -24.7420  -28.9450   20.1810 C   0  0  0  0  0  0  0  0  0  0  0  0
  -25.8540  -30.8010   21.4080 C   0  0  0  0  0  2  0  0  0  0  0  0
  -25.9210  -29.4160   20.7710 C   0  0  0  0  0  0  0  0  0  0  0  0
  -27.0960  -28.5950   20.7720 C   0  0  0  0  0  3  0  0  0  0  0  0
  -25.8760  -26.8820   19.5730 C   0  0  0  0  0  3  0  0  0  0  0  0
  -24.7250  -27.6850   19.5700 C   0  0  0  0  0  3  0  0  0  0  0  0
  -23.5120  -29.8290   20.2320 C   0  0  0  0  0  2  0  0  0  0  0  0
  -24.5870  -31.0900   22.1400 N   0  0  0  0  0  0  0  0  0  0  0  0
  -23.4560  -32.1940   23.7720 O   0  0  0  0  0  0  0  0  0  0  0  0
  -22.6490  -29.4980   22.5810 C   0  0  0  0  0  0  0  0  0  0  0  0
  -21.3210  -29.3210   22.4610 N   0  0  0  0  0  0  0  0  0  0  0  0
  -23.3280  -28.8790   23.4030 O   0  0  0  0  0  0  0  0  0  0  0  0
  -20.8310  -29.8760   21.7750 H   0  0  0  0  0  0  0  0  0  0  0  0
  -17.9430  -28.1320   22.9840 C   0  0  0  0  0  0  0  0  0  0  0  0
  -20.5030  -28.3910   23.2430 C   0  0  0  0  0  3  0  0  0  0  0  0
  -20.6000  -26.9520   22.6840 C   0  0  0  0  0  2  0  0  0  0  0  0
  -19.4940  -26.6200   21.6770 C   0  0  0  0  0  2  0  0  0  0  0  0
  -18.1140  -26.7750   22.3220 C   0  0  0  0  0  2  0  0  0  0  0  0
  -19.0640  -28.8980   23.4020 C   0  0  0  0  0  0  0  0  0  0  0  0
  -18.8480  -30.1670   23.9790 C   0  0  0  0  0  3  0  0  0  0  0  0
  -17.5430  -30.6710   24.1450 C   0  0  0  0  0  3  0  0  0  0  0  0
  -16.4380  -29.9030   23.7410 C   0  0  0  0  0  3  0  0  0  0  0  0
  -16.6380  -28.6350   23.1670 C   0  0  0  0  0  3  0  0  0  0  0  0
  -25.8250  -32.5370   23.8400 C   0  0  0  0  0  3  0  0  0  0  0  0
  -25.5230  -33.9380   24.1710 N   0  0  0  0  0  0  0  0  0  0  0  0
  -25.8420  -34.9890   23.4010 C   0  0  0  0  0  0  0  0  0  0  0  0
  -26.4920  -34.8800   22.3580 O   0  0  0  0  0  0  0  0  0  0  0  0
  -24.9490  -34.0960   24.9850 H   0  0  0  0  0  0  0  0  0  0  0  0
  -24.1130  -36.7870   23.0660 C   0  0  0  0  0  1  0  0  0  0  0  0
  -25.3630  -36.3790   23.8620 C   0  0  0  0  0  3  0  0  0  0  0  0
  -27.5080  -37.2650   24.6660 C   0  0  0  0  0  1  0  0  0  0  0  0
  -26.3960  -37.4300   23.7340 N   0  0  0  0  0  0  0  0  0  0  0  0
  -25.9930  -38.3510   23.8810 H   0  0  0  0  0  0  0  0  0  0  0  0
  -26.3480  -31.7680   25.1150 C   0  0  1  0  0  0  0  0  0  0  0  0
  -25.2640  -31.5320   26.1930 C   0  0  0  0  0  1  0  0  0  0  0  0
  -26.9290  -30.3900   24.7220 C   0  0  0  0  0  1  0  0  0  0  0  0
  -27.5010  -32.5640   25.7700 C   0  0  0  0  0  1  0  0  0  0  0  0
  1  3  1  0
  2  1  2  0
  3  4  1  0
  4  5  1  0
  6  7  1  0
  6  2  1  0
  6  8  1  0
  8  5  1  0
  9  3  2  0
 10 12  2  0
 10 11  1  0
 11 14  2  0
 12 15  1  0
 14 13  1  0
 14  8  1  0
 15 24  1  0
 15 13  2  0
 16 24  1  0
 17 22  1  0
 18 19  1  0
 18 17  1  0
 20 19  1  0
 20 29  1  0
 20 21  1  0
 22 16  1  0
 22 21  1  0
 23 16  2  0
 24 25  1  0
 26 27  2  0
 27 46  1  0
 28 27  1  0
 28 31  1  0
 29 30  1  0
 29 26  1  0
 30 28  2  0
 31 32  1  0
 32 33  2  0
 34 37  1  0
 34 33  1  0
 35 34  2  0
 36 35  1  0
 36 31  2  0
 37 38  1  0
 38 39  1  0
 39 40  2  0
 41 40  1  0
 41 45  1  0
 42 41  2  0
 43 38  2  0
 43 42  1  0
 44 43  1  0
 46 47  1  0
 47 50  1  0
 47 49  1  0
 48 46  2  0
 51 52  1  0
 51 26  1  0
 53 51  1  0
 54 55  1  0
 54  2  1  0
 56 67  2  0
 57 55  1  0
 57 62  1  0
 58 66  1  0
 58 68  1  0
 59 65  1  0
 59 61  1  0
 60 66  1  0
 61 62  2  0
 61 60  1  0
 63 57  2  0
 64 63  1  0
 64 59  2  0
 65 58  1  0
 66 56  1  0
 68 70  2  0
 69 68  1  0
 71 69  1  0
 72 81  2  0
 72 77  1  0
 73 69  1  0
 73 77  1  0
 74 73  1  0
 75 76  1  0
 75 74  1  0
 76 72  1  0
 77 78  2  0
 78 79  1  0
 80 79  2  0
 81 80  1  0
 82 56  1  0
 82 83  1  0
 82 92  1  0
 83 86  1  0
 84 88  1  0
 84 83  1  0
 85 84  2  0
 88 87  1  0
 90 88  1  0
 90 91  1  0
 90 89  1  0
 92 95  1  1
 92 93  1  0
 94 92  1  0
M  ISO  4  16 100  24 100  54 101  55 101
M  END
>  <TORSDO>  (20) 
F 18

>  <SCORE>  (20) 
-14.712

>  <name>  (20) 
19

>  <ligand_id>  (20) 
19

>  <original_smiles>  (20) 
[H]C1=C(C([H])([H])Oc2c([H])c([H])c3c(c2[H])C([H])([H])N(C(=O)C([H])(N([H])C(=O)C([H])(N([H])C([H])([H])[H])C([H])([H])[H])C(C([H])([H])[H])(C([H])([H])[H])C([H])([H])[H])C([H])(C(=O)N([H])C2([H])c4c([H])c([H])c([H])c([H])c4C([H])([H])C([H])([H])C2([H])[H])C3([H])[H])C([H])(C([H])([H])[H])N(c2c([H])c([H])c([H])c(N([H])C(=O)N3C([H])([H])C([H])([H])C([H])([H])C([H])(n4nc(-c5c([H])c([H])c(Oc6c([H])c([H])c(F)c([H])c6F)c([H])c5[H])c(C(=O)N([H])[H])c4N([H])[H])C3([H])[H])c2[H])C([H])([H])C([H])([H])C1=O

>  <smiles>  (20) 
[H]C1=C(C([H])([H])Oc2c([H])c([H])c3c(c2[H])C([H])([H])N(C(=O)C([H])(N([H])C(=O)C([H])(N([H])C([H])([H])[H])C([H])([H])[H])C(C([H])([H])[H])(C([H])([H])[H])C([H])([H])[H])C([H])(C(=O)N([H])C2([H])c4c([H])c([H])c([H])c([H])c4C([H])([H])C([H])([H])C2([H])[H])C3([H])[H])C([H])(C([H])([H])[H])N(c2c([H])c([H])c([H])c(N([H])C(=O)N3C([H])([H])C([H])([H])C([H])([H])C([H])(n4nc(-c5c([H])c([H])c(Oc6c([H])c([H])c(F)c([H])c6F)c([H])c5[H])c(C(=O)N([H])[H])c4N([H])[H])C3([H])[H])c2[H])C([H])([H])C([H])([H])C1=O

$$$$
20:0:0
     RDKit          3D

 93101  0  0  1  0  0  0  0  0999 V2000
  -29.8410  -20.1200   20.6620 C   0  0  0  0  0  3  0  0  0  0  0  0
  -27.6920  -19.9390   20.1780 C   0  0  0  0  0  3  0  0  0  0  0  0
  -28.6330  -20.9030   20.4400 C   0  0  0  0  0  0  0  0  0  0  0  0
  -29.5590  -18.7480   20.4740 C   0  0  0  0  0  0  0  0  0  0  0  0
  -28.2230  -18.6630   20.1830 O   0  0  0  0  0  0  0  0  0  0  0  0
  -30.6280  -14.8290   20.3800 C   0  0  0  0  0  0  0  0  0  0  0  0
  -30.4180  -12.5410   19.3790 C   0  0  0  0  0  2  0  0  0  0  0  0
  -29.4860  -12.5760   18.1470 C   0  0  0  0  0  2  0  0  0  0  0  0
  -28.0190  -12.3880   18.5760 C   0  0  0  0  0  2  0  0  0  0  0  0
  -27.6310  -13.2950   19.7760 C   0  0  0  0  0  3  0  0  0  0  0  0
  -28.6850  -13.2500   20.9060 C   0  0  0  0  0  2  0  0  0  0  0  0
  -29.9770  -13.6110   20.3100 N   0  0  0  0  0  0  0  0  0  0  0  0
  -31.8230  -14.8950   20.0540 O   0  0  0  0  0  0  0  0  0  0  0  0
  -30.3400  -17.4440   20.4030 C   0  0  0  0  0  0  0  0  0  0  0  0
  -29.8700  -16.1250   20.5710 N   0  0  0  0  0  0  0  0  0  0  0  0
  -31.6320  -17.6430   20.0890 N   0  0  0  0  0  4  0  0  0  0  0  0
  -28.8890  -16.1090   20.7940 H   0  0  0  0  0  0  0  0  0  0  0  0
  -31.9710  -18.5690   19.8770 H   0  0  0  0  0  0  0  0  0  0  0  0
  -32.2520  -16.8480   19.9730 H   0  0  0  0  0  0  0  0  0  0  0  0
  -25.2440  -13.8730   20.5100 C   0  0  0  0  0  0  0  0  0  0  0  0
  -24.1850  -13.0920   20.8860 C   0  0  0  0  0  0  0  0  0  0  0  0
  -24.6570  -11.7430   20.8570 C   0  0  0  0  0  0  0  0  0  0  0  0
  -26.2910  -12.9990   20.2720 N   0  0  0  0  0  0  0  0  0  0  0  0
  -25.9480  -11.7150   20.5470 N   0  0  0  0  0  0  0  0  0  0  0  0
  -23.9400  -10.4770   21.0450 C   0  0  0  0  0  0  0  0  0  0  0  0
  -24.3780   -9.5100   21.9770 C   0  0  0  0  0  3  0  0  0  0  0  0
  -23.6590   -8.3090   22.1550 C   0  0  0  0  0  3  0  0  0  0  0  0
  -22.4870   -8.0660   21.3970 C   0  0  0  0  0  0  0  0  0  0  0  0
  -22.0690   -9.0200   20.4540 C   0  0  0  0  0  3  0  0  0  0  0  0
  -22.7890  -10.2140   20.2750 C   0  0  0  0  0  3  0  0  0  0  0  0
  -21.7380   -6.9170   21.4850 O   0  0  0  0  0  0  0  0  0  0  0  0
  -21.6870   -6.1750   22.6380 C   0  0  0  0  0  0  0  0  0  0  0  0
  -21.2210   -6.7200   23.8560 C   0  0  0  0  0  3  0  0  0  0  0  0
  -21.1230   -5.9040   24.9990 C   0  0  0  0  0  3  0  0  0  0  0  0
  -21.4770   -4.5430   24.9260 C   0  0  0  0  0  0  0  0  0  0  0  0
  -21.9330   -3.9970   23.7120 C   0  0  0  0  0  3  0  0  0  0  0  0
  -22.0340   -4.8110   22.5720 C   0  0  0  0  0  0  0  0  0  0  0  0
  -22.4550   -4.2760   21.4000 F   0  0  0  0  0  0  0  0  0  0  0  0
  -21.3740   -3.7550   26.0220 F   0  0  0  0  0  0  0  0  0  0  0  0
  -22.7840  -13.5620   21.1550 C   0  0  0  0  0  0  0  0  0  0  0  0
  -22.0610  -12.8660   22.0260 N   0  0  0  0  0  0  0  0  0  0  0  0
  -22.3400  -14.5790   20.6270 O   0  0  0  0  0  0  0  0  0  0  0  0
  -22.4360  -12.0460   22.4780 H   0  0  0  0  0  0  0  0  0  0  0  0
  -21.1220  -13.1650   22.2480 H   0  0  0  0  0  0  0  0  0  0  0  0
  -25.3960  -15.2430   20.3230 N   0  0  0  0  0  0  0  0  0  0  0  0
  -24.6050  -15.8710   20.4060 H   0  0  0  0  0  0  0  0  0  0  0  0
  -26.1970  -15.6750   19.8860 H   0  0  0  0  0  0  0  0  0  0  0  0
  -28.8440  -23.6050   20.4060 C   0  0  0  0  0  0  0  0  0  0  0  0
  -28.2510  -22.3480   20.4550 N   0  0  0  0  0  0  0  0  0  0  0  0
  -30.0640  -23.7660   20.5090 O   0  0  0  0  0  0  0  0  0  0  0  0
  -27.2470  -22.4620   20.4050 H   0  0  0  0  0  0  0  0  0  0  0  0
  -27.8630  -24.8680   20.1670 C   0  0  0  0  0  2  0  0  0  0  0  0
  -28.2610  -26.3250   20.3530 O   0  0  0  0  0  0  0  0  0  0  0  0
  -24.6400  -31.9390   23.3040 C   0  0  0  0  0  0  0  0  0  0  0  0
  -27.2090  -27.2860   20.2660 C   0  0  0  0  0  0  0  0  0  0  0  0
  -23.4370  -30.5570   21.6550 C   0  0  0  0  0  3  0  0  0  0  0  0
  -24.8820  -28.9950   20.2300 C   0  0  0  0  0  0  0  0  0  0  0  0
  -25.9890  -30.8250   21.5010 C   0  0  0  0  0  2  0  0  0  0  0  0
  -26.0570  -29.4430   20.8470 C   0  0  0  0  0  0  0  0  0  0  0  0
  -27.2230  -28.6010   20.8570 C   0  0  0  0  0  3  0  0  0  0  0  0
  -26.0110  -26.9350   19.5980 C   0  0  0  0  0  3  0  0  0  0  0  0
  -24.8670  -27.7510   19.5910 C   0  0  0  0  0  3  0  0  0  0  0  0
  -23.6560  -29.8890   20.2730 C   0  0  0  0  0  2  0  0  0  0  0  0
  -24.7080  -31.1270   22.2080 N   0  0  0  0  0  0  0  0  0  0  0  0
  -23.5550  -32.2260   23.8310 O   0  0  0  0  0  0  0  0  0  0  0  0
  -22.7540  -29.5450   22.6070 C   0  0  0  0  0  0  0  0  0  0  0  0
  -21.4270  -29.3790   22.4710 N   0  0  0  0  0  0  0  0  0  0  0  0
  -23.4190  -28.9130   23.4330 O   0  0  0  0  0  0  0  0  0  0  0  0
  -20.9480  -29.9390   21.7780 H   0  0  0  0  0  0  0  0  0  0  0  0
  -18.0330  -28.2120   22.9570 C   0  0  0  0  0  0  0  0  0  0  0  0
  -20.5940  -28.4480   23.2360 C   0  0  0  0  0  3  0  0  0  0  0  0
  -20.6830  -27.0170   22.6590 C   0  0  0  0  0  2  0  0  0  0  0  0
  -19.5830  -26.7050   21.6400 C   0  0  0  0  0  2  0  0  0  0  0  0
  -18.2000  -26.8630   22.2780 C   0  0  0  0  0  2  0  0  0  0  0  0
  -19.1570  -28.9630   23.3930 C   0  0  0  0  0  0  0  0  0  0  0  0
  -18.9480  -30.2250   23.9900 C   0  0  0  0  0  3  0  0  0  0  0  0
  -17.6470  -30.7370   24.1550 C   0  0  0  0  0  3  0  0  0  0  0  0
  -16.5370  -29.9830   23.7340 C   0  0  0  0  0  3  0  0  0  0  0  0
  -16.7310  -28.7230   23.1400 C   0  0  0  0  0  3  0  0  0  0  0  0
  -25.9230  -32.5600   23.9360 C   0  0  0  0  0  3  0  0  0  0  0  0
  -25.6230  -33.9630   24.2600 N   0  0  0  0  0  0  0  0  0  0  0  0
  -25.9360  -35.0080   23.4840 C   0  0  0  0  0  0  0  0  0  0  0  0
  -26.5770  -34.8940   22.4350 O   0  0  0  0  0  0  0  0  0  0  0  0
  -25.0530  -34.1250   25.0760 H   0  0  0  0  0  0  0  0  0  0  0  0
  -24.1910  -36.7950   23.1790 C   0  0  0  0  0  1  0  0  0  0  0  0
  -25.4660  -36.4030   23.9430 C   0  0  0  0  0  3  0  0  0  0  0  0
  -27.6280  -37.3090   24.6740 C   0  0  0  0  0  1  0  0  0  0  0  0
  -26.4910  -37.4560   23.7700 N   0  0  0  0  0  0  0  0  0  0  0  0
  -26.0880  -38.3790   23.9120 H   0  0  0  0  0  0  0  0  0  0  0  0
  -26.4160  -31.7890   25.2220 C   0  0  1  0  0  0  0  0  0  0  0  0
  -25.3080  -31.5670   26.2780 C   0  0  0  0  0  1  0  0  0  0  0  0
  -26.9910  -30.4040   24.8470 C   0  0  0  0  0  1  0  0  0  0  0  0
  -27.5670  -32.5750   25.8920 C   0  0  0  0  0  1  0  0  0  0  0  0
  2  5  1  0
  2  3  2  0
  3 49  1  0
  3  1  1  0
  4  1  2  0
  5  4  1  0
  6 15  1  0
  7 12  1  0
  8  9  1  0
  8  7  1  0
 10  9  1  0
 10 23  1  0
 10 11  1  0
 12  6  1  0
 12 11  1  0
 13  6  2  0
 14  4  1  0
 14 15  1  0
 15 17  1  0
 16 14  2  0
 18 16  1  0
 19 16  1  0
 20 21  2  0
 21 40  1  0
 22 21  1  0
 22 25  1  0
 23 20  1  0
 23 24  1  0
 24 22  2  0
 25 26  1  0
 26 27  2  0
 28 31  1  0
 28 27  1  0
 29 28  2  0
 30 29  1  0
 30 25  2  0
 31 32  1  0
 32 33  1  0
 33 34  2  0
 35 34  1  0
 35 39  1  0
 36 35  2  0
 37 32  2  0
 37 36  1  0
 38 37  1  0
 40 41  1  0
 41 44  1  0
 41 43  1  0
 42 40  2  0
 45 46  1  0
 45 20  1  0
 47 45  1  0
 48 49  1  0
 48 50  2  0
 51 49  1  0
 52 53  1  0
 52 48  1  0
 54 65  2  0
 55 53  1  0
 55 60  1  0
 56 64  1  0
 56 66  1  0
 57 63  1  0
 57 59  1  0
 58 64  1  0
 59 60  2  0
 59 58  1  0
 61 55  2  0
 62 61  1  0
 62 57  2  0
 63 56  1  0
 64 54  1  0
 66 68  2  0
 67 66  1  0
 69 67  1  0
 70 79  2  0
 70 75  1  0
 71 67  1  0
 71 75  1  0
 72 71  1  0
 73 74  1  0
 73 72  1  0
 74 70  1  0
 75 76  2  0
 76 77  1  0
 78 77  2  0
 79 78  1  0
 80 54  1  0
 80 81  1  0
 80 90  1  0
 81 84  1  0
 82 86  1  0
 82 81  1  0
 83 82  2  0
 86 85  1  0
 88 89  1  0
 88 86  1  0
 88 87  1  0
 90 93  1  1
 90 91  1  0
 92 90  1  0
M  ISO  4   6 100  15 100  52 101  53 101
M  END
>  <TORSDO>  (21) 
F 18

>  <SCORE>  (21) 
-14.631

>  <name>  (21) 
20

>  <ligand_id>  (21) 
20

>  <original_smiles>  (21) 
[H]c1oc(C(N([H])C(=O)N2C([H])([H])C([H])([H])C([H])([H])C([H])(n3nc(-c4c([H])c([H])c(Oc5c([H])c([H])c(F)c([H])c5F)c([H])c4[H])c(C(=O)N([H])[H])c3N([H])[H])C2([H])[H])=[N+]([H])[H])c([H])c1N([H])C(=O)C([H])([H])Oc1c([H])c([H])c2c(c1[H])C([H])([H])N(C(=O)C([H])(N([H])C(=O)C([H])(N([H])C([H])([H])[H])C([H])([H])[H])C(C([H])([H])[H])(C([H])([H])[H])C([H])([H])[H])C([H])(C(=O)N([H])C1([H])c3c([H])c([H])c([H])c([H])c3C([H])([H])C([H])([H])C1([H])[H])C2([H])[H]

>  <smiles>  (21) 
[H]c1oc(C(N([H])C(=O)N2C([H])([H])C([H])([H])C([H])([H])C([H])(n3nc(-c4c([H])c([H])c(Oc5c([H])c([H])c(F)c([H])c5F)c([H])c4[H])c(C(=O)N([H])[H])c3N([H])[H])C2([H])[H])=[N+]([H])[H])c([H])c1N([H])C(=O)C([H])([H])Oc1c([H])c([H])c2c(c1[H])C([H])([H])N(C(=O)C([H])(N([H])C(=O)C([H])(N([H])C([H])([H])[H])C([H])([H])[H])C(C([H])([H])[H])(C([H])([H])[H])C([H])([H])[H])C([H])(C(=O)N([H])C1([H])c3c([H])c([H])c([H])c([H])c3C([H])([H])C([H])([H])C1([H])[H])C2([H])[H]

$$$$
21:0:0
     RDKit          3D

 94103  0  0  1  0  0  0  0  0999 V2000
  -28.9700  -19.0810   20.3520 C   0  0  0  0  0  2  0  0  0  0  0  0
  -31.2620  -18.3850   20.6320 C   0  0  0  0  0  3  0  0  0  0  0  0
  -29.2860  -20.5580   20.3940 C   0  0  0  0  0  0  0  0  0  0  0  0
  -30.6650  -20.8260   20.5680 C   0  0  0  0  0  0  0  0  0  0  0  0
  -29.9330  -17.9230   20.4650 C   0  0  0  0  0  0  0  0  0  0  0  0
  -31.6130  -19.7660   20.6780 C   0  0  0  0  0  0  0  0  0  0  0  0
  -28.7530  -23.0890   20.3760 C   0  0  0  0  0  0  0  0  0  0  0  0
  -30.2160  -23.3210   20.7600 C   0  0  0  0  0  3  0  0  0  0  0  0
  -28.3870  -21.7740   20.2550 N   0  0  0  0  0  0  0  0  0  0  0  0
  -31.1350  -22.1600   20.6290 N   0  0  0  0  0  0  0  0  0  0  0  0
  -32.0490  -22.2530   21.0560 H   0  0  0  0  0  0  0  0  0  0  0  0
  -30.4610  -15.1590   20.3270 C   0  0  0  0  0  0  0  0  0  0  0  0
  -30.3830  -12.7810   19.3800 C   0  0  0  0  0  2  0  0  0  0  0  0
  -29.4370  -12.6770   18.1590 C   0  0  0  0  0  2  0  0  0  0  0  0
  -27.9870  -12.4260   18.6120 C   0  0  0  0  0  2  0  0  0  0  0  0
  -27.5710  -13.3500   19.7850 C   0  0  0  0  0  3  0  0  0  0  0  0
  -28.6390  -13.4120   20.8970 C   0  0  0  0  0  2  0  0  0  0  0  0
  -29.8800  -13.8790   20.2650 N   0  0  0  0  0  0  0  0  0  0  0  0
  -31.6700  -15.1970   20.0700 O   0  0  0  0  0  0  0  0  0  0  0  0
  -29.6680  -16.3710   20.4520 N   0  0  0  0  0  0  0  0  0  0  0  0
  -28.6890  -16.1410   20.5400 H   0  0  0  0  0  0  0  0  0  0  0  0
  -25.1990  -13.8900   20.5670 C   0  0  0  0  0  0  0  0  0  0  0  0
  -24.1470  -13.1000   20.9410 C   0  0  0  0  0  0  0  0  0  0  0  0
  -24.6260  -11.7550   20.8900 C   0  0  0  0  0  0  0  0  0  0  0  0
  -26.2470  -13.0250   20.3030 N   0  0  0  0  0  0  0  0  0  0  0  0
  -25.9140  -11.7350   20.5640 N   0  0  0  0  0  0  0  0  0  0  0  0
  -23.9120  -10.4830   21.0720 C   0  0  0  0  0  0  0  0  0  0  0  0
  -24.3540   -9.5130   21.9980 C   0  0  0  0  0  3  0  0  0  0  0  0
  -23.6380   -8.3080   22.1700 C   0  0  0  0  0  3  0  0  0  0  0  0
  -22.4650   -8.0660   21.4160 C   0  0  0  0  0  0  0  0  0  0  0  0
  -22.0420   -9.0260   20.4790 C   0  0  0  0  0  3  0  0  0  0  0  0
  -22.7590  -10.2210   20.3050 C   0  0  0  0  0  3  0  0  0  0  0  0
  -21.7200   -6.9140   21.4970 O   0  0  0  0  0  0  0  0  0  0  0  0
  -21.6670   -6.1710   22.6490 C   0  0  0  0  0  0  0  0  0  0  0  0
  -21.1950   -6.7130   23.8640 C   0  0  0  0  0  3  0  0  0  0  0  0
  -21.0920   -5.8940   25.0070 C   0  0  0  0  0  3  0  0  0  0  0  0
  -21.4520   -4.5350   24.9350 C   0  0  0  0  0  0  0  0  0  0  0  0
  -21.9180   -3.9930   23.7240 C   0  0  0  0  0  3  0  0  0  0  0  0
  -22.0220   -4.8090   22.5840 C   0  0  0  0  0  0  0  0  0  0  0  0
  -22.4520   -4.2760   21.4150 F   0  0  0  0  0  0  0  0  0  0  0  0
  -21.3470   -3.7470   26.0310 F   0  0  0  0  0  0  0  0  0  0  0  0
  -22.7490  -13.5610   21.2290 C   0  0  0  0  0  0  0  0  0  0  0  0
  -22.0360  -12.8540   22.0970 N   0  0  0  0  0  0  0  0  0  0  0  0
  -22.2980  -14.5870   20.7190 O   0  0  0  0  0  0  0  0  0  0  0  0
  -22.4150  -12.0250   22.5320 H   0  0  0  0  0  0  0  0  0  0  0  0
  -21.0980  -13.1460   22.3320 H   0  0  0  0  0  0  0  0  0  0  0  0
  -25.3440  -15.2640   20.4010 N   0  0  0  0  0  0  0  0  0  0  0  0
  -24.5630  -15.9010   20.5140 H   0  0  0  0  0  0  0  0  0  0  0  0
  -26.1660  -15.7130   20.0180 H   0  0  0  0  0  0  0  0  0  0  0  0
  -32.9620  -20.1090   20.8220 N   0  0  0  0  0  0  0  0  0  0  0  0
  -33.6370  -19.3790   20.6240 H   0  0  0  0  0  0  0  0  0  0  0  0
  -33.2230  -20.9770   20.3650 H   0  0  0  0  0  0  0  0  0  0  0  0
  -27.8170  -24.5200   20.1540 C   0  0  0  0  0  2  0  0  0  0  0  0
  -28.1760  -26.0640   20.3700 O   0  0  0  0  0  0  0  0  0  0  0  0
  -24.6240  -31.9410   23.2780 C   0  0  0  0  0  0  0  0  0  0  0  0
  -27.1650  -27.1220   20.2880 C   0  0  0  0  0  0  0  0  0  0  0  0
  -23.4250  -30.5470   21.6400 C   0  0  0  0  0  3  0  0  0  0  0  0
  -24.8670  -28.9480   20.2280 C   0  0  0  0  0  0  0  0  0  0  0  0
  -25.9880  -30.7700   21.4940 C   0  0  0  0  0  2  0  0  0  0  0  0
  -26.0520  -29.3670   20.8460 C   0  0  0  0  0  0  0  0  0  0  0  0
  -27.2000  -28.4730   20.8560 C   0  0  0  0  0  3  0  0  0  0  0  0
  -25.9530  -26.8310   19.6220 C   0  0  0  0  0  3  0  0  0  0  0  0
  -24.8370  -27.6960   19.5970 C   0  0  0  0  0  3  0  0  0  0  0  0
  -23.6510  -29.8630   20.2660 C   0  0  0  0  0  2  0  0  0  0  0  0
  -24.6990  -31.1100   22.1920 N   0  0  0  0  0  0  0  0  0  0  0  0
  -23.5360  -32.2380   23.7950 O   0  0  0  0  0  0  0  0  0  0  0  0
  -22.7280  -29.5540   22.6040 C   0  0  0  0  0  0  0  0  0  0  0  0
  -21.3990  -29.3900   22.4690 N   0  0  0  0  0  0  0  0  0  0  0  0
  -23.3870  -28.9300   23.4400 O   0  0  0  0  0  0  0  0  0  0  0  0
  -20.9210  -29.9440   21.7720 H   0  0  0  0  0  0  0  0  0  0  0  0
  -18.0060  -28.2150   22.9660 C   0  0  0  0  0  0  0  0  0  0  0  0
  -20.5650  -28.4630   23.2410 C   0  0  0  0  0  3  0  0  0  0  0  0
  -20.6590  -27.0270   22.6740 C   0  0  0  0  0  2  0  0  0  0  0  0
  -19.5590  -26.7070   21.6560 C   0  0  0  0  0  2  0  0  0  0  0  0
  -18.1760  -26.8630   22.2940 C   0  0  0  0  0  2  0  0  0  0  0  0
  -19.1270  -28.9730   23.3960 C   0  0  0  0  0  0  0  0  0  0  0  0
  -18.9120  -30.2370   23.9870 C   0  0  0  0  0  3  0  0  0  0  0  0
  -17.6090  -30.7440   24.1510 C   0  0  0  0  0  3  0  0  0  0  0  0
  -16.5020  -29.9830   23.7350 C   0  0  0  0  0  3  0  0  0  0  0  0
  -16.7010  -28.7210   23.1490 C   0  0  0  0  0  3  0  0  0  0  0  0
  -25.9000  -32.5740   23.9090 C   0  0  0  0  0  3  0  0  0  0  0  0
  -25.5960  -33.9800   24.2260 N   0  0  0  0  0  0  0  0  0  0  0  0
  -25.9180  -35.0260   23.4540 C   0  0  0  0  0  0  0  0  0  0  0  0
  -26.5690  -34.9100   22.4120 O   0  0  0  0  0  0  0  0  0  0  0  0
  -25.0170  -34.1440   25.0360 H   0  0  0  0  0  0  0  0  0  0  0  0
  -24.1830  -36.8210   23.1320 C   0  0  0  0  0  1  0  0  0  0  0  0
  -25.4490  -36.4240   23.9080 C   0  0  0  0  0  3  0  0  0  0  0  0
  -27.6050  -37.3230   24.6630 C   0  0  0  0  0  1  0  0  0  0  0  0
  -26.4780  -37.4740   23.7480 N   0  0  0  0  0  0  0  0  0  0  0  0
  -26.0770  -38.3970   23.8900 H   0  0  0  0  0  0  0  0  0  0  0  0
  -26.3900  -31.8160   25.2040 C   0  0  1  0  0  0  0  0  0  0  0  0
  -25.2790  -31.6040   26.2600 C   0  0  0  0  0  1  0  0  0  0  0  0
  -26.9660  -30.4280   24.8460 C   0  0  0  0  0  1  0  0  0  0  0  0
  -27.5390  -32.6090   25.8710 C   0  0  0  0  0  1  0  0  0  0  0  0
  1  3  1  0
  1  5  1  0
  2  6  1  0
  3  4  1  0
  4 10  1  0
  4  6  2  0
  5  2  2  0
  6 50  1  0
  7  8  2  0
  9  7  1  0
  9  3  2  0
 10  8  1  0
 10 11  1  0
 12 20  1  0
 13 18  1  0
 14 15  1  0
 14 13  1  0
 16 15  1  0
 16 25  1  0
 16 17  1  0
 18 12  1  0
 18 17  1  0
 19 12  2  0
 20  5  1  0
 20 21  1  0
 22 23  2  0
 23 42  1  0
 24 23  1  0
 24 27  1  0
 25 26  1  0
 25 22  1  0
 26 24  2  0
 27 28  1  0
 28 29  2  0
 30 33  1  0
 30 29  1  0
 31 30  2  0
 32 31  1  0
 32 27  2  0
 33 34  1  0
 34 35  1  0
 35 36  2  0
 37 36  1  0
 37 41  1  0
 38 37  2  0
 39 34  2  0
 39 38  1  0
 40 39  1  0
 42 43  1  0
 43 46  1  0
 43 45  1  0
 44 42  2  0
 47 48  1  0
 47 22  1  0
 49 47  1  0
 51 50  1  0
 52 50  1  0
 53 54  1  0
 53  7  1  0
 55 66  2  0
 56 54  1  0
 56 61  1  0
 57 65  1  0
 57 67  1  0
 58 64  1  0
 58 60  1  0
 59 65  1  0
 60 61  2  0
 60 59  1  0
 62 56  2  0
 63 62  1  0
 63 58  2  0
 64 57  1  0
 65 55  1  0
 67 69  2  0
 68 67  1  0
 70 68  1  0
 71 80  2  0
 71 76  1  0
 72 68  1  0
 72 76  1  0
 73 72  1  0
 74 75  1  0
 74 73  1  0
 75 71  1  0
 76 77  2  0
 77 78  1  0
 79 78  2  0
 80 79  1  0
 81 55  1  0
 81 82  1  0
 81 91  1  0
 82 85  1  0
 83 87  1  0
 83 82  1  0
 84 83  2  0
 87 86  1  0
 89 90  1  0
 89 87  1  0
 89 88  1  0
 91 94  1  1
 91 92  1  0
 93 91  1  0
M  ISO  4  12 100  20 100  53 101  54 101
M  END
>  <TORSDO>  (22) 
F 18

>  <SCORE>  (22) 
-15.736

>  <name>  (22) 
21

>  <ligand_id>  (22) 
21

>  <original_smiles>  (22) 
[H]c1c([H])c([H])c2c(c1[H])C([H])([H])C([H])([H])C([H])([H])C2([H])N([H])C(=O)C1([H])N(C(=O)C([H])(N([H])C(=O)C([H])(N([H])C([H])([H])[H])C([H])([H])[H])C(C([H])([H])[H])(C([H])([H])[H])C([H])([H])[H])C([H])([H])c2c([H])c(OC([H])([H])C3=Nc4c([H])c(N([H])C(=O)N5C([H])([H])C([H])([H])C([H])([H])C([H])(n6nc(-c7c([H])c([H])c(Oc8c([H])c([H])c(F)c([H])c8F)c([H])c7[H])c(C(=O)N([H])[H])c6N([H])[H])C5([H])[H])c([H])c(N([H])[H])c4N([H])C3([H])[H])c([H])c([H])c2C1([H])[H]

>  <smiles>  (22) 
[H]c1c([H])c([H])c2c(c1[H])C([H])([H])C([H])([H])C([H])([H])C2([H])N([H])C(=O)C1([H])N(C(=O)C([H])(N([H])C(=O)C([H])(N([H])C([H])([H])[H])C([H])([H])[H])C(C([H])([H])[H])(C([H])([H])[H])C([H])([H])[H])C([H])([H])c2c([H])c(OC([H])([H])C3=Nc4c([H])c(N([H])C(=O)N5C([H])([H])C([H])([H])C([H])([H])C([H])(n6nc(-c7c([H])c([H])c(Oc8c([H])c([H])c(F)c([H])c8F)c([H])c7[H])c(C(=O)N([H])[H])c6N([H])[H])C5([H])[H])c([H])c(N([H])[H])c4N([H])C3([H])[H])c([H])c([H])c2C1([H])[H]

$$$$
22:0:0
     RDKit          3D

 99108  0  0  1  0  0  0  0  0999 V2000
  -29.7650  -25.7140   18.3080 C   0  0  0  0  0  0  0  0  0  0  0  0
  -30.3280  -24.4990   18.1610 C   0  0  0  0  0  0  0  0  0  0  0  0
  -29.4900  -22.0950   18.2650 C   0  0  0  0  0  0  0  0  0  0  0  0
  -28.1420  -24.1220   18.9000 C   0  0  0  0  0  2  0  0  0  0  0  0
  -28.2980  -25.6530   18.6370 C   0  0  0  0  0  3  0  0  0  0  0  0
  -30.4200  -27.0820   18.1970 C   0  0  0  0  0  1  0  0  0  0  0  0
  -31.7970  -24.2220   17.8720 C   0  0  0  0  0  1  0  0  0  0  0  0
  -29.3920  -23.4690   18.4140 N   0  0  0  0  0  0  0  0  0  0  0  0
  -28.5500  -21.3820   18.6380 O   0  0  0  0  0  0  0  0  0  0  0  0
  -27.9310  -26.5860   19.7000 O   0  0  0  0  0  0  0  0  0  0  0  0
  -23.8750  -31.6570   22.7400 C   0  0  0  0  0  0  0  0  0  0  0  0
  -26.7140  -27.2690   19.6830 C   0  0  0  0  0  0  0  0  0  0  0  0
  -22.7290  -30.1760   21.1290 C   0  0  0  0  0  3  0  0  0  0  0  0
  -24.2460  -28.6970   19.7030 C   0  0  0  0  0  0  0  0  0  0  0  0
  -25.2370  -30.6490   20.9040 C   0  0  0  0  0  2  0  0  0  0  0  0
  -25.3870  -29.2740   20.2730 C   0  0  0  0  0  0  0  0  0  0  0  0
  -26.6200  -28.5700   20.2550 C   0  0  0  0  0  3  0  0  0  0  0  0
  -25.5390  -26.7150   19.1240 C   0  0  0  0  0  3  0  0  0  0  0  0
  -24.3200  -27.4190   19.1250 C   0  0  0  0  0  3  0  0  0  0  0  0
  -22.9610  -29.4950   19.7540 C   0  0  0  0  0  2  0  0  0  0  0  0
  -23.9660  -30.8450   21.6470 N   0  0  0  0  0  0  0  0  0  0  0  0
  -22.7850  -31.8790   23.2860 O   0  0  0  0  0  0  0  0  0  0  0  0
  -22.1390  -29.1330   22.1060 C   0  0  0  0  0  0  0  0  0  0  0  0
  -20.8060  -28.9720   22.0840 N   0  0  0  0  0  0  0  0  0  0  0  0
  -22.8770  -28.4710   22.8420 O   0  0  0  0  0  0  0  0  0  0  0  0
  -20.2690  -29.5580   21.4600 H   0  0  0  0  0  0  0  0  0  0  0  0
  -17.4600  -27.9820   23.0250 C   0  0  0  0  0  0  0  0  0  0  0  0
  -20.0400  -28.0210   22.8890 C   0  0  0  0  0  3  0  0  0  0  0  0
  -19.9210  -26.6550   22.1730 C   0  0  0  0  0  2  0  0  0  0  0  0
  -18.6490  -26.5250   21.3310 C   0  0  0  0  0  2  0  0  0  0  0  0
  -17.4050  -26.7020   22.2070 C   0  0  0  0  0  2  0  0  0  0  0  0
  -18.6960  -28.6090   23.3320 C   0  0  0  0  0  0  0  0  0  0  0  0
  -18.6890  -29.8160   24.0650 C   0  0  0  0  0  3  0  0  0  0  0  0
  -17.4770  -30.3910   24.4910 C   0  0  0  0  0  3  0  0  0  0  0  0
  -16.2570  -29.7580   24.1980 C   0  0  0  0  0  3  0  0  0  0  0  0
  -16.2500  -28.5550   23.4700 C   0  0  0  0  0  3  0  0  0  0  0  0
  -25.1310  -32.3640   23.3380 C   0  0  0  0  0  3  0  0  0  0  0  0
  -25.7520  -31.5900   24.5650 C   0  0  1  0  0  0  0  0  0  0  0  0
  -24.7130  -31.1840   25.6360 C   0  0  0  0  0  1  0  0  0  0  0  0
  -26.4710  -30.3050   24.0940 C   0  0  0  0  0  1  0  0  0  0  0  0
  -26.8240  -32.4690   25.2500 C   0  0  0  0  0  1  0  0  0  0  0  0
  -24.7280  -33.7210   23.7320 N   0  0  0  0  0  0  0  0  0  0  0  0
  -24.8900  -34.8130   22.9730 C   0  0  0  0  0  0  0  0  0  0  0  0
  -25.4660  -34.7890   21.8810 O   0  0  0  0  0  0  0  0  0  0  0  0
  -24.2000  -33.8060   24.5880 H   0  0  0  0  0  0  0  0  0  0  0  0
  -22.9440  -36.4040   22.8830 C   0  0  0  0  0  1  0  0  0  0  0  0
  -24.3230  -36.1410   23.5090 C   0  0  0  0  0  3  0  0  0  0  0  0
  -26.4490  -37.2530   24.0340 C   0  0  0  0  0  1  0  0  0  0  0  0
  -25.2090  -37.3000   23.2630 N   0  0  0  0  0  0  0  0  0  0  0  0
  -24.7320  -38.1700   23.4850 H   0  0  0  0  0  0  0  0  0  0  0  0
  -30.7200  -21.3650   17.6020 C   0  0  0  0  0  2  0  0  0  0  0  0
  -31.2430  -19.7540   19.5380 C   0  0  0  0  0  3  0  0  0  0  0  0
  -31.8010  -18.9990   17.5010 C   0  0  0  0  0  3  0  0  0  0  0  0
  -31.7960  -18.5080   19.7250 C   0  0  0  0  0  0  0  0  0  0  0  0
  -32.1720  -18.0480   18.4280 C   0  0  0  0  0  0  0  0  0  0  0  0
  -31.1990  -20.0700   18.1820 N   0  0  0  0  0  0  0  0  0  0  0  0
  -33.6900  -16.2320   17.4460 C   0  0  0  0  0  0  0  0  0  0  0  0
  -34.2480  -14.1110   16.2870 C   0  0  0  0  0  2  0  0  0  0  0  0
  -32.9920  -13.6450   15.5170 C   0  0  0  0  0  2  0  0  0  0  0  0
  -32.0540  -12.8230   16.4280 C   0  0  0  0  0  2  0  0  0  0  0  0
  -31.7930  -13.5100   17.7940 C   0  0  0  0  0  3  0  0  0  0  0  0
  -33.1220  -13.9820   18.4290 C   0  0  0  0  0  2  0  0  0  0  0  0
  -33.7870  -14.8700   17.4610 N   0  0  0  0  0  0  0  0  0  0  0  0
  -34.3690  -16.9400   16.6970 O   0  0  0  0  0  0  0  0  0  0  0  0
  -32.6470  -16.7100   18.1760 N   0  0  0  0  0  0  0  0  0  0  0  0
  -32.1550  -15.9750   18.6580 H   0  0  0  0  0  0  0  0  0  0  0  0
  -29.6830  -12.7060   19.0270 C   0  0  0  0  0  0  0  0  0  0  0  0
  -29.4550  -11.6330   19.8470 C   0  0  0  0  0  0  0  0  0  0  0  0
  -30.7090  -10.9610   19.9750 C   0  0  0  0  0  0  0  0  0  0  0  0
  -31.0280  -12.6510   18.6940 N   0  0  0  0  0  0  0  0  0  0  0  0
  -31.6550  -11.6230   19.3210 N   0  0  0  0  0  0  0  0  0  0  0  0
  -31.0540   -9.6940   20.6330 C   0  0  0  0  0  0  0  0  0  0  0  0
  -32.3670   -9.4260   21.0780 C   0  0  0  0  0  3  0  0  0  0  0  0
  -32.6690   -8.2100   21.7260 C   0  0  0  0  0  3  0  0  0  0  0  0
  -31.6530   -7.2460   21.9370 C   0  0  0  0  0  0  0  0  0  0  0  0
  -30.3530   -7.5090   21.4720 C   0  0  0  0  0  3  0  0  0  0  0  0
  -30.0550   -8.7190   20.8220 C   0  0  0  0  0  3  0  0  0  0  0  0
  -31.8600   -6.0260   22.5330 O   0  0  0  0  0  0  0  0  0  0  0  0
  -33.0520   -5.7140   23.1380 C   0  0  0  0  0  0  0  0  0  0  0  0
  -33.9140   -6.7110   23.6430 C   0  0  0  0  0  3  0  0  0  0  0  0
  -35.0940   -6.3440   24.3200 C   0  0  0  0  0  3  0  0  0  0  0  0
  -35.4070   -4.9830   24.5020 C   0  0  0  0  0  0  0  0  0  0  0  0
  -34.5480   -3.9900   24.0040 C   0  0  0  0  0  3  0  0  0  0  0  0
  -33.3710   -4.3550   23.3280 C   0  0  0  0  0  0  0  0  0  0  0  0
  -32.5330   -3.3920   22.8690 F   0  0  0  0  0  0  0  0  0  0  0  0
  -36.5370   -4.6300   25.1600 F   0  0  0  0  0  0  0  0  0  0  0  0
  -28.1290  -11.1950   20.4000 C   0  0  0  0  0  0  0  0  0  0  0  0
  -28.1340  -10.5330   21.5520 N   0  0  0  0  0  0  0  0  0  0  0  0
  -27.0750  -11.4820   19.8360 O   0  0  0  0  0  0  0  0  0  0  0  0
  -28.9980  -10.3150   22.0270 H   0  0  0  0  0  0  0  0  0  0  0  0
  -27.2590  -10.2420   21.9660 H   0  0  0  0  0  0  0  0  0  0  0  0
  -28.8580  -13.7060   18.5210 N   0  0  0  0  0  0  0  0  0  0  0  0
  -27.8580  -13.7020   18.6850 H   0  0  0  0  0  0  0  0  0  0  0  0
  -29.1330  -14.3620   17.8010 H   0  0  0  0  0  0  0  0  0  0  0  0
  -31.9790  -17.7900   21.0460 C   0  0  0  0  0  2  0  0  0  0  0  0
  -31.4150  -15.7100   22.2300 C   0  0  0  0  0  1  0  0  0  0  0  0
  -29.6230  -17.2880   21.6430 C   0  0  0  0  0  1  0  0  0  0  0  0
  -30.9530  -16.7450   21.2770 N   0  0  1  0  0  4  0  0  0  0  0  0
  -30.8240  -16.2730   20.3970 H   0  0  0  0  0  0  0  0  0  0  0  0
  1  5  1  0
  2  1  2  0
  2  8  1  0
  3  8  1  0
  3  9  2  0
  5  4  1  0
  5 10  1  0
  6  1  1  0
  7  2  1  0
  8  4  1  0
 11 22  2  0
 12 10  1  0
 12 17  1  0
 13 21  1  0
 13 23  1  0
 14 20  1  0
 14 16  1  0
 15 21  1  0
 16 15  1  0
 17 16  2  0
 18 19  1  0
 18 12  2  0
 19 14  2  0
 20 13  1  0
 21 11  1  0
 23 25  2  0
 24 23  1  0
 26 24  1  0
 27 32  2  0
 27 36  1  0
 28 24  1  0
 28 32  1  0
 29 28  1  0
 30 29  1  0
 30 31  1  0
 31 27  1  0
 32 33  1  0
 33 34  2  0
 35 34  1  0
 36 35  2  0
 37 11  1  0
 37 42  1  0
 37 38  1  0
 38 41  1  1
 38 39  1  0
 40 38  1  0
 42 45  1  0
 43 47  1  0
 43 42  1  0
 44 43  2  0
 47 46  1  0
 49 50  1  0
 49 47  1  0
 49 48  1  0
 51 56  1  0
 51  3  1  0
 52 54  2  0
 53 56  1  0
 53 55  2  0
 54 95  1  0
 55 54  1  0
 56 52  1  0
 57 63  1  0
 57 65  1  0
 58 63  1  0
 59 58  1  0
 59 60  1  0
 61 60  1  0
 61 62  1  0
 61 70  1  0
 63 62  1  0
 64 57  2  0
 65 55  1  0
 65 66  1  0
 67 68  2  0
 68 69  1  0
 68 87  1  0
 69 72  1  0
 70 67  1  0
 70 71  1  0
 71 69  2  0
 72 77  2  0
 72 73  1  0
 73 74  2  0
 74 75  1  0
 75 78  1  0
 76 75  2  0
 77 76  1  0
 78 79  1  0
 79 84  2  0
 79 80  1  0
 80 81  2  0
 81 82  1  0
 82 86  1  0
 83 82  2  0
 84 83  1  0
 85 84  1  0
 87 88  1  0
 88 91  1  0
 88 90  1  0
 89 87  2  0
 92 93  1  0
 92 67  1  0
 94 92  1  0
 95 98  1  0
 98 97  1  0
 98 96  1  0
 98 99  1  6
M  ISO  4   5 101  10 101  57 100  65 100
M  END
>  <TORSDO>  (23) 
F 20

>  <SCORE>  (23) 
-5.277

>  <name>  (23) 
22

>  <ligand_id>  (23) 
22

>  <original_smiles>  (23) 
[H]c1c([H])c([H])c2c(c1[H])C([H])([H])C([H])([H])C([H])([H])C2([H])N([H])C(=O)C1([H])N(C(=O)C([H])(N([H])C(=O)C([H])(N([H])C([H])([H])[H])C([H])([H])[H])C(C([H])([H])[H])(C([H])([H])[H])C([H])([H])[H])C([H])([H])c2c([H])c(OC3([H])C(C([H])([H])[H])=C(C([H])([H])[H])N(C(=O)C([H])([H])n4c([H])c(N([H])C(=O)N5C([H])([H])C([H])([H])C([H])([H])C([H])(n6nc(-c7c([H])c([H])c(Oc8c([H])c([H])c(F)c([H])c8F)c([H])c7[H])c(C(=O)N([H])[H])c6N([H])[H])C5([H])[H])c(C([H])([H])[N+]([H])(C([H])([H])[H])C([H])([H])[H])c4[H])C3([H])[H])c([H])c([H])c2C1([H])[H]

>  <smiles>  (23) 
[H]c1c([H])c([H])c2c(c1[H])C([H])([H])C([H])([H])C([H])([H])C2([H])N([H])C(=O)C1([H])N(C(=O)C([H])(N([H])C(=O)C([H])(N([H])C([H])([H])[H])C([H])([H])[H])C(C([H])([H])[H])(C([H])([H])[H])C([H])([H])[H])C([H])([H])c2c([H])c(OC3([H])C(C([H])([H])[H])=C(C([H])([H])[H])N(C(=O)C([H])([H])n4c([H])c(N([H])C(=O)N5C([H])([H])C([H])([H])C([H])([H])C([H])(n6nc(-c7c([H])c([H])c(Oc8c([H])c([H])c(F)c([H])c8F)c([H])c7[H])c(C(=O)N([H])[H])c6N([H])[H])C5([H])[H])c(C([H])([H])[N+]([H])(C([H])([H])[H])C([H])([H])[H])c4[H])C3([H])[H])c([H])c([H])c2C1([H])[H]

$$$$
23:0:0
     RDKit          3D

 93102  0  0  1  0  0  0  0  0999 V2000
  -29.0130  -23.7380   20.0470 C   0  0  0  0  0  0  0  0  0  0  0  0
  -30.9100  -21.3660   22.5660 C   0  0  0  0  0  2  0  0  0  0  0  0
  -29.7640  -22.3310   22.9450 C   0  0  0  0  0  2  0  0  0  0  0  0
  -31.2540  -21.4380   21.0620 C   0  0  0  0  0  2  0  0  0  0  0  0
  -28.5710  -22.2090   21.9700 C   0  0  0  0  0  2  0  0  0  0  0  0
  -29.9830  -21.2640   20.1990 C   0  0  0  0  0  3  0  0  0  0  0  0
  -29.0660  -22.4450   20.6090 N   0  0  0  0  0  0  0  0  0  0  0  0
  -29.6440  -23.9810   19.0130 O   0  0  0  0  0  0  0  0  0  0  0  0
  -30.2800  -18.4710   20.5160 C   0  0  0  0  0  3  0  0  0  0  0  0
  -29.5140  -19.7240   20.2160 C   0  0  0  0  0  0  0  0  0  0  0  0
  -29.5740  -17.2530   20.4060 C   0  0  0  0  0  0  0  0  0  0  0  0
  -28.2770  -19.4480   19.8570 N   0  0  0  0  0  0  0  0  0  0  0  0
  -27.9880  -17.7770   19.9090 S   0  0  0  0  0  0  0  0  0  0  0  0
  -30.5730  -14.8430   20.3350 C   0  0  0  0  0  0  0  0  0  0  0  0
  -30.4460  -12.5440   19.3310 C   0  0  0  0  0  2  0  0  0  0  0  0
  -29.5050  -12.5920   18.1040 C   0  0  0  0  0  2  0  0  0  0  0  0
  -28.0360  -12.3990   18.5290 C   0  0  0  0  0  2  0  0  0  0  0  0
  -27.6470  -13.2870   19.7420 C   0  0  0  0  0  3  0  0  0  0  0  0
  -28.7040  -13.2000   20.8660 C   0  0  0  0  0  2  0  0  0  0  0  0
  -30.0010  -13.5850   20.2880 N   0  0  0  0  0  0  0  0  0  0  0  0
  -31.7330  -15.0040   19.9430 O   0  0  0  0  0  0  0  0  0  0  0  0
  -29.7550  -15.8920   20.7420 N   0  0  0  0  0  0  0  0  0  0  0  0
  -28.8970  -15.4880   21.0840 H   0  0  0  0  0  0  0  0  0  0  0  0
  -25.2520  -13.8700   20.4590 C   0  0  0  0  0  0  0  0  0  0  0  0
  -24.1880  -13.0930   20.8260 C   0  0  0  0  0  0  0  0  0  0  0  0
  -24.6580  -11.7440   20.8010 C   0  0  0  0  0  0  0  0  0  0  0  0
  -26.3010  -12.9960   20.2260 N   0  0  0  0  0  0  0  0  0  0  0  0
  -25.9500  -11.7110   20.4960 N   0  0  0  0  0  0  0  0  0  0  0  0
  -23.9360  -10.4800   20.9920 C   0  0  0  0  0  0  0  0  0  0  0  0
  -24.3560   -9.5260   21.9460 C   0  0  0  0  0  3  0  0  0  0  0  0
  -23.6330   -8.3280   22.1250 C   0  0  0  0  0  3  0  0  0  0  0  0
  -22.4760   -8.0730   21.3510 C   0  0  0  0  0  0  0  0  0  0  0  0
  -22.0740   -9.0160   20.3880 C   0  0  0  0  0  3  0  0  0  0  0  0
  -22.7980  -10.2060   20.2060 C   0  0  0  0  0  3  0  0  0  0  0  0
  -21.7270   -6.9240   21.4380 O   0  0  0  0  0  0  0  0  0  0  0  0
  -21.6480   -6.2030   22.6030 C   0  0  0  0  0  0  0  0  0  0  0  0
  -21.1550   -6.7700   23.7980 C   0  0  0  0  0  3  0  0  0  0  0  0
  -21.0250   -5.9740   24.9530 C   0  0  0  0  0  3  0  0  0  0  0  0
  -21.3770   -4.6130   24.9140 C   0  0  0  0  0  0  0  0  0  0  0  0
  -21.8630   -4.0450   23.7230 C   0  0  0  0  0  3  0  0  0  0  0  0
  -21.9950   -4.8370   22.5700 C   0  0  0  0  0  0  0  0  0  0  0  0
  -22.4430   -4.2800   21.4200 F   0  0  0  0  0  0  0  0  0  0  0  0
  -21.2450   -3.8460   26.0210 F   0  0  0  0  0  0  0  0  0  0  0  0
  -22.7870  -13.5660   21.0890 C   0  0  0  0  0  0  0  0  0  0  0  0
  -22.0560  -12.8680   21.9500 N   0  0  0  0  0  0  0  0  0  0  0  0
  -22.3510  -14.5920   20.5690 O   0  0  0  0  0  0  0  0  0  0  0  0
  -22.4230  -12.0370   22.3920 H   0  0  0  0  0  0  0  0  0  0  0  0
  -21.1160  -13.1660   22.1690 H   0  0  0  0  0  0  0  0  0  0  0  0
  -25.4070  -15.2410   20.2800 N   0  0  0  0  0  0  0  0  0  0  0  0
  -24.6330  -15.8860   20.3970 H   0  0  0  0  0  0  0  0  0  0  0  0
  -26.2410  -15.6850   19.9200 H   0  0  0  0  0  0  0  0  0  0  0  0
  -28.1480  -24.9610   20.6740 C   0  0  0  0  0  2  0  0  0  0  0  0
  -28.3680  -26.3890   20.2030 O   0  0  0  0  0  0  0  0  0  0  0  0
  -24.6210  -31.8790   23.2380 C   0  0  0  0  0  0  0  0  0  0  0  0
  -27.2660  -27.2830   20.1930 C   0  0  0  0  0  0  0  0  0  0  0  0
  -23.4330  -30.4780   21.5900 C   0  0  0  0  0  3  0  0  0  0  0  0
  -24.8990  -28.9280   20.1680 C   0  0  0  0  0  0  0  0  0  0  0  0
  -25.9780  -30.7930   21.4230 C   0  0  0  0  0  2  0  0  0  0  0  0
  -26.0670  -29.4090   20.7740 C   0  0  0  0  0  0  0  0  0  0  0  0
  -27.2540  -28.6010   20.7710 C   0  0  0  0  0  3  0  0  0  0  0  0
  -26.0740  -26.8770   19.5530 C   0  0  0  0  0  3  0  0  0  0  0  0
  -24.9090  -27.6700   19.5460 C   0  0  0  0  0  3  0  0  0  0  0  0
  -23.6610  -29.8050   20.2100 C   0  0  0  0  0  2  0  0  0  0  0  0
  -24.6960  -31.0690   22.1400 N   0  0  0  0  0  0  0  0  0  0  0  0
  -23.5340  -32.1520   23.7670 O   0  0  0  0  0  0  0  0  0  0  0  0
  -22.7650  -29.4600   22.5460 C   0  0  0  0  0  0  0  0  0  0  0  0
  -21.4410  -29.2760   22.4080 N   0  0  0  0  0  0  0  0  0  0  0  0
  -23.4390  -28.8400   23.3720 O   0  0  0  0  0  0  0  0  0  0  0  0
  -20.9550  -29.8280   21.7160 H   0  0  0  0  0  0  0  0  0  0  0  0
  -18.0690  -28.0460   22.8770 C   0  0  0  0  0  0  0  0  0  0  0  0
  -20.6220  -28.3310   23.1730 C   0  0  0  0  0  3  0  0  0  0  0  0
  -20.7420  -26.9000   22.5990 C   0  0  0  0  0  2  0  0  0  0  0  0
  -19.6540  -26.5650   21.5750 C   0  0  0  0  0  2  0  0  0  0  0  0
  -18.2650  -26.6970   22.2070 C   0  0  0  0  0  2  0  0  0  0  0  0
  -19.1750  -28.8200   23.3180 C   0  0  0  0  0  0  0  0  0  0  0  0
  -18.9370  -30.0810   23.9070 C   0  0  0  0  0  3  0  0  0  0  0  0
  -17.6250  -30.5680   24.0600 C   0  0  0  0  0  3  0  0  0  0  0  0
  -16.5330  -29.7920   23.6350 C   0  0  0  0  0  3  0  0  0  0  0  0
  -16.7550  -28.5330   23.0490 C   0  0  0  0  0  3  0  0  0  0  0  0
  -25.8970  -32.5170   23.8690 C   0  0  0  0  0  3  0  0  0  0  0  0
  -25.5830  -33.9180   24.1860 N   0  0  0  0  0  0  0  0  0  0  0  0
  -25.9200  -34.9670   23.4230 C   0  0  0  0  0  0  0  0  0  0  0  0
  -26.5930  -34.8560   22.3960 O   0  0  0  0  0  0  0  0  0  0  0  0
  -24.9850  -34.0780   24.9840 H   0  0  0  0  0  0  0  0  0  0  0  0
  -24.2000  -36.7660   23.0440 C   0  0  0  0  0  1  0  0  0  0  0  0
  -25.4320  -36.3590   23.8700 C   0  0  0  0  0  3  0  0  0  0  0  0
  -27.5590  -37.2450   24.7210 C   0  0  0  0  0  1  0  0  0  0  0  0
  -26.4680  -37.4100   23.7630 N   0  0  0  0  0  0  0  0  0  0  0  0
  -26.0630  -38.3310   23.9000 H   0  0  0  0  0  0  0  0  0  0  0  0
  -26.3970  -31.7570   25.1600 C   0  0  1  0  0  0  0  0  0  0  0  0
  -25.2920  -31.5330   26.2180 C   0  0  0  0  0  1  0  0  0  0  0  0
  -26.9810  -30.3740   24.7880 C   0  0  0  0  0  1  0  0  0  0  0  0
  -27.5410  -32.5550   25.8260 C   0  0  0  0  0  1  0  0  0  0  0  0
  1  7  1  0
  1 52  1  0
  2  3  1  0
  4  2  1  0
  5  3  1  0
  6 10  1  0
  6  7  1  0
  6  4  1  0
  7  5  1  0
  8  1  2  0
 10  9  1  0
 11  9  2  0
 11 22  1  0
 12 13  1  0
 12 10  2  0
 13 11  1  0
 14 22  1  0
 15 20  1  0
 16 17  1  0
 16 15  1  0
 18 17  1  0
 18 27  1  0
 18 19  1  0
 20 14  1  0
 20 19  1  0
 21 14  2  0
 22 23  1  0
 24 25  2  0
 25 44  1  0
 26 25  1  0
 26 29  1  0
 27 24  1  0
 27 28  1  0
 28 26  2  0
 29 30  1  0
 30 31  2  0
 32 35  1  0
 32 31  1  0
 33 32  2  0
 34 33  1  0
 34 29  2  0
 35 36  1  0
 36 37  1  0
 37 38  2  0
 39 38  1  0
 39 43  1  0
 40 39  2  0
 41 36  2  0
 41 40  1  0
 42 41  1  0
 44 45  1  0
 45 48  1  0
 45 47  1  0
 46 44  2  0
 49 50  1  0
 49 24  1  0
 51 49  1  0
 53 52  1  0
 54 65  2  0
 55 53  1  0
 55 60  1  0
 56 64  1  0
 56 66  1  0
 57 63  1  0
 57 59  1  0
 58 64  1  0
 59 58  1  0
 60 59  2  0
 61 55  2  0
 62 61  1  0
 62 57  2  0
 63 56  1  0
 64 54  1  0
 66 68  2  0
 67 66  1  0
 69 67  1  0
 70 79  2  0
 70 75  1  0
 71 67  1  0
 71 75  1  0
 72 71  1  0
 73 74  1  0
 73 72  1  0
 74 70  1  0
 75 76  2  0
 76 77  1  0
 78 77  2  0
 79 78  1  0
 80 54  1  0
 80 81  1  0
 80 90  1  0
 81 84  1  0
 82 86  1  0
 82 81  1  0
 83 82  2  0
 86 85  1  0
 88 86  1  0
 88 89  1  0
 88 87  1  0
 90 93  1  1
 90 91  1  0
 92 90  1  0
M  ISO  4  14 100  22 100  52 101  53 101
M  END
>  <TORSDO>  (24) 
F 18

>  <SCORE>  (24) 
-15.248

>  <name>  (24) 
23

>  <ligand_id>  (24) 
23

>  <original_smiles>  (24) 
[H]c1c(C2([H])N(C(=O)C([H])([H])Oc3c([H])c([H])c4c(c3[H])C([H])([H])N(C(=O)C([H])(N([H])C(=O)C([H])(N([H])C([H])([H])[H])C([H])([H])[H])C(C([H])([H])[H])(C([H])([H])[H])C([H])([H])[H])C([H])(C(=O)N([H])C3([H])c5c([H])c([H])c([H])c([H])c5C([H])([H])C([H])([H])C3([H])[H])C4([H])[H])C([H])([H])C([H])([H])C([H])([H])C2([H])[H])nsc1N([H])C(=O)N1C([H])([H])C([H])([H])C([H])([H])C([H])(n2nc(-c3c([H])c([H])c(Oc4c([H])c([H])c(F)c([H])c4F)c([H])c3[H])c(C(=O)N([H])[H])c2N([H])[H])C1([H])[H]

>  <smiles>  (24) 
[H]c1c(C2([H])N(C(=O)C([H])([H])Oc3c([H])c([H])c4c(c3[H])C([H])([H])N(C(=O)C([H])(N([H])C(=O)C([H])(N([H])C([H])([H])[H])C([H])([H])[H])C(C([H])([H])[H])(C([H])([H])[H])C([H])([H])[H])C([H])(C(=O)N([H])C3([H])c5c([H])c([H])c([H])c([H])c5C([H])([H])C([H])([H])C3([H])[H])C4([H])[H])C([H])([H])C([H])([H])C([H])([H])C2([H])[H])nsc1N([H])C(=O)N1C([H])([H])C([H])([H])C([H])([H])C([H])(n2nc(-c3c([H])c([H])c(Oc4c([H])c([H])c(F)c([H])c4F)c([H])c3[H])c(C(=O)N([H])[H])c2N([H])[H])C1([H])[H]

$$$$
24:0:0
     RDKit          3D

 96104  0  0  1  0  0  0  0  0999 V2000
  -30.5190  -15.0030   20.3800 C   0  0  0  0  0  0  0  0  0  0  0  0
  -30.4420  -12.6230   19.5010 C   0  0  0  0  0  2  0  0  0  0  0  0
  -29.5300  -12.5430   18.2510 C   0  0  0  0  0  2  0  0  0  0  0  0
  -28.0560  -12.3480   18.6550 C   0  0  0  0  0  2  0  0  0  0  0  0
  -27.6220  -13.3070   19.7930 C   0  0  0  0  0  3  0  0  0  0  0  0
  -28.6510  -13.3340   20.9440 C   0  0  0  0  0  2  0  0  0  0  0  0
  -29.9420  -13.7310   20.3610 N   0  0  0  0  0  0  0  0  0  0  0  0
  -31.7280  -15.0770   20.1320 O   0  0  0  0  0  0  0  0  0  0  0  0
  -28.2920  -19.7860   20.3040 C   0  0  0  0  0  3  0  0  0  0  0  0
  -28.4250  -18.3410   20.4000 C   0  0  0  0  0  0  0  0  0  0  0  0
  -29.4370  -20.6320   20.2160 C   0  0  0  0  0  0  0  0  0  0  0  0
  -29.7000  -17.6640   20.3690 C   0  0  0  0  0  0  0  0  0  0  0  0
  -30.6300  -19.9260   20.2000 N   0  0  0  0  0  0  0  0  0  0  0  0
  -30.7600  -18.5470   20.2540 N   0  0  0  0  0  0  0  0  0  0  0  0
  -29.6710  -16.1350   20.4780 N   0  0  0  0  0  0  0  0  0  0  0  0
  -29.4800  -22.1200   20.2510 N   0  0  0  0  0  0  0  0  0  0  0  0
  -28.7150  -15.8450   20.5830 H   0  0  0  0  0  0  0  0  0  0  0  0
  -30.4410  -22.4320   20.3460 H   0  0  0  0  0  0  0  0  0  0  0  0
  -25.2200  -13.9120   20.4470 C   0  0  0  0  0  0  0  0  0  0  0  0
  -24.1440  -13.1520   20.8060 C   0  0  0  0  0  0  0  0  0  0  0  0
  -24.6050  -11.8000   20.8210 C   0  0  0  0  0  0  0  0  0  0  0  0
  -26.2700  -13.0290   20.2620 N   0  0  0  0  0  0  0  0  0  0  0  0
  -25.9050  -11.7530   20.5520 N   0  0  0  0  0  0  0  0  0  0  0  0
  -23.8640  -10.5480   21.0180 C   0  0  0  0  0  0  0  0  0  0  0  0
  -24.2800   -9.5850   21.9620 C   0  0  0  0  0  3  0  0  0  0  0  0
  -23.5370   -8.3990   22.1490 C   0  0  0  0  0  3  0  0  0  0  0  0
  -22.3650   -8.1700   21.3900 C   0  0  0  0  0  0  0  0  0  0  0  0
  -21.9690   -9.1220   20.4350 C   0  0  0  0  0  3  0  0  0  0  0  0
  -22.7120  -10.2980   20.2470 C   0  0  0  0  0  3  0  0  0  0  0  0
  -21.5940   -7.0360   21.4860 O   0  0  0  0  0  0  0  0  0  0  0  0
  -21.5480   -6.2910   22.6360 C   0  0  0  0  0  0  0  0  0  0  0  0
  -21.1730   -6.8560   23.8760 C   0  0  0  0  0  3  0  0  0  0  0  0
  -21.0700   -6.0400   25.0190 C   0  0  0  0  0  3  0  0  0  0  0  0
  -21.3370   -4.6600   24.9270 C   0  0  0  0  0  0  0  0  0  0  0  0
  -21.7080   -4.0960   23.6940 C   0  0  0  0  0  3  0  0  0  0  0  0
  -21.8100   -4.9090   22.5510 C   0  0  0  0  0  0  0  0  0  0  0  0
  -22.1460   -4.3560   21.3610 F   0  0  0  0  0  0  0  0  0  0  0  0
  -21.2320   -3.8750   26.0240 F   0  0  0  0  0  0  0  0  0  0  0  0
  -22.7430  -13.6440   21.0260 C   0  0  0  0  0  0  0  0  0  0  0  0
  -21.9930  -12.9820   21.8990 N   0  0  0  0  0  0  0  0  0  0  0  0
  -22.3240  -14.6550   20.4620 O   0  0  0  0  0  0  0  0  0  0  0  0
  -22.3470  -12.1650   22.3760 H   0  0  0  0  0  0  0  0  0  0  0  0
  -21.0540  -13.2940   22.0970 H   0  0  0  0  0  0  0  0  0  0  0  0
  -25.3700  -15.2790   20.2410 N   0  0  0  0  0  0  0  0  0  0  0  0
  -24.5760  -15.8990   20.3450 H   0  0  0  0  0  0  0  0  0  0  0  0
  -26.2080  -15.7810   19.9610 H   0  0  0  0  0  0  0  0  0  0  0  0
  -27.2700  -17.5690   20.5710 N   0  0  0  0  0  0  0  0  0  0  0  0
  -26.4080  -18.1030   20.6050 H   0  0  0  0  0  0  0  0  0  0  0  0
  -27.2990  -16.9580   21.3810 H   0  0  0  0  0  0  0  0  0  0  0  0
  -28.5520  -23.2900   19.7750 C   0  0  0  0  0  2  0  0  0  0  0  0
  -28.5440  -24.8300   20.4960 C   0  0  0  0  0  3  0  0  0  0  0  0
  -27.8410  -24.7730   21.8530 C   0  0  0  0  0  0  0  0  0  0  0  0
  -28.6500  -25.2810   23.0270 C   0  0  0  0  0  1  0  0  0  0  0  0
  -26.6590  -24.3390   21.9990 N   0  0  0  0  0  0  0  0  0  0  0  0
  -26.3570  -24.3770   22.9650 H   0  0  0  0  0  0  0  0  0  0  0  0
  -28.3970  -26.2640   19.8890 O   0  0  0  0  0  0  0  0  0  0  0  0
  -24.5900  -31.7620   23.0510 C   0  0  0  0  0  0  0  0  0  0  0  0
  -27.2660  -27.1540   19.9580 C   0  0  0  0  0  0  0  0  0  0  0  0
  -23.4090  -30.3630   21.3990 C   0  0  0  0  0  3  0  0  0  0  0  0
  -24.8860  -28.8230   19.9570 C   0  0  0  0  0  0  0  0  0  0  0  0
  -25.9520  -30.6880   21.2180 C   0  0  0  0  0  2  0  0  0  0  0  0
  -26.0560  -29.3020   20.5580 C   0  0  0  0  0  0  0  0  0  0  0  0
  -27.2480  -28.4860   20.5350 C   0  0  0  0  0  3  0  0  0  0  0  0
  -26.0650  -26.7590   19.3360 C   0  0  0  0  0  3  0  0  0  0  0  0
  -24.9000  -27.5630   19.3340 C   0  0  0  0  0  3  0  0  0  0  0  0
  -23.6390  -29.6960   20.0130 C   0  0  0  0  0  2  0  0  0  0  0  0
  -24.6700  -30.9590   21.9460 N   0  0  0  0  0  0  0  0  0  0  0  0
  -23.5040  -32.0150   23.5930 O   0  0  0  0  0  0  0  0  0  0  0  0
  -22.7550  -29.3350   22.3530 C   0  0  0  0  0  0  0  0  0  0  0  0
  -21.4240  -29.1670   22.2550 N   0  0  0  0  0  0  0  0  0  0  0  0
  -23.4460  -28.6890   23.1450 O   0  0  0  0  0  0  0  0  0  0  0  0
  -20.9230  -29.7430   21.5950 H   0  0  0  0  0  0  0  0  0  0  0  0
  -18.0540  -27.9720   22.8300 C   0  0  0  0  0  0  0  0  0  0  0  0
  -20.6230  -28.2100   23.0210 C   0  0  0  0  0  3  0  0  0  0  0  0
  -20.6940  -26.7960   22.3960 C   0  0  0  0  0  2  0  0  0  0  0  0
  -19.5580  -26.5150   21.4070 C   0  0  0  0  0  2  0  0  0  0  0  0
  -18.1990  -26.6450   22.1010 C   0  0  0  0  0  2  0  0  0  0  0  0
  -19.1920  -28.7120   23.2470 C   0  0  0  0  0  0  0  0  0  0  0  0
  -19.0010  -29.9510   23.8920 C   0  0  0  0  0  3  0  0  0  0  0  0
  -17.7060  -30.4520   24.1240 C   0  0  0  0  0  3  0  0  0  0  0  0
  -16.5840  -29.7090   23.7230 C   0  0  0  0  0  3  0  0  0  0  0  0
  -16.7590  -28.4720   23.0790 C   0  0  0  0  0  3  0  0  0  0  0  0
  -25.8600  -32.4130   23.6810 C   0  0  0  0  0  3  0  0  0  0  0  0
  -26.4190  -31.6100   24.9200 C   0  0  1  0  0  0  0  0  0  0  0  0
  -25.3530  -31.3040   25.9990 C   0  0  0  0  0  1  0  0  0  0  0  0
  -27.0340  -30.2640   24.4710 C   0  0  0  0  0  1  0  0  0  0  0  0
  -27.5580  -32.4110   25.5910 C   0  0  0  0  0  1  0  0  0  0  0  0
  -25.5090  -33.7850   24.0790 N   0  0  0  0  0  0  0  0  0  0  0  0
  -25.7930  -34.8850   23.3680 C   0  0  0  0  0  0  0  0  0  0  0  0
  -26.4460  -34.8530   22.3230 O   0  0  0  0  0  0  0  0  0  0  0  0
  -24.9210  -33.8800   24.8940 H   0  0  0  0  0  0  0  0  0  0  0  0
  -24.0010  -36.6410   23.1380 C   0  0  0  0  0  1  0  0  0  0  0  0
  -25.2720  -36.2350   23.9030 C   0  0  0  0  0  3  0  0  0  0  0  0
  -27.4000  -37.1510   24.7200 C   0  0  0  0  0  1  0  0  0  0  0  0
  -26.2660  -37.3280   23.8170 N   0  0  0  0  0  0  0  0  0  0  0  0
  -25.8340  -38.2250   24.0240 H   0  0  0  0  0  0  0  0  0  0  0  0
  1 15  1  0
  2  7  1  0
  3  4  1  0
  3  2  1  0
  5  4  1  0
  5 22  1  0
  5  6  1  0
  7  1  1  0
  7  6  1  0
  8  1  2  0
  9 10  1  0
 10 47  1  0
 11 16  1  0
 11  9  2  0
 12 10  2  0
 12 15  1  0
 13 11  1  0
 13 14  2  0
 14 12  1  0
 15 17  1  0
 16 18  1  0
 19 20  2  0
 20 21  1  0
 20 39  1  0
 21 24  1  0
 22 19  1  0
 22 23  1  0
 23 21  2  0
 24 25  1  0
 25 26  2  0
 27 30  1  0
 27 26  1  0
 28 27  2  0
 29 28  1  0
 29 24  2  0
 30 31  1  0
 31 32  1  0
 32 33  2  0
 34 33  1  0
 34 38  1  0
 35 34  2  0
 36 31  2  0
 36 35  1  0
 37 36  1  0
 39 40  1  0
 40 43  1  0
 40 42  1  0
 41 39  2  0
 44 45  1  0
 44 19  1  0
 46 44  1  0
 47 48  1  0
 47 49  1  0
 50 16  1  0
 51 50  1  0
 51 52  1  0
 52 54  2  0
 52 53  1  0
 54 55  1  0
 56 58  1  0
 56 51  1  0
 57 68  2  0
 58 63  1  0
 59 67  1  0
 59 69  1  0
 60 66  1  0
 60 62  1  0
 61 67  1  0
 62 61  1  0
 63 62  2  0
 64 58  2  0
 65 64  1  0
 65 60  2  0
 66 59  1  0
 67 57  1  0
 69 71  2  0
 70 69  1  0
 72 70  1  0
 73 82  2  0
 73 78  1  0
 74 70  1  0
 74 78  1  0
 75 74  1  0
 76 77  1  0
 76 75  1  0
 77 73  1  0
 78 79  2  0
 79 80  1  0
 81 80  2  0
 82 81  1  0
 83 57  1  0
 83 88  1  0
 83 84  1  0
 84 87  1  1
 84 85  1  0
 86 84  1  0
 88 91  1  0
 89 93  1  0
 89 88  1  0
 90 89  2  0
 93 92  1  0
 95 93  1  0
 95 96  1  0
 95 94  1  0
M  ISO  4   1 100  15 100  51 101  56 101
M  END
>  <TORSDO>  (25) 
F 19

>  <SCORE>  (25) 
-15.088

>  <name>  (25) 
24

>  <ligand_id>  (25) 
24

>  <original_smiles>  (25) 
[H]N=C(C([H])([H])[H])C([H])(Oc1c([H])c([H])c2c(c1[H])C([H])([H])N(C(=O)C([H])(N([H])C(=O)C([H])(N([H])C([H])([H])[H])C([H])([H])[H])C(C([H])([H])[H])(C([H])([H])[H])C([H])([H])[H])C([H])(C(=O)N([H])C1([H])c3c([H])c([H])c([H])c([H])c3C([H])([H])C([H])([H])C1([H])[H])C2([H])[H])C([H])([H])N([H])c1nnc(N([H])C(=O)N2C([H])([H])C([H])([H])C([H])([H])C([H])(n3nc(-c4c([H])c([H])c(Oc5c([H])c([H])c(F)c([H])c5F)c([H])c4[H])c(C(=O)N([H])[H])c3N([H])[H])C2([H])[H])c(N([H])[H])c1[H]

>  <smiles>  (25) 
[H]N=C(C([H])([H])[H])C([H])(Oc1c([H])c([H])c2c(c1[H])C([H])([H])N(C(=O)C([H])(N([H])C(=O)C([H])(N([H])C([H])([H])[H])C([H])([H])[H])C(C([H])([H])[H])(C([H])([H])[H])C([H])([H])[H])C([H])(C(=O)N([H])C1([H])c3c([H])c([H])c([H])c([H])c3C([H])([H])C([H])([H])C1([H])[H])C2([H])[H])C([H])([H])N([H])c1nnc(N([H])C(=O)N2C([H])([H])C([H])([H])C([H])([H])C([H])(n3nc(-c4c([H])c([H])c(Oc5c([H])c([H])c(F)c([H])c5F)c([H])c4[H])c(C(=O)N([H])[H])c3N([H])[H])C2([H])[H])c(N([H])[H])c1[H]

$$$$
25:0:0
     RDKit          3D

 93101  0  0  1  0  0  0  0  0999 V2000
  -28.2850  -23.6430   19.9950 C   0  0  0  0  0  0  0  0  0  0  0  0
  -28.8780  -22.4190   20.3710 N   0  0  0  0  0  0  0  0  0  0  0  0
  -27.5710  -23.6940   18.9940 O   0  0  0  0  0  0  0  0  0  0  0  0
  -29.4470  -22.4680   21.2040 H   0  0  0  0  0  0  0  0  0  0  0  0
  -27.3680  -24.9760   21.9890 C   0  0  0  0  0  1  0  0  0  0  0  0
  -29.8180  -25.0770   21.4740 C   0  0  0  0  0  1  0  0  0  0  0  0
  -28.4110  -25.0250   20.8530 C   0  0  1  0  0  0  0  0  0  0  0  0
  -28.3280  -26.3760   20.1400 O   0  0  0  0  0  0  0  0  0  0  0  0
  -24.6180  -31.8800   23.2420 C   0  0  0  0  0  0  0  0  0  0  0  0
  -27.2140  -27.2600   20.1860 C   0  0  0  0  0  0  0  0  0  0  0  0
  -23.4140  -30.4870   21.5980 C   0  0  0  0  0  3  0  0  0  0  0  0
  -24.8630  -28.9250   20.1700 C   0  0  0  0  0  0  0  0  0  0  0  0
  -25.9590  -30.7860   21.4170 C   0  0  0  0  0  2  0  0  0  0  0  0
  -26.0370  -29.4000   20.7690 C   0  0  0  0  0  0  0  0  0  0  0  0
  -27.2180  -28.5830   20.7590 C   0  0  0  0  0  3  0  0  0  0  0  0
  -26.0180  -26.8560   19.5620 C   0  0  0  0  0  3  0  0  0  0  0  0
  -24.8600  -27.6620   19.5540 C   0  0  0  0  0  3  0  0  0  0  0  0
  -23.6300  -29.8110   20.2170 C   0  0  0  0  0  2  0  0  0  0  0  0
  -24.6830  -31.0710   22.1410 N   0  0  0  0  0  0  0  0  0  0  0  0
  -23.5350  -32.1570   23.7770 O   0  0  0  0  0  0  0  0  0  0  0  0
  -22.7470  -29.4720   22.5580 C   0  0  0  0  0  0  0  0  0  0  0  0
  -21.4200  -29.2950   22.4310 N   0  0  0  0  0  0  0  0  0  0  0  0
  -23.4240  -28.8470   23.3780 O   0  0  0  0  0  0  0  0  0  0  0  0
  -20.9320  -29.8510   21.7440 H   0  0  0  0  0  0  0  0  0  0  0  0
  -18.0470  -28.0810   22.9260 C   0  0  0  0  0  0  0  0  0  0  0  0
  -20.6030  -28.3540   23.2000 C   0  0  0  0  0  3  0  0  0  0  0  0
  -20.7120  -26.9230   22.6240 C   0  0  0  0  0  2  0  0  0  0  0  0
  -19.6140  -26.5960   21.6060 C   0  0  0  0  0  2  0  0  0  0  0  0
  -18.2310  -26.7330   22.2480 C   0  0  0  0  0  2  0  0  0  0  0  0
  -19.1600  -28.8490   23.3580 C   0  0  0  0  0  0  0  0  0  0  0  0
  -18.9330  -30.1090   23.9520 C   0  0  0  0  0  3  0  0  0  0  0  0
  -17.6260  -30.6030   24.1170 C   0  0  0  0  0  3  0  0  0  0  0  0
  -16.5260  -29.8330   23.6990 C   0  0  0  0  0  3  0  0  0  0  0  0
  -16.7370  -28.5740   23.1100 C   0  0  0  0  0  3  0  0  0  0  0  0
  -25.8990  -32.5130   23.8660 C   0  0  0  0  0  3  0  0  0  0  0  0
  -26.4010  -31.7530   25.1550 C   0  0  1  0  0  0  0  0  0  0  0  0
  -25.2980  -31.5340   26.2180 C   0  0  0  0  0  1  0  0  0  0  0  0
  -26.9790  -30.3670   24.7860 C   0  0  0  0  0  1  0  0  0  0  0  0
  -27.5510  -32.5480   25.8180 C   0  0  0  0  0  1  0  0  0  0  0  0
  -25.5950  -33.9160   24.1820 N   0  0  0  0  0  0  0  0  0  0  0  0
  -25.9430  -34.9620   23.4210 C   0  0  0  0  0  0  0  0  0  0  0  0
  -26.6220  -34.8470   22.3960 O   0  0  0  0  0  0  0  0  0  0  0  0
  -24.9940  -34.0810   24.9770 H   0  0  0  0  0  0  0  0  0  0  0  0
  -24.2400  -36.7740   23.0350 C   0  0  0  0  0  1  0  0  0  0  0  0
  -25.4640  -36.3590   23.8660 C   0  0  0  0  0  3  0  0  0  0  0  0
  -27.5940  -37.2280   24.7270 C   0  0  0  0  0  1  0  0  0  0  0  0
  -26.5100  -37.4010   23.7640 N   0  0  0  0  0  0  0  0  0  0  0  0
  -26.1100  -38.3260   23.8980 H   0  0  0  0  0  0  0  0  0  0  0  0
  -28.9640  -20.9890   18.2800 C   0  0  0  0  0  1  0  0  0  0  0  0
  -28.7070  -20.9810   19.7990 C   0  0  0  0  0  3  0  0  0  0  0  0
  -30.6880  -19.4850   20.9930 C   0  0  0  0  0  3  0  0  0  0  0  0
  -30.9570  -18.0650   21.0920 C   0  0  0  0  0  3  0  0  0  0  0  0
  -29.4770  -19.6950   20.3730 C   0  0  0  0  0  0  0  0  0  0  0  0
  -29.9000  -17.3910   20.5380 C   0  0  0  0  0  0  0  0  0  0  0  0
  -28.9800  -18.3840   20.1100 O   0  0  0  0  0  0  0  0  0  0  0  0
  -30.5360  -14.8710   20.3900 C   0  0  0  0  0  0  0  0  0  0  0  0
  -30.4160  -12.5670   19.3870 C   0  0  0  0  0  2  0  0  0  0  0  0
  -29.4830  -12.5900   18.1550 C   0  0  0  0  0  2  0  0  0  0  0  0
  -28.0130  -12.3920   18.5730 C   0  0  0  0  0  2  0  0  0  0  0  0
  -27.6100  -13.2860   19.7760 C   0  0  0  0  0  3  0  0  0  0  0  0
  -28.6610  -13.2300   20.9060 C   0  0  0  0  0  2  0  0  0  0  0  0
  -29.9470  -13.6220   20.3180 N   0  0  0  0  0  0  0  0  0  0  0  0
  -31.7410  -14.9780   20.1320 O   0  0  0  0  0  0  0  0  0  0  0  0
  -29.6950  -15.9880   20.4960 N   0  0  0  0  0  0  0  0  0  0  0  0
  -28.7230  -15.7250   20.5080 H   0  0  0  0  0  0  0  0  0  0  0  0
  -25.2120  -13.8570   20.4780 C   0  0  0  0  0  0  0  0  0  0  0  0
  -24.1510  -13.0750   20.8420 C   0  0  0  0  0  0  0  0  0  0  0  0
  -24.6280  -11.7280   20.8280 C   0  0  0  0  0  0  0  0  0  0  0  0
  -26.2670  -12.9860   20.2580 N   0  0  0  0  0  0  0  0  0  0  0  0
  -25.9230  -11.7020   20.5340 N   0  0  0  0  0  0  0  0  0  0  0  0
  -23.9120  -10.4600   21.0180 C   0  0  0  0  0  0  0  0  0  0  0  0
  -24.3410   -9.5040   21.9650 C   0  0  0  0  0  3  0  0  0  0  0  0
  -23.6230   -8.3010   22.1430 C   0  0  0  0  0  3  0  0  0  0  0  0
  -22.4640   -8.0470   21.3740 C   0  0  0  0  0  0  0  0  0  0  0  0
  -22.0540   -8.9910   20.4170 C   0  0  0  0  0  3  0  0  0  0  0  0
  -22.7720  -10.1850   20.2370 C   0  0  0  0  0  3  0  0  0  0  0  0
  -21.7180   -6.8950   21.4600 O   0  0  0  0  0  0  0  0  0  0  0  0
  -21.6600   -6.1620   22.6180 C   0  0  0  0  0  0  0  0  0  0  0  0
  -21.1970   -6.7180   23.8300 C   0  0  0  0  0  3  0  0  0  0  0  0
  -21.0880   -5.9090   24.9800 C   0  0  0  0  0  3  0  0  0  0  0  0
  -21.4300   -4.5460   24.9170 C   0  0  0  0  0  0  0  0  0  0  0  0
  -21.8870   -3.9890   23.7090 C   0  0  0  0  0  3  0  0  0  0  0  0
  -21.9980   -4.7950   22.5620 C   0  0  0  0  0  0  0  0  0  0  0  0
  -22.4170   -4.2480   21.3960 F   0  0  0  0  0  0  0  0  0  0  0  0
  -21.3190   -3.7660   26.0180 F   0  0  0  0  0  0  0  0  0  0  0  0
  -22.7450  -13.5390   21.0910 C   0  0  0  0  0  0  0  0  0  0  0  0
  -22.0100  -12.8420   21.9490 N   0  0  0  0  0  0  0  0  0  0  0  0
  -22.3070  -14.5590   20.5590 O   0  0  0  0  0  0  0  0  0  0  0  0
  -22.3780  -12.0170   22.4010 H   0  0  0  0  0  0  0  0  0  0  0  0
  -21.0670  -13.1350   22.1570 H   0  0  0  0  0  0  0  0  0  0  0  0
  -25.3610  -15.2280   20.2890 N   0  0  0  0  0  0  0  0  0  0  0  0
  -24.5770  -15.8650   20.3790 H   0  0  0  0  0  0  0  0  0  0  0  0
  -26.1890  -15.6760   19.9190 H   0  0  0  0  0  0  0  0  0  0  0  0
  1  2  1  0
  1  7  1  0
  2  4  1  0
  3  1  2  0
  7  6  1  1
  7  5  1  0
  8 10  1  0
  8  7  1  0
  9 20  2  0
 10 15  1  0
 11 19  1  0
 11 21  1  0
 12 18  1  0
 12 14  1  0
 13 19  1  0
 14 13  1  0
 15 14  2  0
 16 10  2  0
 17 16  1  0
 17 12  2  0
 18 11  1  0
 19  9  1  0
 21 23  2  0
 22 21  1  0
 24 22  1  0
 25 34  2  0
 25 30  1  0
 26 22  1  0
 26 30  1  0
 27 26  1  0
 28 29  1  0
 28 27  1  0
 29 25  1  0
 30 31  2  0
 31 32  1  0
 33 32  2  0
 34 33  1  0
 35  9  1  0
 35 40  1  0
 35 36  1  0
 36 39  1  1
 36 37  1  0
 38 36  1  0
 40 43  1  0
 41 45  1  0
 41 40  1  0
 42 41  2  0
 45 44  1  0
 47 45  1  0
 47 48  1  0
 47 46  1  0
 50 49  1  0
 50  2  1  0
 50 53  1  0
 51 52  1  0
 53 51  2  0
 54 52  2  0
 55 53  1  0
 55 54  1  0
 56 64  1  0
 57 62  1  0
 58 59  1  0
 58 57  1  0
 60 59  1  0
 60 69  1  0
 60 61  1  0
 62 56  1  0
 62 61  1  0
 63 56  2  0
 64 65  1  0
 64 54  1  0
 66 67  2  0
 67 86  1  0
 68 67  1  0
 68 71  1  0
 69 66  1  0
 69 70  1  0
 70 68  2  0
 71 72  1  0
 72 73  2  0
 74 77  1  0
 74 73  1  0
 75 74  2  0
 76 75  1  0
 76 71  2  0
 77 78  1  0
 78 79  1  0
 79 80  2  0
 81 80  1  0
 81 85  1  0
 82 81  2  0
 83 78  2  0
 83 82  1  0
 84 83  1  0
 86 87  1  0
 87 90  1  0
 87 89  1  0
 88 86  2  0
 91 92  1  0
 91 66  1  0
 93 91  1  0
M  ISO  4   7 101   8 101  56 100  64 100
M  END
>  <TORSDO>  (26) 
F 19

>  <SCORE>  (26) 
-14.449

>  <name>  (26) 
25

>  <ligand_id>  (26) 
25

>  <original_smiles>  (26) 
[H]c1c(N([H])C(=O)N2C([H])([H])C([H])([H])C([H])([H])C([H])(n3nc(-c4c([H])c([H])c(Oc5c([H])c([H])c(F)c([H])c5F)c([H])c4[H])c(C(=O)N([H])[H])c3N([H])[H])C2([H])[H])oc(C([H])(N([H])C(=O)C(Oc2c([H])c([H])c3c(c2[H])C([H])([H])N(C(=O)C([H])(N([H])C(=O)C([H])(N([H])C([H])([H])[H])C([H])([H])[H])C(C([H])([H])[H])(C([H])([H])[H])C([H])([H])[H])C([H])(C(=O)N([H])C2([H])c4c([H])c([H])c([H])c([H])c4C([H])([H])C([H])([H])C2([H])[H])C3([H])[H])(C([H])([H])[H])C([H])([H])[H])C([H])([H])[H])c1[H]

>  <smiles>  (26) 
[H]c1c(N([H])C(=O)N2C([H])([H])C([H])([H])C([H])([H])C([H])(n3nc(-c4c([H])c([H])c(Oc5c([H])c([H])c(F)c([H])c5F)c([H])c4[H])c(C(=O)N([H])[H])c3N([H])[H])C2([H])[H])oc(C([H])(N([H])C(=O)C(Oc2c([H])c([H])c3c(c2[H])C([H])([H])N(C(=O)C([H])(N([H])C(=O)C([H])(N([H])C([H])([H])[H])C([H])([H])[H])C(C([H])([H])[H])(C([H])([H])[H])C([H])([H])[H])C([H])(C(=O)N([H])C2([H])c4c([H])c([H])c([H])c([H])c4C([H])([H])C([H])([H])C2([H])[H])C3([H])[H])(C([H])([H])[H])C([H])([H])[H])C([H])([H])[H])c1[H]

$$$$
26:0:0
     RDKit          3D

100108  0  0  1  0  0  0  0  0999 V2000
  -30.9850  -20.2730   20.4240 C   0  0  0  0  0  3  0  0  0  0  0  0
  -31.4620  -17.8630   20.5740 C   0  0  0  0  0  3  0  0  0  0  0  0
  -29.1760  -18.6420   20.3070 C   0  0  0  0  0  3  0  0  0  0  0  0
  -31.8910  -19.2040   20.5620 C   0  0  0  0  0  0  0  0  0  0  0  0
  -29.5970  -20.0570   20.2890 C   0  0  0  0  0  0  0  0  0  0  0  0
  -30.1030  -17.4960   20.4300 C   0  0  0  0  0  0  0  0  0  0  0  0
  -30.5360  -14.8550   20.3220 C   0  0  0  0  0  0  0  0  0  0  0  0
  -30.3690  -12.5570   19.3370 C   0  0  0  0  0  2  0  0  0  0  0  0
  -29.4260  -12.5980   18.1160 C   0  0  0  0  0  2  0  0  0  0  0  0
  -27.9610  -12.4130   18.5540 C   0  0  0  0  0  2  0  0  0  0  0  0
  -27.5870  -13.2920   19.7790 C   0  0  0  0  0  3  0  0  0  0  0  0
  -28.6550  -13.2290   20.8910 C   0  0  0  0  0  2  0  0  0  0  0  0
  -29.9250  -13.6190   20.2730 N   0  0  0  0  0  0  0  0  0  0  0  0
  -31.7350  -14.9090   20.0290 O   0  0  0  0  0  0  0  0  0  0  0  0
  -29.7530  -16.0230   20.4660 N   0  0  0  0  0  0  0  0  0  0  0  0
  -28.7720  -15.8310   20.5930 H   0  0  0  0  0  0  0  0  0  0  0  0
  -25.2120  -13.8590   20.5430 C   0  0  0  0  0  0  0  0  0  0  0  0
  -24.1560  -13.0780   20.9210 C   0  0  0  0  0  0  0  0  0  0  0  0
  -24.6270  -11.7290   20.8750 C   0  0  0  0  0  0  0  0  0  0  0  0
  -26.2550  -12.9870   20.2880 N   0  0  0  0  0  0  0  0  0  0  0  0
  -25.9140  -11.7000   20.5550 N   0  0  0  0  0  0  0  0  0  0  0  0
  -23.9080  -10.4620   21.0610 C   0  0  0  0  0  0  0  0  0  0  0  0
  -24.3560   -9.4890   21.9830 C   0  0  0  0  0  3  0  0  0  0  0  0
  -23.6380   -8.2860   22.1560 C   0  0  0  0  0  3  0  0  0  0  0  0
  -22.4590   -8.0490   21.4100 C   0  0  0  0  0  0  0  0  0  0  0  0
  -22.0320   -9.0100   20.4780 C   0  0  0  0  0  3  0  0  0  0  0  0
  -22.7500  -10.2040   20.3020 C   0  0  0  0  0  3  0  0  0  0  0  0
  -21.7090   -6.9000   21.4980 O   0  0  0  0  0  0  0  0  0  0  0  0
  -21.6750   -6.1490   22.6440 C   0  0  0  0  0  0  0  0  0  0  0  0
  -21.2490   -6.6880   23.8780 C   0  0  0  0  0  3  0  0  0  0  0  0
  -21.1630   -5.8610   25.0160 C   0  0  0  0  0  3  0  0  0  0  0  0
  -21.4920   -4.4960   24.9220 C   0  0  0  0  0  0  0  0  0  0  0  0
  -21.9090   -3.9560   23.6920 C   0  0  0  0  0  3  0  0  0  0  0  0
  -21.9980   -4.7800   22.5570 C   0  0  0  0  0  0  0  0  0  0  0  0
  -22.3810   -4.2490   21.3700 F   0  0  0  0  0  0  0  0  0  0  0  0
  -21.4010   -3.6990   26.0120 F   0  0  0  0  0  0  0  0  0  0  0  0
  -22.7590  -13.5450   21.2020 C   0  0  0  0  0  0  0  0  0  0  0  0
  -22.0400  -12.8370   22.0650 N   0  0  0  0  0  0  0  0  0  0  0  0
  -22.3140  -14.5740   20.6950 O   0  0  0  0  0  0  0  0  0  0  0  0
  -22.4140  -12.0030   22.4950 H   0  0  0  0  0  0  0  0  0  0  0  0
  -21.1020  -13.1290   22.2980 H   0  0  0  0  0  0  0  0  0  0  0  0
  -25.3670  -15.2330   20.3710 N   0  0  0  0  0  0  0  0  0  0  0  0
  -24.5850  -15.8730   20.4610 H   0  0  0  0  0  0  0  0  0  0  0  0
  -26.1870  -15.6680   19.9660 H   0  0  0  0  0  0  0  0  0  0  0  0
  -33.3110  -19.4950   20.6750 C   0  0  0  0  0  0  0  0  0  0  0  0
  -33.7590  -20.2930   21.6360 N   0  0  0  0  0  0  0  0  0  0  0  0
  -34.1590  -18.9720   19.7900 N   0  0  0  0  0  4  0  0  0  0  0  0
  -33.1390  -20.5210   22.4040 H   0  0  0  0  0  0  0  0  0  0  0  0
  -34.7240  -20.5680   21.7210 H   0  0  0  0  0  0  0  0  0  0  0  0
  -33.7890  -18.3670   19.0710 H   0  0  0  0  0  0  0  0  0  0  0  0
  -35.1190  -19.2710   19.7040 H   0  0  0  0  0  0  0  0  0  0  0  0
  -28.9900  -22.5420   19.6790 C   0  0  0  0  0  0  0  0  0  0  0  0
  -28.7540  -21.3050   20.2920 N   0  0  0  0  0  0  0  0  0  0  0  0
  -29.5980  -22.5570   18.6040 O   0  0  0  0  0  0  0  0  0  0  0  0
  -27.9440  -21.2730   20.8940 H   0  0  0  0  0  0  0  0  0  0  0  0
  -28.4290  -25.0780   19.7190 C   0  0  0  0  0  3  0  0  0  0  0  0
  -28.5420  -23.8370   20.3550 C   0  0  0  0  0  0  0  0  0  0  0  0
  -28.3260  -23.7830   21.6780 O   0  0  0  0  0  0  0  0  0  0  0  0
  -28.5440  -22.9030   21.9570 H   0  0  0  0  0  0  0  0  0  0  0  0
  -28.3000  -26.3830   20.3100 O   0  0  0  0  0  0  0  0  0  0  0  0
  -24.5970  -31.8880   23.2510 C   0  0  0  0  0  0  0  0  0  0  0  0
  -27.2050  -27.2760   20.1860 C   0  0  0  0  0  0  0  0  0  0  0  0
  -23.3940  -30.4900   21.6080 C   0  0  0  0  0  3  0  0  0  0  0  0
  -24.8450  -28.9260   20.1820 C   0  0  0  0  0  0  0  0  0  0  0  0
  -25.9380  -30.7940   21.4310 C   0  0  0  0  0  2  0  0  0  0  0  0
  -26.0180  -29.4110   20.7760 C   0  0  0  0  0  0  0  0  0  0  0  0
  -27.1980  -28.5990   20.7630 C   0  0  0  0  0  3  0  0  0  0  0  0
  -26.0100  -26.8620   19.5630 C   0  0  0  0  0  3  0  0  0  0  0  0
  -24.8490  -27.6630   19.5640 C   0  0  0  0  0  3  0  0  0  0  0  0
  -23.6110  -29.8060   20.2310 C   0  0  0  0  0  2  0  0  0  0  0  0
  -24.6610  -31.0780   22.1510 N   0  0  0  0  0  0  0  0  0  0  0  0
  -23.5130  -32.1640   23.7850 O   0  0  0  0  0  0  0  0  0  0  0  0
  -22.7230  -29.4820   22.5730 C   0  0  0  0  0  0  0  0  0  0  0  0
  -21.3970  -29.3020   22.4400 N   0  0  0  0  0  0  0  0  0  0  0  0
  -23.3960  -28.8580   23.3980 O   0  0  0  0  0  0  0  0  0  0  0  0
  -20.9120  -29.8570   21.7490 H   0  0  0  0  0  0  0  0  0  0  0  0
  -18.0150  -28.0980   22.9210 C   0  0  0  0  0  0  0  0  0  0  0  0
  -20.5710  -28.3680   23.2070 C   0  0  0  0  0  3  0  0  0  0  0  0
  -20.6800  -26.9350   22.6350 C   0  0  0  0  0  2  0  0  0  0  0  0
  -19.5830  -26.6060   21.6150 C   0  0  0  0  0  2  0  0  0  0  0  0
  -18.2000  -26.7480   22.2490 C   0  0  0  0  0  2  0  0  0  0  0  0
  -19.1280  -28.8660   23.3550 C   0  0  0  0  0  0  0  0  0  0  0  0
  -18.9000  -30.1310   23.9400 C   0  0  0  0  0  3  0  0  0  0  0  0
  -17.5910  -30.6250   24.0980 C   0  0  0  0  0  3  0  0  0  0  0  0
  -16.4930  -29.8540   23.6770 C   0  0  0  0  0  3  0  0  0  0  0  0
  -16.7060  -28.5920   23.0940 C   0  0  0  0  0  3  0  0  0  0  0  0
  -25.8770  -32.5200   23.8820 C   0  0  0  0  0  3  0  0  0  0  0  0
  -26.3780  -31.7550   25.1690 C   0  0  1  0  0  0  0  0  0  0  0  0
  -25.2760  -31.5370   26.2310 C   0  0  0  0  0  1  0  0  0  0  0  0
  -26.9540  -30.3690   24.7940 C   0  0  0  0  0  1  0  0  0  0  0  0
  -27.5320  -32.5450   25.8300 C   0  0  0  0  0  1  0  0  0  0  0  0
  -25.5700  -33.9210   24.2040 N   0  0  0  0  0  0  0  0  0  0  0  0
  -25.9000  -34.9690   23.4370 C   0  0  0  0  0  0  0  0  0  0  0  0
  -26.5650  -34.8590   22.4050 O   0  0  0  0  0  0  0  0  0  0  0  0
  -24.9860  -34.0790   25.0110 H   0  0  0  0  0  0  0  0  0  0  0  0
  -24.1720  -36.7620   23.0920 C   0  0  0  0  0  1  0  0  0  0  0  0
  -25.4220  -36.3620   23.8940 C   0  0  0  0  0  3  0  0  0  0  0  0
  -27.5650  -37.2490   24.7010 C   0  0  0  0  0  1  0  0  0  0  0  0
  -26.4550  -37.4140   23.7670 N   0  0  0  0  0  0  0  0  0  0  0  0
  -26.0490  -38.3350   23.9060 H   0  0  0  0  0  0  0  0  0  0  0  0
  1  4  1  0
  3  6  2  0
  4  2  2  0
  4 45  1  0
  5 53  1  0
  5  3  1  0
  5  1  2  0
  6 15  1  0
  6  2  1  0
  7 15  1  0
  8 13  1  0
  9 10  1  0
  9  8  1  0
 11 10  1  0
 11 20  1  0
 11 12  1  0
 13  7  1  0
 13 12  1  0
 14  7  2  0
 15 16  1  0
 17 18  2  0
 18 37  1  0
 19 18  1  0
 19 22  1  0
 20 17  1  0
 20 21  1  0
 21 19  2  0
 22 23  1  0
 23 24  2  0
 25 28  1  0
 25 24  1  0
 26 25  2  0
 27 26  1  0
 27 22  2  0
 28 29  1  0
 29 30  1  0
 30 31  2  0
 32 31  1  0
 32 36  1  0
 33 32  2  0
 34 29  2  0
 34 33  1  0
 35 34  1  0
 37 38  1  0
 38 41  1  0
 38 40  1  0
 39 37  2  0
 42 43  1  0
 42 17  1  0
 44 42  1  0
 45 46  1  0
 46 49  1  0
 46 48  1  0
 47 45  2  0
 50 47  1  0
 51 47  1  0
 52 53  1  0
 52 57  1  0
 53 55  1  0
 54 52  2  0
 56 60  1  0
 56 57  2  0
 57 58  1  0
 58 59  1  0
 61 72  2  0
 62 60  1  0
 62 67  1  0
 63 71  1  0
 63 73  1  0
 64 70  1  0
 64 66  1  0
 65 71  1  0
 66 65  1  0
 67 66  2  0
 68 69  1  0
 68 62  2  0
 69 64  2  0
 70 63  1  0
 71 61  1  0
 73 75  2  0
 74 73  1  0
 76 74  1  0
 77 86  2  0
 77 82  1  0
 78 74  1  0
 78 82  1  0
 79 78  1  0
 80 81  1  0
 80 79  1  0
 81 77  1  0
 82 83  2  0
 83 84  1  0
 85 84  2  0
 86 85  1  0
 87 61  1  0
 87 92  1  0
 87 88  1  0
 88 91  1  1
 88 89  1  0
 90 88  1  0
 92 95  1  0
 93 97  1  0
 93 92  1  0
 94 93  2  0
 97 96  1  0
 99 97  1  0
 99100  1  0
 99 98  1  0
M  ISO  4   7 100  15 100  56 101  60 101
M  END
>  <TORSDO>  (27) 
F 20

>  <SCORE>  (27) 
-14.444

>  <name>  (27) 
26

>  <ligand_id>  (27) 
26

>  <original_smiles>  (27) 
[H]OC(C(=O)N([H])c1c([H])c(C(N([H])[H])=[N+]([H])[H])c([H])c(N([H])C(=O)N2C([H])([H])C([H])([H])C([H])([H])C([H])(n3nc(-c4c([H])c([H])c(Oc5c([H])c([H])c(F)c([H])c5F)c([H])c4[H])c(C(=O)N([H])[H])c3N([H])[H])C2([H])[H])c1[H])=C([H])Oc1c([H])c([H])c2c(c1[H])C([H])([H])N(C(=O)C([H])(N([H])C(=O)C([H])(N([H])C([H])([H])[H])C([H])([H])[H])C(C([H])([H])[H])(C([H])([H])[H])C([H])([H])[H])C([H])(C(=O)N([H])C1([H])c3c([H])c([H])c([H])c([H])c3C([H])([H])C([H])([H])C1([H])[H])C2([H])[H]

>  <smiles>  (27) 
[H]OC(C(=O)N([H])c1c([H])c(C(N([H])[H])=[N+]([H])[H])c([H])c(N([H])C(=O)N2C([H])([H])C([H])([H])C([H])([H])C([H])(n3nc(-c4c([H])c([H])c(Oc5c([H])c([H])c(F)c([H])c5F)c([H])c4[H])c(C(=O)N([H])[H])c3N([H])[H])C2([H])[H])c1[H])=C([H])Oc1c([H])c([H])c2c(c1[H])C([H])([H])N(C(=O)C([H])(N([H])C(=O)C([H])(N([H])C([H])([H])[H])C([H])([H])[H])C(C([H])([H])[H])(C([H])([H])[H])C([H])([H])[H])C([H])(C(=O)N([H])C1([H])c3c([H])c([H])c([H])c([H])c3C([H])([H])C([H])([H])C1([H])[H])C2([H])[H]

$$$$
27:0:0
     RDKit          3D

 97106  0  0  1  0  0  0  0  0999 V2000
  -26.7500  -23.3740   21.9440 C   0  0  0  0  0  0  0  0  0  0  0  0
  -28.8160  -23.6060   19.9680 C   0  0  0  0  0  0  0  0  0  0  0  0
  -26.9080  -24.7820   21.3590 C   0  0  0  0  0  2  0  0  0  0  0  0
  -27.9850  -22.4600   21.9550 C   0  0  0  0  0  2  0  0  0  0  0  0
  -28.2580  -25.0480   20.6290 C   0  0  1  0  0  0  0  0  0  0  0  0
  -29.3280  -25.4920   21.6540 C   0  0  0  0  0  1  0  0  0  0  0  0
  -28.6550  -22.3480   20.6380 N   0  0  0  0  0  0  0  0  0  0  0  0
  -25.6680  -22.9930   22.4000 O   0  0  0  0  0  0  0  0  0  0  0  0
  -29.3770  -23.6580   18.8710 O   0  0  0  0  0  0  0  0  0  0  0  0
  -28.0840  -19.8260   20.4030 C   0  0  0  0  0  3  0  0  0  0  0  0
  -28.3730  -18.4110   20.3520 C   0  0  0  0  0  3  0  0  0  0  0  0
  -30.6570  -18.8750   20.0380 C   0  0  0  0  0  3  0  0  0  0  0  0
  -29.0500  -20.8840   20.3070 C   0  0  0  0  0  0  0  0  0  0  0  0
  -29.6710  -17.8280   20.1840 C   0  0  0  0  0  0  0  0  0  0  0  0
  -30.3680  -20.3200   20.1000 C   0  0  0  0  0  0  0  0  0  0  0  0
  -30.6850  -15.2280   19.9260 C   0  0  0  0  0  0  0  0  0  0  0  0
  -30.6090  -12.8810   18.9570 C   0  0  0  0  0  2  0  0  0  0  0  0
  -29.5990  -12.8350   17.7870 C   0  0  0  0  0  2  0  0  0  0  0  0
  -28.1640  -12.5970   18.2990 C   0  0  0  0  0  2  0  0  0  0  0  0
  -27.8150  -13.4960   19.5140 C   0  0  0  0  0  3  0  0  0  0  0  0
  -28.9360  -13.4810   20.5760 C   0  0  0  0  0  2  0  0  0  0  0  0
  -30.1660  -13.9350   19.9100 N   0  0  0  0  0  0  0  0  0  0  0  0
  -31.8480  -15.3910   19.5390 O   0  0  0  0  0  0  0  0  0  0  0  0
  -29.7910  -16.2920   20.2150 N   0  0  0  0  0  0  0  0  0  0  0  0
  -28.9160  -15.8740   20.4880 H   0  0  0  0  0  0  0  0  0  0  0  0
  -25.4810  -14.0360   20.4220 C   0  0  0  0  0  0  0  0  0  0  0  0
  -24.4470  -13.2420   20.8370 C   0  0  0  0  0  0  0  0  0  0  0  0
  -24.9140  -11.8960   20.7250 C   0  0  0  0  0  0  0  0  0  0  0  0
  -26.5100  -13.1740   20.0830 N   0  0  0  0  0  0  0  0  0  0  0  0
  -26.1820  -11.8790   20.3290 N   0  0  0  0  0  0  0  0  0  0  0  0
  -24.2070  -10.6230   20.9150 C   0  0  0  0  0  0  0  0  0  0  0  0
  -24.6460   -9.6690   21.8600 C   0  0  0  0  0  3  0  0  0  0  0  0
  -23.9380   -8.4610   22.0380 C   0  0  0  0  0  3  0  0  0  0  0  0
  -22.7760   -8.1980   21.2730 C   0  0  0  0  0  0  0  0  0  0  0  0
  -22.3580   -9.1410   20.3160 C   0  0  0  0  0  3  0  0  0  0  0  0
  -23.0660  -10.3410   20.1370 C   0  0  0  0  0  3  0  0  0  0  0  0
  -22.0410   -7.0410   21.3590 O   0  0  0  0  0  0  0  0  0  0  0  0
  -21.9140   -6.3560   22.5410 C   0  0  0  0  0  0  0  0  0  0  0  0
  -21.3540   -6.9540   23.6920 C   0  0  0  0  0  3  0  0  0  0  0  0
  -21.1790   -6.1930   24.8660 C   0  0  0  0  0  3  0  0  0  0  0  0
  -21.5520   -4.8350   24.8880 C   0  0  0  0  0  0  0  0  0  0  0  0
  -22.1030   -4.2380   23.7400 C   0  0  0  0  0  3  0  0  0  0  0  0
  -22.2800   -4.9960   22.5710 C   0  0  0  0  0  0  0  0  0  0  0  0
  -22.7930   -4.4100   21.4610 F   0  0  0  0  0  0  0  0  0  0  0  0
  -21.3760   -4.1010   26.0110 F   0  0  0  0  0  0  0  0  0  0  0  0
  -23.0670  -13.7000   21.2120 C   0  0  0  0  0  0  0  0  0  0  0  0
  -22.4000  -12.9680   22.0970 N   0  0  0  0  0  0  0  0  0  0  0  0
  -22.5940  -14.7390   20.7570 O   0  0  0  0  0  0  0  0  0  0  0  0
  -22.7990  -12.1270   22.4870 H   0  0  0  0  0  0  0  0  0  0  0  0
  -21.4770  -13.2540   22.3900 H   0  0  0  0  0  0  0  0  0  0  0  0
  -25.6220  -15.4140   20.2780 N   0  0  0  0  0  0  0  0  0  0  0  0
  -24.8420  -16.0410   20.4380 H   0  0  0  0  0  0  0  0  0  0  0  0
  -26.3920  -15.8560   19.7940 H   0  0  0  0  0  0  0  0  0  0  0  0
  -31.4400  -21.2050   20.0120 N   0  0  0  0  0  0  0  0  0  0  0  0
  -32.2990  -20.8610   19.5950 H   0  0  0  0  0  0  0  0  0  0  0  0
  -31.2280  -22.1550   19.7230 H   0  0  0  0  0  0  0  0  0  0  0  0
  -28.2200  -26.3940   19.8300 O   0  0  0  0  0  0  0  0  0  0  0  0
  -24.6060  -31.9660   23.1120 C   0  0  0  0  0  0  0  0  0  0  0  0
  -27.1570  -27.3660   19.9120 C   0  0  0  0  0  0  0  0  0  0  0  0
  -23.3840  -30.6100   21.4550 C   0  0  0  0  0  3  0  0  0  0  0  0
  -24.8180  -29.0880   19.9610 C   0  0  0  0  0  0  0  0  0  0  0  0
  -25.9300  -30.9040   21.2470 C   0  0  0  0  0  2  0  0  0  0  0  0
  -26.0040  -29.5280   20.5630 C   0  0  0  0  0  0  0  0  0  0  0  0
  -27.1770  -28.6820   20.5250 C   0  0  0  0  0  3  0  0  0  0  0  0
  -25.9530  -27.0370   19.2570 C   0  0  0  0  0  3  0  0  0  0  0  0
  -24.8040  -27.8550   19.2910 C   0  0  0  0  0  3  0  0  0  0  0  0
  -23.5860  -29.9740   20.0530 C   0  0  0  0  0  2  0  0  0  0  0  0
  -24.6610  -31.1810   21.9920 N   0  0  0  0  0  0  0  0  0  0  0  0
  -23.5310  -32.2220   23.6720 O   0  0  0  0  0  0  0  0  0  0  0  0
  -22.7340  -29.5670   22.4010 C   0  0  0  0  0  0  0  0  0  0  0  0
  -21.4060  -29.3880   22.2960 N   0  0  0  0  0  0  0  0  0  0  0  0
  -23.4290  -28.9240   23.1910 O   0  0  0  0  0  0  0  0  0  0  0  0
  -20.9010  -29.9620   21.6360 H   0  0  0  0  0  0  0  0  0  0  0  0
  -18.0420  -28.1700   22.8590 C   0  0  0  0  0  0  0  0  0  0  0  0
  -20.6080  -28.4210   23.0570 C   0  0  0  0  0  3  0  0  0  0  0  0
  -20.6890  -27.0120   22.4240 C   0  0  0  0  0  2  0  0  0  0  0  0
  -19.5560  -26.7290   21.4340 C   0  0  0  0  0  2  0  0  0  0  0  0
  -18.1950  -26.8470   22.1260 C   0  0  0  0  0  2  0  0  0  0  0  0
  -19.1730  -28.9160   23.2830 C   0  0  0  0  0  0  0  0  0  0  0  0
  -18.9720  -30.1540   23.9320 C   0  0  0  0  0  3  0  0  0  0  0  0
  -17.6730  -30.6430   24.1620 C   0  0  0  0  0  3  0  0  0  0  0  0
  -16.5570  -29.8940   23.7510 C   0  0  0  0  0  3  0  0  0  0  0  0
  -16.7430  -28.6580   23.1060 C   0  0  0  0  0  3  0  0  0  0  0  0
  -25.8920  -32.5920   23.7320 C   0  0  0  0  0  3  0  0  0  0  0  0
  -25.5830  -33.9850   24.0910 N   0  0  0  0  0  0  0  0  0  0  0  0
  -25.9130  -35.0550   23.3560 C   0  0  0  0  0  0  0  0  0  0  0  0
  -26.5790  -34.9730   22.3200 O   0  0  0  0  0  0  0  0  0  0  0  0
  -24.9900  -34.1190   24.8970 H   0  0  0  0  0  0  0  0  0  0  0  0
  -24.1920  -36.8650   23.0480 C   0  0  0  0  0  1  0  0  0  0  0  0
  -25.4320  -36.4360   23.8480 C   0  0  0  0  0  3  0  0  0  0  0  0
  -27.5700  -37.2950   24.7020 C   0  0  0  0  0  1  0  0  0  0  0  0
  -26.4690  -37.4880   23.7600 N   0  0  0  0  0  0  0  0  0  0  0  0
  -26.0660  -38.4060   23.9250 H   0  0  0  0  0  0  0  0  0  0  0  0
  -26.4210  -31.8040   24.9920 C   0  0  1  0  0  0  0  0  0  0  0  0
  -25.3370  -31.5510   26.0670 C   0  0  0  0  0  1  0  0  0  0  0  0
  -27.0010  -30.4320   24.5780 C   0  0  0  0  0  1  0  0  0  0  0  0
  -27.5770  -32.5890   25.6540 C   0  0  0  0  0  1  0  0  0  0  0  0
  1  4  1  0
  1  8  2  0
  2  5  1  0
  2  7  1  0
  3  1  1  0
  5  3  1  0
  5  6  1  1
  7  4  1  0
  9  2  2  0
 11 10  1  0
 12 15  2  0
 12 14  1  0
 13 10  2  0
 13  7  1  0
 14 24  1  0
 14 11  2  0
 15 13  1  0
 16 24  1  0
 17 22  1  0
 18 19  1  0
 18 17  1  0
 20 19  1  0
 20 29  1  0
 20 21  1  0
 22 16  1  0
 22 21  1  0
 23 16  2  0
 24 25  1  0
 26 27  2  0
 27 46  1  0
 28 27  1  0
 28 31  1  0
 29 30  1  0
 29 26  1  0
 30 28  2  0
 31 32  1  0
 32 33  2  0
 34 37  1  0
 34 33  1  0
 35 34  2  0
 36 35  1  0
 36 31  2  0
 37 38  1  0
 38 43  2  0
 38 39  1  0
 39 40  2  0
 40 41  1  0
 41 45  1  0
 42 41  2  0
 43 42  1  0
 44 43  1  0
 46 47  1  0
 47 50  1  0
 47 49  1  0
 48 46  2  0
 51 26  1  0
 51 52  1  0
 53 51  1  0
 54 15  1  0
 55 54  1  0
 56 54  1  0
 57 59  1  0
 57  5  1  0
 58 69  2  0
 59 64  1  0
 60 68  1  0
 60 70  1  0
 61 67  1  0
 61 63  1  0
 62 68  1  0
 63 62  1  0
 64 63  2  0
 65 66  1  0
 65 59  2  0
 66 61  2  0
 67 60  1  0
 68 58  1  0
 70 72  2  0
 71 70  1  0
 73 71  1  0
 74 83  2  0
 74 79  1  0
 75 71  1  0
 75 79  1  0
 76 75  1  0
 77 78  1  0
 77 76  1  0
 78 74  1  0
 79 80  2  0
 80 81  1  0
 82 81  2  0
 83 82  1  0
 84 58  1  0
 84 85  1  0
 84 94  1  0
 85 88  1  0
 86 90  1  0
 86 85  1  0
 87 86  2  0
 90 89  1  0
 92 90  1  0
 92 93  1  0
 92 91  1  0
 94 97  1  1
 94 95  1  0
 96 94  1  0
M  ISO  4   5 101  16 100  24 100  57 101
M  END
>  <TORSDO>  (28) 
F 18

>  <SCORE>  (28) 
-14.360

>  <name>  (28) 
27

>  <ligand_id>  (28) 
27

>  <original_smiles>  (28) 
[H]c1c([H])c([H])c2c(c1[H])C([H])([H])C([H])([H])C([H])([H])C2([H])N([H])C(=O)C1([H])N(C(=O)C([H])(N([H])C(=O)C([H])(N([H])C([H])([H])[H])C([H])([H])[H])C(C([H])([H])[H])(C([H])([H])[H])C([H])([H])[H])C([H])([H])c2c([H])c(OC3(C([H])([H])[H])C(=O)N(c4c([H])c([H])c(N([H])C(=O)N5C([H])([H])C([H])([H])C([H])([H])C([H])(n6nc(-c7c([H])c([H])c(Oc8c([H])c([H])c(F)c([H])c8F)c([H])c7[H])c(C(=O)N([H])[H])c6N([H])[H])C5([H])[H])c([H])c4N([H])[H])C([H])([H])C(=O)C3([H])[H])c([H])c([H])c2C1([H])[H]

>  <smiles>  (28) 
[H]c1c([H])c([H])c2c(c1[H])C([H])([H])C([H])([H])C([H])([H])C2([H])N([H])C(=O)C1([H])N(C(=O)C([H])(N([H])C(=O)C([H])(N([H])C([H])([H])[H])C([H])([H])[H])C(C([H])([H])[H])(C([H])([H])[H])C([H])([H])[H])C([H])([H])c2c([H])c(OC3(C([H])([H])[H])C(=O)N(c4c([H])c([H])c(N([H])C(=O)N5C([H])([H])C([H])([H])C([H])([H])C([H])(n6nc(-c7c([H])c([H])c(Oc8c([H])c([H])c(F)c([H])c8F)c([H])c7[H])c(C(=O)N([H])[H])c6N([H])[H])C5([H])[H])c([H])c4N([H])[H])C([H])([H])C(=O)C3([H])[H])c([H])c([H])c2C1([H])[H]

$$$$
28:0:0
     RDKit          3D

 99108  0  0  1  0  0  0  0  0999 V2000
  -31.2090  -18.0670   20.5060 C   0  0  0  0  0  3  0  0  0  0  0  0
  -31.1720  -19.5240   20.4900 C   0  0  0  0  0  0  0  0  0  0  0  0
  -30.0060  -17.3950   20.5120 C   0  0  0  0  0  0  0  0  0  0  0  0
  -29.9090  -20.1090   20.4330 C   0  0  0  0  0  0  0  0  0  0  0  0
  -28.7610  -18.7160   20.4850 S   0  0  0  0  0  0  0  0  0  0  0  0
  -30.5530  -14.8730   20.3230 C   0  0  0  0  0  0  0  0  0  0  0  0
  -30.3780  -12.5920   19.2880 C   0  0  0  0  0  2  0  0  0  0  0  0
  -29.4200  -12.6470   18.0750 C   0  0  0  0  0  2  0  0  0  0  0  0
  -27.9600  -12.4490   18.5250 C   0  0  0  0  0  2  0  0  0  0  0  0
  -27.5890  -13.3260   19.7490 C   0  0  0  0  0  3  0  0  0  0  0  0
  -28.6630  -13.2470   20.8570 C   0  0  0  0  0  2  0  0  0  0  0  0
  -29.9430  -13.6350   20.2490 N   0  0  0  0  0  0  0  0  0  0  0  0
  -31.7410  -14.9730   19.9980 O   0  0  0  0  0  0  0  0  0  0  0  0
  -29.7540  -15.9990   20.5530 N   0  0  0  0  0  0  0  0  0  0  0  0
  -28.7900  -15.7580   20.7310 H   0  0  0  0  0  0  0  0  0  0  0  0
  -25.2100  -13.8930   20.5170 C   0  0  0  0  0  0  0  0  0  0  0  0
  -24.1520  -13.1090   20.8910 C   0  0  0  0  0  0  0  0  0  0  0  0
  -24.6230  -11.7600   20.8360 C   0  0  0  0  0  0  0  0  0  0  0  0
  -26.2550  -13.0230   20.2550 N   0  0  0  0  0  0  0  0  0  0  0  0
  -25.9100  -11.7340   20.5110 N   0  0  0  0  0  0  0  0  0  0  0  0
  -23.9050  -10.4920   21.0180 C   0  0  0  0  0  0  0  0  0  0  0  0
  -24.3300   -9.5310   21.9610 C   0  0  0  0  0  3  0  0  0  0  0  0
  -23.6120   -8.3270   22.1290 C   0  0  0  0  0  3  0  0  0  0  0  0
  -22.4540   -8.0770   21.3550 C   0  0  0  0  0  0  0  0  0  0  0  0
  -22.0480   -9.0270   20.4030 C   0  0  0  0  0  3  0  0  0  0  0  0
  -22.7670  -10.2230   20.2310 C   0  0  0  0  0  3  0  0  0  0  0  0
  -21.7080   -6.9260   21.4340 O   0  0  0  0  0  0  0  0  0  0  0  0
  -21.6120   -6.2090   22.5990 C   0  0  0  0  0  0  0  0  0  0  0  0
  -21.0750   -6.7700   23.7790 C   0  0  0  0  0  3  0  0  0  0  0  0
  -20.9310   -5.9760   24.9340 C   0  0  0  0  0  3  0  0  0  0  0  0
  -21.3120   -4.6220   24.9110 C   0  0  0  0  0  0  0  0  0  0  0  0
  -21.8420   -4.0590   23.7360 C   0  0  0  0  0  3  0  0  0  0  0  0
  -21.9880   -4.8500   22.5820 C   0  0  0  0  0  0  0  0  0  0  0  0
  -22.4780   -4.2970   21.4470 F   0  0  0  0  0  0  0  0  0  0  0  0
  -21.1670   -3.8570   26.0180 F   0  0  0  0  0  0  0  0  0  0  0  0
  -22.7570  -13.5750   21.1830 C   0  0  0  0  0  0  0  0  0  0  0  0
  -22.0410  -12.8650   22.0470 N   0  0  0  0  0  0  0  0  0  0  0  0
  -22.3080  -14.6040   20.6790 O   0  0  0  0  0  0  0  0  0  0  0  0
  -22.4180  -12.0330   22.4770 H   0  0  0  0  0  0  0  0  0  0  0  0
  -21.1050  -13.1580   22.2850 H   0  0  0  0  0  0  0  0  0  0  0  0
  -25.3620  -15.2670   20.3540 N   0  0  0  0  0  0  0  0  0  0  0  0
  -24.5860  -15.9080   20.4740 H   0  0  0  0  0  0  0  0  0  0  0  0
  -26.1870  -15.7150   19.9760 H   0  0  0  0  0  0  0  0  0  0  0  0
  -33.0990  -20.4400   19.1310 C   0  0  0  0  0  2  0  0  0  0  0  0
  -33.4730  -19.8400   21.5580 C   0  0  0  0  0  2  0  0  0  0  0  0
  -34.3540  -21.3290   19.1590 C   0  0  0  0  0  2  0  0  0  0  0  0
  -34.7220  -20.7370   21.5900 C   0  0  0  0  0  2  0  0  0  0  0  0
  -32.4460  -20.3450   20.5220 C   0  0  0  0  0  3  0  0  0  0  0  0
  -35.3780  -20.8370   20.2000 C   0  0  0  0  0  3  0  0  0  0  0  0
  -36.6230  -21.7360   20.2300 C   0  0  0  0  0  1  0  0  0  0  0  0
  -28.6700  -22.4240   20.5250 C   0  0  0  0  0  0  0  0  0  0  0  0
  -29.7000  -21.5110   20.3160 N   0  0  0  0  0  0  0  0  0  0  0  0
  -27.5500  -22.0210   20.8450 O   0  0  0  0  0  0  0  0  0  0  0  0
  -30.5340  -21.9820   20.0060 H   0  0  0  0  0  0  0  0  0  0  0  0
  -28.0730  -24.9580   20.4230 C   0  0  0  0  0  3  0  0  0  0  0  0
  -28.9960  -23.9130   20.3430 C   0  0  0  0  0  0  0  0  0  0  0  0
  -30.2750  -24.2520   20.1160 O   0  0  0  0  0  0  0  0  0  0  0  0
  -30.8240  -23.5510   20.4370 H   0  0  0  0  0  0  0  0  0  0  0  0
  -28.2990  -26.3770   20.2830 O   0  0  0  0  0  0  0  0  0  0  0  0
  -24.6570  -31.9750   23.2460 C   0  0  0  0  0  0  0  0  0  0  0  0
  -27.2190  -27.3020   20.2420 C   0  0  0  0  0  0  0  0  0  0  0  0
  -23.4450  -30.5740   21.6150 C   0  0  0  0  0  3  0  0  0  0  0  0
  -24.8830  -28.9920   20.2010 C   0  0  0  0  0  0  0  0  0  0  0  0
  -25.9920  -30.8480   21.4420 C   0  0  0  0  0  2  0  0  0  0  0  0
  -26.0590  -29.4560   20.8060 C   0  0  0  0  0  0  0  0  0  0  0  0
  -27.2290  -28.6240   20.8170 C   0  0  0  0  0  3  0  0  0  0  0  0
  -26.0250  -26.9200   19.5920 C   0  0  0  0  0  3  0  0  0  0  0  0
  -24.8730  -27.7320   19.5830 C   0  0  0  0  0  3  0  0  0  0  0  0
  -23.6580  -29.8860   20.2410 C   0  0  0  0  0  2  0  0  0  0  0  0
  -24.7170  -31.1530   22.1560 N   0  0  0  0  0  0  0  0  0  0  0  0
  -23.5740  -32.2690   23.7750 O   0  0  0  0  0  0  0  0  0  0  0  0
  -22.7670  -29.5750   22.5840 C   0  0  0  0  0  0  0  0  0  0  0  0
  -21.4400  -29.4050   22.4540 N   0  0  0  0  0  0  0  0  0  0  0  0
  -23.4360  -28.9550   23.4140 O   0  0  0  0  0  0  0  0  0  0  0  0
  -20.9600  -29.9570   21.7570 H   0  0  0  0  0  0  0  0  0  0  0  0
  -18.0500  -28.2430   22.9690 C   0  0  0  0  0  0  0  0  0  0  0  0
  -20.6120  -28.4800   23.2310 C   0  0  0  0  0  3  0  0  0  0  0  0
  -20.6960  -27.0440   22.6630 C   0  0  0  0  0  2  0  0  0  0  0  0
  -19.5890  -26.7270   21.6520 C   0  0  0  0  0  2  0  0  0  0  0  0
  -18.2110  -26.8900   22.2990 C   0  0  0  0  0  2  0  0  0  0  0  0
  -19.1770  -28.9970   23.3930 C   0  0  0  0  0  0  0  0  0  0  0  0
  -18.9720  -30.2640   23.9820 C   0  0  0  0  0  3  0  0  0  0  0  0
  -17.6730  -30.7770   24.1490 C   0  0  0  0  0  3  0  0  0  0  0  0
  -16.5600  -30.0220   23.7410 C   0  0  0  0  0  3  0  0  0  0  0  0
  -16.7490  -28.7560   23.1570 C   0  0  0  0  0  3  0  0  0  0  0  0
  -25.9420  -32.6040   23.8650 C   0  0  0  0  0  3  0  0  0  0  0  0
  -26.4670  -31.8230   25.1330 C   0  0  1  0  0  0  0  0  0  0  0  0
  -25.3780  -31.5710   26.2040 C   0  0  0  0  0  1  0  0  0  0  0  0
  -27.0540  -30.4500   24.7300 C   0  0  0  0  0  1  0  0  0  0  0  0
  -27.6170  -32.6150   25.7980 C   0  0  0  0  0  1  0  0  0  0  0  0
  -25.6340  -33.9990   24.2120 N   0  0  0  0  0  0  0  0  0  0  0  0
  -25.9260  -35.0580   23.4460 C   0  0  0  0  0  0  0  0  0  0  0  0
  -26.5530  -34.9640   22.3870 O   0  0  0  0  0  0  0  0  0  0  0  0
  -25.0720  -34.1440   25.0380 H   0  0  0  0  0  0  0  0  0  0  0  0
  -24.1680  -36.8390   23.1780 C   0  0  0  0  0  1  0  0  0  0  0  0
  -25.4480  -36.4410   23.9300 C   0  0  0  0  0  3  0  0  0  0  0  0
  -27.6050  -37.3500   24.6730 C   0  0  0  0  0  1  0  0  0  0  0  0
  -26.4660  -37.5040   23.7730 N   0  0  0  0  0  0  0  0  0  0  0  0
  -26.0570  -38.4210   23.9340 H   0  0  0  0  0  0  0  0  0  0  0  0
  1  3  2  0
  2  1  1  0
  3 14  1  0
  4  5  1  0
  4  2  2  0
  5  3  1  0
  6 14  1  0
  7 12  1  0
  8  9  1  0
  8  7  1  0
 10  9  1  0
 10 19  1  0
 10 11  1  0
 12  6  1  0
 12 11  1  0
 13  6  2  0
 14 15  1  0
 16 17  2  0
 17 36  1  0
 18 17  1  0
 18 21  1  0
 19 20  1  0
 19 16  1  0
 20 18  2  0
 21 22  1  0
 22 23  2  0
 24 27  1  0
 24 23  1  0
 25 24  2  0
 26 25  1  0
 26 21  2  0
 27 28  1  0
 28 29  1  0
 29 30  2  0
 31 30  1  0
 31 35  1  0
 32 31  2  0
 33 28  2  0
 33 32  1  0
 34 33  1  0
 36 37  1  0
 37 40  1  0
 37 39  1  0
 38 36  2  0
 41 42  1  0
 41 16  1  0
 43 41  1  0
 44 46  1  0
 44 48  1  0
 45 47  1  0
 46 49  1  0
 48  2  1  0
 48 45  1  0
 49 50  1  0
 49 47  1  0
 51 53  2  0
 52  4  1  0
 52 51  1  0
 54 52  1  0
 56 55  2  0
 56 51  1  0
 57 56  1  0
 57 58  1  0
 59 55  1  0
 60 71  2  0
 61 59  1  0
 61 66  1  0
 62 70  1  0
 62 72  1  0
 63 69  1  0
 63 65  1  0
 64 70  1  0
 65 66  2  0
 65 64  1  0
 67 61  2  0
 68 67  1  0
 68 63  2  0
 69 62  1  0
 70 60  1  0
 72 74  2  0
 73 72  1  0
 75 73  1  0
 76 85  2  0
 76 81  1  0
 77 73  1  0
 77 81  1  0
 78 77  1  0
 79 80  1  0
 79 78  1  0
 80 76  1  0
 81 82  2  0
 82 83  1  0
 84 83  2  0
 85 84  1  0
 86 60  1  0
 86 91  1  0
 86 87  1  0
 87 90  1  1
 87 88  1  0
 89 87  1  0
 91 94  1  0
 92 96  1  0
 92 91  1  0
 93 92  2  0
 96 95  1  0
 98 96  1  0
 98 99  1  0
 98 97  1  0
M  ISO  4   6 100  14 100  55 101  59 101
M  END
>  <TORSDO>  (29) 
F 20

>  <SCORE>  (29) 
-14.453

>  <name>  (29) 
28

>  <ligand_id>  (29) 
28

>  <original_smiles>  (29) 
[H]OC(C(=O)N([H])c1sc(N([H])C(=O)N2C([H])([H])C([H])([H])C([H])([H])C([H])(n3nc(-c4c([H])c([H])c(Oc5c([H])c([H])c(F)c([H])c5F)c([H])c4[H])c(C(=O)N([H])[H])c3N([H])[H])C2([H])[H])c([H])c1C1([H])C([H])([H])C([H])([H])C([H])(C([H])([H])[H])C([H])([H])C1([H])[H])=C([H])Oc1c([H])c([H])c2c(c1[H])C([H])([H])N(C(=O)C([H])(N([H])C(=O)C([H])(N([H])C([H])([H])[H])C([H])([H])[H])C(C([H])([H])[H])(C([H])([H])[H])C([H])([H])[H])C([H])(C(=O)N([H])C1([H])c3c([H])c([H])c([H])c([H])c3C([H])([H])C([H])([H])C1([H])[H])C2([H])[H]

>  <smiles>  (29) 
[H]OC(C(=O)N([H])c1sc(N([H])C(=O)N2C([H])([H])C([H])([H])C([H])([H])C([H])(n3nc(-c4c([H])c([H])c(Oc5c([H])c([H])c(F)c([H])c5F)c([H])c4[H])c(C(=O)N([H])[H])c3N([H])[H])C2([H])[H])c([H])c1C1([H])C([H])([H])C([H])([H])C([H])(C([H])([H])[H])C([H])([H])C1([H])[H])=C([H])Oc1c([H])c([H])c2c(c1[H])C([H])([H])N(C(=O)C([H])(N([H])C(=O)C([H])(N([H])C([H])([H])[H])C([H])([H])[H])C(C([H])([H])[H])(C([H])([H])[H])C([H])([H])[H])C([H])(C(=O)N([H])C1([H])c3c([H])c([H])c([H])c([H])c3C([H])([H])C([H])([H])C1([H])[H])C2([H])[H]

$$$$
29:0:0
     RDKit          3D

 94102  0  0  1  0  0  0  0  0999 V2000
  -28.1330  -20.4830   19.3040 C   0  0  0  0  0  3  0  0  0  0  0  0
  -28.9050  -21.0430   20.2920 C   0  0  0  0  0  0  0  0  0  0  0  0
  -29.7320  -20.0010   20.9290 C   0  0  0  0  0  0  0  0  0  0  0  0
  -29.6000  -18.6750   20.4300 C   0  0  0  0  0  0  0  0  0  0  0  0
  -28.3960  -18.7350   19.1510 S   0  0  0  0  0  0  0  0  0  0  0  0
  -30.6280  -14.8300   20.3480 C   0  0  0  0  0  0  0  0  0  0  0  0
  -30.3990  -12.5380   19.3510 C   0  0  0  0  0  2  0  0  0  0  0  0
  -29.4530  -12.5660   18.1330 C   0  0  0  0  0  2  0  0  0  0  0  0
  -27.9920  -12.3810   18.5850 C   0  0  0  0  0  2  0  0  0  0  0  0
  -27.6170  -13.2910   19.7870 C   0  0  0  0  0  3  0  0  0  0  0  0
  -28.6890  -13.2610   20.8960 C   0  0  0  0  0  2  0  0  0  0  0  0
  -29.9650  -13.6220   20.2680 N   0  0  0  0  0  0  0  0  0  0  0  0
  -31.8330  -14.8320   20.0780 O   0  0  0  0  0  0  0  0  0  0  0  0
  -30.4000  -17.3310   20.6170 C   0  0  0  0  0  0  0  0  0  0  0  0
  -29.9060  -16.0270   20.4770 N   0  0  0  0  0  0  0  0  0  0  0  0
  -31.5800  -17.4970   20.9460 O   0  0  0  0  0  0  0  0  0  0  0  0
  -28.9040  -15.9470   20.4230 H   0  0  0  0  0  0  0  0  0  0  0  0
  -25.2440  -13.8680   20.5590 C   0  0  0  0  0  0  0  0  0  0  0  0
  -24.1840  -13.0910   20.9350 C   0  0  0  0  0  0  0  0  0  0  0  0
  -24.6470  -11.7400   20.8860 C   0  0  0  0  0  0  0  0  0  0  0  0
  -26.2840  -12.9920   20.2990 N   0  0  0  0  0  0  0  0  0  0  0  0
  -25.9350  -11.7060   20.5620 N   0  0  0  0  0  0  0  0  0  0  0  0
  -23.9220  -10.4750   21.0720 C   0  0  0  0  0  0  0  0  0  0  0  0
  -24.3640   -9.4990   21.9910 C   0  0  0  0  0  3  0  0  0  0  0  0
  -23.6390   -8.3000   22.1660 C   0  0  0  0  0  3  0  0  0  0  0  0
  -22.4570   -8.0700   21.4230 C   0  0  0  0  0  0  0  0  0  0  0  0
  -22.0340   -9.0370   20.4940 C   0  0  0  0  0  3  0  0  0  0  0  0
  -22.7610  -10.2260   20.3160 C   0  0  0  0  0  3  0  0  0  0  0  0
  -21.7020   -6.9260   21.5080 O   0  0  0  0  0  0  0  0  0  0  0  0
  -21.6640   -6.1730   22.6540 C   0  0  0  0  0  0  0  0  0  0  0  0
  -21.2330   -6.7120   23.8850 C   0  0  0  0  0  3  0  0  0  0  0  0
  -21.1420   -5.8850   25.0240 C   0  0  0  0  0  3  0  0  0  0  0  0
  -21.4740   -4.5200   24.9300 C   0  0  0  0  0  0  0  0  0  0  0  0
  -21.8990   -3.9810   23.7040 C   0  0  0  0  0  3  0  0  0  0  0  0
  -21.9900   -4.8050   22.5690 C   0  0  0  0  0  0  0  0  0  0  0  0
  -22.3800   -4.2750   21.3830 F   0  0  0  0  0  0  0  0  0  0  0  0
  -21.3800   -3.7240   26.0200 F   0  0  0  0  0  0  0  0  0  0  0  0
  -22.7900  -13.5650   21.2250 C   0  0  0  0  0  0  0  0  0  0  0  0
  -22.0690  -12.8590   22.0880 N   0  0  0  0  0  0  0  0  0  0  0  0
  -22.3500  -14.5980   20.7220 O   0  0  0  0  0  0  0  0  0  0  0  0
  -22.4380  -12.0230   22.5150 H   0  0  0  0  0  0  0  0  0  0  0  0
  -21.1340  -13.1590   22.3260 H   0  0  0  0  0  0  0  0  0  0  0  0
  -25.4070  -15.2410   20.3910 N   0  0  0  0  0  0  0  0  0  0  0  0
  -24.6410  -15.8950   20.5150 H   0  0  0  0  0  0  0  0  0  0  0  0
  -26.2400  -15.6780   20.0190 H   0  0  0  0  0  0  0  0  0  0  0  0
  -28.4330  -23.6510   20.0670 C   0  0  0  0  0  0  0  0  0  0  0  0
  -28.8460  -22.4790   20.7070 N   0  0  0  0  0  0  0  0  0  0  0  0
  -28.2160  -23.6580   18.8520 O   0  0  0  0  0  0  0  0  0  0  0  0
  -29.1250  -22.6260   21.6680 H   0  0  0  0  0  0  0  0  0  0  0  0
  -28.2020  -25.0280   20.8860 C   0  0  0  0  0  2  0  0  0  0  0  0
  -28.3390  -26.3780   20.2150 O   0  0  0  0  0  0  0  0  0  0  0  0
  -24.6120  -31.8930   23.2210 C   0  0  0  0  0  0  0  0  0  0  0  0
  -27.2430  -27.2720   20.2180 C   0  0  0  0  0  0  0  0  0  0  0  0
  -23.4240  -30.4860   21.5790 C   0  0  0  0  0  3  0  0  0  0  0  0
  -24.8880  -28.9210   20.1710 C   0  0  0  0  0  0  0  0  0  0  0  0
  -25.9680  -30.7940   21.4140 C   0  0  0  0  0  2  0  0  0  0  0  0
  -26.0560  -29.4060   20.7740 C   0  0  0  0  0  0  0  0  0  0  0  0
  -27.2400  -28.5970   20.7800 C   0  0  0  0  0  3  0  0  0  0  0  0
  -26.0530  -26.8530   19.5900 C   0  0  0  0  0  3  0  0  0  0  0  0
  -24.8920  -27.6530   19.5660 C   0  0  0  0  0  3  0  0  0  0  0  0
  -23.6510  -29.8000   20.2050 C   0  0  0  0  0  2  0  0  0  0  0  0
  -24.6870  -31.0770   22.1280 N   0  0  0  0  0  0  0  0  0  0  0  0
  -23.5230  -32.1710   23.7460 O   0  0  0  0  0  0  0  0  0  0  0  0
  -22.7530  -29.4740   22.5410 C   0  0  0  0  0  0  0  0  0  0  0  0
  -21.4260  -29.3030   22.4140 N   0  0  0  0  0  0  0  0  0  0  0  0
  -23.4280  -28.8480   23.3620 O   0  0  0  0  0  0  0  0  0  0  0  0
  -20.9410  -29.8590   21.7250 H   0  0  0  0  0  0  0  0  0  0  0  0
  -18.0390  -28.1360   22.9350 C   0  0  0  0  0  0  0  0  0  0  0  0
  -20.6030  -28.3680   23.1850 C   0  0  0  0  0  3  0  0  0  0  0  0
  -20.6860  -26.9410   22.5970 C   0  0  0  0  0  2  0  0  0  0  0  0
  -19.5720  -26.6380   21.5900 C   0  0  0  0  0  2  0  0  0  0  0  0
  -18.1960  -26.7910   22.2460 C   0  0  0  0  0  2  0  0  0  0  0  0
  -19.1700  -28.8840   23.3610 C   0  0  0  0  0  0  0  0  0  0  0  0
  -18.9680  -30.1440   23.9660 C   0  0  0  0  0  3  0  0  0  0  0  0
  -17.6680  -30.6550   24.1490 C   0  0  0  0  0  3  0  0  0  0  0  0
  -16.5540  -29.9040   23.7370 C   0  0  0  0  0  3  0  0  0  0  0  0
  -16.7400  -28.6470   23.1350 C   0  0  0  0  0  3  0  0  0  0  0  0
  -25.8870  -32.5330   23.8510 C   0  0  0  0  0  3  0  0  0  0  0  0
  -26.3930  -31.7700   25.1350 C   0  0  1  0  0  0  0  0  0  0  0  0
  -25.2920  -31.5360   26.1960 C   0  0  0  0  0  1  0  0  0  0  0  0
  -26.9820  -30.3910   24.7580 C   0  0  0  0  0  1  0  0  0  0  0  0
  -27.5380  -32.5690   25.8020 C   0  0  0  0  0  1  0  0  0  0  0  0
  -25.5700  -33.9330   24.1750 N   0  0  0  0  0  0  0  0  0  0  0  0
  -25.9050  -34.9860   23.4170 C   0  0  0  0  0  0  0  0  0  0  0  0
  -26.5800  -34.8810   22.3900 O   0  0  0  0  0  0  0  0  0  0  0  0
  -24.9720  -34.0870   24.9730 H   0  0  0  0  0  0  0  0  0  0  0  0
  -24.1830  -36.7810   23.0410 C   0  0  0  0  0  1  0  0  0  0  0  0
  -25.4130  -36.3740   23.8700 C   0  0  0  0  0  3  0  0  0  0  0  0
  -27.5340  -37.2590   24.7320 C   0  0  0  0  0  1  0  0  0  0  0  0
  -26.4480  -37.4270   23.7710 N   0  0  0  0  0  0  0  0  0  0  0  0
  -26.0400  -38.3480   23.9110 H   0  0  0  0  0  0  0  0  0  0  0  0
  -30.6070  -20.4190   21.9420 N   0  0  0  0  0  0  0  0  0  0  0  0
  -30.9450  -21.3720   21.8680 H   0  0  0  0  0  0  0  0  0  0  0  0
  -31.3670  -19.7800   22.1610 H   0  0  0  0  0  0  0  0  0  0  0  0
  1  2  2  0
  2 47  1  0
  2  3  1  0
  3 92  1  0
  4 14  1  0
  4  3  2  0
  5  1  1  0
  5  4  1  0
  6 15  1  0
  7 12  1  0
  8  9  1  0
  8  7  1  0
 10  9  1  0
 10 21  1  0
 10 11  1  0
 12  6  1  0
 12 11  1  0
 13  6  2  0
 14 16  2  0
 15 14  1  0
 17 15  1  0
 18 19  2  0
 19 38  1  0
 20 19  1  0
 20 23  1  0
 21 18  1  0
 21 22  1  0
 22 20  2  0
 23 24  1  0
 24 25  2  0
 26 29  1  0
 26 25  1  0
 27 26  2  0
 28 27  1  0
 28 23  2  0
 29 30  1  0
 30 31  1  0
 31 32  2  0
 33 32  1  0
 33 37  1  0
 34 33  2  0
 35 30  2  0
 35 34  1  0
 36 35  1  0
 38 39  1  0
 39 42  1  0
 39 41  1  0
 40 38  2  0
 43 44  1  0
 43 18  1  0
 45 43  1  0
 46 47  1  0
 46 50  1  0
 47 49  1  0
 48 46  2  0
 51 53  1  0
 51 50  1  0
 52 63  2  0
 53 58  1  0
 54 62  1  0
 54 64  1  0
 55 61  1  0
 55 57  1  0
 56 62  1  0
 57 58  2  0
 57 56  1  0
 59 53  2  0
 60 59  1  0
 60 55  2  0
 61 54  1  0
 62 52  1  0
 64 66  2  0
 65 64  1  0
 67 65  1  0
 68 77  2  0
 68 73  1  0
 69 65  1  0
 69 73  1  0
 70 69  1  0
 71 72  1  0
 71 70  1  0
 72 68  1  0
 73 74  2  0
 74 75  1  0
 76 75  2  0
 77 76  1  0
 78 52  1  0
 78 83  1  0
 78 79  1  0
 79 82  1  1
 79 80  1  0
 81 79  1  0
 83 86  1  0
 84 88  1  0
 84 83  1  0
 85 84  2  0
 88 87  1  0
 90 88  1  0
 90 91  1  0
 90 89  1  0
 92 94  1  0
 93 92  1  0
M  ISO  4   6 100  15 100  50 101  51 101
M  END
>  <TORSDO>  (30) 
F 19

>  <SCORE>  (30) 
-14.754

>  <name>  (30) 
29

>  <ligand_id>  (30) 
29

>  <original_smiles>  (30) 
[H]c1sc(C(=O)N([H])C(=O)N2C([H])([H])C([H])([H])C([H])([H])C([H])(n3nc(-c4c([H])c([H])c(Oc5c([H])c([H])c(F)c([H])c5F)c([H])c4[H])c(C(=O)N([H])[H])c3N([H])[H])C2([H])[H])c(N([H])[H])c1N([H])C(=O)C([H])([H])Oc1c([H])c([H])c2c(c1[H])C([H])([H])N(C(=O)C([H])(N([H])C(=O)C([H])(N([H])C([H])([H])[H])C([H])([H])[H])C(C([H])([H])[H])(C([H])([H])[H])C([H])([H])[H])C([H])(C(=O)N([H])C1([H])c3c([H])c([H])c([H])c([H])c3C([H])([H])C([H])([H])C1([H])[H])C2([H])[H]

>  <smiles>  (30) 
[H]c1sc(C(=O)N([H])C(=O)N2C([H])([H])C([H])([H])C([H])([H])C([H])(n3nc(-c4c([H])c([H])c(Oc5c([H])c([H])c(F)c([H])c5F)c([H])c4[H])c(C(=O)N([H])[H])c3N([H])[H])C2([H])[H])c(N([H])[H])c1N([H])C(=O)C([H])([H])Oc1c([H])c([H])c2c(c1[H])C([H])([H])N(C(=O)C([H])(N([H])C(=O)C([H])(N([H])C([H])([H])[H])C([H])([H])[H])C(C([H])([H])[H])(C([H])([H])[H])C([H])([H])[H])C([H])(C(=O)N([H])C1([H])c3c([H])c([H])c([H])c([H])c3C([H])([H])C([H])([H])C1([H])[H])C2([H])[H]

$$$$
30:0:0
     RDKit          3D

 95104  0  0  1  0  0  0  0  0999 V2000
  -30.2230  -20.8930   20.2000 C   0  0  0  0  0  3  0  0  0  0  0  0
  -29.9780  -24.7390   20.0550 C   0  0  0  0  0  2  0  0  0  0  0  0
  -27.7380  -23.9390   20.4920 C   0  0  0  0  0  2  0  0  0  0  0  0
  -30.4200  -23.3190   19.5850 C   0  0  0  0  0  2  0  0  0  0  0  0
  -28.1400  -22.4640   20.0270 C   0  0  0  0  0  2  0  0  0  0  0  0
  -28.5030  -25.1130   19.7860 C   0  0  2  0  0  0  0  0  0  0  0  0
  -29.6050  -22.1520   20.0720 N   0  0  0  0  0  0  0  0  0  0  0  0
  -31.5630  -20.8770   20.3040 N   0  0  0  0  0  0  0  0  0  0  0  0
  -28.2970  -25.0250   18.4720 F   0  0  0  0  0  0  0  0  0  0  0  0
  -32.0560  -19.9990   20.3320 H   0  0  0  0  0  0  0  0  0  0  0  0
  -32.1060  -21.7240   20.3610 H   0  0  0  0  0  0  0  0  0  0  0  0
  -30.1770  -18.3250   20.7670 C   0  0  0  0  0  3  0  0  0  0  0  0
  -28.5360  -17.3500   19.4290 C   0  0  0  0  0  3  0  0  0  0  0  0
  -29.5520  -17.0850   20.3150 C   0  0  0  0  0  0  0  0  0  0  0  0
  -29.6700  -19.5010   20.1830 C   0  0  0  0  0  0  0  0  0  0  0  0
  -28.3550  -19.0720   19.1110 S   0  0  0  0  0  0  0  0  0  0  0  0
  -30.5500  -14.6880   20.3660 C   0  0  0  0  0  0  0  0  0  0  0  0
  -30.3590  -12.4350   19.3180 C   0  0  0  0  0  2  0  0  0  0  0  0
  -29.4080  -12.5570   18.1050 C   0  0  0  0  0  2  0  0  0  0  0  0
  -27.9370  -12.4000   18.5410 C   0  0  0  0  0  2  0  0  0  0  0  0
  -27.5860  -13.2620   19.7830 C   0  0  0  0  0  3  0  0  0  0  0  0
  -28.6490  -13.0980   20.8920 C   0  0  0  0  0  2  0  0  0  0  0  0
  -29.9550  -13.4510   20.3130 N   0  0  0  0  0  0  0  0  0  0  0  0
  -31.6960  -14.8620   19.9370 O   0  0  0  0  0  0  0  0  0  0  0  0
  -29.7670  -15.7230   20.8270 N   0  0  0  0  0  0  0  0  0  0  0  0
  -28.9430  -15.3390   21.2640 H   0  0  0  0  0  0  0  0  0  0  0  0
  -25.2000  -13.8780   20.5100 C   0  0  0  0  0  0  0  0  0  0  0  0
  -24.1290  -13.1120   20.8800 C   0  0  0  0  0  0  0  0  0  0  0  0
  -24.5810  -11.7580   20.8470 C   0  0  0  0  0  0  0  0  0  0  0  0
  -26.2380  -12.9900   20.2710 N   0  0  0  0  0  0  0  0  0  0  0  0
  -25.8710  -11.7100   20.5340 N   0  0  0  0  0  0  0  0  0  0  0  0
  -23.8480  -10.5000   21.0400 C   0  0  0  0  0  0  0  0  0  0  0  0
  -24.2810   -9.5280   21.9670 C   0  0  0  0  0  3  0  0  0  0  0  0
  -23.5480   -8.3350   22.1470 C   0  0  0  0  0  3  0  0  0  0  0  0
  -22.3670   -8.1080   21.4000 C   0  0  0  0  0  0  0  0  0  0  0  0
  -21.9530   -9.0710   20.4630 C   0  0  0  0  0  3  0  0  0  0  0  0
  -22.6860  -10.2550   20.2810 C   0  0  0  0  0  3  0  0  0  0  0  0
  -21.6040   -6.9690   21.4910 O   0  0  0  0  0  0  0  0  0  0  0  0
  -21.5590   -6.2230   22.6410 C   0  0  0  0  0  0  0  0  0  0  0  0
  -21.1410   -6.7750   23.8720 C   0  0  0  0  0  3  0  0  0  0  0  0
  -21.0430   -5.9550   25.0140 C   0  0  0  0  0  3  0  0  0  0  0  0
  -21.3520   -4.5850   24.9260 C   0  0  0  0  0  0  0  0  0  0  0  0
  -21.7620   -4.0320   23.7000 C   0  0  0  0  0  3  0  0  0  0  0  0
  -21.8620   -4.8480   22.5610 C   0  0  0  0  0  0  0  0  0  0  0  0
  -22.2380   -4.3070   21.3770 F   0  0  0  0  0  0  0  0  0  0  0  0
  -21.2510   -3.7950   26.0210 F   0  0  0  0  0  0  0  0  0  0  0  0
  -22.7350  -13.5990   21.1580 C   0  0  0  0  0  0  0  0  0  0  0  0
  -22.0050  -12.9070   22.0250 N   0  0  0  0  0  0  0  0  0  0  0  0
  -22.3050  -14.6300   20.6420 O   0  0  0  0  0  0  0  0  0  0  0  0
  -22.3680  -12.0750   22.4650 H   0  0  0  0  0  0  0  0  0  0  0  0
  -21.0710  -13.2170   22.2540 H   0  0  0  0  0  0  0  0  0  0  0  0
  -25.3720  -15.2470   20.3410 N   0  0  0  0  0  0  0  0  0  0  0  0
  -24.6130  -15.9050   20.4800 H   0  0  0  0  0  0  0  0  0  0  0  0
  -26.2430  -15.6970   20.0940 H   0  0  0  0  0  0  0  0  0  0  0  0
  -28.3570  -26.5200   20.2540 O   0  0  0  0  0  0  0  0  0  0  0  0
  -24.5870  -31.8740   23.2340 C   0  0  0  0  0  0  0  0  0  0  0  0
  -27.1980  -27.3100   20.1740 C   0  0  0  0  0  0  0  0  0  0  0  0
  -23.3770  -30.4710   21.5980 C   0  0  0  0  0  3  0  0  0  0  0  0
  -24.8220  -28.9120   20.1680 C   0  0  0  0  0  0  0  0  0  0  0  0
  -25.9120  -30.7920   21.4030 C   0  0  0  0  0  2  0  0  0  0  0  0
  -25.9880  -29.4100   20.7590 C   0  0  0  0  0  0  0  0  0  0  0  0
  -27.1730  -28.6180   20.7520 C   0  0  0  0  0  3  0  0  0  0  0  0
  -26.0100  -26.8590   19.5600 C   0  0  0  0  0  3  0  0  0  0  0  0
  -24.8360  -27.6430   19.5600 C   0  0  0  0  0  3  0  0  0  0  0  0
  -23.5840  -29.7860   20.2190 C   0  0  0  0  0  2  0  0  0  0  0  0
  -24.6450  -31.0640   22.1350 N   0  0  0  0  0  0  0  0  0  0  0  0
  -23.5060  -32.1510   23.7740 O   0  0  0  0  0  0  0  0  0  0  0  0
  -22.7170  -29.4600   22.5650 C   0  0  0  0  0  0  0  0  0  0  0  0
  -21.3930  -29.2790   22.4400 N   0  0  0  0  0  0  0  0  0  0  0  0
  -23.3980  -28.8390   23.3850 O   0  0  0  0  0  0  0  0  0  0  0  0
  -20.9030  -29.8310   21.7500 H   0  0  0  0  0  0  0  0  0  0  0  0
  -18.0180  -28.0780   22.9450 C   0  0  0  0  0  0  0  0  0  0  0  0
  -20.5760  -28.3420   23.2130 C   0  0  0  0  0  3  0  0  0  0  0  0
  -20.6800  -26.9090   22.6410 C   0  0  0  0  0  2  0  0  0  0  0  0
  -19.5790  -26.5830   21.6270 C   0  0  0  0  0  2  0  0  0  0  0  0
  -18.1970  -26.7280   22.2710 C   0  0  0  0  0  2  0  0  0  0  0  0
  -19.1360  -28.8430   23.3720 C   0  0  0  0  0  0  0  0  0  0  0  0
  -18.9140  -30.1070   23.9600 C   0  0  0  0  0  3  0  0  0  0  0  0
  -17.6090  -30.6070   24.1260 C   0  0  0  0  0  3  0  0  0  0  0  0
  -16.5060  -29.8380   23.7150 C   0  0  0  0  0  3  0  0  0  0  0  0
  -16.7110  -28.5760   23.1290 C   0  0  0  0  0  3  0  0  0  0  0  0
  -25.8730  -32.5070   23.8510 C   0  0  0  0  0  3  0  0  0  0  0  0
  -25.5640  -33.9040   24.1880 N   0  0  0  0  0  0  0  0  0  0  0  0
  -25.8870  -34.9600   23.4300 C   0  0  0  0  0  0  0  0  0  0  0  0
  -26.5460  -34.8610   22.3910 O   0  0  0  0  0  0  0  0  0  0  0  0
  -24.9770  -34.0530   24.9960 H   0  0  0  0  0  0  0  0  0  0  0  0
  -24.1470  -36.7490   23.1070 C   0  0  0  0  0  1  0  0  0  0  0  0
  -25.4020  -36.3460   23.8970 C   0  0  0  0  0  3  0  0  0  0  0  0
  -27.5460  -37.2400   24.6970 C   0  0  0  0  0  1  0  0  0  0  0  0
  -26.4300  -37.4030   23.7700 N   0  0  0  0  0  0  0  0  0  0  0  0
  -26.0230  -38.3230   23.9230 H   0  0  0  0  0  0  0  0  0  0  0  0
  -26.3970  -31.7340   25.1230 C   0  0  1  0  0  0  0  0  0  0  0  0
  -25.3100  -31.4950   26.1980 C   0  0  0  0  0  1  0  0  0  0  0  0
  -26.9790  -30.3570   24.7270 C   0  0  0  0  0  1  0  0  0  0  0  0
  -27.5510  -32.5280   25.7820 C   0  0  0  0  0  1  0  0  0  0  0  0
  1  8  1  0
  4  2  1  0
  4  7  1  0
  5  7  1  0
  5  3  1  0
  6  9  1  6
  6  2  1  0
  6 55  1  0
  6  3  1  0
  7  1  1  0
  8 10  1  0
  8 11  1  0
 13 14  2  0
 14 12  1  0
 14 25  1  0
 15  1  1  0
 15 12  2  0
 16 13  1  0
 16 15  1  0
 17 25  1  0
 18 23  1  0
 19 20  1  0
 19 18  1  0
 21 20  1  0
 21 30  1  0
 21 22  1  0
 23 17  1  0
 23 22  1  0
 24 17  2  0
 25 26  1  0
 27 28  2  0
 28 47  1  0
 29 28  1  0
 29 32  1  0
 30 27  1  0
 30 31  1  0
 31 29  2  0
 32 33  1  0
 33 34  2  0
 35 38  1  0
 35 34  1  0
 36 35  2  0
 37 36  1  0
 37 32  2  0
 38 39  1  0
 39 40  1  0
 40 41  2  0
 42 41  1  0
 42 46  1  0
 43 42  2  0
 44 39  2  0
 44 43  1  0
 45 44  1  0
 47 48  1  0
 48 51  1  0
 48 50  1  0
 49 47  2  0
 52 53  1  0
 52 27  1  0
 54 52  1  0
 56 67  2  0
 57 55  1  0
 57 62  1  0
 58 66  1  0
 58 68  1  0
 59 65  1  0
 59 61  1  0
 60 66  1  0
 61 60  1  0
 62 61  2  0
 63 64  1  0
 63 57  2  0
 64 59  2  0
 65 58  1  0
 66 56  1  0
 68 70  2  0
 69 68  1  0
 71 69  1  0
 72 81  2  0
 72 77  1  0
 73 69  1  0
 73 77  1  0
 74 73  1  0
 75 76  1  0
 75 74  1  0
 76 72  1  0
 77 78  2  0
 78 79  1  0
 80 79  2  0
 81 80  1  0
 82 56  1  0
 82 83  1  0
 82 92  1  0
 83 86  1  0
 84 88  1  0
 84 83  1  0
 85 84  2  0
 88 87  1  0
 90 88  1  0
 90 91  1  0
 90 89  1  0
 92 95  1  1
 92 93  1  0
 94 92  1  0
M  ISO  4   6 101  17 100  25 100  55 101
M  END
>  <TORSDO>  (31) 
F 17

>  <SCORE>  (31) 
-15.305

>  <name>  (31) 
30

>  <ligand_id>  (31) 
30

>  <original_smiles>  (31) 
[H]c1sc(C(N2C([H])([H])C([H])([H])C(F)(Oc3c([H])c([H])c4c(c3[H])C([H])([H])N(C(=O)C([H])(N([H])C(=O)C([H])(N([H])C([H])([H])[H])C([H])([H])[H])C(C([H])([H])[H])(C([H])([H])[H])C([H])([H])[H])C([H])(C(=O)N([H])C3([H])c5c([H])c([H])c([H])c([H])c5C([H])([H])C([H])([H])C3([H])[H])C4([H])[H])C([H])([H])C2([H])[H])=[N+]([H])[H])c([H])c1N([H])C(=O)N1C([H])([H])C([H])([H])C([H])([H])C([H])(n2nc(-c3c([H])c([H])c(Oc4c([H])c([H])c(F)c([H])c4F)c([H])c3[H])c(C(=O)N([H])[H])c2N([H])[H])C1([H])[H]

>  <smiles>  (31) 
[H]c1sc(C(N2C([H])([H])C([H])([H])C(F)(Oc3c([H])c([H])c4c(c3[H])C([H])([H])N(C(=O)C([H])(N([H])C(=O)C([H])(N([H])C([H])([H])[H])C([H])([H])[H])C(C([H])([H])[H])(C([H])([H])[H])C([H])([H])[H])C([H])(C(=O)N([H])C3([H])c5c([H])c([H])c([H])c([H])c5C([H])([H])C([H])([H])C3([H])[H])C4([H])[H])C([H])([H])C2([H])[H])=[N+]([H])[H])c([H])c1N([H])C(=O)N1C([H])([H])C([H])([H])C([H])([H])C([H])(n2nc(-c3c([H])c([H])c(Oc4c([H])c([H])c(F)c([H])c4F)c([H])c3[H])c(C(=O)N([H])[H])c2N([H])[H])C1([H])[H]

$$$$
31:0:0
     RDKit          3D

 92100  0  0  1  0  0  0  0  0999 V2000
  -28.8400  -18.7380   20.5560 C   0  0  0  0  0  3  0  0  0  0  0  0
  -29.3460  -20.1420   20.4080 C   0  0  0  0  0  0  0  0  0  0  0  0
  -29.8140  -17.7170   20.3730 C   0  0  0  0  0  0  0  0  0  0  0  0
  -30.6720  -19.8090   20.1500 C   0  0  0  0  0  0  0  0  0  0  0  0
  -30.9630  -18.4270   20.1070 O   0  0  0  0  0  0  0  0  0  0  0  0
  -30.4940  -15.0950   20.2650 C   0  0  0  0  0  0  0  0  0  0  0  0
  -30.3960  -12.7230   19.3310 C   0  0  0  0  0  2  0  0  0  0  0  0
  -29.4710  -12.6820   18.0940 C   0  0  0  0  0  2  0  0  0  0  0  0
  -28.0090  -12.4500   18.5190 C   0  0  0  0  0  2  0  0  0  0  0  0
  -27.5920  -13.3730   19.6920 C   0  0  0  0  0  3  0  0  0  0  0  0
  -28.6420  -13.3970   20.8220 C   0  0  0  0  0  2  0  0  0  0  0  0
  -29.9130  -13.8200   20.2210 N   0  0  0  0  0  0  0  0  0  0  0  0
  -31.6980  -15.1570   19.9830 O   0  0  0  0  0  0  0  0  0  0  0  0
  -29.6750  -16.2650   20.4410 N   0  0  0  0  0  0  0  0  0  0  0  0
  -28.7260  -15.9840   20.6350 H   0  0  0  0  0  0  0  0  0  0  0  0
  -25.2120  -13.9490   20.4310 C   0  0  0  0  0  0  0  0  0  0  0  0
  -24.1480  -13.1720   20.8010 C   0  0  0  0  0  0  0  0  0  0  0  0
  -24.6150  -11.8220   20.7770 C   0  0  0  0  0  0  0  0  0  0  0  0
  -26.2540  -13.0710   20.1900 N   0  0  0  0  0  0  0  0  0  0  0  0
  -25.9070  -11.7870   20.4700 N   0  0  0  0  0  0  0  0  0  0  0  0
  -23.8900  -10.5600   20.9750 C   0  0  0  0  0  0  0  0  0  0  0  0
  -24.3070   -9.6060   21.9300 C   0  0  0  0  0  3  0  0  0  0  0  0
  -23.5780   -8.4110   22.1110 C   0  0  0  0  0  3  0  0  0  0  0  0
  -22.4200   -8.1610   21.3370 C   0  0  0  0  0  0  0  0  0  0  0  0
  -22.0230   -9.1040   20.3720 C   0  0  0  0  0  3  0  0  0  0  0  0
  -22.7520  -10.2900   20.1900 C   0  0  0  0  0  3  0  0  0  0  0  0
  -21.6630   -7.0160   21.4270 O   0  0  0  0  0  0  0  0  0  0  0  0
  -21.5830   -6.2960   22.5920 C   0  0  0  0  0  0  0  0  0  0  0  0
  -21.1070   -6.8690   23.7920 C   0  0  0  0  0  3  0  0  0  0  0  0
  -20.9780   -6.0750   24.9510 C   0  0  0  0  0  3  0  0  0  0  0  0
  -21.3120   -4.7090   24.9080 C   0  0  0  0  0  0  0  0  0  0  0  0
  -21.7800   -4.1330   23.7130 C   0  0  0  0  0  3  0  0  0  0  0  0
  -21.9130   -4.9260   22.5590 C   0  0  0  0  0  0  0  0  0  0  0  0
  -22.3460   -4.3620   21.4040 F   0  0  0  0  0  0  0  0  0  0  0  0
  -21.1800   -3.9440   26.0160 F   0  0  0  0  0  0  0  0  0  0  0  0
  -22.7490  -13.6500   21.0620 C   0  0  0  0  0  0  0  0  0  0  0  0
  -22.0110  -12.9570   21.9240 N   0  0  0  0  0  0  0  0  0  0  0  0
  -22.3170  -14.6730   20.5360 O   0  0  0  0  0  0  0  0  0  0  0  0
  -22.3740  -12.1280   22.3690 H   0  0  0  0  0  0  0  0  0  0  0  0
  -21.0720  -13.2640   22.1400 H   0  0  0  0  0  0  0  0  0  0  0  0
  -25.3640  -15.3200   20.2470 N   0  0  0  0  0  0  0  0  0  0  0  0
  -24.5760  -15.9490   20.3450 H   0  0  0  0  0  0  0  0  0  0  0  0
  -26.1930  -15.7750   19.8880 H   0  0  0  0  0  0  0  0  0  0  0  0
  -31.7370  -20.6810   19.9630 N   0  0  0  0  0  0  0  0  0  0  0  0
  -31.7070  -21.6790   20.1510 H   0  0  0  0  0  0  0  0  0  0  0  0
  -32.6930  -20.3340   19.9970 H   0  0  0  0  0  0  0  0  0  0  0  0
  -28.5940  -21.6010   20.5710 C   0  0  0  0  0  0  0  0  0  0  0  0
  -27.4450  -21.4870   21.0010 O   0  0  0  0  0  0  0  0  0  0  0  0
  -29.0170  -23.2020   20.2130 C   0  0  0  0  0  2  0  0  0  0  0  0
  -26.8820  -24.4280   21.3880 C   0  0  0  0  0  1  0  0  0  0  0  0
  -28.2820  -24.6700   20.7930 C   0  0  0  0  0  3  0  0  0  0  0  0
  -28.3860  -26.1740   20.2710 O   0  0  0  0  0  0  0  0  0  0  0  0
  -24.6540  -31.8810   23.2250 C   0  0  0  0  0  0  0  0  0  0  0  0
  -27.3120  -27.1620   20.2390 C   0  0  0  0  0  0  0  0  0  0  0  0
  -23.4820  -30.4780   21.5690 C   0  0  0  0  0  3  0  0  0  0  0  0
  -24.9640  -28.9060   20.1640 C   0  0  0  0  0  0  0  0  0  0  0  0
  -26.0300  -30.7610   21.4290 C   0  0  0  0  0  2  0  0  0  0  0  0
  -26.1300  -29.3590   20.7940 C   0  0  0  0  0  0  0  0  0  0  0  0
  -27.3020  -28.5030   20.8160 C   0  0  0  0  0  3  0  0  0  0  0  0
  -26.1280  -26.8350   19.5420 C   0  0  0  0  0  3  0  0  0  0  0  0
  -24.9780  -27.6590   19.5200 C   0  0  0  0  0  3  0  0  0  0  0  0
  -23.7260  -29.7950   20.1940 C   0  0  0  0  0  2  0  0  0  0  0  0
  -24.7420  -31.0630   22.1320 N   0  0  0  0  0  0  0  0  0  0  0  0
  -23.5610  -32.1510   23.7460 O   0  0  0  0  0  0  0  0  0  0  0  0
  -22.7950  -29.4700   22.5260 C   0  0  0  0  0  0  0  0  0  0  0  0
  -21.4650  -29.3080   22.4030 N   0  0  0  0  0  0  0  0  0  0  0  0
  -23.4650  -28.8370   23.3480 O   0  0  0  0  0  0  0  0  0  0  0  0
  -20.9750  -29.8690   21.7170 H   0  0  0  0  0  0  0  0  0  0  0  0
  -18.0820  -28.1170   22.9220 C   0  0  0  0  0  0  0  0  0  0  0  0
  -20.6440  -28.3660   23.1710 C   0  0  0  0  0  3  0  0  0  0  0  0
  -20.7330  -26.9370   22.5840 C   0  0  0  0  0  2  0  0  0  0  0  0
  -19.6240  -26.6300   21.5730 C   0  0  0  0  0  2  0  0  0  0  0  0
  -18.2500  -26.7770   22.2300 C   0  0  0  0  0  2  0  0  0  0  0  0
  -19.2080  -28.8680   23.3530 C   0  0  0  0  0  0  0  0  0  0  0  0
  -18.9960  -30.1220   23.9670 C   0  0  0  0  0  3  0  0  0  0  0  0
  -17.6950  -30.6260   24.1450 C   0  0  0  0  0  3  0  0  0  0  0  0
  -16.5850  -29.8720   23.7300 C   0  0  0  0  0  3  0  0  0  0  0  0
  -16.7800  -28.6190   23.1270 C   0  0  0  0  0  3  0  0  0  0  0  0
  -25.9210  -32.5300   23.8620 C   0  0  0  0  0  3  0  0  0  0  0  0
  -26.4180  -31.7760   25.1550 C   0  0  1  0  0  0  0  0  0  0  0  0
  -25.3110  -31.5460   26.2090 C   0  0  0  0  0  1  0  0  0  0  0  0
  -27.0100  -30.3950   24.7870 C   0  0  0  0  0  1  0  0  0  0  0  0
  -27.5560  -32.5760   25.8310 C   0  0  0  0  0  1  0  0  0  0  0  0
  -25.5950  -33.9290   24.1850 N   0  0  0  0  0  0  0  0  0  0  0  0
  -25.9180  -34.9850   23.4270 C   0  0  0  0  0  0  0  0  0  0  0  0
  -26.5900  -34.8840   22.3980 O   0  0  0  0  0  0  0  0  0  0  0  0
  -25.0080  -34.0760   24.9940 H   0  0  0  0  0  0  0  0  0  0  0  0
  -24.1840  -36.7680   23.0610 C   0  0  0  0  0  1  0  0  0  0  0  0
  -25.4230  -36.3730   23.8800 C   0  0  0  0  0  3  0  0  0  0  0  0
  -27.5470  -37.2750   24.7230 C   0  0  0  0  0  1  0  0  0  0  0  0
  -26.4490  -37.4340   23.7720 N   0  0  0  0  0  0  0  0  0  0  0  0
  -26.0360  -38.3490   23.9150 H   0  0  0  0  0  0  0  0  0  0  0  0
  2  1  1  0
  2 47  1  0
  3 14  1  0
  3  1  2  0
  4  2  2  0
  5  4  1  0
  5  3  1  0
  6 14  1  0
  7 12  1  0
  8  9  1  0
  8  7  1  0
 10  9  1  0
 10 19  1  0
 10 11  1  0
 12  6  1  0
 12 11  1  0
 13  6  2  0
 14 15  1  0
 16 17  2  0
 17 36  1  0
 18 17  1  0
 18 21  1  0
 19 16  1  0
 19 20  1  0
 20 18  2  0
 21 22  1  0
 22 23  2  0
 24 27  1  0
 24 23  1  0
 25 24  2  0
 26 25  1  0
 26 21  2  0
 27 28  1  0
 28 29  1  0
 29 30  2  0
 31 30  1  0
 31 35  1  0
 32 31  2  0
 33 28  2  0
 33 32  1  0
 34 33  1  0
 36 37  1  0
 37 40  1  0
 37 39  1  0
 38 36  2  0
 41 42  1  0
 41 16  1  0
 43 41  1  0
 44 46  1  0
 44  4  1  0
 44 45  1  0
 47 48  2  0
 49 47  1  0
 49 51  1  0
 51 50  1  0
 52 51  1  0
 53 64  2  0
 54 52  1  0
 54 59  1  0
 55 63  1  0
 55 65  1  0
 56 62  1  0
 56 58  1  0
 57 63  1  0
 58 59  2  0
 58 57  1  0
 60 54  2  0
 61 60  1  0
 61 56  2  0
 62 55  1  0
 63 53  1  0
 65 67  2  0
 66 65  1  0
 68 66  1  0
 69 78  2  0
 69 74  1  0
 70 66  1  0
 70 74  1  0
 71 70  1  0
 72 73  1  0
 72 71  1  0
 73 69  1  0
 74 75  2  0
 75 76  1  0
 77 76  2  0
 78 77  1  0
 79 53  1  0
 79 84  1  0
 79 80  1  0
 80 83  1  1
 80 81  1  0
 82 80  1  0
 84 87  1  0
 85 89  1  0
 85 84  1  0
 86 85  2  0
 89 88  1  0
 91 89  1  0
 91 92  1  0
 91 90  1  0
M  ISO  4   6 100  14 100  51 101  52 101
M  END
>  <TORSDO>  (32) 
F 20

>  <SCORE>  (32) 
-14.583

>  <name>  (32) 
31

>  <ligand_id>  (32) 
31

>  <original_smiles>  (32) 
[H]c1c([H])c([H])c2c(c1[H])C([H])([H])C([H])([H])C([H])([H])C2([H])N([H])C(=O)C1([H])N(C(=O)C([H])(N([H])C(=O)C([H])(N([H])C([H])([H])[H])C([H])([H])[H])C(C([H])([H])[H])(C([H])([H])[H])C([H])([H])[H])C([H])([H])c2c([H])c(OC([H])(C([H])([H])[H])C([H])([H])C(=O)c3c(N([H])[H])oc(N([H])C(=O)N4C([H])([H])C([H])([H])C([H])([H])C([H])(n5nc(-c6c([H])c([H])c(Oc7c([H])c([H])c(F)c([H])c7F)c([H])c6[H])c(C(=O)N([H])[H])c5N([H])[H])C4([H])[H])c3[H])c([H])c([H])c2C1([H])[H]

>  <smiles>  (32) 
[H]c1c([H])c([H])c2c(c1[H])C([H])([H])C([H])([H])C([H])([H])C2([H])N([H])C(=O)C1([H])N(C(=O)C([H])(N([H])C(=O)C([H])(N([H])C([H])([H])[H])C([H])([H])[H])C(C([H])([H])[H])(C([H])([H])[H])C([H])([H])[H])C([H])([H])c2c([H])c(OC([H])(C([H])([H])[H])C([H])([H])C(=O)c3c(N([H])[H])oc(N([H])C(=O)N4C([H])([H])C([H])([H])C([H])([H])C([H])(n5nc(-c6c([H])c([H])c(Oc7c([H])c([H])c(F)c([H])c7F)c([H])c6[H])c(C(=O)N([H])[H])c5N([H])[H])C4([H])[H])c3[H])c([H])c([H])c2C1([H])[H]

$$$$
32:0:0
     RDKit          3D

100109  0  0  1  0  0  0  0  0999 V2000
  -28.7830  -21.0300   19.9720 C   0  0  0  0  0  3  0  0  0  0  0  0
  -29.6400  -24.4580   21.4070 C   0  0  0  0  0  2  0  0  0  0  0  0
  -29.6130  -22.8970   21.5510 C   0  0  0  0  0  2  0  0  0  0  0  0
  -28.1430  -23.6340   19.8240 C   0  0  0  0  0  2  0  0  0  0  0  0
  -28.2860  -24.9260   20.8000 C   0  0  1  0  0  0  0  0  0  0  0  0
  -28.8250  -22.3810   20.4200 N   0  0  0  0  0  0  0  0  0  0  0  0
  -27.9740  -20.7980   18.9270 N   0  0  0  0  0  0  0  0  0  0  0  0
  -27.9320  -19.8610   18.5510 H   0  0  0  0  0  0  0  0  0  0  0  0
  -27.4460  -21.5180   18.4600 H   0  0  0  0  0  0  0  0  0  0  0  0
  -27.2640  -24.8920   21.9320 C   0  0  0  0  0  0  0  0  0  0  0  0
  -27.4910  -25.6170   23.0350 N   0  0  0  0  0  0  0  0  0  0  0  0
  -26.1400  -24.1670   21.8490 N   0  0  0  0  0  4  0  0  0  0  0  0
  -28.3180  -26.1880   23.0900 H   0  0  0  0  0  0  0  0  0  0  0  0
  -26.8530  -25.6640   23.8150 H   0  0  0  0  0  0  0  0  0  0  0  0
  -25.9040  -23.6630   21.0100 H   0  0  0  0  0  0  0  0  0  0  0  0
  -25.4680  -24.1390   22.6000 H   0  0  0  0  0  0  0  0  0  0  0  0
  -30.7860  -19.5120   20.9630 C   0  0  0  0  0  3  0  0  0  0  0  0
  -31.0380  -18.0870   20.9970 C   0  0  0  0  0  3  0  0  0  0  0  0
  -29.5440  -19.7710   20.4250 C   0  0  0  0  0  0  0  0  0  0  0  0
  -29.9410  -17.4420   20.4870 C   0  0  0  0  0  0  0  0  0  0  0  0
  -29.0150  -18.4690   20.1390 O   0  0  0  0  0  0  0  0  0  0  0  0
  -30.5700  -14.9130   20.3260 C   0  0  0  0  0  0  0  0  0  0  0  0
  -30.4460  -12.5950   19.3470 C   0  0  0  0  0  2  0  0  0  0  0  0
  -29.4910  -12.5980   18.1310 C   0  0  0  0  0  2  0  0  0  0  0  0
  -28.0280  -12.3990   18.5770 C   0  0  0  0  0  2  0  0  0  0  0  0
  -27.6470  -13.3050   19.7790 C   0  0  0  0  0  3  0  0  0  0  0  0
  -28.7160  -13.2610   20.8910 C   0  0  0  0  0  2  0  0  0  0  0  0
  -29.9850  -13.6590   20.2720 N   0  0  0  0  0  0  0  0  0  0  0  0
  -31.7730  -15.0140   20.0550 O   0  0  0  0  0  0  0  0  0  0  0  0
  -29.7290  -16.0380   20.4210 N   0  0  0  0  0  0  0  0  0  0  0  0
  -28.7540  -15.7800   20.4260 H   0  0  0  0  0  0  0  0  0  0  0  0
  -25.2760  -13.8890   20.5550 C   0  0  0  0  0  0  0  0  0  0  0  0
  -24.2130  -13.1110   20.9270 C   0  0  0  0  0  0  0  0  0  0  0  0
  -24.6740  -11.7590   20.8700 C   0  0  0  0  0  0  0  0  0  0  0  0
  -26.3130  -13.0100   20.2880 N   0  0  0  0  0  0  0  0  0  0  0  0
  -25.9600  -11.7240   20.5430 N   0  0  0  0  0  0  0  0  0  0  0  0
  -23.9460  -10.4970   21.0480 C   0  0  0  0  0  0  0  0  0  0  0  0
  -24.3630   -9.5320   21.9890 C   0  0  0  0  0  3  0  0  0  0  0  0
  -23.6360   -8.3330   22.1550 C   0  0  0  0  0  3  0  0  0  0  0  0
  -22.4760   -8.0930   21.3800 C   0  0  0  0  0  0  0  0  0  0  0  0
  -22.0780   -9.0490   20.4270 C   0  0  0  0  0  3  0  0  0  0  0  0
  -22.8070  -10.2390   20.2600 C   0  0  0  0  0  3  0  0  0  0  0  0
  -21.7210   -6.9490   21.4540 O   0  0  0  0  0  0  0  0  0  0  0  0
  -21.6270   -6.2230   22.6160 C   0  0  0  0  0  0  0  0  0  0  0  0
  -21.1130   -6.7840   23.8040 C   0  0  0  0  0  3  0  0  0  0  0  0
  -20.9690   -5.9830   24.9550 C   0  0  0  0  0  3  0  0  0  0  0  0
  -21.3300   -4.6230   24.9160 C   0  0  0  0  0  0  0  0  0  0  0  0
  -21.8370   -4.0620   23.7310 C   0  0  0  0  0  3  0  0  0  0  0  0
  -21.9830   -4.8600   22.5830 C   0  0  0  0  0  0  0  0  0  0  0  0
  -22.4510   -4.3090   21.4370 F   0  0  0  0  0  0  0  0  0  0  0  0
  -21.1850   -3.8510   26.0190 F   0  0  0  0  0  0  0  0  0  0  0  0
  -22.8210  -13.5890   21.2230 C   0  0  0  0  0  0  0  0  0  0  0  0
  -22.0990  -12.8750   22.0770 N   0  0  0  0  0  0  0  0  0  0  0  0
  -22.3840  -14.6280   20.7310 O   0  0  0  0  0  0  0  0  0  0  0  0
  -22.4650  -12.0290   22.4910 H   0  0  0  0  0  0  0  0  0  0  0  0
  -21.1670  -13.1760   22.3220 H   0  0  0  0  0  0  0  0  0  0  0  0
  -25.4370  -15.2620   20.3960 N   0  0  0  0  0  0  0  0  0  0  0  0
  -24.6610  -15.9050   20.5180 H   0  0  0  0  0  0  0  0  0  0  0  0
  -26.2620  -15.7100   20.0210 H   0  0  0  0  0  0  0  0  0  0  0  0
  -28.4060  -26.3730   20.3120 O   0  0  0  0  0  0  0  0  0  0  0  0
  -24.6260  -31.8980   23.2250 C   0  0  0  0  0  0  0  0  0  0  0  0
  -27.2960  -27.2600   20.2620 C   0  0  0  0  0  0  0  0  0  0  0  0
  -23.4520  -30.4730   21.5880 C   0  0  0  0  0  3  0  0  0  0  0  0
  -24.9290  -28.9120   20.1890 C   0  0  0  0  0  0  0  0  0  0  0  0
  -25.9970  -30.7950   21.4270 C   0  0  0  0  0  2  0  0  0  0  0  0
  -26.0910  -29.4030   20.7960 C   0  0  0  0  0  0  0  0  0  0  0  0
  -27.2770  -28.5930   20.8120 C   0  0  0  0  0  3  0  0  0  0  0  0
  -26.1110  -26.8430   19.6230 C   0  0  0  0  0  3  0  0  0  0  0  0
  -24.9480  -27.6440   19.5850 C   0  0  0  0  0  3  0  0  0  0  0  0
  -23.6840  -29.7840   20.2160 C   0  0  0  0  0  2  0  0  0  0  0  0
  -24.7100  -31.0780   22.1340 N   0  0  0  0  0  0  0  0  0  0  0  0
  -23.5350  -32.1690   23.7470 O   0  0  0  0  0  0  0  0  0  0  0  0
  -22.7860  -29.4640   22.5560 C   0  0  0  0  0  0  0  0  0  0  0  0
  -21.4600  -29.2780   22.4270 N   0  0  0  0  0  0  0  0  0  0  0  0
  -23.4660  -28.8470   23.3800 O   0  0  0  0  0  0  0  0  0  0  0  0
  -20.9690  -29.8230   21.7330 H   0  0  0  0  0  0  0  0  0  0  0  0
  -18.0840  -28.0770   22.9430 C   0  0  0  0  0  0  0  0  0  0  0  0
  -20.6470  -28.3370   23.2010 C   0  0  0  0  0  3  0  0  0  0  0  0
  -20.7450  -26.9070   22.6220 C   0  0  0  0  0  2  0  0  0  0  0  0
  -19.6380  -26.5840   21.6120 C   0  0  0  0  0  2  0  0  0  0  0  0
  -18.2590  -26.7310   22.2620 C   0  0  0  0  0  2  0  0  0  0  0  0
  -19.2060  -28.8390   23.3670 C   0  0  0  0  0  0  0  0  0  0  0  0
  -18.9890  -30.1020   23.9620 C   0  0  0  0  0  3  0  0  0  0  0  0
  -17.6830  -30.6000   24.1400 C   0  0  0  0  0  3  0  0  0  0  0  0
  -16.5780  -29.8340   23.7340 C   0  0  0  0  0  3  0  0  0  0  0  0
  -16.7790  -28.5750   23.1400 C   0  0  0  0  0  3  0  0  0  0  0  0
  -25.8960  -32.5530   23.8550 C   0  0  0  0  0  3  0  0  0  0  0  0
  -25.5690  -33.9530   24.1710 N   0  0  0  0  0  0  0  0  0  0  0  0
  -25.9040  -35.0050   23.4130 C   0  0  0  0  0  0  0  0  0  0  0  0
  -26.5880  -34.9020   22.3930 O   0  0  0  0  0  0  0  0  0  0  0  0
  -24.9740  -34.1120   24.9720 H   0  0  0  0  0  0  0  0  0  0  0  0
  -24.1820  -36.7940   23.0150 C   0  0  0  0  0  1  0  0  0  0  0  0
  -25.4010  -36.3920   23.8580 C   0  0  0  0  0  3  0  0  0  0  0  0
  -27.5060  -37.2900   24.7520 C   0  0  0  0  0  1  0  0  0  0  0  0
  -26.4330  -37.4490   23.7740 N   0  0  0  0  0  0  0  0  0  0  0  0
  -26.0150  -38.3660   23.9060 H   0  0  0  0  0  0  0  0  0  0  0  0
  -26.4090  -31.8040   25.1460 C   0  0  1  0  0  0  0  0  0  0  0  0
  -25.3070  -31.5600   26.2030 C   0  0  0  0  0  1  0  0  0  0  0  0
  -27.0190  -30.4310   24.7790 C   0  0  0  0  0  1  0  0  0  0  0  0
  -27.5410  -32.6230   25.8120 C   0  0  0  0  0  1  0  0  0  0  0  0
  1  7  1  0
  1  6  1  0
  1 19  1  0
  2  3  1  0
  4  6  1  0
  4  5  1  0
  5 60  1  6
  5  2  1  0
  5 10  1  0
  6  3  1  0
  8  7  1  0
  9  7  1  0
 10 11  1  0
 11 13  1  0
 11 14  1  0
 12 10  2  0
 12 16  1  0
 15 12  1  0
 17 18  1  0
 19 17  2  0
 20 18  2  0
 21 19  1  0
 21 20  1  0
 22 30  1  0
 23 28  1  0
 24 25  1  0
 24 23  1  0
 26 25  1  0
 26 35  1  0
 26 27  1  0
 28 22  1  0
 28 27  1  0
 29 22  2  0
 30 31  1  0
 30 20  1  0
 32 33  2  0
 33 52  1  0
 34 33  1  0
 34 37  1  0
 35 36  1  0
 35 32  1  0
 36 34  2  0
 37 38  1  0
 38 39  2  0
 40 43  1  0
 40 39  1  0
 41 40  2  0
 42 41  1  0
 42 37  2  0
 43 44  1  0
 44 45  1  0
 45 46  2  0
 47 46  1  0
 47 51  1  0
 48 47  2  0
 49 44  2  0
 49 48  1  0
 50 49  1  0
 52 53  1  0
 53 56  1  0
 53 55  1  0
 54 52  2  0
 57 58  1  0
 57 32  1  0
 59 57  1  0
 61 72  2  0
 62 60  1  0
 62 67  1  0
 63 71  1  0
 63 73  1  0
 64 70  1  0
 64 66  1  0
 65 71  1  0
 66 67  2  0
 66 65  1  0
 68 62  2  0
 69 68  1  0
 69 64  2  0
 70 63  1  0
 71 61  1  0
 73 75  2  0
 74 73  1  0
 76 74  1  0
 77 86  2  0
 77 82  1  0
 78 74  1  0
 78 82  1  0
 79 78  1  0
 80 81  1  0
 80 79  1  0
 81 77  1  0
 82 83  2  0
 83 84  1  0
 85 84  2  0
 86 85  1  0
 87 61  1  0
 87 88  1  0
 87 97  1  0
 88 91  1  0
 89 93  1  0
 89 88  1  0
 90 89  2  0
 93 92  1  0
 95 93  1  0
 95 96  1  0
 95 94  1  0
 97100  1  1
 97 98  1  0
 99 97  1  0
M  ISO  4   5 101  22 100  30 100  60 101
M  END
>  <TORSDO>  (33) 
F 18

>  <SCORE>  (33) 
-15.319

>  <name>  (33) 
32

>  <ligand_id>  (33) 
32

>  <original_smiles>  (33) 
[H]c1c(C(N2C([H])([H])C([H])([H])C(Oc3c([H])c([H])c4c(c3[H])C([H])([H])N(C(=O)C([H])(N([H])C(=O)C([H])(N([H])C([H])([H])[H])C([H])([H])[H])C(C([H])([H])[H])(C([H])([H])[H])C([H])([H])[H])C([H])(C(=O)N([H])C3([H])c5c([H])c([H])c([H])c([H])c5C([H])([H])C([H])([H])C3([H])[H])C4([H])[H])(C(N([H])[H])=[N+]([H])[H])C2([H])[H])=[N+]([H])[H])oc(N([H])C(=O)N2C([H])([H])C([H])([H])C([H])([H])C([H])(n3nc(-c4c([H])c([H])c(Oc5c([H])c([H])c(F)c([H])c5F)c([H])c4[H])c(C(=O)N([H])[H])c3N([H])[H])C2([H])[H])c1[H]

>  <smiles>  (33) 
[H]c1c(C(N2C([H])([H])C([H])([H])C(Oc3c([H])c([H])c4c(c3[H])C([H])([H])N(C(=O)C([H])(N([H])C(=O)C([H])(N([H])C([H])([H])[H])C([H])([H])[H])C(C([H])([H])[H])(C([H])([H])[H])C([H])([H])[H])C([H])(C(=O)N([H])C3([H])c5c([H])c([H])c([H])c([H])c5C([H])([H])C([H])([H])C3([H])[H])C4([H])[H])(C(N([H])[H])=[N+]([H])[H])C2([H])[H])=[N+]([H])[H])oc(N([H])C(=O)N2C([H])([H])C([H])([H])C([H])([H])C([H])(n3nc(-c4c([H])c([H])c(Oc5c([H])c([H])c(F)c([H])c5F)c([H])c4[H])c(C(=O)N([H])[H])c3N([H])[H])C2([H])[H])c1[H]

$$$$
33:0:0
     RDKit          3D

 90 98  0  0  1  0  0  0  0  0999 V2000
  -29.0750  -22.4490   20.6940 C   0  0  0  0  0  2  0  0  0  0  0  0
  -28.6400  -23.8190   19.9760 C   0  0  0  0  0  0  0  0  0  0  0  0
  -28.6130  -23.8590   18.7410 O   0  0  0  0  0  0  0  0  0  0  0  0
  -28.2140  -25.1090   20.8160 C   0  0  0  0  0  2  0  0  0  0  0  0
  -28.3510  -26.4590   20.1860 O   0  0  0  0  0  0  0  0  0  0  0  0
  -24.6060  -31.8800   23.2320 C   0  0  0  0  0  0  0  0  0  0  0  0
  -27.2330  -27.3120   20.1930 C   0  0  0  0  0  0  0  0  0  0  0  0
  -23.4070  -30.4770   21.5910 C   0  0  0  0  0  3  0  0  0  0  0  0
  -24.8640  -28.9210   20.1730 C   0  0  0  0  0  0  0  0  0  0  0  0
  -25.9460  -30.8000   21.4080 C   0  0  0  0  0  2  0  0  0  0  0  0
  -26.0320  -29.4170   20.7660 C   0  0  0  0  0  0  0  0  0  0  0  0
  -27.2230  -28.6280   20.7590 C   0  0  0  0  0  3  0  0  0  0  0  0
  -26.0430  -26.8660   19.5830 C   0  0  0  0  0  3  0  0  0  0  0  0
  -24.8720  -27.6520   19.5700 C   0  0  0  0  0  3  0  0  0  0  0  0
  -23.6260  -29.7950   20.2140 C   0  0  0  0  0  2  0  0  0  0  0  0
  -24.6730  -31.0700   22.1340 N   0  0  0  0  0  0  0  0  0  0  0  0
  -23.5220  -32.1550   23.7660 O   0  0  0  0  0  0  0  0  0  0  0  0
  -22.7440  -29.4630   22.5530 C   0  0  0  0  0  0  0  0  0  0  0  0
  -21.4170  -29.2910   22.4330 N   0  0  0  0  0  0  0  0  0  0  0  0
  -23.4230  -28.8330   23.3690 O   0  0  0  0  0  0  0  0  0  0  0  0
  -20.9270  -29.8510   21.7480 H   0  0  0  0  0  0  0  0  0  0  0  0
  -18.0380  -28.1030   22.9420 C   0  0  0  0  0  0  0  0  0  0  0  0
  -20.5980  -28.3550   23.2040 C   0  0  0  0  0  3  0  0  0  0  0  0
  -20.6940  -26.9240   22.6250 C   0  0  0  0  0  2  0  0  0  0  0  0
  -19.5870  -26.6060   21.6150 C   0  0  0  0  0  2  0  0  0  0  0  0
  -18.2080  -26.7540   22.2630 C   0  0  0  0  0  2  0  0  0  0  0  0
  -19.1600  -28.8610   23.3700 C   0  0  0  0  0  0  0  0  0  0  0  0
  -18.9460  -30.1230   23.9650 C   0  0  0  0  0  3  0  0  0  0  0  0
  -17.6430  -30.6270   24.1370 C   0  0  0  0  0  3  0  0  0  0  0  0
  -16.5360  -29.8660   23.7250 C   0  0  0  0  0  3  0  0  0  0  0  0
  -16.7340  -28.6060   23.1340 C   0  0  0  0  0  3  0  0  0  0  0  0
  -25.8870  -32.5160   23.8560 C   0  0  0  0  0  3  0  0  0  0  0  0
  -26.4000  -31.7480   25.1360 C   0  0  1  0  0  0  0  0  0  0  0  0
  -25.3060  -31.5160   26.2030 C   0  0  0  0  0  1  0  0  0  0  0  0
  -26.9830  -30.3680   24.7490 C   0  0  0  0  0  1  0  0  0  0  0  0
  -27.5510  -32.5420   25.7970 C   0  0  0  0  0  1  0  0  0  0  0  0
  -25.5760  -33.9140   24.1840 N   0  0  0  0  0  0  0  0  0  0  0  0
  -25.9100  -34.9670   23.4260 C   0  0  0  0  0  0  0  0  0  0  0  0
  -26.5830  -34.8630   22.3960 O   0  0  0  0  0  0  0  0  0  0  0  0
  -24.9800  -34.0700   24.9840 H   0  0  0  0  0  0  0  0  0  0  0  0
  -24.1860  -36.7620   23.0650 C   0  0  0  0  0  1  0  0  0  0  0  0
  -25.4220  -36.3560   23.8820 C   0  0  0  0  0  3  0  0  0  0  0  0
  -27.5550  -37.2390   24.7220 C   0  0  0  0  0  1  0  0  0  0  0  0
  -26.4570  -37.4080   23.7730 N   0  0  0  0  0  0  0  0  0  0  0  0
  -26.0510  -38.3290   23.9200 H   0  0  0  0  0  0  0  0  0  0  0  0
  -28.7950  -21.1310   19.9990 N   0  0  0  0  0  0  0  0  0  0  0  0
  -27.8980  -21.1280   19.5170 H   0  0  0  0  0  0  0  0  0  0  0  0
  -30.5700  -14.7430   20.3630 C   0  0  0  0  0  0  0  0  0  0  0  0
  -30.4060  -12.4730   19.3300 C   0  0  0  0  0  2  0  0  0  0  0  0
  -29.4500  -12.5560   18.1180 C   0  0  0  0  0  2  0  0  0  0  0  0
  -27.9820  -12.3770   18.5580 C   0  0  0  0  0  2  0  0  0  0  0  0
  -27.6170  -13.2540   19.7850 C   0  0  0  0  0  3  0  0  0  0  0  0
  -28.6850  -13.1360   20.8960 C   0  0  0  0  0  2  0  0  0  0  0  0
  -29.9800  -13.5010   20.3030 N   0  0  0  0  0  0  0  0  0  0  0  0
  -31.7490  -14.8920   20.0230 O   0  0  0  0  0  0  0  0  0  0  0  0
  -30.6240  -19.4380   20.7470 C   0  0  0  0  0  3  0  0  0  0  0  0
  -29.3680  -19.8300   20.2980 C   0  0  0  0  0  0  0  0  0  0  0  0
  -29.8030  -17.2670   20.4870 C   0  0  0  0  0  0  0  0  0  0  0  0
  -30.8580  -18.0280   20.8360 N   0  0  0  0  0  0  0  0  0  0  0  0
  -29.7110  -15.7990   20.5980 N   0  0  0  0  0  0  0  0  0  0  0  0
  -28.4350  -18.3360   20.0150 S   0  0  0  0  0  0  0  0  0  0  0  0
  -28.7700  -15.4760   20.7540 H   0  0  0  0  0  0  0  0  0  0  0  0
  -25.2300  -13.8450   20.5240 C   0  0  0  0  0  0  0  0  0  0  0  0
  -24.1690  -13.0690   20.9020 C   0  0  0  0  0  0  0  0  0  0  0  0
  -24.6350  -11.7190   20.8680 C   0  0  0  0  0  0  0  0  0  0  0  0
  -26.2750  -12.9670   20.2810 N   0  0  0  0  0  0  0  0  0  0  0  0
  -25.9230  -11.6840   20.5510 N   0  0  0  0  0  0  0  0  0  0  0  0
  -23.9130  -10.4550   21.0610 C   0  0  0  0  0  0  0  0  0  0  0  0
  -24.3610   -9.4820   21.9820 C   0  0  0  0  0  3  0  0  0  0  0  0
  -23.6390   -8.2830   22.1630 C   0  0  0  0  0  3  0  0  0  0  0  0
  -22.4560   -8.0480   21.4230 C   0  0  0  0  0  0  0  0  0  0  0  0
  -22.0270   -9.0090   20.4920 C   0  0  0  0  0  3  0  0  0  0  0  0
  -22.7500  -10.2000   20.3090 C   0  0  0  0  0  3  0  0  0  0  0  0
  -21.7050   -6.9010   21.5160 O   0  0  0  0  0  0  0  0  0  0  0  0
  -21.6830   -6.1450   22.6600 C   0  0  0  0  0  0  0  0  0  0  0  0
  -21.2880   -6.6840   23.9030 C   0  0  0  0  0  3  0  0  0  0  0  0
  -21.2130   -5.8540   25.0390 C   0  0  0  0  0  3  0  0  0  0  0  0
  -21.5240   -4.4850   24.9340 C   0  0  0  0  0  0  0  0  0  0  0  0
  -21.9120   -3.9450   23.6960 C   0  0  0  0  0  3  0  0  0  0  0  0
  -21.9890   -4.7720   22.5610 C   0  0  0  0  0  0  0  0  0  0  0  0
  -22.3430   -4.2420   21.3660 F   0  0  0  0  0  0  0  0  0  0  0  0
  -21.4450   -3.6860   26.0230 F   0  0  0  0  0  0  0  0  0  0  0  0
  -22.7710  -13.5420   21.1820 C   0  0  0  0  0  0  0  0  0  0  0  0
  -22.0490  -12.8420   22.0500 N   0  0  0  0  0  0  0  0  0  0  0  0
  -22.3280  -14.5670   20.6640 O   0  0  0  0  0  0  0  0  0  0  0  0
  -22.4200  -12.0130   22.4900 H   0  0  0  0  0  0  0  0  0  0  0  0
  -21.1120  -13.1410   22.2790 H   0  0  0  0  0  0  0  0  0  0  0  0
  -25.3870  -15.2160   20.3430 N   0  0  0  0  0  0  0  0  0  0  0  0
  -24.6080  -15.8570   20.4440 H   0  0  0  0  0  0  0  0  0  0  0  0
  -26.2030  -15.6540   19.9360 H   0  0  0  0  0  0  0  0  0  0  0  0
  2  1  1  0
  2  4  1  0
  3  2  2  0
  5  7  1  0
  5  4  1  0
  6 17  2  0
  7 12  1  0
  8 16  1  0
  8 18  1  0
  9 15  1  0
  9 11  1  0
 10 16  1  0
 11 10  1  0
 12 11  2  0
 13  7  2  0
 14 13  1  0
 14  9  2  0
 15  8  1  0
 16  6  1  0
 18 20  2  0
 19 18  1  0
 21 19  1  0
 22 31  2  0
 22 27  1  0
 23 19  1  0
 23 27  1  0
 24 23  1  0
 25 26  1  0
 25 24  1  0
 26 22  1  0
 27 28  2  0
 28 29  1  0
 30 29  2  0
 31 30  1  0
 32  6  1  0
 32 37  1  0
 32 33  1  0
 33 36  1  1
 33 34  1  0
 35 33  1  0
 37 40  1  0
 38 42  1  0
 38 37  1  0
 39 38  2  0
 42 41  1  0
 44 42  1  0
 44 45  1  0
 44 43  1  0
 46 57  1  0
 46  1  1  0
 47 46  1  0
 48 60  1  0
 49 54  1  0
 50 51  1  0
 50 49  1  0
 52 51  1  0
 52 66  1  0
 52 53  1  0
 54 48  1  0
 54 53  1  0
 55 48  2  0
 56 59  1  0
 57 56  2  0
 58 60  1  0
 58 59  2  0
 60 62  1  0
 61 57  1  0
 61 58  1  0
 63 64  2  0
 64 83  1  0
 65 64  1  0
 65 68  1  0
 66 63  1  0
 66 67  1  0
 67 65  2  0
 68 69  1  0
 69 70  2  0
 71 74  1  0
 71 70  1  0
 72 71  2  0
 73 72  1  0
 73 68  2  0
 74 75  1  0
 75 76  1  0
 76 77  2  0
 78 77  1  0
 78 82  1  0
 79 78  2  0
 80 75  2  0
 80 79  1  0
 81 80  1  0
 83 84  1  0
 84 87  1  0
 84 86  1  0
 85 83  2  0
 88 89  1  0
 88 63  1  0
 90 88  1  0
M  ISO  4   4 101   5 101  48 100  60 100
M  END
>  <TORSDO>  (34) 
F 19

>  <SCORE>  (34) 
-14.279

>  <name>  (34) 
33

>  <ligand_id>  (34) 
33

>  <original_smiles>  (34) 
[H]c1nc(N([H])C(=O)N2C([H])([H])C([H])([H])C([H])([H])C([H])(n3nc(-c4c([H])c([H])c(Oc5c([H])c([H])c(F)c([H])c5F)c([H])c4[H])c(C(=O)N([H])[H])c3N([H])[H])C2([H])[H])sc1N([H])C([H])([H])C(=O)C([H])([H])Oc1c([H])c([H])c2c(c1[H])C([H])([H])N(C(=O)C([H])(N([H])C(=O)C([H])(N([H])C([H])([H])[H])C([H])([H])[H])C(C([H])([H])[H])(C([H])([H])[H])C([H])([H])[H])C([H])(C(=O)N([H])C1([H])c3c([H])c([H])c([H])c([H])c3C([H])([H])C([H])([H])C1([H])[H])C2([H])[H]

>  <smiles>  (34) 
[H]c1nc(N([H])C(=O)N2C([H])([H])C([H])([H])C([H])([H])C([H])(n3nc(-c4c([H])c([H])c(Oc5c([H])c([H])c(F)c([H])c5F)c([H])c4[H])c(C(=O)N([H])[H])c3N([H])[H])C2([H])[H])sc1N([H])C([H])([H])C(=O)C([H])([H])Oc1c([H])c([H])c2c(c1[H])C([H])([H])N(C(=O)C([H])(N([H])C(=O)C([H])(N([H])C([H])([H])[H])C([H])([H])[H])C(C([H])([H])[H])(C([H])([H])[H])C([H])([H])[H])C([H])(C(=O)N([H])C1([H])c3c([H])c([H])c([H])c([H])c3C([H])([H])C([H])([H])C1([H])[H])C2([H])[H]

$$$$
34:0:0
     RDKit          3D

 99108  0  0  1  0  0  0  0  0999 V2000
  -27.8810  -23.5790   18.3550 C   0  0  0  0  0  3  0  0  0  0  0  0
  -28.4810  -24.3350   19.2840 C   0  0  0  0  0  0  0  0  0  0  0  0
  -28.8730  -20.0360   19.1130 C   0  0  0  0  0  3  0  0  0  0  0  0
  -27.7120  -22.0790   18.4210 C   0  0  0  0  0  2  0  0  0  0  0  0
  -29.0170  -23.6940   20.5600 C   0  0  0  0  0  3  0  0  0  0  0  0
  -29.1800  -22.1230   20.5450 C   0  0  0  0  0  3  0  0  0  0  0  0
  -28.6630  -21.3840   19.3440 N   0  0  0  0  0  0  0  0  0  0  0  0
  -28.1180  -19.4300   18.1680 N   0  0  0  0  0  0  0  0  0  0  0  0
  -28.2710  -18.4710   17.8960 H   0  0  0  0  0  0  0  0  0  0  0  0
  -27.3960  -19.9320   17.6730 H   0  0  0  0  0  0  0  0  0  0  0  0
  -29.4100  -17.8610   20.2310 C   0  0  0  0  0  3  0  0  0  0  0  0
  -31.6730  -17.3560   20.8820 C   0  0  0  0  0  3  0  0  0  0  0  0
  -29.8430  -19.1450   19.8050 C   0  0  0  0  0  0  0  0  0  0  0  0
  -30.3460  -16.9120   20.7050 C   0  0  0  0  0  0  0  0  0  0  0  0
  -31.2300  -19.4110   19.9170 C   0  0  0  0  0  0  0  0  0  0  0  0
  -32.1070  -18.5750   20.4990 N   0  0  0  0  0  0  0  0  0  0  0  0
  -31.8420  -20.5150   19.3390 N   0  0  0  0  0  0  0  0  0  0  0  0
  -31.4580  -20.8420   18.4620 H   0  0  0  0  0  0  0  0  0  0  0  0
  -32.8560  -20.4780   19.3020 H   0  0  0  0  0  0  0  0  0  0  0  0
  -30.6600  -14.4770   20.4910 C   0  0  0  0  0  0  0  0  0  0  0  0
  -30.3310  -12.3210   19.3480 C   0  0  0  0  0  2  0  0  0  0  0  0
  -29.3880  -12.5200   18.1420 C   0  0  0  0  0  2  0  0  0  0  0  0
  -27.9160  -12.4020   18.5770 C   0  0  0  0  0  2  0  0  0  0  0  0
  -27.5840  -13.2430   19.8420 C   0  0  0  0  0  3  0  0  0  0  0  0
  -28.6460  -13.0290   20.9450 C   0  0  0  0  0  2  0  0  0  0  0  0
  -29.9650  -13.3170   20.3650 N   0  0  0  0  0  0  0  0  0  0  0  0
  -31.8100  -14.6000   20.0610 O   0  0  0  0  0  0  0  0  0  0  0  0
  -29.9630  -15.5460   20.9260 N   0  0  0  0  0  0  0  0  0  0  0  0
  -28.9940  -15.3630   21.1450 H   0  0  0  0  0  0  0  0  0  0  0  0
  -25.1880  -13.8560   20.5590 C   0  0  0  0  0  0  0  0  0  0  0  0
  -24.1150  -13.0860   20.9200 C   0  0  0  0  0  0  0  0  0  0  0  0
  -24.5680  -11.7310   20.8860 C   0  0  0  0  0  0  0  0  0  0  0  0
  -26.2310  -12.9720   20.3260 N   0  0  0  0  0  0  0  0  0  0  0  0
  -25.8620  -11.6880   20.5830 N   0  0  0  0  0  0  0  0  0  0  0  0
  -23.8330  -10.4710   21.0740 C   0  0  0  0  0  0  0  0  0  0  0  0
  -24.2650   -9.4980   22.0010 C   0  0  0  0  0  3  0  0  0  0  0  0
  -23.5340   -8.3040   22.1770 C   0  0  0  0  0  3  0  0  0  0  0  0
  -22.3580   -8.0740   21.4250 C   0  0  0  0  0  0  0  0  0  0  0  0
  -21.9440   -9.0370   20.4880 C   0  0  0  0  0  3  0  0  0  0  0  0
  -22.6750  -10.2220   20.3100 C   0  0  0  0  0  3  0  0  0  0  0  0
  -21.6020   -6.9300   21.5080 O   0  0  0  0  0  0  0  0  0  0  0  0
  -21.5610   -6.1740   22.6520 C   0  0  0  0  0  0  0  0  0  0  0  0
  -21.1470   -6.7170   23.8870 C   0  0  0  0  0  3  0  0  0  0  0  0
  -21.0510   -5.8910   25.0240 C   0  0  0  0  0  3  0  0  0  0  0  0
  -21.3610   -4.5230   24.9270 C   0  0  0  0  0  0  0  0  0  0  0  0
  -21.7740   -3.9770   23.6990 C   0  0  0  0  0  3  0  0  0  0  0  0
  -21.8710   -4.8000   22.5610 C   0  0  0  0  0  0  0  0  0  0  0  0
  -22.2440   -4.2670   21.3760 F   0  0  0  0  0  0  0  0  0  0  0  0
  -21.2590   -3.7250   26.0160 F   0  0  0  0  0  0  0  0  0  0  0  0
  -22.7170  -13.5710   21.1790 C   0  0  0  0  0  0  0  0  0  0  0  0
  -21.9770  -12.8840   22.0400 N   0  0  0  0  0  0  0  0  0  0  0  0
  -22.2900  -14.5970   20.6490 O   0  0  0  0  0  0  0  0  0  0  0  0
  -22.3360  -12.0630   22.5010 H   0  0  0  0  0  0  0  0  0  0  0  0
  -21.0380  -13.1980   22.2460 H   0  0  0  0  0  0  0  0  0  0  0  0
  -25.3520  -15.2260   20.3860 N   0  0  0  0  0  0  0  0  0  0  0  0
  -24.5780  -15.8740   20.5000 H   0  0  0  0  0  0  0  0  0  0  0  0
  -26.1870  -15.6650   20.0220 H   0  0  0  0  0  0  0  0  0  0  0  0
  -28.6830  -25.8410   19.0510 C   0  0  0  0  0  2  0  0  0  0  0  0
  -28.3790  -26.7020   20.1570 O   0  0  0  0  0  0  0  0  0  0  0  0
  -24.5750  -31.8860   23.2370 C   0  0  0  0  0  0  0  0  0  0  0  0
  -27.2010  -27.4270   20.1400 C   0  0  0  0  0  0  0  0  0  0  0  0
  -23.3600  -30.4860   21.5990 C   0  0  0  0  0  3  0  0  0  0  0  0
  -24.8060  -28.9420   20.1700 C   0  0  0  0  0  0  0  0  0  0  0  0
  -25.8900  -30.8300   21.4020 C   0  0  0  0  0  2  0  0  0  0  0  0
  -25.9660  -29.4580   20.7610 C   0  0  0  0  0  0  0  0  0  0  0  0
  -27.1620  -28.7020   20.7540 C   0  0  0  0  0  3  0  0  0  0  0  0
  -26.0180  -26.9220   19.5550 C   0  0  0  0  0  3  0  0  0  0  0  0
  -24.8270  -27.6750   19.5650 C   0  0  0  0  0  3  0  0  0  0  0  0
  -23.5630  -29.8070   20.2180 C   0  0  0  0  0  2  0  0  0  0  0  0
  -24.6270  -31.0850   22.1350 N   0  0  0  0  0  0  0  0  0  0  0  0
  -23.4970  -32.1610   23.7820 O   0  0  0  0  0  0  0  0  0  0  0  0
  -22.7110  -29.4670   22.5620 C   0  0  0  0  0  0  0  0  0  0  0  0
  -21.3850  -29.2880   22.4380 N   0  0  0  0  0  0  0  0  0  0  0  0
  -23.3960  -28.8400   23.3750 O   0  0  0  0  0  0  0  0  0  0  0  0
  -20.8980  -29.8420   21.7480 H   0  0  0  0  0  0  0  0  0  0  0  0
  -18.0070  -28.1150   22.9540 C   0  0  0  0  0  0  0  0  0  0  0  0
  -20.5680  -28.3550   23.2120 C   0  0  0  0  0  3  0  0  0  0  0  0
  -20.6590  -26.9250   22.6350 C   0  0  0  0  0  2  0  0  0  0  0  0
  -19.5490  -26.6110   21.6250 C   0  0  0  0  0  2  0  0  0  0  0  0
  -18.1710  -26.7660   22.2750 C   0  0  0  0  0  2  0  0  0  0  0  0
  -19.1340  -28.8680   23.3800 C   0  0  0  0  0  0  0  0  0  0  0  0
  -18.9270  -30.1310   23.9760 C   0  0  0  0  0  3  0  0  0  0  0  0
  -17.6270  -30.6430   24.1480 C   0  0  0  0  0  3  0  0  0  0  0  0
  -16.5150  -29.8870   23.7370 C   0  0  0  0  0  3  0  0  0  0  0  0
  -16.7060  -28.6240   23.1470 C   0  0  0  0  0  3  0  0  0  0  0  0
  -25.8660  -32.5130   23.8540 C   0  0  0  0  0  3  0  0  0  0  0  0
  -25.5640  -33.9110   24.1820 N   0  0  0  0  0  0  0  0  0  0  0  0
  -25.9050  -34.9620   23.4240 C   0  0  0  0  0  0  0  0  0  0  0  0
  -26.5780  -34.8540   22.3940 O   0  0  0  0  0  0  0  0  0  0  0  0
  -24.9670  -34.0690   24.9810 H   0  0  0  0  0  0  0  0  0  0  0  0
  -24.1900  -36.7620   23.0530 C   0  0  0  0  0  1  0  0  0  0  0  0
  -25.4210  -36.3520   23.8770 C   0  0  0  0  0  3  0  0  0  0  0  0
  -27.5530  -37.2180   24.7300 C   0  0  0  0  0  1  0  0  0  0  0  0
  -26.4610  -37.3980   23.7770 N   0  0  0  0  0  0  0  0  0  0  0  0
  -26.0590  -38.3200   23.9240 H   0  0  0  0  0  0  0  0  0  0  0  0
  -26.3870  -31.7410   25.1280 C   0  0  1  0  0  0  0  0  0  0  0  0
  -25.2980  -31.5110   26.2010 C   0  0  0  0  0  1  0  0  0  0  0  0
  -26.9670  -30.3610   24.7380 C   0  0  0  0  0  1  0  0  0  0  0  0
  -27.5440  -32.5330   25.7800 C   0  0  0  0  0  1  0  0  0  0  0  0
  1  4  1  0
  1  2  2  0
  2  5  1  0
  3  8  1  0
  3  7  1  0
  3 13  1  0
  4  7  1  0
  6  5  2  0
  7  6  1  0
  9  8  1  0
 10  8  1  0
 11 14  1  0
 13 15  1  0
 13 11  2  0
 14 12  2  0
 14 28  1  0
 15 16  2  0
 16 12  1  0
 17 15  1  0
 18 17  1  0
 19 17  1  0
 20 28  1  0
 21 26  1  0
 22 23  1  0
 22 21  1  0
 24 23  1  0
 24 33  1  0
 24 25  1  0
 26 20  1  0
 26 25  1  0
 27 20  2  0
 28 29  1  0
 30 31  2  0
 31 50  1  0
 32 31  1  0
 32 35  1  0
 33 30  1  0
 33 34  1  0
 34 32  2  0
 35 36  1  0
 36 37  2  0
 38 41  1  0
 38 37  1  0
 39 38  2  0
 40 39  1  0
 40 35  2  0
 41 42  1  0
 42 43  1  0
 43 44  2  0
 45 44  1  0
 45 49  1  0
 46 45  2  0
 47 42  2  0
 47 46  1  0
 48 47  1  0
 50 51  1  0
 51 54  1  0
 51 53  1  0
 52 50  2  0
 55 56  1  0
 55 30  1  0
 57 55  1  0
 58  2  1  0
 58 59  1  0
 60 71  2  0
 61 59  1  0
 61 66  1  0
 62 70  1  0
 62 72  1  0
 63 69  1  0
 63 65  1  0
 64 70  1  0
 65 64  1  0
 66 65  2  0
 67 68  1  0
 67 61  2  0
 68 63  2  0
 69 62  1  0
 70 60  1  0
 72 74  2  0
 73 72  1  0
 75 73  1  0
 76 85  2  0
 76 81  1  0
 77 73  1  0
 77 81  1  0
 78 77  1  0
 79 80  1  0
 79 78  1  0
 80 76  1  0
 81 82  2  0
 82 83  1  0
 84 83  2  0
 85 84  1  0
 86 60  1  0
 86 87  1  0
 86 96  1  0
 87 90  1  0
 88 92  1  0
 88 87  1  0
 89 88  2  0
 92 91  1  0
 94 92  1  0
 94 95  1  0
 94 93  1  0
 96 99  1  1
 96 97  1  0
 98 96  1  0
M  ISO  4  20 100  28 100  58 101  59 101
M  END
>  <TORSDO>  (35) 
F 18

>  <SCORE>  (35) 
-15.019

>  <name>  (35) 
34

>  <ligand_id>  (35) 
34

>  <original_smiles>  (35) 
[H]C1=C(C([H])([H])Oc2c([H])c([H])c3c(c2[H])C([H])([H])N(C(=O)C([H])(N([H])C(=O)C([H])(N([H])C([H])([H])[H])C([H])([H])[H])C(C([H])([H])[H])(C([H])([H])[H])C([H])([H])[H])C([H])(C(=O)N([H])C2([H])c4c([H])c([H])c([H])c([H])c4C([H])([H])C([H])([H])C2([H])[H])C3([H])[H])C([H])([H])C([H])([H])N(C(c2c(N([H])[H])nc([H])c(N([H])C(=O)N3C([H])([H])C([H])([H])C([H])([H])C([H])(n4nc(-c5c([H])c([H])c(Oc6c([H])c([H])c(F)c([H])c6F)c([H])c5[H])c(C(=O)N([H])[H])c4N([H])[H])C3([H])[H])c2[H])=[N+]([H])[H])C1([H])[H]

>  <smiles>  (35) 
[H]C1=C(C([H])([H])Oc2c([H])c([H])c3c(c2[H])C([H])([H])N(C(=O)C([H])(N([H])C(=O)C([H])(N([H])C([H])([H])[H])C([H])([H])[H])C(C([H])([H])[H])(C([H])([H])[H])C([H])([H])[H])C([H])(C(=O)N([H])C2([H])c4c([H])c([H])c([H])c([H])c4C([H])([H])C([H])([H])C2([H])[H])C3([H])[H])C([H])([H])C([H])([H])N(C(c2c(N([H])[H])nc([H])c(N([H])C(=O)N3C([H])([H])C([H])([H])C([H])([H])C([H])(n4nc(-c5c([H])c([H])c(Oc6c([H])c([H])c(F)c([H])c6F)c([H])c5[H])c(C(=O)N([H])[H])c4N([H])[H])C3([H])[H])c2[H])=[N+]([H])[H])C1([H])[H]

$$$$
35:0:0
     RDKit          3D

 97106  0  0  1  0  0  0  0  0999 V2000
  -28.7670  -22.3930   20.3220 C   0  0  0  0  0  0  0  0  0  0  0  0
  -29.8130  -21.4920   20.5200 N   0  0  0  0  0  0  0  0  0  0  0  0
  -27.6420  -21.9510   20.0780 O   0  0  0  0  0  0  0  0  0  0  0  0
  -30.6910  -21.9520   20.6970 H   0  0  0  0  0  0  0  0  0  0  0  0
  -31.2140  -18.0010   20.7000 C   0  0  0  0  0  3  0  0  0  0  0  0
  -31.2140  -19.4540   20.6940 C   0  0  0  0  0  0  0  0  0  0  0  0
  -30.0050  -17.3650   20.5460 C   0  0  0  0  0  0  0  0  0  0  0  0
  -29.9800  -20.0810   20.5350 C   0  0  0  0  0  0  0  0  0  0  0  0
  -28.8040  -18.7140   20.3960 S   0  0  0  0  0  0  0  0  0  0  0  0
  -30.5360  -14.8440   20.3660 C   0  0  0  0  0  0  0  0  0  0  0  0
  -30.3760  -12.5470   19.3660 C   0  0  0  0  0  2  0  0  0  0  0  0
  -29.4250  -12.5710   18.1480 C   0  0  0  0  0  2  0  0  0  0  0  0
  -27.9590  -12.3890   18.5880 C   0  0  0  0  0  2  0  0  0  0  0  0
  -27.5820  -13.2830   19.7960 C   0  0  0  0  0  3  0  0  0  0  0  0
  -28.6480  -13.2240   20.9110 C   0  0  0  0  0  2  0  0  0  0  0  0
  -29.9300  -13.6050   20.3070 N   0  0  0  0  0  0  0  0  0  0  0  0
  -31.7270  -14.9400   20.0520 O   0  0  0  0  0  0  0  0  0  0  0  0
  -29.7300  -15.9730   20.5470 N   0  0  0  0  0  0  0  0  0  0  0  0
  -28.7560  -15.7400   20.6710 H   0  0  0  0  0  0  0  0  0  0  0  0
  -25.2000  -13.8630   20.5450 C   0  0  0  0  0  0  0  0  0  0  0  0
  -24.1370  -13.0840   20.9150 C   0  0  0  0  0  0  0  0  0  0  0  0
  -24.6020  -11.7340   20.8690 C   0  0  0  0  0  0  0  0  0  0  0  0
  -26.2430  -12.9860   20.2960 N   0  0  0  0  0  0  0  0  0  0  0  0
  -25.8910  -11.7010   20.5550 N   0  0  0  0  0  0  0  0  0  0  0  0
  -23.8770  -10.4690   21.0500 C   0  0  0  0  0  0  0  0  0  0  0  0
  -24.3010   -9.5000   21.9860 C   0  0  0  0  0  3  0  0  0  0  0  0
  -23.5750   -8.3020   22.1550 C   0  0  0  0  0  3  0  0  0  0  0  0
  -22.4110   -8.0620   21.3850 C   0  0  0  0  0  0  0  0  0  0  0  0
  -22.0080   -9.0200   20.4370 C   0  0  0  0  0  3  0  0  0  0  0  0
  -22.7340  -10.2090   20.2680 C   0  0  0  0  0  3  0  0  0  0  0  0
  -21.6560   -6.9160   21.4630 O   0  0  0  0  0  0  0  0  0  0  0  0
  -21.5780   -6.1850   22.6210 C   0  0  0  0  0  0  0  0  0  0  0  0
  -21.0890   -6.7420   23.8240 C   0  0  0  0  0  3  0  0  0  0  0  0
  -20.9590   -5.9360   24.9720 C   0  0  0  0  0  3  0  0  0  0  0  0
  -21.3060   -4.5730   24.9180 C   0  0  0  0  0  0  0  0  0  0  0  0
  -21.7870   -4.0150   23.7210 C   0  0  0  0  0  3  0  0  0  0  0  0
  -21.9190   -4.8170   22.5760 C   0  0  0  0  0  0  0  0  0  0  0  0
  -22.3640   -4.2690   21.4190 F   0  0  0  0  0  0  0  0  0  0  0  0
  -21.1740   -3.7960   26.0200 F   0  0  0  0  0  0  0  0  0  0  0  0
  -22.7400  -13.5580   21.1970 C   0  0  0  0  0  0  0  0  0  0  0  0
  -22.0200  -12.8560   22.0630 N   0  0  0  0  0  0  0  0  0  0  0  0
  -22.2960  -14.5840   20.6840 O   0  0  0  0  0  0  0  0  0  0  0  0
  -22.3910  -12.0230   22.4970 H   0  0  0  0  0  0  0  0  0  0  0  0
  -21.0840  -13.1540   22.3000 H   0  0  0  0  0  0  0  0  0  0  0  0
  -25.3560  -15.2350   20.3750 N   0  0  0  0  0  0  0  0  0  0  0  0
  -24.5750  -15.8750   20.4600 H   0  0  0  0  0  0  0  0  0  0  0  0
  -26.1850  -15.6790   20.0010 H   0  0  0  0  0  0  0  0  0  0  0  0
  -33.3860  -19.9290   22.0590 C   0  0  0  0  0  2  0  0  0  0  0  0
  -32.7730  -21.2910   21.8330 C   0  0  0  0  0  2  0  0  0  0  0  0
  -32.5260  -20.1750   20.8380 C   0  0  0  0  0  3  0  0  0  0  0  0
  -28.0980  -24.9080   20.2290 C   0  0  0  0  0  3  0  0  0  0  0  0
  -29.0530  -23.9000   20.3990 C   0  0  0  0  0  0  0  0  0  0  0  0
  -30.4230  -24.3970   20.6800 N   0  0  0  0  0  4  0  0  0  0  0  0
  -30.4540  -25.3950   20.5810 H   0  0  0  0  0  0  0  0  0  0  0  0
  -30.6970  -24.1970   21.6270 H   0  0  0  0  0  0  0  0  0  0  0  0
  -31.0930  -24.0130   20.0400 H   0  0  0  0  0  0  0  0  0  0  0  0
  -28.2800  -26.3430   20.2420 O   0  0  0  0  0  0  0  0  0  0  0  0
  -24.6360  -31.9160   23.2590 C   0  0  0  0  0  0  0  0  0  0  0  0
  -27.1900  -27.2630   20.1910 C   0  0  0  0  0  0  0  0  0  0  0  0
  -23.4160  -30.5290   21.6220 C   0  0  0  0  0  3  0  0  0  0  0  0
  -24.8530  -28.9630   20.1810 C   0  0  0  0  0  0  0  0  0  0  0  0
  -25.9670  -30.8000   21.4430 C   0  0  0  0  0  2  0  0  0  0  0  0
  -26.0310  -29.4170   20.7870 C   0  0  0  0  0  0  0  0  0  0  0  0
  -27.1980  -28.5790   20.7830 C   0  0  0  0  0  3  0  0  0  0  0  0
  -25.9960  -26.9040   19.5250 C   0  0  0  0  0  3  0  0  0  0  0  0
  -24.8440  -27.7160   19.5390 C   0  0  0  0  0  3  0  0  0  0  0  0
  -23.6230  -29.8520   20.2420 C   0  0  0  0  0  2  0  0  0  0  0  0
  -24.6920  -31.1000   22.1630 N   0  0  0  0  0  0  0  0  0  0  0  0
  -23.5570  -32.2020   23.7970 O   0  0  0  0  0  0  0  0  0  0  0  0
  -22.7440  -29.5190   22.5840 C   0  0  0  0  0  0  0  0  0  0  0  0
  -21.4170  -29.3450   22.4570 N   0  0  0  0  0  0  0  0  0  0  0  0
  -23.4180  -28.8910   23.4050 O   0  0  0  0  0  0  0  0  0  0  0  0
  -20.9260  -29.8990   21.7690 H   0  0  0  0  0  0  0  0  0  0  0  0
  -18.0360  -28.1580   22.9660 C   0  0  0  0  0  0  0  0  0  0  0  0
  -20.5950  -28.4120   23.2310 C   0  0  0  0  0  3  0  0  0  0  0  0
  -20.6910  -26.9760   22.6610 C   0  0  0  0  0  2  0  0  0  0  0  0
  -19.5910  -26.6560   21.6450 C   0  0  0  0  0  2  0  0  0  0  0  0
  -18.2110  -26.8090   22.2920 C   0  0  0  0  0  2  0  0  0  0  0  0
  -19.1570  -28.9190   23.3940 C   0  0  0  0  0  0  0  0  0  0  0  0
  -18.9410  -30.1830   23.9820 C   0  0  0  0  0  3  0  0  0  0  0  0
  -17.6360  -30.6900   24.1430 C   0  0  0  0  0  3  0  0  0  0  0  0
  -16.5290  -29.9240   23.7360 C   0  0  0  0  0  3  0  0  0  0  0  0
  -16.7300  -28.6580   23.1570 C   0  0  0  0  0  3  0  0  0  0  0  0
  -25.9260  -32.5420   23.8760 C   0  0  0  0  0  3  0  0  0  0  0  0
  -26.4530  -31.7630   25.1420 C   0  0  1  0  0  0  0  0  0  0  0  0
  -25.3700  -31.5150   26.2170 C   0  0  0  0  0  1  0  0  0  0  0  0
  -27.0280  -30.3890   24.7380 C   0  0  0  0  0  1  0  0  0  0  0  0
  -27.6130  -32.5470   25.7990 C   0  0  0  0  0  1  0  0  0  0  0  0
  -25.6240  -33.9380   24.2220 N   0  0  0  0  0  0  0  0  0  0  0  0
  -25.9210  -34.9960   23.4540 C   0  0  0  0  0  0  0  0  0  0  0  0
  -26.5460  -34.9000   22.3940 O   0  0  0  0  0  0  0  0  0  0  0  0
  -25.0650  -34.0900   25.0480 H   0  0  0  0  0  0  0  0  0  0  0  0
  -24.1590  -36.7730   23.2050 C   0  0  0  0  0  1  0  0  0  0  0  0
  -25.4500  -36.3800   23.9410 C   0  0  0  0  0  3  0  0  0  0  0  0
  -27.6190  -37.2840   24.6500 C   0  0  0  0  0  1  0  0  0  0  0  0
  -26.4640  -37.4430   23.7710 N   0  0  0  0  0  0  0  0  0  0  0  0
  -26.0590  -38.3580   23.9480 H   0  0  0  0  0  0  0  0  0  0  0  0
  1 52  1  0
  1  2  1  0
  2  8  1  0
  2  4  1  0
  3  1  2  0
  6  5  1  0
  6 50  1  0
  7 18  1  0
  7  5  2  0
  8  6  2  0
  9  8  1  0
  9  7  1  0
 10 18  1  0
 11 16  1  0
 12 13  1  0
 12 11  1  0
 14 13  1  0
 14 23  1  0
 14 15  1  0
 16 10  1  0
 16 15  1  0
 17 10  2  0
 18 19  1  0
 20 21  2  0
 21 40  1  0
 22 21  1  0
 22 25  1  0
 23 20  1  0
 23 24  1  0
 24 22  2  0
 25 26  1  0
 26 27  2  0
 28 31  1  0
 28 27  1  0
 29 28  2  0
 30 29  1  0
 30 25  2  0
 31 32  1  0
 32 33  1  0
 33 34  2  0
 35 34  1  0
 35 39  1  0
 36 35  2  0
 37 32  2  0
 37 36  1  0
 38 37  1  0
 40 41  1  0
 41 44  1  0
 41 43  1  0
 42 40  2  0
 45 46  1  0
 45 20  1  0
 47 45  1  0
 49 48  1  0
 50 49  1  0
 50 48  1  0
 51 57  1  0
 51 52  2  0
 52 53  1  0
 53 55  1  0
 54 53  1  0
 56 53  1  0
 58 69  2  0
 59 57  1  0
 59 64  1  0
 60 68  1  0
 60 70  1  0
 61 67  1  0
 61 63  1  0
 62 68  1  0
 63 62  1  0
 64 63  2  0
 65 66  1  0
 65 59  2  0
 66 61  2  0
 67 60  1  0
 68 58  1  0
 70 72  2  0
 71 70  1  0
 73 71  1  0
 74 83  2  0
 74 79  1  0
 75 71  1  0
 75 79  1  0
 76 75  1  0
 77 78  1  0
 77 76  1  0
 78 74  1  0
 79 80  2  0
 80 81  1  0
 82 81  2  0
 83 82  1  0
 84 58  1  0
 84 89  1  0
 84 85  1  0
 85 88  1  1
 85 86  1  0
 87 85  1  0
 89 92  1  0
 90 94  1  0
 90 89  1  0
 91 90  2  0
 94 93  1  0
 96 94  1  0
 96 97  1  0
 96 95  1  0
M  ISO  4  10 100  18 100  51 101  57 101
M  END
>  <TORSDO>  (36) 
F 20

>  <SCORE>  (36) 
-14.231

>  <name>  (36) 
35

>  <ligand_id>  (36) 
35

>  <original_smiles>  (36) 
[H]C(Oc1c([H])c([H])c2c(c1[H])C([H])([H])N(C(=O)C([H])(N([H])C(=O)C([H])(N([H])C([H])([H])[H])C([H])([H])[H])C(C([H])([H])[H])(C([H])([H])[H])C([H])([H])[H])C([H])(C(=O)N([H])C1([H])c3c([H])c([H])c([H])c([H])c3C([H])([H])C([H])([H])C1([H])[H])C2([H])[H])=C(C(=O)N([H])c1sc(N([H])C(=O)N2C([H])([H])C([H])([H])C([H])([H])C([H])(n3nc(-c4c([H])c([H])c(Oc5c([H])c([H])c(F)c([H])c5F)c([H])c4[H])c(C(=O)N([H])[H])c3N([H])[H])C2([H])[H])c([H])c1C1([H])C([H])([H])C1([H])[H])[N+]([H])([H])[H]

>  <smiles>  (36) 
[H]C(Oc1c([H])c([H])c2c(c1[H])C([H])([H])N(C(=O)C([H])(N([H])C(=O)C([H])(N([H])C([H])([H])[H])C([H])([H])[H])C(C([H])([H])[H])(C([H])([H])[H])C([H])([H])[H])C([H])(C(=O)N([H])C1([H])c3c([H])c([H])c([H])c([H])c3C([H])([H])C([H])([H])C1([H])[H])C2([H])[H])=C(C(=O)N([H])c1sc(N([H])C(=O)N2C([H])([H])C([H])([H])C([H])([H])C([H])(n3nc(-c4c([H])c([H])c(Oc5c([H])c([H])c(F)c([H])c5F)c([H])c4[H])c(C(=O)N([H])[H])c3N([H])[H])C2([H])[H])c([H])c1C1([H])C([H])([H])C1([H])[H])[N+]([H])([H])[H]

$$$$
36:0:0
     RDKit          3D

 95103  0  0  1  0  0  0  0  0999 V2000
  -28.4800  -22.4310   19.5530 N   0  0  0  0  0  0  0  0  0  0  0  0
  -27.8990  -22.5880   18.7330 H   0  0  0  0  0  0  0  0  0  0  0  0
  -29.6880  -20.3660   20.6030 C   0  0  0  0  0  3  0  0  0  0  0  0
  -29.7950  -18.9790   20.1460 C   0  0  0  0  0  0  0  0  0  0  0  0
  -29.0950  -18.9550   18.9630 C   0  0  0  0  0  0  0  0  0  0  0  0
  -28.9480  -21.0690   19.6680 C   0  0  0  0  0  0  0  0  0  0  0  0
  -28.8200  -17.9000   17.9390 C   0  0  0  0  0  1  0  0  0  0  0  0
  -28.5740  -20.2020   18.6810 O   0  0  0  0  0  0  0  0  0  0  0  0
  -32.0950  -17.7130   20.4390 O   0  0  0  0  0  0  0  0  0  0  0  0
  -30.4590  -17.7030   22.3660 O   0  0  0  0  0  0  0  0  0  0  0  0
  -30.7070  -17.5770   20.9180 S   0  0  1  0  0  0  0  0  0  0  0  0
  -30.8680  -14.7390   20.1720 C   0  0  0  0  0  0  0  0  0  0  0  0
  -30.6370  -12.4340   19.2410 C   0  0  0  0  0  2  0  0  0  0  0  0
  -29.6930  -12.5000   18.0170 C   0  0  0  0  0  2  0  0  0  0  0  0
  -28.2240  -12.3560   18.4600 C   0  0  0  0  0  2  0  0  0  0  0  0
  -27.8660  -13.2740   19.6590 C   0  0  0  0  0  3  0  0  0  0  0  0
  -28.9330  -13.2090   20.7700 C   0  0  0  0  0  2  0  0  0  0  0  0
  -30.2370  -13.5150   20.1700 N   0  0  0  0  0  0  0  0  0  0  0  0
  -32.0440  -14.8100   19.8040 O   0  0  0  0  0  0  0  0  0  0  0  0
  -30.1210  -15.9390   20.4590 N   0  0  0  0  0  0  0  0  0  0  0  0
  -29.1420  -15.8540   20.7100 H   0  0  0  0  0  0  0  0  0  0  0  0
  -25.5060  -13.8940   20.4480 C   0  0  0  0  0  0  0  0  0  0  0  0
  -24.4370  -13.1330   20.8350 C   0  0  0  0  0  0  0  0  0  0  0  0
  -24.8760  -11.7750   20.7810 C   0  0  0  0  0  0  0  0  0  0  0  0
  -26.5280  -13.0000   20.1750 N   0  0  0  0  0  0  0  0  0  0  0  0
  -26.1580  -11.7210   20.4400 N   0  0  0  0  0  0  0  0  0  0  0  0
  -24.1330  -10.5230   20.9740 C   0  0  0  0  0  0  0  0  0  0  0  0
  -24.5570   -9.5510   21.9070 C   0  0  0  0  0  3  0  0  0  0  0  0
  -23.8160   -8.3630   22.0900 C   0  0  0  0  0  3  0  0  0  0  0  0
  -22.6380   -8.1400   21.3380 C   0  0  0  0  0  0  0  0  0  0  0  0
  -22.2320   -9.1010   20.3950 C   0  0  0  0  0  3  0  0  0  0  0  0
  -22.9730  -10.2800   20.2130 C   0  0  0  0  0  3  0  0  0  0  0  0
  -21.8700   -7.0040   21.4270 O   0  0  0  0  0  0  0  0  0  0  0  0
  -21.7930   -6.2760   22.5880 C   0  0  0  0  0  0  0  0  0  0  0  0
  -21.3230   -6.8430   23.7930 C   0  0  0  0  0  3  0  0  0  0  0  0
  -21.1960   -6.0420   24.9450 C   0  0  0  0  0  3  0  0  0  0  0  0
  -21.5280   -4.6750   24.8930 C   0  0  0  0  0  0  0  0  0  0  0  0
  -21.9910   -4.1080   23.6920 C   0  0  0  0  0  3  0  0  0  0  0  0
  -22.1200   -4.9060   22.5420 C   0  0  0  0  0  0  0  0  0  0  0  0
  -22.5470   -4.3490   21.3820 F   0  0  0  0  0  0  0  0  0  0  0  0
  -21.3980   -3.9030   25.9970 F   0  0  0  0  0  0  0  0  0  0  0  0
  -23.0530  -13.6320   21.1390 C   0  0  0  0  0  0  0  0  0  0  0  0
  -22.3320  -12.9350   22.0110 N   0  0  0  0  0  0  0  0  0  0  0  0
  -22.6230  -14.6710   20.6390 O   0  0  0  0  0  0  0  0  0  0  0  0
  -22.6940  -12.0950   22.4340 H   0  0  0  0  0  0  0  0  0  0  0  0
  -21.4020  -13.2460   22.2560 H   0  0  0  0  0  0  0  0  0  0  0  0
  -25.6890  -15.2640   20.2770 N   0  0  0  0  0  0  0  0  0  0  0  0
  -24.9220  -15.9190   20.3850 H   0  0  0  0  0  0  0  0  0  0  0  0
  -26.5040  -15.6800   19.8500 H   0  0  0  0  0  0  0  0  0  0  0  0
  -28.8330  -23.6990   20.2980 C   0  0  0  0  0  2  0  0  0  0  0  0
  -28.3930  -25.0880   19.5670 C   0  0  0  0  0  3  0  0  0  0  0  0
  -29.2640  -25.3380   18.3220 C   0  0  0  0  0  0  0  0  0  0  0  0
  -30.4960  -26.2240   18.4850 C   0  0  0  0  0  1  0  0  0  0  0  0
  -28.9740  -24.8670   17.2190 O   0  0  0  0  0  0  0  0  0  0  0  0
  -28.3230  -26.3980   20.2980 O   0  0  0  0  0  0  0  0  0  0  0  0
  -24.6020  -31.8820   23.2390 C   0  0  0  0  0  0  0  0  0  0  0  0
  -27.2140  -27.2720   20.2020 C   0  0  0  0  0  0  0  0  0  0  0  0
  -23.4110  -30.4890   21.5900 C   0  0  0  0  0  3  0  0  0  0  0  0
  -24.8650  -28.9320   20.1780 C   0  0  0  0  0  0  0  0  0  0  0  0
  -25.9580  -30.7800   21.4390 C   0  0  0  0  0  2  0  0  0  0  0  0
  -26.0330  -29.3980   20.7930 C   0  0  0  0  0  0  0  0  0  0  0  0
  -27.2060  -28.5760   20.8030 C   0  0  0  0  0  3  0  0  0  0  0  0
  -26.0150  -26.8780   19.5600 C   0  0  0  0  0  3  0  0  0  0  0  0
  -24.8600  -27.6780   19.5580 C   0  0  0  0  0  3  0  0  0  0  0  0
  -23.6370  -29.8180   20.2110 C   0  0  0  0  0  2  0  0  0  0  0  0
  -24.6760  -31.0700   22.1440 N   0  0  0  0  0  0  0  0  0  0  0  0
  -23.5140  -32.1670   23.7600 O   0  0  0  0  0  0  0  0  0  0  0  0
  -22.7300  -29.4760   22.5410 C   0  0  0  0  0  0  0  0  0  0  0  0
  -21.4020  -29.3140   22.4080 N   0  0  0  0  0  0  0  0  0  0  0  0
  -23.3970  -28.8400   23.3610 O   0  0  0  0  0  0  0  0  0  0  0  0
  -20.9220  -29.8770   21.7220 H   0  0  0  0  0  0  0  0  0  0  0  0
  -18.0030  -28.1850   22.9210 C   0  0  0  0  0  0  0  0  0  0  0  0
  -20.5690  -28.3830   23.1740 C   0  0  0  0  0  3  0  0  0  0  0  0
  -20.6340  -26.9580   22.5780 C   0  0  0  0  0  2  0  0  0  0  0  0
  -19.5170  -26.6760   21.5690 C   0  0  0  0  0  2  0  0  0  0  0  0
  -18.1440  -26.8420   22.2260 C   0  0  0  0  0  2  0  0  0  0  0  0
  -19.1410  -28.9160   23.3520 C   0  0  0  0  0  0  0  0  0  0  0  0
  -18.9550  -30.1760   23.9620 C   0  0  0  0  0  3  0  0  0  0  0  0
  -17.6630  -30.7030   24.1470 C   0  0  0  0  0  3  0  0  0  0  0  0
  -16.5390  -29.9690   23.7320 C   0  0  0  0  0  3  0  0  0  0  0  0
  -16.7090  -28.7130   23.1230 C   0  0  0  0  0  3  0  0  0  0  0  0
  -25.8800  -32.5100   23.8740 C   0  0  0  0  0  3  0  0  0  0  0  0
  -25.5700  -33.9070   24.2080 N   0  0  0  0  0  0  0  0  0  0  0  0
  -25.9020  -34.9630   23.4550 C   0  0  0  0  0  0  0  0  0  0  0  0
  -26.5710  -34.8660   22.4230 O   0  0  0  0  0  0  0  0  0  0  0  0
  -24.9770  -34.0590   25.0110 H   0  0  0  0  0  0  0  0  0  0  0  0
  -24.1810  -36.7660   23.1010 C   0  0  0  0  0  1  0  0  0  0  0  0
  -25.4130  -36.3490   23.9200 C   0  0  0  0  0  3  0  0  0  0  0  0
  -27.5350  -37.2290   24.7880 C   0  0  0  0  0  1  0  0  0  0  0  0
  -26.4480  -37.4000   23.8280 N   0  0  0  0  0  0  0  0  0  0  0  0
  -26.0400  -38.3190   23.9740 H   0  0  0  0  0  0  0  0  0  0  0  0
  -26.3850  -31.7320   25.1500 C   0  0  1  0  0  0  0  0  0  0  0  0
  -25.2810  -31.4860   26.2040 C   0  0  0  0  0  1  0  0  0  0  0  0
  -26.9740  -30.3560   24.7590 C   0  0  0  0  0  1  0  0  0  0  0  0
  -27.5270  -32.5230   25.8310 C   0  0  0  0  0  1  0  0  0  0  0  0
  1  6  1  0
  1 50  1  0
  2  1  1  0
  4  3  1  0
  4 11  1  0
  5  4  2  0
  6  3  2  0
  7  5  1  0
  8  5  1  0
  8  6  1  0
  9 11  2  0
 11 10  2  0
 12 20  1  0
 13 18  1  0
 14 15  1  0
 14 13  1  0
 16 15  1  0
 16 25  1  0
 16 17  1  0
 18 12  1  0
 18 17  1  0
 19 12  2  0
 20 21  1  0
 11 20  1  6
 22 23  2  0
 23 42  1  0
 24 23  1  0
 24 27  1  0
 25 26  1  0
 25 22  1  0
 26 24  2  0
 27 28  1  0
 28 29  2  0
 30 33  1  0
 30 29  1  0
 31 30  2  0
 32 31  1  0
 32 27  2  0
 33 34  1  0
 34 35  1  0
 35 36  2  0
 37 36  1  0
 37 41  1  0
 38 37  2  0
 39 34  2  0
 39 38  1  0
 40 39  1  0
 42 43  1  0
 43 46  1  0
 43 45  1  0
 44 42  2  0
 47 48  1  0
 47 22  1  0
 49 47  1  0
 51 55  1  0
 51 50  1  0
 52 53  1  0
 52 51  1  0
 54 52  2  0
 56 67  2  0
 57 55  1  0
 57 62  1  0
 58 66  1  0
 58 68  1  0
 59 65  1  0
 59 61  1  0
 60 66  1  0
 61 62  2  0
 61 60  1  0
 63 57  2  0
 64 63  1  0
 64 59  2  0
 65 58  1  0
 66 56  1  0
 68 70  2  0
 69 68  1  0
 71 69  1  0
 72 81  2  0
 72 77  1  0
 73 69  1  0
 73 77  1  0
 74 73  1  0
 75 76  1  0
 75 74  1  0
 76 72  1  0
 77 78  2  0
 78 79  1  0
 80 79  2  0
 81 80  1  0
 82 56  1  0
 82 83  1  0
 82 92  1  0
 83 86  1  0
 84 88  1  0
 84 83  1  0
 85 84  2  0
 88 87  1  0
 90 88  1  0
 90 91  1  0
 90 89  1  0
 92 95  1  1
 92 93  1  0
 94 92  1  0
M  ISO  4  12 100  20 100  51 101  55 101
M  END
>  <TORSDO>  (37) 
F 21

>  <SCORE>  (37) 
-13.543

>  <name>  (37) 
36

>  <ligand_id>  (37) 
36

>  <original_smiles>  (37) 
[H]c1c([H])c([H])c2c(c1[H])C([H])([H])C([H])([H])C([H])([H])C2([H])N([H])C(=O)C1([H])N(C(=O)C([H])(N([H])C(=O)C([H])(N([H])C([H])([H])[H])C([H])([H])[H])C(C([H])([H])[H])(C([H])([H])[H])C([H])([H])[H])C([H])([H])c2c([H])c(OC([H])(C(=O)C([H])([H])[H])C([H])([H])N([H])c3oc(C([H])([H])[H])c(S(=O)(=O)N([H])C(=O)N4C([H])([H])C([H])([H])C([H])([H])C([H])(n5nc(-c6c([H])c([H])c(Oc7c([H])c([H])c(F)c([H])c7F)c([H])c6[H])c(C(=O)N([H])[H])c5N([H])[H])C4([H])[H])c3[H])c([H])c([H])c2C1([H])[H]

>  <smiles>  (37) 
[H]c1c([H])c([H])c2c(c1[H])C([H])([H])C([H])([H])C([H])([H])C2([H])N([H])C(=O)C1([H])N(C(=O)C([H])(N([H])C(=O)C([H])(N([H])C([H])([H])[H])C([H])([H])[H])C(C([H])([H])[H])(C([H])([H])[H])C([H])([H])[H])C([H])([H])c2c([H])c(OC([H])(C(=O)C([H])([H])[H])C([H])([H])N([H])c3oc(C([H])([H])[H])c(S(=O)(=O)N([H])C(=O)N4C([H])([H])C([H])([H])C([H])([H])C([H])(n5nc(-c6c([H])c([H])c(Oc7c([H])c([H])c(F)c([H])c7F)c([H])c6[H])c(C(=O)N([H])[H])c5N([H])[H])C4([H])[H])c3[H])c([H])c([H])c2C1([H])[H]

$$$$
37:0:0
     RDKit          3D

 96105  0  0  1  0  0  0  0  0999 V2000
  -30.4360  -17.7150   19.1360 C   0  0  0  0  0  3  0  0  0  0  0  0
  -30.3470  -19.1590   19.0450 C   0  0  0  0  0  0  0  0  0  0  0  0
  -29.9110  -17.2820   20.3240 C   0  0  0  0  0  0  0  0  0  0  0  0
  -29.6950  -19.5780   20.1970 C   0  0  0  0  0  0  0  0  0  0  0  0
  -29.4180  -18.4330   20.9910 O   0  0  0  0  0  0  0  0  0  0  0  0
  -30.5620  -14.8010   20.3730 C   0  0  0  0  0  0  0  0  0  0  0  0
  -30.3860  -12.5110   19.3720 C   0  0  0  0  0  2  0  0  0  0  0  0
  -29.4450  -12.5870   18.1480 C   0  0  0  0  0  2  0  0  0  0  0  0
  -27.9780  -12.3970   18.5790 C   0  0  0  0  0  2  0  0  0  0  0  0
  -27.6070  -13.2710   19.8070 C   0  0  0  0  0  3  0  0  0  0  0  0
  -28.6670  -13.1840   20.9250 C   0  0  0  0  0  2  0  0  0  0  0  0
  -29.9600  -13.5570   20.3370 N   0  0  0  0  0  0  0  0  0  0  0  0
  -31.7310  -14.9050   19.9820 O   0  0  0  0  0  0  0  0  0  0  0  0
  -29.8070  -15.9260   20.7220 N   0  0  0  0  0  0  0  0  0  0  0  0
  -28.9680  -15.7090   21.2380 H   0  0  0  0  0  0  0  0  0  0  0  0
  -25.2230  -13.8480   20.5520 C   0  0  0  0  0  0  0  0  0  0  0  0
  -24.1620  -13.0700   20.9250 C   0  0  0  0  0  0  0  0  0  0  0  0
  -24.6270  -11.7190   20.8830 C   0  0  0  0  0  0  0  0  0  0  0  0
  -26.2670  -12.9730   20.3020 N   0  0  0  0  0  0  0  0  0  0  0  0
  -25.9160  -11.6870   20.5630 N   0  0  0  0  0  0  0  0  0  0  0  0
  -23.9030  -10.4560   21.0730 C   0  0  0  0  0  0  0  0  0  0  0  0
  -24.3480   -9.4810   21.9930 C   0  0  0  0  0  3  0  0  0  0  0  0
  -23.6260   -8.2810   22.1700 C   0  0  0  0  0  3  0  0  0  0  0  0
  -22.4430   -8.0500   21.4290 C   0  0  0  0  0  0  0  0  0  0  0  0
  -22.0170   -9.0120   20.4960 C   0  0  0  0  0  3  0  0  0  0  0  0
  -22.7410  -10.2040   20.3170 C   0  0  0  0  0  3  0  0  0  0  0  0
  -21.6890   -6.9040   21.5170 O   0  0  0  0  0  0  0  0  0  0  0  0
  -21.6610   -6.1470   22.6600 C   0  0  0  0  0  0  0  0  0  0  0  0
  -21.2520   -6.6850   23.9000 C   0  0  0  0  0  3  0  0  0  0  0  0
  -21.1710   -5.8540   25.0360 C   0  0  0  0  0  3  0  0  0  0  0  0
  -21.4910   -4.4870   24.9330 C   0  0  0  0  0  0  0  0  0  0  0  0
  -21.8940   -3.9490   23.6980 C   0  0  0  0  0  3  0  0  0  0  0  0
  -21.9760   -4.7770   22.5640 C   0  0  0  0  0  0  0  0  0  0  0  0
  -22.3450   -4.2480   21.3720 F   0  0  0  0  0  0  0  0  0  0  0  0
  -21.4060   -3.6870   26.0200 F   0  0  0  0  0  0  0  0  0  0  0  0
  -22.7660  -13.5440   21.2110 C   0  0  0  0  0  0  0  0  0  0  0  0
  -22.0440  -12.8420   22.0780 N   0  0  0  0  0  0  0  0  0  0  0  0
  -22.3240  -14.5720   20.6990 O   0  0  0  0  0  0  0  0  0  0  0  0
  -22.4120  -12.0110   22.5150 H   0  0  0  0  0  0  0  0  0  0  0  0
  -21.1070  -13.1420   22.3060 H   0  0  0  0  0  0  0  0  0  0  0  0
  -25.3850  -15.2200   20.3800 N   0  0  0  0  0  0  0  0  0  0  0  0
  -24.6130  -15.8710   20.4870 H   0  0  0  0  0  0  0  0  0  0  0  0
  -26.2300  -15.6620   20.0400 H   0  0  0  0  0  0  0  0  0  0  0  0
  -33.3010  -19.8250   18.4530 C   0  0  0  0  0  2  0  0  0  0  0  0
  -33.0490  -18.8270   17.3150 C   0  0  0  0  0  2  0  0  0  0  0  0
  -32.1360  -20.8180   18.3800 C   0  0  0  0  0  2  0  0  0  0  0  0
  -31.6210  -19.1080   16.8210 C   0  0  0  0  0  2  0  0  0  0  0  0
  -30.9350  -19.9900   17.8910 C   0  0  1  0  0  0  0  0  0  0  0  0
  -29.8610  -20.8580   17.2110 C   0  0  0  0  0  1  0  0  0  0  0  0
  -29.6250  -20.9570   20.6890 N   0  0  0  0  0  0  0  0  0  0  0  0
  -30.5260  -21.4010   20.5410 H   0  0  0  0  0  0  0  0  0  0  0  0
  -28.5600  -22.0210   20.4120 C   0  0  0  0  0  2  0  0  0  0  0  0
  -28.9510  -23.6000   20.4870 C   0  0  0  0  0  0  0  0  0  0  0  0
  -30.1290  -23.8920   20.7190 O   0  0  0  0  0  0  0  0  0  0  0  0
  -27.8660  -24.7790   20.2470 C   0  0  0  0  0  2  0  0  0  0  0  0
  -28.2310  -26.2580   20.3600 O   0  0  0  0  0  0  0  0  0  0  0  0
  -24.5900  -31.8860   23.2710 C   0  0  0  0  0  0  0  0  0  0  0  0
  -27.1720  -27.2110   20.2730 C   0  0  0  0  0  0  0  0  0  0  0  0
  -23.3920  -30.4870   21.6330 C   0  0  0  0  0  3  0  0  0  0  0  0
  -24.8430  -28.9170   20.2200 C   0  0  0  0  0  0  0  0  0  0  0  0
  -25.9440  -30.7650   21.4730 C   0  0  0  0  0  2  0  0  0  0  0  0
  -26.0180  -29.3750   20.8300 C   0  0  0  0  0  0  0  0  0  0  0  0
  -27.1880  -28.5380   20.8400 C   0  0  0  0  0  3  0  0  0  0  0  0
  -25.9730  -26.8410   19.6220 C   0  0  0  0  0  3  0  0  0  0  0  0
  -24.8300  -27.6600   19.6020 C   0  0  0  0  0  3  0  0  0  0  0  0
  -23.6150  -29.8090   20.2560 C   0  0  0  0  0  2  0  0  0  0  0  0
  -24.6620  -31.0650   22.1810 N   0  0  0  0  0  0  0  0  0  0  0  0
  -23.5010  -32.1760   23.7910 O   0  0  0  0  0  0  0  0  0  0  0  0
  -22.7100  -29.4800   22.5920 C   0  0  0  0  0  0  0  0  0  0  0  0
  -21.3830  -29.3110   22.4560 N   0  0  0  0  0  0  0  0  0  0  0  0
  -23.3770  -28.8550   23.4210 O   0  0  0  0  0  0  0  0  0  0  0  0
  -20.9040  -29.8680   21.7630 H   0  0  0  0  0  0  0  0  0  0  0  0
  -17.9930  -28.1350   22.9400 C   0  0  0  0  0  0  0  0  0  0  0  0
  -20.5530  -28.3810   23.2250 C   0  0  0  0  0  3  0  0  0  0  0  0
  -20.6480  -26.9460   22.6570 C   0  0  0  0  0  2  0  0  0  0  0  0
  -19.5500  -26.6250   21.6380 C   0  0  0  0  0  2  0  0  0  0  0  0
  -18.1650  -26.7810   22.2720 C   0  0  0  0  0  2  0  0  0  0  0  0
  -19.1140  -28.8930   23.3730 C   0  0  0  0  0  0  0  0  0  0  0  0
  -18.8970  -30.1600   23.9580 C   0  0  0  0  0  3  0  0  0  0  0  0
  -17.5940  -30.6680   24.1130 C   0  0  0  0  0  3  0  0  0  0  0  0
  -16.4880  -29.9060   23.6960 C   0  0  0  0  0  3  0  0  0  0  0  0
  -16.6890  -28.6420   23.1160 C   0  0  0  0  0  3  0  0  0  0  0  0
  -25.8670  -32.5170   23.9020 C   0  0  0  0  0  3  0  0  0  0  0  0
  -25.5610  -33.9220   24.2180 N   0  0  0  0  0  0  0  0  0  0  0  0
  -25.8980  -34.9660   23.4520 C   0  0  0  0  0  0  0  0  0  0  0  0
  -26.5700  -34.8520   22.4230 O   0  0  0  0  0  0  0  0  0  0  0  0
  -24.9640  -34.0850   25.0160 H   0  0  0  0  0  0  0  0  0  0  0  0
  -24.1810  -36.7680   23.0790 C   0  0  0  0  0  1  0  0  0  0  0  0
  -25.4190  -36.3620   23.8970 C   0  0  0  0  0  3  0  0  0  0  0  0
  -27.5550  -37.2440   24.7260 C   0  0  0  0  0  1  0  0  0  0  0  0
  -26.4570  -37.4090   23.7760 N   0  0  0  0  0  0  0  0  0  0  0  0
  -26.0560  -38.3330   23.9090 H   0  0  0  0  0  0  0  0  0  0  0  0
  -26.3610  -31.7560   25.1930 C   0  0  1  0  0  0  0  0  0  0  0  0
  -25.2540  -31.5370   26.2500 C   0  0  0  0  0  1  0  0  0  0  0  0
  -26.9380  -30.3700   24.8240 C   0  0  0  0  0  1  0  0  0  0  0  0
  -27.5100  -32.5490   25.8590 C   0  0  0  0  0  1  0  0  0  0  0  0
  1  3  2  0
  2  1  1  0
  2  4  2  0
  3 14  1  0
  3  5  1  0
  4 50  1  0
  4  5  1  0
  6 14  1  0
  7 12  1  0
  8  9  1  0
  8  7  1  0
 10  9  1  0
 10 19  1  0
 10 11  1  0
 12  6  1  0
 12 11  1  0
 13  6  2  0
 14 15  1  0
 16 17  2  0
 17 36  1  0
 18 17  1  0
 18 21  1  0
 19 16  1  0
 19 20  1  0
 20 18  2  0
 21 22  1  0
 22 23  2  0
 24 27  1  0
 24 23  1  0
 25 24  2  0
 26 25  1  0
 26 21  2  0
 27 28  1  0
 28 29  1  0
 29 30  2  0
 31 30  1  0
 31 35  1  0
 32 31  2  0
 33 28  2  0
 33 32  1  0
 34 33  1  0
 36 37  1  0
 37 40  1  0
 37 39  1  0
 38 36  2  0
 41 42  1  0
 41 16  1  0
 43 41  1  0
 45 44  1  0
 46 44  1  0
 47 45  1  0
 47 48  1  0
 48 46  1  0
 48  2  1  0
 48 49  1  6
 51 50  1  0
 52 53  1  0
 52 50  1  0
 53 54  2  0
 55 56  1  0
 55 53  1  0
 57 68  2  0
 58 56  1  0
 58 63  1  0
 59 67  1  0
 59 69  1  0
 60 66  1  0
 60 62  1  0
 61 67  1  0
 62 63  2  0
 62 61  1  0
 64 58  2  0
 65 64  1  0
 65 60  2  0
 66 59  1  0
 67 57  1  0
 69 71  2  0
 70 69  1  0
 72 70  1  0
 73 82  2  0
 73 78  1  0
 74 70  1  0
 74 78  1  0
 75 74  1  0
 76 77  1  0
 76 75  1  0
 77 73  1  0
 78 79  2  0
 79 80  1  0
 81 80  2  0
 82 81  1  0
 83 57  1  0
 83 84  1  0
 83 93  1  0
 84 87  1  0
 85 89  1  0
 85 84  1  0
 86 85  2  0
 89 88  1  0
 91 89  1  0
 91 92  1  0
 91 90  1  0
 93 96  1  1
 93 94  1  0
 95 93  1  0
M  ISO  4   6 100  14 100  55 101  56 101
M  END
>  <TORSDO>  (38) 
F 21

>  <SCORE>  (38) 
-13.673

>  <name>  (38) 
37

>  <ligand_id>  (38) 
37

>  <original_smiles>  (38) 
[H]c1c([H])c([H])c2c(c1[H])C([H])([H])C([H])([H])C([H])([H])C2([H])N([H])C(=O)C1([H])N(C(=O)C([H])(N([H])C(=O)C([H])(N([H])C([H])([H])[H])C([H])([H])[H])C(C([H])([H])[H])(C([H])([H])[H])C([H])([H])[H])C([H])([H])c2c([H])c(OC([H])([H])C(=O)C([H])([H])N([H])c3oc(N([H])C(=O)N4C([H])([H])C([H])([H])C([H])([H])C([H])(n5nc(-c6c([H])c([H])c(Oc7c([H])c([H])c(F)c([H])c7F)c([H])c6[H])c(C(=O)N([H])[H])c5N([H])[H])C4([H])[H])c([H])c3C3(C([H])([H])[H])C([H])([H])C([H])([H])C([H])([H])C3([H])[H])c([H])c([H])c2C1([H])[H]

>  <smiles>  (38) 
[H]c1c([H])c([H])c2c(c1[H])C([H])([H])C([H])([H])C([H])([H])C2([H])N([H])C(=O)C1([H])N(C(=O)C([H])(N([H])C(=O)C([H])(N([H])C([H])([H])[H])C([H])([H])[H])C(C([H])([H])[H])(C([H])([H])[H])C([H])([H])[H])C([H])([H])c2c([H])c(OC([H])([H])C(=O)C([H])([H])N([H])c3oc(N([H])C(=O)N4C([H])([H])C([H])([H])C([H])([H])C([H])(n5nc(-c6c([H])c([H])c(Oc7c([H])c([H])c(F)c([H])c7F)c([H])c6[H])c(C(=O)N([H])[H])c5N([H])[H])C4([H])[H])c([H])c3C3(C([H])([H])[H])C([H])([H])C([H])([H])C([H])([H])C3([H])[H])c([H])c([H])c2C1([H])[H]

$$$$
38:0:0
     RDKit          3D

 93101  0  0  1  0  0  0  0  0999 V2000
  -30.0400  -19.7510   20.4890 C   0  0  0  0  0  3  0  0  0  0  0  0
  -30.1770  -18.4660   19.7530 C   0  0  0  0  0  0  0  0  0  0  0  0
  -29.7780  -20.9030   19.7310 C   0  0  0  0  0  0  0  0  0  0  0  0
  -30.2000  -18.6700   18.4480 N   0  0  0  0  0  0  0  0  0  0  0  0
  -29.9220  -20.3290   18.0880 S   0  0  0  0  0  0  0  0  0  0  0  0
  -31.0090  -14.7690   19.3420 C   0  0  0  0  0  0  0  0  0  0  0  0
  -30.6920  -12.5530   18.1690 C   0  0  0  0  0  2  0  0  0  0  0  0
  -29.5410  -12.6890   17.1410 C   0  0  0  0  0  2  0  0  0  0  0  0
  -28.1590  -12.4980   17.8040 C   0  0  0  0  0  2  0  0  0  0  0  0
  -28.0200  -13.3040   19.1210 C   0  0  0  0  0  3  0  0  0  0  0  0
  -29.2500  -13.0730   20.0290 C   0  0  0  0  0  2  0  0  0  0  0  0
  -30.4460  -13.5060   19.2790 N   0  0  0  0  0  0  0  0  0  0  0  0
  -32.0160  -15.0620   18.6800 O   0  0  0  0  0  0  0  0  0  0  0  0
  -29.9950  -17.0950   20.4660 C   0  0  0  0  0  3  0  0  0  0  0  0
  -28.3870  -18.1640   22.1750 C   0  0  0  0  0  1  0  0  0  0  0  0
  -30.2730  -15.7370   20.2090 N   0  0  0  0  0  0  0  0  0  0  0  0
  -29.2570  -17.1160   21.6100 N   0  0  0  0  0  0  0  0  0  0  0  0
  -29.6280  -15.2470   20.7970 H   0  0  0  0  0  0  0  0  0  0  0  0
  -29.3030  -16.3120   22.2190 H   0  0  0  0  0  0  0  0  0  0  0  0
  -25.8180  -13.9120   20.3000 C   0  0  0  0  0  0  0  0  0  0  0  0
  -24.8000  -13.1440   20.7950 C   0  0  0  0  0  0  0  0  0  0  0  0
  -25.1880  -11.7870   20.5740 C   0  0  0  0  0  0  0  0  0  0  0  0
  -26.7640  -13.0220   19.8100 N   0  0  0  0  0  0  0  0  0  0  0  0
  -26.4000  -11.7340   20.0330 N   0  0  0  0  0  0  0  0  0  0  0  0
  -24.4510  -10.5360   20.7900 C   0  0  0  0  0  0  0  0  0  0  0  0
  -24.9180   -9.5500   21.6860 C   0  0  0  0  0  3  0  0  0  0  0  0
  -24.1820   -8.3630   21.8910 C   0  0  0  0  0  3  0  0  0  0  0  0
  -22.9650   -8.1540   21.2000 C   0  0  0  0  0  0  0  0  0  0  0  0
  -22.5170   -9.1290   20.2910 C   0  0  0  0  0  3  0  0  0  0  0  0
  -23.2530  -10.3080   20.0840 C   0  0  0  0  0  3  0  0  0  0  0  0
  -22.1960   -7.0210   21.3160 O   0  0  0  0  0  0  0  0  0  0  0  0
  -22.0610   -6.3650   22.5130 C   0  0  0  0  0  0  0  0  0  0  0  0
  -21.5280   -7.0010   23.6550 C   0  0  0  0  0  3  0  0  0  0  0  0
  -21.3400   -6.2690   24.8450 C   0  0  0  0  0  3  0  0  0  0  0  0
  -21.6740   -4.9030   24.8920 C   0  0  0  0  0  0  0  0  0  0  0  0
  -22.1980   -4.2660   23.7530 C   0  0  0  0  0  3  0  0  0  0  0  0
  -22.3880   -4.9950   22.5670 C   0  0  0  0  0  0  0  0  0  0  0  0
  -22.8740   -4.3710   21.4650 F   0  0  0  0  0  0  0  0  0  0  0  0
  -21.4860   -4.1960   26.0320 F   0  0  0  0  0  0  0  0  0  0  0  0
  -23.4940  -13.6380   21.3460 C   0  0  0  0  0  0  0  0  0  0  0  0
  -22.9200  -12.9170   22.3020 N   0  0  0  0  0  0  0  0  0  0  0  0
  -23.0000  -14.6990   20.9650 O   0  0  0  0  0  0  0  0  0  0  0  0
  -23.3330  -12.0550   22.6250 H   0  0  0  0  0  0  0  0  0  0  0  0
  -22.0510  -13.2290   22.7130 H   0  0  0  0  0  0  0  0  0  0  0  0
  -26.0090  -15.2860   20.2010 N   0  0  0  0  0  0  0  0  0  0  0  0
  -26.6950  -15.7100   19.5920 H   0  0  0  0  0  0  0  0  0  0  0  0
  -25.2580  -15.9220   20.4480 H   0  0  0  0  0  0  0  0  0  0  0  0
  -29.4330  -22.2660   20.1540 N   0  0  0  0  0  0  0  0  0  0  0  0
  -29.3680  -22.4190   21.1570 H   0  0  0  0  0  0  0  0  0  0  0  0
  -29.0760  -23.5090   19.3340 C   0  0  0  0  0  2  0  0  0  0  0  0
  -27.3120  -24.5480   20.9390 C   0  0  0  0  0  1  0  0  0  0  0  0
  -28.5920  -24.8620   20.1430 C   0  0  0  0  0  3  0  0  0  0  0  0
  -28.5920  -26.2740   19.5550 O   0  0  0  0  0  0  0  0  0  0  0  0
  -24.9280  -31.5620   23.0280 C   0  0  0  0  0  0  0  0  0  0  0  0
  -27.4850  -27.1650   19.6350 C   0  0  0  0  0  0  0  0  0  0  0  0
  -23.7010  -30.2810   21.3110 C   0  0  0  0  0  3  0  0  0  0  0  0
  -25.1320  -28.8240   19.7590 C   0  0  0  0  0  0  0  0  0  0  0  0
  -26.2430  -30.5920   21.1210 C   0  0  0  0  0  2  0  0  0  0  0  0
  -26.3120  -29.2550   20.3790 C   0  0  0  0  0  0  0  0  0  0  0  0
  -27.4920  -28.4410   20.3010 C   0  0  0  0  0  3  0  0  0  0  0  0
  -26.2850  -26.8140   18.9800 C   0  0  0  0  0  3  0  0  0  0  0  0
  -25.1250  -27.6130   19.0480 C   0  0  0  0  0  3  0  0  0  0  0  0
  -23.8990  -29.7010   19.8850 C   0  0  0  0  0  2  0  0  0  0  0  0
  -24.9760  -30.8290   21.8760 N   0  0  0  0  0  0  0  0  0  0  0  0
  -23.8520  -31.8010   23.5960 O   0  0  0  0  0  0  0  0  0  0  0  0
  -23.0480  -29.2030   22.2100 C   0  0  0  0  0  0  0  0  0  0  0  0
  -21.7140  -29.0590   22.1160 N   0  0  0  0  0  0  0  0  0  0  0  0
  -23.7390  -28.5020   22.9540 O   0  0  0  0  0  0  0  0  0  0  0  0
  -21.2140  -29.6770   21.4920 H   0  0  0  0  0  0  0  0  0  0  0  0
  -18.3290  -27.9100   22.6810 C   0  0  0  0  0  0  0  0  0  0  0  0
  -20.9040  -28.0730   22.8360 C   0  0  0  0  0  3  0  0  0  0  0  0
  -20.9310  -26.7020   22.1210 C   0  0  0  0  0  2  0  0  0  0  0  0
  -19.7690  -26.5110   21.1400 C   0  0  0  0  0  2  0  0  0  0  0  0
  -18.4270  -26.6290   21.8680 C   0  0  0  0  0  2  0  0  0  0  0  0
  -19.4920  -28.5950   23.1220 C   0  0  0  0  0  0  0  0  0  0  0  0
  -19.3430  -29.7980   23.8450 C   0  0  0  0  0  3  0  0  0  0  0  0
  -18.0660  -30.3140   24.1330 C   0  0  0  0  0  3  0  0  0  0  0  0
  -16.9190  -29.6240   23.7060 C   0  0  0  0  0  3  0  0  0  0  0  0
  -17.0500  -28.4230   22.9860 C   0  0  0  0  0  3  0  0  0  0  0  0
  -26.2180  -32.1520   23.6770 C   0  0  0  0  0  3  0  0  0  0  0  0
  -26.7600  -31.2860   24.8810 C   0  0  1  0  0  0  0  0  0  0  0  0
  -25.6860  -30.9540   25.9430 C   0  0  0  0  0  1  0  0  0  0  0  0
  -27.3490  -29.9490   24.3760 C   0  0  0  0  0  1  0  0  0  0  0  0
  -27.9130  -32.0360   25.5870 C   0  0  0  0  0  1  0  0  0  0  0  0
  -25.9070  -33.5180   24.1260 N   0  0  0  0  0  0  0  0  0  0  0  0
  -26.2340  -34.6320   23.4580 C   0  0  0  0  0  0  0  0  0  0  0  0
  -26.8960  -34.6190   22.4170 O   0  0  0  0  0  0  0  0  0  0  0  0
  -25.3180  -33.6020   24.9410 H   0  0  0  0  0  0  0  0  0  0  0  0
  -24.5010  -36.4480   23.2750 C   0  0  0  0  0  1  0  0  0  0  0  0
  -25.7500  -35.9770   24.0370 C   0  0  0  0  0  3  0  0  0  0  0  0
  -27.8850  -36.8010   24.9300 C   0  0  0  0  0  1  0  0  0  0  0  0
  -26.7820  -37.0370   24.0020 N   0  0  0  0  0  0  0  0  0  0  0  0
  -26.3740  -37.9440   24.2170 H   0  0  0  0  0  0  0  0  0  0  0  0
  2 14  1  0
  2  1  1  0
  3 48  1  0
  3  1  2  0
  4  2  2  0
  5  4  1  0
  5  3  1  0
  6 16  1  0
  7 12  1  0
  8  9  1  0
  8  7  1  0
 10  9  1  0
 10 23  1  0
 10 11  1  0
 12  6  1  0
 12 11  1  0
 13  6  2  0
 14 16  1  0
 14 17  1  0
 16 18  1  0
 17 15  1  0
 17 19  1  0
 20 21  2  0
 21 40  1  0
 22 25  1  0
 22 21  1  0
 23 24  1  0
 23 20  1  0
 24 22  2  0
 25 26  1  0
 26 27  2  0
 28 31  1  0
 28 27  1  0
 29 28  2  0
 30 29  1  0
 30 25  2  0
 31 32  1  0
 32 37  2  0
 32 33  1  0
 33 34  2  0
 34 35  1  0
 35 39  1  0
 36 35  2  0
 37 36  1  0
 38 37  1  0
 40 41  1  0
 41 43  1  0
 41 44  1  0
 42 40  2  0
 45 20  1  0
 45 47  1  0
 46 45  1  0
 48 49  1  0
 50 52  1  0
 50 48  1  0
 52 51  1  0
 53 55  1  0
 53 52  1  0
 54 65  2  0
 55 60  1  0
 56 64  1  0
 56 66  1  0
 57 63  1  0
 57 59  1  0
 58 64  1  0
 59 58  1  0
 60 59  2  0
 61 62  1  0
 61 55  2  0
 62 57  2  0
 63 56  1  0
 64 54  1  0
 66 68  2  0
 67 66  1  0
 69 67  1  0
 70 79  2  0
 70 75  1  0
 71 67  1  0
 71 75  1  0
 72 71  1  0
 73 74  1  0
 73 72  1  0
 74 70  1  0
 75 76  2  0
 76 77  1  0
 78 77  2  0
 79 78  1  0
 80 54  1  0
 80 85  1  0
 80 81  1  0
 81 84  1  1
 81 82  1  0
 83 81  1  0
 85 88  1  0
 86 90  1  0
 86 85  1  0
 87 86  2  0
 90 89  1  0
 92 90  1  0
 92 93  1  0
 92 91  1  0
M  ISO  4   6 100  16 100  52 101  53 101
M  END
>  <TORSDO>  (39) 
F 19

>  <SCORE>  (39) 
-7.964

>  <name>  (39) 
38

>  <ligand_id>  (39) 
38

>  <original_smiles>  (39) 
[H]c1c(C(N([H])C(=O)N2C([H])([H])C([H])([H])C([H])([H])C([H])(n3nc(-c4c([H])c([H])c(Oc5c([H])c([H])c(F)c([H])c5F)c([H])c4[H])c(C(=O)N([H])[H])c3N([H])[H])C2([H])[H])=[N+]([H])C([H])([H])[H])nsc1N([H])C([H])([H])C([H])(Oc1c([H])c([H])c2c(c1[H])C([H])([H])N(C(=O)C([H])(N([H])C(=O)C([H])(N([H])C([H])([H])[H])C([H])([H])[H])C(C([H])([H])[H])(C([H])([H])[H])C([H])([H])[H])C([H])(C(=O)N([H])C1([H])c3c([H])c([H])c([H])c([H])c3C([H])([H])C([H])([H])C1([H])[H])C2([H])[H])C([H])([H])[H]

>  <smiles>  (39) 
[H]c1c(C(N([H])C(=O)N2C([H])([H])C([H])([H])C([H])([H])C([H])(n3nc(-c4c([H])c([H])c(Oc5c([H])c([H])c(F)c([H])c5F)c([H])c4[H])c(C(=O)N([H])[H])c3N([H])[H])C2([H])[H])=[N+]([H])C([H])([H])[H])nsc1N([H])C([H])([H])C([H])(Oc1c([H])c([H])c2c(c1[H])C([H])([H])N(C(=O)C([H])(N([H])C(=O)C([H])(N([H])C([H])([H])[H])C([H])([H])[H])C(C([H])([H])[H])(C([H])([H])[H])C([H])([H])[H])C([H])(C(=O)N([H])C1([H])c3c([H])c([H])c([H])c([H])c3C([H])([H])C([H])([H])C1([H])[H])C2([H])[H])C([H])([H])[H]

$$$$
39:0:0
     RDKit          3D

 90 98  0  0  1  0  0  0  0  0999 V2000
  -28.9950  -22.1680   19.9140 C   0  0  0  0  0  2  0  0  0  0  0  0
  -28.8300  -23.6390   20.5810 C   0  0  0  0  0  0  0  0  0  0  0  0
  -29.2730  -23.8180   21.7210 O   0  0  0  0  0  0  0  0  0  0  0  0
  -28.0860  -24.8560   19.8210 C   0  0  0  0  0  2  0  0  0  0  0  0
  -28.2630  -26.3020   20.2730 O   0  0  0  0  0  0  0  0  0  0  0  0
  -24.6120  -31.8700   23.2390 C   0  0  0  0  0  0  0  0  0  0  0  0
  -27.1850  -27.2300   20.1810 C   0  0  0  0  0  0  0  0  0  0  0  0
  -23.4020  -30.4780   21.6030 C   0  0  0  0  0  3  0  0  0  0  0  0
  -24.8430  -28.9190   20.1670 C   0  0  0  0  0  0  0  0  0  0  0  0
  -25.9500  -30.7610   21.4250 C   0  0  0  0  0  2  0  0  0  0  0  0
  -26.0190  -29.3770   20.7730 C   0  0  0  0  0  0  0  0  0  0  0  0
  -27.1890  -28.5440   20.7750 C   0  0  0  0  0  3  0  0  0  0  0  0
  -25.9890  -26.8640   19.5190 C   0  0  0  0  0  3  0  0  0  0  0  0
  -24.8370  -27.6730   19.5270 C   0  0  0  0  0  3  0  0  0  0  0  0
  -23.6140  -29.8050   20.2200 C   0  0  0  0  0  2  0  0  0  0  0  0
  -24.6740  -31.0560   22.1440 N   0  0  0  0  0  0  0  0  0  0  0  0
  -23.5290  -32.1540   23.7730 O   0  0  0  0  0  0  0  0  0  0  0  0
  -22.7330  -29.4650   22.5630 C   0  0  0  0  0  0  0  0  0  0  0  0
  -21.4060  -29.2920   22.4390 N   0  0  0  0  0  0  0  0  0  0  0  0
  -23.4090  -28.8380   23.3830 O   0  0  0  0  0  0  0  0  0  0  0  0
  -20.9180  -29.8490   21.7510 H   0  0  0  0  0  0  0  0  0  0  0  0
  -18.0270  -28.0930   22.9400 C   0  0  0  0  0  0  0  0  0  0  0  0
  -20.5850  -28.3570   23.2120 C   0  0  0  0  0  3  0  0  0  0  0  0
  -20.6880  -26.9220   22.6440 C   0  0  0  0  0  2  0  0  0  0  0  0
  -19.5890  -26.5940   21.6280 C   0  0  0  0  0  2  0  0  0  0  0  0
  -18.2060  -26.7410   22.2700 C   0  0  0  0  0  2  0  0  0  0  0  0
  -19.1440  -28.8580   23.3680 C   0  0  0  0  0  0  0  0  0  0  0  0
  -18.9220  -30.1220   23.9570 C   0  0  0  0  0  3  0  0  0  0  0  0
  -17.6170  -30.6220   24.1200 C   0  0  0  0  0  3  0  0  0  0  0  0
  -16.5140  -29.8540   23.7070 C   0  0  0  0  0  3  0  0  0  0  0  0
  -16.7200  -28.5910   23.1230 C   0  0  0  0  0  3  0  0  0  0  0  0
  -25.8960  -32.5010   23.8600 C   0  0  0  0  0  3  0  0  0  0  0  0
  -26.4110  -31.7300   25.1360 C   0  0  1  0  0  0  0  0  0  0  0  0
  -25.3190  -31.4990   26.2080 C   0  0  0  0  0  1  0  0  0  0  0  0
  -26.9870  -30.3480   24.7500 C   0  0  0  0  0  1  0  0  0  0  0  0
  -27.5670  -32.5200   25.7950 C   0  0  0  0  0  1  0  0  0  0  0  0
  -25.5900  -33.9000   24.1920 N   0  0  0  0  0  0  0  0  0  0  0  0
  -25.9170  -34.9550   23.4340 C   0  0  0  0  0  0  0  0  0  0  0  0
  -26.5780  -34.8520   22.3970 O   0  0  0  0  0  0  0  0  0  0  0  0
  -25.0000  -34.0540   24.9980 H   0  0  0  0  0  0  0  0  0  0  0  0
  -24.1850  -36.7510   23.1030 C   0  0  0  0  0  1  0  0  0  0  0  0
  -25.4360  -36.3440   23.8980 C   0  0  0  0  0  3  0  0  0  0  0  0
  -27.5820  -37.2260   24.7010 C   0  0  0  0  0  1  0  0  0  0  0  0
  -26.4680  -37.3960   23.7730 N   0  0  0  0  0  0  0  0  0  0  0  0
  -26.0650  -38.3160   23.9260 H   0  0  0  0  0  0  0  0  0  0  0  0
  -29.0640  -20.8940   20.7650 N   0  0  0  0  0  0  0  0  0  0  0  0
  -28.4200  -20.9020   21.5520 H   0  0  0  0  0  0  0  0  0  0  0  0
  -30.7710  -17.8750   19.4430 C   0  0  0  0  0  3  0  0  0  0  0  0
  -30.5350  -19.3020   19.4280 C   0  0  0  0  0  3  0  0  0  0  0  0
  -29.9420  -17.3020   20.3800 C   0  0  0  0  0  0  0  0  0  0  0  0
  -29.5720  -19.5820   20.3630 C   0  0  0  0  0  0  0  0  0  0  0  0
  -29.1890  -18.3570   20.9590 O   0  0  0  0  0  0  0  0  0  0  0  0
  -30.5500  -14.7950   20.3350 C   0  0  0  0  0  0  0  0  0  0  0  0
  -30.3590  -12.5000   19.3430 C   0  0  0  0  0  2  0  0  0  0  0  0
  -29.4170  -12.5640   18.1180 C   0  0  0  0  0  2  0  0  0  0  0  0
  -27.9490  -12.3860   18.5540 C   0  0  0  0  0  2  0  0  0  0  0  0
  -27.5790  -13.2740   19.7720 C   0  0  0  0  0  3  0  0  0  0  0  0
  -28.6420  -13.1930   20.8890 C   0  0  0  0  0  2  0  0  0  0  0  0
  -29.9370  -13.5560   20.2950 N   0  0  0  0  0  0  0  0  0  0  0  0
  -31.7230  -14.8900   19.9570 O   0  0  0  0  0  0  0  0  0  0  0  0
  -29.7870  -15.9210   20.6580 N   0  0  0  0  0  0  0  0  0  0  0  0
  -28.9090  -15.6860   21.0940 H   0  0  0  0  0  0  0  0  0  0  0  0
  -25.1940  -13.8650   20.5040 C   0  0  0  0  0  0  0  0  0  0  0  0
  -24.1300  -13.0920   20.8810 C   0  0  0  0  0  0  0  0  0  0  0  0
  -24.5930  -11.7410   20.8530 C   0  0  0  0  0  0  0  0  0  0  0  0
  -26.2380  -12.9850   20.2660 N   0  0  0  0  0  0  0  0  0  0  0  0
  -25.8820  -11.7020   20.5400 N   0  0  0  0  0  0  0  0  0  0  0  0
  -23.8650  -10.4800   21.0500 C   0  0  0  0  0  0  0  0  0  0  0  0
  -24.3110   -9.5060   21.9700 C   0  0  0  0  0  3  0  0  0  0  0  0
  -23.5840   -8.3100   22.1560 C   0  0  0  0  0  3  0  0  0  0  0  0
  -22.3970   -8.0790   21.4190 C   0  0  0  0  0  0  0  0  0  0  0  0
  -21.9700   -9.0420   20.4880 C   0  0  0  0  0  3  0  0  0  0  0  0
  -22.6980  -10.2290   20.3010 C   0  0  0  0  0  3  0  0  0  0  0  0
  -21.6400   -6.9370   21.5150 O   0  0  0  0  0  0  0  0  0  0  0  0
  -21.6220   -6.1790   22.6580 C   0  0  0  0  0  0  0  0  0  0  0  0
  -21.2430   -6.7200   23.9070 C   0  0  0  0  0  3  0  0  0  0  0  0
  -21.1720   -5.8890   25.0420 C   0  0  0  0  0  3  0  0  0  0  0  0
  -21.4700   -4.5180   24.9320 C   0  0  0  0  0  0  0  0  0  0  0  0
  -21.8410   -3.9760   23.6880 C   0  0  0  0  0  3  0  0  0  0  0  0
  -21.9140   -4.8040   22.5550 C   0  0  0  0  0  0  0  0  0  0  0  0
  -22.2520   -4.2720   21.3550 F   0  0  0  0  0  0  0  0  0  0  0  0
  -21.3930   -3.7170   26.0200 F   0  0  0  0  0  0  0  0  0  0  0  0
  -22.7340  -13.5710   21.1550 C   0  0  0  0  0  0  0  0  0  0  0  0
  -22.0100  -12.8820   22.0280 N   0  0  0  0  0  0  0  0  0  0  0  0
  -22.2950  -14.5930   20.6290 O   0  0  0  0  0  0  0  0  0  0  0  0
  -22.3780  -12.0550   22.4750 H   0  0  0  0  0  0  0  0  0  0  0  0
  -21.0720  -13.1850   22.2540 H   0  0  0  0  0  0  0  0  0  0  0  0
  -25.3560  -15.2350   20.3190 N   0  0  0  0  0  0  0  0  0  0  0  0
  -24.5860  -15.8850   20.4230 H   0  0  0  0  0  0  0  0  0  0  0  0
  -26.1950  -15.6720   19.9580 H   0  0  0  0  0  0  0  0  0  0  0  0
  1  2  1  0
  1 46  1  0
  2  3  2  0
  4  5  1  0
  4  2  1  0
  6 17  2  0
  7  5  1  0
  7 12  1  0
  8 16  1  0
  8 18  1  0
  9 15  1  0
  9 11  1  0
 10 16  1  0
 11 12  2  0
 11 10  1  0
 13 14  1  0
 13  7  2  0
 14  9  2  0
 15  8  1  0
 16  6  1  0
 18 20  2  0
 19 18  1  0
 21 19  1  0
 22 31  2  0
 22 27  1  0
 23 19  1  0
 23 27  1  0
 24 23  1  0
 25 26  1  0
 25 24  1  0
 26 22  1  0
 27 28  2  0
 28 29  1  0
 30 29  2  0
 31 30  1  0
 32  6  1  0
 32 37  1  0
 32 33  1  0
 33 36  1  1
 33 34  1  0
 35 33  1  0
 37 40  1  0
 38 42  1  0
 38 37  1  0
 39 38  2  0
 42 41  1  0
 44 42  1  0
 44 45  1  0
 44 43  1  0
 46 47  1  0
 48 50  2  0
 49 48  1  0
 49 51  2  0
 50 61  1  0
 50 52  1  0
 51 46  1  0
 51 52  1  0
 53 61  1  0
 54 59  1  0
 55 56  1  0
 55 54  1  0
 57 56  1  0
 57 66  1  0
 57 58  1  0
 59 53  1  0
 59 58  1  0
 60 53  2  0
 61 62  1  0
 63 64  2  0
 64 83  1  0
 65 64  1  0
 65 68  1  0
 66 63  1  0
 66 67  1  0
 67 65  2  0
 68 69  1  0
 69 70  2  0
 71 74  1  0
 71 70  1  0
 72 71  2  0
 73 72  1  0
 73 68  2  0
 74 75  1  0
 75 76  1  0
 76 77  2  0
 78 77  1  0
 78 82  1  0
 79 78  2  0
 80 75  2  0
 80 79  1  0
 81 80  1  0
 83 84  1  0
 84 87  1  0
 84 86  1  0
 85 83  2  0
 88 89  1  0
 88 63  1  0
 90 88  1  0
M  ISO  4   4 101   5 101  53 100  61 100
M  END
>  <TORSDO>  (40) 
F 20

>  <SCORE>  (40) 
-13.807

>  <name>  (40) 
39

>  <ligand_id>  (40) 
39

>  <original_smiles>  (40) 
[H]c1c(N([H])C(=O)N2C([H])([H])C([H])([H])C([H])([H])C([H])(n3nc(-c4c([H])c([H])c(Oc5c([H])c([H])c(F)c([H])c5F)c([H])c4[H])c(C(=O)N([H])[H])c3N([H])[H])C2([H])[H])oc(N([H])C([H])([H])C(=O)C([H])([H])Oc2c([H])c([H])c3c(c2[H])C([H])([H])N(C(=O)C([H])(N([H])C(=O)C([H])(N([H])C([H])([H])[H])C([H])([H])[H])C(C([H])([H])[H])(C([H])([H])[H])C([H])([H])[H])C([H])(C(=O)N([H])C2([H])c4c([H])c([H])c([H])c([H])c4C([H])([H])C([H])([H])C2([H])[H])C3([H])[H])c1[H]

>  <smiles>  (40) 
[H]c1c(N([H])C(=O)N2C([H])([H])C([H])([H])C([H])([H])C([H])(n3nc(-c4c([H])c([H])c(Oc5c([H])c([H])c(F)c([H])c5F)c([H])c4[H])c(C(=O)N([H])[H])c3N([H])[H])C2([H])[H])oc(N([H])C([H])([H])C(=O)C([H])([H])Oc2c([H])c([H])c3c(c2[H])C([H])([H])N(C(=O)C([H])(N([H])C(=O)C([H])(N([H])C([H])([H])[H])C([H])([H])[H])C(C([H])([H])[H])(C([H])([H])[H])C([H])([H])[H])C([H])(C(=O)N([H])C2([H])c4c([H])c([H])c([H])c([H])c4C([H])([H])C([H])([H])C2([H])[H])C3([H])[H])c1[H]

$$$$
40:0:0
     RDKit          3D

 93101  0  0  1  0  0  0  0  0999 V2000
  -29.1380  -23.5370   20.4850 C   0  0  0  0  0  0  0  0  0  0  0  0
  -28.9440  -22.2120   20.0530 N   0  0  0  0  0  0  0  0  0  0  0  0
  -30.1960  -23.8620   21.0330 O   0  0  0  0  0  0  0  0  0  0  0  0
  -28.1650  -22.1160   19.4150 H   0  0  0  0  0  0  0  0  0  0  0  0
  -29.9800  -20.6920   21.7110 C   0  0  0  0  0  3  0  0  0  0  0  0
  -30.2780  -19.2820   21.7570 C   0  0  0  0  0  0  0  0  0  0  0  0
  -30.0380  -18.6620   20.5470 C   0  0  0  0  0  0  0  0  0  0  0  0
  -29.5110  -20.9700   20.4530 C   0  0  0  0  0  0  0  0  0  0  0  0
  -29.5280  -19.7300   19.7310 O   0  0  0  0  0  0  0  0  0  0  0  0
  -30.7820  -18.6580   22.9010 N   0  0  0  0  0  0  0  0  0  0  0  0
  -31.1980  -19.2160   23.6410 H   0  0  0  0  0  0  0  0  0  0  0  0
  -31.1720  -17.7220   22.8270 H   0  0  0  0  0  0  0  0  0  0  0  0
  -30.2770  -17.2270   19.9840 C   0  0  0  0  0  3  0  0  0  0  0  0
  -30.1840  -16.0220   20.5600 N   0  0  0  0  0  0  0  0  0  0  0  0
  -30.8290  -14.8450   20.0000 C   0  0  0  0  0  0  0  0  0  0  0  0
  -30.5110  -12.5710   18.9610 C   0  0  0  0  0  2  0  0  0  0  0  0
  -29.5210  -12.6720   17.7790 C   0  0  0  0  0  2  0  0  0  0  0  0
  -28.0730  -12.5120   18.2770 C   0  0  0  0  0  2  0  0  0  0  0  0
  -27.7750  -13.3880   19.5220 C   0  0  0  0  0  3  0  0  0  0  0  0
  -28.8860  -13.2850   20.5890 C   0  0  0  0  0  2  0  0  0  0  0  0
  -30.1600  -13.6310   19.9460 N   0  0  0  0  0  0  0  0  0  0  0  0
  -31.9470  -14.8890   19.4830 O   0  0  0  0  0  0  0  0  0  0  0  0
  -25.4480  -14.0120   20.3920 C   0  0  0  0  0  0  0  0  0  0  0  0
  -24.3810  -13.2560   20.7950 C   0  0  0  0  0  0  0  0  0  0  0  0
  -24.8060  -11.8940   20.7060 C   0  0  0  0  0  0  0  0  0  0  0  0
  -26.4530  -13.1140   20.0760 N   0  0  0  0  0  0  0  0  0  0  0  0
  -26.0780  -11.8320   20.3280 N   0  0  0  0  0  0  0  0  0  0  0  0
  -24.0550  -10.6470   20.9030 C   0  0  0  0  0  0  0  0  0  0  0  0
  -24.4740   -9.6690   21.8320 C   0  0  0  0  0  3  0  0  0  0  0  0
  -23.7230   -8.4880   22.0170 C   0  0  0  0  0  3  0  0  0  0  0  0
  -22.5390   -8.2760   21.2720 C   0  0  0  0  0  0  0  0  0  0  0  0
  -22.1390   -9.2410   20.3310 C   0  0  0  0  0  3  0  0  0  0  0  0
  -22.8900  -10.4140   20.1440 C   0  0  0  0  0  3  0  0  0  0  0  0
  -21.7610   -7.1470   21.3650 O   0  0  0  0  0  0  0  0  0  0  0  0
  -21.6590   -6.4370   22.5350 C   0  0  0  0  0  0  0  0  0  0  0  0
  -21.1890   -7.0290   23.7270 C   0  0  0  0  0  3  0  0  0  0  0  0
  -21.0340   -6.2460   24.8880 C   0  0  0  0  0  3  0  0  0  0  0  0
  -21.3400   -4.8730   24.8580 C   0  0  0  0  0  0  0  0  0  0  0  0
  -21.8040   -4.2800   23.6700 C   0  0  0  0  0  3  0  0  0  0  0  0
  -21.9600   -5.0610   22.5110 C   0  0  0  0  0  0  0  0  0  0  0  0
  -22.3870   -4.4800   21.3640 F   0  0  0  0  0  0  0  0  0  0  0  0
  -21.1850   -4.1180   25.9720 F   0  0  0  0  0  0  0  0  0  0  0  0
  -23.0140  -13.7620   21.1520 C   0  0  0  0  0  0  0  0  0  0  0  0
  -22.3210  -13.0730   22.0520 N   0  0  0  0  0  0  0  0  0  0  0  0
  -22.5730  -14.8030   20.6690 O   0  0  0  0  0  0  0  0  0  0  0  0
  -22.6930  -12.2300   22.4650 H   0  0  0  0  0  0  0  0  0  0  0  0
  -21.4050  -13.3940   22.3330 H   0  0  0  0  0  0  0  0  0  0  0  0
  -25.6400  -15.3820   20.2440 N   0  0  0  0  0  0  0  0  0  0  0  0
  -24.9100  -16.0610   20.4280 H   0  0  0  0  0  0  0  0  0  0  0  0
  -26.5070  -15.8030   19.9300 H   0  0  0  0  0  0  0  0  0  0  0  0
  -27.0590  -24.4400   21.5470 C   0  0  0  0  0  1  0  0  0  0  0  0
  -27.9850  -24.6820   20.3260 C   0  0  0  0  0  3  0  0  0  0  0  0
  -28.3270  -26.1890   20.2770 O   0  0  0  0  0  0  0  0  0  0  0  0
  -24.5280  -31.7670   23.1010 C   0  0  0  0  0  0  0  0  0  0  0  0
  -27.2700  -27.1490   20.1350 C   0  0  0  0  0  0  0  0  0  0  0  0
  -23.3870  -30.3280   21.4570 C   0  0  0  0  0  3  0  0  0  0  0  0
  -24.8970  -28.8020   20.0520 C   0  0  0  0  0  0  0  0  0  0  0  0
  -25.9310  -30.6750   21.3230 C   0  0  0  0  0  2  0  0  0  0  0  0
  -26.0510  -29.2870   20.6810 C   0  0  0  0  0  0  0  0  0  0  0  0
  -27.2400  -28.4740   20.7140 C   0  0  0  0  0  3  0  0  0  0  0  0
  -26.1050  -26.7790   19.4250 C   0  0  0  0  0  3  0  0  0  0  0  0
  -24.9340  -27.5590   19.4090 C   0  0  0  0  0  3  0  0  0  0  0  0
  -23.6420  -29.6540   20.0840 C   0  0  0  0  0  2  0  0  0  0  0  0
  -24.6340  -30.9440   22.0160 N   0  0  0  0  0  0  0  0  0  0  0  0
  -23.4290  -32.0250   23.6140 O   0  0  0  0  0  0  0  0  0  0  0  0
  -22.7290  -29.3040   22.4150 C   0  0  0  0  0  0  0  0  0  0  0  0
  -21.4050  -29.1050   22.2820 N   0  0  0  0  0  0  0  0  0  0  0  0
  -23.4100  -28.6930   23.2440 O   0  0  0  0  0  0  0  0  0  0  0  0
  -20.9130  -29.6510   21.5890 H   0  0  0  0  0  0  0  0  0  0  0  0
  -18.0520  -27.8190   22.7450 C   0  0  0  0  0  0  0  0  0  0  0  0
  -20.5980  -28.1550   23.0510 C   0  0  0  0  0  3  0  0  0  0  0  0
  -20.7490  -26.7190   22.4980 C   0  0  0  0  0  2  0  0  0  0  0  0
  -19.6730  -26.3520   21.4700 C   0  0  0  0  0  2  0  0  0  0  0  0
  -18.2770  -26.4670   22.0890 C   0  0  0  0  0  2  0  0  0  0  0  0
  -19.1420  -28.6190   23.1820 C   0  0  0  0  0  0  0  0  0  0  0  0
  -18.8770  -29.8810   23.7560 C   0  0  0  0  0  3  0  0  0  0  0  0
  -17.5550  -30.3460   23.8950 C   0  0  0  0  0  3  0  0  0  0  0  0
  -16.4800  -29.5450   23.4730 C   0  0  0  0  0  3  0  0  0  0  0  0
  -16.7300  -28.2840   22.9040 C   0  0  0  0  0  3  0  0  0  0  0  0
  -25.7830  -32.4400   23.7380 C   0  0  0  0  0  3  0  0  0  0  0  0
  -26.3330  -31.6620   24.9960 C   0  0  1  0  0  0  0  0  0  0  0  0
  -25.2510  -31.3470   26.0560 C   0  0  0  0  0  1  0  0  0  0  0  0
  -26.9790  -30.3210   24.5740 C   0  0  0  0  0  1  0  0  0  0  0  0
  -27.4450  -32.4910   25.6790 C   0  0  0  0  0  1  0  0  0  0  0  0
  -25.4120  -33.8150   24.1060 N   0  0  0  0  0  0  0  0  0  0  0  0
  -25.7190  -34.9050   23.3910 C   0  0  0  0  0  0  0  0  0  0  0  0
  -26.4100  -34.8630   22.3700 O   0  0  0  0  0  0  0  0  0  0  0  0
  -24.7970  -33.9200   24.9000 H   0  0  0  0  0  0  0  0  0  0  0  0
  -23.9410  -36.6560   23.0560 C   0  0  0  0  0  1  0  0  0  0  0  0
  -25.1730  -36.2600   23.8860 C   0  0  0  0  0  3  0  0  0  0  0  0
  -27.2550  -37.1800   24.8080 C   0  0  0  0  0  1  0  0  0  0  0  0
  -26.1730  -37.3500   23.8420 N   0  0  0  0  0  0  0  0  0  0  0  0
  -25.7320  -38.2500   24.0130 H   0  0  0  0  0  0  0  0  0  0  0  0
  1  3  2  0
  2  8  1  0
  2  1  1  0
  4  2  1  0
  5  6  1  0
  6 10  1  0
  7  6  2  0
  8  5  2  0
  9  8  1  0
  9  7  1  0
 10 11  1  0
 12 10  1  0
 13  7  1  0
 13 14  2  0
 15 14  1  0
 16 21  1  0
 17 18  1  0
 17 16  1  0
 19 18  1  0
 19 26  1  0
 19 20  1  0
 21 15  1  0
 21 20  1  0
 22 15  2  0
 23 24  2  0
 24 43  1  0
 25 24  1  0
 25 28  1  0
 26 27  1  0
 26 23  1  0
 27 25  2  0
 28 29  1  0
 29 30  2  0
 31 34  1  0
 31 30  1  0
 32 31  2  0
 33 32  1  0
 33 28  2  0
 34 35  1  0
 35 36  1  0
 36 37  2  0
 38 37  1  0
 38 42  1  0
 39 38  2  0
 40 35  2  0
 40 39  1  0
 41 40  1  0
 43 44  1  0
 44 47  1  0
 44 46  1  0
 45 43  2  0
 48 23  1  0
 48 49  1  0
 50 48  1  0
 52  1  1  0
 52 51  1  0
 53 52  1  0
 54 65  2  0
 55 53  1  0
 55 60  1  0
 56 64  1  0
 56 66  1  0
 57 63  1  0
 57 59  1  0
 58 64  1  0
 59 60  2  0
 59 58  1  0
 61 55  2  0
 62 61  1  0
 62 57  2  0
 63 56  1  0
 64 54  1  0
 66 68  2  0
 67 66  1  0
 69 67  1  0
 70 79  2  0
 70 75  1  0
 71 67  1  0
 71 75  1  0
 72 71  1  0
 73 74  1  0
 73 72  1  0
 74 70  1  0
 75 76  2  0
 76 77  1  0
 78 77  2  0
 79 78  1  0
 80 54  1  0
 80 85  1  0
 80 81  1  0
 81 84  1  1
 81 82  1  0
 83 81  1  0
 85 88  1  0
 86 90  1  0
 86 85  1  0
 87 86  2  0
 90 89  1  0
 92 90  1  0
 92 93  1  0
 92 91  1  0
M  ISO  4  14 100  15 100  52 101  53 101
M  END
>  <TORSDO>  (41) 
F 20

>  <SCORE>  (41) 
-13.667

>  <name>  (41) 
40

>  <ligand_id>  (41) 
40

>  <original_smiles>  (41) 
[H]C(=NC(=O)N1C([H])([H])C([H])([H])C([H])([H])C([H])(n2nc(-c3c([H])c([H])c(Oc4c([H])c([H])c(F)c([H])c4F)c([H])c3[H])c(C(=O)N([H])[H])c2N([H])[H])C1([H])[H])c1oc(N([H])C(=O)C([H])(Oc2c([H])c([H])c3c(c2[H])C([H])([H])N(C(=O)C([H])(N([H])C(=O)C([H])(N([H])C([H])([H])[H])C([H])([H])[H])C(C([H])([H])[H])(C([H])([H])[H])C([H])([H])[H])C([H])(C(=O)N([H])C2([H])c4c([H])c([H])c([H])c([H])c4C([H])([H])C([H])([H])C2([H])[H])C3([H])[H])C([H])([H])[H])c([H])c1N([H])[H]

>  <smiles>  (41) 
[H]C(=NC(=O)N1C([H])([H])C([H])([H])C([H])([H])C([H])(n2nc(-c3c([H])c([H])c(Oc4c([H])c([H])c(F)c([H])c4F)c([H])c3[H])c(C(=O)N([H])[H])c2N([H])[H])C1([H])[H])c1oc(N([H])C(=O)C([H])(Oc2c([H])c([H])c3c(c2[H])C([H])([H])N(C(=O)C([H])(N([H])C(=O)C([H])(N([H])C([H])([H])[H])C([H])([H])[H])C(C([H])([H])[H])(C([H])([H])[H])C([H])([H])[H])C([H])(C(=O)N([H])C2([H])c4c([H])c([H])c([H])c([H])c4C([H])([H])C([H])([H])C2([H])[H])C3([H])[H])C([H])([H])[H])c([H])c1N([H])[H]

$$$$
41:0:0
     RDKit          3D

 92100  0  0  1  0  0  0  0  0999 V2000
  -28.2990  -18.9580   19.4150 C   0  0  0  0  0  3  0  0  0  0  0  0
  -28.0140  -20.3740   19.4550 C   0  0  0  0  0  3  0  0  0  0  0  0
  -29.3970  -18.6710   20.1960 C   0  0  0  0  0  0  0  0  0  0  0  0
  -28.9400  -20.9500   20.2820 C   0  0  0  0  0  0  0  0  0  0  0  0
  -29.7960  -19.9250   20.7430 O   0  0  0  0  0  0  0  0  0  0  0  0
  -30.5830  -14.8060   20.3910 C   0  0  0  0  0  0  0  0  0  0  0  0
  -30.3810  -12.5170   19.3890 C   0  0  0  0  0  2  0  0  0  0  0  0
  -29.4560  -12.5700   18.1550 C   0  0  0  0  0  2  0  0  0  0  0  0
  -27.9840  -12.3890   18.5770 C   0  0  0  0  0  2  0  0  0  0  0  0
  -27.5940  -13.2900   19.7790 C   0  0  0  0  0  3  0  0  0  0  0  0
  -28.6460  -13.2280   20.9080 C   0  0  0  0  0  2  0  0  0  0  0  0
  -29.9370  -13.5880   20.3140 N   0  0  0  0  0  0  0  0  0  0  0  0
  -31.7950  -14.8750   20.1420 O   0  0  0  0  0  0  0  0  0  0  0  0
  -30.2470  -17.4290   20.4200 C   0  0  0  0  0  0  0  0  0  0  0  0
  -29.7930  -16.0950   20.4670 N   0  0  0  0  0  0  0  0  0  0  0  0
  -31.5640  -17.6830   20.5260 N   0  0  0  0  0  4  0  0  0  0  0  0
  -28.7930  -16.0550   20.5390 H   0  0  0  0  0  0  0  0  0  0  0  0
  -31.8970  -18.6330   20.4760 H   0  0  0  0  0  0  0  0  0  0  0  0
  -32.2350  -16.9260   20.5710 H   0  0  0  0  0  0  0  0  0  0  0  0
  -25.2060  -13.8840   20.4950 C   0  0  0  0  0  0  0  0  0  0  0  0
  -24.1400  -13.1130   20.8660 C   0  0  0  0  0  0  0  0  0  0  0  0
  -24.6030  -11.7610   20.8420 C   0  0  0  0  0  0  0  0  0  0  0  0
  -26.2490  -13.0030   20.2650 N   0  0  0  0  0  0  0  0  0  0  0  0
  -25.8960  -11.7220   20.5420 N   0  0  0  0  0  0  0  0  0  0  0  0
  -23.8750  -10.5000   21.0280 C   0  0  0  0  0  0  0  0  0  0  0  0
  -24.2920   -9.5380   21.9750 C   0  0  0  0  0  3  0  0  0  0  0  0
  -23.5640   -8.3420   22.1480 C   0  0  0  0  0  3  0  0  0  0  0  0
  -22.4050   -8.0970   21.3750 C   0  0  0  0  0  0  0  0  0  0  0  0
  -22.0050   -9.0470   20.4180 C   0  0  0  0  0  3  0  0  0  0  0  0
  -22.7330  -10.2350   20.2440 C   0  0  0  0  0  3  0  0  0  0  0  0
  -21.6490   -6.9540   21.4580 O   0  0  0  0  0  0  0  0  0  0  0  0
  -21.5740   -6.2230   22.6170 C   0  0  0  0  0  0  0  0  0  0  0  0
  -21.0940   -6.7830   23.8200 C   0  0  0  0  0  3  0  0  0  0  0  0
  -20.9650   -5.9800   24.9700 C   0  0  0  0  0  3  0  0  0  0  0  0
  -21.3060   -4.6160   24.9170 C   0  0  0  0  0  0  0  0  0  0  0  0
  -21.7770   -4.0520   23.7180 C   0  0  0  0  0  3  0  0  0  0  0  0
  -21.9080   -4.8540   22.5700 C   0  0  0  0  0  0  0  0  0  0  0  0
  -22.3430   -4.3010   21.4120 F   0  0  0  0  0  0  0  0  0  0  0  0
  -21.1750   -3.8420   26.0210 F   0  0  0  0  0  0  0  0  0  0  0  0
  -22.7400  -13.5910   21.1210 C   0  0  0  0  0  0  0  0  0  0  0  0
  -22.0010  -12.8940   21.9760 N   0  0  0  0  0  0  0  0  0  0  0  0
  -22.3110  -14.6170   20.5970 O   0  0  0  0  0  0  0  0  0  0  0  0
  -22.3560  -12.0610   22.4220 H   0  0  0  0  0  0  0  0  0  0  0  0
  -21.0630  -13.2010   22.1900 H   0  0  0  0  0  0  0  0  0  0  0  0
  -25.3700  -15.2560   20.3060 N   0  0  0  0  0  0  0  0  0  0  0  0
  -24.5800  -15.8900   20.3590 H   0  0  0  0  0  0  0  0  0  0  0  0
  -26.1580  -15.6620   19.8200 H   0  0  0  0  0  0  0  0  0  0  0  0
  -29.0280  -22.3480   20.6970 N   0  0  0  0  0  0  0  0  0  0  0  0
  -29.7410  -22.5520   21.3940 H   0  0  0  0  0  0  0  0  0  0  0  0
  -28.5150  -23.5900   19.9600 C   0  0  0  0  0  2  0  0  0  0  0  0
  -28.2420  -24.9730   20.8000 C   0  0  0  0  0  2  0  0  0  0  0  0
  -28.3620  -26.3870   20.2670 O   0  0  0  0  0  0  0  0  0  0  0  0
  -24.6080  -31.9040   23.2550 C   0  0  0  0  0  0  0  0  0  0  0  0
  -27.2560  -27.2700   20.2730 C   0  0  0  0  0  0  0  0  0  0  0  0
  -23.4330  -30.4910   21.6090 C   0  0  0  0  0  3  0  0  0  0  0  0
  -24.9030  -28.9230   20.2130 C   0  0  0  0  0  0  0  0  0  0  0  0
  -25.9770  -30.7950   21.4630 C   0  0  0  0  0  2  0  0  0  0  0  0
  -26.0680  -29.4080   20.8230 C   0  0  0  0  0  0  0  0  0  0  0  0
  -27.2500  -28.5940   20.8350 C   0  0  0  0  0  3  0  0  0  0  0  0
  -26.0650  -26.8460   19.6520 C   0  0  0  0  0  3  0  0  0  0  0  0
  -24.9070  -27.6500   19.6180 C   0  0  0  0  0  3  0  0  0  0  0  0
  -23.6690  -29.8060   20.2370 C   0  0  0  0  0  2  0  0  0  0  0  0
  -24.6910  -31.0840   22.1640 N   0  0  0  0  0  0  0  0  0  0  0  0
  -23.5170  -32.1840   23.7720 O   0  0  0  0  0  0  0  0  0  0  0  0
  -22.7560  -29.4820   22.5680 C   0  0  0  0  0  0  0  0  0  0  0  0
  -21.4300  -29.3060   22.4280 N   0  0  0  0  0  0  0  0  0  0  0  0
  -23.4230  -28.8610   23.4000 O   0  0  0  0  0  0  0  0  0  0  0  0
  -20.9490  -29.8530   21.7270 H   0  0  0  0  0  0  0  0  0  0  0  0
  -18.0420  -28.1300   22.9170 C   0  0  0  0  0  0  0  0  0  0  0  0
  -20.6020  -28.3710   23.1930 C   0  0  0  0  0  3  0  0  0  0  0  0
  -20.6970  -26.9420   22.6110 C   0  0  0  0  0  2  0  0  0  0  0  0
  -19.5940  -26.6330   21.5940 C   0  0  0  0  0  2  0  0  0  0  0  0
  -18.2110  -26.7830   22.2340 C   0  0  0  0  0  2  0  0  0  0  0  0
  -19.1650  -28.8820   23.3530 C   0  0  0  0  0  0  0  0  0  0  0  0
  -18.9530  -30.1440   23.9500 C   0  0  0  0  0  3  0  0  0  0  0  0
  -17.6500  -30.6530   24.1180 C   0  0  0  0  0  3  0  0  0  0  0  0
  -16.5430  -29.8960   23.6980 C   0  0  0  0  0  3  0  0  0  0  0  0
  -16.7390  -28.6360   23.1050 C   0  0  0  0  0  3  0  0  0  0  0  0
  -25.8810  -32.5440   23.8910 C   0  0  0  0  0  3  0  0  0  0  0  0
  -26.3740  -31.7850   25.1840 C   0  0  1  0  0  0  0  0  0  0  0  0
  -25.2610  -31.5580   26.2340 C   0  0  0  0  0  1  0  0  0  0  0  0
  -26.9660  -30.4050   24.8180 C   0  0  0  0  0  1  0  0  0  0  0  0
  -27.5130  -32.5870   25.8570 C   0  0  0  0  0  1  0  0  0  0  0  0
  -25.5640  -33.9450   24.2050 N   0  0  0  0  0  0  0  0  0  0  0  0
  -25.9060  -34.9930   23.4430 C   0  0  0  0  0  0  0  0  0  0  0  0
  -26.5890  -34.8820   22.4220 O   0  0  0  0  0  0  0  0  0  0  0  0
  -24.9560  -34.1050   24.9940 H   0  0  0  0  0  0  0  0  0  0  0  0
  -24.1910  -36.7870   23.0480 C   0  0  0  0  0  1  0  0  0  0  0  0
  -25.4160  -36.3850   23.8850 C   0  0  0  0  0  3  0  0  0  0  0  0
  -27.5320  -37.2710   24.7560 C   0  0  0  0  0  1  0  0  0  0  0  0
  -26.4530  -37.4350   23.7850 N   0  0  0  0  0  0  0  0  0  0  0  0
  -26.0470  -38.3570   23.9180 H   0  0  0  0  0  0  0  0  0  0  0  0
  1  2  1  0
  1  3  2  0
  2  4  2  0
  3 14  1  0
  3  5  1  0
  4 48  1  0
  4  5  1  0
  6 15  1  0
  7 12  1  0
  8  9  1  0
  8  7  1  0
 10  9  1  0
 10 23  1  0
 10 11  1  0
 12  6  1  0
 12 11  1  0
 13  6  2  0
 14 15  1  0
 14 16  2  0
 15 17  1  0
 16 19  1  0
 18 16  1  0
 20 21  2  0
 21 40  1  0
 22 21  1  0
 22 25  1  0
 23 20  1  0
 23 24  1  0
 24 22  2  0
 25 26  1  0
 26 27  2  0
 28 31  1  0
 28 27  1  0
 29 28  2  0
 30 29  1  0
 30 25  2  0
 31 32  1  0
 32 33  1  0
 33 34  2  0
 35 34  1  0
 35 39  1  0
 36 35  2  0
 37 32  2  0
 37 36  1  0
 38 37  1  0
 40 41  1  0
 41 44  1  0
 41 43  1  0
 42 40  2  0
 45 46  1  0
 45 20  1  0
 47 45  1  0
 48 49  1  0
 50 48  1  0
 50 51  1  0
 52 54  1  0
 52 51  1  0
 53 64  2  0
 54 59  1  0
 55 63  1  0
 55 65  1  0
 56 62  1  0
 56 58  1  0
 57 63  1  0
 58 59  2  0
 58 57  1  0
 60 54  2  0
 61 60  1  0
 61 56  2  0
 62 55  1  0
 63 53  1  0
 65 67  2  0
 66 65  1  0
 68 66  1  0
 69 78  2  0
 69 74  1  0
 70 66  1  0
 70 74  1  0
 71 70  1  0
 72 73  1  0
 72 71  1  0
 73 69  1  0
 74 75  2  0
 75 76  1  0
 77 76  2  0
 78 77  1  0
 79 53  1  0
 79 84  1  0
 79 80  1  0
 80 83  1  1
 80 81  1  0
 82 80  1  0
 84 87  1  0
 85 89  1  0
 85 84  1  0
 86 85  2  0
 89 88  1  0
 91 89  1  0
 91 92  1  0
 91 90  1  0
M  ISO  4   6 100  15 100  51 101  52 101
M  END
>  <TORSDO>  (42) 
F 19

>  <SCORE>  (42) 
-14.295

>  <name>  (42) 
41

>  <ligand_id>  (42) 
41

>  <original_smiles>  (42) 
[H]c1c(C(N([H])C(=O)N2C([H])([H])C([H])([H])C([H])([H])C([H])(n3nc(-c4c([H])c([H])c(Oc5c([H])c([H])c(F)c([H])c5F)c([H])c4[H])c(C(=O)N([H])[H])c3N([H])[H])C2([H])[H])=[N+]([H])[H])oc(N([H])C([H])([H])C([H])([H])Oc2c([H])c([H])c3c(c2[H])C([H])([H])N(C(=O)C([H])(N([H])C(=O)C([H])(N([H])C([H])([H])[H])C([H])([H])[H])C(C([H])([H])[H])(C([H])([H])[H])C([H])([H])[H])C([H])(C(=O)N([H])C2([H])c4c([H])c([H])c([H])c([H])c4C([H])([H])C([H])([H])C2([H])[H])C3([H])[H])c1[H]

>  <smiles>  (42) 
[H]c1c(C(N([H])C(=O)N2C([H])([H])C([H])([H])C([H])([H])C([H])(n3nc(-c4c([H])c([H])c(Oc5c([H])c([H])c(F)c([H])c5F)c([H])c4[H])c(C(=O)N([H])[H])c3N([H])[H])C2([H])[H])=[N+]([H])[H])oc(N([H])C([H])([H])C([H])([H])Oc2c([H])c([H])c3c(c2[H])C([H])([H])N(C(=O)C([H])(N([H])C(=O)C([H])(N([H])C([H])([H])[H])C([H])([H])[H])C(C([H])([H])[H])(C([H])([H])[H])C([H])([H])[H])C([H])(C(=O)N([H])C2([H])c4c([H])c([H])c([H])c([H])c4C([H])([H])C([H])([H])C2([H])[H])C3([H])[H])c1[H]

$$$$
42:0:0
     RDKit          3D

102110  0  0  1  0  0  0  0  0999 V2000
  -29.4510  -17.4000   18.8450 C   0  0  0  0  0  3  0  0  0  0  0  0
  -29.8390  -18.8420   20.7610 C   0  0  0  0  0  3  0  0  0  0  0  0
  -29.0110  -18.5150   18.1050 C   0  0  0  0  0  0  0  0  0  0  0  0
  -29.8730  -17.5030   20.1820 C   0  0  0  0  0  0  0  0  0  0  0  0
  -29.4170  -20.0410   20.0350 C   0  0  0  0  0  0  0  0  0  0  0  0
  -29.0430  -19.8320   18.6660 C   0  0  0  0  0  0  0  0  0  0  0  0
  -30.8040  -15.0920   20.4530 C   0  0  0  0  0  0  0  0  0  0  0  0
  -30.5500  -12.8710   19.3440 C   0  0  0  0  0  2  0  0  0  0  0  0
  -29.6290  -13.0470   18.1140 C   0  0  0  0  0  2  0  0  0  0  0  0
  -28.1450  -12.9080   18.5080 C   0  0  0  0  0  2  0  0  0  0  0  0
  -27.7840  -13.7250   19.7790 C   0  0  0  0  0  3  0  0  0  0  0  0
  -28.8280  -13.5450   20.9050 C   0  0  0  0  0  2  0  0  0  0  0  0
  -30.1480  -13.8820   20.3540 N   0  0  0  0  0  0  0  0  0  0  0  0
  -31.9680  -15.1940   20.0550 O   0  0  0  0  0  0  0  0  0  0  0  0
  -30.1070  -16.2110   20.8840 N   0  0  0  0  0  0  0  0  0  0  0  0
  -29.3390  -15.9600   21.4890 H   0  0  0  0  0  0  0  0  0  0  0  0
  -25.3790  -14.3370   20.4320 C   0  0  0  0  0  0  0  0  0  0  0  0
  -24.2990  -13.5750   20.7890 C   0  0  0  0  0  0  0  0  0  0  0  0
  -24.7560  -12.2220   20.7960 C   0  0  0  0  0  0  0  0  0  0  0  0
  -26.4260  -13.4490   20.2390 N   0  0  0  0  0  0  0  0  0  0  0  0
  -26.0550  -12.1720   20.5200 N   0  0  0  0  0  0  0  0  0  0  0  0
  -24.0160  -10.9660   20.9910 C   0  0  0  0  0  0  0  0  0  0  0  0
  -24.4060  -10.0190   21.9670 C   0  0  0  0  0  3  0  0  0  0  0  0
  -23.6630   -8.8310   22.1480 C   0  0  0  0  0  3  0  0  0  0  0  0
  -22.5170   -8.5820   21.3560 C   0  0  0  0  0  0  0  0  0  0  0  0
  -22.1450   -9.5180   20.3760 C   0  0  0  0  0  3  0  0  0  0  0  0
  -22.8870  -10.6970   20.1910 C   0  0  0  0  0  3  0  0  0  0  0  0
  -21.7480   -7.4450   21.4450 O   0  0  0  0  0  0  0  0  0  0  0  0
  -21.6510   -6.7340   22.6140 C   0  0  0  0  0  0  0  0  0  0  0  0
  -21.1890   -7.3270   23.8100 C   0  0  0  0  0  3  0  0  0  0  0  0
  -21.0360   -6.5420   24.9710 C   0  0  0  0  0  3  0  0  0  0  0  0
  -21.3350   -5.1660   24.9370 C   0  0  0  0  0  0  0  0  0  0  0  0
  -21.7900   -4.5750   23.7460 C   0  0  0  0  0  3  0  0  0  0  0  0
  -21.9460   -5.3570   22.5870 C   0  0  0  0  0  0  0  0  0  0  0  0
  -22.3640   -4.7780   21.4360 F   0  0  0  0  0  0  0  0  0  0  0  0
  -21.1810   -4.4110   26.0490 F   0  0  0  0  0  0  0  0  0  0  0  0
  -22.8980  -14.0680   21.0130 C   0  0  0  0  0  0  0  0  0  0  0  0
  -22.1430  -13.4070   21.8840 N   0  0  0  0  0  0  0  0  0  0  0  0
  -22.4800  -15.0810   20.4540 O   0  0  0  0  0  0  0  0  0  0  0  0
  -22.4900  -12.5900   22.3640 H   0  0  0  0  0  0  0  0  0  0  0  0
  -21.2040  -13.7260   22.0740 H   0  0  0  0  0  0  0  0  0  0  0  0
  -25.5520  -15.7040   20.2330 N   0  0  0  0  0  0  0  0  0  0  0  0
  -24.7590  -16.3370   20.2550 H   0  0  0  0  0  0  0  0  0  0  0  0
  -26.4120  -16.1500   19.9440 H   0  0  0  0  0  0  0  0  0  0  0  0
  -28.4590  -18.2040   16.7720 C   0  0  0  0  0  0  0  0  0  0  0  0
  -29.1880  -17.5780   15.8450 N   0  0  0  0  0  4  0  0  0  0  0  0
  -27.1890  -18.4920   16.4850 N   0  0  0  0  0  0  0  0  0  0  0  0
  -30.1680  -17.4030   16.0140 H   0  0  0  0  0  0  0  0  0  0  0  0
  -28.8330  -17.3700   14.9230 H   0  0  0  0  0  0  0  0  0  0  0  0
  -26.6140  -18.9110   17.2030 H   0  0  0  0  0  0  0  0  0  0  0  0
  -26.7540  -18.2550   15.6090 H   0  0  0  0  0  0  0  0  0  0  0  0
  -28.5390  -22.4900   20.4810 C   0  0  0  0  0  0  0  0  0  0  0  0
  -29.4400  -21.4330   20.6090 N   0  0  0  0  0  0  0  0  0  0  0  0
  -27.4070  -22.3100   20.0210 O   0  0  0  0  0  0  0  0  0  0  0  0
  -30.2550  -21.6630   21.1610 H   0  0  0  0  0  0  0  0  0  0  0  0
  -28.9360  -24.0090   20.9520 C   0  0  0  0  0  0  0  0  0  0  0  0
  -29.8630  -24.2120   21.7460 O   0  0  0  0  0  0  0  0  0  0  0  0
  -28.0680  -25.2240   20.3660 C   0  0  0  0  0  2  0  0  0  0  0  0
  -28.3440  -26.6610   20.7340 O   0  0  0  0  0  0  0  0  0  0  0  0
  -24.6180  -32.2570   23.4930 C   0  0  0  0  0  0  0  0  0  0  0  0
  -27.2650  -27.5730   20.6100 C   0  0  0  0  0  0  0  0  0  0  0  0
  -23.4380  -30.8130   21.8780 C   0  0  0  0  0  3  0  0  0  0  0  0
  -24.9110  -29.2290   20.5080 C   0  0  0  0  0  0  0  0  0  0  0  0
  -25.9840  -31.1160   21.7250 C   0  0  0  0  0  2  0  0  0  0  0  0
  -26.0720  -29.7160   21.1210 C   0  0  0  0  0  0  0  0  0  0  0  0
  -27.2510  -28.8990   21.1670 C   0  0  0  0  0  3  0  0  0  0  0  0
  -26.0830  -27.1710   19.9400 C   0  0  0  0  0  3  0  0  0  0  0  0
  -24.9220  -27.9660   19.9030 C   0  0  0  0  0  3  0  0  0  0  0  0
  -23.6730  -30.1040   20.5190 C   0  0  0  0  0  2  0  0  0  0  0  0
  -24.6980  -31.4160   22.4210 N   0  0  0  0  0  0  0  0  0  0  0  0
  -23.5260  -32.5480   24.0030 O   0  0  0  0  0  0  0  0  0  0  0  0
  -22.7640  -29.8200   22.8560 C   0  0  0  0  0  0  0  0  0  0  0  0
  -21.4750  -29.5180   22.6210 N   0  0  0  0  0  0  0  0  0  0  0  0
  -23.4010  -29.3230   23.7870 O   0  0  0  0  0  0  0  0  0  0  0  0
  -21.0170  -29.9730   21.8440 H   0  0  0  0  0  0  0  0  0  0  0  0
  -18.1760  -28.0480   22.8720 C   0  0  0  0  0  0  0  0  0  0  0  0
  -20.6550  -28.5760   23.3880 C   0  0  0  0  0  3  0  0  0  0  0  0
  -20.9450  -27.1150   22.9710 C   0  0  0  0  0  2  0  0  0  0  0  0
  -19.9990  -26.6010   21.8810 C   0  0  0  0  0  2  0  0  0  0  0  0
  -18.5450  -26.6670   22.3560 C   0  0  0  0  0  2  0  0  0  0  0  0
  -19.1690  -28.9500   23.3400 C   0  0  0  0  0  0  0  0  0  0  0  0
  -18.7750  -30.2340   23.7770 C   0  0  0  0  0  3  0  0  0  0  0  0
  -17.4210  -30.6180   23.7550 C   0  0  0  0  0  3  0  0  0  0  0  0
  -16.4420  -29.7160   23.3050 C   0  0  0  0  0  3  0  0  0  0  0  0
  -16.8190  -28.4330   22.8690 C   0  0  0  0  0  3  0  0  0  0  0  0
  -25.8890  -32.9100   24.1160 C   0  0  0  0  0  3  0  0  0  0  0  0
  -25.5790  -34.3220   24.3820 N   0  0  0  0  0  0  0  0  0  0  0  0
  -25.8980  -35.3390   23.5710 C   0  0  0  0  0  0  0  0  0  0  0  0
  -26.5560  -35.1890   22.5380 O   0  0  0  0  0  0  0  0  0  0  0  0
  -24.9940  -34.5120   25.1830 H   0  0  0  0  0  0  0  0  0  0  0  0
  -24.1530  -37.1060   23.1660 C   0  0  0  0  0  1  0  0  0  0  0  0
  -25.4130  -36.7460   23.9700 C   0  0  0  0  0  3  0  0  0  0  0  0
  -27.5580  -37.6860   24.7120 C   0  0  0  0  0  1  0  0  0  0  0  0
  -26.4360  -37.7990   23.7830 N   0  0  0  0  0  0  0  0  0  0  0  0
  -26.0270  -38.7230   23.8910 H   0  0  0  0  0  0  0  0  0  0  0  0
  -26.3730  -32.1900   25.4350 C   0  0  1  0  0  0  0  0  0  0  0  0
  -25.2400  -31.9290   26.4530 C   0  0  0  0  0  1  0  0  0  0  0  0
  -27.0340  -30.8310   25.1060 C   0  0  0  0  0  1  0  0  0  0  0  0
  -27.4530  -33.0480   26.1340 C   0  0  0  0  0  1  0  0  0  0  0  0
  -28.7500  -20.9400   17.8580 N   0  0  0  0  0  0  0  0  0  0  0  0
  -28.2940  -20.7710   16.9670 H   0  0  0  0  0  0  0  0  0  0  0  0
  -28.2950  -21.7070   18.3550 H   0  0  0  0  0  0  0  0  0  0  0  0
  1  4  1  0
  3  6  1  0
  3  1  2  0
  4  2  2  0
  4 15  1  0
  5 53  1  0
  5  2  1  0
  6  5  2  0
  7 15  1  0
  8 13  1  0
  9 10  1  0
  9  8  1  0
 11 10  1  0
 11 20  1  0
 11 12  1  0
 13  7  1  0
 13 12  1  0
 14  7  2  0
 15 16  1  0
 17 18  2  0
 18 19  1  0
 18 37  1  0
 19 22  1  0
 20 17  1  0
 20 21  1  0
 21 19  2  0
 22 23  1  0
 23 24  2  0
 25 28  1  0
 25 24  1  0
 26 25  2  0
 27 26  1  0
 27 22  2  0
 28 29  1  0
 29 30  1  0
 30 31  2  0
 32 31  1  0
 32 36  1  0
 33 32  2  0
 34 29  2  0
 34 33  1  0
 35 34  1  0
 37 38  1  0
 38 41  1  0
 38 40  1  0
 39 37  2  0
 42 43  1  0
 42 17  1  0
 44 42  1  0
 45  3  1  0
 46 48  1  0
 46 45  2  0
 47 45  1  0
 47 50  1  0
 49 46  1  0
 51 47  1  0
 52 53  1  0
 52 56  1  0
 53 55  1  0
 54 52  2  0
 56 57  2  0
 58 59  1  0
 58 56  1  0
 60 71  2  0
 61 59  1  0
 61 66  1  0
 62 70  1  0
 62 72  1  0
 63 69  1  0
 63 65  1  0
 64 70  1  0
 65 66  2  0
 65 64  1  0
 67 61  2  0
 68 67  1  0
 68 63  2  0
 69 62  1  0
 70 60  1  0
 72 74  2  0
 73 72  1  0
 75 73  1  0
 76 81  1  0
 77 73  1  0
 78 77  1  0
 79 80  1  0
 79 78  1  0
 80 76  1  0
 81 77  1  0
 81 82  2  0
 83 82  1  0
 84 83  2  0
 85 76  2  0
 85 84  1  0
 86 60  1  0
 86 87  1  0
 86 96  1  0
 87 90  1  0
 88 92  1  0
 88 87  1  0
 89 88  2  0
 92 91  1  0
 94 95  1  0
 94 92  1  0
 94 93  1  0
 96 99  1  1
 96 97  1  0
 98 96  1  0
100102  1  0
100  6  1  0
101100  1  0
M  ISO  4   7 100  15 100  58 101  59 101
M  END
>  <TORSDO>  (43) 
F 21

>  <SCORE>  (43) 
-11.124

>  <name>  (43) 
42

>  <ligand_id>  (43) 
42

>  <original_smiles>  (43) 
[H]c1c([H])c([H])c2c(c1[H])C([H])([H])C([H])([H])C([H])([H])C2([H])N([H])C(=O)C1([H])N(C(=O)C([H])(N([H])C(=O)C([H])(N([H])C([H])([H])[H])C([H])([H])[H])C(C([H])([H])[H])(C([H])([H])[H])C([H])([H])[H])C([H])([H])c2c([H])c(OC([H])([H])C(=O)C(=O)N([H])c3c([H])c(N([H])C(=O)N4C([H])([H])C([H])([H])C([H])([H])C([H])(n5nc(-c6c([H])c([H])c(Oc7c([H])c([H])c(F)c([H])c7F)c([H])c6[H])c(C(=O)N([H])[H])c5N([H])[H])C4([H])[H])c([H])c(C(N([H])[H])=[N+]([H])[H])c3N([H])[H])c([H])c([H])c2C1([H])[H]

>  <smiles>  (43) 
[H]c1c([H])c([H])c2c(c1[H])C([H])([H])C([H])([H])C([H])([H])C2([H])N([H])C(=O)C1([H])N(C(=O)C([H])(N([H])C(=O)C([H])(N([H])C([H])([H])[H])C([H])([H])[H])C(C([H])([H])[H])(C([H])([H])[H])C([H])([H])[H])C([H])([H])c2c([H])c(OC([H])([H])C(=O)C(=O)N([H])c3c([H])c(N([H])C(=O)N4C([H])([H])C([H])([H])C([H])([H])C([H])(n5nc(-c6c([H])c([H])c(Oc7c([H])c([H])c(F)c([H])c7F)c([H])c6[H])c(C(=O)N([H])[H])c5N([H])[H])C4([H])[H])c([H])c(C(N([H])[H])=[N+]([H])[H])c3N([H])[H])c([H])c([H])c2C1([H])[H]

$$$$
43:0:0
     RDKit          3D

 94103  0  0  1  0  0  0  0  0999 V2000
  -28.4480  -23.6630   19.8110 C   0  0  0  0  0  0  0  0  0  0  0  0
  -30.7770  -21.6380   21.1750 C   0  0  0  0  0  2  0  0  0  0  0  0
  -29.3760  -21.2360   20.6590 C   0  0  0  0  0  3  0  0  0  0  0  0
  -30.9000  -22.7840   20.1450 C   0  0  1  0  0  0  0  0  0  0  0  0
  -31.3690  -24.1580   20.6340 C   0  0  0  0  0  1  0  0  0  0  0  0
  -31.6000  -22.4820   18.8120 C   0  0  0  0  0  1  0  0  0  0  0  0
  -29.4510  -22.6060   19.9810 N   0  0  0  0  0  0  0  0  0  0  0  0
  -27.6940  -23.5430   18.8440 O   0  0  0  0  0  0  0  0  0  0  0  0
  -29.5420  -18.5600   17.8270 C   0  0  0  0  0  3  0  0  0  0  0  0
  -29.3780  -19.7790   18.5070 C   0  0  0  0  0  3  0  0  0  0  0  0
  -29.7330  -17.3630   18.5470 C   0  0  0  0  0  3  0  0  0  0  0  0
  -29.4230  -19.8090   19.9100 C   0  0  0  0  0  0  0  0  0  0  0  0
  -29.7440  -17.3510   19.9570 C   0  0  0  0  0  0  0  0  0  0  0  0
  -29.5780  -18.5920   20.5990 N   0  0  0  0  0  0  0  0  0  0  0  0
  -30.5290  -14.8580   20.3150 C   0  0  0  0  0  0  0  0  0  0  0  0
  -30.3500  -12.5480   19.3720 C   0  0  0  0  0  2  0  0  0  0  0  0
  -29.4170  -12.6040   18.1410 C   0  0  0  0  0  2  0  0  0  0  0  0
  -27.9470  -12.4150   18.5670 C   0  0  0  0  0  2  0  0  0  0  0  0
  -27.5660  -13.3040   19.7790 C   0  0  0  0  0  3  0  0  0  0  0  0
  -28.6270  -13.2520   20.9000 C   0  0  0  0  0  2  0  0  0  0  0  0
  -29.9220  -13.6140   20.3080 N   0  0  0  0  0  0  0  0  0  0  0  0
  -31.7090  -14.9450   19.9600 O   0  0  0  0  0  0  0  0  0  0  0  0
  -29.7650  -15.9980   20.5910 N   0  0  0  0  0  0  0  0  0  0  0  0
  -28.9110  -15.7870   21.0800 H   0  0  0  0  0  0  0  0  0  0  0  0
  -25.1860  -13.8710   20.5460 C   0  0  0  0  0  0  0  0  0  0  0  0
  -24.1300  -13.0880   20.9300 C   0  0  0  0  0  0  0  0  0  0  0  0
  -24.6030  -11.7400   20.8870 C   0  0  0  0  0  0  0  0  0  0  0  0
  -26.2340  -13.0020   20.2900 N   0  0  0  0  0  0  0  0  0  0  0  0
  -25.8900  -11.7140   20.5580 N   0  0  0  0  0  0  0  0  0  0  0  0
  -23.8840  -10.4730   21.0810 C   0  0  0  0  0  0  0  0  0  0  0  0
  -24.3370   -9.4980   21.9980 C   0  0  0  0  0  3  0  0  0  0  0  0
  -23.6170   -8.2980   22.1790 C   0  0  0  0  0  3  0  0  0  0  0  0
  -22.4310   -8.0620   21.4430 C   0  0  0  0  0  0  0  0  0  0  0  0
  -21.9970   -9.0260   20.5150 C   0  0  0  0  0  3  0  0  0  0  0  0
  -22.7200  -10.2180   20.3320 C   0  0  0  0  0  3  0  0  0  0  0  0
  -21.6790   -6.9140   21.5350 O   0  0  0  0  0  0  0  0  0  0  0  0
  -21.6640   -6.1530   22.6750 C   0  0  0  0  0  0  0  0  0  0  0  0
  -21.2350   -6.6760   23.9150 C   0  0  0  0  0  3  0  0  0  0  0  0
  -21.1730   -5.8420   25.0490 C   0  0  0  0  0  3  0  0  0  0  0  0
  -21.5240   -4.4830   24.9430 C   0  0  0  0  0  0  0  0  0  0  0  0
  -21.9420   -3.9570   23.7070 C   0  0  0  0  0  3  0  0  0  0  0  0
  -22.0110   -4.7910   22.5790 C   0  0  0  0  0  0  0  0  0  0  0  0
  -22.4000   -4.2750   21.3870 F   0  0  0  0  0  0  0  0  0  0  0  0
  -21.4520   -3.6790   26.0280 F   0  0  0  0  0  0  0  0  0  0  0  0
  -22.7370  -13.5600   21.2200 C   0  0  0  0  0  0  0  0  0  0  0  0
  -22.0210  -12.8610   22.0940 N   0  0  0  0  0  0  0  0  0  0  0  0
  -22.2900  -14.5850   20.7040 O   0  0  0  0  0  0  0  0  0  0  0  0
  -22.3900  -12.0400   22.5480 H   0  0  0  0  0  0  0  0  0  0  0  0
  -21.0840  -13.1650   22.3170 H   0  0  0  0  0  0  0  0  0  0  0  0
  -25.3320  -15.2440   20.3680 N   0  0  0  0  0  0  0  0  0  0  0  0
  -24.5290  -15.8650   20.4050 H   0  0  0  0  0  0  0  0  0  0  0  0
  -26.1610  -15.6960   20.0020 H   0  0  0  0  0  0  0  0  0  0  0  0
  -28.2500  -24.9950   20.7270 C   0  0  0  0  0  2  0  0  0  0  0  0
  -28.3250  -26.3990   20.1410 O   0  0  0  0  0  0  0  0  0  0  0  0
  -24.5570  -31.9020   23.2190 C   0  0  0  0  0  0  0  0  0  0  0  0
  -27.2110  -27.2810   20.1810 C   0  0  0  0  0  0  0  0  0  0  0  0
  -23.3790  -30.5070   21.5600 C   0  0  0  0  0  3  0  0  0  0  0  0
  -24.8500  -28.9430   20.1550 C   0  0  0  0  0  0  0  0  0  0  0  0
  -25.9280  -30.8010   21.4210 C   0  0  0  0  0  2  0  0  0  0  0  0
  -26.0180  -29.4160   20.7690 C   0  0  0  0  0  0  0  0  0  0  0  0
  -27.2000  -28.6010   20.7640 C   0  0  0  0  0  3  0  0  0  0  0  0
  -26.0150  -26.8740   19.5540 C   0  0  0  0  0  3  0  0  0  0  0  0
  -24.8560  -27.6800   19.5370 C   0  0  0  0  0  3  0  0  0  0  0  0
  -23.6160  -29.8300   20.1850 C   0  0  0  0  0  2  0  0  0  0  0  0
  -24.6400  -31.0900   22.1230 N   0  0  0  0  0  0  0  0  0  0  0  0
  -23.4640  -32.1790   23.7360 O   0  0  0  0  0  0  0  0  0  0  0  0
  -22.6960  -29.4930   22.5100 C   0  0  0  0  0  0  0  0  0  0  0  0
  -21.3730  -29.3100   22.3570 N   0  0  0  0  0  0  0  0  0  0  0  0
  -23.3580  -28.8730   23.3460 O   0  0  0  0  0  0  0  0  0  0  0  0
  -20.8960  -29.8570   21.6540 H   0  0  0  0  0  0  0  0  0  0  0  0
  -17.9900  -28.0970   22.8020 C   0  0  0  0  0  0  0  0  0  0  0  0
  -20.5430  -28.3690   23.1140 C   0  0  0  0  0  3  0  0  0  0  0  0
  -20.6600  -26.9380   22.5400 C   0  0  0  0  0  2  0  0  0  0  0  0
  -19.5770  -26.6110   21.5070 C   0  0  0  0  0  2  0  0  0  0  0  0
  -18.1840  -26.7490   22.1260 C   0  0  0  0  0  2  0  0  0  0  0  0
  -19.0970  -28.8640   23.2500 C   0  0  0  0  0  0  0  0  0  0  0  0
  -18.8620  -30.1230   23.8420 C   0  0  0  0  0  3  0  0  0  0  0  0
  -17.5520  -30.6190   23.9870 C   0  0  0  0  0  3  0  0  0  0  0  0
  -16.4580  -29.8490   23.5540 C   0  0  0  0  0  3  0  0  0  0  0  0
  -16.6780  -28.5900   22.9670 C   0  0  0  0  0  3  0  0  0  0  0  0
  -25.8280  -32.5360   23.8630 C   0  0  0  0  0  3  0  0  0  0  0  0
  -25.5180  -33.9410   24.1740 N   0  0  0  0  0  0  0  0  0  0  0  0
  -25.8790  -34.9860   23.4180 C   0  0  0  0  0  0  0  0  0  0  0  0
  -26.5730  -34.8690   22.4050 O   0  0  0  0  0  0  0  0  0  0  0  0
  -24.9010  -34.1050   24.9560 H   0  0  0  0  0  0  0  0  0  0  0  0
  -24.1870  -36.7980   22.9930 C   0  0  0  0  0  1  0  0  0  0  0  0
  -25.3920  -36.3830   23.8520 C   0  0  0  0  0  3  0  0  0  0  0  0
  -27.5030  -37.2460   24.7630 C   0  0  0  0  0  1  0  0  0  0  0  0
  -26.4420  -37.4230   23.7750 N   0  0  0  0  0  0  0  0  0  0  0  0
  -26.0440  -38.3490   23.8990 H   0  0  0  0  0  0  0  0  0  0  0  0
  -26.3060  -31.7800   25.1640 C   0  0  1  0  0  0  0  0  0  0  0  0
  -25.1840  -31.5640   26.2070 C   0  0  0  0  0  1  0  0  0  0  0  0
  -26.8920  -30.3940   24.8090 C   0  0  0  0  0  1  0  0  0  0  0  0
  -27.4470  -32.5750   25.8420 C   0  0  0  0  0  1  0  0  0  0  0  0
  1  7  1  0
  1 53  1  0
  3 12  1  0
  3  2  1  0
  4  5  1  1
  4  2  1  0
  6  4  1  0
  7  4  1  0
  7  3  1  0
  8  1  2  0
  9 10  2  0
  9 11  1  0
 10 12  1  0
 11 13  2  0
 12 14  2  0
 13 23  1  0
 13 14  1  0
 15 23  1  0
 16 21  1  0
 17 18  1  0
 17 16  1  0
 19 18  1  0
 19 28  1  0
 19 20  1  0
 21 15  1  0
 21 20  1  0
 22 15  2  0
 23 24  1  0
 25 26  2  0
 26 45  1  0
 27 26  1  0
 27 30  1  0
 28 25  1  0
 28 29  1  0
 29 27  2  0
 30 31  1  0
 31 32  2  0
 33 36  1  0
 33 32  1  0
 34 33  2  0
 35 34  1  0
 35 30  2  0
 36 37  1  0
 37 38  1  0
 38 39  2  0
 40 39  1  0
 40 44  1  0
 41 40  2  0
 42 37  2  0
 42 41  1  0
 43 42  1  0
 45 46  1  0
 46 49  1  0
 46 48  1  0
 47 45  2  0
 50 51  1  0
 50 25  1  0
 52 50  1  0
 54 56  1  0
 54 53  1  0
 55 66  2  0
 56 61  1  0
 57 65  1  0
 57 67  1  0
 58 64  1  0
 58 60  1  0
 59 65  1  0
 60 59  1  0
 61 60  2  0
 62 56  2  0
 63 62  1  0
 63 58  2  0
 64 57  1  0
 65 55  1  0
 67 69  2  0
 68 67  1  0
 70 68  1  0
 71 80  2  0
 71 76  1  0
 72 68  1  0
 72 76  1  0
 73 72  1  0
 74 75  1  0
 74 73  1  0
 75 71  1  0
 76 77  2  0
 77 78  1  0
 79 78  2  0
 80 79  1  0
 81 55  1  0
 81 82  1  0
 81 91  1  0
 82 85  1  0
 83 87  1  0
 83 82  1  0
 84 83  2  0
 87 86  1  0
 89 87  1  0
 89 90  1  0
 89 88  1  0
 91 94  1  1
 91 92  1  0
 93 91  1  0
M  ISO  4  15 100  23 100  53 101  54 101
M  END
>  <TORSDO>  (44) 
F 18

>  <SCORE>  (44) 
-14.834

>  <name>  (44) 
43

>  <ligand_id>  (44) 
43

>  <original_smiles>  (44) 
[H]c1c(N([H])C(=O)N2C([H])([H])C([H])([H])C([H])([H])C([H])(n3nc(-c4c([H])c([H])c(Oc5c([H])c([H])c(F)c([H])c5F)c([H])c4[H])c(C(=O)N([H])[H])c3N([H])[H])C2([H])[H])nc(C2([H])N(C(=O)C([H])([H])Oc3c([H])c([H])c4c(c3[H])C([H])([H])N(C(=O)C([H])(N([H])C(=O)C([H])(N([H])C([H])([H])[H])C([H])([H])[H])C(C([H])([H])[H])(C([H])([H])[H])C([H])([H])[H])C([H])(C(=O)N([H])C3([H])c5c([H])c([H])c([H])c([H])c5C([H])([H])C([H])([H])C3([H])[H])C4([H])[H])C(C([H])([H])[H])(C([H])([H])[H])C2([H])[H])c([H])c1[H]

>  <smiles>  (44) 
[H]c1c(N([H])C(=O)N2C([H])([H])C([H])([H])C([H])([H])C([H])(n3nc(-c4c([H])c([H])c(Oc5c([H])c([H])c(F)c([H])c5F)c([H])c4[H])c(C(=O)N([H])[H])c3N([H])[H])C2([H])[H])nc(C2([H])N(C(=O)C([H])([H])Oc3c([H])c([H])c4c(c3[H])C([H])([H])N(C(=O)C([H])(N([H])C(=O)C([H])(N([H])C([H])([H])[H])C([H])([H])[H])C(C([H])([H])[H])(C([H])([H])[H])C([H])([H])[H])C([H])(C(=O)N([H])C3([H])c5c([H])c([H])c([H])c([H])c5C([H])([H])C([H])([H])C3([H])[H])C4([H])[H])C(C([H])([H])[H])(C([H])([H])[H])C2([H])[H])c([H])c1[H]

$$$$
44:0:0
     RDKit          3D

 94103  0  0  1  0  0  0  0  0999 V2000
  -29.2840  -21.4010   19.3480 C   0  0  0  0  0  2  0  0  0  0  0  0
  -29.9350  -22.1910   21.6010 C   0  0  0  0  0  2  0  0  0  0  0  0
  -28.4650  -22.7230   19.1620 C   0  0  0  0  0  2  0  0  0  0  0  0
  -29.1120  -23.5070   21.4150 C   0  0  0  0  0  2  0  0  0  0  0  0
  -29.3850  -20.9500   20.8230 C   0  0  0  0  0  3  0  0  0  0  0  0
  -28.9810  -23.9830   19.9380 C   0  0  1  0  0  0  0  0  0  0  0  0
  -32.1330  -18.4460   21.9550 C   0  0  0  0  0  3  0  0  0  0  0  0
  -31.4300  -19.6310   21.6760 C   0  0  0  0  0  3  0  0  0  0  0  0
  -31.6030  -17.1950   21.6000 C   0  0  0  0  0  3  0  0  0  0  0  0
  -29.6320  -18.3140   20.6980 C   0  0  0  0  0  3  0  0  0  0  0  0
  -30.1630  -19.6050   21.0480 C   0  0  0  0  0  0  0  0  0  0  0  0
  -30.3500  -17.0920   20.9530 C   0  0  0  0  0  0  0  0  0  0  0  0
  -30.5080  -14.6930   20.1580 C   0  0  0  0  0  0  0  0  0  0  0  0
  -30.1740  -12.5330   18.9830 C   0  0  0  0  0  2  0  0  0  0  0  0
  -29.1610  -12.7160   17.8360 C   0  0  0  0  0  2  0  0  0  0  0  0
  -27.7200  -12.5240   18.3500 C   0  0  0  0  0  2  0  0  0  0  0  0
  -27.4360  -13.3280   19.6470 C   0  0  0  0  0  3  0  0  0  0  0  0
  -28.5660  -13.1540   20.6880 C   0  0  0  0  0  2  0  0  0  0  0  0
  -29.8310  -13.5120   20.0340 N   0  0  0  0  0  0  0  0  0  0  0  0
  -31.6350  -14.8310   19.6730 O   0  0  0  0  0  0  0  0  0  0  0  0
  -29.8220  -15.7720   20.6390 N   0  0  0  0  0  0  0  0  0  0  0  0
  -28.8380  -15.6270   20.8080 H   0  0  0  0  0  0  0  0  0  0  0  0
  -25.0790  -13.8510   20.5260 C   0  0  0  0  0  0  0  0  0  0  0  0
  -24.0500  -13.0440   20.9280 C   0  0  0  0  0  0  0  0  0  0  0  0
  -24.5340  -11.7050   20.8210 C   0  0  0  0  0  0  0  0  0  0  0  0
  -26.1240  -13.0030   20.2000 N   0  0  0  0  0  0  0  0  0  0  0  0
  -25.8050  -11.7030   20.4370 N   0  0  0  0  0  0  0  0  0  0  0  0
  -23.8420  -10.4210   21.0060 C   0  0  0  0  0  0  0  0  0  0  0  0
  -24.3030   -9.4610   21.9340 C   0  0  0  0  0  3  0  0  0  0  0  0
  -23.6100   -8.2430   22.1060 C   0  0  0  0  0  3  0  0  0  0  0  0
  -22.4410   -7.9780   21.3530 C   0  0  0  0  0  0  0  0  0  0  0  0
  -22.0010   -8.9280   20.4140 C   0  0  0  0  0  3  0  0  0  0  0  0
  -22.6940  -10.1370   20.2400 C   0  0  0  0  0  3  0  0  0  0  0  0
  -21.7180   -6.8130   21.4360 O   0  0  0  0  0  0  0  0  0  0  0  0
  -21.6610   -6.0830   22.5960 C   0  0  0  0  0  0  0  0  0  0  0  0
  -21.1310   -6.6210   23.7900 C   0  0  0  0  0  3  0  0  0  0  0  0
  -21.0270   -5.8140   24.9400 C   0  0  0  0  0  3  0  0  0  0  0  0
  -21.4430   -4.4690   24.8970 C   0  0  0  0  0  0  0  0  0  0  0  0
  -21.9650   -3.9310   23.7080 C   0  0  0  0  0  3  0  0  0  0  0  0
  -22.0710   -4.7350   22.5610 C   0  0  0  0  0  0  0  0  0  0  0  0
  -22.5550   -4.2050   21.4120 F   0  0  0  0  0  0  0  0  0  0  0  0
  -21.3350   -3.6920   26.0010 F   0  0  0  0  0  0  0  0  0  0  0  0
  -22.6630  -13.4830   21.2980 C   0  0  0  0  0  0  0  0  0  0  0  0
  -22.0020  -12.7470   22.1830 N   0  0  0  0  0  0  0  0  0  0  0  0
  -22.1750  -14.5140   20.8350 O   0  0  0  0  0  0  0  0  0  0  0  0
  -22.4090  -11.9120   22.5770 H   0  0  0  0  0  0  0  0  0  0  0  0
  -21.0740  -13.0240   22.4720 H   0  0  0  0  0  0  0  0  0  0  0  0
  -25.2050  -15.2310   20.3870 N   0  0  0  0  0  0  0  0  0  0  0  0
  -24.4310  -15.8630   20.5590 H   0  0  0  0  0  0  0  0  0  0  0  0
  -26.0180  -15.6980   20.0080 H   0  0  0  0  0  0  0  0  0  0  0  0
  -31.0910  -25.2050   19.9390 C   0  0  0  0  0  1  0  0  0  0  0  0
  -30.2430  -24.2460   19.3180 O   0  0  0  0  0  0  0  0  0  0  0  0
  -27.9640  -25.1920   19.6990 C   0  0  0  0  0  2  0  0  0  0  0  0
  -28.1670  -26.5900   20.1320 O   0  0  0  0  0  0  0  0  0  0  0  0
  -24.5030  -31.9780   23.2380 C   0  0  0  0  0  0  0  0  0  0  0  0
  -27.0440  -27.4380   20.1020 C   0  0  0  0  0  0  0  0  0  0  0  0
  -23.2610  -30.5870   21.6240 C   0  0  0  0  0  3  0  0  0  0  0  0
  -24.6770  -29.0470   20.1590 C   0  0  0  0  0  0  0  0  0  0  0  0
  -25.7970  -30.9040   21.3850 C   0  0  0  0  0  2  0  0  0  0  0  0
  -25.8610  -29.5310   20.7310 C   0  0  0  0  0  0  0  0  0  0  0  0
  -27.0450  -28.7370   20.6980 C   0  0  0  0  0  3  0  0  0  0  0  0
  -25.8320  -27.0160   19.4990 C   0  0  0  0  0  3  0  0  0  0  0  0
  -24.6640  -27.7930   19.5380 C   0  0  0  0  0  3  0  0  0  0  0  0
  -23.4420  -29.9190   20.2370 C   0  0  0  0  0  2  0  0  0  0  0  0
  -24.5400  -31.1700   22.1400 N   0  0  0  0  0  0  0  0  0  0  0  0
  -23.4320  -32.2570   23.7950 O   0  0  0  0  0  0  0  0  0  0  0  0
  -22.6190  -29.5640   22.5910 C   0  0  0  0  0  0  0  0  0  0  0  0
  -21.2990  -29.3510   22.4590 N   0  0  0  0  0  0  0  0  0  0  0  0
  -23.3070  -28.9660   23.4220 O   0  0  0  0  0  0  0  0  0  0  0  0
  -20.7980  -29.8870   21.7630 H   0  0  0  0  0  0  0  0  0  0  0  0
  -17.9540  -28.0670   22.9450 C   0  0  0  0  0  0  0  0  0  0  0  0
  -20.4990  -28.4070   23.2400 C   0  0  0  0  0  3  0  0  0  0  0  0
  -20.6490  -26.9660   22.6980 C   0  0  0  0  0  2  0  0  0  0  0  0
  -19.5710  -26.5900   21.6770 C   0  0  0  0  0  2  0  0  0  0  0  0
  -18.1770  -26.7090   22.3000 C   0  0  0  0  0  2  0  0  0  0  0  0
  -19.0440  -28.8710   23.3710 C   0  0  0  0  0  0  0  0  0  0  0  0
  -18.7820  -30.1390   23.9320 C   0  0  0  0  0  3  0  0  0  0  0  0
  -17.4600  -30.6060   24.0710 C   0  0  0  0  0  3  0  0  0  0  0  0
  -16.3840  -29.8010   23.6610 C   0  0  0  0  0  3  0  0  0  0  0  0
  -16.6320  -28.5330   23.1040 C   0  0  0  0  0  3  0  0  0  0  0  0
  -25.8010  -32.6070   23.8320 C   0  0  0  0  0  3  0  0  0  0  0  0
  -26.3510  -31.8270   25.0900 C   0  0  1  0  0  0  0  0  0  0  0  0
  -25.2820  -31.5670   26.1760 C   0  0  0  0  0  1  0  0  0  0  0  0
  -26.9400  -30.4590   24.6740 C   0  0  0  0  0  1  0  0  0  0  0  0
  -27.5070  -32.6250   25.7360 C   0  0  0  0  0  1  0  0  0  0  0  0
  -25.4970  -34.0020   24.1810 N   0  0  0  0  0  0  0  0  0  0  0  0
  -25.8060  -35.0600   23.4200 C   0  0  0  0  0  0  0  0  0  0  0  0
  -26.4490  -34.9660   22.3700 O   0  0  0  0  0  0  0  0  0  0  0  0
  -24.9210  -34.1520   24.9950 H   0  0  0  0  0  0  0  0  0  0  0  0
  -24.0730  -36.8590   23.1150 C   0  0  0  0  0  1  0  0  0  0  0  0
  -25.3280  -36.4440   23.9010 C   0  0  0  0  0  3  0  0  0  0  0  0
  -27.4720  -37.3220   24.7140 C   0  0  0  0  0  1  0  0  0  0  0  0
  -26.3580  -37.5000   23.7850 N   0  0  0  0  0  0  0  0  0  0  0  0
  -25.9520  -38.4160   23.9540 H   0  0  0  0  0  0  0  0  0  0  0  0
  1  5  1  0
  3  1  1  0
  3  6  1  0
  4  2  1  0
  5 11  1  0
  5  2  1  0
  6 53  1  1
  6  4  1  0
  8  7  1  0
  9  7  2  0
 10 12  2  0
 10 11  1  0
 11  8  2  0
 12  9  1  0
 13 21  1  0
 14 19  1  0
 15 16  1  0
 15 14  1  0
 17 16  1  0
 17 26  1  0
 17 18  1  0
 19 13  1  0
 19 18  1  0
 20 13  2  0
 21 22  1  0
 21 12  1  0
 23 24  2  0
 24 43  1  0
 25 24  1  0
 25 28  1  0
 26 27  1  0
 26 23  1  0
 27 25  2  0
 28 29  1  0
 29 30  2  0
 31 34  1  0
 31 30  1  0
 32 31  2  0
 33 32  1  0
 33 28  2  0
 34 35  1  0
 35 36  1  0
 36 37  2  0
 38 37  1  0
 38 42  1  0
 39 38  2  0
 40 35  2  0
 40 39  1  0
 41 40  1  0
 43 44  1  0
 44 47  1  0
 44 46  1  0
 45 43  2  0
 48 23  1  0
 48 49  1  0
 50 48  1  0
 52  6  1  0
 52 51  1  0
 53 54  1  0
 55 66  2  0
 56 54  1  0
 56 61  1  0
 57 65  1  0
 57 67  1  0
 58 64  1  0
 58 60  1  0
 59 65  1  0
 60 59  1  0
 61 60  2  0
 62 63  1  0
 62 56  2  0
 63 58  2  0
 64 57  1  0
 65 55  1  0
 67 69  2  0
 68 67  1  0
 70 68  1  0
 71 80  2  0
 71 76  1  0
 72 68  1  0
 72 76  1  0
 73 72  1  0
 74 75  1  0
 74 73  1  0
 75 71  1  0
 76 77  2  0
 77 78  1  0
 79 78  2  0
 80 79  1  0
 81 55  1  0
 81 86  1  0
 81 82  1  0
 82 85  1  1
 82 83  1  0
 84 82  1  0
 86 89  1  0
 87 91  1  0
 87 86  1  0
 88 87  2  0
 91 90  1  0
 93 91  1  0
 93 94  1  0
 93 92  1  0
M  ISO  4  13 100  21 100  53 101  54 101
M  END
>  <TORSDO>  (45) 
F 19

>  <SCORE>  (45) 
-13.965

>  <name>  (45) 
44

>  <ligand_id>  (45) 
44

>  <original_smiles>  (45) 
[H]c1c([H])c([H])c2c(c1[H])C([H])([H])C([H])([H])C([H])([H])C2([H])N([H])C(=O)C1([H])N(C(=O)C([H])(N([H])C(=O)C([H])(N([H])C([H])([H])[H])C([H])([H])[H])C(C([H])([H])[H])(C([H])([H])[H])C([H])([H])[H])C([H])([H])c2c([H])c(OC([H])([H])C3(OC([H])([H])[H])C([H])([H])C([H])([H])C([H])(c4c([H])c([H])c([H])c(N([H])C(=O)N5C([H])([H])C([H])([H])C([H])([H])C([H])(n6nc(-c7c([H])c([H])c(Oc8c([H])c([H])c(F)c([H])c8F)c([H])c7[H])c(C(=O)N([H])[H])c6N([H])[H])C5([H])[H])c4[H])C([H])([H])C3([H])[H])c([H])c([H])c2C1([H])[H]

>  <smiles>  (45) 
[H]c1c([H])c([H])c2c(c1[H])C([H])([H])C([H])([H])C([H])([H])C2([H])N([H])C(=O)C1([H])N(C(=O)C([H])(N([H])C(=O)C([H])(N([H])C([H])([H])[H])C([H])([H])[H])C(C([H])([H])[H])(C([H])([H])[H])C([H])([H])[H])C([H])([H])c2c([H])c(OC([H])([H])C3(OC([H])([H])[H])C([H])([H])C([H])([H])C([H])(c4c([H])c([H])c([H])c(N([H])C(=O)N5C([H])([H])C([H])([H])C([H])([H])C([H])(n6nc(-c7c([H])c([H])c(Oc8c([H])c([H])c(F)c([H])c8F)c([H])c7[H])c(C(=O)N([H])[H])c6N([H])[H])C5([H])[H])c4[H])C([H])([H])C3([H])[H])c([H])c([H])c2C1([H])[H]

$$$$
45:0:0
     RDKit          3D

 97106  0  0  1  0  0  0  0  0999 V2000
  -28.4340  -21.6500   19.4750 C   0  0  0  0  0  2  0  0  0  0  0  0
  -27.8470  -23.0640   19.8020 C   0  0  0  0  0  2  0  0  0  0  0  0
  -29.3280  -23.1320   21.8050 C   0  0  0  0  0  2  0  0  0  0  0  0
  -28.9960  -20.8760   20.7090 C   0  0  0  0  0  3  0  0  0  0  0  0
  -28.8280  -23.9770   20.5900 C   0  0  0  0  0  3  0  0  0  0  0  0
  -29.8940  -21.7990   21.4420 N   0  0  0  0  0  4  0  0  0  0  0  0
  -30.1990  -21.3230   22.2740 H   0  0  0  0  0  0  0  0  0  0  0  0
  -30.7080  -21.8970   20.8550 H   0  0  0  0  0  0  0  0  0  0  0  0
  -29.4260  -18.2420   20.6610 C   0  0  0  0  0  3  0  0  0  0  0  0
  -31.4560  -17.5070   19.6020 C   0  0  0  0  0  3  0  0  0  0  0  0
  -30.2760  -17.1410   20.2990 C   0  0  0  0  0  0  0  0  0  0  0  0
  -29.7940  -19.5920   20.3360 C   0  0  0  0  0  0  0  0  0  0  0  0
  -31.7490  -18.8530   19.3460 C   0  0  0  0  0  0  0  0  0  0  0  0
  -30.9610  -19.8690   19.7130 N   0  0  0  0  0  0  0  0  0  0  0  0
  -30.6540  -14.5960   20.3610 C   0  0  0  0  0  0  0  0  0  0  0  0
  -30.3450  -12.3820   19.3110 C   0  0  0  0  0  2  0  0  0  0  0  0
  -29.4070  -12.5440   18.0960 C   0  0  0  0  0  2  0  0  0  0  0  0
  -27.9370  -12.4010   18.5330 C   0  0  0  0  0  2  0  0  0  0  0  0
  -27.5930  -13.2620   19.7770 C   0  0  0  0  0  3  0  0  0  0  0  0
  -28.6570  -13.1200   20.8880 C   0  0  0  0  0  2  0  0  0  0  0  0
  -29.9650  -13.4160   20.2940 N   0  0  0  0  0  0  0  0  0  0  0  0
  -31.8440  -14.6290   20.0430 O   0  0  0  0  0  0  0  0  0  0  0  0
  -29.9360  -15.7430   20.5940 N   0  0  0  0  0  0  0  0  0  0  0  0
  -28.9940  -15.5830   20.9180 H   0  0  0  0  0  0  0  0  0  0  0  0
  -25.2050  -13.8570   20.5110 C   0  0  0  0  0  0  0  0  0  0  0  0
  -24.1400  -13.0830   20.8850 C   0  0  0  0  0  0  0  0  0  0  0  0
  -24.6030  -11.7310   20.8510 C   0  0  0  0  0  0  0  0  0  0  0  0
  -26.2490  -12.9780   20.2710 N   0  0  0  0  0  0  0  0  0  0  0  0
  -25.8930  -11.6940   20.5380 N   0  0  0  0  0  0  0  0  0  0  0  0
  -23.8780  -10.4690   21.0420 C   0  0  0  0  0  0  0  0  0  0  0  0
  -24.3130   -9.4990   21.9720 C   0  0  0  0  0  3  0  0  0  0  0  0
  -23.5870   -8.3020   22.1510 C   0  0  0  0  0  3  0  0  0  0  0  0
  -22.4120   -8.0650   21.3980 C   0  0  0  0  0  0  0  0  0  0  0  0
  -21.9960   -9.0230   20.4570 C   0  0  0  0  0  3  0  0  0  0  0  0
  -22.7230  -10.2120   20.2770 C   0  0  0  0  0  3  0  0  0  0  0  0
  -21.6570   -6.9200   21.4870 O   0  0  0  0  0  0  0  0  0  0  0  0
  -21.6110   -6.1750   22.6380 C   0  0  0  0  0  0  0  0  0  0  0  0
  -21.1890   -6.7270   23.8670 C   0  0  0  0  0  3  0  0  0  0  0  0
  -21.0910   -5.9090   25.0100 C   0  0  0  0  0  3  0  0  0  0  0  0
  -21.4040   -4.5400   24.9260 C   0  0  0  0  0  0  0  0  0  0  0  0
  -21.8210   -3.9870   23.7020 C   0  0  0  0  0  3  0  0  0  0  0  0
  -21.9210   -4.8010   22.5600 C   0  0  0  0  0  0  0  0  0  0  0  0
  -22.3020   -4.2600   21.3790 F   0  0  0  0  0  0  0  0  0  0  0  0
  -21.3030   -3.7510   26.0210 F   0  0  0  0  0  0  0  0  0  0  0  0
  -22.7440  -13.5590   21.1610 C   0  0  0  0  0  0  0  0  0  0  0  0
  -22.0160  -12.8590   22.0250 N   0  0  0  0  0  0  0  0  0  0  0  0
  -22.3060  -14.5880   20.6460 O   0  0  0  0  0  0  0  0  0  0  0  0
  -22.3830  -12.0270   22.4630 H   0  0  0  0  0  0  0  0  0  0  0  0
  -21.0790  -13.1600   22.2520 H   0  0  0  0  0  0  0  0  0  0  0  0
  -25.3670  -15.2280   20.3330 N   0  0  0  0  0  0  0  0  0  0  0  0
  -24.5960  -15.8770   20.4380 H   0  0  0  0  0  0  0  0  0  0  0  0
  -26.2040  -15.6660   19.9690 H   0  0  0  0  0  0  0  0  0  0  0  0
  -32.9020  -19.2190   18.6750 N   0  0  0  0  0  0  0  0  0  0  0  0
  -33.6460  -18.5450   18.5360 H   0  0  0  0  0  0  0  0  0  0  0  0
  -33.1920  -20.1880   18.6630 H   0  0  0  0  0  0  0  0  0  0  0  0
  -28.2070  -25.3590   21.0590 C   0  0  0  0  0  2  0  0  0  0  0  0
  -28.3410  -26.5450   20.2160 O   0  0  0  0  0  0  0  0  0  0  0  0
  -24.5940  -31.8740   23.2440 C   0  0  0  0  0  0  0  0  0  0  0  0
  -27.2260  -27.3710   20.1960 C   0  0  0  0  0  0  0  0  0  0  0  0
  -23.3930  -30.4690   21.6030 C   0  0  0  0  0  3  0  0  0  0  0  0
  -24.8500  -28.9250   20.1810 C   0  0  0  0  0  0  0  0  0  0  0  0
  -25.9250  -30.8150   21.4130 C   0  0  0  0  0  2  0  0  0  0  0  0
  -26.0130  -29.4390   20.7720 C   0  0  0  0  0  0  0  0  0  0  0  0
  -27.2080  -28.6710   20.7720 C   0  0  0  0  0  3  0  0  0  0  0  0
  -26.0490  -26.8910   19.5870 C   0  0  0  0  0  3  0  0  0  0  0  0
  -24.8660  -27.6550   19.5790 C   0  0  0  0  0  3  0  0  0  0  0  0
  -23.6070  -29.7900   20.2250 C   0  0  0  0  0  2  0  0  0  0  0  0
  -24.6560  -31.0690   22.1450 N   0  0  0  0  0  0  0  0  0  0  0  0
  -23.5110  -32.1470   23.7810 O   0  0  0  0  0  0  0  0  0  0  0  0
  -22.7370  -29.4520   22.5650 C   0  0  0  0  0  0  0  0  0  0  0  0
  -21.4110  -29.2740   22.4410 N   0  0  0  0  0  0  0  0  0  0  0  0
  -23.4180  -28.8240   23.3800 O   0  0  0  0  0  0  0  0  0  0  0  0
  -20.9210  -29.8310   21.7560 H   0  0  0  0  0  0  0  0  0  0  0  0
  -18.0340  -28.0860   22.9460 C   0  0  0  0  0  0  0  0  0  0  0  0
  -20.5930  -28.3380   23.2130 C   0  0  0  0  0  3  0  0  0  0  0  0
  -20.6900  -26.9070   22.6340 C   0  0  0  0  0  2  0  0  0  0  0  0
  -19.5850  -26.5890   21.6220 C   0  0  0  0  0  2  0  0  0  0  0  0
  -18.2050  -26.7370   22.2690 C   0  0  0  0  0  2  0  0  0  0  0  0
  -19.1550  -28.8440   23.3750 C   0  0  0  0  0  0  0  0  0  0  0  0
  -18.9420  -30.1080   23.9670 C   0  0  0  0  0  3  0  0  0  0  0  0
  -17.6390  -30.6140   24.1360 C   0  0  0  0  0  3  0  0  0  0  0  0
  -16.5310  -29.8520   23.7240 C   0  0  0  0  0  3  0  0  0  0  0  0
  -16.7300  -28.5900   23.1350 C   0  0  0  0  0  3  0  0  0  0  0  0
  -25.8780  -32.5080   23.8650 C   0  0  0  0  0  3  0  0  0  0  0  0
  -26.3920  -31.7420   25.1460 C   0  0  1  0  0  0  0  0  0  0  0  0
  -25.2970  -31.5100   26.2130 C   0  0  0  0  0  1  0  0  0  0  0  0
  -26.9750  -30.3620   24.7590 C   0  0  0  0  0  1  0  0  0  0  0  0
  -27.5430  -32.5370   25.8050 C   0  0  0  0  0  1  0  0  0  0  0  0
  -25.5690  -33.9080   24.1880 N   0  0  0  0  0  0  0  0  0  0  0  0
  -25.9040  -34.9560   23.4260 C   0  0  0  0  0  0  0  0  0  0  0  0
  -26.5770  -34.8470   22.3960 O   0  0  0  0  0  0  0  0  0  0  0  0
  -24.9720  -34.0670   24.9860 H   0  0  0  0  0  0  0  0  0  0  0  0
  -24.1810  -36.7500   23.0540 C   0  0  0  0  0  1  0  0  0  0  0  0
  -25.4160  -36.3480   23.8740 C   0  0  0  0  0  3  0  0  0  0  0  0
  -27.5480  -37.2310   24.7130 C   0  0  0  0  0  1  0  0  0  0  0  0
  -26.4510  -37.3990   23.7630 N   0  0  0  0  0  0  0  0  0  0  0  0
  -26.0460  -38.3190   23.9070 H   0  0  0  0  0  0  0  0  0  0  0  0
  1  2  1  0
  1  4  1  0
  2  5  1  0
  4 12  1  0
  4  6  1  0
  5 56  1  0
  5  3  1  0
  6  3  1  0
  6  7  1  0
  8  6  1  0
 10 11  1  0
 11 23  1  0
 11  9  2  0
 12  9  1  0
 13 10  2  0
 13 14  1  0
 14 12  2  0
 15 23  1  0
 16 21  1  0
 17 18  1  0
 17 16  1  0
 19 18  1  0
 19 28  1  0
 19 20  1  0
 21 15  1  0
 21 20  1  0
 22 15  2  0
 23 24  1  0
 25 26  2  0
 26 45  1  0
 27 26  1  0
 27 30  1  0
 28 25  1  0
 28 29  1  0
 29 27  2  0
 30 31  1  0
 31 32  2  0
 33 36  1  0
 33 32  1  0
 34 33  2  0
 35 34  1  0
 35 30  2  0
 36 37  1  0
 37 38  1  0
 38 39  2  0
 40 39  1  0
 40 44  1  0
 41 40  2  0
 42 37  2  0
 42 41  1  0
 43 42  1  0
 45 46  1  0
 46 49  1  0
 46 48  1  0
 47 45  2  0
 50 51  1  0
 50 25  1  0
 52 50  1  0
 53 13  1  0
 54 53  1  0
 55 53  1  0
 57 56  1  0
 58 69  2  0
 59 57  1  0
 59 64  1  0
 60 68  1  0
 60 70  1  0
 61 67  1  0
 61 63  1  0
 62 68  1  0
 63 62  1  0
 64 63  2  0
 65 59  2  0
 66 65  1  0
 66 61  2  0
 67 60  1  0
 68 58  1  0
 70 72  2  0
 71 70  1  0
 73 71  1  0
 74 83  2  0
 74 79  1  0
 75 71  1  0
 75 79  1  0
 76 75  1  0
 77 78  1  0
 77 76  1  0
 78 74  1  0
 79 80  2  0
 80 81  1  0
 82 81  2  0
 83 82  1  0
 84 58  1  0
 84 89  1  0
 84 85  1  0
 85 88  1  1
 85 86  1  0
 87 85  1  0
 89 92  1  0
 90 94  1  0
 90 89  1  0
 91 90  2  0
 94 93  1  0
 96 94  1  0
 96 97  1  0
 96 95  1  0
M  ISO  4  15 100  23 100  56 101  57 101
M  END
>  <TORSDO>  (46) 
F 19

>  <SCORE>  (46) 
-14.703

>  <name>  (46) 
45

>  <ligand_id>  (46) 
45

>  <original_smiles>  (46) 
[H]c1c([H])c([H])c2c(c1[H])C([H])([H])C([H])([H])C([H])([H])C2([H])N([H])C(=O)C1([H])N(C(=O)C([H])(N([H])C(=O)C([H])(N([H])C([H])([H])[H])C([H])([H])[H])C(C([H])([H])[H])(C([H])([H])[H])C([H])([H])[H])C([H])([H])c2c([H])c(OC([H])([H])C3([H])C([H])([H])C([H])([H])C([H])(c4nc(N([H])[H])c([H])c(N([H])C(=O)N5C([H])([H])C([H])([H])C([H])([H])C([H])(n6nc(-c7c([H])c([H])c(Oc8c([H])c([H])c(F)c([H])c8F)c([H])c7[H])c(C(=O)N([H])[H])c6N([H])[H])C5([H])[H])c4[H])[N+]([H])([H])C3([H])[H])c([H])c([H])c2C1([H])[H]

>  <smiles>  (46) 
[H]c1c([H])c([H])c2c(c1[H])C([H])([H])C([H])([H])C([H])([H])C2([H])N([H])C(=O)C1([H])N(C(=O)C([H])(N([H])C(=O)C([H])(N([H])C([H])([H])[H])C([H])([H])[H])C(C([H])([H])[H])(C([H])([H])[H])C([H])([H])[H])C([H])([H])c2c([H])c(OC([H])([H])C3([H])C([H])([H])C([H])([H])C([H])(c4nc(N([H])[H])c([H])c(N([H])C(=O)N5C([H])([H])C([H])([H])C([H])([H])C([H])(n6nc(-c7c([H])c([H])c(Oc8c([H])c([H])c(F)c([H])c8F)c([H])c7[H])c(C(=O)N([H])[H])c6N([H])[H])C5([H])[H])c4[H])[N+]([H])([H])C3([H])[H])c([H])c([H])c2C1([H])[H]

$$$$
46:0:0
     RDKit          3D

 93102  0  0  1  0  0  0  0  0999 V2000
  -28.6390  -25.7760   21.1970 C   0  0  0  0  0  0  0  0  0  0  0  0
  -29.1120  -22.3280   19.4980 C   0  0  0  0  0  2  0  0  0  0  0  0
  -29.6140  -22.1670   21.9020 C   0  0  0  0  0  2  0  0  0  0  0  0
  -29.2780  -23.8920   19.5410 C   0  0  0  0  0  2  0  0  0  0  0  0
  -29.8330  -23.7030   21.9680 C   0  0  0  0  0  2  0  0  0  0  0  0
  -29.9840  -21.5720   20.5320 C   0  0  0  0  0  3  0  0  0  0  0  0
  -29.1710  -24.4860   20.8950 N   0  0  0  0  0  0  0  0  0  0  0  0
  -28.4430  -26.1890   22.3450 O   0  0  0  0  0  0  0  0  0  0  0  0
  -31.0840  -19.2600   20.0790 C   0  0  0  0  0  3  0  0  0  0  0  0
  -28.8200  -19.2610   20.9040 C   0  0  0  0  0  3  0  0  0  0  0  0
  -31.1070  -17.8370   20.1040 C   0  0  0  0  0  3  0  0  0  0  0  0
  -28.8420  -17.8390   20.9330 C   0  0  0  0  0  3  0  0  0  0  0  0
  -29.9480  -20.0090   20.4860 C   0  0  0  0  0  0  0  0  0  0  0  0
  -29.9830  -17.0900   20.5410 C   0  0  0  0  0  0  0  0  0  0  0  0
  -30.6690  -14.6410   20.0890 C   0  0  0  0  0  0  0  0  0  0  0  0
  -30.3880  -12.4610   18.9370 C   0  0  0  0  0  2  0  0  0  0  0  0
  -29.3810  -12.6540   17.7820 C   0  0  0  0  0  2  0  0  0  0  0  0
  -27.9300  -12.4900   18.2800 C   0  0  0  0  0  2  0  0  0  0  0  0
  -27.6460  -13.3020   19.5720 C   0  0  0  0  0  3  0  0  0  0  0  0
  -28.7580  -13.0750   20.6220 C   0  0  0  0  0  2  0  0  0  0  0  0
  -30.0440  -13.4270   19.9970 N   0  0  0  0  0  0  0  0  0  0  0  0
  -31.7900  -14.8310   19.6060 O   0  0  0  0  0  0  0  0  0  0  0  0
  -29.9080  -15.6400   20.6180 N   0  0  0  0  0  0  0  0  0  0  0  0
  -29.0500  -15.2890   21.0180 H   0  0  0  0  0  0  0  0  0  0  0  0
  -25.2840  -13.8860   20.4060 C   0  0  0  0  0  0  0  0  0  0  0  0
  -24.2380  -13.1040   20.8150 C   0  0  0  0  0  0  0  0  0  0  0  0
  -24.7010  -11.7540   20.7390 C   0  0  0  0  0  0  0  0  0  0  0  0
  -26.3190  -13.0120   20.1110 N   0  0  0  0  0  0  0  0  0  0  0  0
  -25.9750  -11.7250   20.3700 N   0  0  0  0  0  0  0  0  0  0  0  0
  -23.9880  -10.4870   20.9440 C   0  0  0  0  0  0  0  0  0  0  0  0
  -24.4410   -9.5280   21.8760 C   0  0  0  0  0  3  0  0  0  0  0  0
  -23.7280   -8.3240   22.0680 C   0  0  0  0  0  3  0  0  0  0  0  0
  -22.5490   -8.0720   21.3270 C   0  0  0  0  0  0  0  0  0  0  0  0
  -22.1150   -9.0210   20.3850 C   0  0  0  0  0  3  0  0  0  0  0  0
  -22.8280  -10.2150   20.1910 C   0  0  0  0  0  3  0  0  0  0  0  0
  -21.8070   -6.9200   21.4290 O   0  0  0  0  0  0  0  0  0  0  0  0
  -21.7390   -6.2070   22.5990 C   0  0  0  0  0  0  0  0  0  0  0  0
  -21.2830   -6.7910   23.8010 C   0  0  0  0  0  3  0  0  0  0  0  0
  -21.1640   -6.0050   24.9640 C   0  0  0  0  0  3  0  0  0  0  0  0
  -21.4900   -4.6350   24.9270 C   0  0  0  0  0  0  0  0  0  0  0  0
  -21.9390   -4.0510   23.7290 C   0  0  0  0  0  3  0  0  0  0  0  0
  -22.0600   -4.8350   22.5680 C   0  0  0  0  0  0  0  0  0  0  0  0
  -22.4720   -4.2620   21.4110 F   0  0  0  0  0  0  0  0  0  0  0  0
  -21.3680   -3.8780   26.0410 F   0  0  0  0  0  0  0  0  0  0  0  0
  -22.8530  -13.5720   21.1610 C   0  0  0  0  0  0  0  0  0  0  0  0
  -22.1690  -12.8590   22.0480 N   0  0  0  0  0  0  0  0  0  0  0  0
  -22.3880  -14.6040   20.6790 O   0  0  0  0  0  0  0  0  0  0  0  0
  -22.5580  -12.0230   22.4580 H   0  0  0  0  0  0  0  0  0  0  0  0
  -21.2420  -13.1530   22.3210 H   0  0  0  0  0  0  0  0  0  0  0  0
  -25.4360  -15.2600   20.2420 N   0  0  0  0  0  0  0  0  0  0  0  0
  -24.6690  -15.9060   20.3900 H   0  0  0  0  0  0  0  0  0  0  0  0
  -26.2560  -15.7040   19.8480 H   0  0  0  0  0  0  0  0  0  0  0  0
  -28.3630  -26.5640   20.0850 O   0  0  0  0  0  0  0  0  0  0  0  0
  -24.6670  -31.9000   23.2240 C   0  0  0  0  0  0  0  0  0  0  0  0
  -27.2690  -27.4220   20.1160 C   0  0  0  0  0  0  0  0  0  0  0  0
  -23.4460  -30.5030   21.5910 C   0  0  0  0  0  3  0  0  0  0  0  0
  -24.8880  -28.9740   20.1400 C   0  0  0  0  0  0  0  0  0  0  0  0
  -25.9750  -30.8550   21.3700 C   0  0  0  0  0  2  0  0  0  0  0  0
  -26.0580  -29.4830   20.7210 C   0  0  0  0  0  0  0  0  0  0  0  0
  -27.2560  -28.7180   20.7030 C   0  0  0  0  0  3  0  0  0  0  0  0
  -26.0870  -26.9530   19.5060 C   0  0  0  0  0  3  0  0  0  0  0  0
  -24.9020  -27.7110   19.5240 C   0  0  0  0  0  3  0  0  0  0  0  0
  -23.6440  -29.8330   20.2060 C   0  0  0  0  0  2  0  0  0  0  0  0
  -24.7150  -31.1010   22.1200 N   0  0  0  0  0  0  0  0  0  0  0  0
  -23.5910  -32.1690   23.7780 O   0  0  0  0  0  0  0  0  0  0  0  0
  -22.8040  -29.4780   22.5560 C   0  0  0  0  0  0  0  0  0  0  0  0
  -21.4780  -29.2940   22.4440 N   0  0  0  0  0  0  0  0  0  0  0  0
  -23.4970  -28.8510   23.3610 O   0  0  0  0  0  0  0  0  0  0  0  0
  -20.9780  -29.8520   21.7650 H   0  0  0  0  0  0  0  0  0  0  0  0
  -18.1150  -28.0700   22.9630 C   0  0  0  0  0  0  0  0  0  0  0  0
  -20.6720  -28.3510   23.2200 C   0  0  0  0  0  3  0  0  0  0  0  0
  -20.7840  -26.9190   22.6460 C   0  0  0  0  0  2  0  0  0  0  0  0
  -19.6790  -26.5850   21.6380 C   0  0  0  0  0  2  0  0  0  0  0  0
  -18.3000  -26.7210   22.2880 C   0  0  0  0  0  2  0  0  0  0  0  0
  -19.2300  -28.8420   23.3860 C   0  0  0  0  0  0  0  0  0  0  0  0
  -19.0030  -30.1050   23.9750 C   0  0  0  0  0  3  0  0  0  0  0  0
  -17.6950  -30.5950   24.1480 C   0  0  0  0  0  3  0  0  0  0  0  0
  -16.5950  -29.8210   23.7400 C   0  0  0  0  0  3  0  0  0  0  0  0
  -16.8060  -28.5590   23.1540 C   0  0  0  0  0  3  0  0  0  0  0  0
  -25.9570  -32.5320   23.8320 C   0  0  0  0  0  3  0  0  0  0  0  0
  -25.6470  -33.9250   24.1820 N   0  0  0  0  0  0  0  0  0  0  0  0
  -25.9600  -34.9870   23.4270 C   0  0  0  0  0  0  0  0  0  0  0  0
  -26.6110  -34.8970   22.3830 O   0  0  0  0  0  0  0  0  0  0  0  0
  -25.0670  -34.0680   24.9960 H   0  0  0  0  0  0  0  0  0  0  0  0
  -24.2140  -36.7720   23.1240 C   0  0  0  0  0  1  0  0  0  0  0  0
  -25.4730  -36.3680   23.9060 C   0  0  0  0  0  3  0  0  0  0  0  0
  -27.6180  -37.2580   24.7030 C   0  0  0  0  0  1  0  0  0  0  0  0
  -26.4960  -37.4280   23.7830 N   0  0  0  0  0  0  0  0  0  0  0  0
  -26.0880  -38.3440   23.9460 H   0  0  0  0  0  0  0  0  0  0  0  0
  -26.5010  -31.7490   25.0890 C   0  0  1  0  0  0  0  0  0  0  0  0
  -25.4290  -31.4940   26.1740 C   0  0  0  0  0  1  0  0  0  0  0  0
  -27.0830  -30.3790   24.6710 C   0  0  0  0  0  1  0  0  0  0  0  0
  -27.6590  -32.5410   25.7400 C   0  0  0  0  0  1  0  0  0  0  0  0
  1  8  2  0
  2  4  1  0
  2  6  1  0
  3  5  1  0
  4  7  1  0
  6 13  1  0
  6  3  1  0
  7  1  1  0
  7  5  1  0
  9 11  2  0
  9 13  1  0
 10 12  1  0
 11 14  1  0
 13 10  2  0
 14 23  1  0
 14 12  2  0
 15 23  1  0
 16 21  1  0
 17 18  1  0
 17 16  1  0
 19 18  1  0
 19 28  1  0
 19 20  1  0
 21 15  1  0
 21 20  1  0
 22 15  2  0
 23 24  1  0
 25 26  2  0
 26 45  1  0
 27 26  1  0
 27 30  1  0
 28 29  1  0
 28 25  1  0
 29 27  2  0
 30 31  1  0
 31 32  2  0
 33 36  1  0
 33 32  1  0
 34 33  2  0
 35 34  1  0
 35 30  2  0
 36 37  1  0
 37 38  1  0
 38 39  2  0
 40 39  1  0
 40 44  1  0
 41 40  2  0
 42 37  2  0
 42 41  1  0
 43 42  1  0
 45 46  1  0
 46 49  1  0
 46 48  1  0
 47 45  2  0
 50 51  1  0
 50 25  1  0
 52 50  1  0
 53 55  1  0
 53  1  1  0
 54 65  2  0
 55 60  1  0
 56 64  1  0
 56 66  1  0
 57 63  1  0
 57 59  1  0
 58 64  1  0
 59 58  1  0
 60 59  2  0
 61 62  1  0
 61 55  2  0
 62 57  2  0
 63 56  1  0
 64 54  1  0
 66 68  2  0
 67 66  1  0
 69 67  1  0
 70 79  2  0
 70 75  1  0
 71 67  1  0
 71 75  1  0
 72 71  1  0
 73 74  1  0
 73 72  1  0
 74 70  1  0
 75 76  2  0
 76 77  1  0
 78 77  2  0
 79 78  1  0
 80 54  1  0
 80 81  1  0
 80 90  1  0
 81 84  1  0
 82 86  1  0
 82 81  1  0
 83 82  2  0
 86 85  1  0
 88 86  1  0
 88 89  1  0
 88 87  1  0
 90 93  1  1
 90 91  1  0
 92 90  1  0
M  ISO  4   1 101  15 100  23 100  53 101
M  END
>  <TORSDO>  (47) 
F 17

>  <SCORE>  (47) 
-14.884

>  <name>  (47) 
46

>  <ligand_id>  (47) 
46

>  <original_smiles>  (47) 
[H]c1c([H])c([H])c2c(c1[H])C([H])([H])C([H])([H])C([H])([H])C2([H])N([H])C(=O)C1([H])N(C(=O)C([H])(N([H])C(=O)C([H])(N([H])C([H])([H])[H])C([H])([H])[H])C(C([H])([H])[H])(C([H])([H])[H])C([H])([H])[H])C([H])([H])c2c([H])c(OC(=O)N3C([H])([H])C([H])([H])C([H])(c4c([H])c([H])c(N([H])C(=O)N5C([H])([H])C([H])([H])C([H])([H])C([H])(n6nc(-c7c([H])c([H])c(Oc8c([H])c([H])c(F)c([H])c8F)c([H])c7[H])c(C(=O)N([H])[H])c6N([H])[H])C5([H])[H])c([H])c4[H])C([H])([H])C3([H])[H])c([H])c([H])c2C1([H])[H]

>  <smiles>  (47) 
[H]c1c([H])c([H])c2c(c1[H])C([H])([H])C([H])([H])C([H])([H])C2([H])N([H])C(=O)C1([H])N(C(=O)C([H])(N([H])C(=O)C([H])(N([H])C([H])([H])[H])C([H])([H])[H])C(C([H])([H])[H])(C([H])([H])[H])C([H])([H])[H])C([H])([H])c2c([H])c(OC(=O)N3C([H])([H])C([H])([H])C([H])(c4c([H])c([H])c(N([H])C(=O)N5C([H])([H])C([H])([H])C([H])([H])C([H])(n6nc(-c7c([H])c([H])c(Oc8c([H])c([H])c(F)c([H])c8F)c([H])c7[H])c(C(=O)N([H])[H])c6N([H])[H])C5([H])[H])c([H])c4[H])C([H])([H])C3([H])[H])c([H])c([H])c2C1([H])[H]

$$$$
47:0:0
     RDKit          3D

 91 99  0  0  1  0  0  0  0  0999 V2000
  -28.7270  -21.5660   20.7200 C   0  0  0  0  0  0  0  0  0  0  0  0
  -27.9440  -21.4510   21.7070 N   0  0  0  0  0  0  0  0  0  0  0  0
  -27.9170  -20.4860   22.0180 H   0  0  0  0  0  0  0  0  0  0  0  0
  -28.9650  -18.7610   20.7490 C   0  0  0  0  0  3  0  0  0  0  0  0
  -29.4070  -20.1190   20.3040 C   0  0  0  0  0  0  0  0  0  0  0  0
  -29.8310  -17.7320   20.2840 C   0  0  0  0  0  0  0  0  0  0  0  0
  -30.5100  -19.8430   19.5850 N   0  0  0  0  0  0  0  0  0  0  0  0
  -30.7730  -18.4290   19.5690 O   0  0  0  0  0  0  0  0  0  0  0  0
  -30.5440  -15.1280   20.1540 C   0  0  0  0  0  0  0  0  0  0  0  0
  -30.4460  -12.7580   19.2060 C   0  0  0  0  0  2  0  0  0  0  0  0
  -29.4830  -12.6980   17.9940 C   0  0  0  0  0  2  0  0  0  0  0  0
  -28.0330  -12.4670   18.4580 C   0  0  0  0  0  2  0  0  0  0  0  0
  -27.6470  -13.3790   19.6510 C   0  0  0  0  0  3  0  0  0  0  0  0
  -28.7280  -13.3960   20.7530 C   0  0  0  0  0  2  0  0  0  0  0  0
  -29.9780  -13.8440   20.1230 N   0  0  0  0  0  0  0  0  0  0  0  0
  -31.7290  -15.2040   19.8050 O   0  0  0  0  0  0  0  0  0  0  0  0
  -29.7420  -16.2860   20.4350 N   0  0  0  0  0  0  0  0  0  0  0  0
  -28.8440  -16.0040   20.7910 H   0  0  0  0  0  0  0  0  0  0  0  0
  -25.2800  -13.9360   20.4460 C   0  0  0  0  0  0  0  0  0  0  0  0
  -24.2290  -13.1530   20.8360 C   0  0  0  0  0  0  0  0  0  0  0  0
  -24.7010  -11.8050   20.7870 C   0  0  0  0  0  0  0  0  0  0  0  0
  -26.3220  -13.0660   20.1770 N   0  0  0  0  0  0  0  0  0  0  0  0
  -25.9850  -11.7790   20.4490 N   0  0  0  0  0  0  0  0  0  0  0  0
  -23.9860  -10.5370   20.9860 C   0  0  0  0  0  0  0  0  0  0  0  0
  -24.4280   -9.5760   21.9200 C   0  0  0  0  0  3  0  0  0  0  0  0
  -23.7100   -8.3750   22.1080 C   0  0  0  0  0  3  0  0  0  0  0  0
  -22.5340   -8.1270   21.3590 C   0  0  0  0  0  0  0  0  0  0  0  0
  -22.1100   -9.0770   20.4140 C   0  0  0  0  0  3  0  0  0  0  0  0
  -22.8300  -10.2690   20.2250 C   0  0  0  0  0  3  0  0  0  0  0  0
  -21.7870   -6.9780   21.4560 O   0  0  0  0  0  0  0  0  0  0  0  0
  -21.7390   -6.2460   22.6160 C   0  0  0  0  0  0  0  0  0  0  0  0
  -21.2860   -6.8020   23.8310 C   0  0  0  0  0  3  0  0  0  0  0  0
  -21.1870   -5.9950   24.9810 C   0  0  0  0  0  3  0  0  0  0  0  0
  -21.5310   -4.6330   24.9190 C   0  0  0  0  0  0  0  0  0  0  0  0
  -21.9790   -4.0750   23.7080 C   0  0  0  0  0  3  0  0  0  0  0  0
  -22.0800   -4.8780   22.5590 C   0  0  0  0  0  0  0  0  0  0  0  0
  -22.4910   -4.3310   21.3900 F   0  0  0  0  0  0  0  0  0  0  0  0
  -21.4300   -3.8550   26.0220 F   0  0  0  0  0  0  0  0  0  0  0  0
  -22.8360  -13.6200   21.1380 C   0  0  0  0  0  0  0  0  0  0  0  0
  -22.1280  -12.9130   22.0110 N   0  0  0  0  0  0  0  0  0  0  0  0
  -22.3850  -14.6490   20.6340 O   0  0  0  0  0  0  0  0  0  0  0  0
  -22.5070  -12.0820   22.4390 H   0  0  0  0  0  0  0  0  0  0  0  0
  -21.1940  -13.2100   22.2570 H   0  0  0  0  0  0  0  0  0  0  0  0
  -25.4290  -15.3090   20.2700 N   0  0  0  0  0  0  0  0  0  0  0  0
  -24.6530  -15.9490   20.3910 H   0  0  0  0  0  0  0  0  0  0  0  0
  -26.2450  -15.7510   19.8670 H   0  0  0  0  0  0  0  0  0  0  0  0
  -28.8640  -23.1630   20.1040 C   0  0  0  0  0  2  0  0  0  0  0  0
  -28.6890  -24.8160   22.1340 C   0  0  0  0  0  1  0  0  0  0  0  0
  -26.6090  -24.2900   20.8730 C   0  0  0  0  0  1  0  0  0  0  0  0
  -28.1150  -24.6130   20.7210 C   0  0  2  0  0  0  0  0  0  0  0  0
  -28.2690  -26.1220   20.1940 O   0  0  0  0  0  0  0  0  0  0  0  0
  -24.6260  -31.8860   23.2220 C   0  0  0  0  0  0  0  0  0  0  0  0
  -27.2330  -27.1550   20.1850 C   0  0  0  0  0  0  0  0  0  0  0  0
  -23.4450  -30.4920   21.5720 C   0  0  0  0  0  3  0  0  0  0  0  0
  -24.9110  -28.9360   20.1390 C   0  0  0  0  0  0  0  0  0  0  0  0
  -26.0010  -30.7570   21.4300 C   0  0  0  0  0  2  0  0  0  0  0  0
  -26.0850  -29.3640   20.7720 C   0  0  0  0  0  0  0  0  0  0  0  0
  -27.2450  -28.4880   20.7840 C   0  0  0  0  0  3  0  0  0  0  0  0
  -26.0550  -26.8830   19.4550 C   0  0  0  0  0  3  0  0  0  0  0  0
  -24.9120  -27.7110   19.4610 C   0  0  0  0  0  3  0  0  0  0  0  0
  -23.6790  -29.8290   20.1890 C   0  0  0  0  0  2  0  0  0  0  0  0
  -24.7100  -31.0690   22.1280 N   0  0  0  0  0  0  0  0  0  0  0  0
  -23.5350  -32.1610   23.7460 O   0  0  0  0  0  0  0  0  0  0  0  0
  -22.7670  -29.4740   22.5250 C   0  0  0  0  0  0  0  0  0  0  0  0
  -21.4390  -29.3030   22.4010 N   0  0  0  0  0  0  0  0  0  0  0  0
  -23.4410  -28.8400   23.3420 O   0  0  0  0  0  0  0  0  0  0  0  0
  -20.9500  -29.8660   21.7190 H   0  0  0  0  0  0  0  0  0  0  0  0
  -18.0600  -28.0940   22.9120 C   0  0  0  0  0  0  0  0  0  0  0  0
  -20.6210  -28.3570   23.1670 C   0  0  0  0  0  3  0  0  0  0  0  0
  -20.7210  -26.9310   22.5760 C   0  0  0  0  0  2  0  0  0  0  0  0
  -19.6130  -26.6170   21.5640 C   0  0  0  0  0  2  0  0  0  0  0  0
  -18.2350  -26.7530   22.2180 C   0  0  0  0  0  2  0  0  0  0  0  0
  -19.1800  -28.8530   23.3430 C   0  0  0  0  0  0  0  0  0  0  0  0
  -18.9600  -30.1070   23.9540 C   0  0  0  0  0  3  0  0  0  0  0  0
  -17.6560  -30.6010   24.1380 C   0  0  0  0  0  3  0  0  0  0  0  0
  -16.5510  -29.8380   23.7210 C   0  0  0  0  0  3  0  0  0  0  0  0
  -16.7530  -28.5860   23.1140 C   0  0  0  0  0  3  0  0  0  0  0  0
  -25.8950  -32.5300   23.8570 C   0  0  0  0  0  3  0  0  0  0  0  0
  -26.3890  -31.7770   25.1540 C   0  0  1  0  0  0  0  0  0  0  0  0
  -25.2780  -31.5560   26.2070 C   0  0  0  0  0  1  0  0  0  0  0  0
  -26.9780  -30.3910   24.8000 C   0  0  0  0  0  1  0  0  0  0  0  0
  -27.5300  -32.5800   25.8230 C   0  0  0  0  0  1  0  0  0  0  0  0
  -25.5780  -33.9320   24.1710 N   0  0  0  0  0  0  0  0  0  0  0  0
  -25.9120  -34.9830   23.4090 C   0  0  0  0  0  0  0  0  0  0  0  0
  -26.5870  -34.8730   22.3820 O   0  0  0  0  0  0  0  0  0  0  0  0
  -24.9790  -34.0910   24.9670 H   0  0  0  0  0  0  0  0  0  0  0  0
  -24.1900  -36.7790   23.0350 C   0  0  0  0  0  1  0  0  0  0  0  0
  -25.4250  -36.3750   23.8560 C   0  0  0  0  0  3  0  0  0  0  0  0
  -27.5520  -37.2670   24.6980 C   0  0  0  0  0  1  0  0  0  0  0  0
  -26.4590  -37.4270   23.7440 N   0  0  0  0  0  0  0  0  0  0  0  0
  -26.0530  -38.3480   23.8810 H   0  0  0  0  0  0  0  0  0  0  0  0
  1  2  2  0
  2  3  1  0
  5  1  1  0
  5  4  1  0
  6 17  1  0
  6  4  2  0
  7  5  2  0
  8  7  1  0
  8  6  1  0
  9 17  1  0
 10 15  1  0
 11 12  1  0
 11 10  1  0
 13 12  1  0
 13 22  1  0
 13 14  1  0
 15  9  1  0
 15 14  1  0
 16  9  2  0
 17 18  1  0
 19 20  2  0
 20 39  1  0
 21 20  1  0
 21 24  1  0
 22 19  1  0
 22 23  1  0
 23 21  2  0
 24 25  1  0
 25 26  2  0
 27 30  1  0
 27 26  1  0
 28 27  2  0
 29 28  1  0
 29 24  2  0
 30 31  1  0
 31 32  1  0
 32 33  2  0
 34 33  1  0
 34 38  1  0
 35 34  2  0
 36 31  2  0
 36 35  1  0
 37 36  1  0
 39 40  1  0
 40 43  1  0
 40 42  1  0
 41 39  2  0
 44 45  1  0
 44 19  1  0
 46 44  1  0
 47  1  1  0
 47 50  1  0
 50 49  1  1
 50 48  1  0
 51 50  1  0
 52 63  2  0
 53 51  1  0
 53 58  1  0
 54 62  1  0
 54 64  1  0
 55 61  1  0
 55 57  1  0
 56 62  1  0
 57 58  2  0
 57 56  1  0
 59 60  1  0
 59 53  2  0
 60 55  2  0
 61 54  1  0
 62 52  1  0
 64 66  2  0
 65 64  1  0
 67 65  1  0
 68 77  2  0
 68 73  1  0
 69 65  1  0
 69 73  1  0
 70 69  1  0
 71 72  1  0
 71 70  1  0
 72 68  1  0
 73 74  2  0
 74 75  1  0
 76 75  2  0
 77 76  1  0
 78 52  1  0
 78 83  1  0
 78 79  1  0
 79 82  1  1
 79 80  1  0
 81 79  1  0
 83 86  1  0
 84 88  1  0
 84 83  1  0
 85 84  2  0
 88 87  1  0
 90 88  1  0
 90 91  1  0
 90 89  1  0
M  ISO  4   9 100  17 100  50 101  51 101
M  END
>  <TORSDO>  (48) 
F 19

>  <SCORE>  (48) 
-15.156

>  <name>  (48) 
47

>  <ligand_id>  (48) 
47

>  <original_smiles>  (48) 
[H]N=C(c1noc(N([H])C(=O)N2C([H])([H])C([H])([H])C([H])([H])C([H])(n3nc(-c4c([H])c([H])c(Oc5c([H])c([H])c(F)c([H])c5F)c([H])c4[H])c(C(=O)N([H])[H])c3N([H])[H])C2([H])[H])c1[H])C([H])([H])C(Oc1c([H])c([H])c2c(c1[H])C([H])([H])N(C(=O)C([H])(N([H])C(=O)C([H])(N([H])C([H])([H])[H])C([H])([H])[H])C(C([H])([H])[H])(C([H])([H])[H])C([H])([H])[H])C([H])(C(=O)N([H])C1([H])c3c([H])c([H])c([H])c([H])c3C([H])([H])C([H])([H])C1([H])[H])C2([H])[H])(C([H])([H])[H])C([H])([H])[H]

>  <smiles>  (48) 
[H]N=C(c1noc(N([H])C(=O)N2C([H])([H])C([H])([H])C([H])([H])C([H])(n3nc(-c4c([H])c([H])c(Oc5c([H])c([H])c(F)c([H])c5F)c([H])c4[H])c(C(=O)N([H])[H])c3N([H])[H])C2([H])[H])c1[H])C([H])([H])C(Oc1c([H])c([H])c2c(c1[H])C([H])([H])N(C(=O)C([H])(N([H])C(=O)C([H])(N([H])C([H])([H])[H])C([H])([H])[H])C(C([H])([H])[H])(C([H])([H])[H])C([H])([H])[H])C([H])(C(=O)N([H])C1([H])c3c([H])c([H])c([H])c([H])c3C([H])([H])C([H])([H])C1([H])[H])C2([H])[H])(C([H])([H])[H])C([H])([H])[H]

$$$$
48:0:0
     RDKit          3D

 97106  0  0  1  0  0  0  0  0999 V2000
  -29.2160  -24.3750   19.3070 C   0  0  0  0  0  0  0  0  0  0  0  0
  -28.5020  -25.2300   20.0850 C   0  0  0  0  0  0  0  0  0  0  0  0
  -28.3810  -20.8800   20.9640 C   0  0  0  0  0  0  0  0  0  0  0  0
  -29.3300  -22.8330   19.5660 C   0  0  0  0  0  2  0  0  0  0  0  0
  -27.8020  -24.6710   21.3050 C   0  0  0  0  0  2  0  0  0  0  0  0
  -27.4290  -23.1640   21.1580 C   0  0  0  0  0  2  0  0  0  0  0  0
  -28.4610  -22.2260   20.6060 N   0  0  0  0  0  0  0  0  0  0  0  0
  -27.4870  -20.5450   21.7500 O   0  0  0  0  0  0  0  0  0  0  0  0
  -30.5110  -19.5460   19.9180 C   0  0  0  0  0  3  0  0  0  0  0  0
  -30.9620  -18.1640   19.8330 C   0  0  0  0  0  0  0  0  0  0  0  0
  -29.2700  -19.7170   20.4940 C   0  0  0  0  0  0  0  0  0  0  0  0
  -30.0880  -17.2090   20.3250 C   0  0  0  0  0  0  0  0  0  0  0  0
  -28.6690  -18.0900   20.9010 S   0  0  0  0  0  0  0  0  0  0  0  0
  -30.9200  -14.8210   19.9130 C   0  0  0  0  0  0  0  0  0  0  0  0
  -30.6800  -12.5920   18.8280 C   0  0  0  0  0  2  0  0  0  0  0  0
  -29.6170  -12.7170   17.7110 C   0  0  0  0  0  2  0  0  0  0  0  0
  -28.1940  -12.5190   18.2740 C   0  0  0  0  0  2  0  0  0  0  0  0
  -27.9420  -13.3500   19.5610 C   0  0  0  0  0  3  0  0  0  0  0  0
  -29.1030  -13.1830   20.5660 C   0  0  0  0  0  2  0  0  0  0  0  0
  -30.3440  -13.5760   19.8780 N   0  0  0  0  0  0  0  0  0  0  0  0
  -32.0230  -15.0230   19.3940 O   0  0  0  0  0  0  0  0  0  0  0  0
  -30.1260  -15.8180   20.4240 N   0  0  0  0  0  0  0  0  0  0  0  0
  -29.3080  -15.4330   20.8690 H   0  0  0  0  0  0  0  0  0  0  0  0
  -25.6590  -13.9060   20.6030 C   0  0  0  0  0  0  0  0  0  0  0  0
  -24.6220  -13.1130   21.0110 C   0  0  0  0  0  0  0  0  0  0  0  0
  -25.0430  -11.7660   20.7900 C   0  0  0  0  0  0  0  0  0  0  0  0
  -26.6480  -13.0400   20.1630 N   0  0  0  0  0  0  0  0  0  0  0  0
  -26.2880  -11.7420   20.3330 N   0  0  0  0  0  0  0  0  0  0  0  0
  -24.3110  -10.5010   20.9320 C   0  0  0  0  0  0  0  0  0  0  0  0
  -24.7660   -9.4770   21.7920 C   0  0  0  0  0  3  0  0  0  0  0  0
  -24.0350   -8.2770   21.9270 C   0  0  0  0  0  3  0  0  0  0  0  0
  -22.8350   -8.0920   21.1990 C   0  0  0  0  0  0  0  0  0  0  0  0
  -22.3980   -9.1050   20.3280 C   0  0  0  0  0  3  0  0  0  0  0  0
  -23.1300  -10.2970   20.1920 C   0  0  0  0  0  3  0  0  0  0  0  0
  -22.0740   -6.9490   21.2470 O   0  0  0  0  0  0  0  0  0  0  0  0
  -21.9780   -6.1940   22.3870 C   0  0  0  0  0  0  0  0  0  0  0  0
  -21.4950   -6.7350   23.6000 C   0  0  0  0  0  3  0  0  0  0  0  0
  -21.3490   -5.9050   24.7300 C   0  0  0  0  0  3  0  0  0  0  0  0
  -21.6740   -4.5380   24.6480 C   0  0  0  0  0  0  0  0  0  0  0  0
  -22.1490   -3.9980   23.4400 C   0  0  0  0  0  3  0  0  0  0  0  0
  -22.2980   -4.8240   22.3130 C   0  0  0  0  0  0  0  0  0  0  0  0
  -22.7360   -4.2940   21.1460 F   0  0  0  0  0  0  0  0  0  0  0  0
  -21.5250   -3.7400   25.7320 F   0  0  0  0  0  0  0  0  0  0  0  0
  -23.2760  -13.5780   21.4890 C   0  0  0  0  0  0  0  0  0  0  0  0
  -22.6420  -12.8150   22.3740 N   0  0  0  0  0  0  0  0  0  0  0  0
  -22.8000  -14.6490   21.1160 O   0  0  0  0  0  0  0  0  0  0  0  0
  -23.0420  -11.9470   22.6960 H   0  0  0  0  0  0  0  0  0  0  0  0
  -21.7430  -13.1040   22.7340 H   0  0  0  0  0  0  0  0  0  0  0  0
  -25.8370  -15.2850   20.5460 N   0  0  0  0  0  0  0  0  0  0  0  0
  -25.0980  -15.9320   20.8020 H   0  0  0  0  0  0  0  0  0  0  0  0
  -26.6410  -15.7450   20.1400 H   0  0  0  0  0  0  0  0  0  0  0  0
  -32.2190  -17.8710   19.3000 N   0  0  0  0  0  0  0  0  0  0  0  0
  -32.6030  -18.4780   18.5840 H   0  0  0  0  0  0  0  0  0  0  0  0
  -32.4190  -16.8790   19.1540 H   0  0  0  0  0  0  0  0  0  0  0  0
  -31.5040  -24.6700   18.2170 C   0  0  0  0  0  1  0  0  0  0  0  0
  -29.9870  -24.8660   18.0900 C   0  0  0  0  0  2  0  0  0  0  0  0
  -28.5000  -26.6370   19.9210 O   0  0  0  0  0  0  0  0  0  0  0  0
  -24.6410  -31.8620   23.0890 C   0  0  0  0  0  0  0  0  0  0  0  0
  -27.3370  -27.4160   19.9590 C   0  0  0  0  0  0  0  0  0  0  0  0
  -23.4600  -30.4720   21.4220 C   0  0  0  0  0  3  0  0  0  0  0  0
  -24.9370  -28.9660   19.9750 C   0  0  0  0  0  0  0  0  0  0  0  0
  -25.9890  -30.8420   21.2420 C   0  0  0  0  0  2  0  0  0  0  0  0
  -26.0930  -29.4730   20.5800 C   0  0  0  0  0  0  0  0  0  0  0  0
  -27.2960  -28.7090   20.5640 C   0  0  0  0  0  3  0  0  0  0  0  0
  -26.1590  -26.9500   19.3370 C   0  0  0  0  0  3  0  0  0  0  0  0
  -24.9700  -27.7080   19.3480 C   0  0  0  0  0  3  0  0  0  0  0  0
  -23.6840  -29.8180   20.0330 C   0  0  0  0  0  2  0  0  0  0  0  0
  -24.7160  -31.0770   21.9750 N   0  0  0  0  0  0  0  0  0  0  0  0
  -23.5540  -32.1120   23.6290 O   0  0  0  0  0  0  0  0  0  0  0  0
  -22.8160  -29.4300   22.3670 C   0  0  0  0  0  0  0  0  0  0  0  0
  -21.4890  -29.2510   22.2520 N   0  0  0  0  0  0  0  0  0  0  0  0
  -23.5070  -28.7850   23.1600 O   0  0  0  0  0  0  0  0  0  0  0  0
  -20.9900  -29.8220   21.5840 H   0  0  0  0  0  0  0  0  0  0  0  0
  -18.1130  -28.0790   22.8110 C   0  0  0  0  0  0  0  0  0  0  0  0
  -20.6830  -28.2910   23.0080 C   0  0  0  0  0  3  0  0  0  0  0  0
  -20.7450  -26.8860   22.3660 C   0  0  0  0  0  2  0  0  0  0  0  0
  -19.6060  -26.6240   21.3760 C   0  0  0  0  0  2  0  0  0  0  0  0
  -18.2490  -26.7580   22.0700 C   0  0  0  0  0  2  0  0  0  0  0  0
  -19.2570  -28.8050   23.2370 C   0  0  0  0  0  0  0  0  0  0  0  0
  -19.0760  -30.0430   23.8920 C   0  0  0  0  0  3  0  0  0  0  0  0
  -17.7840  -30.5530   24.1230 C   0  0  0  0  0  3  0  0  0  0  0  0
  -16.6560  -29.8210   23.7120 C   0  0  0  0  0  3  0  0  0  0  0  0
  -16.8220  -28.5860   23.0620 C   0  0  0  0  0  3  0  0  0  0  0  0
  -25.9150  -32.5030   23.7230 C   0  0  0  0  0  3  0  0  0  0  0  0
  -26.4460  -31.7130   24.9820 C   0  0  1  0  0  0  0  0  0  0  0  0
  -25.3570  -31.4310   26.0440 C   0  0  0  0  0  1  0  0  0  0  0  0
  -27.0540  -30.3560   24.5580 C   0  0  0  0  0  1  0  0  0  0  0  0
  -27.5830  -32.5120   25.6620 C   0  0  0  0  0  1  0  0  0  0  0  0
  -25.5820  -33.8880   24.0850 N   0  0  0  0  0  0  0  0  0  0  0  0
  -25.8800  -34.9620   23.3410 C   0  0  0  0  0  0  0  0  0  0  0  0
  -26.5350  -34.8920   22.2970 O   0  0  0  0  0  0  0  0  0  0  0  0
  -24.9970  -34.0140   24.8980 H   0  0  0  0  0  0  0  0  0  0  0  0
  -24.1050  -36.7210   23.0550 C   0  0  0  0  0  1  0  0  0  0  0  0
  -25.3710  -36.3320   23.8320 C   0  0  0  0  0  3  0  0  0  0  0  0
  -27.5010  -37.2540   24.6380 C   0  0  0  0  0  1  0  0  0  0  0  0
  -26.3780  -37.4090   23.7170 N   0  0  0  0  0  0  0  0  0  0  0  0
  -25.9540  -38.3180   23.8850 H   0  0  0  0  0  0  0  0  0  0  0  0
  1  4  1  0
  1  2  2  0
  2  5  1  0
  3  8  2  0
  4  7  1  0
  6  5  1  0
  7  3  1  0
  7  6  1  0
  9 11  2  0
 10  9  1  0
 10 12  2  0
 11 13  1  0
 11  3  1  0
 12 22  1  0
 12 13  1  0
 14 22  1  0
 15 20  1  0
 16 17  1  0
 16 15  1  0
 18 17  1  0
 18 27  1  0
 18 19  1  0
 20 14  1  0
 20 19  1  0
 21 14  2  0
 22 23  1  0
 24 25  2  0
 25 44  1  0
 26 29  1  0
 26 25  1  0
 27 28  1  0
 27 24  1  0
 28 26  2  0
 29 30  1  0
 30 31  2  0
 32 35  1  0
 32 31  1  0
 33 32  2  0
 34 33  1  0
 34 29  2  0
 35 36  1  0
 36 37  1  0
 37 38  2  0
 39 38  1  0
 39 43  1  0
 40 39  2  0
 41 36  2  0
 41 40  1  0
 42 41  1  0
 44 45  1  0
 45 47  1  0
 45 48  1  0
 46 44  2  0
 49 24  1  0
 49 50  1  0
 51 49  1  0
 52 10  1  0
 53 52  1  0
 54 52  1  0
 56 55  1  0
 56  1  1  0
 57 59  1  0
 57  2  1  0
 58 69  2  0
 59 64  1  0
 60 68  1  0
 60 70  1  0
 61 67  1  0
 61 63  1  0
 62 68  1  0
 63 62  1  0
 64 63  2  0
 65 66  1  0
 65 59  2  0
 66 61  2  0
 67 60  1  0
 68 58  1  0
 70 72  2  0
 71 70  1  0
 73 71  1  0
 74 83  2  0
 74 79  1  0
 75 71  1  0
 75 79  1  0
 76 75  1  0
 77 78  1  0
 77 76  1  0
 78 74  1  0
 79 80  2  0
 80 81  1  0
 82 81  2  0
 83 82  1  0
 84 58  1  0
 84 89  1  0
 84 85  1  0
 85 88  1  1
 85 86  1  0
 87 85  1  0
 89 92  1  0
 90 94  1  0
 90 89  1  0
 91 90  2  0
 94 93  1  0
 96 94  1  0
 96 97  1  0
 96 95  1  0
M  ISO  4   2 101  14 100  22 100  57 101
M  END
>  <TORSDO>  (49) 
F 19

>  <SCORE>  (49) 
-12.022

>  <name>  (49) 
48

>  <ligand_id>  (49) 
48

>  <original_smiles>  (49) 
[H]c1c([H])c([H])c2c(c1[H])C([H])([H])C([H])([H])C([H])([H])C2([H])N([H])C(=O)C1([H])N(C(=O)C([H])(N([H])C(=O)C([H])(N([H])C([H])([H])[H])C([H])([H])[H])C(C([H])([H])[H])(C([H])([H])[H])C([H])([H])[H])C([H])([H])c2c([H])c(OC3=C(C([H])([H])C([H])([H])[H])C([H])([H])N(C(=O)c4sc(N([H])C(=O)N5C([H])([H])C([H])([H])C([H])([H])C([H])(n6nc(-c7c([H])c([H])c(Oc8c([H])c([H])c(F)c([H])c8F)c([H])c7[H])c(C(=O)N([H])[H])c6N([H])[H])C5([H])[H])c(N([H])[H])c4[H])C([H])([H])C3([H])[H])c([H])c([H])c2C1([H])[H]

>  <smiles>  (49) 
[H]c1c([H])c([H])c2c(c1[H])C([H])([H])C([H])([H])C([H])([H])C2([H])N([H])C(=O)C1([H])N(C(=O)C([H])(N([H])C(=O)C([H])(N([H])C([H])([H])[H])C([H])([H])[H])C(C([H])([H])[H])(C([H])([H])[H])C([H])([H])[H])C([H])([H])c2c([H])c(OC3=C(C([H])([H])C([H])([H])[H])C([H])([H])N(C(=O)c4sc(N([H])C(=O)N5C([H])([H])C([H])([H])C([H])([H])C([H])(n6nc(-c7c([H])c([H])c(Oc8c([H])c([H])c(F)c([H])c8F)c([H])c7[H])c(C(=O)N([H])[H])c6N([H])[H])C5([H])[H])c(N([H])[H])c4[H])C([H])([H])C3([H])[H])c([H])c([H])c2C1([H])[H]

$$$$
49:0:0
     RDKit          3D

 93101  0  0  1  0  0  0  0  0999 V2000
  -29.4530  -20.0220   21.0710 C   0  0  0  0  0  3  0  0  0  0  0  0
  -28.5680  -20.4860   19.0980 C   0  0  0  0  0  3  0  0  0  0  0  0
  -28.8700  -21.1030   20.2870 C   0  0  0  0  0  0  0  0  0  0  0  0
  -29.5080  -18.8310   20.3300 C   0  0  0  0  0  0  0  0  0  0  0  0
  -28.9320  -19.1350   19.1140 O   0  0  0  0  0  0  0  0  0  0  0  0
  -30.4370  -14.8860   19.9430 C   0  0  0  0  0  0  0  0  0  0  0  0
  -30.1510  -12.6270   18.8890 C   0  0  0  0  0  2  0  0  0  0  0  0
  -29.1090  -12.6660   17.7510 C   0  0  0  0  0  2  0  0  0  0  0  0
  -27.6900  -12.4510   18.3120 C   0  0  0  0  0  2  0  0  0  0  0  0
  -27.4000  -13.3260   19.5600 C   0  0  0  0  0  3  0  0  0  0  0  0
  -28.5560  -13.2780   20.5820 C   0  0  0  0  0  2  0  0  0  0  0  0
  -29.7740  -13.6750   19.8690 N   0  0  0  0  0  0  0  0  0  0  0  0
  -31.6100  -14.9450   19.5610 O   0  0  0  0  0  0  0  0  0  0  0  0
  -30.1930  -17.4780   20.4990 C   0  0  0  0  0  3  0  0  0  0  0  0
  -32.3740  -16.7570   21.6930 C   0  0  0  0  0  1  0  0  0  0  0  0
  -29.6980  -16.1890   20.1930 N   0  0  0  0  0  0  0  0  0  0  0  0
  -31.3990  -17.6750   21.0840 N   0  0  0  0  0  0  0  0  0  0  0  0
  -28.6950  -16.1900   20.1810 H   0  0  0  0  0  0  0  0  0  0  0  0
  -31.6490  -18.6500   21.1890 H   0  0  0  0  0  0  0  0  0  0  0  0
  -25.0970  -13.8600   20.5470 C   0  0  0  0  0  0  0  0  0  0  0  0
  -24.0730  -13.0620   20.9760 C   0  0  0  0  0  0  0  0  0  0  0  0
  -24.5330  -11.7180   20.8320 C   0  0  0  0  0  0  0  0  0  0  0  0
  -26.1140  -13.0020   20.1660 N   0  0  0  0  0  0  0  0  0  0  0  0
  -25.7900  -11.7040   20.4030 N   0  0  0  0  0  0  0  0  0  0  0  0
  -23.8300  -10.4430   21.0190 C   0  0  0  0  0  0  0  0  0  0  0  0
  -24.3100   -9.4570   21.9090 C   0  0  0  0  0  3  0  0  0  0  0  0
  -23.6020   -8.2480   22.0860 C   0  0  0  0  0  3  0  0  0  0  0  0
  -22.4010   -8.0170   21.3760 C   0  0  0  0  0  0  0  0  0  0  0  0
  -21.9400   -8.9920   20.4730 C   0  0  0  0  0  3  0  0  0  0  0  0
  -22.6480  -10.1920   20.2940 C   0  0  0  0  0  3  0  0  0  0  0  0
  -21.6620   -6.8620   21.4660 O   0  0  0  0  0  0  0  0  0  0  0  0
  -21.6410   -6.1090   22.6130 C   0  0  0  0  0  0  0  0  0  0  0  0
  -21.2030   -6.6410   23.8450 C   0  0  0  0  0  3  0  0  0  0  0  0
  -21.1330   -5.8120   24.9840 C   0  0  0  0  0  3  0  0  0  0  0  0
  -21.4880   -4.4530   24.8900 C   0  0  0  0  0  0  0  0  0  0  0  0
  -21.9180   -3.9220   23.6610 C   0  0  0  0  0  3  0  0  0  0  0  0
  -21.9910   -4.7470   22.5250 C   0  0  0  0  0  0  0  0  0  0  0  0
  -22.3860   -4.2250   21.3390 F   0  0  0  0  0  0  0  0  0  0  0  0
  -21.4130   -3.6560   25.9800 F   0  0  0  0  0  0  0  0  0  0  0  0
  -22.7060  -13.5170   21.3970 C   0  0  0  0  0  0  0  0  0  0  0  0
  -22.0570  -12.7690   22.2810 N   0  0  0  0  0  0  0  0  0  0  0  0
  -22.2260  -14.5690   20.9770 O   0  0  0  0  0  0  0  0  0  0  0  0
  -22.4580  -11.9160   22.6410 H   0  0  0  0  0  0  0  0  0  0  0  0
  -21.1420  -13.0530   22.6040 H   0  0  0  0  0  0  0  0  0  0  0  0
  -25.2380  -15.2400   20.4250 N   0  0  0  0  0  0  0  0  0  0  0  0
  -24.4660  -15.8690   20.6250 H   0  0  0  0  0  0  0  0  0  0  0  0
  -26.0040  -15.7010   19.9540 H   0  0  0  0  0  0  0  0  0  0  0  0
  -28.4130  -23.7220   20.0480 C   0  0  0  0  0  0  0  0  0  0  0  0
  -28.6240  -22.5160   20.7200 N   0  0  0  0  0  0  0  0  0  0  0  0
  -28.5420  -23.7890   18.8220 O   0  0  0  0  0  0  0  0  0  0  0  0
  -28.5940  -22.6350   21.7240 H   0  0  0  0  0  0  0  0  0  0  0  0
  -27.9840  -25.0560   20.8550 C   0  0  0  0  0  2  0  0  0  0  0  0
  -28.2000  -26.4330   20.2660 O   0  0  0  0  0  0  0  0  0  0  0  0
  -24.5410  -31.9870   23.2650 C   0  0  0  0  0  0  0  0  0  0  0  0
  -27.1150  -27.3430   20.2550 C   0  0  0  0  0  0  0  0  0  0  0  0
  -23.3300  -30.5860   21.6340 C   0  0  0  0  0  3  0  0  0  0  0  0
  -24.7720  -29.0080   20.2180 C   0  0  0  0  0  0  0  0  0  0  0  0
  -25.8750  -30.8730   21.4510 C   0  0  0  0  0  2  0  0  0  0  0  0
  -25.9480  -29.4850   20.8130 C   0  0  0  0  0  0  0  0  0  0  0  0
  -27.1260  -28.6670   20.8130 C   0  0  0  0  0  3  0  0  0  0  0  0
  -25.9190  -26.9320   19.6330 C   0  0  0  0  0  3  0  0  0  0  0  0
  -24.7640  -27.7400   19.6150 C   0  0  0  0  0  3  0  0  0  0  0  0
  -23.5420  -29.8960   20.2590 C   0  0  0  0  0  2  0  0  0  0  0  0
  -24.6020  -31.1690   22.1730 N   0  0  0  0  0  0  0  0  0  0  0  0
  -23.4590  -32.2760   23.7970 O   0  0  0  0  0  0  0  0  0  0  0  0
  -22.6570  -29.5830   22.6020 C   0  0  0  0  0  0  0  0  0  0  0  0
  -21.3310  -29.4030   22.4660 N   0  0  0  0  0  0  0  0  0  0  0  0
  -23.3280  -28.9690   23.4350 O   0  0  0  0  0  0  0  0  0  0  0  0
  -20.8500  -29.9490   21.7640 H   0  0  0  0  0  0  0  0  0  0  0  0
  -17.9520  -28.2020   22.9500 C   0  0  0  0  0  0  0  0  0  0  0  0
  -20.5060  -28.4740   23.2410 C   0  0  0  0  0  3  0  0  0  0  0  0
  -20.6190  -27.0350   22.6860 C   0  0  0  0  0  2  0  0  0  0  0  0
  -19.5280  -26.6950   21.6660 C   0  0  0  0  0  2  0  0  0  0  0  0
  -18.1390  -26.8430   22.2930 C   0  0  0  0  0  2  0  0  0  0  0  0
  -19.0630  -28.9730   23.3800 C   0  0  0  0  0  0  0  0  0  0  0  0
  -18.8350  -30.2410   23.9550 C   0  0  0  0  0  3  0  0  0  0  0  0
  -17.5270  -30.7410   24.1020 C   0  0  0  0  0  3  0  0  0  0  0  0
  -16.4290  -29.9660   23.6880 C   0  0  0  0  0  3  0  0  0  0  0  0
  -16.6430  -28.6990   23.1180 C   0  0  0  0  0  3  0  0  0  0  0  0
  -25.8260  -32.6170   23.8840 C   0  0  0  0  0  3  0  0  0  0  0  0
  -25.5230  -34.0180   24.2100 N   0  0  0  0  0  0  0  0  0  0  0  0
  -25.8530  -35.0680   23.4460 C   0  0  0  0  0  0  0  0  0  0  0  0
  -26.5150  -34.9590   22.4100 O   0  0  0  0  0  0  0  0  0  0  0  0
  -24.9360  -34.1760   25.0160 H   0  0  0  0  0  0  0  0  0  0  0  0
  -24.1280  -36.8680   23.1050 C   0  0  0  0  0  1  0  0  0  0  0  0
  -25.3760  -36.4610   23.9040 C   0  0  0  0  0  3  0  0  0  0  0  0
  -27.5200  -37.3450   24.7120 C   0  0  0  0  0  1  0  0  0  0  0  0
  -26.4110  -37.5100   23.7760 N   0  0  0  0  0  0  0  0  0  0  0  0
  -26.0100  -38.4320   23.9200 H   0  0  0  0  0  0  0  0  0  0  0  0
  -26.3390  -31.8500   25.1640 C   0  0  1  0  0  0  0  0  0  0  0  0
  -25.2380  -31.6000   26.2220 C   0  0  0  0  0  1  0  0  0  0  0  0
  -26.9390  -30.4770   24.7780 C   0  0  0  0  0  1  0  0  0  0  0  0
  -27.4750  -32.6550   25.8390 C   0  0  0  0  0  1  0  0  0  0  0  0
  2  5  1  0
  2  3  2  0
  3 49  1  0
  3  1  1  0
  4 14  1  0
  4  1  2  0
  5  4  1  0
  6 16  1  0
  7 12  1  0
  8  9  1  0
  8  7  1  0
 10  9  1  0
 10 23  1  0
 10 11  1  0
 12  6  1  0
 12 11  1  0
 13  6  2  0
 14 16  1  0
 14 17  1  0
 17 19  1  0
 17 15  1  0
 18 16  1  0
 20 21  2  0
 21 40  1  0
 22 21  1  0
 22 25  1  0
 23 24  1  0
 23 20  1  0
 24 22  2  0
 25 26  1  0
 26 27  2  0
 28 31  1  0
 28 27  1  0
 29 28  2  0
 30 29  1  0
 30 25  2  0
 31 32  1  0
 32 33  1  0
 33 34  2  0
 35 34  1  0
 35 39  1  0
 36 35  2  0
 37 32  2  0
 37 36  1  0
 38 37  1  0
 40 41  1  0
 41 44  1  0
 41 43  1  0
 42 40  2  0
 45 20  1  0
 45 46  1  0
 47 45  1  0
 48 49  1  0
 48 52  1  0
 49 51  1  0
 50 48  2  0
 53 52  1  0
 54 65  2  0
 55 53  1  0
 55 60  1  0
 56 64  1  0
 56 66  1  0
 57 63  1  0
 57 59  1  0
 58 64  1  0
 59 58  1  0
 60 59  2  0
 61 55  2  0
 62 61  1  0
 62 57  2  0
 63 56  1  0
 64 54  1  0
 66 68  2  0
 67 66  1  0
 69 67  1  0
 70 79  2  0
 70 75  1  0
 71 67  1  0
 71 75  1  0
 72 71  1  0
 73 74  1  0
 73 72  1  0
 74 70  1  0
 75 76  2  0
 76 77  1  0
 78 77  2  0
 79 78  1  0
 80 54  1  0
 80 81  1  0
 80 90  1  0
 81 84  1  0
 82 86  1  0
 82 81  1  0
 83 82  2  0
 86 85  1  0
 88 86  1  0
 88 89  1  0
 88 87  1  0
 90 93  1  1
 90 91  1  0
 92 90  1  0
M  ISO  4   6 100  16 100  52 101  53 101
M  END
>  <TORSDO>  (50) 
F 18

>  <SCORE>  (50) 
-12.949

>  <name>  (50) 
49

>  <ligand_id>  (50) 
49

>  <original_smiles>  (50) 
[H]c1oc(C(N([H])C(=O)N2C([H])([H])C([H])([H])C([H])([H])C([H])(n3nc(-c4c([H])c([H])c(Oc5c([H])c([H])c(F)c([H])c5F)c([H])c4[H])c(C(=O)N([H])[H])c3N([H])[H])C2([H])[H])=[N+]([H])C([H])([H])[H])c([H])c1N([H])C(=O)C([H])([H])Oc1c([H])c([H])c2c(c1[H])C([H])([H])N(C(=O)C([H])(N([H])C(=O)C([H])(N([H])C([H])([H])[H])C([H])([H])[H])C(C([H])([H])[H])(C([H])([H])[H])C([H])([H])[H])C([H])(C(=O)N([H])C1([H])c3c([H])c([H])c([H])c([H])c3C([H])([H])C([H])([H])C1([H])[H])C2([H])[H]

>  <smiles>  (50) 
[H]c1oc(C(N([H])C(=O)N2C([H])([H])C([H])([H])C([H])([H])C([H])(n3nc(-c4c([H])c([H])c(Oc5c([H])c([H])c(F)c([H])c5F)c([H])c4[H])c(C(=O)N([H])[H])c3N([H])[H])C2([H])[H])=[N+]([H])C([H])([H])[H])c([H])c1N([H])C(=O)C([H])([H])Oc1c([H])c([H])c2c(c1[H])C([H])([H])N(C(=O)C([H])(N([H])C(=O)C([H])(N([H])C([H])([H])[H])C([H])([H])[H])C(C([H])([H])[H])(C([H])([H])[H])C([H])([H])[H])C([H])(C(=O)N([H])C1([H])c3c([H])c([H])c([H])c([H])c3C([H])([H])C([H])([H])C1([H])[H])C2([H])[H]

$$$$
50:0:0
     RDKit          3D

 95104  0  0  1  0  0  0  0  0999 V2000
  -30.8250  -14.8040   20.2350 C   0  0  0  0  0  0  0  0  0  0  0  0
  -30.5550  -12.5090   19.2600 C   0  0  0  0  0  2  0  0  0  0  0  0
  -29.6100  -12.5900   18.0390 C   0  0  0  0  0  2  0  0  0  0  0  0
  -28.1390  -12.4570   18.4830 C   0  0  0  0  0  2  0  0  0  0  0  0
  -27.8030  -13.3720   19.6950 C   0  0  0  0  0  3  0  0  0  0  0  0
  -28.8690  -13.2620   20.8050 C   0  0  0  0  0  2  0  0  0  0  0  0
  -30.1690  -13.5860   20.2040 N   0  0  0  0  0  0  0  0  0  0  0  0
  -31.9540  -14.8870   19.7390 O   0  0  0  0  0  0  0  0  0  0  0  0
  -29.5780  -19.9110   19.7790 C   0  0  0  0  0  3  0  0  0  0  0  0
  -30.2720  -21.2230   21.6910 C   0  0  0  0  0  3  0  0  0  0  0  0
  -29.9950  -18.6700   20.4190 C   0  0  0  0  0  0  0  0  0  0  0  0
  -30.4900  -18.7560   21.7380 C   0  0  0  0  0  0  0  0  0  0  0  0
  -29.6930  -21.2230   20.4010 C   0  0  0  0  0  0  0  0  0  0  0  0
  -30.6560  -20.0300   22.3490 C   0  0  0  0  0  0  0  0  0  0  0  0
  -30.8170  -17.4550   22.4760 C   0  0  0  0  0  2  0  0  0  0  0  0
  -29.9560  -17.2250   19.7490 C   0  0  0  0  0  2  0  0  0  0  0  0
  -29.9420  -16.2610   22.0200 C   0  0  0  0  0  2  0  0  0  0  0  0
  -30.1230  -15.9570   20.5930 N   0  0  0  0  0  0  0  0  0  0  0  0
  -25.4630  -14.0430   20.5050 C   0  0  0  0  0  0  0  0  0  0  0  0
  -24.3710  -13.3060   20.8710 C   0  0  0  0  0  0  0  0  0  0  0  0
  -24.7690  -11.9380   20.7730 C   0  0  0  0  0  0  0  0  0  0  0  0
  -26.4570  -13.1280   20.2050 N   0  0  0  0  0  0  0  0  0  0  0  0
  -26.0490  -11.8530   20.4280 N   0  0  0  0  0  0  0  0  0  0  0  0
  -23.9880  -10.7030   20.9330 C   0  0  0  0  0  0  0  0  0  0  0  0
  -24.3960   -9.6790   21.8160 C   0  0  0  0  0  3  0  0  0  0  0  0
  -23.6180   -8.5090   21.9640 C   0  0  0  0  0  3  0  0  0  0  0  0
  -22.4160   -8.3590   21.2330 C   0  0  0  0  0  0  0  0  0  0  0  0
  -22.0270   -9.3710   20.3380 C   0  0  0  0  0  3  0  0  0  0  0  0
  -22.8060  -10.5300   20.1870 C   0  0  0  0  0  3  0  0  0  0  0  0
  -21.6080   -7.2490   21.2950 O   0  0  0  0  0  0  0  0  0  0  0  0
  -21.5490   -6.4640   22.4190 C   0  0  0  0  0  0  0  0  0  0  0  0
  -21.1640   -6.9850   23.6740 C   0  0  0  0  0  3  0  0  0  0  0  0
  -21.0520   -6.1270   24.7860 C   0  0  0  0  0  3  0  0  0  0  0  0
  -21.3150   -4.7500   24.6430 C   0  0  0  0  0  0  0  0  0  0  0  0
  -21.6910   -4.2310   23.3930 C   0  0  0  0  0  3  0  0  0  0  0  0
  -21.8060   -5.0850   22.2840 C   0  0  0  0  0  0  0  0  0  0  0  0
  -22.1470   -4.5760   21.0750 F   0  0  0  0  0  0  0  0  0  0  0  0
  -21.2010   -3.9240   25.7090 F   0  0  0  0  0  0  0  0  0  0  0  0
  -23.0060  -13.8360   21.2020 C   0  0  0  0  0  0  0  0  0  0  0  0
  -22.2750  -13.1500   22.0740 N   0  0  0  0  0  0  0  0  0  0  0  0
  -22.5950  -14.8920   20.7200 O   0  0  0  0  0  0  0  0  0  0  0  0
  -22.6190  -12.2960   22.4870 H   0  0  0  0  0  0  0  0  0  0  0  0
  -21.3570  -13.4870   22.3330 H   0  0  0  0  0  0  0  0  0  0  0  0
  -25.6870  -15.4120   20.3810 N   0  0  0  0  0  0  0  0  0  0  0  0
  -24.9620  -16.1000   20.5580 H   0  0  0  0  0  0  0  0  0  0  0  0
  -26.5610  -15.8280   20.0820 H   0  0  0  0  0  0  0  0  0  0  0  0
  -29.3450  -23.8360   20.1590 C   0  0  0  0  0  0  0  0  0  0  0  0
  -29.1730  -22.4950   19.8130 N   0  0  0  0  0  0  0  0  0  0  0  0
  -30.2460  -24.1940   20.9250 O   0  0  0  0  0  0  0  0  0  0  0  0
  -28.5060  -22.3610   19.0640 H   0  0  0  0  0  0  0  0  0  0  0  0
  -28.3830  -24.9680   19.5510 C   0  0  0  0  0  2  0  0  0  0  0  0
  -28.5720  -26.4170   19.9430 O   0  0  0  0  0  0  0  0  0  0  0  0
  -24.5790  -31.6290   23.0790 C   0  0  0  0  0  0  0  0  0  0  0  0
  -27.4450  -27.2820   19.8850 C   0  0  0  0  0  0  0  0  0  0  0  0
  -23.4730  -30.2460   21.3630 C   0  0  0  0  0  3  0  0  0  0  0  0
  -25.0180  -28.8300   19.8950 C   0  0  0  0  0  0  0  0  0  0  0  0
  -26.0030  -30.6750   21.2460 C   0  0  0  0  0  2  0  0  0  0  0  0
  -26.1580  -29.3290   20.5380 C   0  0  0  0  0  0  0  0  0  0  0  0
  -27.3740  -28.5690   20.5220 C   0  0  0  0  0  3  0  0  0  0  0  0
  -26.2760  -26.8630   19.2050 C   0  0  0  0  0  3  0  0  0  0  0  0
  -25.0820  -27.6070   19.2180 C   0  0  0  0  0  3  0  0  0  0  0  0
  -23.7420  -29.6460   19.9610 C   0  0  0  0  0  2  0  0  0  0  0  0
  -24.7030  -30.8670   21.9530 N   0  0  0  0  0  0  0  0  0  0  0  0
  -23.4740  -31.8320   23.6040 O   0  0  0  0  0  0  0  0  0  0  0  0
  -22.8410  -29.1590   22.2660 C   0  0  0  0  0  0  0  0  0  0  0  0
  -21.5190  -28.9550   22.1370 N   0  0  0  0  0  0  0  0  0  0  0  0
  -23.5400  -28.5060   23.0470 O   0  0  0  0  0  0  0  0  0  0  0  0
  -21.0120  -29.5310   21.4800 H   0  0  0  0  0  0  0  0  0  0  0  0
  -18.1710  -27.6720   22.6320 C   0  0  0  0  0  0  0  0  0  0  0  0
  -20.7320  -27.9530   22.8590 C   0  0  0  0  0  3  0  0  0  0  0  0
  -20.8400  -26.5660   22.1830 C   0  0  0  0  0  2  0  0  0  0  0  0
  -19.7170  -26.2980   21.1750 C   0  0  0  0  0  2  0  0  0  0  0  0
  -18.3490  -26.3780   21.8580 C   0  0  0  0  0  2  0  0  0  0  0  0
  -19.2890  -28.4200   23.0900 C   0  0  0  0  0  0  0  0  0  0  0  0
  -19.0680  -29.6330   23.7770 C   0  0  0  0  0  3  0  0  0  0  0  0
  -17.7600  -30.1020   24.0080 C   0  0  0  0  0  3  0  0  0  0  0  0
  -16.6570  -29.3500   23.5690 C   0  0  0  0  0  3  0  0  0  0  0  0
  -16.8620  -28.1370   22.8890 C   0  0  0  0  0  3  0  0  0  0  0  0
  -25.8170  -32.2980   23.7510 C   0  0  0  0  0  3  0  0  0  0  0  0
  -25.4450  -33.6770   24.0980 N   0  0  0  0  0  0  0  0  0  0  0  0
  -25.7420  -34.7560   23.3620 C   0  0  0  0  0  0  0  0  0  0  0  0
  -26.4300  -34.6990   22.3410 O   0  0  0  0  0  0  0  0  0  0  0  0
  -24.8320  -33.7920   24.8930 H   0  0  0  0  0  0  0  0  0  0  0  0
  -23.9370  -36.4750   23.0180 C   0  0  0  0  0  1  0  0  0  0  0  0
  -25.1890  -36.1160   23.8350 C   0  0  0  0  0  3  0  0  0  0  0  0
  -27.2820  -37.0760   24.6880 C   0  0  0  0  0  1  0  0  0  0  0  0
  -26.1690  -37.2200   23.7520 N   0  0  0  0  0  0  0  0  0  0  0  0
  -25.7200  -38.1120   23.9370 H   0  0  0  0  0  0  0  0  0  0  0  0
  -26.3200  -31.5230   25.0300 C   0  0  1  0  0  0  0  0  0  0  0  0
  -25.2060  -31.2380   26.0660 C   0  0  0  0  0  1  0  0  0  0  0  0
  -26.9530  -30.1670   24.6400 C   0  0  0  0  0  1  0  0  0  0  0  0
  -27.4320  -32.3390   25.7330 C   0  0  0  0  0  1  0  0  0  0  0  0
  -31.1970  -20.1350   23.6300 N   0  0  0  0  0  0  0  0  0  0  0  0
  -31.5330  -21.0440   23.9370 H   0  0  0  0  0  0  0  0  0  0  0  0
  -31.7590  -19.3690   23.9800 H   0  0  0  0  0  0  0  0  0  0  0  0
  1 18  1  0
  2  7  1  0
  3  4  1  0
  3  2  1  0
  5  4  1  0
  5 22  1  0
  5  6  1  0
  7  1  1  0
  7  6  1  0
  8  1  2  0
  9 13  2  0
  9 11  1  0
 10 14  2  0
 11 12  2  0
 12 14  1  0
 12 15  1  0
 13 10  1  0
 14 93  1  0
 16 11  1  0
 16 18  1  0
 17 15  1  0
 18 17  1  0
 19 20  2  0
 20 39  1  0
 21 20  1  0
 21 24  1  0
 22 23  1  0
 22 19  1  0
 23 21  2  0
 24 25  1  0
 25 26  2  0
 27 30  1  0
 27 26  1  0
 28 27  2  0
 29 28  1  0
 29 24  2  0
 30 31  1  0
 31 32  1  0
 32 33  2  0
 34 33  1  0
 34 38  1  0
 35 34  2  0
 36 31  2  0
 36 35  1  0
 37 36  1  0
 39 40  1  0
 40 43  1  0
 40 42  1  0
 41 39  2  0
 44 19  1  0
 44 45  1  0
 46 44  1  0
 47 49  2  0
 48 47  1  0
 48 13  1  0
 50 48  1  0
 51 52  1  0
 51 47  1  0
 53 64  2  0
 54 52  1  0
 54 59  1  0
 55 63  1  0
 55 65  1  0
 56 62  1  0
 56 58  1  0
 57 63  1  0
 58 57  1  0
 59 58  2  0
 60 61  1  0
 60 54  2  0
 61 56  2  0
 62 55  1  0
 63 53  1  0
 65 67  2  0
 66 65  1  0
 68 66  1  0
 69 78  2  0
 69 74  1  0
 70 66  1  0
 70 74  1  0
 71 70  1  0
 72 73  1  0
 72 71  1  0
 73 69  1  0
 74 75  2  0
 75 76  1  0
 77 76  2  0
 78 77  1  0
 79 53  1  0
 79 80  1  0
 79 89  1  0
 80 83  1  0
 81 85  1  0
 81 80  1  0
 82 81  2  0
 85 84  1  0
 87 85  1  0
 87 88  1  0
 87 86  1  0
 89 92  1  1
 89 90  1  0
 91 89  1  0
 93 94  1  0
 93 95  1  0
M  ISO  4   1 100  18 100  51 101  52 101
M  END
>  <TORSDO>  (51) 
F 18

>  <SCORE>  (51) 
-14.178

>  <name>  (51) 
50

>  <ligand_id>  (51) 
50

>  <original_smiles>  (51) 
[H]c1c([H])c([H])c2c(c1[H])C([H])([H])C([H])([H])C([H])([H])C2([H])N([H])C(=O)C1([H])N(C(=O)C([H])(N([H])C(=O)C([H])(N([H])C([H])([H])[H])C([H])([H])[H])C(C([H])([H])[H])(C([H])([H])[H])C([H])([H])[H])C([H])([H])c2c([H])c(OC([H])([H])C(=O)N([H])c3c([H])c(N([H])[H])c4c(c3[H])C([H])([H])N(C(=O)N3C([H])([H])C([H])([H])C([H])([H])C([H])(n5nc(-c6c([H])c([H])c(Oc7c([H])c([H])c(F)c([H])c7F)c([H])c6[H])c(C(=O)N([H])[H])c5N([H])[H])C3([H])[H])C([H])([H])C4([H])[H])c([H])c([H])c2C1([H])[H]

>  <smiles>  (51) 
[H]c1c([H])c([H])c2c(c1[H])C([H])([H])C([H])([H])C([H])([H])C2([H])N([H])C(=O)C1([H])N(C(=O)C([H])(N([H])C(=O)C([H])(N([H])C([H])([H])[H])C([H])([H])[H])C(C([H])([H])[H])(C([H])([H])[H])C([H])([H])[H])C([H])([H])c2c([H])c(OC([H])([H])C(=O)N([H])c3c([H])c(N([H])[H])c4c(c3[H])C([H])([H])N(C(=O)N3C([H])([H])C([H])([H])C([H])([H])C([H])(n5nc(-c6c([H])c([H])c(Oc7c([H])c([H])c(F)c([H])c7F)c([H])c6[H])c(C(=O)N([H])[H])c5N([H])[H])C3([H])[H])C([H])([H])C4([H])[H])c([H])c([H])c2C1([H])[H]

$$$$
51:0:0
     RDKit          3D

 92100  0  0  1  0  0  0  0  0999 V2000
  -28.9070  -22.7870   19.9230 C   0  0  0  0  0  0  0  0  0  0  0  0
  -29.3440  -21.7740   20.7090 N   0  0  0  0  0  0  0  0  0  0  0  0
  -28.2590  -22.5890   18.8920 O   0  0  0  0  0  0  0  0  0  0  0  0
  -29.9400  -22.0480   21.4800 H   0  0  0  0  0  0  0  0  0  0  0  0
  -30.0790  -19.4090   21.0800 C   0  0  0  0  0  3  0  0  0  0  0  0
  -28.1260  -19.7680   19.8440 C   0  0  0  0  0  3  0  0  0  0  0  0
  -29.1600  -20.3600   20.5310 C   0  0  0  0  0  0  0  0  0  0  0  0
  -29.7840  -18.1030   20.7420 C   0  0  0  0  0  0  0  0  0  0  0  0
  -28.3060  -18.0270   19.8040 S   0  0  0  0  0  0  0  0  0  0  0  0
  -30.7220  -14.5400   20.3230 C   0  0  0  0  0  0  0  0  0  0  0  0
  -30.3450  -12.3760   19.1970 C   0  0  0  0  0  2  0  0  0  0  0  0
  -29.3820  -12.5600   18.0090 C   0  0  0  0  0  2  0  0  0  0  0  0
  -27.9190  -12.4320   18.4730 C   0  0  0  0  0  2  0  0  0  0  0  0
  -27.6080  -13.2800   19.7360 C   0  0  0  0  0  3  0  0  0  0  0  0
  -28.6940  -13.1060   20.8220 C   0  0  0  0  0  2  0  0  0  0  0  0
  -29.9960  -13.3930   20.2020 N   0  0  0  0  0  0  0  0  0  0  0  0
  -31.8760  -14.6040   19.8930 O   0  0  0  0  0  0  0  0  0  0  0  0
  -30.5990  -16.8680   20.9390 C   0  0  0  0  0  0  0  0  0  0  0  0
  -30.0480  -15.6490   20.7160 N   0  0  0  0  0  0  0  0  0  0  0  0
  -31.7690  -17.0240   21.3060 O   0  0  0  0  0  0  0  0  0  0  0  0
  -29.0440  -15.5970   20.7250 H   0  0  0  0  0  0  0  0  0  0  0  0
  -25.2370  -13.8720   20.5360 C   0  0  0  0  0  0  0  0  0  0  0  0
  -24.1800  -13.0950   20.9240 C   0  0  0  0  0  0  0  0  0  0  0  0
  -24.6370  -11.7430   20.8560 C   0  0  0  0  0  0  0  0  0  0  0  0
  -26.2720  -12.9950   20.2570 N   0  0  0  0  0  0  0  0  0  0  0  0
  -25.9170  -11.7070   20.5090 N   0  0  0  0  0  0  0  0  0  0  0  0
  -23.9110  -10.4800   21.0420 C   0  0  0  0  0  0  0  0  0  0  0  0
  -24.3490   -9.5050   21.9670 C   0  0  0  0  0  3  0  0  0  0  0  0
  -23.6240   -8.3080   22.1430 C   0  0  0  0  0  3  0  0  0  0  0  0
  -22.4470   -8.0740   21.3930 C   0  0  0  0  0  0  0  0  0  0  0  0
  -22.0290   -9.0370   20.4560 C   0  0  0  0  0  3  0  0  0  0  0  0
  -22.7550  -10.2260   20.2790 C   0  0  0  0  0  3  0  0  0  0  0  0
  -21.6910   -6.9310   21.4800 O   0  0  0  0  0  0  0  0  0  0  0  0
  -21.6280   -6.1960   22.6370 C   0  0  0  0  0  0  0  0  0  0  0  0
  -21.1450   -6.7470   23.8430 C   0  0  0  0  0  3  0  0  0  0  0  0
  -21.0300   -5.9360   24.9910 C   0  0  0  0  0  3  0  0  0  0  0  0
  -21.3880   -4.5770   24.9330 C   0  0  0  0  0  0  0  0  0  0  0  0
  -21.8630   -4.0250   23.7300 C   0  0  0  0  0  3  0  0  0  0  0  0
  -21.9790   -4.8320   22.5850 C   0  0  0  0  0  0  0  0  0  0  0  0
  -22.4190   -4.2900   21.4230 F   0  0  0  0  0  0  0  0  0  0  0  0
  -21.2700   -3.7960   26.0320 F   0  0  0  0  0  0  0  0  0  0  0  0
  -22.7920  -13.5710   21.2430 C   0  0  0  0  0  0  0  0  0  0  0  0
  -22.0870  -12.8640   22.1200 N   0  0  0  0  0  0  0  0  0  0  0  0
  -22.3420  -14.6050   20.7510 O   0  0  0  0  0  0  0  0  0  0  0  0
  -22.4660  -12.0300   22.5440 H   0  0  0  0  0  0  0  0  0  0  0  0
  -21.1550  -13.1620   22.3720 H   0  0  0  0  0  0  0  0  0  0  0  0
  -25.4010  -15.2450   20.3750 N   0  0  0  0  0  0  0  0  0  0  0  0
  -24.6380  -15.9000   20.5090 H   0  0  0  0  0  0  0  0  0  0  0  0
  -26.2340  -15.6820   20.0010 H   0  0  0  0  0  0  0  0  0  0  0  0
  -29.2500  -24.2460   20.3290 C   0  0  0  0  0  2  0  0  0  0  0  0
  -28.1770  -25.2600   19.8440 C   0  0  0  0  0  2  0  0  0  0  0  0
  -28.3430  -26.6530   20.2150 O   0  0  0  0  0  0  0  0  0  0  0  0
  -24.5750  -31.9120   23.2600 C   0  0  0  0  0  0  0  0  0  0  0  0
  -27.1990  -27.4430   20.1630 C   0  0  0  0  0  0  0  0  0  0  0  0
  -23.3730  -30.5300   21.6040 C   0  0  0  0  0  3  0  0  0  0  0  0
  -24.8240  -29.0040   20.1710 C   0  0  0  0  0  0  0  0  0  0  0  0
  -25.9080  -30.8640   21.4310 C   0  0  0  0  0  2  0  0  0  0  0  0
  -25.9870  -29.4990   20.7730 C   0  0  0  0  0  0  0  0  0  0  0  0
  -27.1770  -28.7260   20.7700 C   0  0  0  0  0  3  0  0  0  0  0  0
  -26.0130  -26.9900   19.5310 C   0  0  0  0  0  3  0  0  0  0  0  0
  -24.8340  -27.7500   19.5460 C   0  0  0  0  0  3  0  0  0  0  0  0
  -23.5880  -29.8720   20.2180 C   0  0  0  0  0  2  0  0  0  0  0  0
  -24.6370  -31.1170   22.1550 N   0  0  0  0  0  0  0  0  0  0  0  0
  -23.4920  -32.1870   23.7940 O   0  0  0  0  0  0  0  0  0  0  0  0
  -22.7120  -29.5000   22.5500 C   0  0  0  0  0  0  0  0  0  0  0  0
  -21.3870  -29.3240   22.4130 N   0  0  0  0  0  0  0  0  0  0  0  0
  -23.3870  -28.8660   23.3640 O   0  0  0  0  0  0  0  0  0  0  0  0
  -20.9030  -29.8910   21.7300 H   0  0  0  0  0  0  0  0  0  0  0  0
  -17.9980  -28.1660   22.9060 C   0  0  0  0  0  0  0  0  0  0  0  0
  -20.5610  -28.3860   23.1720 C   0  0  0  0  0  3  0  0  0  0  0  0
  -20.6430  -26.9630   22.5720 C   0  0  0  0  0  2  0  0  0  0  0  0
  -19.5330  -26.6700   21.5580 C   0  0  0  0  0  2  0  0  0  0  0  0
  -18.1540  -26.8240   22.2100 C   0  0  0  0  0  2  0  0  0  0  0  0
  -19.1290  -28.9060   23.3430 C   0  0  0  0  0  0  0  0  0  0  0  0
  -18.9310  -30.1630   23.9540 C   0  0  0  0  0  3  0  0  0  0  0  0
  -17.6340  -30.6800   24.1330 C   0  0  0  0  0  3  0  0  0  0  0  0
  -16.5170  -29.9370   23.7130 C   0  0  0  0  0  3  0  0  0  0  0  0
  -16.7000  -28.6810   23.1060 C   0  0  0  0  0  3  0  0  0  0  0  0
  -25.8600  -32.5340   23.8910 C   0  0  0  0  0  3  0  0  0  0  0  0
  -26.3660  -31.7560   25.1670 C   0  0  1  0  0  0  0  0  0  0  0  0
  -25.2650  -31.5160   26.2250 C   0  0  0  0  0  1  0  0  0  0  0  0
  -26.9500  -30.3800   24.7740 C   0  0  0  0  0  1  0  0  0  0  0  0
  -27.5090  -32.5490   25.8440 C   0  0  0  0  0  1  0  0  0  0  0  0
  -25.5560  -33.9340   24.2210 N   0  0  0  0  0  0  0  0  0  0  0  0
  -25.8770  -34.9830   23.4530 C   0  0  0  0  0  0  0  0  0  0  0  0
  -26.5320  -34.8760   22.4120 O   0  0  0  0  0  0  0  0  0  0  0  0
  -24.9770  -34.0920   25.0320 H   0  0  0  0  0  0  0  0  0  0  0  0
  -24.1380  -36.7700   23.1230 C   0  0  0  0  0  1  0  0  0  0  0  0
  -25.3950  -36.3720   23.9130 C   0  0  0  0  0  3  0  0  0  0  0  0
  -27.5380  -37.2710   24.7060 C   0  0  0  0  0  1  0  0  0  0  0  0
  -26.4220  -37.4270   23.7760 N   0  0  0  0  0  0  0  0  0  0  0  0
  -26.0150  -38.3460   23.9210 H   0  0  0  0  0  0  0  0  0  0  0  0
  1 50  1  0
  1  2  1  0
  2  4  1  0
  3  1  2  0
  6  7  2  0
  7  2  1  0
  7  5  1  0
  8 18  1  0
  8  5  2  0
  9  6  1  0
  9  8  1  0
 10 19  1  0
 11 16  1  0
 12 13  1  0
 12 11  1  0
 14 13  1  0
 14 25  1  0
 14 15  1  0
 16 10  1  0
 16 15  1  0
 17 10  2  0
 18 20  2  0
 19 21  1  0
 19 18  1  0
 22 23  2  0
 23 42  1  0
 24 23  1  0
 24 27  1  0
 25 26  1  0
 25 22  1  0
 26 24  2  0
 27 28  1  0
 28 29  2  0
 30 33  1  0
 30 29  1  0
 31 30  2  0
 32 31  1  0
 32 27  2  0
 33 34  1  0
 34 35  1  0
 35 36  2  0
 37 36  1  0
 37 41  1  0
 38 37  2  0
 39 34  2  0
 39 38  1  0
 40 39  1  0
 42 43  1  0
 43 46  1  0
 43 45  1  0
 44 42  2  0
 47 48  1  0
 47 22  1  0
 49 47  1  0
 51 52  1  0
 51 50  1  0
 53 64  2  0
 54 52  1  0
 54 59  1  0
 55 63  1  0
 55 65  1  0
 56 62  1  0
 56 58  1  0
 57 63  1  0
 58 57  1  0
 59 58  2  0
 60 61  1  0
 60 54  2  0
 61 56  2  0
 62 55  1  0
 63 53  1  0
 65 67  2  0
 66 65  1  0
 68 66  1  0
 69 78  2  0
 69 74  1  0
 70 66  1  0
 70 74  1  0
 71 70  1  0
 72 73  1  0
 72 71  1  0
 73 69  1  0
 74 75  2  0
 75 76  1  0
 77 76  2  0
 78 77  1  0
 79 53  1  0
 79 84  1  0
 79 80  1  0
 80 83  1  1
 80 81  1  0
 82 80  1  0
 84 87  1  0
 85 89  1  0
 85 84  1  0
 86 85  2  0
 89 88  1  0
 91 89  1  0
 91 92  1  0
 91 90  1  0
M  ISO  4  10 100  19 100  51 101  52 101
M  END
>  <TORSDO>  (52) 
F 19

>  <SCORE>  (52) 
-14.495

>  <name>  (52) 
51

>  <ligand_id>  (52) 
51

>  <original_smiles>  (52) 
[H]c1sc(C(=O)N([H])C(=O)N2C([H])([H])C([H])([H])C([H])([H])C([H])(n3nc(-c4c([H])c([H])c(Oc5c([H])c([H])c(F)c([H])c5F)c([H])c4[H])c(C(=O)N([H])[H])c3N([H])[H])C2([H])[H])c([H])c1N([H])C(=O)C([H])([H])C([H])([H])Oc1c([H])c([H])c2c(c1[H])C([H])([H])N(C(=O)C([H])(N([H])C(=O)C([H])(N([H])C([H])([H])[H])C([H])([H])[H])C(C([H])([H])[H])(C([H])([H])[H])C([H])([H])[H])C([H])(C(=O)N([H])C1([H])c3c([H])c([H])c([H])c([H])c3C([H])([H])C([H])([H])C1([H])[H])C2([H])[H]

>  <smiles>  (52) 
[H]c1sc(C(=O)N([H])C(=O)N2C([H])([H])C([H])([H])C([H])([H])C([H])(n3nc(-c4c([H])c([H])c(Oc5c([H])c([H])c(F)c([H])c5F)c([H])c4[H])c(C(=O)N([H])[H])c3N([H])[H])C2([H])[H])c([H])c1N([H])C(=O)C([H])([H])C([H])([H])Oc1c([H])c([H])c2c(c1[H])C([H])([H])N(C(=O)C([H])(N([H])C(=O)C([H])(N([H])C([H])([H])[H])C([H])([H])[H])C(C([H])([H])[H])(C([H])([H])[H])C([H])([H])[H])C([H])(C(=O)N([H])C1([H])c3c([H])c([H])c([H])c([H])c3C([H])([H])C([H])([H])C1([H])[H])C2([H])[H]

$$$$
52:0:0
     RDKit          3D

 95104  0  0  1  0  0  0  0  0999 V2000
  -28.9150  -24.2180   20.8910 C   0  0  0  0  0  0  0  0  0  0  0  0
  -29.8460  -23.7620   19.7600 C   0  0  0  0  0  2  0  0  0  0  0  0
  -30.3260  -22.2800   19.8830 C   0  0  0  0  0  2  0  0  0  0  0  0
  -28.6560  -21.9380   21.6870 C   0  0  0  0  0  2  0  0  0  0  0  0
  -29.1850  -21.3450   20.3500 C   0  0  0  0  0  3  0  0  0  0  0  0
  -28.3480  -23.3810   21.6810 N   0  0  0  0  0  0  0  0  0  0  0  0
  -30.8150  -19.2870   20.5890 C   0  0  0  0  0  3  0  0  0  0  0  0
  -31.0740  -17.8850   20.6740 C   0  0  0  0  0  3  0  0  0  0  0  0
  -28.7060  -17.4650   20.4920 C   0  0  0  0  0  3  0  0  0  0  0  0
  -29.4980  -19.8090   20.4420 C   0  0  0  0  0  0  0  0  0  0  0  0
  -30.0130  -16.9450   20.6330 C   0  0  0  0  0  0  0  0  0  0  0  0
  -28.4460  -18.8540   20.3770 C   0  0  0  0  0  0  0  0  0  0  0  0
  -30.8600  -14.5740   20.1040 C   0  0  0  0  0  0  0  0  0  0  0  0
  -30.5550  -12.4180   18.9120 C   0  0  0  0  0  2  0  0  0  0  0  0
  -29.5350  -12.6370   17.7710 C   0  0  0  0  0  2  0  0  0  0  0  0
  -28.0860  -12.4890   18.2810 C   0  0  0  0  0  2  0  0  0  0  0  0
  -27.8270  -13.2910   19.5830 C   0  0  0  0  0  3  0  0  0  0  0  0
  -28.9420  -13.0130   20.6170 C   0  0  0  0  0  2  0  0  0  0  0  0
  -30.2330  -13.3630   19.9940 N   0  0  0  0  0  0  0  0  0  0  0  0
  -31.9500  -14.8080   19.5690 O   0  0  0  0  0  0  0  0  0  0  0  0
  -30.1340  -15.5090   20.7710 N   0  0  0  0  0  0  0  0  0  0  0  0
  -29.3400  -15.0830   21.2230 H   0  0  0  0  0  0  0  0  0  0  0  0
  -25.4990  -13.9130   20.4870 C   0  0  0  0  0  0  0  0  0  0  0  0
  -24.4350  -13.1470   20.8800 C   0  0  0  0  0  0  0  0  0  0  0  0
  -24.8510  -11.7880   20.7290 C   0  0  0  0  0  0  0  0  0  0  0  0
  -26.5000  -13.0210   20.1300 N   0  0  0  0  0  0  0  0  0  0  0  0
  -26.1150  -11.7350   20.3310 N   0  0  0  0  0  0  0  0  0  0  0  0
  -24.0990  -10.5360   20.8840 C   0  0  0  0  0  0  0  0  0  0  0  0
  -24.5060   -9.5390   21.7980 C   0  0  0  0  0  3  0  0  0  0  0  0
  -23.7580   -8.3520   21.9420 C   0  0  0  0  0  3  0  0  0  0  0  0
  -22.5880   -8.1530   21.1700 C   0  0  0  0  0  0  0  0  0  0  0  0
  -22.1990   -9.1380   20.2460 C   0  0  0  0  0  3  0  0  0  0  0  0
  -22.9490  -10.3170   20.1000 C   0  0  0  0  0  3  0  0  0  0  0  0
  -21.8120   -7.0190   21.2250 O   0  0  0  0  0  0  0  0  0  0  0  0
  -21.6600   -6.3060   22.3870 C   0  0  0  0  0  0  0  0  0  0  0  0
  -21.1340   -6.8950   23.5580 C   0  0  0  0  0  3  0  0  0  0  0  0
  -20.9290   -6.1090   24.7090 C   0  0  0  0  0  3  0  0  0  0  0  0
  -21.2390   -4.7360   24.6910 C   0  0  0  0  0  0  0  0  0  0  0  0
  -21.7590   -4.1470   23.5240 C   0  0  0  0  0  3  0  0  0  0  0  0
  -21.9650   -4.9310   22.3740 C   0  0  0  0  0  0  0  0  0  0  0  0
  -22.4450   -4.3540   21.2460 F   0  0  0  0  0  0  0  0  0  0  0  0
  -21.0360   -3.9790   25.7940 F   0  0  0  0  0  0  0  0  0  0  0  0
  -23.0740  -13.6420   21.2770 C   0  0  0  0  0  0  0  0  0  0  0  0
  -22.3890  -12.9160   22.1540 N   0  0  0  0  0  0  0  0  0  0  0  0
  -22.6290  -14.7050   20.8460 O   0  0  0  0  0  0  0  0  0  0  0  0
  -22.7620  -12.0540   22.5240 H   0  0  0  0  0  0  0  0  0  0  0  0
  -21.4790  -13.2260   22.4620 H   0  0  0  0  0  0  0  0  0  0  0  0
  -25.6930  -15.2870   20.3840 N   0  0  0  0  0  0  0  0  0  0  0  0
  -24.9420  -15.9460   20.5620 H   0  0  0  0  0  0  0  0  0  0  0  0
  -26.5030  -15.7150   19.9540 H   0  0  0  0  0  0  0  0  0  0  0  0
  -27.1210  -19.2520   20.1990 N   0  0  0  0  0  0  0  0  0  0  0  0
  -26.4330  -18.5590   19.9190 H   0  0  0  0  0  0  0  0  0  0  0  0
  -26.9260  -20.1760   19.8300 H   0  0  0  0  0  0  0  0  0  0  0  0
  -28.7090  -25.7510   21.1160 C   0  0  0  0  0  2  0  0  0  0  0  0
  -28.4620  -26.5820   19.9580 O   0  0  0  0  0  0  0  0  0  0  0  0
  -24.4420  -31.6930   23.0430 C   0  0  0  0  0  0  0  0  0  0  0  0
  -27.3000  -27.3350   19.9910 C   0  0  0  0  0  0  0  0  0  0  0  0
  -23.3200  -30.2560   21.3740 C   0  0  0  0  0  3  0  0  0  0  0  0
  -24.8560  -28.7780   19.9670 C   0  0  0  0  0  0  0  0  0  0  0  0
  -25.8370  -30.7000   21.2250 C   0  0  0  0  0  2  0  0  0  0  0  0
  -25.9870  -29.3320   20.5830 C   0  0  0  0  0  0  0  0  0  0  0  0
  -27.2140  -28.6180   20.5970 C   0  0  0  0  0  3  0  0  0  0  0  0
  -26.1560  -26.8070   19.3650 C   0  0  0  0  0  3  0  0  0  0  0  0
  -24.9370  -27.5150   19.3550 C   0  0  0  0  0  3  0  0  0  0  0  0
  -23.5800  -29.5920   19.9950 C   0  0  0  0  0  2  0  0  0  0  0  0
  -24.5500  -30.9000   21.9380 N   0  0  0  0  0  0  0  0  0  0  0  0
  -23.3420  -31.9220   23.5640 O   0  0  0  0  0  0  0  0  0  0  0  0
  -22.6880  -29.2080   22.3180 C   0  0  0  0  0  0  0  0  0  0  0  0
  -21.3660  -29.0010   22.1920 N   0  0  0  0  0  0  0  0  0  0  0  0
  -23.3850  -28.5820   23.1220 O   0  0  0  0  0  0  0  0  0  0  0  0
  -20.8640  -29.5600   21.5160 H   0  0  0  0  0  0  0  0  0  0  0  0
  -18.0110  -27.7610   22.7120 C   0  0  0  0  0  0  0  0  0  0  0  0
  -20.5710  -28.0340   22.9460 C   0  0  0  0  0  3  0  0  0  0  0  0
  -20.6750  -26.6220   22.3250 C   0  0  0  0  0  2  0  0  0  0  0  0
  -19.5570  -26.3210   21.3210 C   0  0  0  0  0  2  0  0  0  0  0  0
  -18.1860  -26.4350   21.9930 C   0  0  0  0  0  2  0  0  0  0  0  0
  -19.1310  -28.5190   23.1460 C   0  0  0  0  0  0  0  0  0  0  0  0
  -18.9120  -29.7620   23.7800 C   0  0  0  0  0  3  0  0  0  0  0  0
  -17.6060  -30.2480   23.9830 C   0  0  0  0  0  3  0  0  0  0  0  0
  -16.5020  -29.4860   23.5650 C   0  0  0  0  0  3  0  0  0  0  0  0
  -16.7050  -28.2450   22.9360 C   0  0  0  0  0  3  0  0  0  0  0  0
  -25.6920  -32.3700   23.6880 C   0  0  0  0  0  3  0  0  0  0  0  0
  -26.2320  -31.5990   24.9540 C   0  0  1  0  0  0  0  0  0  0  0  0
  -25.1400  -31.2920   26.0070 C   0  0  0  0  0  1  0  0  0  0  0  0
  -26.8800  -30.2570   24.5420 C   0  0  0  0  0  1  0  0  0  0  0  0
  -27.3390  -32.4330   25.6430 C   0  0  0  0  0  1  0  0  0  0  0  0
  -25.3180  -33.7470   24.0380 N   0  0  0  0  0  0  0  0  0  0  0  0
  -25.6110  -34.8260   23.2990 C   0  0  0  0  0  0  0  0  0  0  0  0
  -26.2930  -34.7690   22.2720 O   0  0  0  0  0  0  0  0  0  0  0  0
  -24.7110  -33.8620   24.8350 H   0  0  0  0  0  0  0  0  0  0  0  0
  -23.8050  -36.5440   22.9610 C   0  0  0  0  0  1  0  0  0  0  0  0
  -25.0590  -36.1840   23.7740 C   0  0  0  0  0  3  0  0  0  0  0  0
  -27.1430  -37.1540   24.6350 C   0  0  0  0  0  1  0  0  0  0  0  0
  -26.0430  -37.2840   23.6830 N   0  0  0  0  0  0  0  0  0  0  0  0
  -25.5940  -38.1830   23.8380 H   0  0  0  0  0  0  0  0  0  0  0  0
  1 54  1  0
  1  6  2  0
  2  3  1  0
  2  1  1  0
  3  5  1  0
  5 10  1  0
  5  4  1  0
  6  4  1  0
  7  8  1  0
  9 11  1  0
 10  7  2  0
 11  8  2  0
 11 21  1  0
 12 10  1  0
 12  9  2  0
 13 21  1  0
 14 19  1  0
 15 16  1  0
 15 14  1  0
 17 16  1  0
 17 26  1  0
 17 18  1  0
 19 13  1  0
 19 18  1  0
 20 13  2  0
 21 22  1  0
 23 24  2  0
 24 43  1  0
 25 24  1  0
 25 28  1  0
 26 27  1  0
 26 23  1  0
 27 25  2  0
 28 29  1  0
 29 30  2  0
 31 34  1  0
 31 30  1  0
 32 31  2  0
 33 32  1  0
 33 28  2  0
 34 35  1  0
 35 36  1  0
 36 37  2  0
 38 37  1  0
 38 42  1  0
 39 38  2  0
 40 35  2  0
 40 39  1  0
 41 40  1  0
 43 44  1  0
 44 47  1  0
 44 46  1  0
 45 43  2  0
 48 23  1  0
 48 49  1  0
 50 48  1  0
 51 12  1  0
 52 51  1  0
 53 51  1  0
 55 57  1  0
 55 54  1  0
 56 67  2  0
 57 62  1  0
 58 66  1  0
 58 68  1  0
 59 65  1  0
 59 61  1  0
 60 66  1  0
 61 62  2  0
 61 60  1  0
 63 57  2  0
 64 63  1  0
 64 59  2  0
 65 58  1  0
 66 56  1  0
 68 70  2  0
 69 68  1  0
 71 69  1  0
 72 81  2  0
 72 77  1  0
 73 69  1  0
 73 77  1  0
 74 73  1  0
 75 76  1  0
 75 74  1  0
 76 72  1  0
 77 78  2  0
 78 79  1  0
 80 79  2  0
 81 80  1  0
 82 56  1  0
 82 87  1  0
 82 83  1  0
 83 86  1  1
 83 84  1  0
 85 83  1  0
 87 90  1  0
 88 92  1  0
 88 87  1  0
 89 88  2  0
 92 91  1  0
 94 92  1  0
 94 95  1  0
 94 93  1  0
M  ISO  4  13 100  21 100  54 101  55 101
M  END
>  <TORSDO>  (53) 
F 19

>  <SCORE>  (53) 
-14.274

>  <name>  (53) 
52

>  <ligand_id>  (53) 
52

>  <original_smiles>  (53) 
[H]c1c([H])c([H])c2c(c1[H])C([H])([H])C([H])([H])C([H])([H])C2([H])N([H])C(=O)C1([H])N(C(=O)C([H])(N([H])C(=O)C([H])(N([H])C([H])([H])[H])C([H])([H])[H])C(C([H])([H])[H])(C([H])([H])[H])C([H])([H])[H])C([H])([H])c2c([H])c(OC([H])([H])C3=NC([H])([H])C([H])(c4c([H])c([H])c(N([H])C(=O)N5C([H])([H])C([H])([H])C([H])([H])C([H])(n6nc(-c7c([H])c([H])c(Oc8c([H])c([H])c(F)c([H])c8F)c([H])c7[H])c(C(=O)N([H])[H])c6N([H])[H])C5([H])[H])c([H])c4N([H])[H])C([H])([H])C3([H])[H])c([H])c([H])c2C1([H])[H]

>  <smiles>  (53) 
[H]c1c([H])c([H])c2c(c1[H])C([H])([H])C([H])([H])C([H])([H])C2([H])N([H])C(=O)C1([H])N(C(=O)C([H])(N([H])C(=O)C([H])(N([H])C([H])([H])[H])C([H])([H])[H])C(C([H])([H])[H])(C([H])([H])[H])C([H])([H])[H])C([H])([H])c2c([H])c(OC([H])([H])C3=NC([H])([H])C([H])(c4c([H])c([H])c(N([H])C(=O)N5C([H])([H])C([H])([H])C([H])([H])C([H])(n6nc(-c7c([H])c([H])c(Oc8c([H])c([H])c(F)c([H])c8F)c([H])c7[H])c(C(=O)N([H])[H])c6N([H])[H])C5([H])[H])c([H])c4N([H])[H])C([H])([H])C3([H])[H])c([H])c([H])c2C1([H])[H]

$$$$
53:0:0
     RDKit          3D

 93101  0  0  1  0  0  0  0  0999 V2000
  -29.9160  -20.2030   20.9790 C   0  0  0  0  0  3  0  0  0  0  0  0
  -29.5720  -18.8680   20.4720 C   0  0  0  0  0  0  0  0  0  0  0  0
  -28.4420  -19.1600   19.7210 C   0  0  0  0  0  0  0  0  0  0  0  0
  -29.0490  -21.1810   20.4880 C   0  0  0  0  0  0  0  0  0  0  0  0
  -28.1420  -20.5270   19.7110 O   0  0  0  0  0  0  0  0  0  0  0  0
  -28.4830  -23.6910   20.1990 C   0  0  0  0  0  0  0  0  0  0  0  0
  -29.0010  -22.5540   20.8260 N   0  0  0  0  0  0  0  0  0  0  0  0
  -28.1420  -23.6540   19.0130 O   0  0  0  0  0  0  0  0  0  0  0  0
  -29.3890  -22.7590   21.7360 H   0  0  0  0  0  0  0  0  0  0  0  0
  -28.2920  -25.0870   21.0030 C   0  0  0  0  0  2  0  0  0  0  0  0
  -28.4180  -26.4320   20.3170 O   0  0  0  0  0  0  0  0  0  0  0  0
  -24.6330  -31.9550   23.2490 C   0  0  0  0  0  0  0  0  0  0  0  0
  -27.3170  -27.3220   20.3080 C   0  0  0  0  0  0  0  0  0  0  0  0
  -23.4680  -30.5260   21.6080 C   0  0  0  0  0  3  0  0  0  0  0  0
  -24.9540  -28.9590   20.2270 C   0  0  0  0  0  0  0  0  0  0  0  0
  -26.0130  -30.8480   21.4640 C   0  0  0  0  0  2  0  0  0  0  0  0
  -26.1140  -29.4550   20.8370 C   0  0  0  0  0  0  0  0  0  0  0  0
  -27.3030  -28.6520   20.8590 C   0  0  0  0  0  3  0  0  0  0  0  0
  -26.1340  -26.8900   19.6780 C   0  0  0  0  0  3  0  0  0  0  0  0
  -24.9700  -27.6850   19.6360 C   0  0  0  0  0  3  0  0  0  0  0  0
  -23.7120  -29.8320   20.2420 C   0  0  0  0  0  2  0  0  0  0  0  0
  -24.7230  -31.1300   22.1630 N   0  0  0  0  0  0  0  0  0  0  0  0
  -23.5380  -32.2300   23.7630 O   0  0  0  0  0  0  0  0  0  0  0  0
  -22.7950  -29.5200   22.5730 C   0  0  0  0  0  0  0  0  0  0  0  0
  -21.4690  -29.3400   22.4360 N   0  0  0  0  0  0  0  0  0  0  0  0
  -23.4650  -28.9020   23.4030 O   0  0  0  0  0  0  0  0  0  0  0  0
  -20.9860  -29.8900   21.7400 H   0  0  0  0  0  0  0  0  0  0  0  0
  -18.0860  -28.1520   22.9320 C   0  0  0  0  0  0  0  0  0  0  0  0
  -20.6450  -28.4060   23.2080 C   0  0  0  0  0  3  0  0  0  0  0  0
  -20.7450  -26.9740   22.6350 C   0  0  0  0  0  2  0  0  0  0  0  0
  -19.6450  -26.6510   21.6200 C   0  0  0  0  0  2  0  0  0  0  0  0
  -18.2620  -26.8010   22.2590 C   0  0  0  0  0  2  0  0  0  0  0  0
  -19.2060  -28.9130   23.3630 C   0  0  0  0  0  0  0  0  0  0  0  0
  -18.9880  -30.1760   23.9540 C   0  0  0  0  0  3  0  0  0  0  0  0
  -17.6840  -30.6800   24.1160 C   0  0  0  0  0  3  0  0  0  0  0  0
  -16.5790  -29.9170   23.7020 C   0  0  0  0  0  3  0  0  0  0  0  0
  -16.7810  -28.6550   23.1150 C   0  0  0  0  0  3  0  0  0  0  0  0
  -25.8990  -32.6080   23.8860 C   0  0  0  0  0  3  0  0  0  0  0  0
  -26.3980  -31.8600   25.1820 C   0  0  1  0  0  0  0  0  0  0  0  0
  -25.2860  -31.6240   26.2310 C   0  0  0  0  0  1  0  0  0  0  0  0
  -27.0040  -30.4840   24.8210 C   0  0  0  0  0  1  0  0  0  0  0  0
  -27.5260  -32.6750   25.8560 C   0  0  0  0  0  1  0  0  0  0  0  0
  -25.5710  -34.0080   24.1930 N   0  0  0  0  0  0  0  0  0  0  0  0
  -25.9120  -35.0570   23.4320 C   0  0  0  0  0  0  0  0  0  0  0  0
  -26.6040  -34.9480   22.4170 O   0  0  0  0  0  0  0  0  0  0  0  0
  -24.9600  -34.1670   24.9810 H   0  0  0  0  0  0  0  0  0  0  0  0
  -24.1850  -36.8390   23.0230 C   0  0  0  0  0  1  0  0  0  0  0  0
  -25.4080  -36.4470   23.8670 C   0  0  0  0  0  3  0  0  0  0  0  0
  -27.5170  -37.3510   24.7440 C   0  0  0  0  0  1  0  0  0  0  0  0
  -26.4380  -37.5040   23.7700 N   0  0  0  0  0  0  0  0  0  0  0  0
  -26.0250  -38.4240   23.8970 H   0  0  0  0  0  0  0  0  0  0  0  0
  -27.5480  -18.2760   18.9700 C   0  0  0  0  0  0  0  0  0  0  0  0
  -26.4550  -18.9160   18.1270 C   0  0  0  0  0  1  0  0  0  0  0  0
  -27.6290  -17.0450   19.0160 O   0  0  0  0  0  0  0  0  0  0  0  0
  -30.3900  -17.4900   20.7130 C   0  0  0  0  0  2  0  0  0  0  0  0
  -30.6260  -14.8820   20.3570 C   0  0  0  0  0  0  0  0  0  0  0  0
  -30.4290  -12.6110   19.3090 C   0  0  0  0  0  2  0  0  0  0  0  0
  -29.4840  -12.6700   18.0890 C   0  0  0  0  0  2  0  0  0  0  0  0
  -28.0190  -12.4780   18.5300 C   0  0  0  0  0  2  0  0  0  0  0  0
  -27.6450  -13.3560   19.7530 C   0  0  0  0  0  3  0  0  0  0  0  0
  -28.7100  -13.2820   20.8670 C   0  0  0  0  0  2  0  0  0  0  0  0
  -29.9910  -13.6600   20.2610 N   0  0  0  0  0  0  0  0  0  0  0  0
  -31.8230  -14.9570   20.0630 O   0  0  0  0  0  0  0  0  0  0  0  0
  -29.8830  -16.0420   20.5840 N   0  0  0  0  0  0  0  0  0  0  0  0
  -28.8870  -15.9140   20.6880 H   0  0  0  0  0  0  0  0  0  0  0  0
  -25.2580  -13.9240   20.4910 C   0  0  0  0  0  0  0  0  0  0  0  0
  -24.2010  -13.1400   20.8670 C   0  0  0  0  0  0  0  0  0  0  0  0
  -24.6760  -11.7930   20.8370 C   0  0  0  0  0  0  0  0  0  0  0  0
  -26.3080  -13.0540   20.2530 N   0  0  0  0  0  0  0  0  0  0  0  0
  -25.9670  -11.7680   20.5250 N   0  0  0  0  0  0  0  0  0  0  0  0
  -23.9620  -10.5240   21.0290 C   0  0  0  0  0  0  0  0  0  0  0  0
  -24.4010   -9.5630   21.9660 C   0  0  0  0  0  3  0  0  0  0  0  0
  -23.6850   -8.3600   22.1450 C   0  0  0  0  0  3  0  0  0  0  0  0
  -22.5160   -8.1090   21.3880 C   0  0  0  0  0  0  0  0  0  0  0  0
  -22.0970   -9.0590   20.4400 C   0  0  0  0  0  3  0  0  0  0  0  0
  -22.8130  -10.2540   20.2590 C   0  0  0  0  0  3  0  0  0  0  0  0
  -21.7720   -6.9580   21.4770 O   0  0  0  0  0  0  0  0  0  0  0  0
  -21.7220   -6.2200   22.6320 C   0  0  0  0  0  0  0  0  0  0  0  0
  -21.2750   -6.7730   23.8510 C   0  0  0  0  0  3  0  0  0  0  0  0
  -21.1750   -5.9620   24.9990 C   0  0  0  0  0  3  0  0  0  0  0  0
  -21.5110   -4.5960   24.9270 C   0  0  0  0  0  0  0  0  0  0  0  0
  -21.9500   -4.0410   23.7120 C   0  0  0  0  0  3  0  0  0  0  0  0
  -22.0520   -4.8510   22.5670 C   0  0  0  0  0  0  0  0  0  0  0  0
  -22.4560   -4.3070   21.3940 F   0  0  0  0  0  0  0  0  0  0  0  0
  -21.4080   -3.8130   26.0270 F   0  0  0  0  0  0  0  0  0  0  0  0
  -22.7990  -13.6050   21.1370 C   0  0  0  0  0  0  0  0  0  0  0  0
  -22.0760  -12.9010   22.0010 N   0  0  0  0  0  0  0  0  0  0  0  0
  -22.3540  -14.6280   20.6180 O   0  0  0  0  0  0  0  0  0  0  0  0
  -22.4490  -12.0730   22.4410 H   0  0  0  0  0  0  0  0  0  0  0  0
  -21.1360  -13.1930   22.2240 H   0  0  0  0  0  0  0  0  0  0  0  0
  -25.4070  -15.2950   20.3040 N   0  0  0  0  0  0  0  0  0  0  0  0
  -24.6190  -15.9290   20.3840 H   0  0  0  0  0  0  0  0  0  0  0  0
  -26.2190  -15.7270   19.8740 H   0  0  0  0  0  0  0  0  0  0  0  0
  2 55  1  0
  2  1  1  0
  3  2  2  0
  4  7  1  0
  4  1  2  0
  5  3  1  0
  5  4  1  0
  6  7  1  0
  6 10  1  0
  7  9  1  0
  8  6  2  0
 11 10  1  0
 12 23  2  0
 13 11  1  0
 13 18  1  0
 14 22  1  0
 14 24  1  0
 15 21  1  0
 15 17  1  0
 16 22  1  0
 17 18  2  0
 17 16  1  0
 19 13  2  0
 20 19  1  0
 20 15  2  0
 21 14  1  0
 22 12  1  0
 24 26  2  0
 25 24  1  0
 27 25  1  0
 28 37  2  0
 28 33  1  0
 29 25  1  0
 29 33  1  0
 30 29  1  0
 31 32  1  0
 31 30  1  0
 32 28  1  0
 33 34  2  0
 34 35  1  0
 36 35  2  0
 37 36  1  0
 38 12  1  0
 38 43  1  0
 38 39  1  0
 39 42  1  1
 39 40  1  0
 41 39  1  0
 43 46  1  0
 44 48  1  0
 44 43  1  0
 45 44  2  0
 48 47  1  0
 50 48  1  0
 50 51  1  0
 50 49  1  0
 52 54  2  0
 52  3  1  0
 53 52  1  0
 56 64  1  0
 57 62  1  0
 58 59  1  0
 58 57  1  0
 60 59  1  0
 60 69  1  0
 60 61  1  0
 62 56  1  0
 62 61  1  0
 63 56  2  0
 64 65  1  0
 64 55  1  0
 66 67  2  0
 67 86  1  0
 68 67  1  0
 68 71  1  0
 69 66  1  0
 69 70  1  0
 70 68  2  0
 71 72  1  0
 72 73  2  0
 74 77  1  0
 74 73  1  0
 75 74  2  0
 76 75  1  0
 76 71  2  0
 77 78  1  0
 78 79  1  0
 79 80  2  0
 81 80  1  0
 81 85  1  0
 82 81  2  0
 83 78  2  0
 83 82  1  0
 84 83  1  0
 86 87  1  0
 87 90  1  0
 87 89  1  0
 88 86  2  0
 91 92  1  0
 91 66  1  0
 93 91  1  0
M  ISO  4  10 101  11 101  56 100  64 100
M  END
>  <TORSDO>  (54) 
F 20

>  <SCORE>  (54) 
-13.718

>  <name>  (54) 
53

>  <ligand_id>  (54) 
53

>  <original_smiles>  (54) 
[H]c1c([H])c([H])c2c(c1[H])C([H])([H])C([H])([H])C([H])([H])C2([H])N([H])C(=O)C1([H])N(C(=O)C([H])(N([H])C(=O)C([H])(N([H])C([H])([H])[H])C([H])([H])[H])C(C([H])([H])[H])(C([H])([H])[H])C([H])([H])[H])C([H])([H])c2c([H])c(OC([H])([H])C(=O)N([H])c3oc(C(=O)C([H])([H])[H])c(C([H])([H])N([H])C(=O)N4C([H])([H])C([H])([H])C([H])([H])C([H])(n5nc(-c6c([H])c([H])c(Oc7c([H])c([H])c(F)c([H])c7F)c([H])c6[H])c(C(=O)N([H])[H])c5N([H])[H])C4([H])[H])c3[H])c([H])c([H])c2C1([H])[H]

>  <smiles>  (54) 
[H]c1c([H])c([H])c2c(c1[H])C([H])([H])C([H])([H])C([H])([H])C2([H])N([H])C(=O)C1([H])N(C(=O)C([H])(N([H])C(=O)C([H])(N([H])C([H])([H])[H])C([H])([H])[H])C(C([H])([H])[H])(C([H])([H])[H])C([H])([H])[H])C([H])([H])c2c([H])c(OC([H])([H])C(=O)N([H])c3oc(C(=O)C([H])([H])[H])c(C([H])([H])N([H])C(=O)N4C([H])([H])C([H])([H])C([H])([H])C([H])(n5nc(-c6c([H])c([H])c(Oc7c([H])c([H])c(F)c([H])c7F)c([H])c6[H])c(C(=O)N([H])[H])c5N([H])[H])C4([H])[H])c3[H])c([H])c([H])c2C1([H])[H]

$$$$
54:0:0
     RDKit          3D

 97105  0  0  1  0  0  0  0  0999 V2000
  -28.5840  -22.4130   20.4860 C   0  0  0  0  0  0  0  0  0  0  0  0
  -29.6360  -21.5110   20.4410 N   0  0  0  0  0  0  0  0  0  0  0  0
  -27.4300  -22.0130   20.6600 O   0  0  0  0  0  0  0  0  0  0  0  0
  -30.5030  -22.0230   20.3400 H   0  0  0  0  0  0  0  0  0  0  0  0
  -30.5480  -14.8620   20.3790 C   0  0  0  0  0  0  0  0  0  0  0  0
  -30.4020  -12.5660   19.3640 C   0  0  0  0  0  2  0  0  0  0  0  0
  -29.4580  -12.6060   18.1390 C   0  0  0  0  0  2  0  0  0  0  0  0
  -27.9900  -12.4130   18.5710 C   0  0  0  0  0  2  0  0  0  0  0  0
  -27.6050  -13.3030   19.7810 C   0  0  0  0  0  3  0  0  0  0  0  0
  -28.6640  -13.2320   20.9030 C   0  0  0  0  0  2  0  0  0  0  0  0
  -29.9520  -13.6160   20.3100 N   0  0  0  0  0  0  0  0  0  0  0  0
  -31.7390  -14.9710   20.0650 O   0  0  0  0  0  0  0  0  0  0  0  0
  -31.0370  -19.4900   20.8090 C   0  0  0  0  0  0  0  0  0  0  0  0
  -29.8110  -20.1050   20.5470 C   0  0  0  0  0  0  0  0  0  0  0  0
  -29.9100  -17.4490   20.5710 C   0  0  0  0  0  0  0  0  0  0  0  0
  -31.0750  -18.0610   20.8160 N   0  0  0  0  0  0  0  0  0  0  0  0
  -29.7150  -15.9660   20.5770 N   0  0  0  0  0  0  0  0  0  0  0  0
  -28.6430  -18.7460   20.3450 S   0  0  0  0  0  0  0  0  0  0  0  0
  -28.7530  -15.6960   20.6940 H   0  0  0  0  0  0  0  0  0  0  0  0
  -25.2160  -13.8840   20.5090 C   0  0  0  0  0  0  0  0  0  0  0  0
  -24.1550  -13.1050   20.8800 C   0  0  0  0  0  0  0  0  0  0  0  0
  -24.6250  -11.7560   20.8510 C   0  0  0  0  0  0  0  0  0  0  0  0
  -26.2640  -13.0080   20.2720 N   0  0  0  0  0  0  0  0  0  0  0  0
  -25.9160  -11.7240   20.5410 N   0  0  0  0  0  0  0  0  0  0  0  0
  -23.9040  -10.4910   21.0400 C   0  0  0  0  0  0  0  0  0  0  0  0
  -24.3400   -9.5240   21.9720 C   0  0  0  0  0  3  0  0  0  0  0  0
  -23.6190   -8.3240   22.1490 C   0  0  0  0  0  3  0  0  0  0  0  0
  -22.4470   -8.0820   21.3920 C   0  0  0  0  0  0  0  0  0  0  0  0
  -22.0310   -9.0360   20.4480 C   0  0  0  0  0  3  0  0  0  0  0  0
  -22.7530  -10.2280   20.2700 C   0  0  0  0  0  3  0  0  0  0  0  0
  -21.6970   -6.9340   21.4800 O   0  0  0  0  0  0  0  0  0  0  0  0
  -21.6460   -6.1930   22.6330 C   0  0  0  0  0  0  0  0  0  0  0  0
  -21.1950   -6.7420   23.8530 C   0  0  0  0  0  3  0  0  0  0  0  0
  -21.0940   -5.9260   24.9970 C   0  0  0  0  0  3  0  0  0  0  0  0
  -21.4340   -4.5620   24.9230 C   0  0  0  0  0  0  0  0  0  0  0  0
  -21.8770   -4.0120   23.7080 C   0  0  0  0  0  3  0  0  0  0  0  0
  -21.9810   -4.8240   22.5650 C   0  0  0  0  0  0  0  0  0  0  0  0
  -22.3890   -4.2850   21.3910 F   0  0  0  0  0  0  0  0  0  0  0  0
  -21.3290   -3.7760   26.0200 F   0  0  0  0  0  0  0  0  0  0  0  0
  -22.7550  -13.5760   21.1490 C   0  0  0  0  0  0  0  0  0  0  0  0
  -22.0320  -12.8810   22.0200 N   0  0  0  0  0  0  0  0  0  0  0  0
  -22.3120  -14.5960   20.6230 O   0  0  0  0  0  0  0  0  0  0  0  0
  -22.4030  -12.0550   22.4670 H   0  0  0  0  0  0  0  0  0  0  0  0
  -21.0930  -13.1780   22.2430 H   0  0  0  0  0  0  0  0  0  0  0  0
  -25.3730  -15.2550   20.3260 N   0  0  0  0  0  0  0  0  0  0  0  0
  -24.5910  -15.8960   20.4160 H   0  0  0  0  0  0  0  0  0  0  0  0
  -26.1920  -15.6910   19.9240 H   0  0  0  0  0  0  0  0  0  0  0  0
  -32.3220  -20.2150   21.1310 C   0  0  0  0  0  2  0  0  0  0  0  0
  -33.5500  -19.1620   19.1360 C   0  0  0  0  0  1  0  0  0  0  0  0
  -32.7400  -21.5300   18.9960 C   0  0  0  0  0  1  0  0  0  0  0  0
  -34.6430  -20.9450   20.5100 C   0  0  0  0  0  1  0  0  0  0  0  0
  -33.2980  -20.4520   19.9420 C   0  0  1  0  0  0  0  0  0  0  0  0
  -28.0420  -24.9510   20.4150 C   0  0  0  0  0  3  0  0  0  0  0  0
  -28.9420  -23.8890   20.3190 C   0  0  0  0  0  0  0  0  0  0  0  0
  -30.2250  -24.1800   20.0590 O   0  0  0  0  0  0  0  0  0  0  0  0
  -30.2790  -25.1230   19.9710 H   0  0  0  0  0  0  0  0  0  0  0  0
  -28.2830  -26.3650   20.2630 O   0  0  0  0  0  0  0  0  0  0  0  0
  -24.6380  -31.9400   23.2540 C   0  0  0  0  0  0  0  0  0  0  0  0
  -27.2060  -27.2930   20.2220 C   0  0  0  0  0  0  0  0  0  0  0  0
  -23.4280  -30.5510   21.6130 C   0  0  0  0  0  3  0  0  0  0  0  0
  -24.8690  -28.9820   20.1860 C   0  0  0  0  0  0  0  0  0  0  0  0
  -25.9760  -30.8290   21.4420 C   0  0  0  0  0  2  0  0  0  0  0  0
  -26.0430  -29.4420   20.7970 C   0  0  0  0  0  0  0  0  0  0  0  0
  -27.2130  -28.6100   20.8070 C   0  0  0  0  0  3  0  0  0  0  0  0
  -26.0130  -26.9170   19.5650 C   0  0  0  0  0  3  0  0  0  0  0  0
  -24.8600  -27.7280   19.5580 C   0  0  0  0  0  3  0  0  0  0  0  0
  -23.6420  -29.8740   20.2320 C   0  0  0  0  0  2  0  0  0  0  0  0
  -24.6990  -31.1270   22.1580 N   0  0  0  0  0  0  0  0  0  0  0  0
  -23.5550  -32.2260   23.7860 O   0  0  0  0  0  0  0  0  0  0  0  0
  -22.7530  -29.5410   22.5740 C   0  0  0  0  0  0  0  0  0  0  0  0
  -21.4260  -29.3710   22.4450 N   0  0  0  0  0  0  0  0  0  0  0  0
  -23.4250  -28.9120   23.3970 O   0  0  0  0  0  0  0  0  0  0  0  0
  -20.9410  -29.9290   21.7560 H   0  0  0  0  0  0  0  0  0  0  0  0
  -18.0380  -28.1990   22.9480 C   0  0  0  0  0  0  0  0  0  0  0  0
  -20.5990  -28.4410   23.2170 C   0  0  0  0  0  3  0  0  0  0  0  0
  -20.6900  -27.0080   22.6400 C   0  0  0  0  0  2  0  0  0  0  0  0
  -19.5850  -26.6940   21.6260 C   0  0  0  0  0  2  0  0  0  0  0  0
  -18.2050  -26.8490   22.2700 C   0  0  0  0  0  2  0  0  0  0  0  0
  -19.1630  -28.9530   23.3780 C   0  0  0  0  0  0  0  0  0  0  0  0
  -18.9520  -30.2170   23.9710 C   0  0  0  0  0  3  0  0  0  0  0  0
  -17.6500  -30.7260   24.1410 C   0  0  0  0  0  3  0  0  0  0  0  0
  -16.5400  -29.9680   23.7250 C   0  0  0  0  0  3  0  0  0  0  0  0
  -16.7360  -28.7070   23.1340 C   0  0  0  0  0  3  0  0  0  0  0  0
  -25.9220  -32.5650   23.8790 C   0  0  0  0  0  3  0  0  0  0  0  0
  -26.4360  -31.7870   25.1540 C   0  0  1  0  0  0  0  0  0  0  0  0
  -25.3400  -31.5510   26.2190 C   0  0  0  0  0  1  0  0  0  0  0  0
  -27.0140  -30.4090   24.7580 C   0  0  0  0  0  1  0  0  0  0  0  0
  -27.5890  -32.5750   25.8190 C   0  0  0  0  0  1  0  0  0  0  0  0
  -25.6170  -33.9630   24.2180 N   0  0  0  0  0  0  0  0  0  0  0  0
  -25.9250  -35.0190   23.4530 C   0  0  0  0  0  0  0  0  0  0  0  0
  -26.5640  -34.9190   22.4020 O   0  0  0  0  0  0  0  0  0  0  0  0
  -25.0470  -34.1140   25.0380 H   0  0  0  0  0  0  0  0  0  0  0  0
  -24.1740  -36.8030   23.1660 C   0  0  0  0  0  1  0  0  0  0  0  0
  -25.4490  -36.4060   23.9280 C   0  0  0  0  0  3  0  0  0  0  0  0
  -27.6070  -37.3060   24.6770 C   0  0  0  0  0  1  0  0  0  0  0  0
  -26.4710  -37.4640   23.7740 N   0  0  0  0  0  0  0  0  0  0  0  0
  -26.0660  -38.3830   23.9310 H   0  0  0  0  0  0  0  0  0  0  0  0
  1  3  2  0
  2  1  1  0
  2 14  1  0
  4  2  1  0
  5 17  1  0
  6 11  1  0
  7  8  1  0
  7  6  1  0
  9  8  1  0
  9 23  1  0
  9 10  1  0
 11  5  1  0
 11 10  1  0
 12  5  2  0
 13 16  1  0
 13 48  1  0
 14 13  2  0
 15 17  1  0
 15 16  2  0
 17 19  1  0
 18 14  1  0
 18 15  1  0
 20 21  2  0
 21 40  1  0
 22 21  1  0
 22 25  1  0
 23 20  1  0
 23 24  1  0
 24 22  2  0
 25 26  1  0
 26 27  2  0
 28 31  1  0
 28 27  1  0
 29 28  2  0
 30 29  1  0
 30 25  2  0
 31 32  1  0
 32 33  1  0
 33 34  2  0
 35 34  1  0
 35 39  1  0
 36 35  2  0
 37 32  2  0
 37 36  1  0
 38 37  1  0
 40 41  1  0
 41 44  1  0
 41 43  1  0
 42 40  2  0
 45 46  1  0
 45 20  1  0
 47 45  1  0
 52 49  1  6
 50 52  1  0
 52 51  1  0
 52 48  1  0
 54 53  2  0
 54  1  1  0
 55 54  1  0
 56 55  1  0
 57 53  1  0
 58 69  2  0
 59 57  1  0
 59 64  1  0
 60 68  1  0
 60 70  1  0
 61 67  1  0
 61 63  1  0
 62 68  1  0
 63 64  2  0
 63 62  1  0
 65 59  2  0
 66 65  1  0
 66 61  2  0
 67 60  1  0
 68 58  1  0
 70 72  2  0
 71 70  1  0
 73 71  1  0
 74 83  2  0
 74 79  1  0
 75 71  1  0
 75 79  1  0
 76 75  1  0
 77 78  1  0
 77 76  1  0
 78 74  1  0
 79 80  2  0
 80 81  1  0
 82 81  2  0
 83 82  1  0
 84 58  1  0
 84 89  1  0
 84 85  1  0
 85 88  1  1
 85 86  1  0
 87 85  1  0
 89 92  1  0
 90 94  1  0
 90 89  1  0
 91 90  2  0
 94 93  1  0
 96 94  1  0
 96 97  1  0
 96 95  1  0
M  ISO  4   5 100  17 100  53 101  57 101
M  END
>  <TORSDO>  (55) 
F 20

>  <SCORE>  (55) 
-14.330

>  <name>  (55) 
54

>  <ligand_id>  (55) 
54

>  <original_smiles>  (55) 
[H]OC(C(=O)N([H])c1sc(N([H])C(=O)N2C([H])([H])C([H])([H])C([H])([H])C([H])(n3nc(-c4c([H])c([H])c(Oc5c([H])c([H])c(F)c([H])c5F)c([H])c4[H])c(C(=O)N([H])[H])c3N([H])[H])C2([H])[H])nc1C([H])([H])C(C([H])([H])[H])(C([H])([H])[H])C([H])([H])[H])=C([H])Oc1c([H])c([H])c2c(c1[H])C([H])([H])N(C(=O)C([H])(N([H])C(=O)C([H])(N([H])C([H])([H])[H])C([H])([H])[H])C(C([H])([H])[H])(C([H])([H])[H])C([H])([H])[H])C([H])(C(=O)N([H])C1([H])c3c([H])c([H])c([H])c([H])c3C([H])([H])C([H])([H])C1([H])[H])C2([H])[H]

>  <smiles>  (55) 
[H]OC(C(=O)N([H])c1sc(N([H])C(=O)N2C([H])([H])C([H])([H])C([H])([H])C([H])(n3nc(-c4c([H])c([H])c(Oc5c([H])c([H])c(F)c([H])c5F)c([H])c4[H])c(C(=O)N([H])[H])c3N([H])[H])C2([H])[H])nc1C([H])([H])C(C([H])([H])[H])(C([H])([H])[H])C([H])([H])[H])=C([H])Oc1c([H])c([H])c2c(c1[H])C([H])([H])N(C(=O)C([H])(N([H])C(=O)C([H])(N([H])C([H])([H])[H])C([H])([H])[H])C(C([H])([H])[H])(C([H])([H])[H])C([H])([H])[H])C([H])(C(=O)N([H])C1([H])c3c([H])c([H])c([H])c([H])c3C([H])([H])C([H])([H])C1([H])[H])C2([H])[H]

$$$$
55:0:0
     RDKit          3D

 97103  0  0  1  0  0  0  0  0999 V2000
  -29.7660  -14.3610   21.9130 C   0  0  0  0  0  2  0  0  0  0  0  0
  -28.8340  -13.6450   20.6920 C   0  0  0  0  0  2  0  0  0  0  0  0
  -29.8720  -16.0310   21.9830 C   0  0  0  0  0  3  0  0  0  0  0  0
  -27.8860  -15.3160   19.2730 C   0  0  0  0  0  2  0  0  0  0  0  0
  -29.2030  -17.1850   20.9850 C   0  0  0  0  0  0  0  0  0  0  0  0
  -28.2190  -17.1720   19.7190 C   0  0  0  0  0  2  0  0  0  0  0  0
  -30.5060  -19.3700   18.9520 C   0  0  0  0  0  0  0  0  0  0  0  0
  -29.4850  -18.6820   21.1630 C   0  0  0  0  0  2  0  0  0  0  0  0
  -28.0850  -19.3760   19.2540 C   0  0  0  0  0  1  0  0  0  0  0  0
  -29.4640  -19.3780   19.8360 N   0  0  0  0  0  0  0  0  0  0  0  0
  -30.3990  -20.0280   17.9110 O   0  0  0  0  0  0  0  0  0  0  0  0
  -33.5160  -19.7200   20.1610 C   0  0  0  0  0  2  0  0  0  0  0  0
  -33.2070  -18.5050   21.0300 C   0  0  0  0  0  2  0  0  0  0  0  0
  -31.8020  -18.4620   19.0790 C   0  0  0  0  0  3  0  0  0  0  0  0
  -33.0970  -19.2560   18.7790 C   0  0  1  0  0  0  0  0  0  0  0  0
  -32.0880  -17.7930   20.3890 N   0  0  0  0  0  0  0  0  0  0  0  0
  -33.0030  -20.2900   17.9420 F   0  0  0  0  0  0  0  0  0  0  0  0
  -34.0220  -18.4210   18.2970 F   0  0  0  0  0  0  0  0  0  0  0  0
  -32.3000  -16.3090   20.5080 C   0  0  0  0  0  2  0  0  0  0  0  0
  -31.7440  -15.2930   19.4580 C   0  0  0  0  0  0  0  0  0  0  0  0
  -30.6890  -13.7420   17.8250 C   0  0  0  0  0  2  0  0  0  0  0  0
  -29.4050  -12.6850   17.1950 C   0  0  0  0  0  2  0  0  0  0  0  0
  -27.8200  -12.3910   17.8330 C   0  0  0  0  0  2  0  0  0  0  0  0
  -26.9600  -13.4270   18.9960 C   0  0  0  0  0  2  0  0  0  0  0  0
  -27.7240  -14.9090   20.0800 C   0  0  0  0  0  2  0  0  0  0  0  0
  -30.4620  -15.0940   19.0830 N   0  0  0  0  0  2  0  0  0  0  0  0
  -32.6290  -14.6870   18.8760 O   0  0  0  0  0  0  0  0  0  0  0  0
  -25.2380  -13.4160   20.4830 C   0  0  0  0  0  0  0  0  0  0  0  0
  -24.3690  -12.5420   20.9840 C   0  0  0  0  0  0  0  0  0  0  0  0
  -24.8260  -11.2260   20.6500 C   0  0  0  0  0  0  0  0  0  0  0  0
  -26.1210  -12.6680   19.8190 N   0  0  0  0  0  0  0  0  0  0  0  0
  -25.9710  -11.3060   19.9530 N   0  0  0  0  0  0  0  0  0  0  0  0
  -24.1270   -9.9540   20.8960 C   0  0  0  0  0  0  0  0  0  0  0  0
  -24.5790   -8.9980   21.8330 C   0  0  0  0  0  3  0  0  0  0  0  0
  -23.8080   -7.8430   22.1040 C   0  0  0  0  0  3  0  0  0  0  0  0
  -22.5730   -7.6380   21.4420 C   0  0  0  0  0  0  0  0  0  0  0  0
  -22.1420   -8.5800   20.4930 C   0  0  0  0  0  3  0  0  0  0  0  0
  -22.9110   -9.7220   20.2200 C   0  0  0  0  0  3  0  0  0  0  0  0
  -21.7670   -6.5390   21.6200 O   0  0  0  0  0  0  0  0  0  0  0  0
  -21.7010   -5.8780   22.8190 C   0  0  0  0  0  0  0  0  0  0  0  0
  -21.2310   -6.5060   23.9920 C   0  0  0  0  0  3  0  0  0  0  0  0
  -21.1140   -5.7690   25.1880 C   0  0  0  0  0  3  0  0  0  0  0  0
  -21.4580   -4.4040   25.2100 C   0  0  0  0  0  0  0  0  0  0  0  0
  -21.9200   -3.7750   24.0410 C   0  0  0  0  0  3  0  0  0  0  0  0
  -22.0380   -4.5090   22.8480 C   0  0  0  0  0  0  0  0  0  0  0  0
  -22.4620   -3.8920   21.7190 F   0  0  0  0  0  0  0  0  0  0  0  0
  -21.3410   -3.6940   26.3560 F   0  0  0  0  0  0  0  0  0  0  0  0
  -23.1080  -13.0090   21.5950 C   0  0  0  0  0  0  0  0  0  0  0  0
  -22.6000  -12.2630   22.5540 N   0  0  0  0  0  0  0  0  0  0  0  0
  -22.6230  -14.0950   21.2710 O   0  0  0  0  0  0  0  0  0  0  0  0
  -23.0360  -11.3940   22.8250 H   0  0  0  0  0  0  0  0  0  0  0  0
  -21.7590  -12.5600   23.0280 H   0  0  0  0  0  0  0  0  0  0  0  0
  -25.2700  -14.8100   20.4520 N   0  0  0  0  0  0  0  0  0  0  0  0
  -24.5330  -15.3710   20.8670 H   0  0  0  0  0  0  0  0  0  0  0  0
  -25.9540  -15.3560   19.9450 H   0  0  0  0  0  0  0  0  0  0  0  0
  -27.3450  -21.7340   19.3240 C   0  0  0  0  0 15  0  0  0  0  0  0
  -27.4630  -23.9320   19.1680 O   0  0  0  0  0  1  0  0  0  0  0  0
  -24.8950  -31.3240   22.7650 C   0  0  0  0  0  0  0  0  0  0  0  0
  -26.7410  -25.5710   19.3510 C   0  0  0  0  0  0  0  0  0  0  0  0
  -23.5500  -30.0650   21.1570 C   0  0  0  0  0  3  0  0  0  0  0  0
  -24.7730  -28.2550   19.5950 C   0  0  0  0  0  0  0  0  0  0  0  0
  -26.1330  -29.8110   20.9390 C   0  0  0  0  0  2  0  0  0  0  0  0
  -26.0340  -28.3310   20.1940 C   0  0  0  0  0  0  0  0  0  0  0  0
  -26.9650  -27.0540   20.0250 C   0  0  0  0  0  3  0  0  0  0  0  0
  -25.4800  -25.9290   18.7210 C   0  0  0  0  0  3  0  0  0  0  0  0
  -24.5860  -27.0840   18.8280 C   0  0  0  0  0  3  0  0  0  0  0  0
  -23.6860  -29.3740   19.7570 C   0  0  0  0  0  2  0  0  0  0  0  0
  -24.9040  -30.4500   21.6720 N   0  0  0  0  0  0  0  0  0  0  0  0
  -23.8390  -31.6920   23.3210 O   0  0  0  0  0  0  0  0  0  0  0  0
  -22.7790  -29.1480   22.1510 C   0  0  0  0  0  0  0  0  0  0  0  0
  -21.4310  -29.0970   22.0990 N   0  0  0  0  0  0  0  0  0  0  0  0
  -23.4200  -28.4680   22.9540 O   0  0  0  0  0  0  0  0  0  0  0  0
  -20.9530  -29.6930   21.4380 H   0  0  0  0  0  0  0  0  0  0  0  0
  -18.0080  -28.0250   22.7850 C   0  0  0  0  0  0  0  0  0  0  0  0
  -20.5920  -28.1720   22.8830 C   0  0  0  0  0  3  0  0  0  0  0  0
  -20.5840  -26.7630   22.2440 C   0  0  0  0  0  2  0  0  0  0  0  0
  -19.4090  -26.5440   21.2860 C   0  0  0  0  0  2  0  0  0  0  0  0
  -18.0780  -26.7110   22.0230 C   0  0  0  0  0  2  0  0  0  0  0  0
  -19.1860  -28.7200   23.1730 C   0  0  0  0  0  0  0  0  0  0  0  0
  -19.0580  -29.9470   23.8590 C   0  0  0  0  0  3  0  0  0  0  0  0
  -17.7880  -30.4800   24.1520 C   0  0  0  0  0  3  0  0  0  0  0  0
  -16.6270  -29.7840   23.7730 C   0  0  0  0  0  3  0  0  0  0  0  0
  -16.7390  -28.5570   23.0960 C   0  0  0  0  0  3  0  0  0  0  0  0
  -26.1960  -31.9210   23.3910 C   0  0  0  0  0  3  0  0  0  0  0  0
  -26.8110  -31.0000   24.5190 C   0  0  1  0  0  0  0  0  0  0  0  0
  -25.8080  -30.6160   25.6360 C   0  0  0  0  0  1  0  0  0  0  0  0
  -27.3600  -29.6860   23.9290 C   0  0  0  0  0  1  0  0  0  0  0  0
  -28.0130  -31.7110   25.1840 C   0  0  0  0  0  1  0  0  0  0  0  0
  -25.8970  -33.2530   23.9800 N   0  0  0  0  0  0  0  0  0  0  0  0
  -26.2280  -34.4430   23.4550 C   0  0  0  0  0  0  0  0  0  0  0  0
  -26.8530  -34.5410   22.3970 O   0  0  0  0  0  0  0  0  0  0  0  0
  -25.3320  -33.2490   24.8160 H   0  0  0  0  0  0  0  0  0  0  0  0
  -24.5380  -36.3170   23.5850 C   0  0  0  0  0  1  0  0  0  0  0  0
  -25.8120  -35.7280   24.2130 C   0  0  0  0  0  3  0  0  0  0  0  0
  -28.0090  -36.4180   25.0760 C   0  0  0  0  0  1  0  0  0  0  0  0
  -26.8630  -36.7710   24.2440 N   0  0  0  0  0  0  0  0  0  0  0  0
  -26.4860  -37.6530   24.5820 H   0  0  0  0  0  0  0  0  0  0  0  0
  1  3  1  0
  2  1  1  0
  4  6  1  0
  4 25  1  0
  5  8  1  0
  5  3  2  0
  6  5  1  0
  7 10  1  0
  9 10  1  0
 10  8  1  0
 11  7  2  0
 12 13  1  0
 14  7  1  0
 14 16  1  0
 15 14  1  0
 15 12  1  0
 16 19  1  0
 16 13  1  0
 15 17  1  6
 18 15  1  0
 20 19  1  0
 21 26  1  0
 22 21  1  0
 22 23  1  0
 23 24  1  0
 24 31  1  0
 25  2  1  0
 26 20  1  0
 27 20  2  0
 28 29  2  0
 29 48  1  0
 30 33  1  0
 30 29  1  0
 31 32  1  0
 31 28  1  0
 32 30  2  0
 33 34  1  0
 34 35  2  0
 36 39  1  0
 36 35  1  0
 37 36  2  0
 38 37  1  0
 38 33  2  0
 39 40  1  0
 40 45  2  0
 40 41  1  0
 41 42  2  0
 42 43  1  0
 43 47  1  0
 44 43  2  0
 45 44  1  0
 46 45  1  0
 48 49  1  0
 49 51  1  0
 49 52  1  0
 50 48  2  0
 53 28  1  0
 53 54  1  0
 55 53  1  0
 57 59  1  0
 58 69  2  0
 59 64  1  0
 60 68  1  0
 60 70  1  0
 61 67  1  0
 61 63  1  0
 62 68  1  0
 63 62  1  0
 64 63  2  0
 65 66  1  0
 65 59  2  0
 66 61  2  0
 67 60  1  0
 68 58  1  0
 70 72  2  0
 71 70  1  0
 73 71  1  0
 74 83  2  0
 74 79  1  0
 75 71  1  0
 75 79  1  0
 76 75  1  0
 77 78  1  0
 77 76  1  0
 78 74  1  0
 79 80  2  0
 80 81  1  0
 82 81  2  0
 83 82  1  0
 84 58  1  0
 84 89  1  0
 84 85  1  0
 85 88  1  1
 85 86  1  0
 87 85  1  0
 89 92  1  0
 90 89  1  0
 90 94  1  0
 91 90  2  0
 94 93  1  0
 94 96  1  0
 96 97  1  0
 96 95  1  0
M  ISO  4  19 100  20 100  56 101  57 101
M  END
>  <TORSDO>  (56) 
F 19

>  <SCORE>  (56) 
-10.947

>  <name>  (56) 
55

>  <ligand_id>  (56) 
55

>  <original_smiles>  (56) 
[H]c1c([H])c([H])c2c(c1[H])C([H])([H])N(C(=O)C1([H])N(C([H])([H])C(=O)N3C([H])([H])C([H])([H])C([H])([H])C([H])(n4nc(-c5c([H])c([H])c(Oc6c([H])c([H])c(F)c([H])c6F)c([H])c5[H])c(C(=O)N([H])[H])c4N([H])[H])C3([H])[H])C([H])([H])C([H])([H])C1(F)F)C2([H])C([H])([H])Oc1c([H])c([H])c2c(c1[H])C([H])([H])N(C(=O)C([H])(N([H])C(=O)C([H])(N([H])C([H])([H])[H])C([H])([H])[H])C(C([H])([H])[H])(C([H])([H])[H])C([H])([H])[H])C([H])(C(=O)N([H])C1([H])c3c([H])c([H])c([H])c([H])c3C([H])([H])C([H])([H])C1([H])[H])C2([H])[H]

>  <smiles>  (56) 
[H]c1c([H])c([H])c2c(c1[H])C([H])([H])N(C(=O)C1([H])N(C([H])([H])C(=O)N3C([H])([H])C([H])([H])C([H])([H])C([H])(n4nc(-c5c([H])c([H])c(Oc6c([H])c([H])c(F)c([H])c6F)c([H])c5[H])c(C(=O)N([H])[H])c4N([H])[H])C3([H])[H])C([H])([H])C([H])([H])C1(F)F)C2([H])C([H])([H])Oc1c([H])c([H])c2c(c1[H])C([H])([H])N(C(=O)C([H])(N([H])C(=O)C([H])(N([H])C([H])([H])[H])C([H])([H])[H])C(C([H])([H])[H])(C([H])([H])[H])C([H])([H])[H])C([H])(C(=O)N([H])C1([H])c3c([H])c([H])c([H])c([H])c3C([H])([H])C([H])([H])C1([H])[H])C2([H])[H]

$$$$
56:0:0
     RDKit          3D

 95104  0  0  1  0  0  0  0  0999 V2000
  -28.8500  -22.5460   20.0620 C   0  0  0  0  0  0  0  0  0  0  0  0
  -29.3490  -21.3120   19.5580 N   0  0  0  0  0  0  0  0  0  0  0  0
  -28.0110  -22.5730   20.9630 O   0  0  0  0  0  0  0  0  0  0  0  0
  -30.0640  -21.5070   18.8670 H   0  0  0  0  0  0  0  0  0  0  0  0
  -29.7780  -18.7340   19.9960 C   0  0  0  0  0  3  0  0  0  0  0  0
  -29.0370  -17.4220   20.0190 C   0  0  0  0  0  0  0  0  0  0  0  0
  -27.6900  -17.6970   19.8250 C   0  0  0  0  0  0  0  0  0  0  0  0
  -29.0190  -19.9290   19.7290 C   0  0  0  0  0  0  0  0  0  0  0  0
  -27.3720  -19.3990   19.4870 S   0  0  0  0  0  0  0  0  0  0  0  0
  -30.3810  -14.9330   19.9380 C   0  0  0  0  0  0  0  0  0  0  0  0
  -30.5150  -12.4960   19.2260 C   0  0  0  0  0  2  0  0  0  0  0  0
  -29.5690  -12.2390   18.0280 C   0  0  0  0  0  2  0  0  0  0  0  0
  -28.1370  -11.9560   18.5290 C   0  0  0  0  0  2  0  0  0  0  0  0
  -27.6760  -13.0060   19.5720 C   0  0  0  0  0  3  0  0  0  0  0  0
  -28.7240  -13.1710   20.6880 C   0  0  0  0  0  2  0  0  0  0  0  0
  -29.9630  -13.6140   20.0390 N   0  0  0  0  0  0  0  0  0  0  0  0
  -31.5490  -15.1390   19.5860 O   0  0  0  0  0  0  0  0  0  0  0  0
  -29.3860  -15.9270   20.1220 N   0  0  0  0  0  0  0  0  0  0  0  0
  -28.5830  -15.4340   20.4850 H   0  0  0  0  0  0  0  0  0  0  0  0
  -25.3130  -13.5920   20.3600 C   0  0  0  0  0  0  0  0  0  0  0  0
  -24.2760  -12.8210   20.8020 C   0  0  0  0  0  0  0  0  0  0  0  0
  -24.7450  -11.4740   20.7760 C   0  0  0  0  0  0  0  0  0  0  0  0
  -26.3550  -12.7170   20.1100 N   0  0  0  0  0  0  0  0  0  0  0  0
  -26.0240  -11.4410   20.4220 N   0  0  0  0  0  0  0  0  0  0  0  0
  -24.0390  -10.2070   21.0060 C   0  0  0  0  0  0  0  0  0  0  0  0
  -24.4850   -9.2730   21.9660 C   0  0  0  0  0  3  0  0  0  0  0  0
  -23.7770   -8.0720   22.1770 C   0  0  0  0  0  3  0  0  0  0  0  0
  -22.6110   -7.7940   21.4280 C   0  0  0  0  0  0  0  0  0  0  0  0
  -22.1850   -8.7170   20.4570 C   0  0  0  0  0  3  0  0  0  0  0  0
  -22.8910   -9.9120   20.2440 C   0  0  0  0  0  3  0  0  0  0  0  0
  -21.8730   -6.6420   21.5480 O   0  0  0  0  0  0  0  0  0  0  0  0
  -21.7910   -5.9590   22.7350 C   0  0  0  0  0  0  0  0  0  0  0  0
  -21.3330   -6.5780   23.9200 C   0  0  0  0  0  3  0  0  0  0  0  0
  -21.2050   -5.8260   25.1060 C   0  0  0  0  0  3  0  0  0  0  0  0
  -21.5170   -4.4540   25.1050 C   0  0  0  0  0  0  0  0  0  0  0  0
  -21.9630   -3.8320   23.9250 C   0  0  0  0  0  3  0  0  0  0  0  0
  -22.0960   -4.5830   22.7430 C   0  0  0  0  0  0  0  0  0  0  0  0
  -22.5130   -3.9760   21.6030 F   0  0  0  0  0  0  0  0  0  0  0  0
  -21.3840   -3.7280   26.2380 F   0  0  0  0  0  0  0  0  0  0  0  0
  -22.8870  -13.2990   21.1180 C   0  0  0  0  0  0  0  0  0  0  0  0
  -22.2010  -12.6210   22.0290 N   0  0  0  0  0  0  0  0  0  0  0  0
  -22.4270  -14.3090   20.5910 O   0  0  0  0  0  0  0  0  0  0  0  0
  -22.5980  -11.8030   22.4670 H   0  0  0  0  0  0  0  0  0  0  0  0
  -21.2680  -12.9200   22.2860 H   0  0  0  0  0  0  0  0  0  0  0  0
  -25.4360  -14.9490   20.1090 N   0  0  0  0  0  0  0  0  0  0  0  0
  -24.5510  -15.4350   19.9930 H   0  0  0  0  0  0  0  0  0  0  0  0
  -26.1120  -15.2320   19.4130 H   0  0  0  0  0  0  0  0  0  0  0  0
  -25.0760  -17.1600   19.6400 C   0  0  0  0  0  2  0  0  0  0  0  0
  -25.5440  -16.9460   21.0680 C   0  0  0  0  0  2  0  0  0  0  0  0
  -26.5130  -16.7540   19.9230 C   0  0  0  0  0  3  0  0  0  0  0  0
  -29.2840  -25.2260   19.6420 C   0  0  0  0  0  3  0  0  0  0  0  0
  -29.4590  -23.8150   19.4640 C   0  0  0  0  0  0  0  0  0  0  0  0
  -30.4190  -23.5120   18.5710 O   0  0  0  0  0  0  0  0  0  0  0  0
  -30.8740  -24.3110   18.3530 H   0  0  0  0  0  0  0  0  0  0  0  0
  -28.5990  -26.1290   20.5230 O   0  0  0  0  0  0  0  0  0  0  0  0
  -24.6860  -31.6660   23.1410 C   0  0  0  0  0  0  0  0  0  0  0  0
  -27.5710  -27.0820   20.2120 C   0  0  0  0  0  0  0  0  0  0  0  0
  -23.5920  -30.2060   21.4690 C   0  0  0  0  0  3  0  0  0  0  0  0
  -25.1560  -28.6980   20.0750 C   0  0  0  0  0  0  0  0  0  0  0  0
  -26.1190  -30.5850   21.3730 C   0  0  0  0  0  2  0  0  0  0  0  0
  -26.2770  -29.1900   20.7500 C   0  0  0  0  0  0  0  0  0  0  0  0
  -27.4710  -28.3920   20.8190 C   0  0  0  0  0  3  0  0  0  0  0  0
  -26.4410  -26.6860   19.4660 C   0  0  0  0  0  3  0  0  0  0  0  0
  -25.2550  -27.4650   19.3990 C   0  0  0  0  0  3  0  0  0  0  0  0
  -23.8840  -29.5330   20.0930 C   0  0  0  0  0  2  0  0  0  0  0  0
  -24.8150  -30.8420   22.0520 N   0  0  0  0  0  0  0  0  0  0  0  0
  -23.5730  -31.9100   23.6270 O   0  0  0  0  0  0  0  0  0  0  0  0
  -22.9210  -29.1810   22.4130 C   0  0  0  0  0  0  0  0  0  0  0  0
  -21.6030  -28.9770   22.2520 N   0  0  0  0  0  0  0  0  0  0  0  0
  -23.5880  -28.5830   23.2600 O   0  0  0  0  0  0  0  0  0  0  0  0
  -21.1270  -29.5230   21.5480 H   0  0  0  0  0  0  0  0  0  0  0  0
  -18.2410  -27.7010   22.6480 C   0  0  0  0  0  0  0  0  0  0  0  0
  -20.7820  -28.0210   22.9990 C   0  0  0  0  0  3  0  0  0  0  0  0
  -20.9340  -26.5940   22.4220 C   0  0  0  0  0  2  0  0  0  0  0  0
  -19.8710  -26.2470   21.3740 C   0  0  0  0  0  2  0  0  0  0  0  0
  -18.4710  -26.3560   21.9780 C   0  0  0  0  0  2  0  0  0  0  0  0
  -19.3270  -28.4910   23.1110 C   0  0  0  0  0  0  0  0  0  0  0  0
  -19.0530  -29.7450   23.6970 C   0  0  0  0  0  3  0  0  0  0  0  0
  -17.7300  -30.2070   23.8300 C   0  0  0  0  0  3  0  0  0  0  0  0
  -16.6590  -29.4160   23.3830 C   0  0  0  0  0  3  0  0  0  0  0  0
  -16.9160  -28.1650   22.7980 C   0  0  0  0  0  3  0  0  0  0  0  0
  -25.9160  -32.3580   23.8050 C   0  0  0  0  0  3  0  0  0  0  0  0
  -26.4200  -31.5990   25.0970 C   0  0  1  0  0  0  0  0  0  0  0  0
  -25.3010  -31.3100   26.1280 C   0  0  0  0  0  1  0  0  0  0  0  0
  -27.0700  -30.2530   24.7060 C   0  0  0  0  0  1  0  0  0  0  0  0
  -27.5120  -32.4360   25.8080 C   0  0  0  0  0  1  0  0  0  0  0  0
  -25.5400  -33.7410   24.1370 N   0  0  0  0  0  0  0  0  0  0  0  0
  -25.8480  -34.8130   23.3950 C   0  0  0  0  0  0  0  0  0  0  0  0
  -26.5440  -34.7450   22.3790 O   0  0  0  0  0  0  0  0  0  0  0  0
  -24.9300  -33.8630   24.9300 H   0  0  0  0  0  0  0  0  0  0  0  0
  -24.0550  -36.5440   23.0150 C   0  0  0  0  0  1  0  0  0  0  0  0
  -25.2950  -36.1780   23.8490 C   0  0  0  0  0  3  0  0  0  0  0  0
  -27.3780  -37.1470   24.7200 C   0  0  0  0  0  1  0  0  0  0  0  0
  -26.2860  -37.2740   23.7600 N   0  0  0  0  0  0  0  0  0  0  0  0
  -25.8390  -38.1760   23.9060 H   0  0  0  0  0  0  0  0  0  0  0  0
  1  3  2  0
  2  8  1  0
  2  1  1  0
  4  2  1  0
  5  6  1  0
  6 18  1  0
  7 50  1  0
  7  6  2  0
  8  5  2  0
  9  8  1  0
  9  7  1  0
 10 16  1  0
 10 18  1  0
 11 16  1  0
 12 13  1  0
 12 11  1  0
 14 13  1  0
 14 23  1  0
 14 15  1  0
 16 15  1  0
 17 10  2  0
 18 19  1  0
 20 21  2  0
 21 40  1  0
 22 21  1  0
 22 25  1  0
 23 20  1  0
 23 24  1  0
 24 22  2  0
 25 26  1  0
 26 27  2  0
 28 31  1  0
 28 27  1  0
 29 28  2  0
 30 29  1  0
 30 25  2  0
 31 32  1  0
 32 37  2  0
 32 33  1  0
 33 34  2  0
 35 34  1  0
 35 39  1  0
 36 35  2  0
 37 36  1  0
 38 37  1  0
 40 41  1  0
 41 44  1  0
 41 43  1  0
 42 40  2  0
 45 20  1  0
 46 45  1  0
 47 45  1  0
 48 50  1  0
 48 49  1  0
 50 49  1  0
 51 55  1  0
 52 51  2  0
 52  1  1  0
 53 52  1  0
 54 53  1  0
 56 67  2  0
 57 55  1  0
 57 62  1  0
 58 66  1  0
 58 68  1  0
 59 65  1  0
 59 61  1  0
 60 66  1  0
 61 62  2  0
 61 60  1  0
 63 57  2  0
 64 63  1  0
 64 59  2  0
 65 58  1  0
 66 56  1  0
 68 70  2  0
 69 68  1  0
 71 69  1  0
 72 81  2  0
 72 77  1  0
 73 69  1  0
 73 77  1  0
 74 73  1  0
 75 76  1  0
 75 74  1  0
 76 72  1  0
 77 78  2  0
 78 79  1  0
 80 79  2  0
 81 80  1  0
 82 56  1  0
 82 87  1  0
 82 83  1  0
 83 86  1  1
 83 84  1  0
 85 83  1  0
 87 90  1  0
 88 92  1  0
 88 87  1  0
 89 88  2  0
 92 91  1  0
 94 92  1  0
 94 95  1  0
 94 93  1  0
M  ISO  4  10 100  18 100  51 101  55 101
M  END
>  <TORSDO>  (57) 
F 20

>  <SCORE>  (57) 
-12.045

>  <name>  (57) 
56

>  <ligand_id>  (57) 
56

>  <original_smiles>  (57) 
[H]OC(C(=O)N([H])c1sc(C2([H])C([H])([H])C2([H])[H])c(N([H])C(=O)N2C([H])([H])C([H])([H])C([H])([H])C([H])(n3nc(-c4c([H])c([H])c(Oc5c([H])c([H])c(F)c([H])c5F)c([H])c4[H])c(C(=O)N([H])[H])c3N([H])[H])C2([H])[H])c1[H])=C([H])Oc1c([H])c([H])c2c(c1[H])C([H])([H])N(C(=O)C([H])(N([H])C(=O)C([H])(N([H])C([H])([H])[H])C([H])([H])[H])C(C([H])([H])[H])(C([H])([H])[H])C([H])([H])[H])C([H])(C(=O)N([H])C1([H])c3c([H])c([H])c([H])c([H])c3C([H])([H])C([H])([H])C1([H])[H])C2([H])[H]

>  <smiles>  (57) 
[H]OC(C(=O)N([H])c1sc(C2([H])C([H])([H])C2([H])[H])c(N([H])C(=O)N2C([H])([H])C([H])([H])C([H])([H])C([H])(n3nc(-c4c([H])c([H])c(Oc5c([H])c([H])c(F)c([H])c5F)c([H])c4[H])c(C(=O)N([H])[H])c3N([H])[H])C2([H])[H])c1[H])=C([H])Oc1c([H])c([H])c2c(c1[H])C([H])([H])N(C(=O)C([H])(N([H])C(=O)C([H])(N([H])C([H])([H])[H])C([H])([H])[H])C(C([H])([H])[H])(C([H])([H])[H])C([H])([H])[H])C([H])(C(=O)N([H])C1([H])c3c([H])c([H])c([H])c([H])c3C([H])([H])C([H])([H])C1([H])[H])C2([H])[H]

$$$$
57:0:0
     RDKit          3D

100109  0  0  1  0  0  0  0  0999 V2000
  -30.6190  -20.4930   21.4490 C   0  0  0  0  0  3  0  0  0  0  0  0
  -29.9840  -24.0940   21.3370 C   0  0  0  0  0  2  0  0  0  0  0  0
  -28.1750  -22.8680   20.0870 C   0  0  0  0  0  2  0  0  0  0  0  0
  -30.1780  -22.8450   22.2270 C   0  0  0  0  0  2  0  0  0  0  0  0
  -28.4120  -21.6430   21.0080 C   0  0  0  0  0  2  0  0  0  0  0  0
  -28.5680  -24.2250   20.7260 C   0  0  1  0  0  0  0  0  0  0  0  0
  -29.8020  -21.5990   21.5140 N   0  0  0  0  0  0  0  0  0  0  0  0
  -31.8070  -20.5260   22.0900 N   0  0  0  0  0  0  0  0  0  0  0  0
  -27.6890  -24.4650   21.7010 F   0  0  0  0  0  0  0  0  0  0  0  0
  -32.5100  -19.8140   21.9390 H   0  0  0  0  0  0  0  0  0  0  0  0
  -32.0770  -21.3060   22.6750 H   0  0  0  0  0  0  0  0  0  0  0  0
  -30.2630  -17.9910   21.3690 C   0  0  0  0  0  3  0  0  0  0  0  0
  -29.7320  -16.9600   19.2440 C   0  0  0  0  0  3  0  0  0  0  0  0
  -30.2840  -19.2480   20.7070 C   0  0  0  0  0  0  0  0  0  0  0  0
  -30.0160  -16.8120   20.6170 C   0  0  0  0  0  0  0  0  0  0  0  0
  -30.0420  -19.2420   19.3110 C   0  0  0  0  0  0  0  0  0  0  0  0
  -29.7400  -18.1430   18.6040 N   0  0  0  0  0  0  0  0  0  0  0  0
  -30.1390  -20.3770   18.5260 N   0  0  0  0  0  0  0  0  0  0  0  0
  -30.8940  -21.0160   18.7440 H   0  0  0  0  0  0  0  0  0  0  0  0
  -30.0940  -20.2030   17.5290 H   0  0  0  0  0  0  0  0  0  0  0  0
  -30.7020  -14.4880   20.5450 C   0  0  0  0  0  0  0  0  0  0  0  0
  -30.4000  -12.3520   19.3690 C   0  0  0  0  0  2  0  0  0  0  0  0
  -29.4800  -12.5720   18.1520 C   0  0  0  0  0  2  0  0  0  0  0  0
  -27.9950  -12.4470   18.5520 C   0  0  0  0  0  2  0  0  0  0  0  0
  -27.6420  -13.2720   19.8160 C   0  0  0  0  0  3  0  0  0  0  0  0
  -28.6750  -13.0390   20.9450 C   0  0  0  0  0  2  0  0  0  0  0  0
  -30.0180  -13.3180   20.4110 N   0  0  0  0  0  0  0  0  0  0  0  0
  -31.7990  -14.6890   20.0220 O   0  0  0  0  0  0  0  0  0  0  0  0
  -30.0580  -15.4930   21.1750 N   0  0  0  0  0  0  0  0  0  0  0  0
  -29.2820  -15.2250   21.7650 H   0  0  0  0  0  0  0  0  0  0  0  0
  -25.2300  -13.8870   20.4750 C   0  0  0  0  0  0  0  0  0  0  0  0
  -24.1550  -13.1210   20.8360 C   0  0  0  0  0  0  0  0  0  0  0  0
  -24.6150  -11.7670   20.8240 C   0  0  0  0  0  0  0  0  0  0  0  0
  -26.2760  -13.0010   20.2660 N   0  0  0  0  0  0  0  0  0  0  0  0
  -25.9070  -11.7210   20.5340 N   0  0  0  0  0  0  0  0  0  0  0  0
  -23.8830  -10.5080   21.0200 C   0  0  0  0  0  0  0  0  0  0  0  0
  -24.3010   -9.5470   21.9670 C   0  0  0  0  0  3  0  0  0  0  0  0
  -23.5680   -8.3540   22.1490 C   0  0  0  0  0  3  0  0  0  0  0  0
  -22.4020   -8.1130   21.3830 C   0  0  0  0  0  0  0  0  0  0  0  0
  -22.0060   -9.0610   20.4230 C   0  0  0  0  0  3  0  0  0  0  0  0
  -22.7400  -10.2450   20.2400 C   0  0  0  0  0  3  0  0  0  0  0  0
  -21.6460   -6.9680   21.4650 O   0  0  0  0  0  0  0  0  0  0  0  0
  -21.5830   -6.2340   22.6230 C   0  0  0  0  0  0  0  0  0  0  0  0
  -21.1410   -6.7960   23.8390 C   0  0  0  0  0  3  0  0  0  0  0  0
  -21.0210   -5.9880   24.9880 C   0  0  0  0  0  3  0  0  0  0  0  0
  -21.3390   -4.6170   24.9220 C   0  0  0  0  0  0  0  0  0  0  0  0
  -21.7750   -4.0550   23.7110 C   0  0  0  0  0  3  0  0  0  0  0  0
  -21.8960   -4.8600   22.5630 C   0  0  0  0  0  0  0  0  0  0  0  0
  -22.2950   -4.3060   21.3950 F   0  0  0  0  0  0  0  0  0  0  0  0
  -21.2180   -3.8410   26.0260 F   0  0  0  0  0  0  0  0  0  0  0  0
  -22.7540  -13.6020   21.0800 C   0  0  0  0  0  0  0  0  0  0  0  0
  -22.0090  -12.9150   21.9420 N   0  0  0  0  0  0  0  0  0  0  0  0
  -22.3270  -14.6240   20.5490 O   0  0  0  0  0  0  0  0  0  0  0  0
  -22.3620  -12.0890   22.4040 H   0  0  0  0  0  0  0  0  0  0  0  0
  -21.0740  -13.2280   22.1490 H   0  0  0  0  0  0  0  0  0  0  0  0
  -25.4080  -15.2570   20.2860 N   0  0  0  0  0  0  0  0  0  0  0  0
  -24.6580  -15.9330   20.3740 H   0  0  0  0  0  0  0  0  0  0  0  0
  -26.2770  -15.6780   19.9860 H   0  0  0  0  0  0  0  0  0  0  0  0
  -28.5050  -25.3870   19.6810 C   0  0  0  0  0  2  0  0  0  0  0  0
  -28.4080  -26.7190   20.2330 O   0  0  0  0  0  0  0  0  0  0  0  0
  -24.5680  -31.9140   23.2370 C   0  0  0  0  0  0  0  0  0  0  0  0
  -27.2110  -27.4210   20.2050 C   0  0  0  0  0  0  0  0  0  0  0  0
  -23.3680  -30.5100   21.5950 C   0  0  0  0  0  3  0  0  0  0  0  0
  -24.8220  -28.9650   20.1900 C   0  0  0  0  0  0  0  0  0  0  0  0
  -25.9000  -30.8550   21.4140 C   0  0  0  0  0  2  0  0  0  0  0  0
  -25.9830  -29.4790   20.7810 C   0  0  0  0  0  0  0  0  0  0  0  0
  -27.1750  -28.7180   20.7780 C   0  0  0  0  0  3  0  0  0  0  0  0
  -26.0180  -26.9220   19.6260 C   0  0  0  0  0  3  0  0  0  0  0  0
  -24.8400  -27.6860   19.6120 C   0  0  0  0  0  3  0  0  0  0  0  0
  -23.5840  -29.8290   20.2180 C   0  0  0  0  0  2  0  0  0  0  0  0
  -24.6300  -31.1090   22.1380 N   0  0  0  0  0  0  0  0  0  0  0  0
  -23.4840  -32.1910   23.7700 O   0  0  0  0  0  0  0  0  0  0  0  0
  -22.7100  -29.4900   22.5540 C   0  0  0  0  0  0  0  0  0  0  0  0
  -21.3850  -29.3130   22.4250 N   0  0  0  0  0  0  0  0  0  0  0  0
  -23.3890  -28.8660   23.3760 O   0  0  0  0  0  0  0  0  0  0  0  0
  -20.8970  -29.8680   21.7360 H   0  0  0  0  0  0  0  0  0  0  0  0
  -18.0050  -28.1430   22.9300 C   0  0  0  0  0  0  0  0  0  0  0  0
  -20.5640  -28.3800   23.1980 C   0  0  0  0  0  3  0  0  0  0  0  0
  -20.6540  -26.9490   22.6200 C   0  0  0  0  0  2  0  0  0  0  0  0
  -19.5470  -26.6350   21.6070 C   0  0  0  0  0  2  0  0  0  0  0  0
  -18.1680  -26.7920   22.2550 C   0  0  0  0  0  2  0  0  0  0  0  0
  -19.1300  -28.8950   23.3600 C   0  0  0  0  0  0  0  0  0  0  0  0
  -18.9250  -30.1600   23.9520 C   0  0  0  0  0  3  0  0  0  0  0  0
  -17.6250  -30.6740   24.1200 C   0  0  0  0  0  3  0  0  0  0  0  0
  -16.5130  -29.9180   23.7080 C   0  0  0  0  0  3  0  0  0  0  0  0
  -16.7040  -28.6550   23.1200 C   0  0  0  0  0  3  0  0  0  0  0  0
  -25.8530  -32.5470   23.8590 C   0  0  0  0  0  3  0  0  0  0  0  0
  -25.5440  -33.9480   24.1800 N   0  0  0  0  0  0  0  0  0  0  0  0
  -25.8880  -34.9960   23.4210 C   0  0  0  0  0  0  0  0  0  0  0  0
  -26.5700  -34.8890   22.3980 O   0  0  0  0  0  0  0  0  0  0  0  0
  -24.9460  -34.1100   24.9790 H   0  0  0  0  0  0  0  0  0  0  0  0
  -24.1820  -36.7980   23.0190 C   0  0  0  0  0  1  0  0  0  0  0  0
  -25.3960  -36.3860   23.8660 C   0  0  0  0  0  3  0  0  0  0  0  0
  -27.5110  -37.2570   24.7570 C   0  0  0  0  0  1  0  0  0  0  0  0
  -26.4350  -37.4340   23.7870 N   0  0  0  0  0  0  0  0  0  0  0  0
  -26.0270  -38.3550   23.9260 H   0  0  0  0  0  0  0  0  0  0  0  0
  -26.3670  -31.7830   25.1410 C   0  0  1  0  0  0  0  0  0  0  0  0
  -25.2710  -31.5500   26.2050 C   0  0  0  0  0  1  0  0  0  0  0  0
  -26.9550  -30.4040   24.7570 C   0  0  0  0  0  1  0  0  0  0  0  0
  -27.5140  -32.5830   25.8050 C   0  0  0  0  0  1  0  0  0  0  0  0
  1  7  1  0
  1  8  1  0
  2  4  1  0
  3  6  1  0
  3  5  1  0
  5  7  1  0
  6  2  1  0
  6  9  1  1
  7  4  1  0
  8 11  1  0
 10  8  1  0
 13 15  1  0
 14 12  1  0
 14  1  1  0
 15 29  1  0
 15 12  2  0
 16 14  2  0
 17 13  2  0
 17 16  1  0
 18 19  1  0
 18 16  1  0
 20 18  1  0
 21 29  1  0
 22 27  1  0
 23 24  1  0
 23 22  1  0
 25 24  1  0
 25 34  1  0
 25 26  1  0
 27 21  1  0
 27 26  1  0
 28 21  2  0
 29 30  1  0
 31 32  2  0
 32 51  1  0
 33 32  1  0
 33 36  1  0
 34 31  1  0
 34 35  1  0
 35 33  2  0
 36 37  1  0
 37 38  2  0
 39 42  1  0
 39 38  1  0
 40 39  2  0
 41 40  1  0
 41 36  2  0
 42 43  1  0
 43 44  1  0
 44 45  2  0
 46 45  1  0
 46 50  1  0
 47 46  2  0
 48 43  2  0
 48 47  1  0
 49 48  1  0
 51 52  1  0
 52 55  1  0
 52 54  1  0
 53 51  2  0
 56 57  1  0
 56 31  1  0
 58 56  1  0
 59 60  1  0
 59  6  1  0
 61 72  2  0
 62 60  1  0
 62 67  1  0
 63 71  1  0
 63 73  1  0
 64 70  1  0
 64 66  1  0
 65 71  1  0
 66 65  1  0
 67 66  2  0
 68 62  2  0
 69 68  1  0
 69 64  2  0
 70 63  1  0
 71 61  1  0
 73 75  2  0
 74 73  1  0
 76 74  1  0
 77 86  2  0
 77 82  1  0
 78 74  1  0
 78 82  1  0
 79 78  1  0
 80 81  1  0
 80 79  1  0
 81 77  1  0
 82 83  2  0
 83 84  1  0
 85 84  2  0
 86 85  1  0
 87 61  1  0
 87 88  1  0
 87 97  1  0
 88 91  1  0
 89 93  1  0
 89 88  1  0
 90 89  2  0
 93 92  1  0
 95 93  1  0
 95 96  1  0
 95 94  1  0
 97100  1  1
 97 98  1  0
 99 97  1  0
M  ISO  4  21 100  29 100  59 101  60 101
M  END
>  <TORSDO>  (58) 
F 18

>  <SCORE>  (58) 
-15.378

>  <name>  (58) 
57

>  <ligand_id>  (58) 
57

>  <original_smiles>  (58) 
[H]c1nc(N([H])[H])c(C(N2C([H])([H])C([H])([H])C(F)(C([H])([H])Oc3c([H])c([H])c4c(c3[H])C([H])([H])N(C(=O)C([H])(N([H])C(=O)C([H])(N([H])C([H])([H])[H])C([H])([H])[H])C(C([H])([H])[H])(C([H])([H])[H])C([H])([H])[H])C([H])(C(=O)N([H])C3([H])c5c([H])c([H])c([H])c([H])c5C([H])([H])C([H])([H])C3([H])[H])C4([H])[H])C([H])([H])C2([H])[H])=[N+]([H])[H])c([H])c1N([H])C(=O)N1C([H])([H])C([H])([H])C([H])([H])C([H])(n2nc(-c3c([H])c([H])c(Oc4c([H])c([H])c(F)c([H])c4F)c([H])c3[H])c(C(=O)N([H])[H])c2N([H])[H])C1([H])[H]

>  <smiles>  (58) 
[H]c1nc(N([H])[H])c(C(N2C([H])([H])C([H])([H])C(F)(C([H])([H])Oc3c([H])c([H])c4c(c3[H])C([H])([H])N(C(=O)C([H])(N([H])C(=O)C([H])(N([H])C([H])([H])[H])C([H])([H])[H])C(C([H])([H])[H])(C([H])([H])[H])C([H])([H])[H])C([H])(C(=O)N([H])C3([H])c5c([H])c([H])c([H])c([H])c5C([H])([H])C([H])([H])C3([H])[H])C4([H])[H])C([H])([H])C2([H])[H])=[N+]([H])[H])c([H])c1N([H])C(=O)N1C([H])([H])C([H])([H])C([H])([H])C([H])(n2nc(-c3c([H])c([H])c(Oc4c([H])c([H])c(F)c([H])c4F)c([H])c3[H])c(C(=O)N([H])[H])c2N([H])[H])C1([H])[H]

$$$$
58:0:0
     RDKit          3D

 95103  0  0  1  0  0  0  0  0999 V2000
  -29.6990  -20.8810   21.5860 C   0  0  0  0  0  3  0  0  0  0  0  0
  -30.0500  -19.4770   21.5800 C   0  0  0  0  0  0  0  0  0  0  0  0
  -29.8170  -18.9310   20.3320 C   0  0  0  0  0  0  0  0  0  0  0  0
  -29.2240  -21.2000   20.3420 C   0  0  0  0  0  0  0  0  0  0  0  0
  -29.2750  -20.0100   19.5730 O   0  0  0  0  0  0  0  0  0  0  0  0
  -28.8150  -23.7540   20.4130 C   0  0  0  0  0  0  0  0  0  0  0  0
  -28.6900  -22.4450   19.9300 N   0  0  0  0  0  0  0  0  0  0  0  0
  -29.6680  -24.0390   21.2590 O   0  0  0  0  0  0  0  0  0  0  0  0
  -28.0590  -22.3750   19.1440 H   0  0  0  0  0  0  0  0  0  0  0  0
  -27.8410  -24.9360   19.8950 C   0  0  0  0  0  2  0  0  0  0  0  0
  -28.1240  -26.4040   20.2000 O   0  0  0  0  0  0  0  0  0  0  0  0
  -24.5370  -31.9750   23.2560 C   0  0  0  0  0  0  0  0  0  0  0  0
  -27.0630  -27.3560   20.1280 C   0  0  0  0  0  0  0  0  0  0  0  0
  -23.3110  -30.6120   21.6070 C   0  0  0  0  0  3  0  0  0  0  0  0
  -24.7370  -29.0650   20.1440 C   0  0  0  0  0  0  0  0  0  0  0  0
  -25.8620  -30.8800   21.4230 C   0  0  0  0  0  2  0  0  0  0  0  0
  -25.9190  -29.5060   20.7520 C   0  0  0  0  0  0  0  0  0  0  0  0
  -27.0830  -28.6620   20.7370 C   0  0  0  0  0  3  0  0  0  0  0  0
  -25.8620  -27.0120   19.4640 C   0  0  0  0  0  3  0  0  0  0  0  0
  -24.7160  -27.8280   19.4870 C   0  0  0  0  0  3  0  0  0  0  0  0
  -23.5130  -29.9580   20.2150 C   0  0  0  0  0  2  0  0  0  0  0  0
  -24.5890  -31.1750   22.1500 N   0  0  0  0  0  0  0  0  0  0  0  0
  -23.4590  -32.2580   23.7990 O   0  0  0  0  0  0  0  0  0  0  0  0
  -22.6410  -29.5900   22.5580 C   0  0  0  0  0  0  0  0  0  0  0  0
  -21.3170  -29.4050   22.4170 N   0  0  0  0  0  0  0  0  0  0  0  0
  -23.3130  -28.9670   23.3840 O   0  0  0  0  0  0  0  0  0  0  0  0
  -20.8320  -29.9570   21.7230 H   0  0  0  0  0  0  0  0  0  0  0  0
  -17.9420  -28.1780   22.8790 C   0  0  0  0  0  0  0  0  0  0  0  0
  -20.4950  -28.4630   23.1790 C   0  0  0  0  0  3  0  0  0  0  0  0
  -20.6160  -27.0300   22.6100 C   0  0  0  0  0  2  0  0  0  0  0  0
  -19.5310  -26.6960   21.5810 C   0  0  0  0  0  2  0  0  0  0  0  0
  -18.1400  -26.8310   22.2060 C   0  0  0  0  0  2  0  0  0  0  0  0
  -19.0480  -28.9520   23.3220 C   0  0  0  0  0  0  0  0  0  0  0  0
  -18.8090  -30.2120   23.9100 C   0  0  0  0  0  3  0  0  0  0  0  0
  -17.4970  -30.7000   24.0610 C   0  0  0  0  0  3  0  0  0  0  0  0
  -16.4050  -29.9240   23.6340 C   0  0  0  0  0  3  0  0  0  0  0  0
  -16.6290  -28.6650   23.0490 C   0  0  0  0  0  3  0  0  0  0  0  0
  -25.8290  -32.5890   23.8780 C   0  0  0  0  0  3  0  0  0  0  0  0
  -25.5370  -33.9920   24.2120 N   0  0  0  0  0  0  0  0  0  0  0  0
  -25.8700  -35.0420   23.4500 C   0  0  0  0  0  0  0  0  0  0  0  0
  -26.5220  -34.9340   22.4080 O   0  0  0  0  0  0  0  0  0  0  0  0
  -24.9570  -34.1510   25.0220 H   0  0  0  0  0  0  0  0  0  0  0  0
  -24.1350  -36.8410   23.1540 C   0  0  0  0  0  1  0  0  0  0  0  0
  -25.4060  -36.4360   23.9170 C   0  0  0  0  0  3  0  0  0  0  0  0
  -27.5700  -37.3270   24.6650 C   0  0  0  0  0  1  0  0  0  0  0  0
  -26.4370  -37.4850   23.7560 N   0  0  0  0  0  0  0  0  0  0  0  0
  -26.0380  -38.4090   23.9040 H   0  0  0  0  0  0  0  0  0  0  0  0
  -26.3320  -31.8100   25.1550 C   0  0  1  0  0  0  0  0  0  0  0  0
  -25.2330  -31.5850   26.2190 C   0  0  0  0  0  1  0  0  0  0  0  0
  -26.9000  -30.4260   24.7680 C   0  0  0  0  0  1  0  0  0  0  0  0
  -27.4900  -32.5920   25.8200 C   0  0  0  0  0  1  0  0  0  0  0  0
  -30.6570  -18.7720   22.7380 C   0  0  0  0  0  0  0  0  0  0  0  0
  -31.0410  -17.5680   22.6850 N   0  0  0  0  0  0  0  0  0  0  0  0
  -30.8730  -17.1620   21.7700 H   0  0  0  0  0  0  0  0  0  0  0  0
  -30.1850  -18.8030   25.2500 C   0  0  0  0  0  1  0  0  0  0  0  0
  -30.8010  -19.5380   24.0500 C   0  0  0  0  0  2  0  0  0  0  0  0
  -30.1430  -17.5420   19.6090 C   0  0  0  0  0  2  0  0  0  0  0  0
  -30.6620  -14.9730   19.9560 C   0  0  0  0  0  0  0  0  0  0  0  0
  -30.4130  -12.6860   18.9660 C   0  0  0  0  0  2  0  0  0  0  0  0
  -29.4210  -12.7670   17.7840 C   0  0  0  0  0  2  0  0  0  0  0  0
  -27.9730  -12.5880   18.2800 C   0  0  0  0  0  2  0  0  0  0  0  0
  -27.6600  -13.4590   19.5270 C   0  0  0  0  0  3  0  0  0  0  0  0
  -28.7740  -13.3750   20.5940 C   0  0  0  0  0  2  0  0  0  0  0  0
  -30.0350  -13.7400   19.9400 N   0  0  0  0  0  0  0  0  0  0  0  0
  -31.8220  -15.0560   19.5420 O   0  0  0  0  0  0  0  0  0  0  0  0
  -29.9160  -16.1300   20.1910 N   0  0  0  0  0  0  0  0  0  0  0  0
  -28.9900  -15.9670   20.5570 H   0  0  0  0  0  0  0  0  0  0  0  0
  -25.3170  -14.0370   20.3900 C   0  0  0  0  0  0  0  0  0  0  0  0
  -24.2690  -13.2570   20.8020 C   0  0  0  0  0  0  0  0  0  0  0  0
  -24.7260  -11.9060   20.7210 C   0  0  0  0  0  0  0  0  0  0  0  0
  -26.3440  -13.1600   20.0810 N   0  0  0  0  0  0  0  0  0  0  0  0
  -25.9990  -11.8720   20.3430 N   0  0  0  0  0  0  0  0  0  0  0  0
  -24.0060  -10.6430   20.9250 C   0  0  0  0  0  0  0  0  0  0  0  0
  -24.4640   -9.6710   21.8430 C   0  0  0  0  0  3  0  0  0  0  0  0
  -23.7430   -8.4730   22.0360 C   0  0  0  0  0  3  0  0  0  0  0  0
  -22.5500   -8.2370   21.3120 C   0  0  0  0  0  0  0  0  0  0  0  0
  -22.1110   -9.1970   20.3830 C   0  0  0  0  0  3  0  0  0  0  0  0
  -22.8310  -10.3870   20.1880 C   0  0  0  0  0  3  0  0  0  0  0  0
  -21.7970   -7.0920   21.4150 O   0  0  0  0  0  0  0  0  0  0  0  0
  -21.7470   -6.3670   22.5790 C   0  0  0  0  0  0  0  0  0  0  0  0
  -21.2830   -6.9280   23.7890 C   0  0  0  0  0  3  0  0  0  0  0  0
  -21.1830   -6.1270   24.9440 C   0  0  0  0  0  3  0  0  0  0  0  0
  -21.5370   -4.7650   24.8900 C   0  0  0  0  0  0  0  0  0  0  0  0
  -21.9930   -4.2040   23.6850 C   0  0  0  0  0  3  0  0  0  0  0  0
  -22.0950   -5.0020   22.5320 C   0  0  0  0  0  0  0  0  0  0  0  0
  -22.5160   -4.4490   21.3690 F   0  0  0  0  0  0  0  0  0  0  0  0
  -21.4330   -3.9940   25.9980 F   0  0  0  0  0  0  0  0  0  0  0  0
  -22.8910  -13.7330   21.1550 C   0  0  0  0  0  0  0  0  0  0  0  0
  -22.2060  -13.0240   22.0450 N   0  0  0  0  0  0  0  0  0  0  0  0
  -22.4320  -14.7700   20.6770 O   0  0  0  0  0  0  0  0  0  0  0  0
  -22.5910  -12.1860   22.4530 H   0  0  0  0  0  0  0  0  0  0  0  0
  -21.2840  -13.3260   22.3240 H   0  0  0  0  0  0  0  0  0  0  0  0
  -25.4720  -15.4090   20.2290 N   0  0  0  0  0  0  0  0  0  0  0  0
  -24.7070  -16.0550   20.3860 H   0  0  0  0  0  0  0  0  0  0  0  0
  -26.2910  -15.8550   19.8340 H   0  0  0  0  0  0  0  0  0  0  0  0
  2  1  1  0
  2 52  1  0
  3  2  2  0
  4  1  2  0
  5  3  1  0
  5  4  1  0
  6  8  2  0
  7  4  1  0
  7  6  1  0
  9  7  1  0
 10 11  1  0
 10  6  1  0
 12 23  2  0
 13 11  1  0
 13 18  1  0
 14 22  1  0
 14 24  1  0
 15 21  1  0
 15 17  1  0
 16 22  1  0
 17 16  1  0
 18 17  2  0
 19 20  1  0
 19 13  2  0
 20 15  2  0
 21 14  1  0
 22 12  1  0
 24 26  2  0
 25 24  1  0
 27 25  1  0
 28 37  2  0
 28 33  1  0
 29 25  1  0
 29 33  1  0
 30 29  1  0
 31 32  1  0
 31 30  1  0
 32 28  1  0
 33 34  2  0
 34 35  1  0
 36 35  2  0
 37 36  1  0
 38 12  1  0
 38 39  1  0
 38 48  1  0
 39 42  1  0
 40 44  1  0
 40 39  1  0
 41 40  2  0
 44 43  1  0
 46 47  1  0
 46 44  1  0
 46 45  1  0
 48 51  1  1
 48 49  1  0
 50 48  1  0
 52 56  1  0
 53 52  2  0
 54 53  1  0
 56 55  1  0
 57 66  1  0
 57  3  1  0
 58 66  1  0
 59 64  1  0
 60 61  1  0
 60 59  1  0
 62 61  1  0
 62 71  1  0
 62 63  1  0
 64 58  1  0
 64 63  1  0
 65 58  2  0
 66 67  1  0
 68 69  2  0
 69 88  1  0
 70 69  1  0
 70 73  1  0
 71 72  1  0
 71 68  1  0
 72 70  2  0
 73 74  1  0
 74 75  2  0
 76 79  1  0
 76 75  1  0
 77 76  2  0
 78 77  1  0
 78 73  2  0
 79 80  1  0
 80 81  1  0
 81 82  2  0
 83 82  1  0
 83 87  1  0
 84 83  2  0
 85 80  2  0
 85 84  1  0
 86 85  1  0
 88 89  1  0
 89 92  1  0
 89 91  1  0
 90 88  2  0
 93 94  1  0
 93 68  1  0
 95 93  1  0
M  ISO  4  10 101  11 101  58 100  66 100
M  END
>  <TORSDO>  (59) 
F 21

>  <SCORE>  (59) 
-11.373

>  <name>  (59) 
58

>  <ligand_id>  (59) 
58

>  <original_smiles>  (59) 
[H]N=C(c1c(C([H])([H])N([H])C(=O)N2C([H])([H])C([H])([H])C([H])([H])C([H])(n3nc(-c4c([H])c([H])c(Oc5c([H])c([H])c(F)c([H])c5F)c([H])c4[H])c(C(=O)N([H])[H])c3N([H])[H])C2([H])[H])oc(N([H])C(=O)C([H])([H])Oc2c([H])c([H])c3c(c2[H])C([H])([H])N(C(=O)C([H])(N([H])C(=O)C([H])(N([H])C([H])([H])[H])C([H])([H])[H])C(C([H])([H])[H])(C([H])([H])[H])C([H])([H])[H])C([H])(C(=O)N([H])C2([H])c4c([H])c([H])c([H])c([H])c4C([H])([H])C([H])([H])C2([H])[H])C3([H])[H])c1[H])C([H])([H])C([H])([H])[H]

>  <smiles>  (59) 
[H]N=C(c1c(C([H])([H])N([H])C(=O)N2C([H])([H])C([H])([H])C([H])([H])C([H])(n3nc(-c4c([H])c([H])c(Oc5c([H])c([H])c(F)c([H])c5F)c([H])c4[H])c(C(=O)N([H])[H])c3N([H])[H])C2([H])[H])oc(N([H])C(=O)C([H])([H])Oc2c([H])c([H])c3c(c2[H])C([H])([H])N(C(=O)C([H])(N([H])C(=O)C([H])(N([H])C([H])([H])[H])C([H])([H])[H])C(C([H])([H])[H])(C([H])([H])[H])C([H])([H])[H])C([H])(C(=O)N([H])C2([H])c4c([H])c([H])c([H])c([H])c4C([H])([H])C([H])([H])C2([H])[H])C3([H])[H])c1[H])C([H])([H])C([H])([H])[H]

$$$$
59:0:0
     RDKit          3D

 98107  0  0  1  0  0  0  0  0999 V2000
  -28.1850  -23.7340   21.4770 C   0  0  0  0  0  3  0  0  0  0  0  0
  -29.0560  -24.0000   20.4940 C   0  0  0  0  0  0  0  0  0  0  0  0
  -30.6590  -20.3150   20.2670 C   0  0  0  0  0  0  0  0  0  0  0  0
  -28.0990  -22.3910   22.1830 C   0  0  0  0  0  2  0  0  0  0  0  0
  -30.0230  -22.8220   20.0310 C   0  0  0  0  0  2  0  0  0  0  0  0
  -29.3590  -21.5000   22.0340 C   0  0  0  0  0  2  0  0  0  0  0  0
  -29.9100  -21.4320   20.6750 N   0  0  0  0  0  0  0  0  0  0  0  0
  -31.6690  -20.5100   19.5830 O   0  0  0  0  0  0  0  0  0  0  0  0
  -29.1450  -18.0150   18.4860 C   0  0  0  0  0  3  0  0  0  0  0  0
  -31.4740  -17.4570   18.9280 C   0  0  0  0  0  3  0  0  0  0  0  0
  -30.2320  -18.8090   20.4900 C   0  0  0  0  0  3  0  0  0  0  0  0
  -29.0270  -18.5300   19.7980 C   0  0  0  0  0  0  0  0  0  0  0  0
  -30.4100  -17.6040   18.0080 C   0  0  0  0  0  0  0  0  0  0  0  0
  -31.2010  -17.7110   20.2950 C   0  0  0  0  0  3  0  0  0  0  0  0
  -27.6650  -18.9810   20.2920 C   0  0  0  0  0  1  0  0  0  0  0  0
  -31.8620  -15.2320   20.7340 C   0  0  0  0  0  0  0  0  0  0  0  0
  -31.6030  -12.9840   19.6810 C   0  0  0  0  0  2  0  0  0  0  0  0
  -30.7780  -13.1340   18.3820 C   0  0  0  0  0  2  0  0  0  0  0  0
  -29.2690  -13.0570   18.6800 C   0  0  0  0  0  2  0  0  0  0  0  0
  -28.8510  -13.9490   19.8800 C   0  0  0  0  0  3  0  0  0  0  0  0
  -29.8000  -13.7650   21.0850 C   0  0  0  0  0  2  0  0  0  0  0  0
  -31.1670  -14.0440   20.6250 N   0  0  0  0  0  0  0  0  0  0  0  0
  -33.0600  -15.2640   20.4350 O   0  0  0  0  0  0  0  0  0  0  0  0
  -31.1810  -16.4100   21.0320 N   0  0  0  0  0  0  0  0  0  0  0  0
  -30.3300  -16.2570   21.5550 H   0  0  0  0  0  0  0  0  0  0  0  0
  -26.4370  -14.6750   20.3550 C   0  0  0  0  0  0  0  0  0  0  0  0
  -25.2990  -13.9680   20.6280 C   0  0  0  0  0  0  0  0  0  0  0  0
  -25.6870  -12.5930   20.6610 C   0  0  0  0  0  0  0  0  0  0  0  0
  -27.4510  -13.7390   20.2370 N   0  0  0  0  0  0  0  0  0  0  0  0
  -26.9980  -12.4810   20.4830 N   0  0  0  0  0  0  0  0  0  0  0  0
  -24.8740  -11.3770   20.7990 C   0  0  0  0  0  0  0  0  0  0  0  0
  -25.1590  -10.4070   21.7850 C   0  0  0  0  0  3  0  0  0  0  0  0
  -24.3510   -9.2570   21.9100 C   0  0  0  0  0  3  0  0  0  0  0  0
  -23.2420   -9.0700   21.0500 C   0  0  0  0  0  0  0  0  0  0  0  0
  -22.9760  -10.0280   20.0560 C   0  0  0  0  0  3  0  0  0  0  0  0
  -23.7850  -11.1710   19.9280 C   0  0  0  0  0  3  0  0  0  0  0  0
  -22.4170   -7.9730   21.0840 O   0  0  0  0  0  0  0  0  0  0  0  0
  -22.1480   -7.3080   22.2540 C   0  0  0  0  0  0  0  0  0  0  0  0
  -21.5870   -7.9640   23.3700 C   0  0  0  0  0  3  0  0  0  0  0  0
  -21.2630   -7.2300   24.5290 C   0  0  0  0  0  3  0  0  0  0  0  0
  -21.4910   -5.8410   24.5690 C   0  0  0  0  0  0  0  0  0  0  0  0
  -22.0440   -5.1850   23.4550 C   0  0  0  0  0  3  0  0  0  0  0  0
  -22.3690   -5.9170   22.3000 C   0  0  0  0  0  0  0  0  0  0  0  0
  -22.8820   -5.2760   21.2210 F   0  0  0  0  0  0  0  0  0  0  0  0
  -21.1730   -5.1340   25.6780 F   0  0  0  0  0  0  0  0  0  0  0  0
  -23.9110  -14.5260   20.7520 C   0  0  0  0  0  0  0  0  0  0  0  0
  -23.0750  -13.9090   21.5780 N   0  0  0  0  0  0  0  0  0  0  0  0
  -23.5770  -15.5450   20.1500 O   0  0  0  0  0  0  0  0  0  0  0  0
  -23.3590  -13.0900   22.0960 H   0  0  0  0  0  0  0  0  0  0  0  0
  -22.1350  -14.2600   21.6950 H   0  0  0  0  0  0  0  0  0  0  0  0
  -26.6850  -16.0320   20.1770 N   0  0  0  0  0  0  0  0  0  0  0  0
  -25.9320  -16.7110   20.1990 H   0  0  0  0  0  0  0  0  0  0  0  0
  -27.5710  -16.4280   19.8910 H   0  0  0  0  0  0  0  0  0  0  0  0
  -30.5590  -17.2260   16.6790 N   0  0  0  0  0  0  0  0  0  0  0  0
  -29.8850  -17.5920   16.0130 H   0  0  0  0  0  0  0  0  0  0  0  0
  -31.4970  -17.2130   16.2910 H   0  0  0  0  0  0  0  0  0  0  0  0
  -29.0700  -25.4140   19.7540 C   0  0  0  0  0  2  0  0  0  0  0  0
  -28.8320  -26.7020   20.5000 O   0  0  0  0  0  0  0  0  0  0  0  0
  -24.7470  -31.9920   23.3330 C   0  0  0  0  0  0  0  0  0  0  0  0
  -27.6790  -27.5170   20.3720 C   0  0  0  0  0  0  0  0  0  0  0  0
  -23.6820  -30.5590   21.6280 C   0  0  0  0  0  3  0  0  0  0  0  0
  -25.2600  -29.0760   20.2610 C   0  0  0  0  0  0  0  0  0  0  0  0
  -26.2180  -30.9620   21.5790 C   0  0  0  0  0  2  0  0  0  0  0  0
  -26.3810  -29.5910   20.9220 C   0  0  0  0  0  0  0  0  0  0  0  0
  -27.5880  -28.8220   20.9690 C   0  0  0  0  0  3  0  0  0  0  0  0
  -26.5240  -27.0610   19.6980 C   0  0  0  0  0  3  0  0  0  0  0  0
  -25.3370  -27.8180   19.6430 C   0  0  0  0  0  3  0  0  0  0  0  0
  -23.9930  -29.9080   20.2550 C   0  0  0  0  0  2  0  0  0  0  0  0
  -24.8980  -31.1920   22.2370 N   0  0  0  0  0  0  0  0  0  0  0  0
  -23.6280  -32.2220   23.8130 O   0  0  0  0  0  0  0  0  0  0  0  0
  -23.0100  -29.5110   22.5480 C   0  0  0  0  0  0  0  0  0  0  0  0
  -21.6880  -29.3190   22.3900 N   0  0  0  0  0  0  0  0  0  0  0  0
  -23.6800  -28.8730   23.3670 O   0  0  0  0  0  0  0  0  0  0  0  0
  -21.2090  -29.8800   21.7010 H   0  0  0  0  0  0  0  0  0  0  0  0
  -18.3090  -28.1130   22.8370 C   0  0  0  0  0  0  0  0  0  0  0  0
  -20.8670  -28.3550   23.1280 C   0  0  0  0  0  3  0  0  0  0  0  0
  -20.9610  -26.9450   22.5020 C   0  0  0  0  0  2  0  0  0  0  0  0
  -19.8720  -26.6760   21.4600 C   0  0  0  0  0  2  0  0  0  0  0  0
  -18.4860  -26.7980   22.0970 C   0  0  0  0  0  2  0  0  0  0  0  0
  -19.4270  -28.8540   23.3040 C   0  0  0  0  0  0  0  0  0  0  0  0
  -19.2060  -30.0890   23.9490 C   0  0  0  0  0  3  0  0  0  0  0  0
  -17.9020  -30.5870   24.1300 C   0  0  0  0  0  3  0  0  0  0  0  0
  -16.7980  -29.8410   23.6810 C   0  0  0  0  0  3  0  0  0  0  0  0
  -17.0040  -28.6050   23.0410 C   0  0  0  0  0  3  0  0  0  0  0  0
  -25.9710  -32.6700   24.0220 C   0  0  0  0  0  3  0  0  0  0  0  0
  -26.4180  -31.9420   25.3490 C   0  0  1  0  0  0  0  0  0  0  0  0
  -25.2570  -31.6720   26.3330 C   0  0  0  0  0  1  0  0  0  0  0  0
  -27.0880  -30.5840   25.0310 C   0  0  0  0  0  1  0  0  0  0  0  0
  -27.4810  -32.7950   26.0790 C   0  0  0  0  0  1  0  0  0  0  0  0
  -25.6060  -34.0670   24.2990 N   0  0  0  0  0  0  0  0  0  0  0  0
  -25.9550  -35.1120   23.5360 C   0  0  0  0  0  0  0  0  0  0  0  0
  -26.6820  -35.0020   22.5450 O   0  0  0  0  0  0  0  0  0  0  0  0
  -24.9650  -34.2240   25.0620 H   0  0  0  0  0  0  0  0  0  0  0  0
  -24.1970  -36.8480   23.0540 C   0  0  0  0  0  1  0  0  0  0  0  0
  -25.4100  -36.4990   23.9330 C   0  0  0  0  0  3  0  0  0  0  0  0
  -27.4810  -37.4630   24.8360 C   0  0  0  0  0  1  0  0  0  0  0  0
  -26.4190  -37.5760   23.8390 N   0  0  0  0  0  0  0  0  0  0  0  0
  -25.9830  -38.4890   23.9410 H   0  0  0  0  0  0  0  0  0  0  0  0
  1  4  1  0
  2  1  2  0
  3  7  1  0
  5  2  1  0
  5  7  1  0
  6  4  1  0
  7  6  1  0
  8  3  2  0
  9 12  2  0
 10 14  1  0
 11  3  1  0
 12 15  1  0
 12 11  1  0
 13  9  1  0
 13 10  2  0
 14 11  1  0
 14 24  1  0
 16 24  1  0
 17 22  1  0
 18 19  1  0
 18 17  1  0
 20 19  1  0
 20 29  1  0
 20 21  1  0
 22 16  1  0
 22 21  1  0
 23 16  2  0
 24 25  1  0
 26 27  2  0
 27 28  1  0
 27 46  1  0
 28 31  1  0
 29 26  1  0
 29 30  1  0
 30 28  2  0
 31 32  1  0
 32 33  2  0
 34 37  1  0
 34 33  1  0
 35 34  2  0
 36 35  1  0
 36 31  2  0
 37 38  1  0
 38 43  2  0
 38 39  1  0
 39 40  2  0
 40 41  1  0
 41 45  1  0
 42 41  2  0
 43 42  1  0
 44 43  1  0
 46 47  1  0
 47 50  1  0
 47 49  1  0
 48 46  2  0
 51 52  1  0
 51 26  1  0
 53 51  1  0
 54 13  1  0
 55 54  1  0
 56 54  1  0
 57  2  1  0
 57 58  1  0
 59 70  2  0
 60 58  1  0
 60 65  1  0
 61 69  1  0
 61 71  1  0
 62 64  1  0
 63 69  1  0
 64 65  2  0
 64 63  1  0
 66 60  2  0
 67 66  1  0
 67 62  2  0
 68 62  1  0
 68 61  1  0
 69 59  1  0
 71 73  2  0
 72 71  1  0
 74 72  1  0
 75 84  2  0
 75 80  1  0
 76 72  1  0
 76 80  1  0
 77 76  1  0
 78 79  1  0
 78 77  1  0
 79 75  1  0
 80 81  2  0
 81 82  1  0
 83 82  2  0
 84 83  1  0
 85 59  1  0
 85 90  1  0
 85 86  1  0
 86 89  1  1
 86 87  1  0
 88 86  1  0
 90 93  1  0
 91 95  1  0
 91 90  1  0
 92 91  2  0
 95 94  1  0
 97 95  1  0
 97 98  1  0
 97 96  1  0
M  ISO  4  16 100  24 100  57 101  58 101
M  END
>  <TORSDO>  (60) 
F 19

>  <SCORE>  (60) 
-12.279

>  <name>  (60) 
59

>  <ligand_id>  (60) 
59

>  <original_smiles>  (60) 
[H]C1=C(C([H])([H])Oc2c([H])c([H])c3c(c2[H])C([H])([H])N(C(=O)C([H])(N([H])C(=O)C([H])(N([H])C([H])([H])[H])C([H])([H])[H])C(C([H])([H])[H])(C([H])([H])[H])C([H])([H])[H])C([H])(C(=O)N([H])C2([H])c4c([H])c([H])c([H])c([H])c4C([H])([H])C([H])([H])C2([H])[H])C3([H])[H])C([H])([H])N(C(=O)c2c(N([H])C(=O)N3C([H])([H])C([H])([H])C([H])([H])C([H])(n4nc(-c5c([H])c([H])c(Oc6c([H])c([H])c(F)c([H])c6F)c([H])c5[H])c(C(=O)N([H])[H])c4N([H])[H])C3([H])[H])c([H])c(N([H])[H])c([H])c2C([H])([H])[H])C([H])([H])C1([H])[H]

>  <smiles>  (60) 
[H]C1=C(C([H])([H])Oc2c([H])c([H])c3c(c2[H])C([H])([H])N(C(=O)C([H])(N([H])C(=O)C([H])(N([H])C([H])([H])[H])C([H])([H])[H])C(C([H])([H])[H])(C([H])([H])[H])C([H])([H])[H])C([H])(C(=O)N([H])C2([H])c4c([H])c([H])c([H])c([H])c4C([H])([H])C([H])([H])C2([H])[H])C3([H])[H])C([H])([H])N(C(=O)c2c(N([H])C(=O)N3C([H])([H])C([H])([H])C([H])([H])C([H])(n4nc(-c5c([H])c([H])c(Oc6c([H])c([H])c(F)c([H])c6F)c([H])c5[H])c(C(=O)N([H])[H])c4N([H])[H])C3([H])[H])c([H])c(N([H])[H])c([H])c2C([H])([H])[H])C([H])([H])C1([H])[H]

$$$$
60:0:0
     RDKit          3D

 97105  0  0  1  0  0  0  0  0999 V2000
  -29.3200  -20.3280   19.7300 C   0  0  0  0  0  0  0  0  0  0  0  0
  -29.5520  -21.5990   20.1610 N   0  0  0  0  0  0  0  0  0  0  0  0
  -28.4780  -20.1480   18.7000 N   0  0  0  0  0  4  0  0  0  0  0  0
  -30.2330  -21.7630   20.8920 H   0  0  0  0  0  0  0  0  0  0  0  0
  -28.3230  -19.2140   18.3520 H   0  0  0  0  0  0  0  0  0  0  0  0
  -28.0080  -20.8980   18.2250 H   0  0  0  0  0  0  0  0  0  0  0  0
  -29.2010  -17.8510   20.4050 C   0  0  0  0  0  3  0  0  0  0  0  0
  -29.9130  -19.0860   20.2830 C   0  0  0  0  0  0  0  0  0  0  0  0
  -31.2200  -18.8440   20.6310 C   0  0  0  0  0  0  0  0  0  0  0  0
  -30.1470  -16.9200   20.7450 C   0  0  0  0  0  0  0  0  0  0  0  0
  -31.3710  -17.5020   20.9130 O   0  0  0  0  0  0  0  0  0  0  0  0
  -30.6690  -14.5540   20.4640 C   0  0  0  0  0  0  0  0  0  0  0  0
  -30.3970  -12.3810   19.3230 C   0  0  0  0  0  2  0  0  0  0  0  0
  -29.4460  -12.5770   18.1220 C   0  0  0  0  0  2  0  0  0  0  0  0
  -27.9750  -12.4250   18.5560 C   0  0  0  0  0  2  0  0  0  0  0  0
  -27.6350  -13.2580   19.8210 C   0  0  0  0  0  3  0  0  0  0  0  0
  -28.6980  -13.0450   20.9240 C   0  0  0  0  0  2  0  0  0  0  0  0
  -30.0170  -13.3620   20.3520 N   0  0  0  0  0  0  0  0  0  0  0  0
  -31.8160  -14.7230   20.0390 O   0  0  0  0  0  0  0  0  0  0  0  0
  -29.9010  -15.5840   20.8880 N   0  0  0  0  0  0  0  0  0  0  0  0
  -28.9580  -15.3270   21.1320 H   0  0  0  0  0  0  0  0  0  0  0  0
  -25.2370  -13.8540   20.5390 C   0  0  0  0  0  0  0  0  0  0  0  0
  -24.1730  -13.0780   20.9110 C   0  0  0  0  0  0  0  0  0  0  0  0
  -24.6400  -11.7280   20.8770 C   0  0  0  0  0  0  0  0  0  0  0  0
  -26.2850  -12.9780   20.3040 N   0  0  0  0  0  0  0  0  0  0  0  0
  -25.9290  -11.6940   20.5650 N   0  0  0  0  0  0  0  0  0  0  0  0
  -23.9190  -10.4620   21.0680 C   0  0  0  0  0  0  0  0  0  0  0  0
  -24.3650   -9.4920   21.9920 C   0  0  0  0  0  3  0  0  0  0  0  0
  -23.6460   -8.2900   22.1700 C   0  0  0  0  0  3  0  0  0  0  0  0
  -22.4670   -8.0510   21.4250 C   0  0  0  0  0  0  0  0  0  0  0  0
  -22.0400   -9.0120   20.4920 C   0  0  0  0  0  3  0  0  0  0  0  0
  -22.7600  -10.2040   20.3100 C   0  0  0  0  0  3  0  0  0  0  0  0
  -21.7180   -6.9030   21.5140 O   0  0  0  0  0  0  0  0  0  0  0  0
  -21.6860   -6.1510   22.6610 C   0  0  0  0  0  0  0  0  0  0  0  0
  -21.2680   -6.6940   23.8960 C   0  0  0  0  0  3  0  0  0  0  0  0
  -21.1850   -5.8680   25.0360 C   0  0  0  0  0  3  0  0  0  0  0  0
  -21.5080   -4.5010   24.9410 C   0  0  0  0  0  0  0  0  0  0  0  0
  -21.9180   -3.9580   23.7100 C   0  0  0  0  0  3  0  0  0  0  0  0
  -22.0040   -4.7810   22.5730 C   0  0  0  0  0  0  0  0  0  0  0  0
  -22.3800   -4.2490   21.3850 F   0  0  0  0  0  0  0  0  0  0  0  0
  -21.4210   -3.7060   26.0320 F   0  0  0  0  0  0  0  0  0  0  0  0
  -22.7740  -13.5490   21.1880 C   0  0  0  0  0  0  0  0  0  0  0  0
  -22.0510  -12.8470   22.0540 N   0  0  0  0  0  0  0  0  0  0  0  0
  -22.3310  -14.5740   20.6710 O   0  0  0  0  0  0  0  0  0  0  0  0
  -22.4220  -12.0180   22.4930 H   0  0  0  0  0  0  0  0  0  0  0  0
  -21.1120  -13.1440   22.2810 H   0  0  0  0  0  0  0  0  0  0  0  0
  -25.3960  -15.2260   20.3600 N   0  0  0  0  0  0  0  0  0  0  0  0
  -24.6230  -15.8740   20.4620 H   0  0  0  0  0  0  0  0  0  0  0  0
  -26.2310  -15.6620   19.9940 H   0  0  0  0  0  0  0  0  0  0  0  0
  -32.3920  -19.7130   20.6890 C   0  0  0  0  0  0  0  0  0  0  0  0
  -33.7220  -19.0950   21.0950 C   0  0  0  0  0  1  0  0  0  0  0  0
  -32.3320  -20.9180   20.4380 O   0  0  0  0  0  0  0  0  0  0  0  0
  -28.9630  -22.8130   19.5250 C   0  0  0  0  0  2  0  0  0  0  0  0
  -29.1460  -24.1860   20.2100 C   0  0  0  0  0  0  0  0  0  0  0  0
  -30.0300  -24.4000   21.0480 O   0  0  0  0  0  0  0  0  0  0  0  0
  -28.1100  -25.2490   19.7730 C   0  0  0  0  0  2  0  0  0  0  0  0
  -28.3130  -26.6200   20.2140 O   0  0  0  0  0  0  0  0  0  0  0  0
  -24.5840  -31.9300   23.2590 C   0  0  0  0  0  0  0  0  0  0  0  0
  -27.1740  -27.4240   20.1710 C   0  0  0  0  0  0  0  0  0  0  0  0
  -23.3630  -30.5350   21.6280 C   0  0  0  0  0  3  0  0  0  0  0  0
  -24.7980  -28.9950   20.1930 C   0  0  0  0  0  0  0  0  0  0  0  0
  -25.8980  -30.8620   21.4250 C   0  0  0  0  0  2  0  0  0  0  0  0
  -25.9690  -29.4890   20.7810 C   0  0  0  0  0  0  0  0  0  0  0  0
  -27.1580  -28.7120   20.7710 C   0  0  0  0  0  3  0  0  0  0  0  0
  -25.9770  -26.9770   19.5530 C   0  0  0  0  0  3  0  0  0  0  0  0
  -24.8000  -27.7390   19.5750 C   0  0  0  0  0  3  0  0  0  0  0  0
  -23.5620  -29.8630   20.2460 C   0  0  0  0  0  2  0  0  0  0  0  0
  -24.6330  -31.1240   22.1600 N   0  0  0  0  0  0  0  0  0  0  0  0
  -23.5060  -32.2100   23.8010 O   0  0  0  0  0  0  0  0  0  0  0  0
  -22.7100  -29.5150   22.5900 C   0  0  0  0  0  0  0  0  0  0  0  0
  -21.3830  -29.3370   22.4670 N   0  0  0  0  0  0  0  0  0  0  0  0
  -23.3930  -28.8890   23.4040 O   0  0  0  0  0  0  0  0  0  0  0  0
  -20.8920  -29.8940   21.7820 H   0  0  0  0  0  0  0  0  0  0  0  0
  -18.0050  -28.1560   22.9790 C   0  0  0  0  0  0  0  0  0  0  0  0
  -20.5640  -28.4040   23.2420 C   0  0  0  0  0  3  0  0  0  0  0  0
  -20.6600  -26.9710   22.6710 C   0  0  0  0  0  2  0  0  0  0  0  0
  -19.5540  -26.6490   21.6610 C   0  0  0  0  0  2  0  0  0  0  0  0
  -18.1750  -26.8040   22.3080 C   0  0  0  0  0  2  0  0  0  0  0  0
  -19.1280  -28.9150   23.4030 C   0  0  0  0  0  0  0  0  0  0  0  0
  -18.9160  -30.1820   23.9890 C   0  0  0  0  0  3  0  0  0  0  0  0
  -17.6140  -30.6890   24.1550 C   0  0  0  0  0  3  0  0  0  0  0  0
  -16.5050  -29.9270   23.7480 C   0  0  0  0  0  3  0  0  0  0  0  0
  -16.7010  -28.6630   23.1660 C   0  0  0  0  0  3  0  0  0  0  0  0
  -25.8760  -32.5550   23.8690 C   0  0  0  0  0  3  0  0  0  0  0  0
  -25.5750  -33.9550   24.1970 N   0  0  0  0  0  0  0  0  0  0  0  0
  -25.9070  -35.0040   23.4330 C   0  0  0  0  0  0  0  0  0  0  0  0
  -26.5710  -34.8950   22.3970 O   0  0  0  0  0  0  0  0  0  0  0  0
  -24.9890  -34.1160   25.0030 H   0  0  0  0  0  0  0  0  0  0  0  0
  -24.1890  -36.8060   23.0760 C   0  0  0  0  0  1  0  0  0  0  0  0
  -25.4270  -36.3950   23.8880 C   0  0  0  0  0  3  0  0  0  0  0  0
  -27.5670  -37.2690   24.7170 C   0  0  0  0  0  1  0  0  0  0  0  0
  -26.4660  -37.4420   23.7740 N   0  0  0  0  0  0  0  0  0  0  0  0
  -26.0650  -38.3650   23.9210 H   0  0  0  0  0  0  0  0  0  0  0  0
  -26.3980  -31.7840   25.1430 C   0  0  1  0  0  0  0  0  0  0  0  0
  -25.3100  -31.5510   26.2160 C   0  0  0  0  0  1  0  0  0  0  0  0
  -26.9730  -30.4030   24.7480 C   0  0  0  0  0  1  0  0  0  0  0  0
  -27.5560  -32.5740   25.7950 C   0  0  0  0  0  1  0  0  0  0  0  0
  1  2  1  0
  1  8  1  0
  2  4  1  0
  3  1  2  0
  5  3  1  0
  6  3  1  0
  7 10  2  0
  8  7  1  0
  8  9  2  0
  9 50  1  0
  9 11  1  0
 10 20  1  0
 10 11  1  0
 12 20  1  0
 13 18  1  0
 14 15  1  0
 14 13  1  0
 16 15  1  0
 16 25  1  0
 16 17  1  0
 18 12  1  0
 18 17  1  0
 19 12  2  0
 20 21  1  0
 22 23  2  0
 23 42  1  0
 24 23  1  0
 24 27  1  0
 25 22  1  0
 25 26  1  0
 26 24  2  0
 27 28  1  0
 28 29  2  0
 30 33  1  0
 30 29  1  0
 31 30  2  0
 32 31  1  0
 32 27  2  0
 33 34  1  0
 34 35  1  0
 35 36  2  0
 37 36  1  0
 37 41  1  0
 38 37  2  0
 39 34  2  0
 39 38  1  0
 40 39  1  0
 42 43  1  0
 43 46  1  0
 43 45  1  0
 44 42  2  0
 47 48  1  0
 47 22  1  0
 49 47  1  0
 50 51  1  0
 52 50  2  0
 53  2  1  0
 53 54  1  0
 54 55  2  0
 56 54  1  0
 56 57  1  0
 58 69  2  0
 59 57  1  0
 59 64  1  0
 60 68  1  0
 60 70  1  0
 61 67  1  0
 61 63  1  0
 62 68  1  0
 63 62  1  0
 64 63  2  0
 65 66  1  0
 65 59  2  0
 66 61  2  0
 67 60  1  0
 68 58  1  0
 70 72  2  0
 71 70  1  0
 73 71  1  0
 74 83  2  0
 74 79  1  0
 75 71  1  0
 75 79  1  0
 76 75  1  0
 77 78  1  0
 77 76  1  0
 78 74  1  0
 79 80  2  0
 80 81  1  0
 82 81  2  0
 83 82  1  0
 84 58  1  0
 84 85  1  0
 84 94  1  0
 85 88  1  0
 86 90  1  0
 86 85  1  0
 87 86  2  0
 90 89  1  0
 92 90  1  0
 92 93  1  0
 92 91  1  0
 94 97  1  1
 94 95  1  0
 96 94  1  0
M  ISO  4  12 100  20 100  56 101  57 101
M  END
>  <TORSDO>  (61) 
F 21

>  <SCORE>  (61) 
-13.786

>  <name>  (61) 
60

>  <ligand_id>  (61) 
60

>  <original_smiles>  (61) 
[H]c1c([H])c([H])c2c(c1[H])C([H])([H])C([H])([H])C([H])([H])C2([H])N([H])C(=O)C1([H])N(C(=O)C([H])(N([H])C(=O)C([H])(N([H])C([H])([H])[H])C([H])([H])[H])C(C([H])([H])[H])(C([H])([H])[H])C([H])([H])[H])C([H])([H])c2c([H])c(OC([H])([H])C(=O)C([H])([H])N([H])C(c3c(C(=O)C([H])([H])[H])oc(N([H])C(=O)N4C([H])([H])C([H])([H])C([H])([H])C([H])(n5nc(-c6c([H])c([H])c(Oc7c([H])c([H])c(F)c([H])c7F)c([H])c6[H])c(C(=O)N([H])[H])c5N([H])[H])C4([H])[H])c3[H])=[N+]([H])[H])c([H])c([H])c2C1([H])[H]

>  <smiles>  (61) 
[H]c1c([H])c([H])c2c(c1[H])C([H])([H])C([H])([H])C([H])([H])C2([H])N([H])C(=O)C1([H])N(C(=O)C([H])(N([H])C(=O)C([H])(N([H])C([H])([H])[H])C([H])([H])[H])C(C([H])([H])[H])(C([H])([H])[H])C([H])([H])[H])C([H])([H])c2c([H])c(OC([H])([H])C(=O)C([H])([H])N([H])C(c3c(C(=O)C([H])([H])[H])oc(N([H])C(=O)N4C([H])([H])C([H])([H])C([H])([H])C([H])(n5nc(-c6c([H])c([H])c(Oc7c([H])c([H])c(F)c([H])c7F)c([H])c6[H])c(C(=O)N([H])[H])c5N([H])[H])C4([H])[H])c3[H])=[N+]([H])[H])c([H])c([H])c2C1([H])[H]

$$$$
61:0:0
     RDKit          3D

 91100  0  0  1  0  0  0  0  0999 V2000
  -28.8550  -21.6240   19.3570 C   0  0  0  0  0  2  0  0  0  0  0  0
  -29.8520  -21.7150   21.6380 C   0  0  0  0  0  2  0  0  0  0  0  0
  -28.1630  -23.0110   19.5960 C   0  0  0  0  0  2  0  0  0  0  0  0
  -29.1560  -23.0880   21.8790 C   0  0  0  0  0  2  0  0  0  0  0  0
  -29.0980  -20.7900   20.6490 C   0  0  0  0  0  3  0  0  0  0  0  0
  -28.8960  -23.9450   20.6050 C   0  0  0  0  0  3  0  0  0  0  0  0
  -31.3810  -17.5820   19.9090 C   0  0  0  0  0  3  0  0  0  0  0  0
  -30.2060  -17.1200   20.4610 C   0  0  0  0  0  0  0  0  0  0  0  0
  -29.7950  -19.4290   20.4320 C   0  0  0  0  0  0  0  0  0  0  0  0
  -29.3150  -18.1950   20.7490 N   0  0  0  0  0  0  0  0  0  0  0  0
  -31.4090  -19.3210   19.7330 S   0  0  0  0  0  0  0  0  0  0  0  0
  -30.6370  -14.5980   20.3920 C   0  0  0  0  0  0  0  0  0  0  0  0
  -30.3480  -12.3820   19.3320 C   0  0  0  0  0  2  0  0  0  0  0  0
  -29.4060  -12.5430   18.1210 C   0  0  0  0  0  2  0  0  0  0  0  0
  -27.9340  -12.4030   18.5560 C   0  0  0  0  0  2  0  0  0  0  0  0
  -27.5930  -13.2560   19.8080 C   0  0  0  0  0  3  0  0  0  0  0  0
  -28.6590  -13.1000   20.9160 C   0  0  0  0  0  2  0  0  0  0  0  0
  -29.9690  -13.4070   20.3250 N   0  0  0  0  0  0  0  0  0  0  0  0
  -31.8110  -14.6750   20.0200 O   0  0  0  0  0  0  0  0  0  0  0  0
  -29.9020  -15.7140   20.6960 N   0  0  0  0  0  0  0  0  0  0  0  0
  -28.9680  -15.5250   21.0230 H   0  0  0  0  0  0  0  0  0  0  0  0
  -25.2040  -13.8520   20.5430 C   0  0  0  0  0  0  0  0  0  0  0  0
  -24.1410  -13.0780   20.9180 C   0  0  0  0  0  0  0  0  0  0  0  0
  -24.6010  -11.7270   20.8780 C   0  0  0  0  0  0  0  0  0  0  0  0
  -26.2480  -12.9730   20.3000 N   0  0  0  0  0  0  0  0  0  0  0  0
  -25.8900  -11.6890   20.5620 N   0  0  0  0  0  0  0  0  0  0  0  0
  -23.8740  -10.4640   21.0640 C   0  0  0  0  0  0  0  0  0  0  0  0
  -24.3080   -9.4930   21.9940 C   0  0  0  0  0  3  0  0  0  0  0  0
  -23.5800   -8.2950   22.1690 C   0  0  0  0  0  3  0  0  0  0  0  0
  -22.4060   -8.0610   21.4150 C   0  0  0  0  0  0  0  0  0  0  0  0
  -21.9940   -9.0200   20.4730 C   0  0  0  0  0  3  0  0  0  0  0  0
  -22.7200  -10.2080   20.2960 C   0  0  0  0  0  3  0  0  0  0  0  0
  -21.6500   -6.9170   21.5010 O   0  0  0  0  0  0  0  0  0  0  0  0
  -21.5990   -6.1730   22.6520 C   0  0  0  0  0  0  0  0  0  0  0  0
  -21.1630   -6.7230   23.8770 C   0  0  0  0  0  3  0  0  0  0  0  0
  -21.0620   -5.9050   25.0190 C   0  0  0  0  0  3  0  0  0  0  0  0
  -21.3840   -4.5370   24.9370 C   0  0  0  0  0  0  0  0  0  0  0  0
  -21.8130   -3.9860   23.7170 C   0  0  0  0  0  3  0  0  0  0  0  0
  -21.9180   -4.8020   22.5770 C   0  0  0  0  0  0  0  0  0  0  0  0
  -22.3110   -4.2610   21.3990 F   0  0  0  0  0  0  0  0  0  0  0  0
  -21.2790   -3.7480   26.0320 F   0  0  0  0  0  0  0  0  0  0  0  0
  -22.7450  -13.5540   21.1990 C   0  0  0  0  0  0  0  0  0  0  0  0
  -22.0190  -12.8520   22.0620 N   0  0  0  0  0  0  0  0  0  0  0  0
  -22.3070  -14.5850   20.6880 O   0  0  0  0  0  0  0  0  0  0  0  0
  -22.3850  -12.0200   22.4980 H   0  0  0  0  0  0  0  0  0  0  0  0
  -21.0830  -13.1550   22.2940 H   0  0  0  0  0  0  0  0  0  0  0  0
  -25.3680  -15.2230   20.3630 N   0  0  0  0  0  0  0  0  0  0  0  0
  -24.6000  -15.8750   20.4730 H   0  0  0  0  0  0  0  0  0  0  0  0
  -26.2030  -15.6580   19.9910 H   0  0  0  0  0  0  0  0  0  0  0  0
  -28.1110  -25.2770   20.9710 C   0  0  0  0  0  2  0  0  0  0  0  0
  -28.3270  -26.5200   20.2250 O   0  0  0  0  0  0  0  0  0  0  0  0
  -24.5900  -31.8770   23.2400 C   0  0  0  0  0  0  0  0  0  0  0  0
  -27.2210  -27.3640   20.1910 C   0  0  0  0  0  0  0  0  0  0  0  0
  -23.3910  -30.4740   21.5960 C   0  0  0  0  0  3  0  0  0  0  0  0
  -24.8490  -28.9320   20.1740 C   0  0  0  0  0  0  0  0  0  0  0  0
  -25.9250  -30.8140   21.4130 C   0  0  0  0  0  2  0  0  0  0  0  0
  -26.0120  -29.4390   20.7690 C   0  0  0  0  0  0  0  0  0  0  0  0
  -27.2070  -28.6650   20.7670 C   0  0  0  0  0  3  0  0  0  0  0  0
  -26.0430  -26.9000   19.5700 C   0  0  0  0  0  3  0  0  0  0  0  0
  -24.8630  -27.6660   19.5680 C   0  0  0  0  0  3  0  0  0  0  0  0
  -23.6080  -29.7980   20.2170 C   0  0  0  0  0  2  0  0  0  0  0  0
  -24.6540  -31.0710   22.1400 N   0  0  0  0  0  0  0  0  0  0  0  0
  -23.5050  -32.1520   23.7730 O   0  0  0  0  0  0  0  0  0  0  0  0
  -22.7310  -29.4560   22.5550 C   0  0  0  0  0  0  0  0  0  0  0  0
  -21.4050  -29.2810   22.4290 N   0  0  0  0  0  0  0  0  0  0  0  0
  -23.4100  -28.8270   23.3700 O   0  0  0  0  0  0  0  0  0  0  0  0
  -20.9170  -29.8410   21.7440 H   0  0  0  0  0  0  0  0  0  0  0  0
  -18.0220  -28.1060   22.9360 C   0  0  0  0  0  0  0  0  0  0  0  0
  -20.5830  -28.3470   23.1990 C   0  0  0  0  0  3  0  0  0  0  0  0
  -20.6730  -26.9160   22.6170 C   0  0  0  0  0  2  0  0  0  0  0  0
  -19.5660  -26.6060   21.6050 C   0  0  0  0  0  2  0  0  0  0  0  0
  -18.1880  -26.7590   22.2540 C   0  0  0  0  0  2  0  0  0  0  0  0
  -19.1470  -28.8590   23.3640 C   0  0  0  0  0  0  0  0  0  0  0  0
  -18.9400  -30.1210   23.9620 C   0  0  0  0  0  3  0  0  0  0  0  0
  -17.6390  -30.6300   24.1340 C   0  0  0  0  0  3  0  0  0  0  0  0
  -16.5280  -29.8740   23.7210 C   0  0  0  0  0  3  0  0  0  0  0  0
  -16.7210  -28.6140   23.1280 C   0  0  0  0  0  3  0  0  0  0  0  0
  -25.8710  -32.5100   23.8640 C   0  0  0  0  0  3  0  0  0  0  0  0
  -25.5620  -33.9100   24.1880 N   0  0  0  0  0  0  0  0  0  0  0  0
  -25.9000  -34.9600   23.4270 C   0  0  0  0  0  0  0  0  0  0  0  0
  -26.5730  -34.8520   22.3980 O   0  0  0  0  0  0  0  0  0  0  0  0
  -24.9650  -34.0690   24.9870 H   0  0  0  0  0  0  0  0  0  0  0  0
  -24.1790  -36.7570   23.0520 C   0  0  0  0  0  1  0  0  0  0  0  0
  -25.4110  -36.3500   23.8770 C   0  0  0  0  0  3  0  0  0  0  0  0
  -27.5390  -37.2320   24.7280 C   0  0  0  0  0  1  0  0  0  0  0  0
  -26.4480  -37.4000   23.7730 N   0  0  0  0  0  0  0  0  0  0  0  0
  -26.0420  -38.3220   23.9140 H   0  0  0  0  0  0  0  0  0  0  0  0
  -26.3830  -31.7430   25.1440 C   0  0  1  0  0  0  0  0  0  0  0  0
  -25.2860  -31.5090   26.2090 C   0  0  0  0  0  1  0  0  0  0  0  0
  -26.9660  -30.3640   24.7580 C   0  0  0  0  0  1  0  0  0  0  0  0
  -27.5320  -32.5390   25.8080 C   0  0  0  0  0  1  0  0  0  0  0  0
  1  3  1  0
  1  5  1  0
  2  4  1  0
  3  6  1  0
  5  9  1  0
  5  2  1  0
  6 50  1  0
  6  4  1  0
  7  8  2  0
  8 20  1  0
  8 10  1  0
  9 10  2  0
 11  7  1  0
 11  9  1  0
 12 20  1  0
 13 18  1  0
 14 15  1  0
 14 13  1  0
 16 15  1  0
 16 25  1  0
 16 17  1  0
 18 12  1  0
 18 17  1  0
 19 12  2  0
 20 21  1  0
 22 23  2  0
 23 42  1  0
 24 23  1  0
 24 27  1  0
 25 22  1  0
 25 26  1  0
 26 24  2  0
 27 28  1  0
 28 29  2  0
 30 33  1  0
 30 29  1  0
 31 30  2  0
 32 31  1  0
 32 27  2  0
 33 34  1  0
 34 35  1  0
 35 36  2  0
 37 36  1  0
 37 41  1  0
 38 37  2  0
 39 34  2  0
 39 38  1  0
 40 39  1  0
 42 43  1  0
 43 46  1  0
 43 45  1  0
 44 42  2  0
 47 48  1  0
 47 22  1  0
 49 47  1  0
 51 50  1  0
 52 63  2  0
 53 51  1  0
 53 58  1  0
 54 62  1  0
 54 64  1  0
 55 61  1  0
 55 57  1  0
 56 62  1  0
 57 56  1  0
 58 57  2  0
 59 53  2  0
 60 59  1  0
 60 55  2  0
 61 54  1  0
 62 52  1  0
 64 66  2  0
 65 64  1  0
 67 65  1  0
 68 77  2  0
 68 73  1  0
 69 65  1  0
 69 73  1  0
 70 69  1  0
 71 72  1  0
 71 70  1  0
 72 68  1  0
 73 74  2  0
 74 75  1  0
 76 75  2  0
 77 76  1  0
 78 52  1  0
 78 79  1  0
 78 88  1  0
 79 82  1  0
 80 84  1  0
 80 79  1  0
 81 80  2  0
 84 83  1  0
 86 84  1  0
 86 87  1  0
 86 85  1  0
 88 91  1  1
 88 89  1  0
 90 88  1  0
M  ISO  4  12 100  20 100  50 101  51 101
M  END
>  <TORSDO>  (62) 
F 18

>  <SCORE>  (62) 
-14.844

>  <name>  (62) 
61

>  <ligand_id>  (62) 
61

>  <original_smiles>  (62) 
[H]c1sc(C2([H])C([H])([H])C([H])([H])C([H])(C([H])([H])Oc3c([H])c([H])c4c(c3[H])C([H])([H])N(C(=O)C([H])(N([H])C(=O)C([H])(N([H])C([H])([H])[H])C([H])([H])[H])C(C([H])([H])[H])(C([H])([H])[H])C([H])([H])[H])C([H])(C(=O)N([H])C3([H])c5c([H])c([H])c([H])c([H])c5C([H])([H])C([H])([H])C3([H])[H])C4([H])[H])C([H])([H])C2([H])[H])nc1N([H])C(=O)N1C([H])([H])C([H])([H])C([H])([H])C([H])(n2nc(-c3c([H])c([H])c(Oc4c([H])c([H])c(F)c([H])c4F)c([H])c3[H])c(C(=O)N([H])[H])c2N([H])[H])C1([H])[H]

>  <smiles>  (62) 
[H]c1sc(C2([H])C([H])([H])C([H])([H])C([H])(C([H])([H])Oc3c([H])c([H])c4c(c3[H])C([H])([H])N(C(=O)C([H])(N([H])C(=O)C([H])(N([H])C([H])([H])[H])C([H])([H])[H])C(C([H])([H])[H])(C([H])([H])[H])C([H])([H])[H])C([H])(C(=O)N([H])C3([H])c5c([H])c([H])c([H])c([H])c5C([H])([H])C([H])([H])C3([H])[H])C4([H])[H])C([H])([H])C2([H])[H])nc1N([H])C(=O)N1C([H])([H])C([H])([H])C([H])([H])C([H])(n2nc(-c3c([H])c([H])c(Oc4c([H])c([H])c(F)c([H])c4F)c([H])c3[H])c(C(=O)N([H])[H])c2N([H])[H])C1([H])[H]

$$$$
62:0:0
     RDKit          3D

 99107  0  0  1  0  0  0  0  0999 V2000
  -28.5180  -20.3940   19.9540 C   0  0  0  0  0  3  0  0  0  0  0  0
  -28.7730  -18.9810   19.8830 C   0  0  0  0  0  0  0  0  0  0  0  0
  -29.7440  -18.6260   20.7980 C   0  0  0  0  0  0  0  0  0  0  0  0
  -29.3540  -20.8550   20.9300 C   0  0  0  0  0  0  0  0  0  0  0  0
  -30.0870  -19.8070   21.4590 O   0  0  0  0  0  0  0  0  0  0  0  0
  -28.0830  -18.0980   18.9460 C   0  0  0  0  0  0  0  0  0  0  0  0
  -28.7630  -17.2390   18.1880 N   0  0  0  0  0  4  0  0  0  0  0  0
  -26.7530  -18.1630   18.8260 N   0  0  0  0  0  0  0  0  0  0  0  0
  -29.7700  -17.2570   18.2170 H   0  0  0  0  0  0  0  0  0  0  0  0
  -28.3310  -16.6880   17.4620 H   0  0  0  0  0  0  0  0  0  0  0  0
  -26.2230  -18.7860   19.4170 H   0  0  0  0  0  0  0  0  0  0  0  0
  -26.2270  -17.6410   18.1410 H   0  0  0  0  0  0  0  0  0  0  0  0
  -29.4370  -22.1660   21.4840 N   0  0  0  0  0  0  0  0  0  0  0  0
  -30.0150  -22.2330   22.3160 H   0  0  0  0  0  0  0  0  0  0  0  0
  -29.3300  -23.4620   20.7430 C   0  0  0  0  0  2  0  0  0  0  0  0
  -27.2800  -24.5930   21.7690 C   0  0  0  0  0  1  0  0  0  0  0  0
  -29.4640  -24.6430   23.0020 C   0  0  0  0  0  1  0  0  0  0  0  0
  -28.8060  -24.7090   21.5980 C   0  0  1  0  0  0  0  0  0  0  0  0
  -29.1400  -26.1760   21.0530 C   0  0  0  0  0  2  0  0  0  0  0  0
  -28.4550  -26.7160   19.8980 O   0  0  0  0  0  0  0  0  0  0  0  0
  -24.6170  -31.9020   23.2030 C   0  0  0  0  0  0  0  0  0  0  0  0
  -27.3190  -27.5090   20.0380 C   0  0  0  0  0  0  0  0  0  0  0  0
  -23.4290  -30.5150   21.5400 C   0  0  0  0  0  3  0  0  0  0  0  0
  -24.9060  -29.0190   20.0820 C   0  0  0  0  0  0  0  0  0  0  0  0
  -25.9490  -30.8940   21.3480 C   0  0  0  0  0  2  0  0  0  0  0  0
  -26.0630  -29.5290   20.6890 C   0  0  0  0  0  0  0  0  0  0  0  0
  -27.2740  -28.7820   20.6730 C   0  0  0  0  0  3  0  0  0  0  0  0
  -26.1470  -27.0370   19.4130 C   0  0  0  0  0  3  0  0  0  0  0  0
  -24.9440  -27.7700   19.4390 C   0  0  0  0  0  3  0  0  0  0  0  0
  -23.6510  -29.8600   20.1470 C   0  0  0  0  0  2  0  0  0  0  0  0
  -24.6820  -31.1200   22.0890 N   0  0  0  0  0  0  0  0  0  0  0  0
  -23.5350  -32.1510   23.7530 O   0  0  0  0  0  0  0  0  0  0  0  0
  -22.7900  -29.4710   22.4830 C   0  0  0  0  0  0  0  0  0  0  0  0
  -21.4690  -29.2720   22.3500 N   0  0  0  0  0  0  0  0  0  0  0  0
  -23.4830  -28.8410   23.2890 O   0  0  0  0  0  0  0  0  0  0  0  0
  -20.9700  -29.8330   21.6710 H   0  0  0  0  0  0  0  0  0  0  0  0
  -18.1150  -28.0080   22.8380 C   0  0  0  0  0  0  0  0  0  0  0  0
  -20.6670  -28.3050   23.1010 C   0  0  0  0  0  3  0  0  0  0  0  0
  -20.7910  -26.8860   22.4960 C   0  0  0  0  0  2  0  0  0  0  0  0
  -19.6890  -26.5650   21.4790 C   0  0  0  0  0  2  0  0  0  0  0  0
  -18.3090  -26.6770   22.1320 C   0  0  0  0  0  2  0  0  0  0  0  0
  -19.2220  -28.7800   23.2790 C   0  0  0  0  0  0  0  0  0  0  0  0
  -18.9880  -30.0250   23.9020 C   0  0  0  0  0  3  0  0  0  0  0  0
  -17.6770  -30.5040   24.0810 C   0  0  0  0  0  3  0  0  0  0  0  0
  -16.5830  -29.7280   23.6580 C   0  0  0  0  0  3  0  0  0  0  0  0
  -16.8030  -28.4820   23.0440 C   0  0  0  0  0  3  0  0  0  0  0  0
  -25.8990  -32.5410   23.8240 C   0  0  0  0  0  3  0  0  0  0  0  0
  -25.5770  -33.9320   24.1640 N   0  0  0  0  0  0  0  0  0  0  0  0
  -25.9020  -34.9920   23.4100 C   0  0  0  0  0  0  0  0  0  0  0  0
  -26.5750  -34.8980   22.3800 O   0  0  0  0  0  0  0  0  0  0  0  0
  -24.9770  -34.0730   24.9640 H   0  0  0  0  0  0  0  0  0  0  0  0
  -24.1800  -36.7870   23.0480 C   0  0  0  0  0  1  0  0  0  0  0  0
  -25.4080  -36.3770   23.8740 C   0  0  0  0  0  3  0  0  0  0  0  0
  -27.5220  -37.2640   24.7540 C   0  0  0  0  0  1  0  0  0  0  0  0
  -26.4390  -37.4310   23.7870 N   0  0  0  0  0  0  0  0  0  0  0  0
  -26.0270  -38.3490   23.9350 H   0  0  0  0  0  0  0  0  0  0  0  0
  -26.4190  -31.7670   25.1010 C   0  0  1  0  0  0  0  0  0  0  0  0
  -25.3230  -31.5120   26.1630 C   0  0  0  0  0  1  0  0  0  0  0  0
  -27.0160  -30.3960   24.7030 C   0  0  0  0  0  1  0  0  0  0  0  0
  -27.5650  -32.5640   25.7660 C   0  0  0  0  0  1  0  0  0  0  0  0
  -30.5310  -17.3590   21.2300 C   0  0  0  0  0  2  0  0  0  0  0  0
  -30.8050  -14.8700   20.6490 C   0  0  0  0  0  0  0  0  0  0  0  0
  -30.6350  -12.6260   19.5970 C   0  0  0  0  0  2  0  0  0  0  0  0
  -29.7150  -12.6980   18.3610 C   0  0  0  0  0  2  0  0  0  0  0  0
  -28.2440  -12.5070   18.7680 C   0  0  0  0  0  2  0  0  0  0  0  0
  -27.8360  -13.4010   19.9690 C   0  0  0  0  0  3  0  0  0  0  0  0
  -28.8680  -13.3150   21.1130 C   0  0  0  0  0  2  0  0  0  0  0  0
  -30.1790  -13.6570   20.5490 N   0  0  0  0  0  0  0  0  0  0  0  0
  -31.9880  -15.0010   20.3170 O   0  0  0  0  0  0  0  0  0  0  0  0
  -30.0360  -15.9640   20.9580 N   0  0  0  0  0  0  0  0  0  0  0  0
  -29.0640  -15.7840   21.1580 H   0  0  0  0  0  0  0  0  0  0  0  0
  -25.4290  -13.9620   20.6640 C   0  0  0  0  0  0  0  0  0  0  0  0
  -24.3680  -13.1750   21.0110 C   0  0  0  0  0  0  0  0  0  0  0  0
  -24.8420  -11.8270   20.9640 C   0  0  0  0  0  0  0  0  0  0  0  0
  -26.4850  -13.0970   20.4330 N   0  0  0  0  0  0  0  0  0  0  0  0
  -26.1380  -11.8070   20.6740 N   0  0  0  0  0  0  0  0  0  0  0  0
  -24.1250  -10.5560   21.1180 C   0  0  0  0  0  0  0  0  0  0  0  0
  -24.5320   -9.5890   22.0620 C   0  0  0  0  0  3  0  0  0  0  0  0
  -23.8130   -8.3830   22.2070 C   0  0  0  0  0  3  0  0  0  0  0  0
  -22.6730   -8.1360   21.4050 C   0  0  0  0  0  0  0  0  0  0  0  0
  -22.2830   -9.0940   20.4530 C   0  0  0  0  0  3  0  0  0  0  0  0
  -23.0040  -10.2910   20.3070 C   0  0  0  0  0  3  0  0  0  0  0  0
  -21.9290   -6.9810   21.4570 O   0  0  0  0  0  0  0  0  0  0  0  0
  -21.8140   -6.2500   22.6130 C   0  0  0  0  0  0  0  0  0  0  0  0
  -21.2630   -6.8010   23.7900 C   0  0  0  0  0  3  0  0  0  0  0  0
  -21.0990   -5.9940   24.9350 C   0  0  0  0  0  3  0  0  0  0  0  0
  -21.4790   -4.6380   24.9000 C   0  0  0  0  0  0  0  0  0  0  0  0
  -22.0250   -4.0890   23.7280 C   0  0  0  0  0  3  0  0  0  0  0  0
  -22.1900   -4.8930   22.5870 C   0  0  0  0  0  0  0  0  0  0  0  0
  -22.6960   -4.3510   21.4510 F   0  0  0  0  0  0  0  0  0  0  0  0
  -21.3160   -3.8620   25.9980 F   0  0  0  0  0  0  0  0  0  0  0  0
  -22.9630  -13.6360   21.2690 C   0  0  0  0  0  0  0  0  0  0  0  0
  -22.2270  -12.9180   22.1080 N   0  0  0  0  0  0  0  0  0  0  0  0
  -22.5270  -14.6690   20.7620 O   0  0  0  0  0  0  0  0  0  0  0  0
  -22.5940  -12.0820   22.5400 H   0  0  0  0  0  0  0  0  0  0  0  0
  -21.2850  -13.2120   22.3250 H   0  0  0  0  0  0  0  0  0  0  0  0
  -25.5730  -15.3380   20.4980 N   0  0  0  0  0  0  0  0  0  0  0  0
  -24.7590  -15.9410   20.5300 H   0  0  0  0  0  0  0  0  0  0  0  0
  -26.3740  -15.7740   20.0660 H   0  0  0  0  0  0  0  0  0  0  0  0
  1  4  2  0
  2  1  1  0
  2  3  2  0
  3 61  1  0
  3  5  1  0
  4  5  1  0
  4 13  1  0
  6  2  1  0
  7  9  1  0
  7  6  2  0
  8  6  1  0
  8 11  1  0
 10  7  1  0
 12  8  1  0
 13 14  1  0
 15 13  1  0
 15 18  1  0
 18 16  1  1
 18 17  1  0
 19 18  1  0
 20 22  1  0
 20 19  1  0
 21 32  2  0
 22 27  1  0
 23 31  1  0
 23 33  1  0
 24 30  1  0
 24 26  1  0
 25 31  1  0
 26 25  1  0
 27 26  2  0
 28 29  1  0
 28 22  2  0
 29 24  2  0
 30 23  1  0
 31 21  1  0
 33 35  2  0
 34 33  1  0
 36 34  1  0
 37 46  2  0
 37 42  1  0
 38 34  1  0
 38 42  1  0
 39 38  1  0
 40 41  1  0
 40 39  1  0
 41 37  1  0
 42 43  2  0
 43 44  1  0
 45 44  2  0
 46 45  1  0
 47 21  1  0
 47 48  1  0
 47 57  1  0
 48 51  1  0
 49 53  1  0
 49 48  1  0
 50 49  2  0
 53 52  1  0
 55 53  1  0
 55 56  1  0
 55 54  1  0
 57 60  1  1
 57 58  1  0
 59 57  1  0
 62 70  1  0
 63 68  1  0
 64 65  1  0
 64 63  1  0
 66 65  1  0
 66 75  1  0
 66 67  1  0
 68 62  1  0
 68 67  1  0
 69 62  2  0
 70 71  1  0
 70 61  1  0
 72 73  2  0
 73 92  1  0
 74 73  1  0
 74 77  1  0
 75 72  1  0
 75 76  1  0
 76 74  2  0
 77 78  1  0
 78 79  2  0
 80 83  1  0
 80 79  1  0
 81 80  2  0
 82 81  1  0
 82 77  2  0
 83 84  1  0
 84 85  1  0
 85 86  2  0
 87 86  1  0
 87 91  1  0
 88 87  2  0
 89 84  2  0
 89 88  1  0
 90 89  1  0
 92 93  1  0
 93 96  1  0
 93 95  1  0
 94 92  2  0
 97 98  1  0
 97 72  1  0
 99 97  1  0
M  ISO  4  19 101  20 101  62 100  70 100
M  END
>  <TORSDO>  (63) 
F 22

>  <SCORE>  (63) 
-13.271

>  <name>  (63) 
62

>  <ligand_id>  (63) 
62

>  <original_smiles>  (63) 
[H]c1c([H])c([H])c2c(c1[H])C([H])([H])C([H])([H])C([H])([H])C2([H])N([H])C(=O)C1([H])N(C(=O)C([H])(N([H])C(=O)C([H])(N([H])C([H])([H])[H])C([H])([H])[H])C(C([H])([H])[H])(C([H])([H])[H])C([H])([H])[H])C([H])([H])c2c([H])c(OC([H])([H])C(C([H])([H])[H])(C([H])([H])[H])C([H])([H])N([H])c3oc(C([H])([H])N([H])C(=O)N4C([H])([H])C([H])([H])C([H])([H])C([H])(n5nc(-c6c([H])c([H])c(Oc7c([H])c([H])c(F)c([H])c7F)c([H])c6[H])c(C(=O)N([H])[H])c5N([H])[H])C4([H])[H])c(C(N([H])[H])=[N+]([H])[H])c3[H])c([H])c([H])c2C1([H])[H]

>  <smiles>  (63) 
[H]c1c([H])c([H])c2c(c1[H])C([H])([H])C([H])([H])C([H])([H])C2([H])N([H])C(=O)C1([H])N(C(=O)C([H])(N([H])C(=O)C([H])(N([H])C([H])([H])[H])C([H])([H])[H])C(C([H])([H])[H])(C([H])([H])[H])C([H])([H])[H])C([H])([H])c2c([H])c(OC([H])([H])C(C([H])([H])[H])(C([H])([H])[H])C([H])([H])N([H])c3oc(C([H])([H])N([H])C(=O)N4C([H])([H])C([H])([H])C([H])([H])C([H])(n5nc(-c6c([H])c([H])c(Oc7c([H])c([H])c(F)c([H])c7F)c([H])c6[H])c(C(=O)N([H])[H])c5N([H])[H])C4([H])[H])c(C(N([H])[H])=[N+]([H])[H])c3[H])c([H])c([H])c2C1([H])[H]

$$$$
63:0:0
     RDKit          3D

 96104  0  0  1  0  0  0  0  0999 V2000
  -28.5320  -21.0510   20.0610 C   0  0  0  0  0  0  0  0  0  0  0  0
  -27.2760  -20.9040   19.6240 N   0  0  0  0  0  4  0  0  0  0  0  0
  -28.9530  -22.3760   20.2560 N   0  0  0  0  0  0  0  0  0  0  0  0
  -26.9220  -19.9740   19.4520 H   0  0  0  0  0  0  0  0  0  0  0  0
  -26.6620  -21.6710   19.4050 H   0  0  0  0  0  0  0  0  0  0  0  0
  -29.9000  -22.4780   20.5920 H   0  0  0  0  0  0  0  0  0  0  0  0
  -28.8230  -18.4200   20.5260 C   0  0  0  0  0  3  0  0  0  0  0  0
  -31.0040  -18.1930   20.1140 C   0  0  0  0  0  3  0  0  0  0  0  0
  -29.8950  -17.4440   20.4030 C   0  0  0  0  0  0  0  0  0  0  0  0
  -29.2610  -19.7210   20.2410 C   0  0  0  0  0  0  0  0  0  0  0  0
  -31.5600  -20.5980   19.6200 C   0  0  0  0  0  1  0  0  0  0  0  0
  -30.6340  -19.5500   19.9980 N   0  0  0  0  0  0  0  0  0  0  0  0
  -30.6120  -14.8900   20.2160 C   0  0  0  0  0  0  0  0  0  0  0  0
  -30.4540  -12.6220   19.1660 C   0  0  0  0  0  2  0  0  0  0  0  0
  -29.4820  -12.7010   17.9650 C   0  0  0  0  0  2  0  0  0  0  0  0
  -28.0250  -12.5000   18.4250 C   0  0  0  0  0  2  0  0  0  0  0  0
  -27.6700  -13.3620   19.6650 C   0  0  0  0  0  3  0  0  0  0  0  0
  -28.7550  -13.2470   20.7620 C   0  0  0  0  0  2  0  0  0  0  0  0
  -30.0330  -13.6410   20.1550 N   0  0  0  0  0  0  0  0  0  0  0  0
  -31.7780  -15.0420   19.8330 O   0  0  0  0  0  0  0  0  0  0  0  0
  -29.7860  -15.9620   20.5520 N   0  0  0  0  0  0  0  0  0  0  0  0
  -28.8800  -15.6470   20.8650 H   0  0  0  0  0  0  0  0  0  0  0  0
  -25.2910  -13.9290   20.4360 C   0  0  0  0  0  0  0  0  0  0  0  0
  -24.2410  -13.1430   20.8230 C   0  0  0  0  0  0  0  0  0  0  0  0
  -24.7170  -11.7960   20.7800 C   0  0  0  0  0  0  0  0  0  0  0  0
  -26.3380  -13.0590   20.1780 N   0  0  0  0  0  0  0  0  0  0  0  0
  -26.0000  -11.7720   20.4460 N   0  0  0  0  0  0  0  0  0  0  0  0
  -24.0070  -10.5260   20.9770 C   0  0  0  0  0  0  0  0  0  0  0  0
  -24.4540   -9.5700   21.9160 C   0  0  0  0  0  3  0  0  0  0  0  0
  -23.7440   -8.3640   22.1030 C   0  0  0  0  0  3  0  0  0  0  0  0
  -22.5750   -8.1060   21.3480 C   0  0  0  0  0  0  0  0  0  0  0  0
  -22.1480   -9.0500   20.3980 C   0  0  0  0  0  3  0  0  0  0  0  0
  -22.8580  -10.2470   20.2110 C   0  0  0  0  0  3  0  0  0  0  0  0
  -21.8360   -6.9520   21.4430 O   0  0  0  0  0  0  0  0  0  0  0  0
  -21.7780   -6.2270   22.6070 C   0  0  0  0  0  0  0  0  0  0  0  0
  -21.2920   -6.7860   23.8090 C   0  0  0  0  0  3  0  0  0  0  0  0
  -21.1850   -5.9880   24.9640 C   0  0  0  0  0  3  0  0  0  0  0  0
  -21.5520   -4.6290   24.9190 C   0  0  0  0  0  0  0  0  0  0  0  0
  -22.0320   -4.0690   23.7220 C   0  0  0  0  0  3  0  0  0  0  0  0
  -22.1410   -4.8660   22.5680 C   0  0  0  0  0  0  0  0  0  0  0  0
  -22.5830   -4.3160   21.4130 F   0  0  0  0  0  0  0  0  0  0  0  0
  -21.4430   -3.8590   26.0260 F   0  0  0  0  0  0  0  0  0  0  0  0
  -22.8440  -13.6040   21.1240 C   0  0  0  0  0  0  0  0  0  0  0  0
  -22.1340  -12.8880   21.9900 N   0  0  0  0  0  0  0  0  0  0  0  0
  -22.3910  -14.6360   20.6290 O   0  0  0  0  0  0  0  0  0  0  0  0
  -22.5130  -12.0520   22.4100 H   0  0  0  0  0  0  0  0  0  0  0  0
  -21.1980  -13.1800   22.2350 H   0  0  0  0  0  0  0  0  0  0  0  0
  -25.4390  -15.3020   20.2580 N   0  0  0  0  0  0  0  0  0  0  0  0
  -24.6620  -15.9450   20.3680 H   0  0  0  0  0  0  0  0  0  0  0  0
  -26.2630  -15.7400   19.8690 H   0  0  0  0  0  0  0  0  0  0  0  0
  -28.2470  -23.7200   19.8740 C   0  0  0  0  0  2  0  0  0  0  0  0
  -28.6480  -25.1430   20.5700 C   0  0  0  0  0  3  0  0  0  0  0  0
  -28.3260  -25.1350   22.0780 C   0  0  0  0  0  0  0  0  0  0  0  0
  -29.3810  -24.5530   23.0130 C   0  0  0  0  0  1  0  0  0  0  0  0
  -27.2560  -25.5510   22.5320 O   0  0  0  0  0  0  0  0  0  0  0  0
  -28.4540  -26.5370   19.9800 O   0  0  0  0  0  0  0  0  0  0  0  0
  -24.6030  -31.8570   23.1360 C   0  0  0  0  0  0  0  0  0  0  0  0
  -27.2920  -27.3410   20.0270 C   0  0  0  0  0  0  0  0  0  0  0  0
  -23.4220  -30.4610   21.4750 C   0  0  0  0  0  3  0  0  0  0  0  0
  -24.8990  -28.9390   20.0330 C   0  0  0  0  0  0  0  0  0  0  0  0
  -25.9570  -30.8160   21.2950 C   0  0  0  0  0  2  0  0  0  0  0  0
  -26.0620  -29.4400   20.6300 C   0  0  0  0  0  0  0  0  0  0  0  0
  -27.2600  -28.6590   20.6040 C   0  0  0  0  0  3  0  0  0  0  0  0
  -26.1040  -26.8980   19.4130 C   0  0  0  0  0  3  0  0  0  0  0  0
  -24.9260  -27.6760   19.4150 C   0  0  0  0  0  3  0  0  0  0  0  0
  -23.6480  -29.7980   20.0880 C   0  0  0  0  0  2  0  0  0  0  0  0
  -24.6800  -31.0630   22.0260 N   0  0  0  0  0  0  0  0  0  0  0  0
  -23.5160  -32.1090   23.6750 O   0  0  0  0  0  0  0  0  0  0  0  0
  -22.7730  -29.4240   22.4260 C   0  0  0  0  0  0  0  0  0  0  0  0
  -21.4480  -29.2410   22.3110 N   0  0  0  0  0  0  0  0  0  0  0  0
  -23.4650  -28.7870   23.2240 O   0  0  0  0  0  0  0  0  0  0  0  0
  -20.9490  -29.8120   21.6430 H   0  0  0  0  0  0  0  0  0  0  0  0
  -18.0840  -28.0150   22.8290 C   0  0  0  0  0  0  0  0  0  0  0  0
  -20.6440  -28.2790   23.0680 C   0  0  0  0  0  3  0  0  0  0  0  0
  -20.7440  -26.8650   22.4540 C   0  0  0  0  0  2  0  0  0  0  0  0
  -19.6300  -26.5620   21.4480 C   0  0  0  0  0  2  0  0  0  0  0  0
  -18.2560  -26.6840   22.1140 C   0  0  0  0  0  2  0  0  0  0  0  0
  -19.2060  -28.7710   23.2610 C   0  0  0  0  0  0  0  0  0  0  0  0
  -18.9920  -30.0160   23.8920 C   0  0  0  0  0  3  0  0  0  0  0  0
  -17.6890  -30.5060   24.0940 C   0  0  0  0  0  3  0  0  0  0  0  0
  -16.5810  -29.7480   23.6780 C   0  0  0  0  0  3  0  0  0  0  0  0
  -16.7800  -28.5050   23.0510 C   0  0  0  0  0  3  0  0  0  0  0  0
  -25.8760  -32.5010   23.7680 C   0  0  0  0  0  3  0  0  0  0  0  0
  -26.4080  -31.7160   25.0290 C   0  0  1  0  0  0  0  0  0  0  0  0
  -25.3200  -31.4420   26.0960 C   0  0  0  0  0  1  0  0  0  0  0  0
  -27.0140  -30.3570   24.6110 C   0  0  0  0  0  1  0  0  0  0  0  0
  -27.5440  -32.5190   25.7060 C   0  0  0  0  0  1  0  0  0  0  0  0
  -25.5400  -33.8860   24.1270 N   0  0  0  0  0  0  0  0  0  0  0  0
  -25.8590  -34.9630   23.3970 C   0  0  0  0  0  0  0  0  0  0  0  0
  -26.5320  -34.8950   22.3660 O   0  0  0  0  0  0  0  0  0  0  0  0
  -24.9450  -34.0130   24.9320 H   0  0  0  0  0  0  0  0  0  0  0  0
  -24.1150  -36.7460   23.0710 C   0  0  0  0  0  1  0  0  0  0  0  0
  -25.3490  -36.3320   23.8870 C   0  0  0  0  0  3  0  0  0  0  0  0
  -27.4560  -37.2260   24.7780 C   0  0  0  0  0  1  0  0  0  0  0  0
  -26.3690  -37.4010   23.8180 N   0  0  0  0  0  0  0  0  0  0  0  0
  -25.9470  -38.3120   23.9800 H   0  0  0  0  0  0  0  0  0  0  0  0
  1 10  1  0
  1  3  1  0
  2  1  2  0
  3  6  1  0
  4  2  1  0
  5  2  1  0
  8  9  2  0
  9  7  1  0
  9 21  1  0
 10  7  2  0
 11 12  1  0
 12  8  1  0
 12 10  1  0
 13 21  1  0
 14 19  1  0
 15 16  1  0
 15 14  1  0
 17 16  1  0
 17 26  1  0
 17 18  1  0
 19 13  1  0
 19 18  1  0
 20 13  2  0
 21 22  1  0
 23 24  2  0
 24 43  1  0
 25 24  1  0
 25 28  1  0
 26 23  1  0
 26 27  1  0
 27 25  2  0
 28 29  1  0
 29 30  2  0
 31 34  1  0
 31 30  1  0
 32 31  2  0
 33 32  1  0
 33 28  2  0
 34 35  1  0
 35 36  1  0
 36 37  2  0
 38 37  1  0
 38 42  1  0
 39 38  2  0
 40 35  2  0
 40 39  1  0
 41 40  1  0
 43 44  1  0
 44 47  1  0
 44 46  1  0
 45 43  2  0
 48 49  1  0
 48 23  1  0
 50 48  1  0
 51  3  1  0
 52 51  1  0
 52 53  1  0
 53 55  2  0
 53 54  1  0
 56 58  1  0
 56 52  1  0
 57 68  2  0
 58 63  1  0
 59 67  1  0
 59 69  1  0
 60 66  1  0
 60 62  1  0
 61 67  1  0
 62 61  1  0
 63 62  2  0
 64 65  1  0
 64 58  2  0
 65 60  2  0
 66 59  1  0
 67 57  1  0
 69 71  2  0
 70 69  1  0
 72 70  1  0
 73 82  2  0
 73 78  1  0
 74 70  1  0
 74 78  1  0
 75 74  1  0
 76 77  1  0
 76 75  1  0
 77 73  1  0
 78 79  2  0
 79 80  1  0
 81 80  2  0
 82 81  1  0
 83 57  1  0
 83 88  1  0
 83 84  1  0
 84 87  1  1
 84 85  1  0
 86 84  1  0
 88 91  1  0
 89 93  1  0
 89 88  1  0
 90 89  2  0
 93 92  1  0
 95 93  1  0
 95 96  1  0
 95 94  1  0
M  ISO  4  13 100  21 100  52 101  56 101
M  END
>  <TORSDO>  (64) 
F 20

>  <SCORE>  (64) 
-14.197

>  <name>  (64) 
63

>  <ligand_id>  (64) 
63

>  <original_smiles>  (64) 
[H]c1c([H])c([H])c2c(c1[H])C([H])([H])C([H])([H])C([H])([H])C2([H])N([H])C(=O)C1([H])N(C(=O)C([H])(N([H])C(=O)C([H])(N([H])C([H])([H])[H])C([H])([H])[H])C(C([H])([H])[H])(C([H])([H])[H])C([H])([H])[H])C([H])([H])c2c([H])c(OC([H])(C(=O)C([H])([H])[H])C([H])([H])[N+]([H])=C(c3c([H])c(N([H])C(=O)N4C([H])([H])C([H])([H])C([H])([H])C([H])(n5nc(-c6c([H])c([H])c(Oc7c([H])c([H])c(F)c([H])c7F)c([H])c6[H])c(C(=O)N([H])[H])c5N([H])[H])C4([H])[H])c([H])n3C([H])([H])[H])N([H])[H])c([H])c([H])c2C1([H])[H]

>  <smiles>  (64) 
[H]c1c([H])c([H])c2c(c1[H])C([H])([H])C([H])([H])C([H])([H])C2([H])N([H])C(=O)C1([H])N(C(=O)C([H])(N([H])C(=O)C([H])(N([H])C([H])([H])[H])C([H])([H])[H])C(C([H])([H])[H])(C([H])([H])[H])C([H])([H])[H])C([H])([H])c2c([H])c(OC([H])(C(=O)C([H])([H])[H])C([H])([H])[N+]([H])=C(c3c([H])c(N([H])C(=O)N4C([H])([H])C([H])([H])C([H])([H])C([H])(n5nc(-c6c([H])c([H])c(Oc7c([H])c([H])c(F)c([H])c7F)c([H])c6[H])c(C(=O)N([H])[H])c5N([H])[H])C4([H])[H])c([H])n3C([H])([H])[H])N([H])[H])c([H])c([H])c2C1([H])[H]

$$$$
64:0:0
     RDKit          3D

 92102  0  0  1  0  0  0  0  0999 V2000
  -28.8750  -22.6840   20.4370 C   0  0  0  0  0  0  0  0  0  0  0  0
  -28.9370  -22.4090   19.1160 C   0  0  0  0  0  0  0  0  0  0  0  0
  -29.3160  -20.5140   20.1550 C   0  0  0  0  0  0  0  0  0  0  0  0
  -28.6490  -24.1490   20.8850 C   0  0  0  0  0  2  0  0  0  0  0  0
  -28.7420  -23.4210   18.0320 C   0  0  0  0  0  2  0  0  0  0  0  0
  -28.8770  -24.8780   18.5980 C   0  0  0  0  0  2  0  0  0  0  0  0
  -29.0880  -21.4560   21.1160 N   0  0  0  0  0  0  0  0  0  0  0  0
  -28.1120  -25.0900   19.8450 N   0  0  0  0  0  0  0  0  0  0  0  0
  -29.1700  -21.0660   18.9040 O   0  0  0  0  0  0  0  0  0  0  0  0
  -30.6820  -14.7190   20.3850 C   0  0  0  0  0  0  0  0  0  0  0  0
  -30.3510  -12.4750   19.3560 C   0  0  0  0  0  2  0  0  0  0  0  0
  -29.4120  -12.5500   18.1370 C   0  0  0  0  0  2  0  0  0  0  0  0
  -27.9530  -12.3640   18.5860 C   0  0  0  0  0  2  0  0  0  0  0  0
  -27.5860  -13.2640   19.7930 C   0  0  0  0  0  3  0  0  0  0  0  0
  -28.6600  -13.2240   20.9080 C   0  0  0  0  0  2  0  0  0  0  0  0
  -29.9500  -13.5550   20.2910 N   0  0  0  0  0  0  0  0  0  0  0  0
  -31.8730  -14.6850   20.0600 O   0  0  0  0  0  0  0  0  0  0  0  0
  -30.5620  -18.5010   21.3580 C   0  0  0  0  0  2  0  0  0  0  0  0
  -28.4580  -17.9920   20.2930 C   0  0  0  0  0  2  0  0  0  0  0  0
  -31.0810  -17.0360   21.1460 C   0  0  0  0  0  2  0  0  0  0  0  0
  -28.8300  -16.4570   20.1850 C   0  0  0  0  0  2  0  0  0  0  0  0
  -29.6380  -18.9840   20.2290 C   0  0  0  0  0  3  0  0  0  0  0  0
  -30.1240  -15.9540   20.7360 N   0  0  0  0  0  0  0  0  0  0  0  0
  -25.2140  -13.8620   20.5600 C   0  0  0  0  0  0  0  0  0  0  0  0
  -24.1530  -13.0880   20.9380 C   0  0  0  0  0  0  0  0  0  0  0  0
  -24.6150  -11.7360   20.8930 C   0  0  0  0  0  0  0  0  0  0  0  0
  -26.2530  -12.9810   20.3060 N   0  0  0  0  0  0  0  0  0  0  0  0
  -25.9010  -11.6990   20.5720 N   0  0  0  0  0  0  0  0  0  0  0  0
  -23.8900  -10.4740   21.0780 C   0  0  0  0  0  0  0  0  0  0  0  0
  -24.3310   -9.4990   22.0000 C   0  0  0  0  0  3  0  0  0  0  0  0
  -23.6060   -8.3010   22.1750 C   0  0  0  0  0  3  0  0  0  0  0  0
  -22.4260   -8.0690   21.4260 C   0  0  0  0  0  0  0  0  0  0  0  0
  -22.0060   -9.0330   20.4940 C   0  0  0  0  0  3  0  0  0  0  0  0
  -22.7310  -10.2230   20.3170 C   0  0  0  0  0  3  0  0  0  0  0  0
  -21.6720   -6.9250   21.5120 O   0  0  0  0  0  0  0  0  0  0  0  0
  -21.6270   -6.1770   22.6610 C   0  0  0  0  0  0  0  0  0  0  0  0
  -21.1730   -6.7180   23.8840 C   0  0  0  0  0  3  0  0  0  0  0  0
  -21.0770   -5.8960   25.0250 C   0  0  0  0  0  3  0  0  0  0  0  0
  -21.4240   -4.5330   24.9420 C   0  0  0  0  0  0  0  0  0  0  0  0
  -21.8700   -3.9920   23.7240 C   0  0  0  0  0  3  0  0  0  0  0  0
  -21.9680   -4.8120   22.5850 C   0  0  0  0  0  0  0  0  0  0  0  0
  -22.3790   -4.2810   21.4090 F   0  0  0  0  0  0  0  0  0  0  0  0
  -21.3230   -3.7410   26.0340 F   0  0  0  0  0  0  0  0  0  0  0  0
  -22.7590  -13.5650   21.2250 C   0  0  0  0  0  0  0  0  0  0  0  0
  -22.0420  -12.8680   22.1000 N   0  0  0  0  0  0  0  0  0  0  0  0
  -22.3150  -14.5900   20.7100 O   0  0  0  0  0  0  0  0  0  0  0  0
  -22.4150  -12.0390   22.5370 H   0  0  0  0  0  0  0  0  0  0  0  0
  -21.1070  -13.1700   22.3360 H   0  0  0  0  0  0  0  0  0  0  0  0
  -25.3720  -15.2340   20.3840 N   0  0  0  0  0  0  0  0  0  0  0  0
  -24.6020  -15.8810   20.5050 H   0  0  0  0  0  0  0  0  0  0  0  0
  -26.2090  -15.6760   20.0310 H   0  0  0  0  0  0  0  0  0  0  0  0
  -28.3410  -26.5320   20.2290 O   0  0  0  0  0  0  0  0  0  0  0  0
  -24.6160  -31.9170   23.2540 C   0  0  0  0  0  0  0  0  0  0  0  0
  -27.2040  -27.3590   20.1820 C   0  0  0  0  0  0  0  0  0  0  0  0
  -23.4040  -30.5350   21.6060 C   0  0  0  0  0  3  0  0  0  0  0  0
  -24.8460  -28.9810   20.1740 C   0  0  0  0  0  0  0  0  0  0  0  0
  -25.9450  -30.8370   21.4280 C   0  0  0  0  0  2  0  0  0  0  0  0
  -26.0130  -29.4600   20.7790 C   0  0  0  0  0  0  0  0  0  0  0  0
  -27.1920  -28.6570   20.7800 C   0  0  0  0  0  3  0  0  0  0  0  0
  -26.0120  -26.9350   19.5480 C   0  0  0  0  0  3  0  0  0  0  0  0
  -24.8460  -27.7230   19.5530 C   0  0  0  0  0  3  0  0  0  0  0  0
  -23.6140  -29.8630   20.2230 C   0  0  0  0  0  2  0  0  0  0  0  0
  -24.6730  -31.1140   22.1530 N   0  0  0  0  0  0  0  0  0  0  0  0
  -23.5330  -32.2000   23.7890 O   0  0  0  0  0  0  0  0  0  0  0  0
  -22.7350  -29.5180   22.5610 C   0  0  0  0  0  0  0  0  0  0  0  0
  -21.4080  -29.3450   22.4260 N   0  0  0  0  0  0  0  0  0  0  0  0
  -23.4060  -28.8870   23.3810 O   0  0  0  0  0  0  0  0  0  0  0  0
  -20.9270  -29.9050   21.7370 H   0  0  0  0  0  0  0  0  0  0  0  0
  -18.0220  -28.1760   22.9130 C   0  0  0  0  0  0  0  0  0  0  0  0
  -20.5810  -28.4110   23.1910 C   0  0  0  0  0  3  0  0  0  0  0  0
  -20.6730  -26.9820   22.6070 C   0  0  0  0  0  2  0  0  0  0  0  0
  -19.5710  -26.6740   21.5890 C   0  0  0  0  0  2  0  0  0  0  0  0
  -18.1890  -26.8280   22.2320 C   0  0  0  0  0  2  0  0  0  0  0  0
  -19.1460  -28.9250   23.3490 C   0  0  0  0  0  0  0  0  0  0  0  0
  -18.9360  -30.1880   23.9470 C   0  0  0  0  0  3  0  0  0  0  0  0
  -17.6350  -30.6990   24.1120 C   0  0  0  0  0  3  0  0  0  0  0  0
  -16.5250  -29.9450   23.6930 C   0  0  0  0  0  3  0  0  0  0  0  0
  -16.7190  -28.6850   23.0990 C   0  0  0  0  0  3  0  0  0  0  0  0
  -25.9020  -32.5370   23.8810 C   0  0  0  0  0  3  0  0  0  0  0  0
  -25.6000  -33.9360   24.2210 N   0  0  0  0  0  0  0  0  0  0  0  0
  -25.9110  -34.9900   23.4550 C   0  0  0  0  0  0  0  0  0  0  0  0
  -26.5500  -34.8890   22.4060 O   0  0  0  0  0  0  0  0  0  0  0  0
  -25.0280  -34.0880   25.0380 H   0  0  0  0  0  0  0  0  0  0  0  0
  -24.1620  -36.7750   23.1670 C   0  0  0  0  0  1  0  0  0  0  0  0
  -25.4360  -36.3770   23.9300 C   0  0  0  0  0  3  0  0  0  0  0  0
  -27.5950  -37.2760   24.6780 C   0  0  0  0  0  1  0  0  0  0  0  0
  -26.4590  -37.4350   23.7750 N   0  0  0  0  0  0  0  0  0  0  0  0
  -26.0540  -38.3530   23.9340 H   0  0  0  0  0  0  0  0  0  0  0  0
  -26.4130  -31.7550   25.1520 C   0  0  1  0  0  0  0  0  0  0  0  0
  -25.3180  -31.5160   26.2170 C   0  0  0  0  0  1  0  0  0  0  0  0
  -26.9890  -30.3770   24.7520 C   0  0  0  0  0  1  0  0  0  0  0  0
  -27.5660  -32.5390   25.8220 C   0  0  0  0  0  1  0  0  0  0  0  0
  1  4  1  0
  1  7  1  0
  2  1  2  0
  3  7  2  0
  5  6  1  0
  5  2  1  0
  6  8  1  0
  8 52  1  0
  8  4  1  0
  9  2  1  0
  9  3  1  0
 10 23  1  0
 11 16  1  0
 12 13  1  0
 12 11  1  0
 14 13  1  0
 14 27  1  0
 14 15  1  0
 16 10  1  0
 16 15  1  0
 17 10  2  0
 20 18  1  0
 21 19  1  0
 21 23  1  0
 22  3  1  0
 22 19  1  0
 22 18  1  0
 23 20  1  0
 24 25  2  0
 25 44  1  0
 26 25  1  0
 26 29  1  0
 27 24  1  0
 27 28  1  0
 28 26  2  0
 29 30  1  0
 30 31  2  0
 32 35  1  0
 32 31  1  0
 33 32  2  0
 34 33  1  0
 34 29  2  0
 35 36  1  0
 36 37  1  0
 37 38  2  0
 39 38  1  0
 39 43  1  0
 40 39  2  0
 41 36  2  0
 41 40  1  0
 42 41  1  0
 44 45  1  0
 45 48  1  0
 45 47  1  0
 46 44  2  0
 49 50  1  0
 49 24  1  0
 51 49  1  0
 53 64  2  0
 54 52  1  0
 54 59  1  0
 55 63  1  0
 55 65  1  0
 56 62  1  0
 56 58  1  0
 57 63  1  0
 58 59  2  0
 58 57  1  0
 60 61  1  0
 60 54  2  0
 61 56  2  0
 62 55  1  0
 63 53  1  0
 65 67  2  0
 66 65  1  0
 68 66  1  0
 69 78  2  0
 69 74  1  0
 70 66  1  0
 70 74  1  0
 71 70  1  0
 72 73  1  0
 72 71  1  0
 73 69  1  0
 74 75  2  0
 75 76  1  0
 77 76  2  0
 78 77  1  0
 79 53  1  0
 79 80  1  0
 79 89  1  0
 80 83  1  0
 81 85  1  0
 81 80  1  0
 82 81  2  0
 85 84  1  0
 87 85  1  0
 87 88  1  0
 87 86  1  0
 89 92  1  1
 89 90  1  0
 91 89  1  0
M  ISO  4   8 101  10 100  23 100  52 101
M  END
>  <TORSDO>  (65) 
F 16

>  <SCORE>  (65) 
-15.975

>  <name>  (65) 
64

>  <ligand_id>  (65) 
64

>  <original_smiles>  (65) 
[H]c1c([H])c([H])c2c(c1[H])C([H])([H])C([H])([H])C([H])([H])C2([H])N([H])C(=O)C1([H])N(C(=O)C([H])(N([H])C(=O)C([H])(N([H])C([H])([H])[H])C([H])([H])[H])C(C([H])([H])[H])(C([H])([H])[H])C([H])([H])[H])C([H])([H])c2c([H])c(ON3C([H])([H])c4nc(C5([H])C([H])([H])C([H])([H])N(C(=O)N6C([H])([H])C([H])([H])C([H])([H])C([H])(n7nc(-c8c([H])c([H])c(Oc9c([H])c([H])c(F)c([H])c9F)c([H])c8[H])c(C(=O)N([H])[H])c7N([H])[H])C6([H])[H])C([H])([H])C5([H])[H])oc4C([H])([H])C3([H])[H])c([H])c([H])c2C1([H])[H]

>  <smiles>  (65) 
[H]c1c([H])c([H])c2c(c1[H])C([H])([H])C([H])([H])C([H])([H])C2([H])N([H])C(=O)C1([H])N(C(=O)C([H])(N([H])C(=O)C([H])(N([H])C([H])([H])[H])C([H])([H])[H])C(C([H])([H])[H])(C([H])([H])[H])C([H])([H])[H])C([H])([H])c2c([H])c(ON3C([H])([H])c4nc(C5([H])C([H])([H])C([H])([H])N(C(=O)N6C([H])([H])C([H])([H])C([H])([H])C([H])(n7nc(-c8c([H])c([H])c(Oc9c([H])c([H])c(F)c([H])c9F)c([H])c8[H])c(C(=O)N([H])[H])c7N([H])[H])C6([H])[H])C([H])([H])C5([H])[H])oc4C([H])([H])C3([H])[H])c([H])c([H])c2C1([H])[H]

$$$$
65:0:0
     RDKit          3D

 96104  0  0  1  0  0  0  0  0999 V2000
  -29.3450  -21.1450   20.9190 C   0  0  0  0  0  0  0  0  0  0  0  0
  -29.4380  -21.3380   22.2390 N   0  0  0  0  0  4  0  0  0  0  0  0
  -29.2250  -22.3120   20.1490 N   0  0  0  0  0  0  0  0  0  0  0  0
  -29.5220  -20.5430   22.8540 H   0  0  0  0  0  0  0  0  0  0  0  0
  -29.4120  -22.2470   22.6690 H   0  0  0  0  0  0  0  0  0  0  0  0
  -29.2370  -22.1660   19.1500 H   0  0  0  0  0  0  0  0  0  0  0  0
  -30.0620  -18.5510   21.0840 C   0  0  0  0  0  3  0  0  0  0  0  0
  -28.9810  -17.7180   19.3180 C   0  0  0  0  0  3  0  0  0  0  0  0
  -29.7750  -17.3180   20.3590 C   0  0  0  0  0  0  0  0  0  0  0  0
  -29.4200  -19.6700   20.5140 C   0  0  0  0  0  0  0  0  0  0  0  0
  -27.6830  -19.7110   18.6260 C   0  0  0  0  0  0  0  0  0  0  0  0
  -26.8660  -20.9020   19.1120 C   0  0  0  0  0  1  0  0  0  0  0  0
  -28.6970  -19.0930   19.4510 N   0  0  0  0  0  0  0  0  0  0  0  0
  -27.4180  -19.1770   17.5430 O   0  0  0  0  0  0  0  0  0  0  0  0
  -30.6690  -14.8200   20.2920 C   0  0  0  0  0  0  0  0  0  0  0  0
  -30.4640  -12.5470   19.2520 C   0  0  0  0  0  2  0  0  0  0  0  0
  -29.5170  -12.6480   18.0340 C   0  0  0  0  0  2  0  0  0  0  0  0
  -28.0470  -12.4880   18.4670 C   0  0  0  0  0  2  0  0  0  0  0  0
  -27.6930  -13.3600   19.7000 C   0  0  0  0  0  3  0  0  0  0  0  0
  -28.7540  -13.2250   20.8160 C   0  0  0  0  0  2  0  0  0  0  0  0
  -30.0580  -13.5820   20.2340 N   0  0  0  0  0  0  0  0  0  0  0  0
  -31.8190  -14.9560   19.8590 O   0  0  0  0  0  0  0  0  0  0  0  0
  -29.9260  -15.8920   20.7720 N   0  0  0  0  0  0  0  0  0  0  0  0
  -29.1000  -15.5390   21.2320 H   0  0  0  0  0  0  0  0  0  0  0  0
  -25.3070  -13.9780   20.4110 C   0  0  0  0  0  0  0  0  0  0  0  0
  -24.2340  -13.2170   20.7880 C   0  0  0  0  0  0  0  0  0  0  0  0
  -24.6860  -11.8620   20.7740 C   0  0  0  0  0  0  0  0  0  0  0  0
  -26.3440  -13.0880   20.1880 N   0  0  0  0  0  0  0  0  0  0  0  0
  -25.9770  -11.8110   20.4680 N   0  0  0  0  0  0  0  0  0  0  0  0
  -23.9490  -10.6080   20.9780 C   0  0  0  0  0  0  0  0  0  0  0  0
  -24.3820   -9.6400   21.9120 C   0  0  0  0  0  3  0  0  0  0  0  0
  -23.6450   -8.4520   22.1040 C   0  0  0  0  0  3  0  0  0  0  0  0
  -22.4610   -8.2220   21.3620 C   0  0  0  0  0  0  0  0  0  0  0  0
  -22.0480   -9.1780   20.4190 C   0  0  0  0  0  3  0  0  0  0  0  0
  -22.7860  -10.3580   20.2240 C   0  0  0  0  0  3  0  0  0  0  0  0
  -21.6960   -7.0860   21.4640 O   0  0  0  0  0  0  0  0  0  0  0  0
  -21.6590   -6.3430   22.6170 C   0  0  0  0  0  0  0  0  0  0  0  0
  -21.2640   -6.9030   23.8520 C   0  0  0  0  0  3  0  0  0  0  0  0
  -21.1740   -6.0870   24.9970 C   0  0  0  0  0  3  0  0  0  0  0  0
  -21.4680   -4.7130   24.9100 C   0  0  0  0  0  0  0  0  0  0  0  0
  -21.8560   -4.1530   23.6800 C   0  0  0  0  0  3  0  0  0  0  0  0
  -21.9480   -4.9660   22.5360 C   0  0  0  0  0  0  0  0  0  0  0  0
  -22.3020   -4.4170   21.3500 F   0  0  0  0  0  0  0  0  0  0  0  0
  -21.3740   -3.9280   26.0080 F   0  0  0  0  0  0  0  0  0  0  0  0
  -22.8400  -13.7090   21.0530 C   0  0  0  0  0  0  0  0  0  0  0  0
  -22.1090  -13.0330   21.9330 N   0  0  0  0  0  0  0  0  0  0  0  0
  -22.4090  -14.7280   20.5160 O   0  0  0  0  0  0  0  0  0  0  0  0
  -22.4710  -12.2080   22.3890 H   0  0  0  0  0  0  0  0  0  0  0  0
  -21.1740  -13.3450   22.1540 H   0  0  0  0  0  0  0  0  0  0  0  0
  -25.4820  -15.3460   20.2190 N   0  0  0  0  0  0  0  0  0  0  0  0
  -24.7190  -16.0060   20.3170 H   0  0  0  0  0  0  0  0  0  0  0  0
  -26.3360  -15.7760   19.8900 H   0  0  0  0  0  0  0  0  0  0  0  0
  -29.3410  -23.8240   20.5060 C   0  0  0  0  0  2  0  0  0  0  0  0
  -27.0890  -24.4980   21.4430 C   0  0  0  0  0  1  0  0  0  0  0  0
  -28.0890  -24.8500   20.3200 C   0  0  0  0  0  3  0  0  0  0  0  0
  -28.3120  -26.3610   20.3160 O   0  0  0  0  0  0  0  0  0  0  0  0
  -24.5750  -31.8870   23.2170 C   0  0  0  0  0  0  0  0  0  0  0  0
  -27.2210  -27.2700   20.2100 C   0  0  0  0  0  0  0  0  0  0  0  0
  -23.3910  -30.4710   21.5810 C   0  0  0  0  0  3  0  0  0  0  0  0
  -24.8580  -28.9200   20.1630 C   0  0  0  0  0  0  0  0  0  0  0  0
  -25.9330  -30.7890   21.4110 C   0  0  0  0  0  2  0  0  0  0  0  0
  -26.0240  -29.4030   20.7690 C   0  0  0  0  0  0  0  0  0  0  0  0
  -27.2080  -28.5910   20.7790 C   0  0  0  0  0  3  0  0  0  0  0  0
  -26.0360  -26.8720   19.5490 C   0  0  0  0  0  3  0  0  0  0  0  0
  -24.8710  -27.6640   19.5390 C   0  0  0  0  0  3  0  0  0  0  0  0
  -23.6160  -29.7910   20.2040 C   0  0  0  0  0  2  0  0  0  0  0  0
  -24.6520  -31.0680   22.1250 N   0  0  0  0  0  0  0  0  0  0  0  0
  -23.4870  -32.1610   23.7430 O   0  0  0  0  0  0  0  0  0  0  0  0
  -22.7280  -29.4570   22.5450 C   0  0  0  0  0  0  0  0  0  0  0  0
  -21.3990  -29.2830   22.4260 N   0  0  0  0  0  0  0  0  0  0  0  0
  -23.4070  -28.8300   23.3610 O   0  0  0  0  0  0  0  0  0  0  0  0
  -20.9070  -29.8380   21.7400 H   0  0  0  0  0  0  0  0  0  0  0  0
  -18.0220  -28.0930   22.9550 C   0  0  0  0  0  0  0  0  0  0  0  0
  -20.5840  -28.3460   23.2020 C   0  0  0  0  0  3  0  0  0  0  0  0
  -20.6770  -26.9150   22.6210 C   0  0  0  0  0  2  0  0  0  0  0  0
  -19.5640  -26.5980   21.6160 C   0  0  0  0  0  2  0  0  0  0  0  0
  -18.1890  -26.7450   22.2730 C   0  0  0  0  0  2  0  0  0  0  0  0
  -19.1470  -28.8510   23.3760 C   0  0  0  0  0  0  0  0  0  0  0  0
  -18.9360  -30.1120   23.9750 C   0  0  0  0  0  3  0  0  0  0  0  0
  -17.6340  -30.6150   24.1560 C   0  0  0  0  0  3  0  0  0  0  0  0
  -16.5250  -29.8550   23.7490 C   0  0  0  0  0  3  0  0  0  0  0  0
  -16.7200  -28.5960   23.1560 C   0  0  0  0  0  3  0  0  0  0  0  0
  -25.8500  -32.5350   23.8400 C   0  0  0  0  0  3  0  0  0  0  0  0
  -26.3680  -31.7750   25.1220 C   0  0  1  0  0  0  0  0  0  0  0  0
  -25.2730  -31.5320   26.1870 C   0  0  0  0  0  1  0  0  0  0  0  0
  -26.9650  -30.4000   24.7420 C   0  0  0  0  0  1  0  0  0  0  0  0
  -27.5080  -32.5830   25.7850 C   0  0  0  0  0  1  0  0  0  0  0  0
  -25.5250  -33.9320   24.1650 N   0  0  0  0  0  0  0  0  0  0  0  0
  -25.8550  -34.9880   23.4100 C   0  0  0  0  0  0  0  0  0  0  0  0
  -26.5320  -34.8890   22.3830 O   0  0  0  0  0  0  0  0  0  0  0  0
  -24.9230  -34.0830   24.9620 H   0  0  0  0  0  0  0  0  0  0  0  0
  -24.1230  -36.7750   23.0370 C   0  0  0  0  0  1  0  0  0  0  0  0
  -25.3550  -36.3740   23.8630 C   0  0  0  0  0  3  0  0  0  0  0  0
  -27.4730  -37.2680   24.7250 C   0  0  0  0  0  1  0  0  0  0  0  0
  -26.3840  -37.4320   23.7660 N   0  0  0  0  0  0  0  0  0  0  0  0
  -25.9720  -38.3500   23.9100 H   0  0  0  0  0  0  0  0  0  0  0  0
  1  2  2  0
  2  5  1  0
  2  4  1  0
  3 53  1  0
  3  1  1  0
  6  3  1  0
  8 13  1  0
  8  9  2  0
  9 23  1  0
  9  7  1  0
 10  1  1  0
 10  7  2  0
 11 12  1  0
 11 13  1  0
 13 10  1  0
 14 11  2  0
 15 23  1  0
 16 21  1  0
 17 18  1  0
 17 16  1  0
 19 18  1  0
 19 28  1  0
 19 20  1  0
 21 15  1  0
 21 20  1  0
 22 15  2  0
 23 24  1  0
 25 26  2  0
 26 45  1  0
 27 26  1  0
 27 30  1  0
 28 25  1  0
 28 29  1  0
 29 27  2  0
 30 31  1  0
 31 32  2  0
 33 36  1  0
 33 32  1  0
 34 33  2  0
 35 34  1  0
 35 30  2  0
 36 37  1  0
 37 38  1  0
 38 39  2  0
 40 39  1  0
 40 44  1  0
 41 40  2  0
 42 37  2  0
 42 41  1  0
 43 42  1  0
 45 46  1  0
 46 49  1  0
 46 48  1  0
 47 45  2  0
 50 51  1  0
 50 25  1  0
 52 50  1  0
 55 53  1  0
 55 54  1  0
 56 55  1  0
 57 68  2  0
 58 56  1  0
 58 63  1  0
 59 67  1  0
 59 69  1  0
 60 66  1  0
 60 62  1  0
 61 67  1  0
 62 63  2  0
 62 61  1  0
 64 58  2  0
 65 64  1  0
 65 60  2  0
 66 59  1  0
 67 57  1  0
 69 71  2  0
 70 69  1  0
 72 70  1  0
 73 82  2  0
 73 78  1  0
 74 70  1  0
 74 78  1  0
 75 74  1  0
 76 77  1  0
 76 75  1  0
 77 73  1  0
 78 79  2  0
 79 80  1  0
 81 80  2  0
 82 81  1  0
 83 57  1  0
 83 88  1  0
 83 84  1  0
 84 87  1  1
 84 85  1  0
 86 84  1  0
 88 91  1  0
 89 93  1  0
 89 88  1  0
 90 89  2  0
 93 92  1  0
 95 93  1  0
 95 96  1  0
 95 94  1  0
M  ISO  4  15 100  23 100  55 101  56 101
M  END
>  <TORSDO>  (66) 
F 19

>  <SCORE>  (66) 
-14.569

>  <name>  (66) 
65

>  <ligand_id>  (66) 
65

>  <original_smiles>  (66) 
[H]c1c([H])c([H])c2c(c1[H])C([H])([H])C([H])([H])C([H])([H])C2([H])N([H])C(=O)C1([H])N(C(=O)C([H])(N([H])C(=O)C([H])(N([H])C([H])([H])[H])C([H])([H])[H])C(C([H])([H])[H])(C([H])([H])[H])C([H])([H])[H])C([H])([H])c2c([H])c(OC([H])(C([H])([H])[H])C([H])([H])[N+]([H])=C(c3c([H])c(N([H])C(=O)N4C([H])([H])C([H])([H])C([H])([H])C([H])(n5nc(-c6c([H])c([H])c(Oc7c([H])c([H])c(F)c([H])c7F)c([H])c6[H])c(C(=O)N([H])[H])c5N([H])[H])C4([H])[H])c([H])n3C(=O)C([H])([H])[H])N([H])[H])c([H])c([H])c2C1([H])[H]

>  <smiles>  (66) 
[H]c1c([H])c([H])c2c(c1[H])C([H])([H])C([H])([H])C([H])([H])C2([H])N([H])C(=O)C1([H])N(C(=O)C([H])(N([H])C(=O)C([H])(N([H])C([H])([H])[H])C([H])([H])[H])C(C([H])([H])[H])(C([H])([H])[H])C([H])([H])[H])C([H])([H])c2c([H])c(OC([H])(C([H])([H])[H])C([H])([H])[N+]([H])=C(c3c([H])c(N([H])C(=O)N4C([H])([H])C([H])([H])C([H])([H])C([H])(n5nc(-c6c([H])c([H])c(Oc7c([H])c([H])c(F)c([H])c7F)c([H])c6[H])c(C(=O)N([H])[H])c5N([H])[H])C4([H])[H])c([H])n3C(=O)C([H])([H])[H])N([H])[H])c([H])c([H])c2C1([H])[H]

$$$$
66:0:0
     RDKit          3D

101110  0  0  1  0  0  0  0  0999 V2000
  -24.6330  -20.6900   18.4380 C   0  0  0  0  0  3  0  0  0  0  0  0
  -25.2500  -21.7040   17.6710 C   0  0  0  0  0  3  0  0  0  0  0  0
  -25.3900  -19.9300   19.3600 C   0  0  0  0  0  3  0  0  0  0  0  0
  -26.6200  -22.0000   17.8430 C   0  0  0  0  0  3  0  0  0  0  0  0
  -26.7580  -20.2260   19.5090 C   0  0  0  0  0  0  0  0  0  0  0  0
  -27.3520  -21.2570   18.7980 C   0  0  0  0  0  0  0  0  0  0  0  0
  -29.3030  -22.6400   19.3480 C   0  0  0  0  0  0  0  0  0  0  0  0
  -27.7750  -19.5030   20.3600 C   0  0  0  0  0  2  0  0  0  0  0  0
  -29.1480  -20.0290   19.8280 C   0  0  0  0  0  3  0  0  0  0  0  0
  -28.7110  -21.3790   19.1690 N   0  0  0  0  0  0  0  0  0  0  0  0
  -30.5360  -22.6820   19.3710 O   0  0  0  0  0  0  0  0  0  0  0  0
  -29.8420  -18.7880   19.0190 C   0  0  0  0  0  0  0  0  0  0  0  0
  -29.6040  -18.6100   17.7920 N   0  0  0  0  0  0  0  0  0  0  0  0
  -28.9660  -19.3050   17.4180 H   0  0  0  0  0  0  0  0  0  0  0  0
  -32.2910  -18.1530   19.5060 C   0  0  0  0  0  1  0  0  0  0  0  0
  -30.8330  -17.7370   19.7680 C   0  0  0  0  0  3  0  0  0  0  0  0
  -31.4880  -15.0760   19.6250 C   0  0  0  0  0  0  0  0  0  0  0  0
  -31.3470  -12.6510   18.9710 C   0  0  0  0  0  2  0  0  0  0  0  0
  -30.3430  -12.4940   17.8070 C   0  0  0  0  0  2  0  0  0  0  0  0
  -28.9000  -12.3660   18.3340 C   0  0  0  0  0  2  0  0  0  0  0  0
  -28.5640  -13.4230   19.4190 C   0  0  0  0  0  3  0  0  0  0  0  0
  -29.6770  -13.5170   20.4820 C   0  0  0  0  0  2  0  0  0  0  0  0
  -30.9180  -13.8260   19.7640 N   0  0  0  0  0  0  0  0  0  0  0  0
  -32.6770  -15.1490   19.3020 O   0  0  0  0  0  0  0  0  0  0  0  0
  -30.6440  -16.1950   19.6670 N   0  0  0  0  0  0  0  0  0  0  0  0
  -29.6760  -15.9330   19.7730 H   0  0  0  0  0  0  0  0  0  0  0  0
  -26.3200  -14.1400   20.4280 C   0  0  0  0  0  0  0  0  0  0  0  0
  -25.2290  -13.4250   20.8410 C   0  0  0  0  0  0  0  0  0  0  0  0
  -25.5660  -12.0490   20.6580 C   0  0  0  0  0  0  0  0  0  0  0  0
  -27.2550  -13.2020   20.0200 N   0  0  0  0  0  0  0  0  0  0  0  0
  -26.8140  -11.9340   20.2190 N   0  0  0  0  0  0  0  0  0  0  0  0
  -24.7530  -10.8360   20.8170 C   0  0  0  0  0  0  0  0  0  0  0  0
  -25.0790   -9.8460   21.7690 C   0  0  0  0  0  3  0  0  0  0  0  0
  -24.2700   -8.6990   21.9140 C   0  0  0  0  0  3  0  0  0  0  0  0
  -23.1200   -8.5350   21.1050 C   0  0  0  0  0  0  0  0  0  0  0  0
  -22.8140   -9.5120   20.1420 C   0  0  0  0  0  3  0  0  0  0  0  0
  -23.6230  -10.6510   19.9970 C   0  0  0  0  0  3  0  0  0  0  0  0
  -22.2900   -7.4420   21.1580 O   0  0  0  0  0  0  0  0  0  0  0  0
  -21.9850   -6.8270   22.3450 C   0  0  0  0  0  0  0  0  0  0  0  0
  -21.3590   -7.5210   23.4030 C   0  0  0  0  0  3  0  0  0  0  0  0
  -21.0020   -6.8350   24.5830 C   0  0  0  0  0  3  0  0  0  0  0  0
  -21.2590   -5.4540   24.6980 C   0  0  0  0  0  0  0  0  0  0  0  0
  -21.8780   -4.7620   23.6420 C   0  0  0  0  0  3  0  0  0  0  0  0
  -22.2370   -5.4460   22.4670 C   0  0  0  0  0  0  0  0  0  0  0  0
  -22.8130   -4.7700   21.4430 F   0  0  0  0  0  0  0  0  0  0  0  0
  -20.9100   -4.7900   25.8260 F   0  0  0  0  0  0  0  0  0  0  0  0
  -23.9100  -13.9890   21.2810 C   0  0  0  0  0  0  0  0  0  0  0  0
  -23.2180  -13.2950   22.1780 N   0  0  0  0  0  0  0  0  0  0  0  0
  -23.5070  -15.0750   20.8690 O   0  0  0  0  0  0  0  0  0  0  0  0
  -23.5630  -12.4170   22.5400 H   0  0  0  0  0  0  0  0  0  0  0  0
  -22.3340  -13.6490   22.5150 H   0  0  0  0  0  0  0  0  0  0  0  0
  -26.5870  -15.5040   20.3390 N   0  0  0  0  0  0  0  0  0  0  0  0
  -25.8740  -16.1950   20.5480 H   0  0  0  0  0  0  0  0  0  0  0  0
  -27.3820  -15.8930   19.8530 H   0  0  0  0  0  0  0  0  0  0  0  0
  -28.9920  -25.1900   19.3080 C   0  0  0  0  0  3  0  0  0  0  0  0
  -28.4850  -23.9230   19.5940 C   0  0  0  0  0  0  0  0  0  0  0  0
  -27.1670  -23.8720   20.2680 N   0  0  0  0  0  4  0  0  0  0  0  0
  -26.7790  -24.7930   20.3500 H   0  0  0  0  0  0  0  0  0  0  0  0
  -27.2490  -23.4860   21.1930 H   0  0  0  0  0  0  0  0  0  0  0  0
  -26.5260  -23.2960   19.7470 H   0  0  0  0  0  0  0  0  0  0  0  0
  -28.6510  -26.5610   19.6030 O   0  0  0  0  0  0  0  0  0  0  0  0
  -24.6120  -31.5070   23.0450 C   0  0  0  0  0  0  0  0  0  0  0  0
  -27.4380  -27.2830   19.6380 C   0  0  0  0  0  0  0  0  0  0  0  0
  -23.4820  -30.1960   21.2810 C   0  0  0  0  0  3  0  0  0  0  0  0
  -25.0050  -28.8150   19.7450 C   0  0  0  0  0  0  0  0  0  0  0  0
  -26.0070  -30.6190   21.1550 C   0  0  0  0  0  2  0  0  0  0  0  0
  -26.1440  -29.2950   20.4000 C   0  0  0  0  0  0  0  0  0  0  0  0
  -27.3540  -28.5370   20.3400 C   0  0  0  0  0  3  0  0  0  0  0  0
  -26.2810  -26.8700   18.9490 C   0  0  0  0  0  3  0  0  0  0  0  0
  -25.0790  -27.6140   19.0130 C   0  0  0  0  0  3  0  0  0  0  0  0
  -23.7340  -29.6400   19.8520 C   0  0  0  0  0  2  0  0  0  0  0  0
  -24.7180  -30.7910   21.8850 N   0  0  0  0  0  0  0  0  0  0  0  0
  -23.5140  -31.6940   23.5890 O   0  0  0  0  0  0  0  0  0  0  0  0
  -22.8560  -29.0800   22.1510 C   0  0  0  0  0  0  0  0  0  0  0  0
  -21.5340  -28.8810   22.0210 N   0  0  0  0  0  0  0  0  0  0  0  0
  -23.5610  -28.4000   22.9010 O   0  0  0  0  0  0  0  0  0  0  0  0
  -21.0230  -29.4870   21.3940 H   0  0  0  0  0  0  0  0  0  0  0  0
  -18.1990  -27.5380   22.4260 C   0  0  0  0  0  0  0  0  0  0  0  0
  -20.7500  -27.8530   22.7070 C   0  0  0  0  0  3  0  0  0  0  0  0
  -20.8920  -26.4830   22.0020 C   0  0  0  0  0  2  0  0  0  0  0  0
  -19.7930  -26.2200   20.9680 C   0  0  0  0  0  2  0  0  0  0  0  0
  -18.4120  -26.2620   21.6280 C   0  0  0  0  0  2  0  0  0  0  0  0
  -19.2960  -28.2930   22.9190 C   0  0  0  0  0  0  0  0  0  0  0  0
  -19.0440  -29.4890   23.6250 C   0  0  0  0  0  3  0  0  0  0  0  0
  -17.7260  -29.9310   23.8430 C   0  0  0  0  0  3  0  0  0  0  0  0
  -16.6420  -29.1710   23.3670 C   0  0  0  0  0  3  0  0  0  0  0  0
  -16.8800  -27.9770   22.6630 C   0  0  0  0  0  3  0  0  0  0  0  0
  -25.8620  -32.1410   23.7320 C   0  0  0  0  0  3  0  0  0  0  0  0
  -26.3060  -31.3790   25.0400 C   0  0  1  0  0  0  0  0  0  0  0  0
  -25.1640  -31.1790   26.0630 C   0  0  0  0  0  1  0  0  0  0  0  0
  -26.8780  -29.9850   24.6960 C   0  0  0  0  0  1  0  0  0  0  0  0
  -27.4430  -32.1590   25.7410 C   0  0  0  0  0  1  0  0  0  0  0  0
  -25.5380  -33.5420   24.0390 N   0  0  0  0  0  0  0  0  0  0  0  0
  -25.8920  -34.5920   23.2830 C   0  0  0  0  0  0  0  0  0  0  0  0
  -26.5920  -34.4810   22.2740 O   0  0  0  0  0  0  0  0  0  0  0  0
  -24.9160  -33.7010   24.8160 H   0  0  0  0  0  0  0  0  0  0  0  0
  -24.1540  -36.3680   22.8820 C   0  0  0  0  0  1  0  0  0  0  0  0
  -25.3880  -35.9830   23.7160 C   0  0  0  0  0  3  0  0  0  0  0  0
  -27.5010  -36.8970   24.5690 C   0  0  0  0  0  1  0  0  0  0  0  0
  -26.4110  -37.0450   23.6080 N   0  0  0  0  0  0  0  0  0  0  0  0
  -25.9920  -37.9610   23.7450 H   0  0  0  0  0  0  0  0  0  0  0  0
  1  3  1  0
  2  4  1  0
  2  1  2  0
  3  5  2  0
  4  6  2  0
  5  8  1  0
  6 10  1  0
  6  5  1  0
  7 11  2  0
  7 56  1  0
  9 12  1  0
  9  8  1  0
 10  7  1  0
 10  9  1  0
 12 16  1  0
 13 12  2  0
 14 13  1  0
 16 15  1  0
 17 25  1  0
 17 23  1  0
 18 23  1  0
 19 20  1  0
 19 18  1  0
 21 20  1  0
 21 30  1  0
 21 22  1  0
 23 22  1  0
 24 17  2  0
 25 16  1  0
 25 26  1  0
 27 28  2  0
 28 47  1  0
 29 32  1  0
 29 28  1  0
 30 31  1  0
 30 27  1  0
 31 29  2  0
 32 33  1  0
 33 34  2  0
 35 38  1  0
 35 34  1  0
 36 35  2  0
 37 36  1  0
 37 32  2  0
 38 39  1  0
 39 44  2  0
 39 40  1  0
 40 41  2  0
 41 42  1  0
 42 46  1  0
 43 42  2  0
 44 43  1  0
 45 44  1  0
 47 48  1  0
 48 51  1  0
 48 50  1  0
 49 47  2  0
 52 27  1  0
 52 53  1  0
 54 52  1  0
 55 56  2  0
 55 61  1  0
 56 57  1  0
 57 58  1  0
 57 59  1  0
 60 57  1  0
 61 63  1  0
 62 73  2  0
 63 68  1  0
 64 72  1  0
 64 74  1  0
 65 71  1  0
 65 67  1  0
 66 72  1  0
 67 66  1  0
 68 67  2  0
 69 70  1  0
 69 63  2  0
 70 65  2  0
 71 64  1  0
 72 62  1  0
 74 76  2  0
 75 74  1  0
 77 75  1  0
 78 87  2  0
 78 83  1  0
 79 75  1  0
 79 83  1  0
 80 79  1  0
 81 82  1  0
 81 80  1  0
 82 78  1  0
 83 84  2  0
 84 85  1  0
 86 85  2  0
 87 86  1  0
 88 62  1  0
 88 93  1  0
 88 89  1  0
 89 92  1  1
 89 90  1  0
 91 89  1  0
 93 96  1  0
 94 98  1  0
 94 93  1  0
 95 94  2  0
 98 97  1  0
100 98  1  0
100101  1  0
100 99  1  0
M  ISO  4  17 100  25 100  55 101  61 101
M  END
>  <TORSDO>  (67) 
F 20

>  <SCORE>  (67) 
-10.337

>  <name>  (67) 
66

>  <ligand_id>  (67) 
66

>  <original_smiles>  (67) 
[H]N=C(C([H])(N([H])C(=O)N1C([H])([H])C([H])([H])C([H])([H])C([H])(n2nc(-c3c([H])c([H])c(Oc4c([H])c([H])c(F)c([H])c4F)c([H])c3[H])c(C(=O)N([H])[H])c2N([H])[H])C1([H])[H])C([H])([H])[H])C1([H])N(C(=O)C(=C([H])Oc2c([H])c([H])c3c(c2[H])C([H])([H])N(C(=O)C([H])(N([H])C(=O)C([H])(N([H])C([H])([H])[H])C([H])([H])[H])C(C([H])([H])[H])(C([H])([H])[H])C([H])([H])[H])C([H])(C(=O)N([H])C2([H])c4c([H])c([H])c([H])c([H])c4C([H])([H])C([H])([H])C2([H])[H])C3([H])[H])[N+]([H])([H])[H])c2c([H])c([H])c([H])c([H])c2C1([H])[H]

>  <smiles>  (67) 
[H]N=C(C([H])(N([H])C(=O)N1C([H])([H])C([H])([H])C([H])([H])C([H])(n2nc(-c3c([H])c([H])c(Oc4c([H])c([H])c(F)c([H])c4F)c([H])c3[H])c(C(=O)N([H])[H])c2N([H])[H])C1([H])[H])C([H])([H])[H])C1([H])N(C(=O)C(=C([H])Oc2c([H])c([H])c3c(c2[H])C([H])([H])N(C(=O)C([H])(N([H])C(=O)C([H])(N([H])C([H])([H])[H])C([H])([H])[H])C(C([H])([H])[H])(C([H])([H])[H])C([H])([H])[H])C([H])(C(=O)N([H])C2([H])c4c([H])c([H])c([H])c([H])c4C([H])([H])C([H])([H])C2([H])[H])C3([H])[H])[N+]([H])([H])[H])c2c([H])c([H])c([H])c([H])c2C1([H])[H]

$$$$
67:0:0
     RDKit          3D

 95 98  0  0  1  0  0  0  0  0999 V2000
  -24.9110  -23.0910   19.0300 C   0  0  0  0  0  3  0  0  0  0  0  0
  -25.8110  -21.8090   18.9230 C   0  0  0  0  0  0  0  0  0  0  0  0
  -26.6880  -21.3260   19.9580 C   0  0  0  0  0  3  0  0  0  0  0  0
  -24.8130  -23.8660   20.2290 C   0  0  0  0  0  0  0  0  0  0  0  0
  -25.9130  -22.6470   20.8000 O   0  0  0  0  0  0  0  0  0  0  0  0
  -24.0440  -21.1130   16.0640 C   0  0  0  0  0  2  0  0  0  0  0  0
  -23.4780  -20.4980   17.3430 C   0  0  0  0  0  2  0  0  0  0  0  0
  -25.4890  -21.5040   16.4470 C   0  0  0  0  0  2  0  0  0  0  0  0
  -24.7380  -19.9140   17.9760 C   0  0  0  0  0  2  0  0  0  0  0  0
  -25.7400  -20.9590   17.7940 N   0  0  0  0  0  0  0  0  0  0  0  0
  -23.6680  -25.2410   20.7920 N   0  0  0  0  0  2  0  0  0  0  0  0
  -23.4950  -24.8530   21.7240 H   0  0  0  0  0  0  0  0  0  0  0  0
  -22.6280  -26.9970   20.7950 C   0  0  0  0  0 15  0  0  0  0  0  0
  -22.5870  -29.2120   24.4090 C   0  0  0  0  0  1  0  0  0  0  0  0
  -22.9520  -29.0940   22.8280 C   0  0  0  0  0  1  0  0  0  0  0  0
  -25.2950  -28.7330   22.6880 O   0  0  0  0  0  1  0  0  0  0  0  0
  -24.4810  -31.4360   22.8210 C   0  0  0  0  0  0  0  0  0  0  0  0
  -26.2960  -27.9510   21.7120 C   0  0  0  0  0  3  0  0  0  0  0  0
  -24.0060  -28.9040   20.9590 C   0  0  0  0  0  2  0  0  0  0  0  0
  -25.4070  -28.7920   19.4600 C   0  0  0  0  0  3  0  0  0  0  0  0
  -25.7920  -30.8780   20.8710 C   0  0  0  0  0  2  0  0  0  0  0  0
  -26.2960  -29.5850   20.2720 C   0  0  0  0  0  3  0  0  0  0  0  0
  -27.1420  -28.8700   21.1140 C   0  0  0  0  0  2  0  0  0  0  0  0
  -26.0180  -26.9440   20.6880 C   0  0  0  0  0  2  0  0  0  0  0  0
  -25.5220  -27.3950   19.4610 C   0  0  0  0  0  2  0  0  0  0  0  0
  -24.0210  -29.1380   19.4850 C   0  0  0  0  0  2  0  0  0  0  0  0
  -24.5470  -30.5960   21.5640 N   0  0  0  0  0  0  0  0  0  0  0  0
  -23.3930  -31.8000   23.3100 O   0  0  0  0  0  0  0  0  0  0  0  0
  -23.7620  -27.0430   22.8490 C   0  0  0  0  0  2  0  0  0  0  0  0
  -22.2650  -26.8970   23.3030 N   0  0  0  0  0  0  0  0  0  0  0  0
  -24.2640  -27.0760   23.9480 O   0  0  0  0  0  1  0  0  0  0  0  0
  -22.3180  -26.5530   24.2520 H   0  0  0  0  0  0  0  0  0  0  0  0
  -18.0240  -27.5200   22.7090 C   0  0  0  0  0  0  0  0  0  0  0  0
  -20.6790  -27.1530   22.9660 C   0  0  0  0  0  3  0  0  0  0  0  0
  -20.3030  -25.8030   22.4300 C   0  0  0  0  0  2  0  0  0  0  0  0
  -19.2860  -25.8570   21.3250 C   0  0  0  0  0  2  0  0  0  0  0  0
  -17.9710  -26.2050   21.9660 C   0  0  0  0  0  2  0  0  0  0  0  0
  -19.2870  -28.1190   23.1210 C   0  0  0  0  0  0  0  0  0  0  0  0
  -19.0650  -29.4450   23.6450 C   0  0  0  0  0  3  0  0  0  0  0  0
  -17.7620  -30.0510   23.7850 C   0  0  0  0  0  3  0  0  0  0  0  0
  -16.5870  -29.3520   23.4470 C   0  0  0  0  0  3  0  0  0  0  0  0
  -16.7340  -28.0790   22.9050 C   0  0  0  0  0  3  0  0  0  0  0  0
  -25.6490  -32.1480   23.7440 C   0  0  0  0  0  3  0  0  0  0  0  0
  -25.2840  -33.5730   24.0490 N   0  0  0  0  0  0  0  0  0  0  0  0
  -25.7460  -34.6620   23.4100 C   0  0  0  0  0  0  0  0  0  0  0  0
  -26.5180  -34.5610   22.4520 O   0  0  0  0  0  0  0  0  0  0  0  0
  -24.5710  -33.7130   24.7520 H   0  0  0  0  0  0  0  0  0  0  0  0
  -24.0450  -36.4970   23.0460 C   0  0  0  0  0  1  0  0  0  0  0  0
  -25.2770  -36.0730   23.8600 C   0  0  0  0  0  3  0  0  0  0  0  0
  -27.4120  -36.9850   24.6820 C   0  0  0  0  0  1  0  0  0  0  0  0
  -26.3160  -37.1240   23.7270 N   0  0  0  0  0  0  0  0  0  0  0  0
  -25.9120  -38.0510   23.8270 H   0  0  0  0  0  0  0  0  0  0  0  0
  -26.0320  -31.5100   25.1810 C   0  0  1  0  0  0  0  0  0  0  0  0
  -24.8550  -31.3530   26.1830 C   0  0  0  0  0  1  0  0  0  0  0  0
  -26.7110  -30.1420   25.0100 C   0  0  0  0  0  1  0  0  0  0  0  0
  -27.1000  -32.3640   25.9290 C   0  0  0  0  0  1  0  0  0  0  0  0
  -28.1080  -19.6960   20.2420 C   0  0  0  0  0 15  0  0  0  0  0  0
  -29.9250  -16.4760   19.9200 C   0  0  0  0  0  0  0  0  0  0  0  0
  -30.7140  -13.8200   19.1930 C   0  0  0  0  0  2  0  0  0  0  0  0
  -29.9860  -12.9990   18.0640 C   0  0  0  0  0  2  0  0  0  0  0  0
  -28.6130  -12.5000   18.5420 C   0  0  0  0  0  2  0  0  0  0  0  0
  -27.9910  -13.5810   19.4370 C   0  0  0  0  0  3  0  0  0  0  0  0
  -28.8990  -14.0720   20.5610 C   0  0  0  0  0  2  0  0  0  0  0  0
  -29.8170  -14.9550   19.8420 N   0  0  0  0  0  0  0  0  0  0  0  0
  -31.2050  -16.5110   19.8660 O   0  0  0  0  0  0  0  0  0  0  0  0
  -28.7740  -17.7850   19.9220 N   0  0  0  0  0  2  0  0  0  0  0  0
  -27.9250  -17.3020   19.6760 H   0  0  0  0  0  0  0  0  0  0  0  0
  -25.7650  -14.2420   20.3200 C   0  0  0  0  0  0  0  0  0  0  0  0
  -24.6820  -13.5220   20.7160 C   0  0  0  0  0  0  0  0  0  0  0  0
  -25.0670  -12.1470   20.6240 C   0  0  0  0  0  0  0  0  0  0  0  0
  -26.7070  -13.3010   19.9780 N   0  0  0  0  0  0  0  0  0  0  0  0
  -26.3300  -12.0370   20.2450 N   0  0  0  0  0  0  0  0  0  0  0  0
  -24.2790  -10.9270   20.7900 C   0  0  0  0  0  0  0  0  0  0  0  0
  -24.6510   -9.9310   21.7160 C   0  0  0  0  0  3  0  0  0  0  0  0
  -23.8600   -8.7760   21.8730 C   0  0  0  0  0  3  0  0  0  0  0  0
  -22.6900   -8.6110   21.0960 C   0  0  0  0  0  0  0  0  0  0  0  0
  -22.3460   -9.5900   20.1470 C   0  0  0  0  0  3  0  0  0  0  0  0
  -23.1380  -10.7370   19.9890 C   0  0  0  0  0  3  0  0  0  0  0  0
  -21.8700   -7.5130   21.1590 O   0  0  0  0  0  0  0  0  0  0  0  0
  -21.6570   -6.8530   22.3390 C   0  0  0  0  0  0  0  0  0  0  0  0
  -21.1460   -7.5080   23.4820 C   0  0  0  0  0  3  0  0  0  0  0  0
  -20.8760   -6.7720   24.6530 C   0  0  0  0  0  3  0  0  0  0  0  0
  -21.1070   -5.3830   24.6810 C   0  0  0  0  0  0  0  0  0  0  0  0
  -21.6070   -4.7280   23.5420 C   0  0  0  0  0  3  0  0  0  0  0  0
  -21.8800   -5.4620   22.3740 C   0  0  0  0  0  0  0  0  0  0  0  0
  -22.3450   -4.8260   21.2730 F   0  0  0  0  0  0  0  0  0  0  0  0
  -20.8380   -4.6730   25.8010 F   0  0  0  0  0  0  0  0  0  0  0  0
  -23.3320  -14.0810   21.0380 C   0  0  0  0  0  0  0  0  0  0  0  0
  -22.5920  -13.4200   21.9160 N   0  0  0  0  0  0  0  0  0  0  0  0
  -22.9500  -15.1380   20.5390 O   0  0  0  0  0  0  0  0  0  0  0  0
  -22.9260  -12.5580   22.3310 H   0  0  0  0  0  0  0  0  0  0  0  0
  -21.6810  -13.7700   22.1770 H   0  0  0  0  0  0  0  0  0  0  0  0
  -26.0200  -15.6030   20.1710 N   0  0  0  0  0  0  0  0  0  0  0  0
  -25.2330  -16.2380   20.2010 H   0  0  0  0  0  0  0  0  0  0  0  0
  -26.7100  -15.8770   19.4850 H   0  0  0  0  0  0  0  0  0  0  0  0
  1  4  2  0
  2  1  1  0
  2  3  2  0
  3  5  1  0
  4 11  1  0
  4  5  1  0
  6  8  1  0
  6  7  1  0
  7  9  1  0
  8 10  1  0
 10  9  1  0
 10  2  1  0
 11 12  1  0
 15 14  1  0
 17 28  2  0
 18 16  1  0
 19 27  1  0
 20 25  1  0
 20 26  1  0
 20 22  1  0
 21 27  1  0
 22 21  1  0
 22 23  1  0
 23 18  1  0
 24 18  1  0
 25 24  1  0
 26 19  1  0
 27 17  1  0
 29 30  1  0
 29 31  1  0
 30 32  1  0
 33 42  2  0
 33 38  1  0
 34 38  1  0
 34 30  1  0
 35 34  1  0
 36 37  1  0
 36 35  1  0
 37 33  1  0
 38 39  2  0
 39 40  1  0
 41 40  2  0
 42 41  1  0
 43 17  1  0
 43 44  1  0
 43 53  1  0
 44 47  1  0
 45 49  1  0
 45 44  1  0
 46 45  2  0
 49 48  1  0
 51 52  1  0
 51 49  1  0
 51 50  1  0
 53 56  1  1
 53 54  1  0
 55 53  1  0
 58 66  1  0
 59 64  1  0
 60 61  1  0
 60 59  1  0
 62 61  1  0
 62 71  1  0
 62 63  1  0
 64 58  1  0
 64 63  1  0
 65 58  2  0
 67 66  1  0
 68 69  2  0
 69 88  1  0
 70 69  1  0
 70 73  1  0
 71 72  1  0
 71 68  1  0
 72 70  2  0
 73 74  1  0
 74 75  2  0
 76 79  1  0
 76 75  1  0
 77 76  2  0
 78 77  1  0
 78 73  2  0
 79 80  1  0
 80 85  2  0
 80 81  1  0
 81 82  2  0
 82 83  1  0
 83 87  1  0
 84 83  2  0
 85 84  1  0
 86 85  1  0
 88 89  1  0
 89 92  1  0
 89 91  1  0
 90 88  2  0
 93 94  1  0
 93 68  1  0
 95 93  1  0
M  ISO  4  15 101  16 101  58 100  66 100
M  END
>  <TORSDO>  (68) 
F 21

>  <SCORE>  (68) 
-10.520

>  <name>  (68) 
67

>  <ligand_id>  (68) 
67

>  <original_smiles>  (68) 
[H]c1c([H])c([H])c2c(c1[H])C([H])([H])C([H])([H])C([H])([H])C2([H])N([H])C(=O)C1([H])N(C(=O)C([H])(N([H])C(=O)C([H])(N([H])C([H])([H])[H])C([H])([H])[H])C(C([H])([H])[H])(C([H])([H])[H])C([H])([H])[H])C([H])([H])c2c([H])c(OC([H])(C([H])([H])[H])C([H])([H])N([H])c3oc(C([H])([H])N([H])C(=O)N4C([H])([H])C([H])([H])C([H])([H])C([H])(n5nc(-c6c([H])c([H])c(Oc7c([H])c([H])c(F)c([H])c7F)c([H])c6[H])c(C(=O)N([H])[H])c5N([H])[H])C4([H])[H])c(N4C([H])([H])C([H])([H])C([H])([H])C4([H])[H])c3[H])c([H])c([H])c2C1([H])[H]

>  <smiles>  (68) 
[H]c1c([H])c([H])c2c(c1[H])C([H])([H])C([H])([H])C([H])([H])C2([H])N([H])C(=O)C1([H])N(C(=O)C([H])(N([H])C(=O)C([H])(N([H])C([H])([H])[H])C([H])([H])[H])C(C([H])([H])[H])(C([H])([H])[H])C([H])([H])[H])C([H])([H])c2c([H])c(OC([H])(C([H])([H])[H])C([H])([H])N([H])c3oc(C([H])([H])N([H])C(=O)N4C([H])([H])C([H])([H])C([H])([H])C([H])(n5nc(-c6c([H])c([H])c(Oc7c([H])c([H])c(F)c([H])c7F)c([H])c6[H])c(C(=O)N([H])[H])c5N([H])[H])C4([H])[H])c(N4C([H])([H])C([H])([H])C([H])([H])C4([H])[H])c3[H])c([H])c([H])c2C1([H])[H]

$$$$
68:0:0
     RDKit          3D

 98106  0  0  1  0  0  0  0  0999 V2000
  -29.6780  -20.5440   20.5590 C   0  0  0  0  0  0  0  0  0  0  0  0
  -29.3750  -22.9870   20.3670 C   0  0  0  0  0  0  0  0  0  0  0  0
  -30.6630  -23.3350   20.5190 N   0  0  0  0  0  4  0  0  0  0  0  0
  -30.8110  -20.5540   21.2730 N   0  0  0  0  0  4  0  0  0  0  0  0
  -28.9550  -21.6820   20.3190 N   0  0  0  0  0  0  0  0  0  0  0  0
  -30.9380  -24.2920   20.6330 H   0  0  0  0  0  0  0  0  0  0  0  0
  -31.3880  -22.6450   20.5680 H   0  0  0  0  0  0  0  0  0  0  0  0
  -30.7750  -20.8900   22.2250 H   0  0  0  0  0  0  0  0  0  0  0  0
  -31.1990  -19.6140   21.2240 H   0  0  0  0  0  0  0  0  0  0  0  0
  -27.9930  -21.5530   20.0450 H   0  0  0  0  0  0  0  0  0  0  0  0
  -28.4490  -17.8540   18.2080 C   0  0  0  0  0  3  0  0  0  0  0  0
  -28.6460  -19.1230   18.7680 C   0  0  0  0  0  3  0  0  0  0  0  0
  -28.9080  -16.7250   18.9040 C   0  0  0  0  0  3  0  0  0  0  0  0
  -29.2980  -19.2120   20.0060 C   0  0  0  0  0  0  0  0  0  0  0  0
  -29.5500  -16.8550   20.1570 C   0  0  0  0  0  0  0  0  0  0  0  0
  -29.7440  -18.1060   20.6890 N   0  0  0  0  0  0  0  0  0  0  0  0
  -30.5860  -14.5980   20.4320 C   0  0  0  0  0  0  0  0  0  0  0  0
  -30.3550  -12.3890   19.3530 C   0  0  0  0  0  2  0  0  0  0  0  0
  -29.4090  -12.5590   18.1430 C   0  0  0  0  0  2  0  0  0  0  0  0
  -27.9340  -12.4130   18.5710 C   0  0  0  0  0  2  0  0  0  0  0  0
  -27.5860  -13.2440   19.8340 C   0  0  0  0  0  3  0  0  0  0  0  0
  -28.6480  -13.0560   20.9420 C   0  0  0  0  0  2  0  0  0  0  0  0
  -29.9630  -13.3830   20.3690 N   0  0  0  0  0  0  0  0  0  0  0  0
  -31.7310  -14.7690   19.9980 O   0  0  0  0  0  0  0  0  0  0  0  0
  -29.8250  -15.6350   20.8710 N   0  0  0  0  0  0  0  0  0  0  0  0
  -29.0400  -15.3170   21.4150 H   0  0  0  0  0  0  0  0  0  0  0  0
  -25.1880  -13.8420   20.5420 C   0  0  0  0  0  0  0  0  0  0  0  0
  -24.1240  -13.0640   20.9120 C   0  0  0  0  0  0  0  0  0  0  0  0
  -24.5930  -11.7160   20.8840 C   0  0  0  0  0  0  0  0  0  0  0  0
  -26.2370  -12.9640   20.3140 N   0  0  0  0  0  0  0  0  0  0  0  0
  -25.8820  -11.6810   20.5760 N   0  0  0  0  0  0  0  0  0  0  0  0
  -23.8730  -10.4500   21.0760 C   0  0  0  0  0  0  0  0  0  0  0  0
  -24.3220   -9.4790   21.9990 C   0  0  0  0  0  3  0  0  0  0  0  0
  -23.6030   -8.2780   22.1790 C   0  0  0  0  0  3  0  0  0  0  0  0
  -22.4230   -8.0400   21.4350 C   0  0  0  0  0  0  0  0  0  0  0  0
  -21.9930   -8.9990   20.5000 C   0  0  0  0  0  3  0  0  0  0  0  0
  -22.7130  -10.1910   20.3190 C   0  0  0  0  0  3  0  0  0  0  0  0
  -21.6740   -6.8900   21.5240 O   0  0  0  0  0  0  0  0  0  0  0  0
  -21.6520   -6.1350   22.6690 C   0  0  0  0  0  0  0  0  0  0  0  0
  -21.2520   -6.6750   23.9100 C   0  0  0  0  0  3  0  0  0  0  0  0
  -21.1760   -5.8450   25.0470 C   0  0  0  0  0  3  0  0  0  0  0  0
  -21.4890   -4.4770   24.9430 C   0  0  0  0  0  0  0  0  0  0  0  0
  -21.8820   -3.9360   23.7050 C   0  0  0  0  0  3  0  0  0  0  0  0
  -21.9600   -4.7630   22.5710 C   0  0  0  0  0  0  0  0  0  0  0  0
  -22.3180   -4.2330   21.3780 F   0  0  0  0  0  0  0  0  0  0  0  0
  -21.4080   -3.6780   26.0330 F   0  0  0  0  0  0  0  0  0  0  0  0
  -22.7250  -13.5350   21.1830 C   0  0  0  0  0  0  0  0  0  0  0  0
  -22.0000  -12.8360   22.0500 N   0  0  0  0  0  0  0  0  0  0  0  0
  -22.2820  -14.5590   20.6630 O   0  0  0  0  0  0  0  0  0  0  0  0
  -22.3700  -12.0100   22.4950 H   0  0  0  0  0  0  0  0  0  0  0  0
  -21.0610  -13.1340   22.2740 H   0  0  0  0  0  0  0  0  0  0  0  0
  -25.3460  -15.2130   20.3620 N   0  0  0  0  0  0  0  0  0  0  0  0
  -24.5720  -15.8610   20.4630 H   0  0  0  0  0  0  0  0  0  0  0  0
  -26.1870  -15.6570   20.0140 H   0  0  0  0  0  0  0  0  0  0  0  0
  -28.3120  -24.1280   20.1960 C   0  0  0  0  0  0  0  0  0  0  0  0
  -27.1670  -23.9020   20.6050 O   0  0  0  0  0  0  0  0  0  0  0  0
  -28.6140  -25.4810   19.4680 C   0  0  0  0  0  2  0  0  0  0  0  0
  -28.4160  -26.6850   20.2620 O   0  0  0  0  0  0  0  0  0  0  0  0
  -24.5930  -31.9230   23.2530 C   0  0  0  0  0  0  0  0  0  0  0  0
  -27.2390  -27.4250   20.1980 C   0  0  0  0  0  0  0  0  0  0  0  0
  -23.3910  -30.5160   21.6130 C   0  0  0  0  0  3  0  0  0  0  0  0
  -24.8460  -28.9670   20.1950 C   0  0  0  0  0  0  0  0  0  0  0  0
  -25.9210  -30.8580   21.4240 C   0  0  0  0  0  2  0  0  0  0  0  0
  -26.0050  -29.4810   20.7890 C   0  0  0  0  0  0  0  0  0  0  0  0
  -27.1970  -28.7170   20.7880 C   0  0  0  0  0  3  0  0  0  0  0  0
  -26.0570  -26.9360   19.5980 C   0  0  0  0  0  3  0  0  0  0  0  0
  -24.8690  -27.6950   19.5980 C   0  0  0  0  0  3  0  0  0  0  0  0
  -23.6040  -29.8310   20.2360 C   0  0  0  0  0  2  0  0  0  0  0  0
  -24.6530  -31.1160   22.1540 N   0  0  0  0  0  0  0  0  0  0  0  0
  -23.5110  -32.1990   23.7880 O   0  0  0  0  0  0  0  0  0  0  0  0
  -22.7340  -29.5000   22.5770 C   0  0  0  0  0  0  0  0  0  0  0  0
  -21.4100  -29.3150   22.4440 N   0  0  0  0  0  0  0  0  0  0  0  0
  -23.4130  -28.8820   23.4000 O   0  0  0  0  0  0  0  0  0  0  0  0
  -20.9230  -29.8660   21.7520 H   0  0  0  0  0  0  0  0  0  0  0  0
  -18.0380  -28.1060   22.9220 C   0  0  0  0  0  0  0  0  0  0  0  0
  -20.5920  -28.3800   23.2150 C   0  0  0  0  0  3  0  0  0  0  0  0
  -20.7070  -26.9440   22.6520 C   0  0  0  0  0  2  0  0  0  0  0  0
  -19.6170  -26.6070   21.6310 C   0  0  0  0  0  2  0  0  0  0  0  0
  -18.2280  -26.7520   22.2600 C   0  0  0  0  0  2  0  0  0  0  0  0
  -19.1490  -28.8770   23.3560 C   0  0  0  0  0  0  0  0  0  0  0  0
  -18.9190  -30.1450   23.9350 C   0  0  0  0  0  3  0  0  0  0  0  0
  -17.6100  -30.6410   24.0840 C   0  0  0  0  0  3  0  0  0  0  0  0
  -16.5140  -29.8680   23.6660 C   0  0  0  0  0  3  0  0  0  0  0  0
  -16.7290  -28.6020   23.0910 C   0  0  0  0  0  3  0  0  0  0  0  0
  -25.8770  -32.5570   23.8730 C   0  0  0  0  0  3  0  0  0  0  0  0
  -26.3940  -31.7890   25.1520 C   0  0  1  0  0  0  0  0  0  0  0  0
  -25.3020  -31.5530   26.2210 C   0  0  0  0  0  1  0  0  0  0  0  0
  -26.9770  -30.4110   24.7610 C   0  0  0  0  0  1  0  0  0  0  0  0
  -27.5440  -32.5850   25.8120 C   0  0  0  0  0  1  0  0  0  0  0  0
  -25.5670  -33.9550   24.2000 N   0  0  0  0  0  0  0  0  0  0  0  0
  -25.9010  -35.0070   23.4380 C   0  0  0  0  0  0  0  0  0  0  0  0
  -26.5730  -34.9010   22.4080 O   0  0  0  0  0  0  0  0  0  0  0  0
  -24.9720  -34.1110   25.0000 H   0  0  0  0  0  0  0  0  0  0  0  0
  -24.1730  -36.7980   23.0750 C   0  0  0  0  0  1  0  0  0  0  0  0
  -25.4120  -36.3960   23.8900 C   0  0  0  0  0  3  0  0  0  0  0  0
  -27.5450  -37.2830   24.7230 C   0  0  0  0  0  1  0  0  0  0  0  0
  -26.4440  -37.4490   23.7770 N   0  0  0  0  0  0  0  0  0  0  0  0
  -26.0380  -38.3690   23.9210 H   0  0  0  0  0  0  0  0  0  0  0  0
  1  4  2  0
  2  3  2  0
  3  7  1  0
  3  6  1  0
  4  8  1  0
  5  2  1  0
  5  1  1  0
  9  4  1  0
 10  5  1  0
 11 12  2  0
 11 13  1  0
 12 14  1  0
 13 15  2  0
 14  1  1  0
 14 16  2  0
 15 16  1  0
 15 25  1  0
 17 25  1  0
 18 23  1  0
 19 20  1  0
 19 18  1  0
 21 20  1  0
 21 30  1  0
 21 22  1  0
 23 17  1  0
 23 22  1  0
 24 17  2  0
 25 26  1  0
 27 28  2  0
 28 47  1  0
 29 28  1  0
 29 32  1  0
 30 27  1  0
 30 31  1  0
 31 29  2  0
 32 33  1  0
 33 34  2  0
 35 38  1  0
 35 34  1  0
 36 35  2  0
 37 36  1  0
 37 32  2  0
 38 39  1  0
 39 40  1  0
 40 41  2  0
 42 41  1  0
 42 46  1  0
 43 42  2  0
 44 39  2  0
 44 43  1  0
 45 44  1  0
 47 48  1  0
 48 51  1  0
 48 50  1  0
 49 47  2  0
 52 53  1  0
 52 27  1  0
 54 52  1  0
 55  2  1  0
 55 56  2  0
 57 55  1  0
 57 58  1  0
 59 70  2  0
 60 58  1  0
 60 65  1  0
 61 69  1  0
 61 71  1  0
 62 68  1  0
 62 64  1  0
 63 69  1  0
 64 63  1  0
 65 64  2  0
 66 67  1  0
 66 60  2  0
 67 62  2  0
 68 61  1  0
 69 59  1  0
 71 73  2  0
 72 71  1  0
 74 72  1  0
 75 84  2  0
 75 80  1  0
 76 72  1  0
 76 80  1  0
 77 76  1  0
 78 79  1  0
 78 77  1  0
 79 75  1  0
 80 81  2  0
 81 82  1  0
 83 82  2  0
 84 83  1  0
 85 59  1  0
 85 90  1  0
 85 86  1  0
 86 89  1  1
 86 87  1  0
 88 86  1  0
 90 93  1  0
 91 95  1  0
 91 90  1  0
 92 91  2  0
 95 94  1  0
 97 95  1  0
 97 98  1  0
 97 96  1  0
M  ISO  4  17 100  25 100  57 101  58 101
M  END
>  <TORSDO>  (69) 
F 19

>  <SCORE>  (69) 
-14.593

>  <name>  (69) 
68

>  <ligand_id>  (69) 
68

>  <original_smiles>  (69) 
[H]c1c(C(N([H])C(C(=O)C([H])([H])Oc2c([H])c([H])c3c(c2[H])C([H])([H])N(C(=O)C([H])(N([H])C(=O)C([H])(N([H])C([H])([H])[H])C([H])([H])[H])C(C([H])([H])[H])(C([H])([H])[H])C([H])([H])[H])C([H])(C(=O)N([H])C2([H])c4c([H])c([H])c([H])c([H])c4C([H])([H])C([H])([H])C2([H])[H])C3([H])[H])=[N+]([H])[H])=[N+]([H])[H])nc(N([H])C(=O)N2C([H])([H])C([H])([H])C([H])([H])C([H])(n3nc(-c4c([H])c([H])c(Oc5c([H])c([H])c(F)c([H])c5F)c([H])c4[H])c(C(=O)N([H])[H])c3N([H])[H])C2([H])[H])c([H])c1[H]

>  <smiles>  (69) 
[H]c1c(C(N([H])C(C(=O)C([H])([H])Oc2c([H])c([H])c3c(c2[H])C([H])([H])N(C(=O)C([H])(N([H])C(=O)C([H])(N([H])C([H])([H])[H])C([H])([H])[H])C(C([H])([H])[H])(C([H])([H])[H])C([H])([H])[H])C([H])(C(=O)N([H])C2([H])c4c([H])c([H])c([H])c([H])c4C([H])([H])C([H])([H])C2([H])[H])C3([H])[H])=[N+]([H])[H])=[N+]([H])[H])nc(N([H])C(=O)N2C([H])([H])C([H])([H])C([H])([H])C([H])(n3nc(-c4c([H])c([H])c(Oc5c([H])c([H])c(F)c([H])c5F)c([H])c4[H])c(C(=O)N([H])[H])c3N([H])[H])C2([H])[H])c([H])c1[H]

$$$$
69:0:0
     RDKit          3D

 98107  0  0  1  0  0  0  0  0999 V2000
  -28.5030  -24.1820   19.3530 C   0  0  0  0  0  0  0  0  0  0  0  0
  -29.7740  -21.3050   21.6600 C   0  0  0  0  0  3  0  0  0  0  0  0
  -28.6450  -22.6970   19.8380 C   0  0  0  0  0  2  0  0  0  0  0  0
  -28.1590  -24.8320   21.7220 C   0  0  0  0  0  2  0  0  0  0  0  0
  -28.9580  -23.6030   22.2230 C   0  0  0  0  0  2  0  0  0  0  0  0
  -28.7390  -25.3020   20.3930 C   0  0  0  0  0  3  0  0  0  0  0  0
  -29.1510  -22.4710   21.2390 N   0  0  0  0  0  0  0  0  0  0  0  0
  -30.3810  -21.3830   22.8510 N   0  0  0  0  0  0  0  0  0  0  0  0
  -28.2240  -24.4440   18.1800 O   0  0  0  0  0  0  0  0  0  0  0  0
  -30.8800  -20.5810   23.2070 H   0  0  0  0  0  0  0  0  0  0  0  0
  -30.4690  -22.2470   23.3540 H   0  0  0  0  0  0  0  0  0  0  0  0
  -28.7220  -17.8260   20.4350 C   0  0  0  0  0  3  0  0  0  0  0  0
  -31.1100  -17.7990   20.7740 C   0  0  0  0  0  3  0  0  0  0  0  0
  -29.8530  -19.9430   21.0190 C   0  0  0  0  0  0  0  0  0  0  0  0
  -29.9210  -17.0680   20.5310 C   0  0  0  0  0  0  0  0  0  0  0  0
  -28.6830  -19.2290   20.6630 C   0  0  0  0  0  0  0  0  0  0  0  0
  -31.0740  -19.2020   21.0200 C   0  0  0  0  0  0  0  0  0  0  0  0
  -27.4840  -19.8630   20.6310 F   0  0  0  0  0  0  0  0  0  0  0  0
  -32.2360  -19.8210   21.3450 F   0  0  0  0  0  0  0  0  0  0  0  0
  -30.6690  -14.6210   20.0710 C   0  0  0  0  0  0  0  0  0  0  0  0
  -30.3970  -12.4330   18.9290 C   0  0  0  0  0  2  0  0  0  0  0  0
  -29.3750  -12.6210   17.7830 C   0  0  0  0  0  2  0  0  0  0  0  0
  -27.9260  -12.4730   18.2930 C   0  0  0  0  0  2  0  0  0  0  0  0
  -27.6590  -13.2950   19.5810 C   0  0  0  0  0  3  0  0  0  0  0  0
  -28.7750  -13.0550   20.6220 C   0  0  0  0  0  2  0  0  0  0  0  0
  -30.0580  -13.4010   19.9860 N   0  0  0  0  0  0  0  0  0  0  0  0
  -31.8080  -14.8200   19.6350 O   0  0  0  0  0  0  0  0  0  0  0  0
  -29.8290  -15.6180   20.4680 N   0  0  0  0  0  0  0  0  0  0  0  0
  -28.9180  -15.2540   20.6990 H   0  0  0  0  0  0  0  0  0  0  0  0
  -25.3180  -13.9260   20.4430 C   0  0  0  0  0  0  0  0  0  0  0  0
  -24.2630  -13.1630   20.8630 C   0  0  0  0  0  0  0  0  0  0  0  0
  -24.6990  -11.8060   20.7780 C   0  0  0  0  0  0  0  0  0  0  0  0
  -26.3330  -13.0320   20.1320 N   0  0  0  0  0  0  0  0  0  0  0  0
  -25.9680  -11.7520   20.3930 N   0  0  0  0  0  0  0  0  0  0  0  0
  -23.9660  -10.5510   20.9830 C   0  0  0  0  0  0  0  0  0  0  0  0
  -24.4320   -9.5630   21.8770 C   0  0  0  0  0  3  0  0  0  0  0  0
  -23.7000   -8.3720   22.0720 C   0  0  0  0  0  3  0  0  0  0  0  0
  -22.4880   -8.1610   21.3710 C   0  0  0  0  0  0  0  0  0  0  0  0
  -22.0420   -9.1390   20.4640 C   0  0  0  0  0  3  0  0  0  0  0  0
  -22.7750  -10.3210   20.2680 C   0  0  0  0  0  3  0  0  0  0  0  0
  -21.7240   -7.0250   21.4770 O   0  0  0  0  0  0  0  0  0  0  0  0
  -21.7100   -6.2720   22.6230 C   0  0  0  0  0  0  0  0  0  0  0  0
  -21.3320   -6.8180   23.8690 C   0  0  0  0  0  3  0  0  0  0  0  0
  -21.2630   -5.9920   25.0090 C   0  0  0  0  0  3  0  0  0  0  0  0
  -21.5620   -4.6210   24.9040 C   0  0  0  0  0  0  0  0  0  0  0  0
  -21.9340   -4.0740   23.6630 C   0  0  0  0  0  3  0  0  0  0  0  0
  -22.0040   -4.8970   22.5260 C   0  0  0  0  0  0  0  0  0  0  0  0
  -22.3420   -4.3600   21.3290 F   0  0  0  0  0  0  0  0  0  0  0  0
  -21.4890   -3.8250   25.9960 F   0  0  0  0  0  0  0  0  0  0  0  0
  -22.8910  -13.6560   21.2230 C   0  0  0  0  0  0  0  0  0  0  0  0
  -22.2050  -12.9580   22.1210 N   0  0  0  0  0  0  0  0  0  0  0  0
  -22.4390  -14.6950   20.7430 O   0  0  0  0  0  0  0  0  0  0  0  0
  -22.5840  -12.1160   22.5290 H   0  0  0  0  0  0  0  0  0  0  0  0
  -21.2860  -13.2690   22.4040 H   0  0  0  0  0  0  0  0  0  0  0  0
  -25.4920  -15.2970   20.2730 N   0  0  0  0  0  0  0  0  0  0  0  0
  -24.7130  -15.9350   20.3900 H   0  0  0  0  0  0  0  0  0  0  0  0
  -26.2450  -15.6930   19.7290 H   0  0  0  0  0  0  0  0  0  0  0  0
  -28.5170  -26.6910   19.9660 O   0  0  0  0  0  0  0  0  0  0  0  0
  -24.5380  -31.7610   23.1340 C   0  0  0  0  0  0  0  0  0  0  0  0
  -27.3010  -27.3570   20.0420 C   0  0  0  0  0  0  0  0  0  0  0  0
  -23.3810  -30.3590   21.4570 C   0  0  0  0  0  3  0  0  0  0  0  0
  -24.8790  -28.8510   20.0390 C   0  0  0  0  0  0  0  0  0  0  0  0
  -25.9040  -30.7540   21.2970 C   0  0  0  0  0  2  0  0  0  0  0  0
  -26.0230  -29.3850   20.6440 C   0  0  0  0  0  0  0  0  0  0  0  0
  -27.2350  -28.6500   20.6310 C   0  0  0  0  0  3  0  0  0  0  0  0
  -26.1340  -26.8410   19.4410 C   0  0  0  0  0  3  0  0  0  0  0  0
  -24.9320  -27.5820   19.4330 C   0  0  0  0  0  3  0  0  0  0  0  0
  -23.6230  -29.6960   20.0730 C   0  0  0  0  0  2  0  0  0  0  0  0
  -24.6250  -30.9750   22.0210 N   0  0  0  0  0  0  0  0  0  0  0  0
  -23.4450  -32.0050   23.6640 O   0  0  0  0  0  0  0  0  0  0  0  0
  -22.7320  -29.3170   22.3970 C   0  0  0  0  0  0  0  0  0  0  0  0
  -21.4100  -29.1230   22.2580 N   0  0  0  0  0  0  0  0  0  0  0  0
  -23.4160  -28.6850   23.2060 O   0  0  0  0  0  0  0  0  0  0  0  0
  -20.9180  -29.6860   21.5780 H   0  0  0  0  0  0  0  0  0  0  0  0
  -18.0480  -27.8740   22.7090 C   0  0  0  0  0  0  0  0  0  0  0  0
  -20.6000  -28.1600   23.0040 C   0  0  0  0  0  3  0  0  0  0  0  0
  -20.7260  -26.7420   22.4000 C   0  0  0  0  0  2  0  0  0  0  0  0
  -19.6340  -26.4250   21.3720 C   0  0  0  0  0  2  0  0  0  0  0  0
  -18.2470  -26.5400   22.0100 C   0  0  0  0  0  2  0  0  0  0  0  0
  -19.1540  -28.6420   23.1630 C   0  0  0  0  0  0  0  0  0  0  0  0
  -18.9150  -29.8900   23.7760 C   0  0  0  0  0  3  0  0  0  0  0  0
  -17.6030  -30.3720   23.9420 C   0  0  0  0  0  3  0  0  0  0  0  0
  -16.5110  -29.6010   23.5050 C   0  0  0  0  0  3  0  0  0  0  0  0
  -16.7350  -28.3540   22.8950 C   0  0  0  0  0  3  0  0  0  0  0  0
  -25.8030  -32.4060   23.7810 C   0  0  0  0  0  3  0  0  0  0  0  0
  -25.4670  -33.7950   24.1240 N   0  0  0  0  0  0  0  0  0  0  0  0
  -25.7930  -34.8620   23.3840 C   0  0  0  0  0  0  0  0  0  0  0  0
  -26.4810  -34.7830   22.3620 O   0  0  0  0  0  0  0  0  0  0  0  0
  -24.8600  -33.9300   24.9190 H   0  0  0  0  0  0  0  0  0  0  0  0
  -24.0440  -36.6330   23.0210 C   0  0  0  0  0  1  0  0  0  0  0  0
  -25.2760  -36.2380   23.8500 C   0  0  0  0  0  3  0  0  0  0  0  0
  -27.3810  -37.1430   24.7330 C   0  0  0  0  0  1  0  0  0  0  0  0
  -26.2940  -37.3080   23.7710 N   0  0  0  0  0  0  0  0  0  0  0  0
  -25.8710  -38.2190   23.9240 H   0  0  0  0  0  0  0  0  0  0  0  0
  -26.3170  -31.6290   25.0550 C   0  0  1  0  0  0  0  0  0  0  0  0
  -25.2150  -31.3600   26.1060 C   0  0  0  0  0  1  0  0  0  0  0  0
  -26.9260  -30.2660   24.6520 C   0  0  0  0  0  1  0  0  0  0  0  0
  -27.4450  -32.4330   25.7410 C   0  0  0  0  0  1  0  0  0  0  0  0
  1  3  1  0
  1  6  1  0
  2  8  1  0
  3  7  1  0
  4  5  1  0
  6 58  1  0
  6  4  1  0
  7  2  1  0
  7  5  1  0
  8 10  1  0
  8 11  1  0
  9  1  2  0
 12 15  2  0
 12 16  1  0
 13 17  2  0
 14 17  1  0
 14  2  1  0
 15 13  1  0
 16 14  2  0
 17 19  1  0
 18 16  1  0
 20 28  1  0
 21 26  1  0
 22 23  1  0
 22 21  1  0
 24 23  1  0
 24 33  1  0
 24 25  1  0
 26 20  1  0
 26 25  1  0
 27 20  2  0
 28 15  1  0
 28 29  1  0
 30 31  2  0
 31 50  1  0
 32 31  1  0
 32 35  1  0
 33 34  1  0
 33 30  1  0
 34 32  2  0
 35 36  1  0
 36 37  2  0
 38 41  1  0
 38 37  1  0
 39 38  2  0
 40 39  1  0
 40 35  2  0
 41 42  1  0
 42 43  1  0
 43 44  2  0
 45 44  1  0
 45 49  1  0
 46 45  2  0
 47 42  2  0
 47 46  1  0
 48 47  1  0
 50 51  1  0
 51 54  1  0
 51 53  1  0
 52 50  2  0
 55 56  1  0
 55 30  1  0
 57 55  1  0
 58 60  1  0
 59 70  2  0
 60 65  1  0
 61 69  1  0
 61 71  1  0
 62 68  1  0
 62 64  1  0
 63 69  1  0
 64 63  1  0
 65 64  2  0
 66 60  2  0
 67 66  1  0
 67 62  2  0
 68 61  1  0
 69 59  1  0
 71 73  2  0
 72 71  1  0
 74 72  1  0
 75 84  2  0
 75 80  1  0
 76 72  1  0
 76 80  1  0
 77 76  1  0
 78 79  1  0
 78 77  1  0
 79 75  1  0
 80 81  2  0
 81 82  1  0
 83 82  2  0
 84 83  1  0
 85 59  1  0
 85 86  1  0
 85 95  1  0
 86 89  1  0
 87 91  1  0
 87 86  1  0
 88 87  2  0
 91 90  1  0
 93 91  1  0
 93 94  1  0
 93 92  1  0
 95 98  1  1
 95 96  1  0
 97 95  1  0
M  ISO  4   6 101  20 100  28 100  58 101
M  END
>  <TORSDO>  (70) 
F 17

>  <SCORE>  (70) 
-15.371

>  <name>  (70) 
69

>  <ligand_id>  (70) 
69

>  <original_smiles>  (70) 
[H]c1c([H])c([H])c2c(c1[H])C([H])([H])C([H])([H])C([H])([H])C2([H])N([H])C(=O)C1([H])N(C(=O)C([H])(N([H])C(=O)C([H])(N([H])C([H])([H])[H])C([H])([H])[H])C(C([H])([H])[H])(C([H])([H])[H])C([H])([H])[H])C([H])([H])c2c([H])c(OC3([H])C(=O)C([H])([H])N(C(c4c(F)c([H])c(N([H])C(=O)N5C([H])([H])C([H])([H])C([H])([H])C([H])(n6nc(-c7c([H])c([H])c(Oc8c([H])c([H])c(F)c([H])c8F)c([H])c7[H])c(C(=O)N([H])[H])c6N([H])[H])C5([H])[H])c([H])c4F)=[N+]([H])[H])C([H])([H])C3([H])[H])c([H])c([H])c2C1([H])[H]

>  <smiles>  (70) 
[H]c1c([H])c([H])c2c(c1[H])C([H])([H])C([H])([H])C([H])([H])C2([H])N([H])C(=O)C1([H])N(C(=O)C([H])(N([H])C(=O)C([H])(N([H])C([H])([H])[H])C([H])([H])[H])C(C([H])([H])[H])(C([H])([H])[H])C([H])([H])[H])C([H])([H])c2c([H])c(OC3([H])C(=O)C([H])([H])N(C(c4c(F)c([H])c(N([H])C(=O)N5C([H])([H])C([H])([H])C([H])([H])C([H])(n6nc(-c7c([H])c([H])c(Oc8c([H])c([H])c(F)c([H])c8F)c([H])c7[H])c(C(=O)N([H])[H])c6N([H])[H])C5([H])[H])c([H])c4F)=[N+]([H])[H])C([H])([H])C3([H])[H])c([H])c([H])c2C1([H])[H]

$$$$
70:0:0
     RDKit          3D

 86 94  0  0  1  0  0  0  0  0999 V2000
  -30.3770  -15.6070   20.3200 C   0  0  0  0  0  0  0  0  0  0  0  0
  -30.4040  -13.0870   19.5010 C   0  0  0  0  0  2  0  0  0  0  0  0
  -29.5420  -12.6800   18.2760 C   0  0  0  0  0  2  0  0  0  0  0  0
  -28.1100  -12.3420   18.7120 C   0  0  0  0  0  2  0  0  0  0  0  0
  -27.5810  -13.3570   19.7520 C   0  0  0  0  0  3  0  0  0  0  0  0
  -28.5890  -13.6960   20.8740 C   0  0  0  0  0  2  0  0  0  0  0  0
  -29.7730  -14.2880   20.2120 N   0  0  0  0  0  0  0  0  0  0  0  0
  -31.6120  -15.4520   20.2450 O   0  0  0  0  0  0  0  0  0  0  0  0
  -29.0160  -22.4350   20.1040 C   0  0  0  0  0  0  0  0  0  0  0  0
  -30.2580  -19.9360   19.8540 C   0  0  0  0  0  3  0  0  0  0  0  0
  -28.1710  -19.6040   20.5510 C   0  0  0  0  0  3  0  0  0  0  0  0
  -30.6200  -18.3960   20.5240 C   0  0  0  0  0  3  0  0  0  0  0  0
  -28.4800  -17.8990   20.1820 C   0  0  0  0  0  3  0  0  0  0  0  0
  -29.0490  -20.8750   20.2000 N   0  0  0  0  0  0  0  0  0  0  0  0
  -29.8180  -17.0650   20.3390 N   0  0  0  0  0  0  0  0  0  0  0  0
  -30.1380  -22.8730   19.8290 O   0  0  0  0  0  0  0  0  0  0  0  0
  -25.2020  -13.8750   20.4690 C   0  0  0  0  0  0  0  0  0  0  0  0
  -24.1430  -13.0870   20.8200 C   0  0  0  0  0  0  0  0  0  0  0  0
  -24.6280  -11.7430   20.8120 C   0  0  0  0  0  0  0  0  0  0  0  0
  -26.2590  -13.0130   20.2550 N   0  0  0  0  0  0  0  0  0  0  0  0
  -25.9280  -11.7230   20.5310 N   0  0  0  0  0  0  0  0  0  0  0  0
  -23.9100  -10.4750   20.9960 C   0  0  0  0  0  0  0  0  0  0  0  0
  -24.3230   -9.5220   21.9540 C   0  0  0  0  0  3  0  0  0  0  0  0
  -23.5990   -8.3220   22.1280 C   0  0  0  0  0  3  0  0  0  0  0  0
  -22.4490   -8.0660   21.3450 C   0  0  0  0  0  0  0  0  0  0  0  0
  -22.0560   -9.0060   20.3770 C   0  0  0  0  0  3  0  0  0  0  0  0
  -22.7790  -10.1980   20.2010 C   0  0  0  0  0  3  0  0  0  0  0  0
  -21.7000   -6.9160   21.4270 O   0  0  0  0  0  0  0  0  0  0  0  0
  -21.6150   -6.1930   22.5900 C   0  0  0  0  0  0  0  0  0  0  0  0
  -21.1420   -6.7670   23.7900 C   0  0  0  0  0  3  0  0  0  0  0  0
  -21.0050   -5.9700   24.9450 C   0  0  0  0  0  3  0  0  0  0  0  0
  -21.3310   -4.6020   24.8990 C   0  0  0  0  0  0  0  0  0  0  0  0
  -21.7970   -4.0280   23.7030 C   0  0  0  0  0  3  0  0  0  0  0  0
  -21.9350   -4.8220   22.5510 C   0  0  0  0  0  0  0  0  0  0  0  0
  -22.3640   -4.2580   21.3960 F   0  0  0  0  0  0  0  0  0  0  0  0
  -21.1930   -3.8340   26.0060 F   0  0  0  0  0  0  0  0  0  0  0  0
  -22.7350  -13.5510   21.0430 C   0  0  0  0  0  0  0  0  0  0  0  0
  -21.9930  -12.8650   21.9050 N   0  0  0  0  0  0  0  0  0  0  0  0
  -22.3000  -14.5610   20.4900 O   0  0  0  0  0  0  0  0  0  0  0  0
  -22.3590  -12.0500   22.3750 H   0  0  0  0  0  0  0  0  0  0  0  0
  -21.0470  -13.1590   22.0990 H   0  0  0  0  0  0  0  0  0  0  0  0
  -25.3520  -15.2460   20.2810 N   0  0  0  0  0  0  0  0  0  0  0  0
  -24.5760  -15.8920   20.3690 H   0  0  0  0  0  0  0  0  0  0  0  0
  -26.2040  -15.6890   19.9600 H   0  0  0  0  0  0  0  0  0  0  0  0
  -27.8850  -23.8800   20.2170 C   0  0  0  0  0  2  0  0  0  0  0  0
  -28.1520  -25.6010   20.1730 O   0  0  0  0  0  0  0  0  0  0  0  0
  -24.6680  -31.8490   23.1160 C   0  0  0  0  0  0  0  0  0  0  0  0
  -27.1780  -26.7950   20.1360 C   0  0  0  0  0  0  0  0  0  0  0  0
  -23.4740  -30.4520   21.4830 C   0  0  0  0  0  3  0  0  0  0  0  0
  -24.9130  -28.8050   20.0740 C   0  0  0  0  0  0  0  0  0  0  0  0
  -26.0510  -30.6010   21.3540 C   0  0  0  0  0  2  0  0  0  0  0  0
  -26.1110  -29.1700   20.7020 C   0  0  0  0  0  0  0  0  0  0  0  0
  -27.2310  -28.1930   20.6990 C   0  0  0  0  0  3  0  0  0  0  0  0
  -25.9470  -26.6280   19.4560 C   0  0  0  0  0  3  0  0  0  0  0  0
  -24.8680  -27.5590   19.4270 C   0  0  0  0  0  3  0  0  0  0  0  0
  -23.7080  -29.7550   20.1140 C   0  0  0  0  0  2  0  0  0  0  0  0
  -24.7550  -30.9990   22.0360 N   0  0  0  0  0  0  0  0  0  0  0  0
  -23.5770  -32.1510   23.6290 O   0  0  0  0  0  0  0  0  0  0  0  0
  -22.7590  -29.4750   22.4560 C   0  0  0  0  0  0  0  0  0  0  0  0
  -21.4240  -29.3360   22.3430 N   0  0  0  0  0  0  0  0  0  0  0  0
  -23.4170  -28.8400   23.2830 O   0  0  0  0  0  0  0  0  0  0  0  0
  -20.9440  -29.8980   21.6530 H   0  0  0  0  0  0  0  0  0  0  0  0
  -18.0240  -28.1880   22.9060 C   0  0  0  0  0  0  0  0  0  0  0  0
  -20.5940  -28.4060   23.1190 C   0  0  0  0  0  3  0  0  0  0  0  0
  -20.6550  -26.9790   22.5290 C   0  0  0  0  0  2  0  0  0  0  0  0
  -19.5290  -26.6890   21.5320 C   0  0  0  0  0  2  0  0  0  0  0  0
  -18.1620  -26.8480   22.2050 C   0  0  0  0  0  2  0  0  0  0  0  0
  -19.1640  -28.9280   23.3210 C   0  0  0  0  0  0  0  0  0  0  0  0
  -18.9760  -30.1800   23.9430 C   0  0  0  0  0  3  0  0  0  0  0  0
  -17.6820  -30.6950   24.1500 C   0  0  0  0  0  3  0  0  0  0  0  0
  -16.5560  -29.9540   23.7480 C   0  0  0  0  0  3  0  0  0  0  0  0
  -16.7290  -28.7020   23.1320 C   0  0  0  0  0  3  0  0  0  0  0  0
  -25.9350  -32.4950   23.7540 C   0  0  0  0  0  3  0  0  0  0  0  0
  -25.6090  -33.8890   24.1120 N   0  0  0  0  0  0  0  0  0  0  0  0
  -25.9230  -34.9680   23.3820 C   0  0  0  0  0  0  0  0  0  0  0  0
  -26.5770  -34.8950   22.3400 O   0  0  0  0  0  0  0  0  0  0  0  0
  -25.0240  -34.0180   24.9250 H   0  0  0  0  0  0  0  0  0  0  0  0
  -24.1740  -36.7640   23.1200 C   0  0  0  0  0  1  0  0  0  0  0  0
  -25.4400  -36.3450   23.8860 C   0  0  0  0  0  3  0  0  0  0  0  0
  -27.5910  -37.2330   24.6780 C   0  0  0  0  0  1  0  0  0  0  0  0
  -26.4620  -37.4100   23.7680 N   0  0  0  0  0  0  0  0  0  0  0  0
  -26.0520  -38.3240   23.9450 H   0  0  0  0  0  0  0  0  0  0  0  0
  -26.4480  -31.7200   25.0310 C   0  0  1  0  0  0  0  0  0  0  0  0
  -25.3530  -31.4830   26.0980 C   0  0  0  0  0  1  0  0  0  0  0  0
  -27.0300  -30.3420   24.6480 C   0  0  0  0  0  1  0  0  0  0  0  0
  -27.5990  -32.5110   25.6960 C   0  0  0  0  0  1  0  0  0  0  0  0
  1 15  1  0
  2  7  1  0
  3  4  1  0
  3  2  1  0
  5  4  1  0
  5 20  1  0
  5  6  1  0
  7  1  1  0
  7  6  1  0
  8  1  2  0
  9 14  1  0
  9 45  1  0
 10 14  1  0
 10 12  2  0
 13 15  1  0
 13 11  2  0
 14 11  1  0
 15 12  1  0
 16  9  2  0
 17 18  2  0
 18 37  1  0
 19 18  1  0
 19 22  1  0
 20 17  1  0
 20 21  1  0
 21 19  2  0
 22 23  1  0
 23 24  2  0
 25 28  1  0
 25 24  1  0
 26 25  2  0
 27 26  1  0
 27 22  2  0
 28 29  1  0
 29 30  1  0
 30 31  2  0
 32 31  1  0
 32 36  1  0
 33 32  2  0
 34 29  2  0
 34 33  1  0
 35 34  1  0
 37 38  1  0
 38 41  1  0
 38 40  1  0
 39 37  2  0
 42 43  1  0
 42 17  1  0
 44 42  1  0
 46 45  1  0
 47 58  2  0
 48 46  1  0
 48 53  1  0
 49 57  1  0
 49 59  1  0
 50 56  1  0
 50 52  1  0
 51 57  1  0
 52 51  1  0
 53 52  2  0
 54 48  2  0
 55 54  1  0
 55 50  2  0
 56 49  1  0
 57 47  1  0
 59 61  2  0
 60 59  1  0
 62 60  1  0
 63 72  2  0
 63 68  1  0
 64 60  1  0
 64 68  1  0
 65 64  1  0
 66 67  1  0
 66 65  1  0
 67 63  1  0
 68 69  2  0
 69 70  1  0
 71 70  2  0
 72 71  1  0
 73 47  1  0
 73 74  1  0
 73 83  1  0
 74 77  1  0
 75 79  1  0
 75 74  1  0
 76 75  2  0
 79 78  1  0
 81 79  1  0
 81 82  1  0
 81 80  1  0
 83 86  1  1
 83 84  1  0
 85 83  1  0
M  ISO  4   1 100  15 100  45 101  46 101
M  END
>  <TORSDO>  (71) 
F 16

>  <SCORE>  (71) 
-16.399

>  <name>  (71) 
70

>  <ligand_id>  (71) 
70

>  <original_smiles>  (71) 
[H]c1c([H])c([H])c2c(c1[H])C([H])([H])C([H])([H])C([H])([H])C2([H])N([H])C(=O)C1([H])N(C(=O)C([H])(N([H])C(=O)C([H])(N([H])C([H])([H])[H])C([H])([H])[H])C(C([H])([H])[H])(C([H])([H])[H])C([H])([H])[H])C([H])([H])c2c([H])c(OC([H])([H])C(=O)N3C([H])([H])C([H])([H])N(C(=O)N4C([H])([H])C([H])([H])C([H])([H])C([H])(n5nc(-c6c([H])c([H])c(Oc7c([H])c([H])c(F)c([H])c7F)c([H])c6[H])c(C(=O)N([H])[H])c5N([H])[H])C4([H])[H])C([H])([H])C3([H])[H])c([H])c([H])c2C1([H])[H]

>  <smiles>  (71) 
[H]c1c([H])c([H])c2c(c1[H])C([H])([H])C([H])([H])C([H])([H])C2([H])N([H])C(=O)C1([H])N(C(=O)C([H])(N([H])C(=O)C([H])(N([H])C([H])([H])[H])C([H])([H])[H])C(C([H])([H])[H])(C([H])([H])[H])C([H])([H])[H])C([H])([H])c2c([H])c(OC([H])([H])C(=O)N3C([H])([H])C([H])([H])N(C(=O)N4C([H])([H])C([H])([H])C([H])([H])C([H])(n5nc(-c6c([H])c([H])c(Oc7c([H])c([H])c(F)c([H])c7F)c([H])c6[H])c(C(=O)N([H])[H])c5N([H])[H])C4([H])[H])C([H])([H])C3([H])[H])c([H])c([H])c2C1([H])[H]

$$$$
71:0:0
     RDKit          3D

 93101  0  0  1  0  0  0  0  0999 V2000
  -28.7780  -22.8530   19.9750 C   0  0  0  0  0  0  0  0  0  0  0  0
  -29.0170  -21.9510   20.9620 N   0  0  0  0  0  0  0  0  0  0  0  0
  -28.6380  -22.5120   18.7980 O   0  0  0  0  0  0  0  0  0  0  0  0
  -29.0120  -22.3840   21.8790 H   0  0  0  0  0  0  0  0  0  0  0  0
  -29.6960  -19.6770   19.8530 C   0  0  0  0  0  3  0  0  0  0  0  0
  -29.2350  -19.7210   22.0380 C   0  0  0  0  0  3  0  0  0  0  0  0
  -29.2690  -20.5230   20.9310 C   0  0  0  0  0  0  0  0  0  0  0  0
  -29.9340  -18.4210   20.3900 C   0  0  0  0  0  0  0  0  0  0  0  0
  -29.6300  -18.4420   21.7230 O   0  0  0  0  0  0  0  0  0  0  0  0
  -30.5900  -17.1580   19.8240 C   0  0  0  0  0  2  0  0  0  0  0  0
  -30.8710  -14.6790   19.9580 C   0  0  0  0  0  0  0  0  0  0  0  0
  -30.4780  -12.5060   18.8550 C   0  0  0  0  0  2  0  0  0  0  0  0
  -29.4510  -12.7160   17.7220 C   0  0  0  0  0  2  0  0  0  0  0  0
  -28.0150  -12.5740   18.2620 C   0  0  0  0  0  2  0  0  0  0  0  0
  -27.7760  -13.3930   19.5590 C   0  0  0  0  0  3  0  0  0  0  0  0
  -28.9180  -13.1920   20.5820 C   0  0  0  0  0  2  0  0  0  0  0  0
  -30.1830  -13.5000   19.9050 N   0  0  0  0  0  0  0  0  0  0  0  0
  -32.0040  -14.7800   19.4830 O   0  0  0  0  0  0  0  0  0  0  0  0
  -30.1790  -15.8030   20.3000 N   0  0  0  0  0  0  0  0  0  0  0  0
  -29.2470  -15.6990   20.6730 H   0  0  0  0  0  0  0  0  0  0  0  0
  -25.4560  -13.9880   20.4870 C   0  0  0  0  0  0  0  0  0  0  0  0
  -24.4120  -13.2100   20.9130 C   0  0  0  0  0  0  0  0  0  0  0  0
  -24.8550  -11.8570   20.7970 C   0  0  0  0  0  0  0  0  0  0  0  0
  -26.4680  -13.1070   20.1400 N   0  0  0  0  0  0  0  0  0  0  0  0
  -26.1160  -11.8180   20.3870 N   0  0  0  0  0  0  0  0  0  0  0  0
  -24.1310  -10.5950   20.9970 C   0  0  0  0  0  0  0  0  0  0  0  0
  -24.5790   -9.6260   21.9220 C   0  0  0  0  0  3  0  0  0  0  0  0
  -23.8530   -8.4290   22.1120 C   0  0  0  0  0  3  0  0  0  0  0  0
  -22.6680   -8.1940   21.3770 C   0  0  0  0  0  0  0  0  0  0  0  0
  -22.2380   -9.1510   20.4420 C   0  0  0  0  0  3  0  0  0  0  0  0
  -22.9640  -10.3390   20.2500 C   0  0  0  0  0  3  0  0  0  0  0  0
  -21.9130   -7.0500   21.4770 O   0  0  0  0  0  0  0  0  0  0  0  0
  -21.8130   -6.3540   22.6550 C   0  0  0  0  0  0  0  0  0  0  0  0
  -21.3270   -6.9530   23.8360 C   0  0  0  0  0  3  0  0  0  0  0  0
  -21.1760   -6.1840   25.0070 C   0  0  0  0  0  3  0  0  0  0  0  0
  -21.5010   -4.8130   24.9960 C   0  0  0  0  0  0  0  0  0  0  0  0
  -21.9790   -4.2130   23.8180 C   0  0  0  0  0  3  0  0  0  0  0  0
  -22.1320   -4.9810   22.6510 C   0  0  0  0  0  0  0  0  0  0  0  0
  -22.5740   -4.3920   21.5120 F   0  0  0  0  0  0  0  0  0  0  0  0
  -21.3490   -4.0720   26.1170 F   0  0  0  0  0  0  0  0  0  0  0  0
  -23.0470  -13.6900   21.3120 C   0  0  0  0  0  0  0  0  0  0  0  0
  -22.3900  -12.9790   22.2220 N   0  0  0  0  0  0  0  0  0  0  0  0
  -22.5740  -14.7280   20.8520 O   0  0  0  0  0  0  0  0  0  0  0  0
  -22.7870  -12.1380   22.6140 H   0  0  0  0  0  0  0  0  0  0  0  0
  -21.4780  -13.2810   22.5320 H   0  0  0  0  0  0  0  0  0  0  0  0
  -25.6210  -15.3630   20.3460 N   0  0  0  0  0  0  0  0  0  0  0  0
  -24.8750  -16.0190   20.5450 H   0  0  0  0  0  0  0  0  0  0  0  0
  -26.4420  -15.8070   19.9560 H   0  0  0  0  0  0  0  0  0  0  0  0
  -28.3810  -25.2970   19.6370 C   0  0  0  0  0  3  0  0  0  0  0  0
  -28.7030  -24.2580   20.4610 C   0  0  0  0  0  0  0  0  0  0  0  0
  -28.9740  -24.5190   21.7510 O   0  0  0  0  0  0  0  0  0  0  0  0
  -28.8850  -25.4570   21.8620 H   0  0  0  0  0  0  0  0  0  0  0  0
  -28.3850  -26.6430   20.0120 O   0  0  0  0  0  0  0  0  0  0  0  0
  -24.6330  -31.8540   23.1740 C   0  0  0  0  0  0  0  0  0  0  0  0
  -27.2270  -27.4160   19.9810 C   0  0  0  0  0  0  0  0  0  0  0  0
  -23.4070  -30.4800   21.5240 C   0  0  0  0  0  3  0  0  0  0  0  0
  -24.8410  -28.9680   20.0460 C   0  0  0  0  0  0  0  0  0  0  0  0
  -25.9340  -30.8310   21.3010 C   0  0  0  0  0  2  0  0  0  0  0  0
  -26.0100  -29.4690   20.6300 C   0  0  0  0  0  0  0  0  0  0  0  0
  -27.2040  -28.7010   20.5920 C   0  0  0  0  0  3  0  0  0  0  0  0
  -26.0350  -26.9490   19.3830 C   0  0  0  0  0  3  0  0  0  0  0  0
  -24.8510  -27.7110   19.4180 C   0  0  0  0  0  3  0  0  0  0  0  0
  -23.5980  -29.8290   20.1290 C   0  0  0  0  0  2  0  0  0  0  0  0
  -24.6770  -31.0700   22.0570 N   0  0  0  0  0  0  0  0  0  0  0  0
  -23.5590  -32.1130   23.7340 O   0  0  0  0  0  0  0  0  0  0  0  0
  -22.7690  -29.4410   22.4760 C   0  0  0  0  0  0  0  0  0  0  0  0
  -21.4460  -29.2430   22.3540 N   0  0  0  0  0  0  0  0  0  0  0  0
  -23.4620  -28.8150   23.2840 O   0  0  0  0  0  0  0  0  0  0  0  0
  -20.9450  -29.8020   21.6760 H   0  0  0  0  0  0  0  0  0  0  0  0
  -18.0920  -27.9830   22.8390 C   0  0  0  0  0  0  0  0  0  0  0  0
  -20.6440  -28.2860   23.1170 C   0  0  0  0  0  3  0  0  0  0  0  0
  -20.7740  -26.8610   22.5330 C   0  0  0  0  0  2  0  0  0  0  0  0
  -19.6800  -26.5250   21.5130 C   0  0  0  0  0  2  0  0  0  0  0  0
  -18.2950  -26.6420   22.1550 C   0  0  0  0  0  2  0  0  0  0  0  0
  -19.1950  -28.7620   23.2760 C   0  0  0  0  0  0  0  0  0  0  0  0
  -18.9530  -30.0180   23.8740 C   0  0  0  0  0  3  0  0  0  0  0  0
  -17.6390  -30.4960   24.0390 C   0  0  0  0  0  3  0  0  0  0  0  0
  -16.5490  -29.7130   23.6190 C   0  0  0  0  0  3  0  0  0  0  0  0
  -16.7770  -28.4580   23.0240 C   0  0  0  0  0  3  0  0  0  0  0  0
  -25.9250  -32.4780   23.7850 C   0  0  0  0  0  3  0  0  0  0  0  0
  -26.4750  -31.6770   25.0280 C   0  0  1  0  0  0  0  0  0  0  0  0
  -25.4070  -31.3990   26.1130 C   0  0  0  0  0  1  0  0  0  0  0  0
  -27.0610  -30.3150   24.5860 C   0  0  0  0  0  1  0  0  0  0  0  0
  -27.6340  -32.4620   25.6890 C   0  0  0  0  0  1  0  0  0  0  0  0
  -25.6140  -33.8650   24.1590 N   0  0  0  0  0  0  0  0  0  0  0  0
  -25.9100  -34.9390   23.4150 C   0  0  0  0  0  0  0  0  0  0  0  0
  -26.5470  -34.8670   22.3610 O   0  0  0  0  0  0  0  0  0  0  0  0
  -25.0440  -33.9940   24.9830 H   0  0  0  0  0  0  0  0  0  0  0  0
  -24.1500  -36.7180   23.1650 C   0  0  0  0  0  1  0  0  0  0  0  0
  -25.4240  -36.3110   23.9210 C   0  0  0  0  0  3  0  0  0  0  0  0
  -27.5740  -37.2060   24.6990 C   0  0  0  0  0  1  0  0  0  0  0  0
  -26.4390  -37.3790   23.7960 N   0  0  0  0  0  0  0  0  0  0  0  0
  -26.0270  -38.2910   23.9760 H   0  0  0  0  0  0  0  0  0  0  0  0
  1 50  1  0
  1  2  1  0
  2  4  1  0
  3  1  2  0
  5  8  2  0
  5  7  1  0
  7  2  1  0
  7  6  2  0
  8  9  1  0
  9  6  1  0
 10 19  1  0
 10  8  1  0
 11 19  1  0
 12 17  1  0
 13 14  1  0
 13 12  1  0
 15 14  1  0
 15 24  1  0
 15 16  1  0
 17 11  1  0
 17 16  1  0
 18 11  2  0
 19 20  1  0
 21 22  2  0
 22 41  1  0
 23 22  1  0
 23 26  1  0
 24 25  1  0
 24 21  1  0
 25 23  2  0
 26 27  1  0
 27 28  2  0
 29 32  1  0
 29 28  1  0
 30 29  2  0
 31 30  1  0
 31 26  2  0
 32 33  1  0
 33 34  1  0
 34 35  2  0
 36 35  1  0
 36 40  1  0
 37 36  2  0
 38 33  2  0
 38 37  1  0
 39 38  1  0
 41 42  1  0
 42 45  1  0
 42 44  1  0
 43 41  2  0
 46 21  1  0
 46 47  1  0
 48 46  1  0
 49 53  1  0
 49 50  2  0
 50 51  1  0
 51 52  1  0
 54 65  2  0
 55 53  1  0
 55 60  1  0
 56 64  1  0
 56 66  1  0
 57 63  1  0
 57 59  1  0
 58 64  1  0
 59 58  1  0
 60 59  2  0
 61 62  1  0
 61 55  2  0
 62 57  2  0
 63 56  1  0
 64 54  1  0
 66 68  2  0
 67 66  1  0
 69 67  1  0
 70 79  2  0
 70 75  1  0
 71 67  1  0
 71 75  1  0
 72 71  1  0
 73 74  1  0
 73 72  1  0
 74 70  1  0
 75 76  2  0
 76 77  1  0
 78 77  2  0
 79 78  1  0
 80 54  1  0
 80 85  1  0
 80 81  1  0
 81 84  1  1
 81 82  1  0
 83 81  1  0
 85 88  1  0
 86 90  1  0
 86 85  1  0
 87 86  2  0
 90 89  1  0
 92 90  1  0
 92 93  1  0
 92 91  1  0
M  ISO  4  11 100  19 100  49 101  53 101
M  END
>  <TORSDO>  (72) 
F 20

>  <SCORE>  (72) 
-12.199

>  <name>  (72) 
71

>  <ligand_id>  (72) 
71

>  <original_smiles>  (72) 
[H]OC(C(=O)N([H])c1c([H])oc(C([H])([H])N([H])C(=O)N2C([H])([H])C([H])([H])C([H])([H])C([H])(n3nc(-c4c([H])c([H])c(Oc5c([H])c([H])c(F)c([H])c5F)c([H])c4[H])c(C(=O)N([H])[H])c3N([H])[H])C2([H])[H])c1[H])=C([H])Oc1c([H])c([H])c2c(c1[H])C([H])([H])N(C(=O)C([H])(N([H])C(=O)C([H])(N([H])C([H])([H])[H])C([H])([H])[H])C(C([H])([H])[H])(C([H])([H])[H])C([H])([H])[H])C([H])(C(=O)N([H])C1([H])c3c([H])c([H])c([H])c([H])c3C([H])([H])C([H])([H])C1([H])[H])C2([H])[H]

>  <smiles>  (72) 
[H]OC(C(=O)N([H])c1c([H])oc(C([H])([H])N([H])C(=O)N2C([H])([H])C([H])([H])C([H])([H])C([H])(n3nc(-c4c([H])c([H])c(Oc5c([H])c([H])c(F)c([H])c5F)c([H])c4[H])c(C(=O)N([H])[H])c3N([H])[H])C2([H])[H])c1[H])=C([H])Oc1c([H])c([H])c2c(c1[H])C([H])([H])N(C(=O)C([H])(N([H])C(=O)C([H])(N([H])C([H])([H])[H])C([H])([H])[H])C(C([H])([H])[H])(C([H])([H])[H])C([H])([H])[H])C([H])(C(=O)N([H])C1([H])c3c([H])c([H])c([H])c([H])c3C([H])([H])C([H])([H])C1([H])[H])C2([H])[H]

$$$$
72:0:0
     RDKit          3D

 93102  0  0  1  0  0  0  0  0999 V2000
  -29.1810  -18.1820   20.7720 C   0  0  0  0  0  3  0  0  0  0  0  0
  -29.9460  -19.3800   20.5070 C   0  0  0  0  0  0  0  0  0  0  0  0
  -30.0640  -17.1260   20.5690 C   0  0  0  0  0  0  0  0  0  0  0  0
  -27.7630  -22.5770   20.8790 C   0  0  0  0  0  2  0  0  0  0  0  0
  -30.0700  -23.2780   20.5100 C   0  0  0  0  0  2  0  0  0  0  0  0
  -28.1130  -21.1130   20.4190 C   0  0  0  0  0  2  0  0  0  0  0  0
  -30.4220  -21.8070   20.0690 C   0  0  0  0  0  2  0  0  0  0  0  0
  -28.5990  -23.7390   20.2400 C   0  0  1  0  0  0  0  0  0  0  0  0
  -31.1870  -19.0420   20.1690 N   0  0  0  0  0  0  0  0  0  0  0  0
  -29.5270  -20.7600   20.6100 N   0  0  0  0  0  0  0  0  0  0  0  0
  -31.2730  -17.6360   20.2010 O   0  0  0  0  0  0  0  0  0  0  0  0
  -30.5900  -14.6800   20.3900 C   0  0  0  0  0  0  0  0  0  0  0  0
  -30.3600  -12.4470   19.3170 C   0  0  0  0  0  2  0  0  0  0  0  0
  -29.4140  -12.5810   18.1030 C   0  0  0  0  0  2  0  0  0  0  0  0
  -27.9420  -12.4260   18.5340 C   0  0  0  0  0  2  0  0  0  0  0  0
  -27.5920  -13.2870   19.7780 C   0  0  0  0  0  3  0  0  0  0  0  0
  -28.6500  -13.1270   20.8920 C   0  0  0  0  0  2  0  0  0  0  0  0
  -29.9570  -13.4660   20.3090 N   0  0  0  0  0  0  0  0  0  0  0  0
  -31.7670  -14.7960   20.0270 O   0  0  0  0  0  0  0  0  0  0  0  0
  -29.8060  -15.7650   20.7000 N   0  0  0  0  0  0  0  0  0  0  0  0
  -28.8690  -15.5300   20.9790 H   0  0  0  0  0  0  0  0  0  0  0  0
  -25.2030  -13.8930   20.4930 C   0  0  0  0  0  0  0  0  0  0  0  0
  -24.1330  -13.1240   20.8640 C   0  0  0  0  0  0  0  0  0  0  0  0
  -24.5920  -11.7710   20.8380 C   0  0  0  0  0  0  0  0  0  0  0  0
  -26.2440  -13.0090   20.2620 N   0  0  0  0  0  0  0  0  0  0  0  0
  -25.8820  -11.7280   20.5330 N   0  0  0  0  0  0  0  0  0  0  0  0
  -23.8630  -10.5100   21.0300 C   0  0  0  0  0  0  0  0  0  0  0  0
  -24.2910   -9.5430   21.9660 C   0  0  0  0  0  3  0  0  0  0  0  0
  -23.5610   -8.3480   22.1410 C   0  0  0  0  0  3  0  0  0  0  0  0
  -22.3890   -8.1120   21.3830 C   0  0  0  0  0  0  0  0  0  0  0  0
  -21.9830   -9.0680   20.4360 C   0  0  0  0  0  3  0  0  0  0  0  0
  -22.7130  -10.2540   20.2570 C   0  0  0  0  0  3  0  0  0  0  0  0
  -21.6310   -6.9690   21.4710 O   0  0  0  0  0  0  0  0  0  0  0  0
  -21.5740   -6.2310   22.6260 C   0  0  0  0  0  0  0  0  0  0  0  0
  -21.1340   -6.7890   23.8470 C   0  0  0  0  0  3  0  0  0  0  0  0
  -21.0230   -5.9770   24.9930 C   0  0  0  0  0  3  0  0  0  0  0  0
  -21.3430   -4.6070   24.9190 C   0  0  0  0  0  0  0  0  0  0  0  0
  -21.7760   -4.0500   23.7030 C   0  0  0  0  0  3  0  0  0  0  0  0
  -21.8880   -4.8590   22.5600 C   0  0  0  0  0  0  0  0  0  0  0  0
  -22.2840   -4.3120   21.3860 F   0  0  0  0  0  0  0  0  0  0  0  0
  -21.2300   -3.8240   26.0180 F   0  0  0  0  0  0  0  0  0  0  0  0
  -22.7370  -13.6060   21.1330 C   0  0  0  0  0  0  0  0  0  0  0  0
  -22.0030  -12.9090   21.9940 N   0  0  0  0  0  0  0  0  0  0  0  0
  -22.3050  -14.6350   20.6140 O   0  0  0  0  0  0  0  0  0  0  0  0
  -22.3620  -12.0740   22.4330 H   0  0  0  0  0  0  0  0  0  0  0  0
  -21.0680  -13.2170   22.2200 H   0  0  0  0  0  0  0  0  0  0  0  0
  -25.3710  -15.2630   20.3120 N   0  0  0  0  0  0  0  0  0  0  0  0
  -24.5970  -15.9120   20.3970 H   0  0  0  0  0  0  0  0  0  0  0  0
  -26.2090  -15.6950   19.9470 H   0  0  0  0  0  0  0  0  0  0  0  0
  -29.0620  -24.3900   17.9290 C   0  0  0  0  0  1  0  0  0  0  0  0
  -28.2280  -23.7010   18.8550 O   0  0  0  0  0  0  0  0  0  0  0  0
  -28.1660  -25.1500   20.8950 C   0  0  0  0  0  2  0  0  0  0  0  0
  -28.4110  -26.4910   20.3070 O   0  0  0  0  0  0  0  0  0  0  0  0
  -24.6200  -31.8980   23.2510 C   0  0  0  0  0  0  0  0  0  0  0  0
  -27.3040  -27.3500   20.2560 C   0  0  0  0  0  0  0  0  0  0  0  0
  -23.4460  -30.4790   21.6040 C   0  0  0  0  0  3  0  0  0  0  0  0
  -24.9260  -28.9300   20.2070 C   0  0  0  0  0  0  0  0  0  0  0  0
  -25.9830  -30.8190   21.4490 C   0  0  0  0  0  2  0  0  0  0  0  0
  -26.0830  -29.4370   20.8120 C   0  0  0  0  0  0  0  0  0  0  0  0
  -27.2800  -28.6590   20.8260 C   0  0  0  0  0  3  0  0  0  0  0  0
  -26.1290  -26.8950   19.6200 C   0  0  0  0  0  3  0  0  0  0  0  0
  -24.9500  -27.6630   19.6010 C   0  0  0  0  0  3  0  0  0  0  0  0
  -23.6810  -29.7930   20.2320 C   0  0  0  0  0  2  0  0  0  0  0  0
  -24.7010  -31.0830   22.1580 N   0  0  0  0  0  0  0  0  0  0  0  0
  -23.5280  -32.1710   23.7710 O   0  0  0  0  0  0  0  0  0  0  0  0
  -22.7790  -29.4660   22.5650 C   0  0  0  0  0  0  0  0  0  0  0  0
  -21.4540  -29.2890   22.4340 N   0  0  0  0  0  0  0  0  0  0  0  0
  -23.4540  -28.8420   23.3890 O   0  0  0  0  0  0  0  0  0  0  0  0
  -20.9690  -29.8440   21.7440 H   0  0  0  0  0  0  0  0  0  0  0  0
  -18.0680  -28.1190   22.9420 C   0  0  0  0  0  0  0  0  0  0  0  0
  -20.6300  -28.3530   23.2020 C   0  0  0  0  0  3  0  0  0  0  0  0
  -20.7170  -26.9240   22.6190 C   0  0  0  0  0  2  0  0  0  0  0  0
  -19.6070  -26.6160   21.6090 C   0  0  0  0  0  2  0  0  0  0  0  0
  -18.2280  -26.7720   22.2580 C   0  0  0  0  0  2  0  0  0  0  0  0
  -19.1960  -28.8680   23.3720 C   0  0  0  0  0  0  0  0  0  0  0  0
  -18.9900  -30.1310   23.9720 C   0  0  0  0  0  3  0  0  0  0  0  0
  -17.6900  -30.6420   24.1460 C   0  0  0  0  0  3  0  0  0  0  0  0
  -16.5780  -29.8880   23.7350 C   0  0  0  0  0  3  0  0  0  0  0  0
  -16.7680  -28.6290   23.1380 C   0  0  0  0  0  3  0  0  0  0  0  0
  -25.8920  -32.5440   23.8840 C   0  0  0  0  0  3  0  0  0  0  0  0
  -25.5730  -33.9450   24.1940 N   0  0  0  0  0  0  0  0  0  0  0  0
  -25.9140  -34.9900   23.4290 C   0  0  0  0  0  0  0  0  0  0  0  0
  -26.6020  -34.8780   22.4100 O   0  0  0  0  0  0  0  0  0  0  0  0
  -24.9720  -34.1070   24.9880 H   0  0  0  0  0  0  0  0  0  0  0  0
  -24.1920  -36.7750   23.0210 C   0  0  0  0  0  1  0  0  0  0  0  0
  -25.4140  -36.3810   23.8640 C   0  0  0  0  0  3  0  0  0  0  0  0
  -27.5310  -37.2750   24.7320 C   0  0  0  0  0  1  0  0  0  0  0  0
  -26.4470  -37.4370   23.7670 N   0  0  0  0  0  0  0  0  0  0  0  0
  -26.0350  -38.3550   23.9070 H   0  0  0  0  0  0  0  0  0  0  0  0
  -26.3920  -31.7920   25.1790 C   0  0  1  0  0  0  0  0  0  0  0  0
  -25.2850  -31.5610   26.2320 C   0  0  0  0  0  1  0  0  0  0  0  0
  -26.9900  -30.4130   24.8140 C   0  0  0  0  0  1  0  0  0  0  0  0
  -27.5310  -32.5990   25.8460 C   0  0  0  0  0  1  0  0  0  0  0  0
  2 10  1  0
  2  1  1  0
  3 20  1  0
  3  1  2  0
  6 10  1  0
  6  4  1  0
  7  5  1  0
  7 10  1  0
  8  5  1  0
  8  4  1  0
  8 52  1  1
  9 11  1  0
  9  2  2  0
 11  3  1  0
 12 20  1  0
 13 18  1  0
 14 15  1  0
 14 13  1  0
 16 15  1  0
 16 25  1  0
 16 17  1  0
 18 12  1  0
 18 17  1  0
 19 12  2  0
 20 21  1  0
 22 23  2  0
 23 42  1  0
 24 23  1  0
 24 27  1  0
 25 22  1  0
 25 26  1  0
 26 24  2  0
 27 28  1  0
 28 29  2  0
 30 33  1  0
 30 29  1  0
 31 30  2  0
 32 31  1  0
 32 27  2  0
 33 34  1  0
 34 35  1  0
 35 36  2  0
 37 36  1  0
 37 41  1  0
 38 37  2  0
 39 34  2  0
 39 38  1  0
 40 39  1  0
 42 43  1  0
 43 46  1  0
 43 45  1  0
 44 42  2  0
 47 48  1  0
 47 22  1  0
 49 47  1  0
 50 51  1  0
 51  8  1  0
 53 52  1  0
 54 65  2  0
 55 53  1  0
 55 60  1  0
 56 64  1  0
 56 66  1  0
 57 63  1  0
 57 59  1  0
 58 64  1  0
 59 60  2  0
 59 58  1  0
 61 55  2  0
 62 61  1  0
 62 57  2  0
 63 56  1  0
 64 54  1  0
 66 68  2  0
 67 66  1  0
 69 67  1  0
 70 79  2  0
 70 75  1  0
 71 67  1  0
 71 75  1  0
 72 71  1  0
 73 74  1  0
 73 72  1  0
 74 70  1  0
 75 76  2  0
 76 77  1  0
 78 77  2  0
 79 78  1  0
 80 54  1  0
 80 81  1  0
 80 90  1  0
 81 84  1  0
 82 86  1  0
 82 81  1  0
 83 82  2  0
 86 85  1  0
 88 86  1  0
 88 89  1  0
 88 87  1  0
 90 93  1  1
 90 91  1  0
 92 90  1  0
M  ISO  4  12 100  20 100  52 101  53 101
M  END
>  <TORSDO>  (73) 
F 18

>  <SCORE>  (73) 
-14.863

>  <name>  (73) 
72

>  <ligand_id>  (73) 
72

>  <original_smiles>  (73) 
[H]c1c(N2C([H])([H])C([H])([H])C(OC([H])([H])[H])(C([H])([H])Oc3c([H])c([H])c4c(c3[H])C([H])([H])N(C(=O)C([H])(N([H])C(=O)C([H])(N([H])C([H])([H])[H])C([H])([H])[H])C(C([H])([H])[H])(C([H])([H])[H])C([H])([H])[H])C([H])(C(=O)N([H])C3([H])c5c([H])c([H])c([H])c([H])c5C([H])([H])C([H])([H])C3([H])[H])C4([H])[H])C([H])([H])C2([H])[H])noc1N([H])C(=O)N1C([H])([H])C([H])([H])C([H])([H])C([H])(n2nc(-c3c([H])c([H])c(Oc4c([H])c([H])c(F)c([H])c4F)c([H])c3[H])c(C(=O)N([H])[H])c2N([H])[H])C1([H])[H]

>  <smiles>  (73) 
[H]c1c(N2C([H])([H])C([H])([H])C(OC([H])([H])[H])(C([H])([H])Oc3c([H])c([H])c4c(c3[H])C([H])([H])N(C(=O)C([H])(N([H])C(=O)C([H])(N([H])C([H])([H])[H])C([H])([H])[H])C(C([H])([H])[H])(C([H])([H])[H])C([H])([H])[H])C([H])(C(=O)N([H])C3([H])c5c([H])c([H])c([H])c([H])c5C([H])([H])C([H])([H])C3([H])[H])C4([H])[H])C([H])([H])C2([H])[H])noc1N([H])C(=O)N1C([H])([H])C([H])([H])C([H])([H])C([H])(n2nc(-c3c([H])c([H])c(Oc4c([H])c([H])c(F)c([H])c4F)c([H])c3[H])c(C(=O)N([H])[H])c2N([H])[H])C1([H])[H]

$$$$
73:0:0
     RDKit          3D

 92100  0  0  1  0  0  0  0  0999 V2000
  -28.2340  -20.4520   19.6100 C   0  0  0  0  0  3  0  0  0  0  0  0
  -28.5410  -19.0210   19.5380 C   0  0  0  0  0  0  0  0  0  0  0  0
  -29.5670  -18.6000   20.3690 C   0  0  0  0  0  0  0  0  0  0  0  0
  -28.9830  -21.2150   20.4850 C   0  0  0  0  0  0  0  0  0  0  0  0
  -27.7970  -18.1160   18.5960 C   0  0  0  0  0  1  0  0  0  0  0  0
  -30.1210  -20.0650   21.2470 S   0  0  0  0  0  0  0  0  0  0  0  0
  -30.6450  -14.8030   20.2870 C   0  0  0  0  0  0  0  0  0  0  0  0
  -30.3990  -12.5210   19.2970 C   0  0  0  0  0  2  0  0  0  0  0  0
  -29.4500  -12.5650   18.0820 C   0  0  0  0  0  2  0  0  0  0  0  0
  -27.9850  -12.4040   18.5340 C   0  0  0  0  0  2  0  0  0  0  0  0
  -27.6230  -13.3060   19.7450 C   0  0  0  0  0  3  0  0  0  0  0  0
  -28.6970  -13.2520   20.8490 C   0  0  0  0  0  2  0  0  0  0  0  0
  -29.9770  -13.5980   20.2220 N   0  0  0  0  0  0  0  0  0  0  0  0
  -31.8440  -14.8120   19.9980 O   0  0  0  0  0  0  0  0  0  0  0  0
  -30.4080  -17.2930   20.5370 C   0  0  0  0  0  0  0  0  0  0  0  0
  -29.9180  -15.9930   20.4250 N   0  0  0  0  0  0  0  0  0  0  0  0
  -31.6010  -17.4850   20.7910 O   0  0  0  0  0  0  0  0  0  0  0  0
  -28.9170  -15.9080   20.4110 H   0  0  0  0  0  0  0  0  0  0  0  0
  -25.2510  -13.8940   20.5260 C   0  0  0  0  0  0  0  0  0  0  0  0
  -24.1910  -13.1190   20.9080 C   0  0  0  0  0  0  0  0  0  0  0  0
  -24.6520  -11.7670   20.8580 C   0  0  0  0  0  0  0  0  0  0  0  0
  -26.2880  -13.0150   20.2620 N   0  0  0  0  0  0  0  0  0  0  0  0
  -25.9370  -11.7310   20.5260 N   0  0  0  0  0  0  0  0  0  0  0  0
  -23.9270  -10.5050   21.0480 C   0  0  0  0  0  0  0  0  0  0  0  0
  -24.3650   -9.5300   21.9720 C   0  0  0  0  0  3  0  0  0  0  0  0
  -23.6400   -8.3320   22.1470 C   0  0  0  0  0  3  0  0  0  0  0  0
  -22.4600   -8.1010   21.4020 C   0  0  0  0  0  0  0  0  0  0  0  0
  -22.0420   -9.0630   20.4650 C   0  0  0  0  0  3  0  0  0  0  0  0
  -22.7690  -10.2510   20.2860 C   0  0  0  0  0  3  0  0  0  0  0  0
  -21.7020   -6.9580   21.4900 O   0  0  0  0  0  0  0  0  0  0  0  0
  -21.6490   -6.2160   22.6430 C   0  0  0  0  0  0  0  0  0  0  0  0
  -21.1940   -6.7660   23.8620 C   0  0  0  0  0  3  0  0  0  0  0  0
  -21.0910   -5.9490   25.0070 C   0  0  0  0  0  3  0  0  0  0  0  0
  -21.4320   -4.5850   24.9320 C   0  0  0  0  0  0  0  0  0  0  0  0
  -21.8750   -4.0360   23.7170 C   0  0  0  0  0  3  0  0  0  0  0  0
  -21.9810   -4.8490   22.5760 C   0  0  0  0  0  0  0  0  0  0  0  0
  -22.3910   -4.3080   21.4030 F   0  0  0  0  0  0  0  0  0  0  0  0
  -21.3240   -3.7990   26.0300 F   0  0  0  0  0  0  0  0  0  0  0  0
  -22.7980  -13.5960   21.2020 C   0  0  0  0  0  0  0  0  0  0  0  0
  -22.0790  -12.8890   22.0670 N   0  0  0  0  0  0  0  0  0  0  0  0
  -22.3570  -14.6260   20.6960 O   0  0  0  0  0  0  0  0  0  0  0  0
  -22.4550  -12.0600   22.5010 H   0  0  0  0  0  0  0  0  0  0  0  0
  -21.1390  -13.1830   22.2950 H   0  0  0  0  0  0  0  0  0  0  0  0
  -25.4170  -15.2640   20.3500 N   0  0  0  0  0  0  0  0  0  0  0  0
  -24.6530  -15.9190   20.4610 H   0  0  0  0  0  0  0  0  0  0  0  0
  -26.2510  -15.6910   19.9740 H   0  0  0  0  0  0  0  0  0  0  0  0
  -28.4690  -23.7130   20.1620 C   0  0  0  0  0  0  0  0  0  0  0  0
  -28.8860  -22.5750   20.8430 N   0  0  0  0  0  0  0  0  0  0  0  0
  -28.2710  -23.6850   18.9450 O   0  0  0  0  0  0  0  0  0  0  0  0
  -29.1680  -22.7670   21.7950 H   0  0  0  0  0  0  0  0  0  0  0  0
  -28.2110  -25.0910   20.9530 C   0  0  0  0  0  2  0  0  0  0  0  0
  -28.3780  -26.4180   20.2570 O   0  0  0  0  0  0  0  0  0  0  0  0
  -24.6370  -31.9000   23.2350 C   0  0  0  0  0  0  0  0  0  0  0  0
  -27.2820  -27.3050   20.2410 C   0  0  0  0  0  0  0  0  0  0  0  0
  -23.4500  -30.4860   21.5910 C   0  0  0  0  0  3  0  0  0  0  0  0
  -24.9190  -28.9290   20.1850 C   0  0  0  0  0  0  0  0  0  0  0  0
  -25.9890  -30.8120   21.4250 C   0  0  0  0  0  2  0  0  0  0  0  0
  -26.0830  -29.4240   20.7900 C   0  0  0  0  0  0  0  0  0  0  0  0
  -27.2700  -28.6220   20.8110 C   0  0  0  0  0  3  0  0  0  0  0  0
  -26.1020  -26.8700   19.6110 C   0  0  0  0  0  3  0  0  0  0  0  0
  -24.9320  -27.6570   19.5860 C   0  0  0  0  0  3  0  0  0  0  0  0
  -23.6790  -29.8020   20.2170 C   0  0  0  0  0  2  0  0  0  0  0  0
  -24.7110  -31.0880   22.1390 N   0  0  0  0  0  0  0  0  0  0  0  0
  -23.5500  -32.1730   23.7660 O   0  0  0  0  0  0  0  0  0  0  0  0
  -22.7870  -29.4730   22.5550 C   0  0  0  0  0  0  0  0  0  0  0  0
  -21.4610  -29.2930   22.4280 N   0  0  0  0  0  0  0  0  0  0  0  0
  -23.4630  -28.8540   23.3790 O   0  0  0  0  0  0  0  0  0  0  0  0
  -20.9680  -29.8460   21.7420 H   0  0  0  0  0  0  0  0  0  0  0  0
  -18.0850  -28.0980   22.9470 C   0  0  0  0  0  0  0  0  0  0  0  0
  -20.6460  -28.3540   23.2030 C   0  0  0  0  0  3  0  0  0  0  0  0
  -20.7450  -26.9240   22.6230 C   0  0  0  0  0  2  0  0  0  0  0  0
  -19.6380  -26.6060   21.6130 C   0  0  0  0  0  2  0  0  0  0  0  0
  -18.2580  -26.7510   22.2630 C   0  0  0  0  0  2  0  0  0  0  0  0
  -19.2080  -28.8560   23.3730 C   0  0  0  0  0  0  0  0  0  0  0  0
  -18.9920  -30.1170   23.9710 C   0  0  0  0  0  3  0  0  0  0  0  0
  -17.6880  -30.6170   24.1460 C   0  0  0  0  0  3  0  0  0  0  0  0
  -16.5810  -29.8560   23.7350 C   0  0  0  0  0  3  0  0  0  0  0  0
  -16.7800  -28.5980   23.1410 C   0  0  0  0  0  3  0  0  0  0  0  0
  -25.9130  -32.5420   23.8610 C   0  0  0  0  0  3  0  0  0  0  0  0
  -25.5980  -33.9410   24.1800 N   0  0  0  0  0  0  0  0  0  0  0  0
  -25.9280  -34.9920   23.4150 C   0  0  0  0  0  0  0  0  0  0  0  0
  -26.5990  -34.8860   22.3860 O   0  0  0  0  0  0  0  0  0  0  0  0
  -25.0130  -34.1010   24.9860 H   0  0  0  0  0  0  0  0  0  0  0  0
  -24.1980  -36.7760   23.0350 C   0  0  0  0  0  1  0  0  0  0  0  0
  -25.4300  -36.3790   23.8630 C   0  0  0  0  0  3  0  0  0  0  0  0
  -27.5540  -37.2700   24.7110 C   0  0  0  0  0  1  0  0  0  0  0  0
  -26.4560  -37.4400   23.7640 N   0  0  0  0  0  0  0  0  0  0  0  0
  -26.0420  -38.3540   23.9260 H   0  0  0  0  0  0  0  0  0  0  0  0
  -26.4230  -31.7870   25.1500 C   0  0  1  0  0  0  0  0  0  0  0  0
  -25.3230  -31.5620   26.2110 C   0  0  0  0  0  1  0  0  0  0  0  0
  -27.0140  -30.4070   24.7810 C   0  0  0  0  0  1  0  0  0  0  0  0
  -27.5630  -32.5940   25.8140 C   0  0  0  0  0  1  0  0  0  0  0  0
  1  4  2  0
  2  1  1  0
  2  3  2  0
  3 15  1  0
  3  6  1  0
  4 48  1  0
  4  6  1  0
  5  2  1  0
  7 16  1  0
  8 13  1  0
  9 10  1  0
  9  8  1  0
 11 10  1  0
 11 22  1  0
 11 12  1  0
 13  7  1  0
 13 12  1  0
 14  7  2  0
 15 17  2  0
 16 15  1  0
 18 16  1  0
 19 20  2  0
 20 39  1  0
 21 20  1  0
 21 24  1  0
 22 23  1  0
 22 19  1  0
 23 21  2  0
 24 25  1  0
 25 26  2  0
 27 30  1  0
 27 26  1  0
 28 27  2  0
 29 28  1  0
 29 24  2  0
 30 31  1  0
 31 32  1  0
 32 33  2  0
 34 33  1  0
 34 38  1  0
 35 34  2  0
 36 31  2  0
 36 35  1  0
 37 36  1  0
 39 40  1  0
 40 43  1  0
 40 42  1  0
 41 39  2  0
 44 45  1  0
 44 19  1  0
 46 44  1  0
 47 48  1  0
 47 51  1  0
 48 50  1  0
 49 47  2  0
 52 51  1  0
 53 64  2  0
 54 52  1  0
 54 59  1  0
 55 63  1  0
 55 65  1  0
 56 62  1  0
 56 58  1  0
 57 63  1  0
 58 59  2  0
 58 57  1  0
 60 54  2  0
 61 60  1  0
 61 56  2  0
 62 55  1  0
 63 53  1  0
 65 67  2  0
 66 65  1  0
 68 66  1  0
 69 78  2  0
 69 74  1  0
 70 66  1  0
 70 74  1  0
 71 70  1  0
 72 73  1  0
 72 71  1  0
 73 69  1  0
 74 75  2  0
 75 76  1  0
 77 76  2  0
 78 77  1  0
 79 53  1  0
 79 80  1  0
 79 89  1  0
 80 83  1  0
 81 85  1  0
 81 80  1  0
 82 81  2  0
 85 84  1  0
 87 85  1  0
 87 88  1  0
 87 86  1  0
 89 92  1  1
 89 90  1  0
 91 89  1  0
M  ISO  4   7 100  16 100  51 101  52 101
M  END
>  <TORSDO>  (74) 
F 18

>  <SCORE>  (74) 
-14.896

>  <name>  (74) 
73

>  <ligand_id>  (74) 
73

>  <original_smiles>  (74) 
[H]c1c([H])c([H])c2c(c1[H])C([H])([H])C([H])([H])C([H])([H])C2([H])N([H])C(=O)C1([H])N(C(=O)C([H])(N([H])C(=O)C([H])(N([H])C([H])([H])[H])C([H])([H])[H])C(C([H])([H])[H])(C([H])([H])[H])C([H])([H])[H])C([H])([H])c2c([H])c(OC([H])([H])C(=O)N([H])c3sc(C(=O)N([H])C(=O)N4C([H])([H])C([H])([H])C([H])([H])C([H])(n5nc(-c6c([H])c([H])c(Oc7c([H])c([H])c(F)c([H])c7F)c([H])c6[H])c(C(=O)N([H])[H])c5N([H])[H])C4([H])[H])c(C([H])([H])[H])c3[H])c([H])c([H])c2C1([H])[H]

>  <smiles>  (74) 
[H]c1c([H])c([H])c2c(c1[H])C([H])([H])C([H])([H])C([H])([H])C2([H])N([H])C(=O)C1([H])N(C(=O)C([H])(N([H])C(=O)C([H])(N([H])C([H])([H])[H])C([H])([H])[H])C(C([H])([H])[H])(C([H])([H])[H])C([H])([H])[H])C([H])([H])c2c([H])c(OC([H])([H])C(=O)N([H])c3sc(C(=O)N([H])C(=O)N4C([H])([H])C([H])([H])C([H])([H])C([H])(n5nc(-c6c([H])c([H])c(Oc7c([H])c([H])c(F)c([H])c7F)c([H])c6[H])c(C(=O)N([H])[H])c5N([H])[H])C4([H])[H])c(C([H])([H])[H])c3[H])c([H])c([H])c2C1([H])[H]

$$$$
74:0:0
     RDKit          3D

 93102  0  0  1  0  0  0  0  0999 V2000
  -28.2930  -22.7780   19.7630 C   0  0  0  0  0  2  0  0  0  0  0  0
  -29.3800  -23.2870   21.9050 C   0  0  0  0  0  2  0  0  0  0  0  0
  -29.0870  -21.4090   19.6960 C   0  0  0  0  0  2  0  0  0  0  0  0
  -30.1850  -21.9690   21.7750 C   0  0  0  0  0  2  0  0  0  0  0  0
  -28.9700  -23.9410   20.5680 C   0  0  1  0  0  0  0  0  0  0  0  0
  -29.5310  -20.8900   21.0050 N   0  0  0  0  0  0  0  0  0  0  0  0
  -30.0790  -24.3110   19.9260 F   0  0  0  0  0  0  0  0  0  0  0  0
  -29.6560  -18.3330   20.6590 C   0  0  0  0  0  3  0  0  0  0  0  0
  -31.5580  -19.5350   21.5040 C   0  0  0  0  0  3  0  0  0  0  0  0
  -31.7340  -17.2450   21.2700 C   0  0  0  0  0  3  0  0  0  0  0  0
  -30.2160  -19.6110   21.0390 C   0  0  0  0  0  0  0  0  0  0  0  0
  -30.4220  -17.1140   20.7680 C   0  0  0  0  0  0  0  0  0  0  0  0
  -32.2900  -18.4150   21.6240 N   0  0  0  0  0  0  0  0  0  0  0  0
  -30.6170  -14.6690   20.0650 C   0  0  0  0  0  0  0  0  0  0  0  0
  -30.2870  -12.4800   18.9460 C   0  0  0  0  0  2  0  0  0  0  0  0
  -29.2690  -12.6150   17.7940 C   0  0  0  0  0  2  0  0  0  0  0  0
  -27.8310  -12.4440   18.3220 C   0  0  0  0  0  2  0  0  0  0  0  0
  -27.5480  -13.3100   19.5760 C   0  0  0  0  0  3  0  0  0  0  0  0
  -28.6680  -13.1590   20.6280 C   0  0  0  0  0  2  0  0  0  0  0  0
  -29.9400  -13.4850   19.9680 N   0  0  0  0  0  0  0  0  0  0  0  0
  -31.7580  -14.7880   19.6110 O   0  0  0  0  0  0  0  0  0  0  0  0
  -29.9080  -15.7760   20.4640 N   0  0  0  0  0  0  0  0  0  0  0  0
  -28.9150  -15.6390   20.5800 H   0  0  0  0  0  0  0  0  0  0  0  0
  -25.2050  -13.9020   20.4480 C   0  0  0  0  0  0  0  0  0  0  0  0
  -24.1610  -13.1210   20.8700 C   0  0  0  0  0  0  0  0  0  0  0  0
  -24.6160  -11.7710   20.7810 C   0  0  0  0  0  0  0  0  0  0  0  0
  -26.2310  -13.0230   20.1360 N   0  0  0  0  0  0  0  0  0  0  0  0
  -25.8840  -11.7350   20.3940 N   0  0  0  0  0  0  0  0  0  0  0  0
  -23.8990  -10.5060   20.9840 C   0  0  0  0  0  0  0  0  0  0  0  0
  -24.3580   -9.5330   21.8970 C   0  0  0  0  0  3  0  0  0  0  0  0
  -23.6400   -8.3320   22.0840 C   0  0  0  0  0  3  0  0  0  0  0  0
  -22.4460   -8.0980   21.3620 C   0  0  0  0  0  0  0  0  0  0  0  0
  -22.0070   -9.0600   20.4360 C   0  0  0  0  0  3  0  0  0  0  0  0
  -22.7270  -10.2510   20.2450 C   0  0  0  0  0  3  0  0  0  0  0  0
  -21.6930   -6.9540   21.4640 O   0  0  0  0  0  0  0  0  0  0  0  0
  -21.6610   -6.2190   22.6210 C   0  0  0  0  0  0  0  0  0  0  0  0
  -21.2210   -6.7720   23.8430 C   0  0  0  0  0  3  0  0  0  0  0  0
  -21.1370   -5.9610   24.9930 C   0  0  0  0  0  3  0  0  0  0  0  0
  -21.4760   -4.5970   24.9190 C   0  0  0  0  0  0  0  0  0  0  0  0
  -21.9090   -4.0440   23.7020 C   0  0  0  0  0  3  0  0  0  0  0  0
  -21.9980   -4.8520   22.5550 C   0  0  0  0  0  0  0  0  0  0  0  0
  -22.3930   -4.3070   21.3790 F   0  0  0  0  0  0  0  0  0  0  0  0
  -21.3890   -3.8160   26.0220 F   0  0  0  0  0  0  0  0  0  0  0  0
  -22.7850  -13.5990   21.2310 C   0  0  0  0  0  0  0  0  0  0  0  0
  -22.0990  -12.8820   22.1150 N   0  0  0  0  0  0  0  0  0  0  0  0
  -22.3280  -14.6410   20.7680 O   0  0  0  0  0  0  0  0  0  0  0  0
  -22.4790  -12.0340   22.5080 H   0  0  0  0  0  0  0  0  0  0  0  0
  -21.1800  -13.1870   22.4020 H   0  0  0  0  0  0  0  0  0  0  0  0
  -25.3620  -15.2750   20.2870 N   0  0  0  0  0  0  0  0  0  0  0  0
  -24.5930  -15.9190   20.4380 H   0  0  0  0  0  0  0  0  0  0  0  0
  -26.1650  -15.7150   19.8570 H   0  0  0  0  0  0  0  0  0  0  0  0
  -28.0870  -25.2450   20.8410 C   0  0  0  0  0  2  0  0  0  0  0  0
  -28.3720  -26.5570   20.2270 O   0  0  0  0  0  0  0  0  0  0  0  0
  -24.6260  -31.9250   23.2340 C   0  0  0  0  0  0  0  0  0  0  0  0
  -27.2740  -27.4170   20.1810 C   0  0  0  0  0  0  0  0  0  0  0  0
  -23.4380  -30.5280   21.5790 C   0  0  0  0  0  3  0  0  0  0  0  0
  -24.9060  -29.0020   20.1490 C   0  0  0  0  0  0  0  0  0  0  0  0
  -25.9720  -30.8710   21.4080 C   0  0  0  0  0  2  0  0  0  0  0  0
  -26.0650  -29.4970   20.7600 C   0  0  0  0  0  0  0  0  0  0  0  0
  -27.2550  -28.7120   20.7720 C   0  0  0  0  0  3  0  0  0  0  0  0
  -26.0990  -26.9690   19.5410 C   0  0  0  0  0  3  0  0  0  0  0  0
  -24.9220  -27.7400   19.5320 C   0  0  0  0  0  3  0  0  0  0  0  0
  -23.6640  -29.8660   20.1940 C   0  0  0  0  0  2  0  0  0  0  0  0
  -24.6980  -31.1250   22.1320 N   0  0  0  0  0  0  0  0  0  0  0  0
  -23.5390  -32.1900   23.7650 O   0  0  0  0  0  0  0  0  0  0  0  0
  -22.7800  -29.4970   22.5270 C   0  0  0  0  0  0  0  0  0  0  0  0
  -21.4510  -29.3270   22.4100 N   0  0  0  0  0  0  0  0  0  0  0  0
  -23.4630  -28.8560   23.3310 O   0  0  0  0  0  0  0  0  0  0  0  0
  -20.9550  -29.9080   21.7470 H   0  0  0  0  0  0  0  0  0  0  0  0
  -18.0710  -28.1480   22.9160 C   0  0  0  0  0  0  0  0  0  0  0  0
  -20.6340  -28.3830   23.1710 C   0  0  0  0  0  3  0  0  0  0  0  0
  -20.7180  -26.9580   22.5750 C   0  0  0  0  0  2  0  0  0  0  0  0
  -19.6070  -26.6570   21.5630 C   0  0  0  0  0  2  0  0  0  0  0  0
  -18.2320  -26.8060   22.2200 C   0  0  0  0  0  2  0  0  0  0  0  0
  -19.1980  -28.8940   23.3490 C   0  0  0  0  0  0  0  0  0  0  0  0
  -18.9940  -30.1510   23.9600 C   0  0  0  0  0  3  0  0  0  0  0  0
  -17.6940  -30.6630   24.1360 C   0  0  0  0  0  3  0  0  0  0  0  0
  -16.5810  -29.9110   23.7200 C   0  0  0  0  0  3  0  0  0  0  0  0
  -16.7710  -28.6530   23.1200 C   0  0  0  0  0  3  0  0  0  0  0  0
  -25.9030  -32.5610   23.8680 C   0  0  0  0  0  3  0  0  0  0  0  0
  -25.5870  -33.9580   24.1960 N   0  0  0  0  0  0  0  0  0  0  0  0
  -25.9240  -35.0100   23.4390 C   0  0  0  0  0  0  0  0  0  0  0  0
  -26.6030  -34.9090   22.4140 O   0  0  0  0  0  0  0  0  0  0  0  0
  -24.9910  -34.1120   24.9960 H   0  0  0  0  0  0  0  0  0  0  0  0
  -24.2050  -36.8040   23.0530 C   0  0  0  0  0  1  0  0  0  0  0  0
  -25.4290  -36.3980   23.8890 C   0  0  0  0  0  3  0  0  0  0  0  0
  -27.5490  -37.2800   24.7610 C   0  0  0  0  0  1  0  0  0  0  0  0
  -26.4640  -37.4500   23.7980 N   0  0  0  0  0  0  0  0  0  0  0  0
  -26.0560  -38.3690   23.9460 H   0  0  0  0  0  0  0  0  0  0  0  0
  -26.4120  -31.7940   25.1480 C   0  0  1  0  0  0  0  0  0  0  0  0
  -25.3140  -31.5530   26.2110 C   0  0  0  0  0  1  0  0  0  0  0  0
  -27.0050  -30.4190   24.7600 C   0  0  0  0  0  1  0  0  0  0  0  0
  -27.5510  -32.5950   25.8240 C   0  0  0  0  0  1  0  0  0  0  0  0
  1  5  1  0
  3  1  1  0
  3  6  1  0
  4  2  1  0
  5  7  1  6
  5 52  1  0
  5  2  1  0
  6 11  1  0
  6  4  1  0
  8 12  2  0
  8 11  1  0
  9 13  1  0
 10 13  2  0
 11  9  2  0
 12 10  1  0
 14 22  1  0
 15 20  1  0
 16 17  1  0
 16 15  1  0
 18 17  1  0
 18 27  1  0
 18 19  1  0
 20 14  1  0
 20 19  1  0
 21 14  2  0
 22 23  1  0
 22 12  1  0
 24 25  2  0
 25 44  1  0
 26 25  1  0
 26 29  1  0
 27 28  1  0
 27 24  1  0
 28 26  2  0
 29 30  1  0
 30 31  2  0
 32 35  1  0
 32 31  1  0
 33 32  2  0
 34 33  1  0
 34 29  2  0
 35 36  1  0
 36 37  1  0
 37 38  2  0
 39 38  1  0
 39 43  1  0
 40 39  2  0
 41 36  2  0
 41 40  1  0
 42 41  1  0
 44 45  1  0
 45 48  1  0
 45 47  1  0
 46 44  2  0
 49 50  1  0
 49 24  1  0
 51 49  1  0
 53 52  1  0
 54 65  2  0
 55 53  1  0
 55 60  1  0
 56 64  1  0
 56 66  1  0
 57 63  1  0
 57 59  1  0
 58 64  1  0
 59 60  2  0
 59 58  1  0
 61 55  2  0
 62 61  1  0
 62 57  2  0
 63 56  1  0
 64 54  1  0
 66 68  2  0
 67 66  1  0
 69 67  1  0
 70 79  2  0
 70 75  1  0
 71 67  1  0
 71 75  1  0
 72 71  1  0
 73 74  1  0
 73 72  1  0
 74 70  1  0
 75 76  2  0
 76 77  1  0
 78 77  2  0
 79 78  1  0
 80 54  1  0
 80 81  1  0
 80 90  1  0
 81 84  1  0
 82 86  1  0
 82 81  1  0
 83 82  2  0
 86 85  1  0
 88 86  1  0
 88 89  1  0
 88 87  1  0
 90 93  1  1
 90 91  1  0
 92 90  1  0
M  ISO  4  14 100  22 100  52 101  53 101
M  END
>  <TORSDO>  (75) 
F 18

>  <SCORE>  (75) 
-14.770

>  <name>  (75) 
74

>  <ligand_id>  (75) 
74

>  <original_smiles>  (75) 
[H]c1nc([H])c(N2C([H])([H])C([H])([H])C(F)(C([H])([H])Oc3c([H])c([H])c4c(c3[H])C([H])([H])N(C(=O)C([H])(N([H])C(=O)C([H])(N([H])C([H])([H])[H])C([H])([H])[H])C(C([H])([H])[H])(C([H])([H])[H])C([H])([H])[H])C([H])(C(=O)N([H])C3([H])c5c([H])c([H])c([H])c([H])c5C([H])([H])C([H])([H])C3([H])[H])C4([H])[H])C([H])([H])C2([H])[H])c([H])c1N([H])C(=O)N1C([H])([H])C([H])([H])C([H])([H])C([H])(n2nc(-c3c([H])c([H])c(Oc4c([H])c([H])c(F)c([H])c4F)c([H])c3[H])c(C(=O)N([H])[H])c2N([H])[H])C1([H])[H]

>  <smiles>  (75) 
[H]c1nc([H])c(N2C([H])([H])C([H])([H])C(F)(C([H])([H])Oc3c([H])c([H])c4c(c3[H])C([H])([H])N(C(=O)C([H])(N([H])C(=O)C([H])(N([H])C([H])([H])[H])C([H])([H])[H])C(C([H])([H])[H])(C([H])([H])[H])C([H])([H])[H])C([H])(C(=O)N([H])C3([H])c5c([H])c([H])c([H])c([H])c5C([H])([H])C([H])([H])C3([H])[H])C4([H])[H])C([H])([H])C2([H])[H])c([H])c1N([H])C(=O)N1C([H])([H])C([H])([H])C([H])([H])C([H])(n2nc(-c3c([H])c([H])c(Oc4c([H])c([H])c(F)c([H])c4F)c([H])c3[H])c(C(=O)N([H])[H])c2N([H])[H])C1([H])[H]

$$$$
75:0:0
     RDKit          3D

 95103  0  0  1  0  0  0  0  0999 V2000
  -29.9520  -21.3080   20.0540 C   0  0  0  0  0  0  0  0  0  0  0  0
  -29.2920  -23.8110   19.9940 C   0  0  0  0  0  0  0  0  0  0  0  0
  -30.4920  -24.3470   19.6860 N   0  0  0  0  0  4  0  0  0  0  0  0
  -31.2850  -21.5220   20.0610 N   0  0  0  0  0  4  0  0  0  0  0  0
  -29.0620  -22.4140   20.0790 N   0  0  0  0  0  0  0  0  0  0  0  0
  -30.5470  -25.3560   19.6810 H   0  0  0  0  0  0  0  0  0  0  0  0
  -31.1890  -23.8450   19.1610 H   0  0  0  0  0  0  0  0  0  0  0  0
  -31.9020  -20.7270   20.0360 H   0  0  0  0  0  0  0  0  0  0  0  0
  -31.6880  -22.3940   20.3680 H   0  0  0  0  0  0  0  0  0  0  0  0
  -28.0950  -22.1660   20.1860 H   0  0  0  0  0  0  0  0  0  0  0  0
  -30.3310  -18.6000   20.0410 C   0  0  0  0  0  3  0  0  0  0  0  0
  -28.2230  -17.6790   20.4100 C   0  0  0  0  0  3  0  0  0  0  0  0
  -29.5460  -17.3540   20.2320 C   0  0  0  0  0  0  0  0  0  0  0  0
  -29.5850  -19.8200   20.0970 C   0  0  0  0  0  0  0  0  0  0  0  0
  -27.9090  -19.4040   20.3750 S   0  0  0  0  0  0  0  0  0  0  0  0
  -30.7130  -14.8990   19.8210 C   0  0  0  0  0  0  0  0  0  0  0  0
  -30.6130  -12.5560   18.9010 C   0  0  0  0  0  2  0  0  0  0  0  0
  -29.5600  -12.5240   17.7670 C   0  0  0  0  0  2  0  0  0  0  0  0
  -28.1370  -12.3120   18.3260 C   0  0  0  0  0  2  0  0  0  0  0  0
  -27.8330  -13.2330   19.5360 C   0  0  0  0  0  3  0  0  0  0  0  0
  -28.9870  -13.1930   20.5640 C   0  0  0  0  0  2  0  0  0  0  0  0
  -30.2140  -13.6100   19.8630 N   0  0  0  0  0  0  0  0  0  0  0  0
  -31.8260  -15.1200   19.3280 O   0  0  0  0  0  0  0  0  0  0  0  0
  -29.8210  -15.8790   20.2440 N   0  0  0  0  0  0  0  0  0  0  0  0
  -29.0540  -15.3830   20.6700 H   0  0  0  0  0  0  0  0  0  0  0  0
  -25.5410  -13.8100   20.5390 C   0  0  0  0  0  0  0  0  0  0  0  0
  -24.5070  -13.0280   20.9750 C   0  0  0  0  0  0  0  0  0  0  0  0
  -24.9410  -11.6760   20.8190 C   0  0  0  0  0  0  0  0  0  0  0  0
  -26.5400  -12.9350   20.1430 N   0  0  0  0  0  0  0  0  0  0  0  0
  -26.1910  -11.6420   20.3720 N   0  0  0  0  0  0  0  0  0  0  0  0
  -24.2190  -10.4120   21.0130 C   0  0  0  0  0  0  0  0  0  0  0  0
  -24.6570   -9.4460   21.9460 C   0  0  0  0  0  3  0  0  0  0  0  0
  -23.9350   -8.2470   22.1270 C   0  0  0  0  0  3  0  0  0  0  0  0
  -22.7600   -8.0050   21.3750 C   0  0  0  0  0  0  0  0  0  0  0  0
  -22.3420   -8.9590   20.4310 C   0  0  0  0  0  3  0  0  0  0  0  0
  -23.0650  -10.1500   20.2480 C   0  0  0  0  0  3  0  0  0  0  0  0
  -22.0100   -6.8580   21.4650 O   0  0  0  0  0  0  0  0  0  0  0  0
  -21.8350   -6.2050   22.6590 C   0  0  0  0  0  0  0  0  0  0  0  0
  -21.2260   -6.8300   23.7680 C   0  0  0  0  0  3  0  0  0  0  0  0
  -21.0030   -6.1000   24.9530 C   0  0  0  0  0  3  0  0  0  0  0  0
  -21.3790   -4.7450   25.0280 C   0  0  0  0  0  0  0  0  0  0  0  0
  -21.9810   -4.1200   23.9220 C   0  0  0  0  0  3  0  0  0  0  0  0
  -22.2060   -4.8470   22.7400 C   0  0  0  0  0  0  0  0  0  0  0  0
  -22.7670   -4.2340   21.6700 F   0  0  0  0  0  0  0  0  0  0  0  0
  -21.1590   -4.0420   26.1630 F   0  0  0  0  0  0  0  0  0  0  0  0
  -23.1530  -13.5030   21.4200 C   0  0  0  0  0  0  0  0  0  0  0  0
  -22.5180  -12.7760   22.3320 N   0  0  0  0  0  0  0  0  0  0  0  0
  -22.6720  -14.5510   20.9920 O   0  0  0  0  0  0  0  0  0  0  0  0
  -22.9220  -11.9260   22.6980 H   0  0  0  0  0  0  0  0  0  0  0  0
  -21.6140  -13.0750   22.6710 H   0  0  0  0  0  0  0  0  0  0  0  0
  -25.7070  -15.1880   20.4220 N   0  0  0  0  0  0  0  0  0  0  0  0
  -24.9480  -15.8310   20.6220 H   0  0  0  0  0  0  0  0  0  0  0  0
  -26.4830  -15.6300   19.9490 H   0  0  0  0  0  0  0  0  0  0  0  0
  -28.1620  -24.9130   20.1940 C   0  0  0  0  0  2  0  0  0  0  0  0
  -28.4450  -26.4060   20.0240 O   0  0  0  0  0  0  0  0  0  0  0  0
  -24.6970  -31.8110   23.2260 C   0  0  0  0  0  0  0  0  0  0  0  0
  -27.3540  -27.3240   20.0140 C   0  0  0  0  0  0  0  0  0  0  0  0
  -23.5210  -30.4810   21.5140 C   0  0  0  0  0  3  0  0  0  0  0  0
  -24.9970  -28.9930   20.0390 C   0  0  0  0  0  0  0  0  0  0  0  0
  -26.0690  -30.7930   21.3830 C   0  0  0  0  0  2  0  0  0  0  0  0
  -26.1620  -29.4380   20.6770 C   0  0  0  0  0  0  0  0  0  0  0  0
  -27.3430  -28.6190   20.6510 C   0  0  0  0  0  3  0  0  0  0  0  0
  -26.1640  -26.9690   19.3380 C   0  0  0  0  0  3  0  0  0  0  0  0
  -25.0060  -27.7690   19.3580 C   0  0  0  0  0  3  0  0  0  0  0  0
  -23.7590  -29.8680   20.1090 C   0  0  0  0  0  2  0  0  0  0  0  0
  -24.7810  -31.0450   22.0970 N   0  0  0  0  0  0  0  0  0  0  0  0
  -23.6030  -32.0630   23.7550 O   0  0  0  0  0  0  0  0  0  0  0  0
  -22.8460  -29.4240   22.4210 C   0  0  0  0  0  0  0  0  0  0  0  0
  -21.5190  -29.2560   22.2780 N   0  0  0  0  0  0  0  0  0  0  0  0
  -23.5160  -28.7580   23.2150 O   0  0  0  0  0  0  0  0  0  0  0  0
  -21.0360  -29.8460   21.6140 H   0  0  0  0  0  0  0  0  0  0  0  0
  -18.1240  -28.1000   22.7720 C   0  0  0  0  0  0  0  0  0  0  0  0
  -20.6930  -28.2850   23.0010 C   0  0  0  0  0  3  0  0  0  0  0  0
  -20.7480  -26.8950   22.3250 C   0  0  0  0  0  2  0  0  0  0  0  0
  -19.6180  -26.6700   21.3150 C   0  0  0  0  0  2  0  0  0  0  0  0
  -18.2540  -26.7990   22.0000 C   0  0  0  0  0  2  0  0  0  0  0  0
  -19.2690  -28.8060   23.2280 C   0  0  0  0  0  0  0  0  0  0  0  0
  -19.0910  -30.0280   23.9140 C   0  0  0  0  0  3  0  0  0  0  0  0
  -17.8020  -30.5430   24.1460 C   0  0  0  0  0  3  0  0  0  0  0  0
  -16.6720  -29.8340   23.7040 C   0  0  0  0  0  3  0  0  0  0  0  0
  -16.8330  -28.6130   23.0230 C   0  0  0  0  0  3  0  0  0  0  0  0
  -25.9660  -32.4240   23.8910 C   0  0  0  0  0  3  0  0  0  0  0  0
  -25.6530  -33.8150   24.2500 N   0  0  0  0  0  0  0  0  0  0  0  0
  -25.9630  -34.8840   23.5050 C   0  0  0  0  0  0  0  0  0  0  0  0
  -26.6120  -34.8030   22.4580 O   0  0  0  0  0  0  0  0  0  0  0  0
  -25.0750  -33.9520   25.0660 H   0  0  0  0  0  0  0  0  0  0  0  0
  -24.2020  -36.6630   23.2410 C   0  0  0  0  0  1  0  0  0  0  0  0
  -25.4800  -36.2620   23.9970 C   0  0  0  0  0  3  0  0  0  0  0  0
  -27.6270  -37.1740   24.7670 C   0  0  0  0  0  1  0  0  0  0  0  0
  -26.4950  -37.3280   23.8560 N   0  0  0  0  0  0  0  0  0  0  0  0
  -26.0820  -38.2430   24.0160 H   0  0  0  0  0  0  0  0  0  0  0  0
  -26.4490  -31.6210   25.1610 C   0  0  1  0  0  0  0  0  0  0  0  0
  -25.3300  -31.3610   26.1960 C   0  0  0  0  0  1  0  0  0  0  0  0
  -27.0390  -30.2510   24.7520 C   0  0  0  0  0  1  0  0  0  0  0  0
  -27.5850  -32.3950   25.8690 C   0  0  0  0  0  1  0  0  0  0  0  0
  1  4  2  0
  1  5  1  0
  1 14  1  0
  2  5  1  0
  2 54  1  0
  3  2  2  0
  4  9  1  0
  5 10  1  0
  6  3  1  0
  7  3  1  0
  8  4  1  0
 11 14  2  0
 11 13  1  0
 13 24  1  0
 13 12  2  0
 14 15  1  0
 15 12  1  0
 16 22  1  0
 16 24  1  0
 17 22  1  0
 18 19  1  0
 18 17  1  0
 20 19  1  0
 20 29  1  0
 20 21  1  0
 22 21  1  0
 23 16  2  0
 24 25  1  0
 26 27  2  0
 27 46  1  0
 28 27  1  0
 28 31  1  0
 29 30  1  0
 29 26  1  0
 30 28  2  0
 31 32  1  0
 32 33  2  0
 34 37  1  0
 34 33  1  0
 35 34  2  0
 36 35  1  0
 36 31  2  0
 37 38  1  0
 38 43  2  0
 38 39  1  0
 39 40  2  0
 40 41  1  0
 41 45  1  0
 42 41  2  0
 43 42  1  0
 44 43  1  0
 46 47  1  0
 47 50  1  0
 47 49  1  0
 48 46  2  0
 51 26  1  0
 51 52  1  0
 53 51  1  0
 55 54  1  0
 56 67  2  0
 57 55  1  0
 57 62  1  0
 58 66  1  0
 58 68  1  0
 59 65  1  0
 59 61  1  0
 60 66  1  0
 61 60  1  0
 62 61  2  0
 63 64  1  0
 63 57  2  0
 64 59  2  0
 65 58  1  0
 66 56  1  0
 68 70  2  0
 69 68  1  0
 71 69  1  0
 72 81  2  0
 72 77  1  0
 73 69  1  0
 73 77  1  0
 74 73  1  0
 75 76  1  0
 75 74  1  0
 76 72  1  0
 77 78  2  0
 78 79  1  0
 80 79  2  0
 81 80  1  0
 82 56  1  0
 82 83  1  0
 82 92  1  0
 83 86  1  0
 84 88  1  0
 84 83  1  0
 85 84  2  0
 88 87  1  0
 90 88  1  0
 90 91  1  0
 90 89  1  0
 92 95  1  1
 92 93  1  0
 94 92  1  0
M  ISO  4  16 100  24 100  54 101  55 101
M  END
>  <TORSDO>  (76) 
F 18

>  <SCORE>  (76) 
-13.909

>  <name>  (76) 
75

>  <ligand_id>  (76) 
75

>  <original_smiles>  (76) 
[H]c1sc(C(N([H])C(=[N+]([H])[H])C([H])([H])Oc2c([H])c([H])c3c(c2[H])C([H])([H])N(C(=O)C([H])(N([H])C(=O)C([H])(N([H])C([H])([H])[H])C([H])([H])[H])C(C([H])([H])[H])(C([H])([H])[H])C([H])([H])[H])C([H])(C(=O)N([H])C2([H])c4c([H])c([H])c([H])c([H])c4C([H])([H])C([H])([H])C2([H])[H])C3([H])[H])=[N+]([H])[H])c([H])c1N([H])C(=O)N1C([H])([H])C([H])([H])C([H])([H])C([H])(n2nc(-c3c([H])c([H])c(Oc4c([H])c([H])c(F)c([H])c4F)c([H])c3[H])c(C(=O)N([H])[H])c2N([H])[H])C1([H])[H]

>  <smiles>  (76) 
[H]c1sc(C(N([H])C(=[N+]([H])[H])C([H])([H])Oc2c([H])c([H])c3c(c2[H])C([H])([H])N(C(=O)C([H])(N([H])C(=O)C([H])(N([H])C([H])([H])[H])C([H])([H])[H])C(C([H])([H])[H])(C([H])([H])[H])C([H])([H])[H])C([H])(C(=O)N([H])C2([H])c4c([H])c([H])c([H])c([H])c4C([H])([H])C([H])([H])C2([H])[H])C3([H])[H])=[N+]([H])[H])c([H])c1N([H])C(=O)N1C([H])([H])C([H])([H])C([H])([H])C([H])(n2nc(-c3c([H])c([H])c(Oc4c([H])c([H])c(F)c([H])c4F)c([H])c3[H])c(C(=O)N([H])[H])c2N([H])[H])C1([H])[H]

$$$$
76:0:0
     RDKit          3D

 95104  0  0  1  0  0  0  0  0999 V2000
  -31.8340  -18.1180   20.8810 C   0  0  0  0  0  3  0  0  0  0  0  0
  -30.5940  -17.9040   20.3250 C   0  0  0  0  0  0  0  0  0  0  0  0
  -30.6450  -20.3360   20.5480 C   0  0  0  0  0  0  0  0  0  0  0  0
  -29.2040  -22.5880   20.2190 C   0  0  0  0  0  0  0  0  0  0  0  0
  -29.9730  -19.2200   20.1210 N   0  0  0  0  0  0  0  0  0  0  0  0
  -30.2860  -21.7890   20.5630 N   0  0  0  0  0  0  0  0  0  0  0  0
  -28.2090  -22.0950   19.6850 O   0  0  0  0  0  0  0  0  0  0  0  0
  -32.2070  -19.8190   21.1880 S   0  0  0  0  0  0  0  0  0  0  0  0
  -31.0500  -22.3440   20.9100 H   0  0  0  0  0  0  0  0  0  0  0  0
  -27.9240  -17.3100   18.6260 C   0  0  0  0  0  2  0  0  0  0  0  0
  -27.5790  -17.4560   20.1190 C   0  0  0  0  0  2  0  0  0  0  0  0
  -29.3300  -16.6750   18.5480 C   0  0  0  0  0  2  0  0  0  0  0  0
  -28.5650  -16.5280   20.8470 C   0  0  0  0  0  2  0  0  0  0  0  0
  -29.8640  -16.4920   19.9960 C   0  0  2  0  0  0  0  0  0  0  0  0
  -30.6810  -15.0230   20.0430 C   0  0  0  0  0  0  0  0  0  0  0  0
  -30.5590  -12.6640   19.1520 C   0  0  0  0  0  2  0  0  0  0  0  0
  -29.5740  -12.6100   17.9580 C   0  0  0  0  0  2  0  0  0  0  0  0
  -28.1150  -12.4220   18.4340 C   0  0  0  0  0  2  0  0  0  0  0  0
  -27.7520  -13.3240   19.6440 C   0  0  0  0  0  3  0  0  0  0  0  0
  -28.8680  -13.2620   20.7120 C   0  0  0  0  0  2  0  0  0  0  0  0
  -30.1100  -13.7420   20.0780 N   0  0  0  0  0  0  0  0  0  0  0  0
  -31.8880  -15.0520   19.7770 O   0  0  0  0  0  0  0  0  0  0  0  0
  -25.3790  -13.9000   20.4350 C   0  0  0  0  0  0  0  0  0  0  0  0
  -24.3250  -13.1380   20.8360 C   0  0  0  0  0  0  0  0  0  0  0  0
  -24.7870  -11.7900   20.7790 C   0  0  0  0  0  0  0  0  0  0  0  0
  -26.4250  -13.0310   20.1750 N   0  0  0  0  0  0  0  0  0  0  0  0
  -26.0710  -11.7480   20.4350 N   0  0  0  0  0  0  0  0  0  0  0  0
  -24.0590  -10.5370   20.9730 C   0  0  0  0  0  0  0  0  0  0  0  0
  -24.5030   -9.5640   21.8940 C   0  0  0  0  0  3  0  0  0  0  0  0
  -23.7730   -8.3720   22.0770 C   0  0  0  0  0  3  0  0  0  0  0  0
  -22.5870   -8.1480   21.3390 C   0  0  0  0  0  0  0  0  0  0  0  0
  -22.1620   -9.1100   20.4060 C   0  0  0  0  0  3  0  0  0  0  0  0
  -22.8930  -10.2930   20.2200 C   0  0  0  0  0  3  0  0  0  0  0  0
  -21.8290   -7.0070   21.4300 O   0  0  0  0  0  0  0  0  0  0  0  0
  -21.7700   -6.2760   22.5890 C   0  0  0  0  0  0  0  0  0  0  0  0
  -21.3110   -6.8360   23.8010 C   0  0  0  0  0  3  0  0  0  0  0  0
  -21.2060   -6.0300   24.9530 C   0  0  0  0  0  3  0  0  0  0  0  0
  -21.5470   -4.6670   24.8930 C   0  0  0  0  0  0  0  0  0  0  0  0
  -22.0000   -4.1060   23.6850 C   0  0  0  0  0  3  0  0  0  0  0  0
  -22.1090   -4.9080   22.5360 C   0  0  0  0  0  0  0  0  0  0  0  0
  -22.5270   -4.3610   21.3700 F   0  0  0  0  0  0  0  0  0  0  0  0
  -21.4380   -3.8900   25.9950 F   0  0  0  0  0  0  0  0  0  0  0  0
  -22.9410  -13.6290   21.1520 C   0  0  0  0  0  0  0  0  0  0  0  0
  -22.2360  -12.9430   22.0430 N   0  0  0  0  0  0  0  0  0  0  0  0
  -22.4980  -14.6620   20.6490 O   0  0  0  0  0  0  0  0  0  0  0  0
  -22.6100  -12.1120   22.4790 H   0  0  0  0  0  0  0  0  0  0  0  0
  -21.3060  -13.2520   22.2930 H   0  0  0  0  0  0  0  0  0  0  0  0
  -25.5010  -15.2600   20.2430 N   0  0  0  0  0  0  0  0  0  0  0  0
  -24.7180  -15.8860   20.3860 H   0  0  0  0  0  0  0  0  0  0  0  0
  -26.3490  -15.7290   19.9530 H   0  0  0  0  0  0  0  0  0  0  0  0
  -28.3830  -25.0460   20.1270 C   0  0  0  0  0  3  0  0  0  0  0  0
  -29.3180  -24.0860   20.5180 C   0  0  0  0  0  0  0  0  0  0  0  0
  -30.3760  -24.5100   21.2270 O   0  0  0  0  0  0  0  0  0  0  0  0
  -30.7050  -23.7760   21.7310 H   0  0  0  0  0  0  0  0  0  0  0  0
  -28.4230  -26.4700   20.3430 O   0  0  0  0  0  0  0  0  0  0  0  0
  -24.6110  -31.9190   23.3320 C   0  0  0  0  0  0  0  0  0  0  0  0
  -27.2860  -27.3270   20.2850 C   0  0  0  0  0  0  0  0  0  0  0  0
  -23.4320  -30.5240   21.6730 C   0  0  0  0  0  3  0  0  0  0  0  0
  -24.9080  -28.9740   20.2540 C   0  0  0  0  0  0  0  0  0  0  0  0
  -25.9770  -30.8310   21.5280 C   0  0  0  0  0  2  0  0  0  0  0  0
  -26.0700  -29.4490   20.8760 C   0  0  0  0  0  0  0  0  0  0  0  0
  -27.2510  -28.6350   20.8890 C   0  0  0  0  0  3  0  0  0  0  0  0
  -26.0990  -26.9320   19.6210 C   0  0  0  0  0  3  0  0  0  0  0  0
  -24.9290  -27.7230   19.6180 C   0  0  0  0  0  3  0  0  0  0  0  0
  -23.6690  -29.8520   20.2930 C   0  0  0  0  0  2  0  0  0  0  0  0
  -24.6920  -31.1080   22.2350 N   0  0  0  0  0  0  0  0  0  0  0  0
  -23.5190  -32.1950   23.8520 O   0  0  0  0  0  0  0  0  0  0  0  0
  -22.7560  -29.5060   22.6210 C   0  0  0  0  0  0  0  0  0  0  0  0
  -21.4330  -29.3230   22.4720 N   0  0  0  0  0  0  0  0  0  0  0  0
  -23.4210  -28.8830   23.4520 O   0  0  0  0  0  0  0  0  0  0  0  0
  -20.9560  -29.8720   21.7690 H   0  0  0  0  0  0  0  0  0  0  0  0
  -18.0480  -28.1250   22.9350 C   0  0  0  0  0  0  0  0  0  0  0  0
  -20.6050  -28.3790   23.2260 C   0  0  0  0  0  3  0  0  0  0  0  0
  -20.7100  -26.9540   22.6330 C   0  0  0  0  0  2  0  0  0  0  0  0
  -19.6140  -26.6450   21.6070 C   0  0  0  0  0  2  0  0  0  0  0  0
  -18.2270  -26.7840   22.2430 C   0  0  0  0  0  2  0  0  0  0  0  0
  -19.1640  -28.8810   23.3810 C   0  0  0  0  0  0  0  0  0  0  0  0
  -18.9430  -30.1360   23.9870 C   0  0  0  0  0  3  0  0  0  0  0  0
  -17.6360  -30.6360   24.1500 C   0  0  0  0  0  3  0  0  0  0  0  0
  -16.5340  -29.8760   23.7210 C   0  0  0  0  0  3  0  0  0  0  0  0
  -16.7410  -28.6220   23.1190 C   0  0  0  0  0  3  0  0  0  0  0  0
  -25.8820  -32.5520   23.9750 C   0  0  0  0  0  3  0  0  0  0  0  0
  -26.3610  -31.7950   25.2760 C   0  0  1  0  0  0  0  0  0  0  0  0
  -25.2390  -31.5760   26.3190 C   0  0  0  0  0  1  0  0  0  0  0  0
  -26.9450  -30.4090   24.9190 C   0  0  0  0  0  1  0  0  0  0  0  0
  -27.5020  -32.5910   25.9520 C   0  0  0  0  0  1  0  0  0  0  0  0
  -25.5770  -33.9590   24.2800 N   0  0  0  0  0  0  0  0  0  0  0  0
  -25.9120  -34.9960   23.5000 C   0  0  0  0  0  0  0  0  0  0  0  0
  -26.5780  -34.8700   22.4690 O   0  0  0  0  0  0  0  0  0  0  0  0
  -24.9860  -34.1300   25.0790 H   0  0  0  0  0  0  0  0  0  0  0  0
  -24.1830  -36.7840   23.1230 C   0  0  0  0  0  1  0  0  0  0  0  0
  -25.4320  -36.3970   23.9320 C   0  0  0  0  0  3  0  0  0  0  0  0
  -27.5710  -37.2990   24.7290 C   0  0  0  0  0  1  0  0  0  0  0  0
  -26.4660  -37.4440   23.7830 N   0  0  0  0  0  0  0  0  0  0  0  0
  -26.0650  -38.3700   23.9050 H   0  0  0  0  0  0  0  0  0  0  0  0
  1  8  1  0
  2  1  2  0
  3  6  1  0
  3  8  1  0
  4 52  1  0
  4  6  1  0
  5  2  1  0
  5  3  2  0
  6  9  1  0
  7  4  2  0
 10 11  1  0
 11 13  1  0
 12 10  1  0
 12 14  1  0
 14 15  1  6
 14  2  1  0
 14 13  1  0
 15 21  1  0
 16 21  1  0
 17 18  1  0
 17 16  1  0
 19 18  1  0
 19 26  1  0
 19 20  1  0
 21 20  1  0
 22 15  2  0
 23 24  2  0
 24 43  1  0
 25 24  1  0
 25 28  1  0
 26 27  1  0
 26 23  1  0
 27 25  2  0
 28 29  1  0
 29 30  2  0
 31 34  1  0
 31 30  1  0
 32 31  2  0
 33 32  1  0
 33 28  2  0
 34 35  1  0
 35 36  1  0
 36 37  2  0
 38 37  1  0
 38 42  1  0
 39 38  2  0
 40 35  2  0
 40 39  1  0
 41 40  1  0
 43 44  1  0
 44 47  1  0
 44 46  1  0
 45 43  2  0
 48 49  1  0
 48 23  1  0
 50 48  1  0
 51 55  1  0
 51 52  2  0
 52 53  1  0
 53 54  1  0
 56 67  2  0
 57 55  1  0
 57 62  1  0
 58 66  1  0
 58 68  1  0
 59 65  1  0
 59 61  1  0
 60 66  1  0
 61 62  2  0
 61 60  1  0
 63 57  2  0
 64 63  1  0
 64 59  2  0
 65 58  1  0
 66 56  1  0
 68 70  2  0
 69 68  1  0
 71 69  1  0
 72 81  2  0
 72 77  1  0
 73 69  1  0
 73 77  1  0
 74 73  1  0
 75 76  1  0
 75 74  1  0
 76 72  1  0
 77 78  2  0
 78 79  1  0
 80 79  2  0
 81 80  1  0
 82 56  1  0
 82 87  1  0
 82 83  1  0
 83 86  1  1
 83 84  1  0
 85 83  1  0
 87 90  1  0
 88 92  1  0
 88 87  1  0
 89 88  2  0
 92 91  1  0
 94 95  1  0
 94 92  1  0
 94 93  1  0
M  ISO  4  14 100  15 100  51 101  55 101
M  END
>  <TORSDO>  (77) 
F 19

>  <SCORE>  (77) 
-14.588

>  <name>  (77) 
76

>  <ligand_id>  (77) 
76

>  <original_smiles>  (77) 
[H]OC(C(=O)N([H])c1nc(C2(C(=O)N3C([H])([H])C([H])([H])C([H])([H])C([H])(n4nc(-c5c([H])c([H])c(Oc6c([H])c([H])c(F)c([H])c6F)c([H])c5[H])c(C(=O)N([H])[H])c4N([H])[H])C3([H])[H])C([H])([H])C([H])([H])C([H])([H])C2([H])[H])c([H])s1)=C([H])Oc1c([H])c([H])c2c(c1[H])C([H])([H])N(C(=O)C([H])(N([H])C(=O)C([H])(N([H])C([H])([H])[H])C([H])([H])[H])C(C([H])([H])[H])(C([H])([H])[H])C([H])([H])[H])C([H])(C(=O)N([H])C1([H])c3c([H])c([H])c([H])c([H])c3C([H])([H])C([H])([H])C1([H])[H])C2([H])[H]

>  <smiles>  (77) 
[H]OC(C(=O)N([H])c1nc(C2(C(=O)N3C([H])([H])C([H])([H])C([H])([H])C([H])(n4nc(-c5c([H])c([H])c(Oc6c([H])c([H])c(F)c([H])c6F)c([H])c5[H])c(C(=O)N([H])[H])c4N([H])[H])C3([H])[H])C([H])([H])C([H])([H])C([H])([H])C2([H])[H])c([H])s1)=C([H])Oc1c([H])c([H])c2c(c1[H])C([H])([H])N(C(=O)C([H])(N([H])C(=O)C([H])(N([H])C([H])([H])[H])C([H])([H])[H])C(C([H])([H])[H])(C([H])([H])[H])C([H])([H])[H])C([H])(C(=O)N([H])C1([H])c3c([H])c([H])c([H])c([H])c3C([H])([H])C([H])([H])C1([H])[H])C2([H])[H]

$$$$
77:0:0
     RDKit          3D

 95104  0  0  1  0  0  0  0  0999 V2000
  -32.5630  -21.8250   19.9860 C   0  0  0  0  0  2  0  0  0  0  0  0
  -32.1470  -20.4240   20.3980 C   0  0  0  0  0  2  0  0  0  0  0  0
  -31.3510  -22.2910   19.1880 C   0  0  0  0  0  2  0  0  0  0  0  0
  -30.6320  -20.5360   20.6630 C   0  0  0  0  0  3  0  0  0  0  0  0
  -30.1510  -21.7510   19.8840 N   0  0  1  0  0  4  0  0  0  0  0  0
  -29.5130  -21.4480   19.1640 H   0  0  0  0  0  0  0  0  0  0  0  0
  -27.7640  -18.0180   20.1170 C   0  0  0  0  0  3  0  0  0  0  0  0
  -28.5120  -19.2070   20.1630 C   0  0  0  0  0  3  0  0  0  0  0  0
  -28.3780  -16.7810   20.3740 C   0  0  0  0  0  3  0  0  0  0  0  0
  -30.5150  -17.8950   20.6700 C   0  0  0  0  0  3  0  0  0  0  0  0
  -29.8920  -19.1790   20.4560 C   0  0  0  0  0  0  0  0  0  0  0  0
  -29.7570  -16.6810   20.6280 C   0  0  0  0  0  0  0  0  0  0  0  0
  -30.7770  -14.4180   20.2010 C   0  0  0  0  0  0  0  0  0  0  0  0
  -30.4550  -12.1910   19.1430 C   0  0  0  0  0  2  0  0  0  0  0  0
  -29.4820  -12.3210   17.9510 C   0  0  0  0  0  2  0  0  0  0  0  0
  -28.0180  -12.2070   18.4170 C   0  0  0  0  0  2  0  0  0  0  0  0
  -27.7110  -13.1140   19.6380 C   0  0  0  0  0  3  0  0  0  0  0  0
  -28.7890  -12.9410   20.7350 C   0  0  0  0  0  2  0  0  0  0  0  0
  -30.1100  -13.2230   20.1400 N   0  0  0  0  0  0  0  0  0  0  0  0
  -31.8310  -14.6180   19.5900 O   0  0  0  0  0  0  0  0  0  0  0  0
  -30.2210  -15.3640   20.9950 N   0  0  0  0  0  0  0  0  0  0  0  0
  -29.5700  -14.9050   21.6130 H   0  0  0  0  0  0  0  0  0  0  0  0
  -25.3470  -13.7910   20.4140 C   0  0  0  0  0  0  0  0  0  0  0  0
  -24.2720  -13.0540   20.8280 C   0  0  0  0  0  0  0  0  0  0  0  0
  -24.6890  -11.6890   20.7760 C   0  0  0  0  0  0  0  0  0  0  0  0
  -26.3620  -12.8810   20.1550 N   0  0  0  0  0  0  0  0  0  0  0  0
  -25.9680  -11.6100   20.4260 N   0  0  0  0  0  0  0  0  0  0  0  0
  -23.9250  -10.4520   20.9810 C   0  0  0  0  0  0  0  0  0  0  0  0
  -24.3430   -9.4710   21.9070 C   0  0  0  0  0  3  0  0  0  0  0  0
  -23.5790   -8.3000   22.1000 C   0  0  0  0  0  3  0  0  0  0  0  0
  -22.3860   -8.1010   21.3660 C   0  0  0  0  0  0  0  0  0  0  0  0
  -21.9860   -9.0710   20.4300 C   0  0  0  0  0  3  0  0  0  0  0  0
  -22.7500  -10.2340   20.2350 C   0  0  0  0  0  3  0  0  0  0  0  0
  -21.5950   -6.9820   21.4700 O   0  0  0  0  0  0  0  0  0  0  0  0
  -21.5390   -6.2460   22.6260 C   0  0  0  0  0  0  0  0  0  0  0  0
  -21.1430   -6.8160   23.8540 C   0  0  0  0  0  3  0  0  0  0  0  0
  -21.0310   -6.0080   25.0030 C   0  0  0  0  0  3  0  0  0  0  0  0
  -21.3050   -4.6290   24.9240 C   0  0  0  0  0  0  0  0  0  0  0  0
  -21.6950   -4.0580   23.7000 C   0  0  0  0  0  3  0  0  0  0  0  0
  -21.8080   -4.8640   22.5530 C   0  0  0  0  0  0  0  0  0  0  0  0
  -22.1630   -4.3040   21.3710 F   0  0  0  0  0  0  0  0  0  0  0  0
  -21.1910   -3.8510   26.0250 F   0  0  0  0  0  0  0  0  0  0  0  0
  -22.9030  -13.5780   21.1510 C   0  0  0  0  0  0  0  0  0  0  0  0
  -22.1850  -12.9090   22.0450 N   0  0  0  0  0  0  0  0  0  0  0  0
  -22.4820  -14.6190   20.6460 O   0  0  0  0  0  0  0  0  0  0  0  0
  -22.5400  -12.0690   22.4770 H   0  0  0  0  0  0  0  0  0  0  0  0
  -21.2680  -13.2440   22.3040 H   0  0  0  0  0  0  0  0  0  0  0  0
  -25.5230  -15.1530   20.2100 N   0  0  0  0  0  0  0  0  0  0  0  0
  -24.7490  -15.8010   20.3100 H   0  0  0  0  0  0  0  0  0  0  0  0
  -26.3160  -15.5570   19.7290 H   0  0  0  0  0  0  0  0  0  0  0  0
  -29.4280  -22.7990   20.7070 C   0  0  0  0  0  2  0  0  0  0  0  0
  -28.8450  -24.0060   19.8900 C   0  0  0  0  0  0  0  0  0  0  0  0
  -28.8060  -23.9790   18.6540 O   0  0  0  0  0  0  0  0  0  0  0  0
  -28.2590  -25.2230   20.6770 C   0  0  0  0  0  2  0  0  0  0  0  0
  -28.3440  -26.5030   19.9800 O   0  0  0  0  0  0  0  0  0  0  0  0
  -24.5580  -31.7280   23.1300 C   0  0  0  0  0  0  0  0  0  0  0  0
  -27.1980  -27.2860   20.0040 C   0  0  0  0  0  0  0  0  0  0  0  0
  -23.3570  -30.3600   21.4580 C   0  0  0  0  0  3  0  0  0  0  0  0
  -24.8140  -28.8330   20.0170 C   0  0  0  0  0  0  0  0  0  0  0  0
  -25.8890  -30.7010   21.2810 C   0  0  0  0  0  2  0  0  0  0  0  0
  -25.9750  -29.3360   20.6190 C   0  0  0  0  0  0  0  0  0  0  0  0
  -27.1730  -28.5750   20.6000 C   0  0  0  0  0  3  0  0  0  0  0  0
  -26.0190  -26.8070   19.3940 C   0  0  0  0  0  3  0  0  0  0  0  0
  -24.8340  -27.5700   19.3990 C   0  0  0  0  0  3  0  0  0  0  0  0
  -23.5740  -29.7000   20.0700 C   0  0  0  0  0  2  0  0  0  0  0  0
  -24.6190  -30.9440   22.0150 N   0  0  0  0  0  0  0  0  0  0  0  0
  -23.4740  -31.9960   23.6680 O   0  0  0  0  0  0  0  0  0  0  0  0
  -22.6920  -29.3270   22.3990 C   0  0  0  0  0  0  0  0  0  0  0  0
  -21.3640  -29.1660   22.2720 N   0  0  0  0  0  0  0  0  0  0  0  0
  -23.3690  -28.6770   23.1990 O   0  0  0  0  0  0  0  0  0  0  0  0
  -20.8800  -29.7430   21.5970 H   0  0  0  0  0  0  0  0  0  0  0  0
  -17.9750  -28.0090   22.7620 C   0  0  0  0  0  0  0  0  0  0  0  0
  -20.5380  -28.2210   23.0210 C   0  0  0  0  0  3  0  0  0  0  0  0
  -20.6140  -26.8040   22.4050 C   0  0  0  0  0  2  0  0  0  0  0  0
  -19.5010  -26.5270   21.3910 C   0  0  0  0  0  2  0  0  0  0  0  0
  -18.1260  -26.6760   22.0490 C   0  0  0  0  0  2  0  0  0  0  0  0
  -19.1080  -28.7410   23.2040 C   0  0  0  0  0  0  0  0  0  0  0  0
  -18.9130  -29.9920   23.8310 C   0  0  0  0  0  3  0  0  0  0  0  0
  -17.6180  -30.5090   24.0190 C   0  0  0  0  0  3  0  0  0  0  0  0
  -16.4990  -29.7730   23.5930 C   0  0  0  0  0  3  0  0  0  0  0  0
  -16.6780  -28.5240   22.9700 C   0  0  0  0  0  3  0  0  0  0  0  0
  -25.8420  -32.3440   23.7690 C   0  0  0  0  0  3  0  0  0  0  0  0
  -26.3500  -31.5480   25.0330 C   0  0  1  0  0  0  0  0  0  0  0  0
  -25.2530  -31.2990   26.0940 C   0  0  0  0  0  1  0  0  0  0  0  0
  -26.9250  -30.1740   24.6170 C   0  0  0  0  0  1  0  0  0  0  0  0
  -27.5040  -32.3230   25.7110 C   0  0  0  0  0  1  0  0  0  0  0  0
  -25.5370  -33.7380   24.1210 N   0  0  0  0  0  0  0  0  0  0  0  0
  -25.8810  -34.8020   23.3830 C   0  0  0  0  0  0  0  0  0  0  0  0
  -26.5580  -34.7120   22.3560 O   0  0  0  0  0  0  0  0  0  0  0  0
  -24.9370  -33.8810   24.9210 H   0  0  0  0  0  0  0  0  0  0  0  0
  -24.1660  -36.6100   23.0450 C   0  0  0  0  0  1  0  0  0  0  0  0
  -25.3970  -36.1840   23.8610 C   0  0  0  0  0  3  0  0  0  0  0  0
  -27.5270  -37.0430   24.7290 C   0  0  0  0  0  1  0  0  0  0  0  0
  -26.4370  -37.2320   23.7760 N   0  0  0  0  0  0  0  0  0  0  0  0
  -26.0350  -38.1530   23.9330 H   0  0  0  0  0  0  0  0  0  0  0  0
  1  2  1  0
  2  4  1  0
  3  5  1  0
  3  1  1  0
  4 11  1  0
  5  4  1  0
  5 51  1  0
  5  6  1  6
  7  8  2  0
  7  9  1  0
  8 11  1  0
  9 12  2  0
 11 10  2  0
 12 10  1  0
 12 21  1  0
 13 21  1  0
 14 19  1  0
 15 16  1  0
 15 14  1  0
 17 16  1  0
 17 26  1  0
 17 18  1  0
 19 13  1  0
 19 18  1  0
 20 13  2  0
 21 22  1  0
 23 24  2  0
 24 43  1  0
 25 24  1  0
 25 28  1  0
 26 23  1  0
 26 27  1  0
 27 25  2  0
 28 29  1  0
 29 30  2  0
 31 34  1  0
 31 30  1  0
 32 31  2  0
 33 32  1  0
 33 28  2  0
 34 35  1  0
 35 36  1  0
 36 37  2  0
 38 37  1  0
 38 42  1  0
 39 38  2  0
 40 35  2  0
 40 39  1  0
 41 40  1  0
 43 44  1  0
 44 47  1  0
 44 46  1  0
 45 43  2  0
 48 49  1  0
 48 23  1  0
 50 48  1  0
 52 54  1  0
 52 51  1  0
 53 52  2  0
 55 57  1  0
 55 54  1  0
 56 67  2  0
 57 62  1  0
 58 66  1  0
 58 68  1  0
 59 65  1  0
 59 61  1  0
 60 66  1  0
 61 60  1  0
 62 61  2  0
 63 64  1  0
 63 57  2  0
 64 59  2  0
 65 58  1  0
 66 56  1  0
 68 70  2  0
 69 68  1  0
 71 69  1  0
 72 81  2  0
 72 77  1  0
 73 69  1  0
 73 77  1  0
 74 73  1  0
 75 76  1  0
 75 74  1  0
 76 72  1  0
 77 78  2  0
 78 79  1  0
 80 79  2  0
 81 80  1  0
 82 56  1  0
 82 87  1  0
 82 83  1  0
 83 86  1  1
 83 84  1  0
 85 83  1  0
 87 90  1  0
 88 92  1  0
 88 87  1  0
 89 88  2  0
 92 91  1  0
 94 92  1  0
 94 95  1  0
 94 93  1  0
M  ISO  4  13 100  21 100  54 101  55 101
M  END
>  <TORSDO>  (78) 
F 20

>  <SCORE>  (78) 
-14.092

>  <name>  (78) 
77

>  <ligand_id>  (78) 
77

>  <original_smiles>  (78) 
[H]c1c([H])c([H])c2c(c1[H])C([H])([H])C([H])([H])C([H])([H])C2([H])N([H])C(=O)C1([H])N(C(=O)C([H])(N([H])C(=O)C([H])(N([H])C([H])([H])[H])C([H])([H])[H])C(C([H])([H])[H])(C([H])([H])[H])C([H])([H])[H])C([H])([H])c2c([H])c(OC([H])([H])C(=O)C([H])([H])[N+]3([H])C([H])([H])C([H])([H])C([H])([H])C3([H])c3c([H])c([H])c([H])c(N([H])C(=O)N4C([H])([H])C([H])([H])C([H])([H])C([H])(n5nc(-c6c([H])c([H])c(Oc7c([H])c([H])c(F)c([H])c7F)c([H])c6[H])c(C(=O)N([H])[H])c5N([H])[H])C4([H])[H])c3[H])c([H])c([H])c2C1([H])[H]

>  <smiles>  (78) 
[H]c1c([H])c([H])c2c(c1[H])C([H])([H])C([H])([H])C([H])([H])C2([H])N([H])C(=O)C1([H])N(C(=O)C([H])(N([H])C(=O)C([H])(N([H])C([H])([H])[H])C([H])([H])[H])C(C([H])([H])[H])(C([H])([H])[H])C([H])([H])[H])C([H])([H])c2c([H])c(OC([H])([H])C(=O)C([H])([H])[N+]3([H])C([H])([H])C([H])([H])C([H])([H])C3([H])c3c([H])c([H])c([H])c(N([H])C(=O)N4C([H])([H])C([H])([H])C([H])([H])C([H])(n5nc(-c6c([H])c([H])c(Oc7c([H])c([H])c(F)c([H])c7F)c([H])c6[H])c(C(=O)N([H])[H])c5N([H])[H])C4([H])[H])c3[H])c([H])c([H])c2C1([H])[H]

$$$$
78:0:0
     RDKit          3D

 96105  0  0  1  0  0  0  0  0999 V2000
  -32.0520  -19.0280   21.0990 C   0  0  0  0  0  3  0  0  0  0  0  0
  -31.6620  -17.6790   20.9760 C   0  0  0  0  0  3  0  0  0  0  0  0
  -29.4590  -18.4240   20.2910 C   0  0  0  0  0  3  0  0  0  0  0  0
  -31.1660  -20.0920   20.8230 C   0  0  0  0  0  0  0  0  0  0  0  0
  -29.8440  -19.8210   20.3990 C   0  0  0  0  0  0  0  0  0  0  0  0
  -30.3570  -17.3170   20.5690 C   0  0  0  0  0  0  0  0  0  0  0  0
  -31.6640  -21.5140   21.0620 C   0  0  0  0  0  2  0  0  0  0  0  0
  -28.8870  -21.0440   20.0930 C   0  0  0  0  0  2  0  0  0  0  0  0
  -30.7810  -22.6520   20.5070 C   0  0  0  0  0  2  0  0  0  0  0  0
  -29.2530  -22.4940   20.7010 C   0  0  2  0  0  0  0  0  0  0  0  0
  -30.7140  -14.7540   20.2420 C   0  0  0  0  0  0  0  0  0  0  0  0
  -30.4570  -12.5050   19.1960 C   0  0  0  0  0  2  0  0  0  0  0  0
  -29.5110  -12.6090   17.9810 C   0  0  0  0  0  2  0  0  0  0  0  0
  -28.0430  -12.4520   18.4230 C   0  0  0  0  0  2  0  0  0  0  0  0
  -27.6920  -13.3310   19.6540 C   0  0  0  0  0  3  0  0  0  0  0  0
  -28.7590  -13.2190   20.7660 C   0  0  0  0  0  2  0  0  0  0  0  0
  -30.0560  -13.5510   20.1630 N   0  0  0  0  0  0  0  0  0  0  0  0
  -31.8930  -14.8280   19.8840 O   0  0  0  0  0  0  0  0  0  0  0  0
  -29.9650  -15.8910   20.5030 N   0  0  0  0  0  0  0  0  0  0  0  0
  -28.9840  -15.7070   20.6410 H   0  0  0  0  0  0  0  0  0  0  0  0
  -25.3040  -13.9320   20.3780 C   0  0  0  0  0  0  0  0  0  0  0  0
  -24.2410  -13.1620   20.7620 C   0  0  0  0  0  0  0  0  0  0  0  0
  -24.7040  -11.8110   20.7490 C   0  0  0  0  0  0  0  0  0  0  0  0
  -26.3490  -13.0500   20.1530 N   0  0  0  0  0  0  0  0  0  0  0  0
  -25.9940  -11.7710   20.4370 N   0  0  0  0  0  0  0  0  0  0  0  0
  -23.9790  -10.5510   20.9570 C   0  0  0  0  0  0  0  0  0  0  0  0
  -24.4120   -9.5970   21.9050 C   0  0  0  0  0  3  0  0  0  0  0  0
  -23.6870   -8.4030   22.1000 C   0  0  0  0  0  3  0  0  0  0  0  0
  -22.5140   -8.1520   21.3480 C   0  0  0  0  0  0  0  0  0  0  0  0
  -22.1010   -9.0930   20.3890 C   0  0  0  0  0  3  0  0  0  0  0  0
  -22.8260  -10.2800   20.1920 C   0  0  0  0  0  3  0  0  0  0  0  0
  -21.7610   -7.0080   21.4510 O   0  0  0  0  0  0  0  0  0  0  0  0
  -21.7150   -6.2800   22.6130 C   0  0  0  0  0  0  0  0  0  0  0  0
  -21.2900   -6.8490   23.8330 C   0  0  0  0  0  3  0  0  0  0  0  0
  -21.1910   -6.0480   24.9870 C   0  0  0  0  0  3  0  0  0  0  0  0
  -21.5070   -4.6770   24.9240 C   0  0  0  0  0  0  0  0  0  0  0  0
  -21.9240   -4.1070   23.7080 C   0  0  0  0  0  3  0  0  0  0  0  0
  -22.0240   -4.9060   22.5550 C   0  0  0  0  0  0  0  0  0  0  0  0
  -22.4060   -4.3470   21.3820 F   0  0  0  0  0  0  0  0  0  0  0  0
  -21.4050   -3.9040   26.0300 F   0  0  0  0  0  0  0  0  0  0  0  0
  -22.8430  -13.6420   21.0290 C   0  0  0  0  0  0  0  0  0  0  0  0
  -22.1190  -12.9580   21.9090 N   0  0  0  0  0  0  0  0  0  0  0  0
  -22.4030  -14.6580   20.4930 O   0  0  0  0  0  0  0  0  0  0  0  0
  -22.4890  -12.1360   22.3620 H   0  0  0  0  0  0  0  0  0  0  0  0
  -21.1820  -13.2630   22.1330 H   0  0  0  0  0  0  0  0  0  0  0  0
  -25.4640  -15.3000   20.1790 N   0  0  0  0  0  0  0  0  0  0  0  0
  -24.6920  -15.9480   20.2780 H   0  0  0  0  0  0  0  0  0  0  0  0
  -26.2970  -15.7330   19.8010 H   0  0  0  0  0  0  0  0  0  0  0  0
  -28.8790  -22.4370   22.2160 C   0  0  1  0  0  0  0  0  0  0  0  0
  -29.3320  -21.3430   22.8270 F   0  0  0  0  0  0  0  0  0  0  0  0
  -29.3880  -23.4760   22.8790 F   0  0  0  0  0  0  0  0  0  0  0  0
  -27.5530  -22.4280   22.3520 F   0  0  0  0  0  0  0  0  0  0  0  0
  -28.5370  -23.7890   19.9860 C   0  0  0  0  0  2  0  0  0  0  0  0
  -27.4060  -25.3720   21.7770 C   0  0  0  0  0  1  0  0  0  0  0  0
  -28.4840  -25.2660   20.6670 C   0  0  0  0  0  3  0  0  0  0  0  0
  -28.4560  -26.5180   19.8410 O   0  0  0  0  0  0  0  0  0  0  0  0
  -24.6250  -31.7520   23.0420 C   0  0  0  0  0  0  0  0  0  0  0  0
  -27.3330  -27.3620   19.8320 C   0  0  0  0  0  0  0  0  0  0  0  0
  -23.4530  -30.3940   21.3430 C   0  0  0  0  0  3  0  0  0  0  0  0
  -24.9400  -28.9250   19.8610 C   0  0  0  0  0  0  0  0  0  0  0  0
  -25.9840  -30.7720   21.1800 C   0  0  0  0  0  2  0  0  0  0  0  0
  -26.0950  -29.4180   20.4820 C   0  0  0  0  0  0  0  0  0  0  0  0
  -27.2970  -28.6500   20.4550 C   0  0  0  0  0  3  0  0  0  0  0  0
  -26.1620  -26.9230   19.1830 C   0  0  0  0  0  3  0  0  0  0  0  0
  -24.9760  -27.6840   19.2000 C   0  0  0  0  0  3  0  0  0  0  0  0
  -23.6850  -29.7730   19.9380 C   0  0  0  0  0  2  0  0  0  0  0  0
  -24.7060  -30.9890   21.9130 N   0  0  0  0  0  0  0  0  0  0  0  0
  -23.5350  -31.9900   23.5830 O   0  0  0  0  0  0  0  0  0  0  0  0
  -22.8060  -29.3330   22.2630 C   0  0  0  0  0  0  0  0  0  0  0  0
  -21.4750  -29.1760   22.1610 N   0  0  0  0  0  0  0  0  0  0  0  0
  -23.4990  -28.6550   23.0270 O   0  0  0  0  0  0  0  0  0  0  0  0
  -20.9780  -29.7750   21.5180 H   0  0  0  0  0  0  0  0  0  0  0  0
  -18.0900  -28.0290   22.7270 C   0  0  0  0  0  0  0  0  0  0  0  0
  -20.6640  -28.2030   22.8950 C   0  0  0  0  0  3  0  0  0  0  0  0
  -20.6990  -26.8180   22.2080 C   0  0  0  0  0  2  0  0  0  0  0  0
  -19.5430  -26.6020   21.2260 C   0  0  0  0  0  2  0  0  0  0  0  0
  -18.1970  -26.7320   21.9430 C   0  0  0  0  0  2  0  0  0  0  0  0
  -19.2490  -28.7280   23.1590 C   0  0  0  0  0  0  0  0  0  0  0  0
  -19.0940  -29.9460   23.8550 C   0  0  0  0  0  3  0  0  0  0  0  0
  -17.8130  -30.4660   24.1210 C   0  0  0  0  0  3  0  0  0  0  0  0
  -16.6700  -29.7630   23.7030 C   0  0  0  0  0  3  0  0  0  0  0  0
  -16.8090  -28.5460   23.0110 C   0  0  0  0  0  3  0  0  0  0  0  0
  -25.8950  -32.3810   23.6950 C   0  0  0  0  0  3  0  0  0  0  0  0
  -26.4170  -31.5710   24.9470 C   0  0  1  0  0  0  0  0  0  0  0  0
  -25.3220  -31.2820   26.0000 C   0  0  0  0  0  1  0  0  0  0  0  0
  -27.0190  -30.2160   24.5080 C   0  0  0  0  0  1  0  0  0  0  0  0
  -27.5530  -32.3570   25.6420 C   0  0  0  0  0  1  0  0  0  0  0  0
  -25.5620  -33.7610   24.0750 N   0  0  0  0  0  0  0  0  0  0  0  0
  -25.8810  -34.8470   23.3600 C   0  0  0  0  0  0  0  0  0  0  0  0
  -26.5570  -34.7940   22.3290 O   0  0  0  0  0  0  0  0  0  0  0  0
  -24.9570  -33.8740   24.8760 H   0  0  0  0  0  0  0  0  0  0  0  0
  -24.1310  -36.6300   23.0620 C   0  0  0  0  0  1  0  0  0  0  0  0
  -25.3690  -36.2100   23.8680 C   0  0  0  0  0  3  0  0  0  0  0  0
  -27.4820  -37.0920   24.7550 C   0  0  0  0  0  1  0  0  0  0  0  0
  -26.3870  -37.2810   23.8070 N   0  0  0  0  0  0  0  0  0  0  0  0
  -25.9660  -38.1890   23.9830 H   0  0  0  0  0  0  0  0  0  0  0  0
  2  1  1  0
  3  5  2  0
  3  6  1  0
  4  7  1  0
  4  1  2  0
  5  4  1  0
  6  2  2  0
  8  5  1  0
  8 10  1  0
  9 10  1  0
  9  7  1  0
 10 53  1  6
 10 49  1  0
 11 19  1  0
 12 17  1  0
 13 14  1  0
 13 12  1  0
 15 14  1  0
 15 24  1  0
 15 16  1  0
 17 11  1  0
 17 16  1  0
 18 11  2  0
 19  6  1  0
 19 20  1  0
 21 22  2  0
 22 41  1  0
 23 22  1  0
 23 26  1  0
 24 21  1  0
 24 25  1  0
 25 23  2  0
 26 27  1  0
 27 28  2  0
 29 32  1  0
 29 28  1  0
 30 29  2  0
 31 30  1  0
 31 26  2  0
 32 33  1  0
 33 34  1  0
 34 35  2  0
 36 35  1  0
 36 40  1  0
 37 36  2  0
 38 33  2  0
 38 37  1  0
 39 38  1  0
 41 42  1  0
 42 45  1  0
 42 44  1  0
 43 41  2  0
 46 47  1  0
 46 21  1  0
 48 46  1  0
 49 52  1  6
 49 50  1  0
 49 51  1  0
 53 55  1  0
 55 54  1  0
 56 55  1  0
 57 68  2  0
 58 56  1  0
 58 63  1  0
 59 67  1  0
 59 69  1  0
 60 66  1  0
 60 62  1  0
 61 67  1  0
 62 61  1  0
 63 62  2  0
 64 65  1  0
 64 58  2  0
 65 60  2  0
 66 59  1  0
 67 57  1  0
 69 71  2  0
 70 69  1  0
 72 70  1  0
 73 82  2  0
 73 78  1  0
 74 70  1  0
 74 78  1  0
 75 74  1  0
 76 77  1  0
 76 75  1  0
 77 73  1  0
 78 79  2  0
 79 80  1  0
 81 80  2  0
 82 81  1  0
 83 57  1  0
 83 88  1  0
 83 84  1  0
 84 87  1  1
 84 85  1  0
 86 84  1  0
 88 91  1  0
 89 93  1  0
 89 88  1  0
 90 89  2  0
 93 92  1  0
 95 93  1  0
 95 96  1  0
 95 94  1  0
M  ISO  4  11 100  19 100  55 101  56 101
M  END
>  <TORSDO>  (79) 
F 19

>  <SCORE>  (79) 
-14.583

>  <name>  (79) 
78

>  <ligand_id>  (79) 
78

>  <original_smiles>  (79) 
[H]c1c([H])c([H])c2c(c1[H])C([H])([H])C([H])([H])C([H])([H])C2([H])N([H])C(=O)C1([H])N(C(=O)C([H])(N([H])C(=O)C([H])(N([H])C([H])([H])[H])C([H])([H])[H])C(C([H])([H])[H])(C([H])([H])[H])C([H])([H])[H])C([H])([H])c2c([H])c(OC([H])(C([H])([H])[H])C([H])([H])C3(C(F)(F)F)C([H])([H])c4c([H])c(N([H])C(=O)N5C([H])([H])C([H])([H])C([H])([H])C([H])(n6nc(-c7c([H])c([H])c(Oc8c([H])c([H])c(F)c([H])c8F)c([H])c7[H])c(C(=O)N([H])[H])c6N([H])[H])C5([H])[H])c([H])c([H])c4C([H])([H])C3([H])[H])c([H])c([H])c2C1([H])[H]

>  <smiles>  (79) 
[H]c1c([H])c([H])c2c(c1[H])C([H])([H])C([H])([H])C([H])([H])C2([H])N([H])C(=O)C1([H])N(C(=O)C([H])(N([H])C(=O)C([H])(N([H])C([H])([H])[H])C([H])([H])[H])C(C([H])([H])[H])(C([H])([H])[H])C([H])([H])[H])C([H])([H])c2c([H])c(OC([H])(C([H])([H])[H])C([H])([H])C3(C(F)(F)F)C([H])([H])c4c([H])c(N([H])C(=O)N5C([H])([H])C([H])([H])C([H])([H])C([H])(n6nc(-c7c([H])c([H])c(Oc8c([H])c([H])c(F)c([H])c8F)c([H])c7[H])c(C(=O)N([H])[H])c6N([H])[H])C5([H])[H])c([H])c([H])c4C([H])([H])C3([H])[H])c([H])c([H])c2C1([H])[H]

$$$$
79:0:0
     RDKit          3D

103112  0  0  1  0  0  0  0  0999 V2000
  -29.4150  -19.6230   19.7670 C   0  0  0  0  0  3  0  0  0  0  0  0
  -31.1860  -20.9160   18.7510 C   0  0  0  0  0  3  0  0  0  0  0  0
  -30.2140  -18.4140   19.7320 C   0  0  0  0  0  0  0  0  0  0  0  0
  -31.5470  -18.5110   19.2300 C   0  0  0  0  0  0  0  0  0  0  0  0
  -29.8990  -20.8940   19.3150 C   0  0  0  0  0  0  0  0  0  0  0  0
  -31.9910  -19.7590   18.6990 C   0  0  0  0  0  0  0  0  0  0  0  0
  -30.4890  -14.8600   19.4310 C   0  0  0  0  0  0  0  0  0  0  0  0
  -30.2730  -12.5920   18.4050 C   0  0  0  0  0  2  0  0  0  0  0  0
  -29.1720  -12.6160   17.3190 C   0  0  0  0  0  2  0  0  0  0  0  0
  -27.7690  -12.4210   17.9310 C   0  0  0  0  0  2  0  0  0  0  0  0
  -27.5300  -13.3240   19.1690 C   0  0  0  0  0  3  0  0  0  0  0  0
  -28.7170  -13.2110   20.1510 C   0  0  0  0  0  2  0  0  0  0  0  0
  -29.9430  -13.6010   19.4290 N   0  0  0  0  0  0  0  0  0  0  0  0
  -31.4730  -15.1560   18.7470 O   0  0  0  0  0  0  0  0  0  0  0  0
  -29.6840  -17.1910   20.4420 C   0  0  0  0  0  0  0  0  0  0  0  0
  -29.7690  -15.8270   20.2590 N   0  0  0  0  0  0  0  0  0  0  0  0
  -28.9580  -17.5280   21.5180 N   0  0  0  0  0  4  0  0  0  0  0  0
  -29.0560  -15.4010   20.8160 H   0  0  0  0  0  0  0  0  0  0  0  0
  -28.8810  -18.5120   21.7300 H   0  0  0  0  0  0  0  0  0  0  0  0
  -28.6960  -16.8850   22.2480 H   0  0  0  0  0  0  0  0  0  0  0  0
  -25.2590  -13.9060   20.2310 C   0  0  0  0  0  0  0  0  0  0  0  0
  -24.2460  -13.1230   20.7150 C   0  0  0  0  0  0  0  0  0  0  0  0
  -24.6820  -11.7710   20.5550 C   0  0  0  0  0  0  0  0  0  0  0  0
  -26.2530  -13.0320   19.8160 N   0  0  0  0  0  0  0  0  0  0  0  0
  -25.9160  -11.7410   20.0670 N   0  0  0  0  0  0  0  0  0  0  0  0
  -23.9730  -10.5070   20.7860 C   0  0  0  0  0  0  0  0  0  0  0  0
  -24.4670   -9.5420   21.6910 C   0  0  0  0  0  3  0  0  0  0  0  0
  -23.7630   -8.3380   21.9100 C   0  0  0  0  0  3  0  0  0  0  0  0
  -22.5470   -8.0940   21.2260 C   0  0  0  0  0  0  0  0  0  0  0  0
  -22.0720   -9.0480   20.3080 C   0  0  0  0  0  3  0  0  0  0  0  0
  -22.7790  -10.2420   20.0870 C   0  0  0  0  0  3  0  0  0  0  0  0
  -21.8080   -6.9440   21.3570 O   0  0  0  0  0  0  0  0  0  0  0  0
  -21.7680   -6.2430   22.5350 C   0  0  0  0  0  0  0  0  0  0  0  0
  -21.3000   -6.8260   23.7340 C   0  0  0  0  0  3  0  0  0  0  0  0
  -21.2100   -6.0480   24.9060 C   0  0  0  0  0  3  0  0  0  0  0  0
  -21.5800   -4.6910   24.8820 C   0  0  0  0  0  0  0  0  0  0  0  0
  -22.0410   -4.1070   23.6880 C   0  0  0  0  0  3  0  0  0  0  0  0
  -22.1330   -4.8820   22.5180 C   0  0  0  0  0  0  0  0  0  0  0  0
  -22.5560   -4.3090   21.3660 F   0  0  0  0  0  0  0  0  0  0  0  0
  -21.4870   -3.9420   26.0050 F   0  0  0  0  0  0  0  0  0  0  0  0
  -22.9070  -13.5950   21.2050 C   0  0  0  0  0  0  0  0  0  0  0  0
  -22.3050  -12.8710   22.1440 N   0  0  0  0  0  0  0  0  0  0  0  0
  -22.4040  -14.6370   20.7870 O   0  0  0  0  0  0  0  0  0  0  0  0
  -22.7290  -12.0280   22.5070 H   0  0  0  0  0  0  0  0  0  0  0  0
  -21.4130  -13.1700   22.5130 H   0  0  0  0  0  0  0  0  0  0  0  0
  -25.4140  -15.2820   20.0920 N   0  0  0  0  0  0  0  0  0  0  0  0
  -24.6680  -15.9270   20.3290 H   0  0  0  0  0  0  0  0  0  0  0  0
  -26.1670  -15.7220   19.5780 H   0  0  0  0  0  0  0  0  0  0  0  0
  -29.3110  -23.2490   20.0580 C   0  0  0  0  0  0  0  0  0  0  0  0
  -29.1360  -22.1360   19.2840 N   0  0  0  0  0  0  0  0  0  0  0  0
  -29.7760  -23.1590   21.1970 O   0  0  0  0  0  0  0  0  0  0  0  0
  -28.6960  -22.3650   18.4010 H   0  0  0  0  0  0  0  0  0  0  0  0
  -28.8160  -25.7150   20.1280 C   0  0  0  0  0  3  0  0  0  0  0  0
  -28.8980  -24.5390   19.4260 C   0  0  0  0  0  0  0  0  0  0  0  0
  -28.6350  -24.5530   18.1110 O   0  0  0  0  0  0  0  0  0  0  0  0
  -28.4090  -25.4470   17.8880 H   0  0  0  0  0  0  0  0  0  0  0  0
  -28.6060  -26.9850   19.5680 O   0  0  0  0  0  0  0  0  0  0  0  0
  -24.6390  -31.7440   23.2990 C   0  0  0  0  0  0  0  0  0  0  0  0
  -27.4100  -27.6740   19.7660 C   0  0  0  0  0  0  0  0  0  0  0  0
  -23.4500  -30.3880   21.6080 C   0  0  0  0  0  3  0  0  0  0  0  0
  -24.9300  -29.0580   20.0030 C   0  0  0  0  0  0  0  0  0  0  0  0
  -25.9410  -30.9220   21.3270 C   0  0  0  0  0  2  0  0  0  0  0  0
  -26.0870  -29.6040   20.5770 C   0  0  0  0  0  0  0  0  0  0  0  0
  -27.3310  -28.9230   20.4460 C   0  0  0  0  0  3  0  0  0  0  0  0
  -26.2300  -27.1600   19.1920 C   0  0  0  0  0  3  0  0  0  0  0  0
  -25.0000  -27.8400   19.3050 C   0  0  0  0  0  3  0  0  0  0  0  0
  -23.6370  -29.8300   20.1720 C   0  0  0  0  0  2  0  0  0  0  0  0
  -24.6970  -31.0330   22.1350 N   0  0  0  0  0  0  0  0  0  0  0  0
  -23.5700  -31.8960   23.9060 O   0  0  0  0  0  0  0  0  0  0  0  0
  -22.9150  -29.2570   22.5160 C   0  0  0  0  0  0  0  0  0  0  0  0
  -21.6430  -28.8700   22.3120 N   0  0  0  0  0  0  0  0  0  0  0  0
  -23.6440  -28.7270   23.3570 O   0  0  0  0  0  0  0  0  0  0  0  0
  -21.1050  -29.3620   21.6120 H   0  0  0  0  0  0  0  0  0  0  0  0
  -18.5690  -26.9700   22.4330 C   0  0  0  0  0  0  0  0  0  0  0  0
  -20.9480  -27.7930   23.0200 C   0  0  0  0  0  3  0  0  0  0  0  0
  -21.4340  -26.4070   22.5380 C   0  0  0  0  0  2  0  0  0  0  0  0
  -20.5790  -25.8250   21.4080 C   0  0  0  0  0  2  0  0  0  0  0  0
  -19.1240  -25.6770   21.8590 C   0  0  0  0  0  2  0  0  0  0  0  0
  -19.4270  -27.9700   22.9630 C   0  0  0  0  0  0  0  0  0  0  0  0
  -18.8610  -29.1670   23.4540 C   0  0  0  0  0  3  0  0  0  0  0  0
  -17.4690  -29.3720   23.4210 C   0  0  0  0  0  3  0  0  0  0  0  0
  -16.6240  -28.3730   22.9100 C   0  0  0  0  0  3  0  0  0  0  0  0
  -17.1730  -27.1740   22.4210 C   0  0  0  0  0  3  0  0  0  0  0  0
  -25.9070  -32.4180   23.9080 C   0  0  0  0  0  3  0  0  0  0  0  0
  -25.5470  -33.7980   24.2640 N   0  0  0  0  0  0  0  0  0  0  0  0
  -25.8710  -34.8800   23.5410 C   0  0  0  0  0  0  0  0  0  0  0  0
  -26.5720  -34.8220   22.5270 O   0  0  0  0  0  0  0  0  0  0  0  0
  -24.9250  -33.9150   25.0490 H   0  0  0  0  0  0  0  0  0  0  0  0
  -24.1140  -36.6410   23.1720 C   0  0  0  0  0  1  0  0  0  0  0  0
  -25.3320  -36.2420   24.0210 C   0  0  0  0  0  3  0  0  0  0  0  0
  -27.4110  -37.1510   24.9600 C   0  0  0  0  0  1  0  0  0  0  0  0
  -26.3430  -37.3210   23.9780 N   0  0  0  0  0  0  0  0  0  0  0  0
  -25.9090  -38.2270   24.1350 H   0  0  0  0  0  0  0  0  0  0  0  0
  -26.4760  -31.6510   25.1650 C   0  0  1  0  0  0  0  0  0  0  0  0
  -25.4070  -31.3370   26.2370 C   0  0  0  0  0  1  0  0  0  0  0  0
  -27.1270  -30.3140   24.7420 C   0  0  0  0  0  1  0  0  0  0  0  0
  -27.5890  -32.4930   25.8330 C   0  0  0  0  0  1  0  0  0  0  0  0
  -32.8540  -16.5470   20.5220 C   0  0  0  0  0  2  0  0  0  0  0  0
  -33.8660  -17.5320   20.0040 C   0  0  0  0  0  2  0  0  0  0  0  0
  -32.5420  -17.3680   19.2800 C   0  0  0  0  0  3  0  0  0  0  0  0
  -33.2600  -19.8810   18.1270 N   0  0  0  0  0  0  0  0  0  0  0  0
  -33.4780  -20.6950   17.5600 H   0  0  0  0  0  0  0  0  0  0  0  0
  -33.7510  -19.0440   17.8330 H   0  0  0  0  0  0  0  0  0  0  0  0
  2  5  1  0
  3  1  1  0
  3 15  1  0
  4100  1  0
  4  3  2  0
  5  1  2  0
  6  2  2  0
  6  4  1  0
  7 16  1  0
  8 13  1  0
  9 10  1  0
  9  8  1  0
 11 10  1  0
 11 24  1  0
 11 12  1  0
 13  7  1  0
 13 12  1  0
 14  7  2  0
 15 17  2  0
 16 15  1  0
 16 18  1  0
 17 19  1  0
 17 20  1  0
 21 22  2  0
 22 41  1  0
 23 22  1  0
 23 26  1  0
 24 25  1  0
 24 21  1  0
 25 23  2  0
 26 27  1  0
 27 28  2  0
 29 32  1  0
 29 28  1  0
 30 29  2  0
 31 30  1  0
 31 26  2  0
 32 33  1  0
 33 34  1  0
 34 35  2  0
 36 35  1  0
 36 40  1  0
 37 36  2  0
 38 33  2  0
 38 37  1  0
 39 38  1  0
 41 42  1  0
 42 44  1  0
 42 45  1  0
 43 41  2  0
 46 21  1  0
 46 47  1  0
 48 46  1  0
 49 51  2  0
 50  5  1  0
 50 49  1  0
 52 50  1  0
 54 49  1  0
 54 53  2  0
 55 54  1  0
 56 55  1  0
 57 59  1  0
 57 53  1  0
 58 69  2  0
 59 64  1  0
 60 68  1  0
 60 70  1  0
 61 67  1  0
 61 63  1  0
 62 68  1  0
 63 62  1  0
 64 63  2  0
 65 66  1  0
 65 59  2  0
 66 61  2  0
 67 60  1  0
 68 58  1  0
 70 72  2  0
 71 70  1  0
 73 71  1  0
 74 79  1  0
 75 71  1  0
 76 75  1  0
 77 78  1  0
 77 76  1  0
 78 74  1  0
 79 75  1  0
 79 80  2  0
 81 80  1  0
 82 81  2  0
 83 74  2  0
 83 82  1  0
 84 58  1  0
 84 85  1  0
 84 94  1  0
 85 88  1  0
 86 90  1  0
 86 85  1  0
 87 86  2  0
 90 89  1  0
 92 90  1  0
 92 93  1  0
 92 91  1  0
 94 97  1  1
 94 95  1  0
 96 94  1  0
 99 98  1  0
100 99  1  0
100 98  1  0
101  6  1  0
102101  1  0
103101  1  0
M  ISO  4   7 100  16 100  53 101  57 101
M  END
>  <TORSDO>  (80) 
F 21

>  <SCORE>  (80) 
-11.495

>  <name>  (80) 
79

>  <ligand_id>  (80) 
79

>  <original_smiles>  (80) 
[H]OC(C(=O)N([H])c1c([H])c(C(N([H])C(=O)N2C([H])([H])C([H])([H])C([H])([H])C([H])(n3nc(-c4c([H])c([H])c(Oc5c([H])c([H])c(F)c([H])c5F)c([H])c4[H])c(C(=O)N([H])[H])c3N([H])[H])C2([H])[H])=[N+]([H])[H])c(C2([H])C([H])([H])C2([H])[H])c(N([H])[H])c1[H])=C([H])Oc1c([H])c([H])c2c(c1[H])C([H])([H])N(C(=O)C([H])(N([H])C(=O)C([H])(N([H])C([H])([H])[H])C([H])([H])[H])C(C([H])([H])[H])(C([H])([H])[H])C([H])([H])[H])C([H])(C(=O)N([H])C1([H])c3c([H])c([H])c([H])c([H])c3C([H])([H])C([H])([H])C1([H])[H])C2([H])[H]

>  <smiles>  (80) 
[H]OC(C(=O)N([H])c1c([H])c(C(N([H])C(=O)N2C([H])([H])C([H])([H])C([H])([H])C([H])(n3nc(-c4c([H])c([H])c(Oc5c([H])c([H])c(F)c([H])c5F)c([H])c4[H])c(C(=O)N([H])[H])c3N([H])[H])C2([H])[H])=[N+]([H])[H])c(C2([H])C([H])([H])C2([H])[H])c(N([H])[H])c1[H])=C([H])Oc1c([H])c([H])c2c(c1[H])C([H])([H])N(C(=O)C([H])(N([H])C(=O)C([H])(N([H])C([H])([H])[H])C([H])([H])[H])C(C([H])([H])[H])(C([H])([H])[H])C([H])([H])[H])C([H])(C(=O)N([H])C1([H])c3c([H])c([H])c([H])c([H])c3C([H])([H])C([H])([H])C1([H])[H])C2([H])[H]

$$$$
80:0:0
     RDKit          3D

 92100  0  0  1  0  0  0  0  0999 V2000
  -29.2910  -22.5340   19.6350 N   0  0  0  0  0  0  0  0  0  0  0  0
  -29.5190  -22.6550   18.6520 H   0  0  0  0  0  0  0  0  0  0  0  0
  -29.3010  -19.1140   21.3310 C   0  0  0  0  0  3  0  0  0  0  0  0
  -29.0380  -20.5490   21.2880 C   0  0  0  0  0  3  0  0  0  0  0  0
  -29.9200  -18.5920   20.2100 C   0  0  0  0  0  0  0  0  0  0  0  0
  -29.4260  -21.1840   20.1250 C   0  0  0  0  0  0  0  0  0  0  0  0
  -30.1430  -19.9480   19.0750 S   0  0  0  0  0  0  0  0  0  0  0  0
  -30.8050  -14.7870   19.9440 C   0  0  0  0  0  0  0  0  0  0  0  0
  -30.4450  -12.5380   18.9490 C   0  0  0  0  0  2  0  0  0  0  0  0
  -29.4470  -12.6520   17.7780 C   0  0  0  0  0  2  0  0  0  0  0  0
  -28.0060  -12.4890   18.2950 C   0  0  0  0  0  2  0  0  0  0  0  0
  -27.7150  -13.3590   19.5470 C   0  0  0  0  0  3  0  0  0  0  0  0
  -28.8430  -13.2760   20.6010 C   0  0  0  0  0  2  0  0  0  0  0  0
  -30.1050  -13.6010   19.9270 N   0  0  0  0  0  0  0  0  0  0  0  0
  -31.9760  -14.7630   19.5570 O   0  0  0  0  0  0  0  0  0  0  0  0
  -30.5960  -17.2590   19.8300 C   0  0  0  0  0  0  0  0  0  0  0  0
  -30.1520  -15.9910   20.1940 N   0  0  0  0  0  0  0  0  0  0  0  0
  -31.5950  -17.3990   19.1170 O   0  0  0  0  0  0  0  0  0  0  0  0
  -29.2460  -15.9430   20.6270 H   0  0  0  0  0  0  0  0  0  0  0  0
  -25.3840  -13.9240   20.4550 C   0  0  0  0  0  0  0  0  0  0  0  0
  -24.3430  -13.1410   20.8690 C   0  0  0  0  0  0  0  0  0  0  0  0
  -24.7960  -11.7910   20.7620 C   0  0  0  0  0  0  0  0  0  0  0  0
  -26.4070  -13.0530   20.1190 N   0  0  0  0  0  0  0  0  0  0  0  0
  -26.0640  -11.7620   20.3670 N   0  0  0  0  0  0  0  0  0  0  0  0
  -24.0780  -10.5240   20.9550 C   0  0  0  0  0  0  0  0  0  0  0  0
  -24.5230   -9.5540   21.8800 C   0  0  0  0  0  3  0  0  0  0  0  0
  -23.8040   -8.3550   22.0630 C   0  0  0  0  0  3  0  0  0  0  0  0
  -22.6220   -8.1150   21.3210 C   0  0  0  0  0  0  0  0  0  0  0  0
  -22.1950   -9.0740   20.3850 C   0  0  0  0  0  3  0  0  0  0  0  0
  -22.9160  -10.2650   20.2000 C   0  0  0  0  0  3  0  0  0  0  0  0
  -21.8720   -6.9670   21.4140 O   0  0  0  0  0  0  0  0  0  0  0  0
  -21.7860   -6.2560   22.5840 C   0  0  0  0  0  0  0  0  0  0  0  0
  -21.2770   -6.8290   23.7690 C   0  0  0  0  0  3  0  0  0  0  0  0
  -21.1410   -6.0420   24.9300 C   0  0  0  0  0  3  0  0  0  0  0  0
  -21.5060   -4.6830   24.9060 C   0  0  0  0  0  0  0  0  0  0  0  0
  -22.0090   -4.1090   23.7260 C   0  0  0  0  0  3  0  0  0  0  0  0
  -22.1460   -4.8930   22.5670 C   0  0  0  0  0  0  0  0  0  0  0  0
  -22.6110   -4.3290   21.4260 F   0  0  0  0  0  0  0  0  0  0  0  0
  -21.3690   -3.9240   26.0200 F   0  0  0  0  0  0  0  0  0  0  0  0
  -22.9690  -13.6120   21.2470 C   0  0  0  0  0  0  0  0  0  0  0  0
  -22.2930  -12.8890   22.1330 N   0  0  0  0  0  0  0  0  0  0  0  0
  -22.5050  -14.6560   20.7920 O   0  0  0  0  0  0  0  0  0  0  0  0
  -22.6820  -12.0440   22.5250 H   0  0  0  0  0  0  0  0  0  0  0  0
  -21.3740  -13.1880   22.4270 H   0  0  0  0  0  0  0  0  0  0  0  0
  -25.5410  -15.3000   20.3120 N   0  0  0  0  0  0  0  0  0  0  0  0
  -24.7850  -15.9500   20.5030 H   0  0  0  0  0  0  0  0  0  0  0  0
  -26.3590  -15.7490   19.9190 H   0  0  0  0  0  0  0  0  0  0  0  0
  -29.2280  -23.8520   20.3780 C   0  0  0  0  0  2  0  0  0  0  0  0
  -28.1110  -24.7960   18.3130 C   0  0  0  0  0  1  0  0  0  0  0  0
  -26.8310  -24.3110   20.5420 C   0  0  0  0  0  1  0  0  0  0  0  0
  -28.1040  -24.9000   19.8610 C   0  0  1  0  0  0  0  0  0  0  0  0
  -28.2690  -26.3830   20.1660 O   0  0  0  0  0  0  0  0  0  0  0  0
  -24.5790  -31.8710   23.1780 C   0  0  0  0  0  0  0  0  0  0  0  0
  -27.1950  -27.3120   20.0650 C   0  0  0  0  0  0  0  0  0  0  0  0
  -23.3880  -30.4930   21.5200 C   0  0  0  0  0  3  0  0  0  0  0  0
  -24.8470  -28.9820   20.0680 C   0  0  0  0  0  0  0  0  0  0  0  0
  -25.9350  -30.8010   21.3620 C   0  0  0  0  0  2  0  0  0  0  0  0
  -26.0160  -29.4310   20.6930 C   0  0  0  0  0  0  0  0  0  0  0  0
  -27.1900  -28.6050   20.6940 C   0  0  0  0  0  3  0  0  0  0  0  0
  -26.0150  -26.9840   19.3560 C   0  0  0  0  0  3  0  0  0  0  0  0
  -24.8520  -27.7630   19.3880 C   0  0  0  0  0  3  0  0  0  0  0  0
  -23.6080  -29.8500   20.1290 C   0  0  0  0  0  2  0  0  0  0  0  0
  -24.6530  -31.0710   22.0750 N   0  0  0  0  0  0  0  0  0  0  0  0
  -23.4920  -32.1400   23.7090 O   0  0  0  0  0  0  0  0  0  0  0  0
  -22.7270  -29.4540   22.4600 C   0  0  0  0  0  0  0  0  0  0  0  0
  -21.4000  -29.2790   22.3330 N   0  0  0  0  0  0  0  0  0  0  0  0
  -23.4060  -28.8140   23.2670 O   0  0  0  0  0  0  0  0  0  0  0  0
  -20.9090  -29.8480   21.6570 H   0  0  0  0  0  0  0  0  0  0  0  0
  -18.0170  -28.1040   22.8520 C   0  0  0  0  0  0  0  0  0  0  0  0
  -20.5810  -28.3310   23.0920 C   0  0  0  0  0  3  0  0  0  0  0  0
  -20.6590  -26.9120   22.4810 C   0  0  0  0  0  2  0  0  0  0  0  0
  -19.5410  -26.6270   21.4740 C   0  0  0  0  0  2  0  0  0  0  0  0
  -18.1690  -26.7700   22.1410 C   0  0  0  0  0  2  0  0  0  0  0  0
  -19.1490  -28.8440   23.2840 C   0  0  0  0  0  0  0  0  0  0  0  0
  -18.9510  -30.0940   23.9100 C   0  0  0  0  0  3  0  0  0  0  0  0
  -17.6530  -30.6040   24.1070 C   0  0  0  0  0  3  0  0  0  0  0  0
  -16.5360  -29.8600   23.6890 C   0  0  0  0  0  3  0  0  0  0  0  0
  -16.7180  -28.6120   23.0680 C   0  0  0  0  0  3  0  0  0  0  0  0
  -25.8560  -32.5030   23.8100 C   0  0  0  0  0  3  0  0  0  0  0  0
  -26.3800  -31.7110   25.0720 C   0  0  1  0  0  0  0  0  0  0  0  0
  -25.2870  -31.4390   26.1310 C   0  0  0  0  0  1  0  0  0  0  0  0
  -26.9810  -30.3480   24.6580 C   0  0  0  0  0  1  0  0  0  0  0  0
  -27.5190  -32.5050   25.7520 C   0  0  0  0  0  1  0  0  0  0  0  0
  -25.5320  -33.8910   24.1670 N   0  0  0  0  0  0  0  0  0  0  0  0
  -25.8490  -34.9620   23.4280 C   0  0  0  0  0  0  0  0  0  0  0  0
  -26.5150  -34.8860   22.3910 O   0  0  0  0  0  0  0  0  0  0  0  0
  -24.9390  -34.0230   24.9720 H   0  0  0  0  0  0  0  0  0  0  0  0
  -24.1070  -36.7490   23.1100 C   0  0  0  0  0  1  0  0  0  0  0  0
  -25.3500  -36.3360   23.9140 C   0  0  0  0  0  3  0  0  0  0  0  0
  -27.4710  -37.2250   24.7760 C   0  0  0  0  0  1  0  0  0  0  0  0
  -26.3740  -37.4010   23.8270 N   0  0  0  0  0  0  0  0  0  0  0  0
  -25.9590  -38.3140   23.9890 H   0  0  0  0  0  0  0  0  0  0  0  0
  1  6  1  0
  1 48  1  0
  2  1  1  0
  4  3  1  0
  5  3  2  0
  6  4  2  0
  7  6  1  0
  7  5  1  0
  8 17  1  0
  9 14  1  0
 10 11  1  0
 10  9  1  0
 12 11  1  0
 12 23  1  0
 12 13  1  0
 14  8  1  0
 14 13  1  0
 15  8  2  0
 16 17  1  0
 16  5  1  0
 17 19  1  0
 18 16  2  0
 20 21  2  0
 21 40  1  0
 22 21  1  0
 22 25  1  0
 23 24  1  0
 23 20  1  0
 24 22  2  0
 25 26  1  0
 26 27  2  0
 28 31  1  0
 28 27  1  0
 29 28  2  0
 30 29  1  0
 30 25  2  0
 31 32  1  0
 32 33  1  0
 33 34  2  0
 35 34  1  0
 35 39  1  0
 36 35  2  0
 37 32  2  0
 37 36  1  0
 38 37  1  0
 40 41  1  0
 41 44  1  0
 41 43  1  0
 42 40  2  0
 45 20  1  0
 45 46  1  0
 47 45  1  0
 51 49  1  6
 51 52  1  0
 51 48  1  0
 51 50  1  0
 53 64  2  0
 54 52  1  0
 54 59  1  0
 55 63  1  0
 55 65  1  0
 56 62  1  0
 56 58  1  0
 57 63  1  0
 58 59  2  0
 58 57  1  0
 60 61  1  0
 60 54  2  0
 61 56  2  0
 62 55  1  0
 63 53  1  0
 65 67  2  0
 66 65  1  0
 68 66  1  0
 69 78  2  0
 69 74  1  0
 70 66  1  0
 70 74  1  0
 71 70  1  0
 72 73  1  0
 72 71  1  0
 73 69  1  0
 74 75  2  0
 75 76  1  0
 77 76  2  0
 78 77  1  0
 79 53  1  0
 79 84  1  0
 79 80  1  0
 80 83  1  1
 80 81  1  0
 82 80  1  0
 84 87  1  0
 85 89  1  0
 85 84  1  0
 86 85  2  0
 89 88  1  0
 91 89  1  0
 91 92  1  0
 91 90  1  0
M  ISO  4   8 100  17 100  51 101  52 101
M  END
>  <TORSDO>  (81) 
F 19

>  <SCORE>  (81) 
-13.602

>  <name>  (81) 
80

>  <ligand_id>  (81) 
80

>  <original_smiles>  (81) 
[H]c1c(C(=O)N([H])C(=O)N2C([H])([H])C([H])([H])C([H])([H])C([H])(n3nc(-c4c([H])c([H])c(Oc5c([H])c([H])c(F)c([H])c5F)c([H])c4[H])c(C(=O)N([H])[H])c3N([H])[H])C2([H])[H])sc(N([H])C([H])([H])C(Oc2c([H])c([H])c3c(c2[H])C([H])([H])N(C(=O)C([H])(N([H])C(=O)C([H])(N([H])C([H])([H])[H])C([H])([H])[H])C(C([H])([H])[H])(C([H])([H])[H])C([H])([H])[H])C([H])(C(=O)N([H])C2([H])c4c([H])c([H])c([H])c([H])c4C([H])([H])C([H])([H])C2([H])[H])C3([H])[H])(C([H])([H])[H])C([H])([H])[H])c1[H]

>  <smiles>  (81) 
[H]c1c(C(=O)N([H])C(=O)N2C([H])([H])C([H])([H])C([H])([H])C([H])(n3nc(-c4c([H])c([H])c(Oc5c([H])c([H])c(F)c([H])c5F)c([H])c4[H])c(C(=O)N([H])[H])c3N([H])[H])C2([H])[H])sc(N([H])C([H])([H])C(Oc2c([H])c([H])c3c(c2[H])C([H])([H])N(C(=O)C([H])(N([H])C(=O)C([H])(N([H])C([H])([H])[H])C([H])([H])[H])C(C([H])([H])[H])(C([H])([H])[H])C([H])([H])[H])C([H])(C(=O)N([H])C2([H])c4c([H])c([H])c([H])c([H])c4C([H])([H])C([H])([H])C2([H])[H])C3([H])[H])(C([H])([H])[H])C([H])([H])[H])c1[H]

$$$$
81:0:0
     RDKit          3D

 92100  0  0  1  0  0  0  0  0999 V2000
  -28.9670  -18.4980   20.8160 C   0  0  0  0  0  3  0  0  0  0  0  0
  -29.4950  -19.8090   20.3960 C   0  0  0  0  0  0  0  0  0  0  0  0
  -29.8600  -17.4820   20.4210 C   0  0  0  0  0  0  0  0  0  0  0  0
  -29.0890  -22.5280   20.3120 C   0  0  0  0  0  0  0  0  0  0  0  0
  -30.6530  -19.5530   19.7740 N   0  0  0  0  0  0  0  0  0  0  0  0
  -28.8630  -21.1680   20.6450 N   0  0  0  0  0  0  0  0  0  0  0  0
  -30.0210  -22.8670   19.5800 O   0  0  0  0  0  0  0  0  0  0  0  0
  -30.8840  -18.1390   19.7860 O   0  0  0  0  0  0  0  0  0  0  0  0
  -28.0380  -21.1200   21.2270 H   0  0  0  0  0  0  0  0  0  0  0  0
  -30.5270  -14.9350   20.2840 C   0  0  0  0  0  0  0  0  0  0  0  0
  -30.3810  -12.6130   19.2950 C   0  0  0  0  0  2  0  0  0  0  0  0
  -29.4310  -12.6290   18.0750 C   0  0  0  0  0  2  0  0  0  0  0  0
  -27.9680  -12.4270   18.5160 C   0  0  0  0  0  2  0  0  0  0  0  0
  -27.5890  -13.3200   19.7270 C   0  0  0  0  0  3  0  0  0  0  0  0
  -28.6580  -13.2730   20.8410 C   0  0  0  0  0  2  0  0  0  0  0  0
  -29.9350  -13.6760   20.2370 N   0  0  0  0  0  0  0  0  0  0  0  0
  -31.7100  -15.0270   19.9370 O   0  0  0  0  0  0  0  0  0  0  0  0
  -29.7300  -16.0640   20.5760 N   0  0  0  0  0  0  0  0  0  0  0  0
  -28.8240  -15.7910   20.9180 H   0  0  0  0  0  0  0  0  0  0  0  0
  -25.2090  -13.8980   20.4790 C   0  0  0  0  0  0  0  0  0  0  0  0
  -24.1480  -13.1210   20.8540 C   0  0  0  0  0  0  0  0  0  0  0  0
  -24.6130  -11.7700   20.8170 C   0  0  0  0  0  0  0  0  0  0  0  0
  -26.2520  -13.0210   20.2300 N   0  0  0  0  0  0  0  0  0  0  0  0
  -25.9020  -11.7370   20.4980 N   0  0  0  0  0  0  0  0  0  0  0  0
  -23.8890  -10.5070   21.0080 C   0  0  0  0  0  0  0  0  0  0  0  0
  -24.3150   -9.5450   21.9500 C   0  0  0  0  0  3  0  0  0  0  0  0
  -23.5890   -8.3470   22.1300 C   0  0  0  0  0  3  0  0  0  0  0  0
  -22.4230   -8.1040   21.3650 C   0  0  0  0  0  0  0  0  0  0  0  0
  -22.0160   -9.0540   20.4130 C   0  0  0  0  0  3  0  0  0  0  0  0
  -22.7430  -10.2430   20.2320 C   0  0  0  0  0  3  0  0  0  0  0  0
  -21.6690   -6.9570   21.4530 O   0  0  0  0  0  0  0  0  0  0  0  0
  -21.5990   -6.2290   22.6150 C   0  0  0  0  0  0  0  0  0  0  0  0
  -21.1250   -6.7930   23.8190 C   0  0  0  0  0  3  0  0  0  0  0  0
  -21.0030   -5.9910   24.9710 C   0  0  0  0  0  3  0  0  0  0  0  0
  -21.3460   -4.6260   24.9200 C   0  0  0  0  0  0  0  0  0  0  0  0
  -21.8120   -4.0620   23.7200 C   0  0  0  0  0  3  0  0  0  0  0  0
  -21.9350   -4.8610   22.5690 C   0  0  0  0  0  0  0  0  0  0  0  0
  -22.3660   -4.3070   21.4100 F   0  0  0  0  0  0  0  0  0  0  0  0
  -21.2210   -3.8540   26.0240 F   0  0  0  0  0  0  0  0  0  0  0  0
  -22.7520  -13.5960   21.1350 C   0  0  0  0  0  0  0  0  0  0  0  0
  -22.0270  -12.8930   21.9990 N   0  0  0  0  0  0  0  0  0  0  0  0
  -22.3130  -14.6250   20.6230 O   0  0  0  0  0  0  0  0  0  0  0  0
  -22.3950  -12.0610   22.4340 H   0  0  0  0  0  0  0  0  0  0  0  0
  -21.0910  -13.1950   22.2300 H   0  0  0  0  0  0  0  0  0  0  0  0
  -25.3680  -15.2700   20.3040 N   0  0  0  0  0  0  0  0  0  0  0  0
  -24.5940  -15.9160   20.4170 H   0  0  0  0  0  0  0  0  0  0  0  0
  -26.1980  -15.7140   19.9350 H   0  0  0  0  0  0  0  0  0  0  0  0
  -27.8280  -24.9250   20.8950 C   0  0  0  0  0  3  0  0  0  0  0  0
  -28.0940  -23.5230   20.9300 C   0  0  0  0  0  0  0  0  0  0  0  0
  -27.2280  -22.8810   21.7380 O   0  0  0  0  0  0  0  0  0  0  0  0
  -26.6340  -23.5250   22.1000 H   0  0  0  0  0  0  0  0  0  0  0  0
  -28.2560  -26.1870   20.3220 O   0  0  0  0  0  0  0  0  0  0  0  0
  -24.6060  -31.8850   23.2250 C   0  0  0  0  0  0  0  0  0  0  0  0
  -27.2500  -27.2100   20.2350 C   0  0  0  0  0  0  0  0  0  0  0  0
  -23.4310  -30.4750   21.5810 C   0  0  0  0  0  3  0  0  0  0  0  0
  -24.9070  -28.9150   20.1710 C   0  0  0  0  0  0  0  0  0  0  0  0
  -25.9830  -30.7670   21.4380 C   0  0  0  0  0  2  0  0  0  0  0  0
  -26.0770  -29.3770   20.7930 C   0  0  0  0  0  0  0  0  0  0  0  0
  -27.2510  -28.5370   20.8150 C   0  0  0  0  0  3  0  0  0  0  0  0
  -26.0620  -26.8500   19.5610 C   0  0  0  0  0  3  0  0  0  0  0  0
  -24.9110  -27.6630   19.5400 C   0  0  0  0  0  3  0  0  0  0  0  0
  -23.6700  -29.7970   20.2050 C   0  0  0  0  0  2  0  0  0  0  0  0
  -24.6920  -31.0630   22.1370 N   0  0  0  0  0  0  0  0  0  0  0  0
  -23.5130  -32.1640   23.7420 O   0  0  0  0  0  0  0  0  0  0  0  0
  -22.7510  -29.4640   22.5390 C   0  0  0  0  0  0  0  0  0  0  0  0
  -21.4230  -29.2940   22.4080 N   0  0  0  0  0  0  0  0  0  0  0  0
  -23.4200  -28.8380   23.3640 O   0  0  0  0  0  0  0  0  0  0  0  0
  -20.9400  -29.8520   21.7180 H   0  0  0  0  0  0  0  0  0  0  0  0
  -18.0340  -28.1250   22.9270 C   0  0  0  0  0  0  0  0  0  0  0  0
  -20.5980  -28.3590   23.1780 C   0  0  0  0  0  3  0  0  0  0  0  0
  -20.6800  -26.9310   22.5890 C   0  0  0  0  0  2  0  0  0  0  0  0
  -19.5680  -26.6280   21.5810 C   0  0  0  0  0  2  0  0  0  0  0  0
  -18.1930  -26.7800   22.2380 C   0  0  0  0  0  2  0  0  0  0  0  0
  -19.1640  -28.8730   23.3550 C   0  0  0  0  0  0  0  0  0  0  0  0
  -18.9610  -30.1300   23.9630 C   0  0  0  0  0  3  0  0  0  0  0  0
  -17.6610  -30.6410   24.1450 C   0  0  0  0  0  3  0  0  0  0  0  0
  -16.5470  -29.8910   23.7330 C   0  0  0  0  0  3  0  0  0  0  0  0
  -16.7350  -28.6340   23.1290 C   0  0  0  0  0  3  0  0  0  0  0  0
  -25.8750  -32.5300   23.8610 C   0  0  0  0  0  3  0  0  0  0  0  0
  -25.5530  -33.9310   24.1770 N   0  0  0  0  0  0  0  0  0  0  0  0
  -25.8990  -34.9830   23.4230 C   0  0  0  0  0  0  0  0  0  0  0  0
  -26.5890  -34.8770   22.4050 O   0  0  0  0  0  0  0  0  0  0  0  0
  -24.9410  -34.0880   24.9640 H   0  0  0  0  0  0  0  0  0  0  0  0
  -24.1880  -36.7850   23.0190 C   0  0  0  0  0  1  0  0  0  0  0  0
  -25.4030  -36.3740   23.8680 C   0  0  0  0  0  3  0  0  0  0  0  0
  -27.5130  -37.2530   24.7650 C   0  0  0  0  0  1  0  0  0  0  0  0
  -26.4420  -37.4230   23.7870 N   0  0  0  0  0  0  0  0  0  0  0  0
  -26.0350  -38.3450   23.9190 H   0  0  0  0  0  0  0  0  0  0  0  0
  -26.3720  -31.7750   25.1540 C   0  0  1  0  0  0  0  0  0  0  0  0
  -25.2620  -31.5440   26.2070 C   0  0  0  0  0  1  0  0  0  0  0  0
  -26.9670  -30.3940   24.7910 C   0  0  0  0  0  1  0  0  0  0  0  0
  -27.5080  -32.5810   25.8270 C   0  0  0  0  0  1  0  0  0  0  0  0
  2  6  1  0
  2  1  1  0
  3 18  1  0
  3  1  2  0
  4  6  1  0
  4 49  1  0
  5  8  1  0
  5  2  2  0
  6  9  1  0
  7  4  2  0
  8  3  1  0
 10 18  1  0
 11 16  1  0
 12 13  1  0
 12 11  1  0
 14 13  1  0
 14 23  1  0
 14 15  1  0
 16 10  1  0
 16 15  1  0
 17 10  2  0
 18 19  1  0
 20 21  2  0
 21 40  1  0
 22 21  1  0
 22 25  1  0
 23 20  1  0
 23 24  1  0
 24 22  2  0
 25 26  1  0
 26 27  2  0
 28 31  1  0
 28 27  1  0
 29 28  2  0
 30 29  1  0
 30 25  2  0
 31 32  1  0
 32 33  1  0
 33 34  2  0
 35 34  1  0
 35 39  1  0
 36 35  2  0
 37 32  2  0
 37 36  1  0
 38 37  1  0
 40 41  1  0
 41 44  1  0
 41 43  1  0
 42 40  2  0
 45 46  1  0
 45 20  1  0
 47 45  1  0
 48 49  2  0
 49 50  1  0
 50 51  1  0
 52 48  1  0
 53 64  2  0
 54 52  1  0
 54 59  1  0
 55 63  1  0
 55 65  1  0
 56 62  1  0
 56 58  1  0
 57 63  1  0
 58 59  2  0
 58 57  1  0
 60 54  2  0
 61 60  1  0
 61 56  2  0
 62 55  1  0
 63 53  1  0
 65 67  2  0
 66 65  1  0
 68 66  1  0
 69 78  2  0
 69 74  1  0
 70 66  1  0
 70 74  1  0
 71 70  1  0
 72 73  1  0
 72 71  1  0
 73 69  1  0
 74 75  2  0
 75 76  1  0
 77 76  2  0
 78 77  1  0
 79 53  1  0
 79 80  1  0
 79 89  1  0
 80 83  1  0
 81 85  1  0
 81 80  1  0
 82 81  2  0
 85 84  1  0
 87 85  1  0
 87 88  1  0
 87 86  1  0
 89 92  1  1
 89 90  1  0
 91 89  1  0
M  ISO  4  10 100  18 100  48 101  52 101
M  END
>  <TORSDO>  (82) 
F 18

>  <SCORE>  (82) 
-15.015

>  <name>  (82) 
81

>  <ligand_id>  (82) 
81

>  <original_smiles>  (82) 
[H]OC(C(=O)N([H])c1noc(N([H])C(=O)N2C([H])([H])C([H])([H])C([H])([H])C([H])(n3nc(-c4c([H])c([H])c(Oc5c([H])c([H])c(F)c([H])c5F)c([H])c4[H])c(C(=O)N([H])[H])c3N([H])[H])C2([H])[H])c1[H])=C([H])Oc1c([H])c([H])c2c(c1[H])C([H])([H])N(C(=O)C([H])(N([H])C(=O)C([H])(N([H])C([H])([H])[H])C([H])([H])[H])C(C([H])([H])[H])(C([H])([H])[H])C([H])([H])[H])C([H])(C(=O)N([H])C1([H])c3c([H])c([H])c([H])c([H])c3C([H])([H])C([H])([H])C1([H])[H])C2([H])[H]

>  <smiles>  (82) 
[H]OC(C(=O)N([H])c1noc(N([H])C(=O)N2C([H])([H])C([H])([H])C([H])([H])C([H])(n3nc(-c4c([H])c([H])c(Oc5c([H])c([H])c(F)c([H])c5F)c([H])c4[H])c(C(=O)N([H])[H])c3N([H])[H])C2([H])[H])c1[H])=C([H])Oc1c([H])c([H])c2c(c1[H])C([H])([H])N(C(=O)C([H])(N([H])C(=O)C([H])(N([H])C([H])([H])[H])C([H])([H])[H])C(C([H])([H])[H])(C([H])([H])[H])C([H])([H])[H])C([H])(C(=O)N([H])C1([H])c3c([H])c([H])c([H])c([H])c3C([H])([H])C([H])([H])C1([H])[H])C2([H])[H]

$$$$
82:0:0
     RDKit          3D

 96105  0  0  1  0  0  0  0  0999 V2000
  -29.7820  -21.6650   18.8240 C   0  0  0  0  0  2  0  0  0  0  0  0
  -28.9590  -21.3030   21.0880 C   0  0  0  0  0  2  0  0  0  0  0  0
  -29.0750  -23.0400   18.7200 C   0  0  0  0  0  2  0  0  0  0  0  0
  -28.3030  -22.7380   21.0570 C   0  0  0  0  0  2  0  0  0  0  0  0
  -28.9830  -20.6390   19.6770 C   0  0  0  0  0  3  0  0  0  0  0  0
  -28.9170  -23.8030   20.0650 C   0  0  1  0  0  0  0  0  0  0  0  0
  -30.6240  -14.6430   20.6620 C   0  0  0  0  0  0  0  0  0  0  0  0
  -30.4070  -12.4000   19.6610 C   0  0  0  0  0  2  0  0  0  0  0  0
  -29.5170  -12.5230   18.4060 C   0  0  0  0  0  2  0  0  0  0  0  0
  -28.0300  -12.3820   18.7810 C   0  0  0  0  0  2  0  0  0  0  0  0
  -27.6270  -13.2740   19.9870 C   0  0  0  0  0  3  0  0  0  0  0  0
  -28.6360  -13.1490   21.1510 C   0  0  0  0  0  2  0  0  0  0  0  0
  -29.9750  -13.4420   20.6160 N   0  0  0  0  0  0  0  0  0  0  0  0
  -31.8010  -14.7530   20.3050 O   0  0  0  0  0  0  0  0  0  0  0  0
  -29.4580  -19.1580   19.5150 C   0  0  0  0  0  0  0  0  0  0  0  0
  -29.7130  -18.5540   18.2870 C   0  0  0  0  0  0  0  0  0  0  0  0
  -29.8880  -16.9480   20.1470 C   0  0  0  0  0  0  0  0  0  0  0  0
  -29.4980  -18.1850   20.5620 N   0  0  0  0  0  0  0  0  0  0  0  0
  -29.8940  -15.7540   20.9600 N   0  0  0  0  0  0  0  0  0  0  0  0
  -30.2020  -16.8880   18.4200 S   0  0  0  0  0  0  0  0  0  0  0  0
  -29.0610  -15.6000   21.5030 H   0  0  0  0  0  0  0  0  0  0  0  0
  -25.2040  -13.8890   20.5950 C   0  0  0  0  0  0  0  0  0  0  0  0
  -24.1240  -13.1210   20.9350 C   0  0  0  0  0  0  0  0  0  0  0  0
  -24.5850  -11.7670   20.9410 C   0  0  0  0  0  0  0  0  0  0  0  0
  -26.2580  -13.0040   20.4180 N   0  0  0  0  0  0  0  0  0  0  0  0
  -25.8860  -11.7250   20.6870 N   0  0  0  0  0  0  0  0  0  0  0  0
  -23.8510  -10.5050   21.1120 C   0  0  0  0  0  0  0  0  0  0  0  0
  -24.2640   -9.5330   22.0490 C   0  0  0  0  0  3  0  0  0  0  0  0
  -23.5270   -8.3410   22.2150 C   0  0  0  0  0  3  0  0  0  0  0  0
  -22.3630   -8.1120   21.4450 C   0  0  0  0  0  0  0  0  0  0  0  0
  -21.9740   -9.0700   20.4940 C   0  0  0  0  0  3  0  0  0  0  0  0
  -22.7110  -10.2550   20.3240 C   0  0  0  0  0  3  0  0  0  0  0  0
  -21.6020   -6.9700   21.5200 O   0  0  0  0  0  0  0  0  0  0  0  0
  -21.5470   -6.2140   22.6640 C   0  0  0  0  0  0  0  0  0  0  0  0
  -21.1370   -6.7620   23.8990 C   0  0  0  0  0  3  0  0  0  0  0  0
  -21.0260   -5.9350   25.0340 C   0  0  0  0  0  3  0  0  0  0  0  0
  -21.3170   -4.5610   24.9340 C   0  0  0  0  0  0  0  0  0  0  0  0
  -21.7260   -4.0130   23.7060 C   0  0  0  0  0  3  0  0  0  0  0  0
  -21.8370   -4.8370   22.5720 C   0  0  0  0  0  0  0  0  0  0  0  0
  -22.2050   -4.3000   21.3830 F   0  0  0  0  0  0  0  0  0  0  0  0
  -21.2100   -3.7650   26.0240 F   0  0  0  0  0  0  0  0  0  0  0  0
  -22.7170  -13.5980   21.1480 C   0  0  0  0  0  0  0  0  0  0  0  0
  -21.9600  -12.9090   21.9940 N   0  0  0  0  0  0  0  0  0  0  0  0
  -22.2960  -14.6150   20.5970 O   0  0  0  0  0  0  0  0  0  0  0  0
  -22.3140  -12.0850   22.4550 H   0  0  0  0  0  0  0  0  0  0  0  0
  -21.0100  -13.2060   22.1770 H   0  0  0  0  0  0  0  0  0  0  0  0
  -25.3780  -15.2560   20.3980 N   0  0  0  0  0  0  0  0  0  0  0  0
  -24.6210  -15.9250   20.4970 H   0  0  0  0  0  0  0  0  0  0  0  0
  -26.2250  -15.6810   20.0410 H   0  0  0  0  0  0  0  0  0  0  0  0
  -29.5750  -19.0550   16.9970 N   0  0  0  0  0  0  0  0  0  0  0  0
  -29.0300  -19.8890   16.7940 H   0  0  0  0  0  0  0  0  0  0  0  0
  -29.7610  -18.5150   16.1580 H   0  0  0  0  0  0  0  0  0  0  0  0
  -30.5070  -24.9220   21.5580 C   0  0  0  0  0  1  0  0  0  0  0  0
  -30.2680  -24.1350   20.3990 O   0  0  0  0  0  0  0  0  0  0  0  0
  -27.9620  -25.0680   19.8330 C   0  0  0  0  0  2  0  0  0  0  0  0
  -28.2700  -26.4930   20.0780 O   0  0  0  0  0  0  0  0  0  0  0  0
  -24.6310  -31.8930   23.2040 C   0  0  0  0  0  0  0  0  0  0  0  0
  -27.1650  -27.3650   20.0510 C   0  0  0  0  0  0  0  0  0  0  0  0
  -23.3930  -30.5070   21.5850 C   0  0  0  0  0  3  0  0  0  0  0  0
  -24.8080  -28.9850   20.1130 C   0  0  0  0  0  0  0  0  0  0  0  0
  -25.9300  -30.8310   21.3470 C   0  0  0  0  0  2  0  0  0  0  0  0
  -25.9950  -29.4600   20.6880 C   0  0  0  0  0  0  0  0  0  0  0  0
  -27.1750  -28.6580   20.6560 C   0  0  0  0  0  3  0  0  0  0  0  0
  -25.9460  -26.9540   19.4460 C   0  0  0  0  0  3  0  0  0  0  0  0
  -24.7840  -27.7340   19.4900 C   0  0  0  0  0  3  0  0  0  0  0  0
  -23.5730  -29.8520   20.1940 C   0  0  0  0  0  2  0  0  0  0  0  0
  -24.6730  -31.0940   22.1010 N   0  0  0  0  0  0  0  0  0  0  0  0
  -23.5580  -32.1640   23.7620 O   0  0  0  0  0  0  0  0  0  0  0  0
  -22.7580  -29.4740   22.5460 C   0  0  0  0  0  0  0  0  0  0  0  0
  -21.4330  -29.2840   22.4360 N   0  0  0  0  0  0  0  0  0  0  0  0
  -23.4540  -28.8480   23.3500 O   0  0  0  0  0  0  0  0  0  0  0  0
  -20.9310  -29.8440   21.7620 H   0  0  0  0  0  0  0  0  0  0  0  0
  -18.0730  -28.0540   22.9670 C   0  0  0  0  0  0  0  0  0  0  0  0
  -20.6310  -28.3370   23.2130 C   0  0  0  0  0  3  0  0  0  0  0  0
  -20.7400  -26.9060   22.6360 C   0  0  0  0  0  2  0  0  0  0  0  0
  -19.6300  -26.5730   21.6340 C   0  0  0  0  0  2  0  0  0  0  0  0
  -18.2520  -26.7060   22.2900 C   0  0  0  0  0  2  0  0  0  0  0  0
  -19.1870  -28.8280   23.3840 C   0  0  0  0  0  0  0  0  0  0  0  0
  -18.9580  -30.0940   23.9700 C   0  0  0  0  0  3  0  0  0  0  0  0
  -17.6490  -30.5800   24.1460 C   0  0  0  0  0  3  0  0  0  0  0  0
  -16.5510  -29.8030   23.7430 C   0  0  0  0  0  3  0  0  0  0  0  0
  -16.7620  -28.5420   23.1610 C   0  0  0  0  0  3  0  0  0  0  0  0
  -25.9250  -32.5260   23.8000 C   0  0  0  0  0  3  0  0  0  0  0  0
  -26.4740  -31.7380   25.0520 C   0  0  1  0  0  0  0  0  0  0  0  0
  -25.4120  -31.4810   26.1460 C   0  0  0  0  0  1  0  0  0  0  0  0
  -27.0550  -30.3710   24.6250 C   0  0  0  0  0  1  0  0  0  0  0  0
  -27.6340  -32.5320   25.6960 C   0  0  0  0  0  1  0  0  0  0  0  0
  -25.6140  -33.9160   24.1600 N   0  0  0  0  0  0  0  0  0  0  0  0
  -25.9150  -34.9830   23.4080 C   0  0  0  0  0  0  0  0  0  0  0  0
  -26.5540  -34.9010   22.3560 O   0  0  0  0  0  0  0  0  0  0  0  0
  -25.0490  -34.0530   24.9850 H   0  0  0  0  0  0  0  0  0  0  0  0
  -24.1590  -36.7650   23.1290 C   0  0  0  0  0  1  0  0  0  0  0  0
  -25.4270  -36.3600   23.8990 C   0  0  0  0  0  3  0  0  0  0  0  0
  -27.5820  -37.2480   24.6760 C   0  0  0  0  0  1  0  0  0  0  0  0
  -26.4470  -37.4240   23.7750 N   0  0  0  0  0  0  0  0  0  0  0  0
  -26.0380  -38.3380   23.9570 H   0  0  0  0  0  0  0  0  0  0  0  0
  1  5  1  0
  3  1  1  0
  3  6  1  0
  4  2  1  0
  5 15  1  0
  5  2  1  0
  6 55  1  6
  6 54  1  0
  6  4  1  0
  7 19  1  0
  8 13  1  0
  9 10  1  0
  9  8  1  0
 11 10  1  0
 11 25  1  0
 11 12  1  0
 13  7  1  0
 13 12  1  0
 14  7  2  0
 15 18  1  0
 16 20  1  0
 16 15  2  0
 17 18  2  0
 17 19  1  0
 19 21  1  0
 20 17  1  0
 22 23  2  0
 23 24  1  0
 23 42  1  0
 24 27  1  0
 25 22  1  0
 25 26  1  0
 26 24  2  0
 27 28  1  0
 28 29  2  0
 30 33  1  0
 30 29  1  0
 31 30  2  0
 32 31  1  0
 32 27  2  0
 33 34  1  0
 34 35  1  0
 35 36  2  0
 37 36  1  0
 37 41  1  0
 38 37  2  0
 39 34  2  0
 39 38  1  0
 40 39  1  0
 42 43  1  0
 43 46  1  0
 43 45  1  0
 44 42  2  0
 47 48  1  0
 47 22  1  0
 49 47  1  0
 50 16  1  0
 51 50  1  0
 52 50  1  0
 54 53  1  0
 55 56  1  0
 57 68  2  0
 58 56  1  0
 58 63  1  0
 59 67  1  0
 59 69  1  0
 60 66  1  0
 60 62  1  0
 61 67  1  0
 62 61  1  0
 63 62  2  0
 64 65  1  0
 64 58  2  0
 65 60  2  0
 66 59  1  0
 67 57  1  0
 69 71  2  0
 70 69  1  0
 72 70  1  0
 73 82  2  0
 73 78  1  0
 74 70  1  0
 74 78  1  0
 75 74  1  0
 76 77  1  0
 76 75  1  0
 77 73  1  0
 78 79  2  0
 79 80  1  0
 81 80  2  0
 82 81  1  0
 83 57  1  0
 83 88  1  0
 83 84  1  0
 84 87  1  1
 84 85  1  0
 86 84  1  0
 88 91  1  0
 89 93  1  0
 89 88  1  0
 90 89  2  0
 93 92  1  0
 95 93  1  0
 95 96  1  0
 95 94  1  0
M  ISO  4   7 100  19 100  55 101  56 101
M  END
>  <TORSDO>  (83) 
F 19

>  <SCORE>  (83) 
-14.386

>  <name>  (83) 
82

>  <ligand_id>  (83) 
82

>  <original_smiles>  (83) 
[H]c1c([H])c([H])c2c(c1[H])C([H])([H])C([H])([H])C([H])([H])C2([H])N([H])C(=O)C1([H])N(C(=O)C([H])(N([H])C(=O)C([H])(N([H])C([H])([H])[H])C([H])([H])[H])C(C([H])([H])[H])(C([H])([H])[H])C([H])([H])[H])C([H])([H])c2c([H])c(OC([H])([H])C3(OC([H])([H])[H])C([H])([H])C([H])([H])C([H])(c4nc(N([H])C(=O)N5C([H])([H])C([H])([H])C([H])([H])C([H])(n6nc(-c7c([H])c([H])c(Oc8c([H])c([H])c(F)c([H])c8F)c([H])c7[H])c(C(=O)N([H])[H])c6N([H])[H])C5([H])[H])sc4N([H])[H])C([H])([H])C3([H])[H])c([H])c([H])c2C1([H])[H]

>  <smiles>  (83) 
[H]c1c([H])c([H])c2c(c1[H])C([H])([H])C([H])([H])C([H])([H])C2([H])N([H])C(=O)C1([H])N(C(=O)C([H])(N([H])C(=O)C([H])(N([H])C([H])([H])[H])C([H])([H])[H])C(C([H])([H])[H])(C([H])([H])[H])C([H])([H])[H])C([H])([H])c2c([H])c(OC([H])([H])C3(OC([H])([H])[H])C([H])([H])C([H])([H])C([H])(c4nc(N([H])C(=O)N5C([H])([H])C([H])([H])C([H])([H])C([H])(n6nc(-c7c([H])c([H])c(Oc8c([H])c([H])c(F)c([H])c8F)c([H])c7[H])c(C(=O)N([H])[H])c6N([H])[H])C5([H])[H])sc4N([H])[H])C([H])([H])C3([H])[H])c([H])c([H])c2C1([H])[H]

$$$$
83:0:0
     RDKit          3D

 94103  0  0  1  0  0  0  0  0999 V2000
  -29.2140  -21.3020   18.9870 C   0  0  0  0  0  2  0  0  0  0  0  0
  -28.5260  -22.6980   18.8890 C   0  0  0  0  0  2  0  0  0  0  0  0
  -28.9500  -23.0220   21.3430 C   0  0  0  0  0  2  0  0  0  0  0  0
  -29.0770  -20.6720   20.3920 C   0  0  0  0  0  3  0  0  0  0  0  0
  -28.9630  -23.7610   19.9540 C   0  0  1  0  0  0  0  0  0  0  0  0
  -29.6200  -21.6650   21.3610 N   0  0  0  0  0  4  0  0  0  0  0  0
  -30.2160  -24.1130   19.6620 F   0  0  0  0  0  0  0  0  0  0  0  0
  -29.5390  -21.2690   22.2830 H   0  0  0  0  0  0  0  0  0  0  0  0
  -30.6050  -21.7640   21.1730 H   0  0  0  0  0  0  0  0  0  0  0  0
  -31.3680  -17.7700   20.8430 C   0  0  0  0  0  3  0  0  0  0  0  0
  -30.1720  -17.1020   20.6960 C   0  0  0  0  0  0  0  0  0  0  0  0
  -29.8370  -19.3300   20.6000 C   0  0  0  0  0  0  0  0  0  0  0  0
  -31.1480  -19.1550   20.7980 N   0  0  0  0  0  0  0  0  0  0  0  0
  -29.1990  -18.1020   20.5410 O   0  0  0  0  0  0  0  0  0  0  0  0
  -30.6050  -14.6640   20.4190 C   0  0  0  0  0  0  0  0  0  0  0  0
  -30.3630  -12.4410   19.3370 C   0  0  0  0  0  2  0  0  0  0  0  0
  -29.4050  -12.5740   18.1340 C   0  0  0  0  0  2  0  0  0  0  0  0
  -27.9390  -12.4040   18.5810 C   0  0  0  0  0  2  0  0  0  0  0  0
  -27.5910  -13.2600   19.8290 C   0  0  0  0  0  3  0  0  0  0  0  0
  -28.6650  -13.1170   20.9300 C   0  0  0  0  0  2  0  0  0  0  0  0
  -29.9640  -13.4570   20.3310 N   0  0  0  0  0  0  0  0  0  0  0  0
  -31.7790  -14.7900   20.0570 O   0  0  0  0  0  0  0  0  0  0  0  0
  -29.8260  -15.7580   20.6960 N   0  0  0  0  0  0  0  0  0  0  0  0
  -28.8530  -15.5530   20.8590 H   0  0  0  0  0  0  0  0  0  0  0  0
  -25.2020  -13.8380   20.5770 C   0  0  0  0  0  0  0  0  0  0  0  0
  -24.1450  -13.0550   20.9560 C   0  0  0  0  0  0  0  0  0  0  0  0
  -24.6180  -11.7070   20.9160 C   0  0  0  0  0  0  0  0  0  0  0  0
  -26.2510  -12.9660   20.3290 N   0  0  0  0  0  0  0  0  0  0  0  0
  -25.9050  -11.6800   20.5940 N   0  0  0  0  0  0  0  0  0  0  0  0
  -23.9020  -10.4380   21.1080 C   0  0  0  0  0  0  0  0  0  0  0  0
  -24.3540   -9.4680   22.0290 C   0  0  0  0  0  3  0  0  0  0  0  0
  -23.6380   -8.2650   22.2100 C   0  0  0  0  0  3  0  0  0  0  0  0
  -22.4560   -8.0230   21.4700 C   0  0  0  0  0  0  0  0  0  0  0  0
  -22.0240   -8.9830   20.5370 C   0  0  0  0  0  3  0  0  0  0  0  0
  -22.7400  -10.1770   20.3550 C   0  0  0  0  0  3  0  0  0  0  0  0
  -21.7120   -6.8730   21.5600 O   0  0  0  0  0  0  0  0  0  0  0  0
  -21.6840   -6.1220   22.7080 C   0  0  0  0  0  0  0  0  0  0  0  0
  -21.2490   -6.6590   23.9390 C   0  0  0  0  0  3  0  0  0  0  0  0
  -21.1710   -5.8330   25.0800 C   0  0  0  0  0  3  0  0  0  0  0  0
  -21.5160   -4.4720   24.9880 C   0  0  0  0  0  0  0  0  0  0  0  0
  -21.9440   -3.9350   23.7620 C   0  0  0  0  0  3  0  0  0  0  0  0
  -22.0240   -4.7560   22.6240 C   0  0  0  0  0  0  0  0  0  0  0  0
  -22.4160   -4.2290   21.4400 F   0  0  0  0  0  0  0  0  0  0  0  0
  -21.4340   -3.6770   26.0800 F   0  0  0  0  0  0  0  0  0  0  0  0
  -22.7470  -13.5210   21.2420 C   0  0  0  0  0  0  0  0  0  0  0  0
  -22.0320  -12.8170   22.1140 N   0  0  0  0  0  0  0  0  0  0  0  0
  -22.2960  -14.5430   20.7280 O   0  0  0  0  0  0  0  0  0  0  0  0
  -22.4110  -11.9900   22.5520 H   0  0  0  0  0  0  0  0  0  0  0  0
  -21.0950  -13.1120   22.3490 H   0  0  0  0  0  0  0  0  0  0  0  0
  -25.3520  -15.2100   20.4000 N   0  0  0  0  0  0  0  0  0  0  0  0
  -24.5750  -15.8520   20.5120 H   0  0  0  0  0  0  0  0  0  0  0  0
  -26.1820  -15.6570   20.0300 H   0  0  0  0  0  0  0  0  0  0  0  0
  -28.0130  -25.0460   19.8010 C   0  0  0  0  0  2  0  0  0  0  0  0
  -28.2740  -26.4500   20.2140 O   0  0  0  0  0  0  0  0  0  0  0  0
  -24.5860  -31.8900   23.2530 C   0  0  0  0  0  0  0  0  0  0  0  0
  -27.1720  -27.3320   20.1590 C   0  0  0  0  0  0  0  0  0  0  0  0
  -23.3750  -30.5060   21.6100 C   0  0  0  0  0  3  0  0  0  0  0  0
  -24.8160  -28.9690   20.1700 C   0  0  0  0  0  0  0  0  0  0  0  0
  -25.9180  -30.8110   21.4280 C   0  0  0  0  0  2  0  0  0  0  0  0
  -25.9910  -29.4380   20.7720 C   0  0  0  0  0  0  0  0  0  0  0  0
  -27.1700  -28.6310   20.7610 C   0  0  0  0  0  3  0  0  0  0  0  0
  -25.9670  -26.9340   19.5220 C   0  0  0  0  0  3  0  0  0  0  0  0
  -24.8060  -27.7210   19.5400 C   0  0  0  0  0  3  0  0  0  0  0  0
  -23.5840  -29.8460   20.2250 C   0  0  0  0  0  2  0  0  0  0  0  0
  -24.6460  -31.0850   22.1520 N   0  0  0  0  0  0  0  0  0  0  0  0
  -23.5040  -32.1680   23.7890 O   0  0  0  0  0  0  0  0  0  0  0  0
  -22.7110  -29.4810   22.5630 C   0  0  0  0  0  0  0  0  0  0  0  0
  -21.3860  -29.3040   22.4320 N   0  0  0  0  0  0  0  0  0  0  0  0
  -23.3880  -28.8510   23.3790 O   0  0  0  0  0  0  0  0  0  0  0  0
  -20.8990  -29.8640   21.7470 H   0  0  0  0  0  0  0  0  0  0  0  0
  -18.0040  -28.1190   22.9310 C   0  0  0  0  0  0  0  0  0  0  0  0
  -20.5630  -28.3670   23.2000 C   0  0  0  0  0  3  0  0  0  0  0  0
  -20.6590  -26.9380   22.6180 C   0  0  0  0  0  2  0  0  0  0  0  0
  -19.5550  -26.6230   21.6050 C   0  0  0  0  0  2  0  0  0  0  0  0
  -18.1750  -26.7710   22.2500 C   0  0  0  0  0  2  0  0  0  0  0  0
  -19.1250  -28.8760   23.3620 C   0  0  0  0  0  0  0  0  0  0  0  0
  -18.9120  -30.1370   23.9580 C   0  0  0  0  0  3  0  0  0  0  0  0
  -17.6090  -30.6430   24.1270 C   0  0  0  0  0  3  0  0  0  0  0  0
  -16.5010  -29.8830   23.7110 C   0  0  0  0  0  3  0  0  0  0  0  0
  -16.7000  -28.6230   23.1190 C   0  0  0  0  0  3  0  0  0  0  0  0
  -25.8730  -32.5140   23.8750 C   0  0  0  0  0  3  0  0  0  0  0  0
  -25.5720  -33.9150   24.2010 N   0  0  0  0  0  0  0  0  0  0  0  0
  -25.8970  -34.9630   23.4320 C   0  0  0  0  0  0  0  0  0  0  0  0
  -26.5550  -34.8520   22.3940 O   0  0  0  0  0  0  0  0  0  0  0  0
  -24.9870  -34.0760   25.0090 H   0  0  0  0  0  0  0  0  0  0  0  0
  -24.1720  -36.7600   23.0890 C   0  0  0  0  0  1  0  0  0  0  0  0
  -25.4200  -36.3550   23.8890 C   0  0  0  0  0  3  0  0  0  0  0  0
  -27.5640  -37.2390   24.6950 C   0  0  0  0  0  1  0  0  0  0  0  0
  -26.4550  -37.4040   23.7590 N   0  0  0  0  0  0  0  0  0  0  0  0
  -26.0530  -38.3270   23.9040 H   0  0  0  0  0  0  0  0  0  0  0  0
  -26.3800  -31.7420   25.1540 C   0  0  1  0  0  0  0  0  0  0  0  0
  -25.2820  -31.5120   26.2180 C   0  0  0  0  0  1  0  0  0  0  0  0
  -26.9580  -30.3600   24.7680 C   0  0  0  0  0  1  0  0  0  0  0  0
  -27.5340  -32.5310   25.8180 C   0  0  0  0  0  1  0  0  0  0  0  0
  1  4  1  0
  2  1  1  0
  2  5  1  0
  3  6  1  0
  4 12  1  0
  4  6  1  0
  5  7  1  6
  5  3  1  0
  6  8  1  0
  9  6  1  0
 11 10  2  0
 12 13  2  0
 13 10  1  0
 14 12  1  0
 14 11  1  0
 15 23  1  0
 16 21  1  0
 17 18  1  0
 17 16  1  0
 19 18  1  0
 19 28  1  0
 19 20  1  0
 21 15  1  0
 21 20  1  0
 22 15  2  0
 23 11  1  0
 23 24  1  0
 25 26  2  0
 26 45  1  0
 27 26  1  0
 27 30  1  0
 28 25  1  0
 28 29  1  0
 29 27  2  0
 30 31  1  0
 31 32  2  0
 33 36  1  0
 33 32  1  0
 34 33  2  0
 35 34  1  0
 35 30  2  0
 36 37  1  0
 37 38  1  0
 38 39  2  0
 40 39  1  0
 40 44  1  0
 41 40  2  0
 42 37  2  0
 42 41  1  0
 43 42  1  0
 45 46  1  0
 46 49  1  0
 46 48  1  0
 47 45  2  0
 50 51  1  0
 50 25  1  0
 52 50  1  0
 53  5  1  0
 53 54  1  0
 55 66  2  0
 56 54  1  0
 56 61  1  0
 57 65  1  0
 57 67  1  0
 58 64  1  0
 58 60  1  0
 59 65  1  0
 60 59  1  0
 61 60  2  0
 62 63  1  0
 62 56  2  0
 63 58  2  0
 64 57  1  0
 65 55  1  0
 67 69  2  0
 68 67  1  0
 70 68  1  0
 71 80  2  0
 71 76  1  0
 72 68  1  0
 72 76  1  0
 73 72  1  0
 74 75  1  0
 74 73  1  0
 75 71  1  0
 76 77  2  0
 77 78  1  0
 79 78  2  0
 80 79  1  0
 81 55  1  0
 81 82  1  0
 81 91  1  0
 82 85  1  0
 83 87  1  0
 83 82  1  0
 84 83  2  0
 87 86  1  0
 89 87  1  0
 89 90  1  0
 89 88  1  0
 91 94  1  1
 91 92  1  0
 93 91  1  0
M  ISO  4  15 100  23 100  53 101  54 101
M  END
>  <TORSDO>  (84) 
F 18

>  <SCORE>  (84) 
-14.935

>  <name>  (84) 
83

>  <ligand_id>  (84) 
83

>  <original_smiles>  (84) 
[H]c1nc(C2([H])C([H])([H])C([H])([H])C(F)(C([H])([H])Oc3c([H])c([H])c4c(c3[H])C([H])([H])N(C(=O)C([H])(N([H])C(=O)C([H])(N([H])C([H])([H])[H])C([H])([H])[H])C(C([H])([H])[H])(C([H])([H])[H])C([H])([H])[H])C([H])(C(=O)N([H])C3([H])c5c([H])c([H])c([H])c([H])c5C([H])([H])C([H])([H])C3([H])[H])C4([H])[H])C([H])([H])[N+]2([H])[H])oc1N([H])C(=O)N1C([H])([H])C([H])([H])C([H])([H])C([H])(n2nc(-c3c([H])c([H])c(Oc4c([H])c([H])c(F)c([H])c4F)c([H])c3[H])c(C(=O)N([H])[H])c2N([H])[H])C1([H])[H]

>  <smiles>  (84) 
[H]c1nc(C2([H])C([H])([H])C([H])([H])C(F)(C([H])([H])Oc3c([H])c([H])c4c(c3[H])C([H])([H])N(C(=O)C([H])(N([H])C(=O)C([H])(N([H])C([H])([H])[H])C([H])([H])[H])C(C([H])([H])[H])(C([H])([H])[H])C([H])([H])[H])C([H])(C(=O)N([H])C3([H])c5c([H])c([H])c([H])c([H])c5C([H])([H])C([H])([H])C3([H])[H])C4([H])[H])C([H])([H])[N+]2([H])[H])oc1N([H])C(=O)N1C([H])([H])C([H])([H])C([H])([H])C([H])(n2nc(-c3c([H])c([H])c(Oc4c([H])c([H])c(F)c([H])c4F)c([H])c3[H])c(C(=O)N([H])[H])c2N([H])[H])C1([H])[H]

$$$$
84:0:0
     RDKit          3D

 94103  0  0  1  0  0  0  0  0999 V2000
  -28.0040  -22.8180   19.0030 C   0  0  0  0  0  2  0  0  0  0  0  0
  -28.5020  -21.3340   18.9670 C   0  0  0  0  0  2  0  0  0  0  0  0
  -28.8570  -23.6030   20.0440 C   0  0  1  0  0  0  0  0  0  0  0  0
  -29.1390  -22.3220   21.0210 C   0  0  2  0  0  0  0  0  0  0  0  0
  -27.9320  -22.0570   21.9510 C   0  0  0  0  0  1  0  0  0  0  0  0
  -30.3370  -22.5790   21.9530 C   0  0  0  0  0  1  0  0  0  0  0  0
  -29.3240  -21.0950   20.1490 N   0  0  0  0  0  0  0  0  0  0  0  0
  -30.9810  -19.4570   21.1960 C   0  0  0  0  0  3  0  0  0  0  0  0
  -31.1890  -18.0290   21.1730 C   0  0  0  0  0  3  0  0  0  0  0  0
  -29.8410  -19.7540   20.4860 C   0  0  0  0  0  0  0  0  0  0  0  0
  -30.1830  -17.4660   20.4360 C   0  0  0  0  0  0  0  0  0  0  0  0
  -29.3330  -18.5210   19.9990 O   0  0  0  0  0  0  0  0  0  0  0  0
  -30.8050  -14.9680   20.2020 C   0  0  0  0  0  0  0  0  0  0  0  0
  -30.6690  -12.6480   19.2450 C   0  0  0  0  0  2  0  0  0  0  0  0
  -29.7110  -12.6340   18.0320 C   0  0  0  0  0  2  0  0  0  0  0  0
  -28.2540  -12.4360   18.4880 C   0  0  0  0  0  2  0  0  0  0  0  0
  -27.8660  -13.3750   19.6610 C   0  0  0  0  0  3  0  0  0  0  0  0
  -28.9330  -13.3550   20.7750 C   0  0  0  0  0  2  0  0  0  0  0  0
  -30.2120  -13.7210   20.1570 N   0  0  0  0  0  0  0  0  0  0  0  0
  -32.0040  -15.0740   19.9260 O   0  0  0  0  0  0  0  0  0  0  0  0
  -29.9590  -16.0770   20.2790 N   0  0  0  0  0  0  0  0  0  0  0  0
  -28.9880  -15.8240   20.2190 H   0  0  0  0  0  0  0  0  0  0  0  0
  -25.4990  -13.9770   20.4380 C   0  0  0  0  0  0  0  0  0  0  0  0
  -24.4340  -13.2060   20.8170 C   0  0  0  0  0  0  0  0  0  0  0  0
  -24.8910  -11.8540   20.7690 C   0  0  0  0  0  0  0  0  0  0  0  0
  -26.5310  -13.0930   20.1740 N   0  0  0  0  0  0  0  0  0  0  0  0
  -26.1760  -11.8110   20.4390 N   0  0  0  0  0  0  0  0  0  0  0  0
  -24.1600  -10.5930   20.9570 C   0  0  0  0  0  0  0  0  0  0  0  0
  -24.5780   -9.6310   21.9040 C   0  0  0  0  0  3  0  0  0  0  0  0
  -23.8510   -8.4350   22.0780 C   0  0  0  0  0  3  0  0  0  0  0  0
  -22.6890   -8.1930   21.3070 C   0  0  0  0  0  0  0  0  0  0  0  0
  -22.2890   -9.1430   20.3500 C   0  0  0  0  0  3  0  0  0  0  0  0
  -23.0190  -10.3300   20.1740 C   0  0  0  0  0  3  0  0  0  0  0  0
  -21.9320   -7.0510   21.3930 O   0  0  0  0  0  0  0  0  0  0  0  0
  -21.8300   -6.3410   22.5610 C   0  0  0  0  0  0  0  0  0  0  0  0
  -21.3080   -6.9160   23.7400 C   0  0  0  0  0  3  0  0  0  0  0  0
  -21.1550   -6.1310   24.8990 C   0  0  0  0  0  3  0  0  0  0  0  0
  -21.5160   -4.7700   24.8800 C   0  0  0  0  0  0  0  0  0  0  0  0
  -22.0320   -4.1940   23.7070 C   0  0  0  0  0  3  0  0  0  0  0  0
  -22.1840   -4.9760   22.5500 C   0  0  0  0  0  0  0  0  0  0  0  0
  -22.6630   -4.4110   21.4150 F   0  0  0  0  0  0  0  0  0  0  0  0
  -21.3600   -4.0130   25.9910 F   0  0  0  0  0  0  0  0  0  0  0  0
  -23.0440  -13.6890   21.1110 C   0  0  0  0  0  0  0  0  0  0  0  0
  -22.3230  -12.9870   21.9800 N   0  0  0  0  0  0  0  0  0  0  0  0
  -22.6070  -14.7220   20.6070 O   0  0  0  0  0  0  0  0  0  0  0  0
  -22.6910  -12.1530   22.4110 H   0  0  0  0  0  0  0  0  0  0  0  0
  -21.3920  -13.2940   22.2200 H   0  0  0  0  0  0  0  0  0  0  0  0
  -25.6670  -15.3500   20.2700 N   0  0  0  0  0  0  0  0  0  0  0  0
  -24.9040  -16.0050   20.4000 H   0  0  0  0  0  0  0  0  0  0  0  0
  -26.4960  -15.7860   19.8860 H   0  0  0  0  0  0  0  0  0  0  0  0
  -30.1480  -24.5460   18.2150 C   0  0  0  0  0  1  0  0  0  0  0  0
  -30.1390  -23.9540   19.5100 O   0  0  0  0  0  0  0  0  0  0  0  0
  -28.2130  -25.0160   20.6350 C   0  0  0  0  0  2  0  0  0  0  0  0
  -28.4150  -26.4290   20.0860 O   0  0  0  0  0  0  0  0  0  0  0  0
  -24.6450  -31.8800   23.1390 C   0  0  0  0  0  0  0  0  0  0  0  0
  -27.3260  -27.3390   20.0620 C   0  0  0  0  0  0  0  0  0  0  0  0
  -23.4790  -30.4910   21.4680 C   0  0  0  0  0  3  0  0  0  0  0  0
  -24.9640  -28.9770   20.0270 C   0  0  0  0  0  0  0  0  0  0  0  0
  -26.0190  -30.8390   21.3080 C   0  0  0  0  0  2  0  0  0  0  0  0
  -26.1270  -29.4640   20.6400 C   0  0  0  0  0  0  0  0  0  0  0  0
  -27.3180  -28.6620   20.6330 C   0  0  0  0  0  3  0  0  0  0  0  0
  -26.1430  -26.9280   19.4200 C   0  0  0  0  0  3  0  0  0  0  0  0
  -24.9780  -27.7210   19.4030 C   0  0  0  0  0  3  0  0  0  0  0  0
  -23.7170  -29.8390   20.0790 C   0  0  0  0  0  2  0  0  0  0  0  0
  -24.7340  -31.0880   22.0290 N   0  0  0  0  0  0  0  0  0  0  0  0
  -23.5530  -32.1310   23.6690 O   0  0  0  0  0  0  0  0  0  0  0  0
  -22.8210  -29.4500   22.4060 C   0  0  0  0  0  0  0  0  0  0  0  0
  -21.4940  -29.2740   22.2900 N   0  0  0  0  0  0  0  0  0  0  0  0
  -23.5060  -28.8040   23.2040 O   0  0  0  0  0  0  0  0  0  0  0  0
  -20.9940  -29.8500   21.6260 H   0  0  0  0  0  0  0  0  0  0  0  0
  -18.1210  -28.0720   22.8130 C   0  0  0  0  0  0  0  0  0  0  0  0
  -20.6850  -28.3130   23.0440 C   0  0  0  0  0  3  0  0  0  0  0  0
  -20.7700  -26.9020   22.4200 C   0  0  0  0  0  2  0  0  0  0  0  0
  -19.6500  -26.6160   21.4140 C   0  0  0  0  0  2  0  0  0  0  0  0
  -18.2800  -26.7460   22.0880 C   0  0  0  0  0  2  0  0  0  0  0  0
  -19.2500  -28.8150   23.2490 C   0  0  0  0  0  0  0  0  0  0  0  0
  -19.0450  -30.0550   23.8900 C   0  0  0  0  0  3  0  0  0  0  0  0
  -17.7460  -30.5540   24.0980 C   0  0  0  0  0  3  0  0  0  0  0  0
  -16.6310  -29.8060   23.6780 C   0  0  0  0  0  3  0  0  0  0  0  0
  -16.8210  -28.5660   23.0410 C   0  0  0  0  0  3  0  0  0  0  0  0
  -25.9100  -32.5270   23.7820 C   0  0  0  0  0  3  0  0  0  0  0  0
  -26.4280  -31.7470   25.0530 C   0  0  1  0  0  0  0  0  0  0  0  0
  -25.3290  -31.4840   26.1090 C   0  0  0  0  0  1  0  0  0  0  0  0
  -27.0320  -30.3820   24.6510 C   0  0  0  0  0  1  0  0  0  0  0  0
  -27.5590  -32.5510   25.7380 C   0  0  0  0  0  1  0  0  0  0  0  0
  -25.5740  -33.9150   24.1330 N   0  0  0  0  0  0  0  0  0  0  0  0
  -25.8930  -34.9870   23.3980 C   0  0  0  0  0  0  0  0  0  0  0  0
  -26.5710  -34.9130   22.3690 O   0  0  0  0  0  0  0  0  0  0  0  0
  -24.9700  -34.0450   24.9320 H   0  0  0  0  0  0  0  0  0  0  0  0
  -24.1520  -36.7710   23.0560 C   0  0  0  0  0  1  0  0  0  0  0  0
  -25.3830  -36.3590   23.8790 C   0  0  0  0  0  3  0  0  0  0  0  0
  -27.4860  -37.2560   24.7740 C   0  0  0  0  0  1  0  0  0  0  0  0
  -26.4050  -37.4260   23.8080 N   0  0  0  0  0  0  0  0  0  0  0  0
  -25.9830  -38.3370   23.9630 H   0  0  0  0  0  0  0  0  0  0  0  0
  1  3  1  0
  2  1  1  0
  2  7  1  0
  3 53  1  1
  3  4  1  0
  4  5  1  1
  4  6  1  0
  7 10  1  0
  7  4  1  0
  9  8  1  0
 10  8  2  0
 11  9  2  0
 12 11  1  0
 12 10  1  0
 13 21  1  0
 14 19  1  0
 15 16  1  0
 15 14  1  0
 17 16  1  0
 17 26  1  0
 17 18  1  0
 19 13  1  0
 19 18  1  0
 20 13  2  0
 21 11  1  0
 22 21  1  0
 23 24  2  0
 24 43  1  0
 25 24  1  0
 25 28  1  0
 26 23  1  0
 26 27  1  0
 27 25  2  0
 28 29  1  0
 29 30  2  0
 31 34  1  0
 31 30  1  0
 32 31  2  0
 33 32  1  0
 33 28  2  0
 34 35  1  0
 35 36  1  0
 36 37  2  0
 38 37  1  0
 38 42  1  0
 39 38  2  0
 40 35  2  0
 40 39  1  0
 41 40  1  0
 43 44  1  0
 44 47  1  0
 44 46  1  0
 45 43  2  0
 48 49  1  0
 48 23  1  0
 50 48  1  0
 51 52  1  0
 52  3  1  0
 54 53  1  0
 55 66  2  0
 56 54  1  0
 56 61  1  0
 57 65  1  0
 57 67  1  0
 58 64  1  0
 58 60  1  0
 59 65  1  0
 60 59  1  0
 61 60  2  0
 62 56  2  0
 63 62  1  0
 63 58  2  0
 64 57  1  0
 65 55  1  0
 67 69  2  0
 68 67  1  0
 70 68  1  0
 71 80  2  0
 71 76  1  0
 72 68  1  0
 72 76  1  0
 73 72  1  0
 74 75  1  0
 74 73  1  0
 75 71  1  0
 76 77  2  0
 77 78  1  0
 79 78  2  0
 80 79  1  0
 81 55  1  0
 81 86  1  0
 81 82  1  0
 82 85  1  1
 82 83  1  0
 84 82  1  0
 86 89  1  0
 87 91  1  0
 87 86  1  0
 88 87  2  0
 91 90  1  0
 93 91  1  0
 93 94  1  0
 93 92  1  0
M  ISO  4  13 100  21 100  53 101  54 101
M  END
>  <TORSDO>  (85) 
F 19

>  <SCORE>  (85) 
-14.326

>  <name>  (85) 
84

>  <ligand_id>  (85) 
84

>  <original_smiles>  (85) 
[H]c1c(N([H])C(=O)N2C([H])([H])C([H])([H])C([H])([H])C([H])(n3nc(-c4c([H])c([H])c(Oc5c([H])c([H])c(F)c([H])c5F)c([H])c4[H])c(C(=O)N([H])[H])c3N([H])[H])C2([H])[H])oc(N2C([H])([H])C([H])([H])C(OC([H])([H])[H])(C([H])([H])Oc3c([H])c([H])c4c(c3[H])C([H])([H])N(C(=O)C([H])(N([H])C(=O)C([H])(N([H])C([H])([H])[H])C([H])([H])[H])C(C([H])([H])[H])(C([H])([H])[H])C([H])([H])[H])C([H])(C(=O)N([H])C3([H])c5c([H])c([H])c([H])c([H])c5C([H])([H])C([H])([H])C3([H])[H])C4([H])[H])C2(C([H])([H])[H])C([H])([H])[H])c1[H]

>  <smiles>  (85) 
[H]c1c(N([H])C(=O)N2C([H])([H])C([H])([H])C([H])([H])C([H])(n3nc(-c4c([H])c([H])c(Oc5c([H])c([H])c(F)c([H])c5F)c([H])c4[H])c(C(=O)N([H])[H])c3N([H])[H])C2([H])[H])oc(N2C([H])([H])C([H])([H])C(OC([H])([H])[H])(C([H])([H])Oc3c([H])c([H])c4c(c3[H])C([H])([H])N(C(=O)C([H])(N([H])C(=O)C([H])(N([H])C([H])([H])[H])C([H])([H])[H])C(C([H])([H])[H])(C([H])([H])[H])C([H])([H])[H])C([H])(C(=O)N([H])C3([H])c5c([H])c([H])c([H])c([H])c5C([H])([H])C([H])([H])C3([H])[H])C4([H])[H])C2(C([H])([H])[H])C([H])([H])[H])c1[H]

$$$$
85:0:0
     RDKit          3D

 92100  0  0  1  0  0  0  0  0999 V2000
  -29.3040  -21.1080   20.6170 N   0  0  0  0  0  0  0  0  0  0  0  0
  -28.9970  -21.1350   21.5890 H   0  0  0  0  0  0  0  0  0  0  0  0
  -29.6430  -18.5410   20.7840 C   0  0  0  0  0  3  0  0  0  0  0  0
  -30.0100  -19.6780   18.7000 C   0  0  0  0  0  3  0  0  0  0  0  0
  -29.6360  -19.8040   20.0580 C   0  0  0  0  0  0  0  0  0  0  0  0
  -30.0020  -17.2750   20.1670 C   0  0  0  0  0  0  0  0  0  0  0  0
  -30.3250  -17.3660   18.7940 C   0  0  0  0  0  0  0  0  0  0  0  0
  -30.3380  -18.5190   18.0950 N   0  0  0  0  0  0  0  0  0  0  0  0
  -30.5570  -16.2430   18.0740 F   0  0  0  0  0  0  0  0  0  0  0  0
  -30.7030  -14.8120   20.5470 C   0  0  0  0  0  0  0  0  0  0  0  0
  -30.5550  -12.5210   19.5860 C   0  0  0  0  0  2  0  0  0  0  0  0
  -29.6700  -12.5860   18.3210 C   0  0  0  0  0  2  0  0  0  0  0  0
  -28.1860  -12.4030   18.6940 C   0  0  0  0  0  2  0  0  0  0  0  0
  -27.7560  -13.3040   19.8830 C   0  0  0  0  0  3  0  0  0  0  0  0
  -28.7690  -13.2360   21.0490 C   0  0  0  0  0  2  0  0  0  0  0  0
  -30.0930  -13.5800   20.5130 N   0  0  0  0  0  0  0  0  0  0  0  0
  -31.8860  -14.9290   20.2170 O   0  0  0  0  0  0  0  0  0  0  0  0
  -29.9380  -15.9350   20.8110 N   0  0  0  0  0  0  0  0  0  0  0  0
  -29.0830  -15.7420   21.3120 H   0  0  0  0  0  0  0  0  0  0  0  0
  -25.3330  -13.8760   20.5020 C   0  0  0  0  0  0  0  0  0  0  0  0
  -24.2610  -13.0950   20.8420 C   0  0  0  0  0  0  0  0  0  0  0  0
  -24.7430  -11.7500   20.8560 C   0  0  0  0  0  0  0  0  0  0  0  0
  -26.3960  -13.0060   20.3230 N   0  0  0  0  0  0  0  0  0  0  0  0
  -26.0440  -11.7250   20.5990 N   0  0  0  0  0  0  0  0  0  0  0  0
  -24.0240  -10.4820   21.0410 C   0  0  0  0  0  0  0  0  0  0  0  0
  -24.4320   -9.5350   22.0070 C   0  0  0  0  0  3  0  0  0  0  0  0
  -23.7130   -8.3330   22.1790 C   0  0  0  0  0  3  0  0  0  0  0  0
  -22.5710   -8.0690   21.3840 C   0  0  0  0  0  0  0  0  0  0  0  0
  -22.1840   -9.0040   20.4080 C   0  0  0  0  0  3  0  0  0  0  0  0
  -22.9040  -10.1980   20.2350 C   0  0  0  0  0  3  0  0  0  0  0  0
  -21.8280   -6.9160   21.4640 O   0  0  0  0  0  0  0  0  0  0  0  0
  -21.7440   -6.1910   22.6270 C   0  0  0  0  0  0  0  0  0  0  0  0
  -21.2540   -6.7560   23.8230 C   0  0  0  0  0  3  0  0  0  0  0  0
  -21.1170   -5.9570   24.9760 C   0  0  0  0  0  3  0  0  0  0  0  0
  -21.4630   -4.5940   24.9320 C   0  0  0  0  0  0  0  0  0  0  0  0
  -21.9460   -4.0280   23.7390 C   0  0  0  0  0  3  0  0  0  0  0  0
  -22.0840   -4.8240   22.5890 C   0  0  0  0  0  0  0  0  0  0  0  0
  -22.5290   -4.2670   21.4360 F   0  0  0  0  0  0  0  0  0  0  0  0
  -21.3270   -3.8240   26.0370 F   0  0  0  0  0  0  0  0  0  0  0  0
  -22.8480  -13.5600   21.0480 C   0  0  0  0  0  0  0  0  0  0  0  0
  -22.0950  -12.8700   21.8950 N   0  0  0  0  0  0  0  0  0  0  0  0
  -22.4200  -14.5700   20.4910 O   0  0  0  0  0  0  0  0  0  0  0  0
  -22.4540  -12.0550   22.3710 H   0  0  0  0  0  0  0  0  0  0  0  0
  -21.1440  -13.1610   22.0730 H   0  0  0  0  0  0  0  0  0  0  0  0
  -25.4890  -15.2460   20.3090 N   0  0  0  0  0  0  0  0  0  0  0  0
  -24.7140  -15.8950   20.3840 H   0  0  0  0  0  0  0  0  0  0  0  0
  -26.3470  -15.6880   20.0050 H   0  0  0  0  0  0  0  0  0  0  0  0
  -28.9340  -22.3510   19.8110 C   0  0  0  0  0  2  0  0  0  0  0  0
  -28.9530  -23.8220   20.4570 C   0  0  0  0  0  0  0  0  0  0  0  0
  -29.6200  -24.0300   21.4760 O   0  0  0  0  0  0  0  0  0  0  0  0
  -28.0990  -25.0000   19.7940 C   0  0  0  0  0  2  0  0  0  0  0  0
  -28.3080  -26.4290   20.2210 O   0  0  0  0  0  0  0  0  0  0  0  0
  -24.6110  -31.9040   23.2490 C   0  0  0  0  0  0  0  0  0  0  0  0
  -27.2100  -27.3230   20.1560 C   0  0  0  0  0  0  0  0  0  0  0  0
  -23.4050  -30.5060   21.6130 C   0  0  0  0  0  3  0  0  0  0  0  0
  -24.8500  -28.9660   20.1730 C   0  0  0  0  0  0  0  0  0  0  0  0
  -25.9470  -30.8180   21.4240 C   0  0  0  0  0  2  0  0  0  0  0  0
  -26.0250  -29.4400   20.7690 C   0  0  0  0  0  0  0  0  0  0  0  0
  -27.2070  -28.6290   20.7550 C   0  0  0  0  0  3  0  0  0  0  0  0
  -26.0110  -26.9310   19.5140 C   0  0  0  0  0  3  0  0  0  0  0  0
  -24.8480  -27.7190   19.5360 C   0  0  0  0  0  3  0  0  0  0  0  0
  -23.6150  -29.8420   20.2300 C   0  0  0  0  0  2  0  0  0  0  0  0
  -24.6740  -31.0940   22.1510 N   0  0  0  0  0  0  0  0  0  0  0  0
  -23.5290  -32.1780   23.7880 O   0  0  0  0  0  0  0  0  0  0  0  0
  -22.7470  -29.4850   22.5740 C   0  0  0  0  0  0  0  0  0  0  0  0
  -21.4220  -29.3010   22.4510 N   0  0  0  0  0  0  0  0  0  0  0  0
  -23.4300  -28.8620   23.3910 O   0  0  0  0  0  0  0  0  0  0  0  0
  -20.9300  -29.8570   21.7640 H   0  0  0  0  0  0  0  0  0  0  0  0
  -18.0530  -28.0810   22.9530 C   0  0  0  0  0  0  0  0  0  0  0  0
  -20.6080  -28.3600   23.2230 C   0  0  0  0  0  3  0  0  0  0  0  0
  -20.7210  -26.9280   22.6520 C   0  0  0  0  0  2  0  0  0  0  0  0
  -19.6220  -26.5940   21.6380 C   0  0  0  0  0  2  0  0  0  0  0  0
  -18.2390  -26.7300   22.2820 C   0  0  0  0  0  2  0  0  0  0  0  0
  -19.1650  -28.8520   23.3810 C   0  0  0  0  0  0  0  0  0  0  0  0
  -18.9360  -30.1140   23.9710 C   0  0  0  0  0  3  0  0  0  0  0  0
  -17.6270  -30.6050   24.1370 C   0  0  0  0  0  3  0  0  0  0  0  0
  -16.5290  -29.8310   23.7240 C   0  0  0  0  0  3  0  0  0  0  0  0
  -16.7430  -28.5700   23.1380 C   0  0  0  0  0  3  0  0  0  0  0  0
  -25.8940  -32.5410   23.8660 C   0  0  0  0  0  3  0  0  0  0  0  0
  -26.4130  -31.7740   25.1450 C   0  0  1  0  0  0  0  0  0  0  0  0
  -25.3220  -31.5420   26.2160 C   0  0  0  0  0  1  0  0  0  0  0  0
  -26.9930  -30.3930   24.7590 C   0  0  0  0  0  1  0  0  0  0  0  0
  -27.5660  -32.5690   25.7990 C   0  0  0  0  0  1  0  0  0  0  0  0
  -25.5830  -33.9400   24.1930 N   0  0  0  0  0  0  0  0  0  0  0  0
  -25.9140  -34.9930   23.4340 C   0  0  0  0  0  0  0  0  0  0  0  0
  -26.5820  -34.8880   22.4030 O   0  0  0  0  0  0  0  0  0  0  0  0
  -24.9880  -34.0950   24.9950 H   0  0  0  0  0  0  0  0  0  0  0  0
  -24.1920  -36.7930   23.0700 C   0  0  0  0  0  1  0  0  0  0  0  0
  -25.4270  -36.3820   23.8900 C   0  0  0  0  0  3  0  0  0  0  0  0
  -27.5550  -37.2630   24.7420 C   0  0  0  0  0  1  0  0  0  0  0  0
  -26.4620  -37.4330   23.7870 N   0  0  0  0  0  0  0  0  0  0  0  0
  -26.0570  -38.3530   23.9310 H   0  0  0  0  0  0  0  0  0  0  0  0
  1  2  1  0
  4  5  1  0
  5  1  1  0
  5  3  2  0
  6  3  1  0
  6 18  1  0
  7  6  2  0
  8  4  2  0
  8  7  1  0
  9  7  1  0
 10 18  1  0
 11 16  1  0
 12 13  1  0
 12 11  1  0
 14 13  1  0
 14 23  1  0
 14 15  1  0
 16 10  1  0
 16 15  1  0
 17 10  2  0
 18 19  1  0
 20 21  2  0
 21 22  1  0
 21 40  1  0
 22 25  1  0
 23 20  1  0
 23 24  1  0
 24 22  2  0
 25 26  1  0
 26 27  2  0
 28 31  1  0
 28 27  1  0
 29 28  2  0
 30 29  1  0
 30 25  2  0
 31 32  1  0
 32 33  1  0
 33 34  2  0
 35 34  1  0
 35 39  1  0
 36 35  2  0
 37 32  2  0
 37 36  1  0
 38 37  1  0
 40 41  1  0
 41 44  1  0
 41 43  1  0
 42 40  2  0
 45 46  1  0
 45 20  1  0
 47 45  1  0
 48 49  1  0
 48  1  1  0
 49 50  2  0
 51 52  1  0
 51 49  1  0
 53 64  2  0
 54 52  1  0
 54 59  1  0
 55 63  1  0
 55 65  1  0
 56 62  1  0
 56 58  1  0
 57 63  1  0
 58 57  1  0
 59 58  2  0
 60 61  1  0
 60 54  2  0
 61 56  2  0
 62 55  1  0
 63 53  1  0
 65 67  2  0
 66 65  1  0
 68 66  1  0
 69 78  2  0
 69 74  1  0
 70 66  1  0
 70 74  1  0
 71 70  1  0
 72 73  1  0
 72 71  1  0
 73 69  1  0
 74 75  2  0
 75 76  1  0
 77 76  2  0
 78 77  1  0
 79 53  1  0
 79 84  1  0
 79 80  1  0
 80 83  1  1
 80 81  1  0
 82 80  1  0
 84 87  1  0
 85 89  1  0
 85 84  1  0
 86 85  2  0
 89 88  1  0
 91 89  1  0
 91 92  1  0
 91 90  1  0
M  ISO  4  10 100  18 100  51 101  52 101
M  END
>  <TORSDO>  (86) 
F 20

>  <SCORE>  (86) 
-13.668

>  <name>  (86) 
85

>  <ligand_id>  (86) 
85

>  <original_smiles>  (86) 
[H]c1nc(F)c(N([H])C(=O)N2C([H])([H])C([H])([H])C([H])([H])C([H])(n3nc(-c4c([H])c([H])c(Oc5c([H])c([H])c(F)c([H])c5F)c([H])c4[H])c(C(=O)N([H])[H])c3N([H])[H])C2([H])[H])c([H])c1N([H])C([H])([H])C(=O)C([H])([H])Oc1c([H])c([H])c2c(c1[H])C([H])([H])N(C(=O)C([H])(N([H])C(=O)C([H])(N([H])C([H])([H])[H])C([H])([H])[H])C(C([H])([H])[H])(C([H])([H])[H])C([H])([H])[H])C([H])(C(=O)N([H])C1([H])c3c([H])c([H])c([H])c([H])c3C([H])([H])C([H])([H])C1([H])[H])C2([H])[H]

>  <smiles>  (86) 
[H]c1nc(F)c(N([H])C(=O)N2C([H])([H])C([H])([H])C([H])([H])C([H])(n3nc(-c4c([H])c([H])c(Oc5c([H])c([H])c(F)c([H])c5F)c([H])c4[H])c(C(=O)N([H])[H])c3N([H])[H])C2([H])[H])c([H])c1N([H])C([H])([H])C(=O)C([H])([H])Oc1c([H])c([H])c2c(c1[H])C([H])([H])N(C(=O)C([H])(N([H])C(=O)C([H])(N([H])C([H])([H])[H])C([H])([H])[H])C(C([H])([H])[H])(C([H])([H])[H])C([H])([H])[H])C([H])(C(=O)N([H])C1([H])c3c([H])c([H])c([H])c([H])c3C([H])([H])C([H])([H])C1([H])[H])C2([H])[H]

$$$$
86:0:0
     RDKit          3D

 95104  0  0  1  0  0  0  0  0999 V2000
  -30.0800  -22.5480   20.0280 C   0  0  0  0  0  2  0  0  0  0  0  0
  -27.7090  -22.0400   19.9900 C   0  0  0  0  0  2  0  0  0  0  0  0
  -29.7360  -24.0930   20.3560 C   0  0  0  0  0  2  0  0  0  0  0  0
  -27.3970  -23.6200   20.3000 C   0  0  0  0  0  2  0  0  0  0  0  0
  -29.0820  -21.3990   20.4800 C   0  0  0  0  0  3  0  0  0  0  0  0
  -28.4040  -24.7720   19.8040 C   0  0  2  0  0  0  0  0  0  0  0  0
  -28.4980  -24.8310   18.2550 C   0  0  0  0  0  0  0  0  0  0  0  0
  -29.0680  -25.9120   17.7360 N   0  0  0  0  0  0  0  0  0  0  0  0
  -28.0640  -23.9450   17.5230 O   0  0  0  0  0  0  0  0  0  0  0  0
  -29.3770  -26.6390   18.3660 H   0  0  0  0  0  0  0  0  0  0  0  0
  -29.1600  -26.0280   16.7370 H   0  0  0  0  0  0  0  0  0  0  0  0
  -30.5980  -18.1090   19.1530 C   0  0  0  0  0  3  0  0  0  0  0  0
  -29.8890  -17.5040   20.1690 C   0  0  0  0  0  0  0  0  0  0  0  0
  -29.5330  -19.8590   20.1040 C   0  0  0  0  0  0  0  0  0  0  0  0
  -30.3430  -19.5010   19.0960 N   0  0  0  0  0  0  0  0  0  0  0  0
  -29.1860  -18.6420   20.7570 O   0  0  0  0  0  0  0  0  0  0  0  0
  -30.5120  -14.9630   20.2380 C   0  0  0  0  0  0  0  0  0  0  0  0
  -30.3710  -12.6250   19.2840 C   0  0  0  0  0  2  0  0  0  0  0  0
  -29.4260  -12.6270   18.0600 C   0  0  0  0  0  2  0  0  0  0  0  0
  -27.9640  -12.4260   18.5010 C   0  0  0  0  0  2  0  0  0  0  0  0
  -27.5810  -13.3270   19.7050 C   0  0  0  0  0  3  0  0  0  0  0  0
  -28.6470  -13.2970   20.8210 C   0  0  0  0  0  2  0  0  0  0  0  0
  -29.9220  -13.7010   20.2150 N   0  0  0  0  0  0  0  0  0  0  0  0
  -31.6880  -15.0440   19.8690 O   0  0  0  0  0  0  0  0  0  0  0  0
  -29.7520  -16.1230   20.5450 N   0  0  0  0  0  0  0  0  0  0  0  0
  -28.8840  -15.9100   21.0120 H   0  0  0  0  0  0  0  0  0  0  0  0
  -25.2040  -13.9050   20.4580 C   0  0  0  0  0  0  0  0  0  0  0  0
  -24.1440  -13.1290   20.8380 C   0  0  0  0  0  0  0  0  0  0  0  0
  -24.6090  -11.7790   20.8020 C   0  0  0  0  0  0  0  0  0  0  0  0
  -26.2460  -13.0280   20.2090 N   0  0  0  0  0  0  0  0  0  0  0  0
  -25.8980  -11.7440   20.4810 N   0  0  0  0  0  0  0  0  0  0  0  0
  -23.8850  -10.5160   20.9980 C   0  0  0  0  0  0  0  0  0  0  0  0
  -24.3180   -9.5520   21.9340 C   0  0  0  0  0  3  0  0  0  0  0  0
  -23.5920   -8.3550   22.1180 C   0  0  0  0  0  3  0  0  0  0  0  0
  -22.4180   -8.1130   21.3640 C   0  0  0  0  0  0  0  0  0  0  0  0
  -22.0040   -9.0670   20.4180 C   0  0  0  0  0  3  0  0  0  0  0  0
  -22.7310  -10.2540   20.2310 C   0  0  0  0  0  3  0  0  0  0  0  0
  -21.6640   -6.9690   21.4580 O   0  0  0  0  0  0  0  0  0  0  0  0
  -21.6130   -6.2330   22.6140 C   0  0  0  0  0  0  0  0  0  0  0  0
  -21.1710   -6.7910   23.8340 C   0  0  0  0  0  3  0  0  0  0  0  0
  -21.0670   -5.9800   24.9820 C   0  0  0  0  0  3  0  0  0  0  0  0
  -21.3950   -4.6140   24.9110 C   0  0  0  0  0  0  0  0  0  0  0  0
  -21.8300   -4.0550   23.6960 C   0  0  0  0  0  3  0  0  0  0  0  0
  -21.9350   -4.8620   22.5510 C   0  0  0  0  0  0  0  0  0  0  0  0
  -22.3340   -4.3140   21.3780 F   0  0  0  0  0  0  0  0  0  0  0  0
  -21.2890   -3.8330   26.0130 F   0  0  0  0  0  0  0  0  0  0  0  0
  -22.7480  -13.6050   21.1190 C   0  0  0  0  0  0  0  0  0  0  0  0
  -22.0280  -12.9110   21.9920 N   0  0  0  0  0  0  0  0  0  0  0  0
  -22.3060  -14.6300   20.5990 O   0  0  0  0  0  0  0  0  0  0  0  0
  -22.3990  -12.0840   22.4340 H   0  0  0  0  0  0  0  0  0  0  0  0
  -21.0920  -13.2130   22.2230 H   0  0  0  0  0  0  0  0  0  0  0  0
  -25.3650  -15.2770   20.2790 N   0  0  0  0  0  0  0  0  0  0  0  0
  -24.5950  -15.9260   20.3930 H   0  0  0  0  0  0  0  0  0  0  0  0
  -26.2010  -15.7150   19.9170 H   0  0  0  0  0  0  0  0  0  0  0  0
  -28.2960  -26.2590   20.2790 O   0  0  0  0  0  0  0  0  0  0  0  0
  -24.6270  -31.8680   23.2460 C   0  0  0  0  0  0  0  0  0  0  0  0
  -27.2000  -27.1860   20.1780 C   0  0  0  0  0  0  0  0  0  0  0  0
  -23.4180  -30.4770   21.6050 C   0  0  0  0  0  3  0  0  0  0  0  0
  -24.8600  -28.9080   20.1640 C   0  0  0  0  0  0  0  0  0  0  0  0
  -25.9670  -30.7510   21.4260 C   0  0  0  0  0  2  0  0  0  0  0  0
  -26.0370  -29.3640   20.7670 C   0  0  0  0  0  0  0  0  0  0  0  0
  -27.2030  -28.5150   20.7590 C   0  0  0  0  0  3  0  0  0  0  0  0
  -25.9960  -26.8230   19.5370 C   0  0  0  0  0  3  0  0  0  0  0  0
  -24.8500  -27.6520   19.5330 C   0  0  0  0  0  3  0  0  0  0  0  0
  -23.6300  -29.8020   20.2220 C   0  0  0  0  0  2  0  0  0  0  0  0
  -24.6910  -31.0550   22.1470 N   0  0  0  0  0  0  0  0  0  0  0  0
  -23.5450  -32.1500   23.7820 O   0  0  0  0  0  0  0  0  0  0  0  0
  -22.7470  -29.4680   22.5690 C   0  0  0  0  0  0  0  0  0  0  0  0
  -21.4190  -29.2970   22.4480 N   0  0  0  0  0  0  0  0  0  0  0  0
  -23.4230  -28.8390   23.3870 O   0  0  0  0  0  0  0  0  0  0  0  0
  -20.9290  -29.8550   21.7630 H   0  0  0  0  0  0  0  0  0  0  0  0
  -18.0420  -28.0870   22.9550 C   0  0  0  0  0  0  0  0  0  0  0  0
  -20.6010  -28.3580   23.2200 C   0  0  0  0  0  3  0  0  0  0  0  0
  -20.7060  -26.9260   22.6450 C   0  0  0  0  0  2  0  0  0  0  0  0
  -19.6050  -26.6000   21.6310 C   0  0  0  0  0  2  0  0  0  0  0  0
  -18.2230  -26.7390   22.2760 C   0  0  0  0  0  2  0  0  0  0  0  0
  -19.1590  -28.8540   23.3830 C   0  0  0  0  0  0  0  0  0  0  0  0
  -18.9350  -30.1140   23.9790 C   0  0  0  0  0  3  0  0  0  0  0  0
  -17.6280  -30.6090   24.1490 C   0  0  0  0  0  3  0  0  0  0  0  0
  -16.5260  -29.8410   23.7360 C   0  0  0  0  0  3  0  0  0  0  0  0
  -16.7350  -28.5810   23.1450 C   0  0  0  0  0  3  0  0  0  0  0  0
  -25.9090  -32.5020   23.8690 C   0  0  0  0  0  3  0  0  0  0  0  0
  -25.6000  -33.9020   24.2030 N   0  0  0  0  0  0  0  0  0  0  0  0
  -25.9200  -34.9580   23.4430 C   0  0  0  0  0  0  0  0  0  0  0  0
  -26.5720  -34.8560   22.4000 O   0  0  0  0  0  0  0  0  0  0  0  0
  -25.0180  -34.0540   25.0130 H   0  0  0  0  0  0  0  0  0  0  0  0
  -24.1810  -36.7500   23.1310 C   0  0  0  0  0  1  0  0  0  0  0  0
  -25.4420  -36.3460   23.9120 C   0  0  0  0  0  3  0  0  0  0  0  0
  -27.5930  -37.2390   24.6930 C   0  0  0  0  0  1  0  0  0  0  0  0
  -26.4710  -37.4010   23.7730 N   0  0  0  0  0  0  0  0  0  0  0  0
  -26.0650  -38.3210   23.9260 H   0  0  0  0  0  0  0  0  0  0  0  0
  -26.4220  -31.7320   25.1480 C   0  0  1  0  0  0  0  0  0  0  0  0
  -25.3280  -31.5020   26.2170 C   0  0  0  0  0  1  0  0  0  0  0  0
  -27.0000  -30.3510   24.7640 C   0  0  0  0  0  1  0  0  0  0  0  0
  -27.5760  -32.5250   25.8090 C   0  0  0  0  0  1  0  0  0  0  0  0
  1  3  1  0
  1  5  1  0
  2  4  1  0
  2  5  1  0
  5 14  1  0
  6  7  1  0
  6 55  1  1
  6  4  1  0
  6  3  1  0
  8  7  1  0
  8 10  1  0
  9  7  2  0
 11  8  1  0
 12 13  2  0
 13 25  1  0
 13 16  1  0
 14 16  1  0
 15 12  1  0
 15 14  2  0
 17 25  1  0
 18 23  1  0
 19 20  1  0
 19 18  1  0
 21 20  1  0
 21 30  1  0
 21 22  1  0
 23 17  1  0
 23 22  1  0
 24 17  2  0
 25 26  1  0
 27 28  2  0
 28 47  1  0
 29 28  1  0
 29 32  1  0
 30 27  1  0
 30 31  1  0
 31 29  2  0
 32 33  1  0
 33 34  2  0
 35 38  1  0
 35 34  1  0
 36 35  2  0
 37 36  1  0
 37 32  2  0
 38 39  1  0
 39 40  1  0
 40 41  2  0
 42 41  1  0
 42 46  1  0
 43 42  2  0
 44 39  2  0
 44 43  1  0
 45 44  1  0
 47 48  1  0
 48 51  1  0
 48 50  1  0
 49 47  2  0
 52 53  1  0
 52 27  1  0
 54 52  1  0
 56 67  2  0
 57 55  1  0
 57 62  1  0
 58 66  1  0
 58 68  1  0
 59 65  1  0
 59 61  1  0
 60 66  1  0
 61 60  1  0
 62 61  2  0
 63 57  2  0
 64 63  1  0
 64 59  2  0
 65 58  1  0
 66 56  1  0
 68 70  2  0
 69 68  1  0
 71 69  1  0
 72 81  2  0
 72 77  1  0
 73 69  1  0
 73 77  1  0
 74 73  1  0
 75 76  1  0
 75 74  1  0
 76 72  1  0
 77 78  2  0
 78 79  1  0
 80 79  2  0
 81 80  1  0
 82 56  1  0
 82 83  1  0
 82 92  1  0
 83 86  1  0
 84 88  1  0
 84 83  1  0
 85 84  2  0
 88 87  1  0
 90 88  1  0
 90 91  1  0
 90 89  1  0
 92 95  1  1
 92 93  1  0
 94 92  1  0
M  ISO  4   6 101  17 100  25 100  55 101
M  END
>  <TORSDO>  (87) 
F 18

>  <SCORE>  (87) 
-14.777

>  <name>  (87) 
86

>  <ligand_id>  (87) 
86

>  <original_smiles>  (87) 
[H]c1nc(C2([H])C([H])([H])C([H])([H])C(Oc3c([H])c([H])c4c(c3[H])C([H])([H])N(C(=O)C([H])(N([H])C(=O)C([H])(N([H])C([H])([H])[H])C([H])([H])[H])C(C([H])([H])[H])(C([H])([H])[H])C([H])([H])[H])C([H])(C(=O)N([H])C3([H])c5c([H])c([H])c([H])c([H])c5C([H])([H])C([H])([H])C3([H])[H])C4([H])[H])(C(=O)N([H])[H])C([H])([H])C2([H])[H])oc1N([H])C(=O)N1C([H])([H])C([H])([H])C([H])([H])C([H])(n2nc(-c3c([H])c([H])c(Oc4c([H])c([H])c(F)c([H])c4F)c([H])c3[H])c(C(=O)N([H])[H])c2N([H])[H])C1([H])[H]

>  <smiles>  (87) 
[H]c1nc(C2([H])C([H])([H])C([H])([H])C(Oc3c([H])c([H])c4c(c3[H])C([H])([H])N(C(=O)C([H])(N([H])C(=O)C([H])(N([H])C([H])([H])[H])C([H])([H])[H])C(C([H])([H])[H])(C([H])([H])[H])C([H])([H])[H])C([H])(C(=O)N([H])C3([H])c5c([H])c([H])c([H])c([H])c5C([H])([H])C([H])([H])C3([H])[H])C4([H])[H])(C(=O)N([H])[H])C([H])([H])C2([H])[H])oc1N([H])C(=O)N1C([H])([H])C([H])([H])C([H])([H])C([H])(n2nc(-c3c([H])c([H])c(Oc4c([H])c([H])c(F)c([H])c4F)c([H])c3[H])c(C(=O)N([H])[H])c2N([H])[H])C1([H])[H]

$$$$
87:0:0
     RDKit          3D

 95104  0  0  1  0  0  0  0  0999 V2000
  -30.4390  -22.3390   17.4120 C   0  0  0  0  0  2  0  0  0  0  0  0
  -31.3470  -22.5670   18.6550 C   0  0  0  0  0  2  0  0  0  0  0  0
  -29.1400  -21.5240   17.6910 C   0  0  0  0  0  2  0  0  0  0  0  0
  -30.5840  -23.0570   19.9110 C   0  0  0  0  0  2  0  0  0  0  0  0
  -28.7970  -21.4130   19.1970 C   0  0  0  0  0  3  0  0  0  0  0  0
  -29.1380  -22.8100   19.7280 N   0  0  1  0  0  4  0  0  0  0  0  0
  -29.0840  -23.2550   18.8250 H   0  0  0  0  0  0  0  0  0  0  0  0
  -30.6710  -17.9090   19.4220 C   0  0  0  0  0  3  0  0  0  0  0  0
  -30.4370  -19.2960   19.1680 C   0  0  0  0  0  3  0  0  0  0  0  0
  -28.8180  -17.9940   20.9070 C   0  0  0  0  0  3  0  0  0  0  0  0
  -29.8180  -17.1860   20.2940 C   0  0  0  0  0  0  0  0  0  0  0  0
  -29.3610  -20.0160   19.7710 C   0  0  0  0  0  0  0  0  0  0  0  0
  -28.5910  -19.3260   20.6600 N   0  0  0  0  0  0  0  0  0  0  0  0
  -30.6170  -14.6960   20.0320 C   0  0  0  0  0  0  0  0  0  0  0  0
  -30.3800  -12.4620   18.9460 C   0  0  0  0  0  2  0  0  0  0  0  0
  -29.3630  -12.5970   17.7890 C   0  0  0  0  0  2  0  0  0  0  0  0
  -27.9160  -12.4380   18.2980 C   0  0  0  0  0  2  0  0  0  0  0  0
  -27.6320  -13.2680   19.5770 C   0  0  0  0  0  3  0  0  0  0  0  0
  -28.7540  -13.0840   20.6230 C   0  0  0  0  0  2  0  0  0  0  0  0
  -30.0230  -13.4580   19.9810 N   0  0  0  0  0  0  0  0  0  0  0  0
  -31.7400  -14.8800   19.5500 O   0  0  0  0  0  0  0  0  0  0  0  0
  -29.8470  -15.7250   20.5260 N   0  0  0  0  0  0  0  0  0  0  0  0
  -29.0380  -15.3760   21.0210 H   0  0  0  0  0  0  0  0  0  0  0  0
  -25.2910  -13.8620   20.4480 C   0  0  0  0  0  0  0  0  0  0  0  0
  -24.2410  -13.0850   20.8570 C   0  0  0  0  0  0  0  0  0  0  0  0
  -24.6900  -11.7310   20.7650 C   0  0  0  0  0  0  0  0  0  0  0  0
  -26.3130  -12.9810   20.1300 N   0  0  0  0  0  0  0  0  0  0  0  0
  -25.9600  -11.6930   20.3800 N   0  0  0  0  0  0  0  0  0  0  0  0
  -23.9650  -10.4690   20.9630 C   0  0  0  0  0  0  0  0  0  0  0  0
  -24.4040   -9.5030   21.8920 C   0  0  0  0  0  3  0  0  0  0  0  0
  -23.6790   -8.3060   22.0790 C   0  0  0  0  0  3  0  0  0  0  0  0
  -22.4990   -8.0690   21.3350 C   0  0  0  0  0  0  0  0  0  0  0  0
  -22.0770   -9.0250   20.3940 C   0  0  0  0  0  3  0  0  0  0  0  0
  -22.8040  -10.2120   20.2060 C   0  0  0  0  0  3  0  0  0  0  0  0
  -21.7450   -6.9240   21.4290 O   0  0  0  0  0  0  0  0  0  0  0  0
  -21.6710   -6.2060   22.5960 C   0  0  0  0  0  0  0  0  0  0  0  0
  -21.1670   -6.7720   23.7870 C   0  0  0  0  0  3  0  0  0  0  0  0
  -21.0410   -5.9800   24.9450 C   0  0  0  0  0  3  0  0  0  0  0  0
  -21.4100   -4.6210   24.9140 C   0  0  0  0  0  0  0  0  0  0  0  0
  -21.9070   -4.0550   23.7270 C   0  0  0  0  0  3  0  0  0  0  0  0
  -22.0330   -4.8450   22.5710 C   0  0  0  0  0  0  0  0  0  0  0  0
  -22.4930   -4.2890   21.4250 F   0  0  0  0  0  0  0  0  0  0  0  0
  -21.2820   -3.8570   26.0250 F   0  0  0  0  0  0  0  0  0  0  0  0
  -22.8650  -13.5650   21.2210 C   0  0  0  0  0  0  0  0  0  0  0  0
  -22.1820  -12.8500   22.1090 N   0  0  0  0  0  0  0  0  0  0  0  0
  -22.4080  -14.6090   20.7560 O   0  0  0  0  0  0  0  0  0  0  0  0
  -22.5640  -12.0070   22.5090 H   0  0  0  0  0  0  0  0  0  0  0  0
  -21.2630  -13.1530   22.3960 H   0  0  0  0  0  0  0  0  0  0  0  0
  -25.4540  -15.2360   20.2980 N   0  0  0  0  0  0  0  0  0  0  0  0
  -24.6970  -15.8870   20.4770 H   0  0  0  0  0  0  0  0  0  0  0  0
  -26.2600  -15.6750   19.8680 H   0  0  0  0  0  0  0  0  0  0  0  0
  -28.0870  -23.7120   20.3920 C   0  0  0  0  0  2  0  0  0  0  0  0
  -27.6340  -25.4470   22.2470 C   0  0  0  0  0  1  0  0  0  0  0  0
  -28.4210  -25.2050   20.9400 C   0  0  0  0  0  3  0  0  0  0  0  0
  -28.3660  -26.4470   20.1100 O   0  0  0  0  0  0  0  0  0  0  0  0
  -24.5260  -31.8120   23.1010 C   0  0  0  0  0  0  0  0  0  0  0  0
  -27.2370  -27.2830   20.1000 C   0  0  0  0  0  0  0  0  0  0  0  0
  -23.3670  -30.4120   21.4260 C   0  0  0  0  0  3  0  0  0  0  0  0
  -24.8630  -28.8720   20.0290 C   0  0  0  0  0  0  0  0  0  0  0  0
  -25.9060  -30.7550   21.2950 C   0  0  0  0  0  2  0  0  0  0  0  0
  -26.0130  -29.3760   20.6520 C   0  0  0  0  0  0  0  0  0  0  0  0
  -27.2080  -28.5950   20.6690 C   0  0  0  0  0  3  0  0  0  0  0  0
  -26.0700  -26.8260   19.4590 C   0  0  0  0  0  3  0  0  0  0  0  0
  -24.8950  -27.6050   19.4200 C   0  0  0  0  0  3  0  0  0  0  0  0
  -23.6170  -29.7370   20.0490 C   0  0  0  0  0  2  0  0  0  0  0  0
  -24.6180  -31.0110   21.9990 N   0  0  0  0  0  0  0  0  0  0  0  0
  -23.4290  -32.0770   23.6160 O   0  0  0  0  0  0  0  0  0  0  0  0
  -22.6920  -29.3870   22.3690 C   0  0  0  0  0  0  0  0  0  0  0  0
  -21.3600  -29.2480   22.2550 N   0  0  0  0  0  0  0  0  0  0  0  0
  -23.3650  -28.7220   23.1600 O   0  0  0  0  0  0  0  0  0  0  0  0
  -20.8790  -29.8400   21.5930 H   0  0  0  0  0  0  0  0  0  0  0  0
  -17.9510  -28.1750   22.8210 C   0  0  0  0  0  0  0  0  0  0  0  0
  -20.5260  -28.3100   23.0070 C   0  0  0  0  0  3  0  0  0  0  0  0
  -20.5430  -26.9050   22.3620 C   0  0  0  0  0  2  0  0  0  0  0  0
  -19.3930  -26.6820   21.3740 C   0  0  0  0  0  2  0  0  0  0  0  0
  -18.0420  -26.8530   22.0750 C   0  0  0  0  0  2  0  0  0  0  0  0
  -19.1180  -28.8650   23.2440 C   0  0  0  0  0  0  0  0  0  0  0  0
  -18.9780  -30.1060   23.9050 C   0  0  0  0  0  3  0  0  0  0  0  0
  -17.7040  -30.6550   24.1420 C   0  0  0  0  0  3  0  0  0  0  0  0
  -16.5520  -29.9600   23.7340 C   0  0  0  0  0  3  0  0  0  0  0  0
  -16.6770  -28.7220   23.0780 C   0  0  0  0  0  3  0  0  0  0  0  0
  -25.7900  -32.4500   23.7560 C   0  0  0  0  0  3  0  0  0  0  0  0
  -26.2940  -31.6640   25.0280 C   0  0  1  0  0  0  0  0  0  0  0  0
  -25.1860  -31.3950   26.0740 C   0  0  0  0  0  1  0  0  0  0  0  0
  -26.9040  -30.3020   24.6230 C   0  0  0  0  0  1  0  0  0  0  0  0
  -27.4210  -32.4630   25.7250 C   0  0  0  0  0  1  0  0  0  0  0  0
  -25.4570  -33.8380   24.1060 N   0  0  0  0  0  0  0  0  0  0  0  0
  -25.7720  -34.9070   23.3640 C   0  0  0  0  0  0  0  0  0  0  0  0
  -26.4450  -34.8320   22.3320 O   0  0  0  0  0  0  0  0  0  0  0  0
  -24.8600  -33.9710   24.9080 H   0  0  0  0  0  0  0  0  0  0  0  0
  -24.0190  -36.6790   23.0330 C   0  0  0  0  0  1  0  0  0  0  0  0
  -25.2620  -36.2800   23.8420 C   0  0  0  0  0  3  0  0  0  0  0  0
  -27.3730  -37.1900   24.7060 C   0  0  0  0  0  1  0  0  0  0  0  0
  -26.2790  -37.3510   23.7520 N   0  0  0  0  0  0  0  0  0  0  0  0
  -25.8560  -38.2620   23.9050 H   0  0  0  0  0  0  0  0  0  0  0  0
  1  3  1  0
  1  2  1  0
  2  4  1  0
  3  5  1  0
  5  6  1  0
  5 12  1  0
  6  4  1  0
  6 52  1  0
  6  7  1  6
  8 11  1  0
  9  8  2  0
  9 12  1  0
 11 22  1  0
 11 10  2  0
 12 13  2  0
 13 10  1  0
 14 22  1  0
 15 20  1  0
 16 17  1  0
 16 15  1  0
 18 17  1  0
 18 27  1  0
 18 19  1  0
 20 14  1  0
 20 19  1  0
 21 14  2  0
 22 23  1  0
 24 25  2  0
 25 44  1  0
 26 25  1  0
 26 29  1  0
 27 28  1  0
 27 24  1  0
 28 26  2  0
 29 30  1  0
 30 31  2  0
 32 35  1  0
 32 31  1  0
 33 32  2  0
 34 33  1  0
 34 29  2  0
 35 36  1  0
 36 37  1  0
 37 38  2  0
 39 38  1  0
 39 43  1  0
 40 39  2  0
 41 36  2  0
 41 40  1  0
 42 41  1  0
 44 45  1  0
 45 48  1  0
 45 47  1  0
 46 44  2  0
 49 24  1  0
 49 50  1  0
 51 49  1  0
 52 54  1  0
 54 53  1  0
 55 54  1  0
 56 67  2  0
 57 55  1  0
 57 62  1  0
 58 66  1  0
 58 68  1  0
 59 65  1  0
 59 61  1  0
 60 66  1  0
 61 62  2  0
 61 60  1  0
 63 57  2  0
 64 63  1  0
 64 59  2  0
 65 58  1  0
 66 56  1  0
 68 70  2  0
 69 68  1  0
 71 69  1  0
 72 81  2  0
 72 77  1  0
 73 69  1  0
 73 77  1  0
 74 73  1  0
 75 76  1  0
 75 74  1  0
 76 72  1  0
 77 78  2  0
 78 79  1  0
 80 79  2  0
 81 80  1  0
 82 56  1  0
 82 87  1  0
 82 83  1  0
 83 86  1  1
 83 84  1  0
 85 83  1  0
 87 90  1  0
 88 92  1  0
 88 87  1  0
 89 88  2  0
 92 91  1  0
 94 92  1  0
 94 95  1  0
 94 93  1  0
M  ISO  4  14 100  22 100  54 101  55 101
M  END
>  <TORSDO>  (88) 
F 19

>  <SCORE>  (88) 
-14.136

>  <name>  (88) 
87

>  <ligand_id>  (88) 
87

>  <original_smiles>  (88) 
[H]c1nc(C2([H])C([H])([H])C([H])([H])C([H])([H])C([H])([H])[N+]2([H])C([H])([H])C([H])(Oc2c([H])c([H])c3c(c2[H])C([H])([H])N(C(=O)C([H])(N([H])C(=O)C([H])(N([H])C([H])([H])[H])C([H])([H])[H])C(C([H])([H])[H])(C([H])([H])[H])C([H])([H])[H])C([H])(C(=O)N([H])C2([H])c4c([H])c([H])c([H])c([H])c4C([H])([H])C([H])([H])C2([H])[H])C3([H])[H])C([H])([H])[H])c([H])c([H])c1N([H])C(=O)N1C([H])([H])C([H])([H])C([H])([H])C([H])(n2nc(-c3c([H])c([H])c(Oc4c([H])c([H])c(F)c([H])c4F)c([H])c3[H])c(C(=O)N([H])[H])c2N([H])[H])C1([H])[H]

>  <smiles>  (88) 
[H]c1nc(C2([H])C([H])([H])C([H])([H])C([H])([H])C([H])([H])[N+]2([H])C([H])([H])C([H])(Oc2c([H])c([H])c3c(c2[H])C([H])([H])N(C(=O)C([H])(N([H])C(=O)C([H])(N([H])C([H])([H])[H])C([H])([H])[H])C(C([H])([H])[H])(C([H])([H])[H])C([H])([H])[H])C([H])(C(=O)N([H])C2([H])c4c([H])c([H])c([H])c([H])c4C([H])([H])C([H])([H])C2([H])[H])C3([H])[H])C([H])([H])[H])c([H])c([H])c1N([H])C(=O)N1C([H])([H])C([H])([H])C([H])([H])C([H])(n2nc(-c3c([H])c([H])c(Oc4c([H])c([H])c(F)c([H])c4F)c([H])c3[H])c(C(=O)N([H])[H])c2N([H])[H])C1([H])[H]

$$$$
88:0:0
     RDKit          3D

 93101  0  0  1  0  0  0  0  0999 V2000
  -30.5810  -18.9580   22.5290 C   0  0  0  0  0  3  0  0  0  0  0  0
  -29.7620  -20.0570   20.5320 C   0  0  0  0  0  3  0  0  0  0  0  0
  -30.2400  -21.4050   22.4950 C   0  0  0  0  0  3  0  0  0  0  0  0
  -30.1780  -18.8200   21.1850 C   0  0  0  0  0  0  0  0  0  0  0  0
  -30.6530  -20.2240   23.1600 C   0  0  0  0  0  0  0  0  0  0  0  0
  -29.7490  -21.3760   21.1650 C   0  0  0  0  0  0  0  0  0  0  0  0
  -29.2860  -23.9800   20.8110 C   0  0  0  0  0  0  0  0  0  0  0  0
  -29.1840  -22.6140   20.5340 N   0  0  0  0  0  0  0  0  0  0  0  0
  -30.1370  -24.4130   21.5940 O   0  0  0  0  0  0  0  0  0  0  0  0
  -28.5360  -22.4410   19.7800 H   0  0  0  0  0  0  0  0  0  0  0  0
  -28.3120  -25.0430   20.0750 C   0  0  0  0  0  2  0  0  0  0  0  0
  -28.4410  -26.5240   20.3410 O   0  0  0  0  0  0  0  0  0  0  0  0
  -24.6140  -31.9190   23.2520 C   0  0  0  0  0  0  0  0  0  0  0  0
  -27.3100  -27.3780   20.2260 C   0  0  0  0  0  0  0  0  0  0  0  0
  -23.4230  -30.5180   21.5990 C   0  0  0  0  0  3  0  0  0  0  0  0
  -24.9060  -28.9750   20.1720 C   0  0  0  0  0  0  0  0  0  0  0  0
  -25.9570  -30.8670   21.4150 C   0  0  0  0  0  2  0  0  0  0  0  0
  -26.0640  -29.4820   20.7760 C   0  0  0  0  0  0  0  0  0  0  0  0
  -27.2600  -28.6930   20.7990 C   0  0  0  0  0  3  0  0  0  0  0  0
  -26.1310  -26.9400   19.5780 C   0  0  0  0  0  3  0  0  0  0  0  0
  -24.9470  -27.7110   19.5650 C   0  0  0  0  0  3  0  0  0  0  0  0
  -23.6490  -29.8260   20.2220 C   0  0  0  0  0  2  0  0  0  0  0  0
  -24.6830  -31.1200   22.1470 N   0  0  0  0  0  0  0  0  0  0  0  0
  -23.5270  -32.1850   23.7900 O   0  0  0  0  0  0  0  0  0  0  0  0
  -22.7640  -29.4990   22.5590 C   0  0  0  0  0  0  0  0  0  0  0  0
  -21.4390  -29.3110   22.4340 N   0  0  0  0  0  0  0  0  0  0  0  0
  -23.4460  -28.8760   23.3750 O   0  0  0  0  0  0  0  0  0  0  0  0
  -20.9510  -29.8590   21.7410 H   0  0  0  0  0  0  0  0  0  0  0  0
  -18.0770  -28.0710   22.9280 C   0  0  0  0  0  0  0  0  0  0  0  0
  -20.6340  -28.3580   23.2010 C   0  0  0  0  0  3  0  0  0  0  0  0
  -20.7480  -26.9340   22.6170 C   0  0  0  0  0  2  0  0  0  0  0  0
  -19.6520  -26.6080   21.5970 C   0  0  0  0  0  2  0  0  0  0  0  0
  -18.2650  -26.7320   22.2390 C   0  0  0  0  0  2  0  0  0  0  0  0
  -19.1870  -28.8440   23.3660 C   0  0  0  0  0  0  0  0  0  0  0  0
  -18.9520  -30.0980   23.9680 C   0  0  0  0  0  3  0  0  0  0  0  0
  -17.6450  -30.5860   24.1330 C   0  0  0  0  0  3  0  0  0  0  0  0
  -16.5480  -29.8150   23.7110 C   0  0  0  0  0  3  0  0  0  0  0  0
  -16.7640  -28.5550   23.1180 C   0  0  0  0  0  3  0  0  0  0  0  0
  -25.8900  -32.5570   23.8860 C   0  0  0  0  0  3  0  0  0  0  0  0
  -26.3970  -31.7870   25.1700 C   0  0  1  0  0  0  0  0  0  0  0  0
  -25.2930  -31.5570   26.2310 C   0  0  0  0  0  1  0  0  0  0  0  0
  -26.9750  -30.4030   24.7880 C   0  0  0  0  0  1  0  0  0  0  0  0
  -27.5510  -32.5760   25.8350 C   0  0  0  0  0  1  0  0  0  0  0  0
  -25.5780  -33.9550   24.2100 N   0  0  0  0  0  0  0  0  0  0  0  0
  -25.9160  -35.0020   23.4470 C   0  0  0  0  0  0  0  0  0  0  0  0
  -26.5830  -34.8890   22.4140 O   0  0  0  0  0  0  0  0  0  0  0  0
  -24.9710  -34.1130   25.0020 H   0  0  0  0  0  0  0  0  0  0  0  0
  -24.1830  -36.7950   23.0890 C   0  0  0  0  0  1  0  0  0  0  0  0
  -25.4280  -36.3950   23.8930 C   0  0  0  0  0  3  0  0  0  0  0  0
  -27.5650  -37.2910   24.7050 C   0  0  0  0  0  1  0  0  0  0  0  0
  -26.4540  -37.4530   23.7690 N   0  0  0  0  0  0  0  0  0  0  0  0
  -26.0460  -38.3740   23.9140 H   0  0  0  0  0  0  0  0  0  0  0  0
  -31.1620  -20.3080   24.4660 N   0  0  0  0  0  0  0  0  0  0  0  0
  -31.7970  -19.5920   24.8170 H   0  0  0  0  0  0  0  0  0  0  0  0
  -31.3660  -21.2210   24.8640 H   0  0  0  0  0  0  0  0  0  0  0  0
  -30.3110  -17.4100   20.5370 C   0  0  0  0  0  3  0  0  0  0  0  0
  -30.2500  -16.1140   21.0600 C   0  0  0  0  0  3  0  0  0  0  0  0
  -30.7670  -14.8780   20.3430 C   0  0  0  0  0  0  0  0  0  0  0  0
  -30.4800  -12.6080   19.3010 C   0  0  0  0  0  2  0  0  0  0  0  0
  -29.5750  -12.7730   18.0600 C   0  0  0  0  0  2  0  0  0  0  0  0
  -28.0950  -12.5870   18.4640 C   0  0  0  0  0  2  0  0  0  0  0  0
  -27.7200  -13.4160   19.7190 C   0  0  0  0  0  3  0  0  0  0  0  0
  -28.7820  -13.3190   20.8470 C   0  0  0  0  0  2  0  0  0  0  0  0
  -30.0900  -13.6670   20.2760 N   0  0  0  0  0  0  0  0  0  0  0  0
  -31.8650  -14.9380   19.7860 O   0  0  0  0  0  0  0  0  0  0  0  0
  -25.3170  -13.9630   20.4240 C   0  0  0  0  0  0  0  0  0  0  0  0
  -24.2590  -13.1860   20.7870 C   0  0  0  0  0  0  0  0  0  0  0  0
  -24.7320  -11.8360   20.7710 C   0  0  0  0  0  0  0  0  0  0  0  0
  -26.3730  -13.1010   20.1980 N   0  0  0  0  0  0  0  0  0  0  0  0
  -26.0260  -11.8100   20.4640 N   0  0  0  0  0  0  0  0  0  0  0  0
  -24.0150  -10.5720   20.9720 C   0  0  0  0  0  0  0  0  0  0  0  0
  -24.4500   -9.6160   21.9160 C   0  0  0  0  0  3  0  0  0  0  0  0
  -23.7310   -8.4150   22.1080 C   0  0  0  0  0  3  0  0  0  0  0  0
  -22.5610   -8.1590   21.3550 C   0  0  0  0  0  0  0  0  0  0  0  0
  -22.1430   -9.1080   20.4020 C   0  0  0  0  0  3  0  0  0  0  0  0
  -22.8640  -10.2980   20.2070 C   0  0  0  0  0  3  0  0  0  0  0  0
  -21.8070   -7.0160   21.4580 O   0  0  0  0  0  0  0  0  0  0  0  0
  -21.7620   -6.2810   22.6170 C   0  0  0  0  0  0  0  0  0  0  0  0
  -21.3300   -6.8400   23.8400 C   0  0  0  0  0  3  0  0  0  0  0  0
  -21.2320   -6.0330   24.9890 C   0  0  0  0  0  3  0  0  0  0  0  0
  -21.5620   -4.6670   24.9190 C   0  0  0  0  0  0  0  0  0  0  0  0
  -21.9840   -4.1050   23.7010 C   0  0  0  0  0  3  0  0  0  0  0  0
  -22.0840   -4.9090   22.5540 C   0  0  0  0  0  0  0  0  0  0  0  0
  -22.4750   -4.3530   21.3810 F   0  0  0  0  0  0  0  0  0  0  0  0
  -21.4610   -3.8890   26.0210 F   0  0  0  0  0  0  0  0  0  0  0  0
  -22.8560  -13.6510   21.0530 C   0  0  0  0  0  0  0  0  0  0  0  0
  -22.1290  -12.9660   21.9270 N   0  0  0  0  0  0  0  0  0  0  0  0
  -22.4080  -14.6610   20.5100 O   0  0  0  0  0  0  0  0  0  0  0  0
  -22.5010  -12.1520   22.3980 H   0  0  0  0  0  0  0  0  0  0  0  0
  -21.1810  -13.2520   22.1280 H   0  0  0  0  0  0  0  0  0  0  0  0
  -25.4680  -15.3370   20.2390 N   0  0  0  0  0  0  0  0  0  0  0  0
  -24.6970  -15.9850   20.3510 H   0  0  0  0  0  0  0  0  0  0  0  0
  -26.3310  -15.7900   19.9660 H   0  0  0  0  0  0  0  0  0  0  0  0
  1  5  1  0
  2  6  2  0
  2  4  1  0
  3  5  2  0
  4  1  2  0
  5 53  1  0
  6  3  1  0
  7  9  2  0
  8  7  1  0
  8  6  1  0
 10  8  1  0
 11 12  1  0
 11  7  1  0
 13 24  2  0
 14 12  1  0
 14 19  1  0
 15 23  1  0
 15 25  1  0
 16 22  1  0
 16 18  1  0
 17 23  1  0
 18 19  2  0
 18 17  1  0
 20 14  2  0
 21 20  1  0
 21 16  2  0
 22 15  1  0
 23 13  1  0
 25 27  2  0
 26 25  1  0
 28 26  1  0
 29 38  2  0
 29 34  1  0
 30 26  1  0
 30 34  1  0
 31 30  1  0
 32 33  1  0
 32 31  1  0
 33 29  1  0
 34 35  2  0
 35 36  1  0
 37 36  2  0
 38 37  1  0
 39 13  1  0
 39 44  1  0
 39 40  1  0
 40 43  1  1
 40 41  1  0
 42 40  1  0
 44 47  1  0
 45 49  1  0
 45 44  1  0
 46 45  2  0
 49 48  1  0
 51 49  1  0
 51 52  1  0
 51 50  1  0
 53 54  1  0
 53 55  1  0
 56 57  2  0
 56  4  1  0
 58 57  1  0
 59 64  1  0
 60 61  1  0
 60 59  1  0
 62 61  1  0
 62 69  1  0
 62 63  1  0
 64 58  1  0
 64 63  1  0
 65 58  2  0
 66 67  2  0
 67 86  1  0
 68 67  1  0
 68 71  1  0
 69 66  1  0
 69 70  1  0
 70 68  2  0
 71 72  1  0
 72 73  2  0
 74 77  1  0
 74 73  1  0
 75 74  2  0
 76 75  1  0
 76 71  2  0
 77 78  1  0
 78 79  1  0
 79 80  2  0
 81 80  1  0
 81 85  1  0
 82 81  2  0
 83 78  2  0
 83 82  1  0
 84 83  1  0
 86 87  1  0
 87 90  1  0
 87 89  1  0
 88 86  2  0
 91 92  1  0
 91 66  1  0
 93 91  1  0
M  ISO  4  11 101  12 101  57 100  58 100
M  END
>  <TORSDO>  (89) 
F 20

>  <SCORE>  (89) 
-13.699

>  <name>  (89) 
88

>  <ligand_id>  (89) 
88

>  <original_smiles>  (89) 
[H]C(C(=O)N1C([H])([H])C([H])([H])C([H])([H])C([H])(n2nc(-c3c([H])c([H])c(Oc4c([H])c([H])c(F)c([H])c4F)c([H])c3[H])c(C(=O)N([H])[H])c2N([H])[H])C1([H])[H])=C([H])c1c([H])c(N([H])[H])c([H])c(N([H])C(=O)C([H])([H])Oc2c([H])c([H])c3c(c2[H])C([H])([H])N(C(=O)C([H])(N([H])C(=O)C([H])(N([H])C([H])([H])[H])C([H])([H])[H])C(C([H])([H])[H])(C([H])([H])[H])C([H])([H])[H])C([H])(C(=O)N([H])C2([H])c4c([H])c([H])c([H])c([H])c4C([H])([H])C([H])([H])C2([H])[H])C3([H])[H])c1[H]

>  <smiles>  (89) 
[H]C(C(=O)N1C([H])([H])C([H])([H])C([H])([H])C([H])(n2nc(-c3c([H])c([H])c(Oc4c([H])c([H])c(F)c([H])c4F)c([H])c3[H])c(C(=O)N([H])[H])c2N([H])[H])C1([H])[H])=C([H])c1c([H])c(N([H])[H])c([H])c(N([H])C(=O)C([H])([H])Oc2c([H])c([H])c3c(c2[H])C([H])([H])N(C(=O)C([H])(N([H])C(=O)C([H])(N([H])C([H])([H])[H])C([H])([H])[H])C(C([H])([H])[H])(C([H])([H])[H])C([H])([H])[H])C([H])(C(=O)N([H])C2([H])c4c([H])c([H])c([H])c([H])c4C([H])([H])C([H])([H])C2([H])[H])C3([H])[H])c1[H]

$$$$
89:0:0
     RDKit          3D

 96 99  0  0  1  0  0  0  0  0999 V2000
  -27.3490  -26.6170   22.1300 C   0  0  0  0  0  3  0  0  0  0  0  0
  -28.5510  -26.4820   21.5640 C   0  0  0  0  0  0  0  0  0  0  0  0
  -29.3380  -25.3430   22.1390 C   0  0  0  0  0  2  0  0  0  0  0  0
  -27.0870  -25.5480   23.1330 C   0  0  0  0  0  3  0  0  0  0  0  0
  -28.4030  -24.8480   23.1880 N   0  0  0  0  0  4  0  0  0  0  0  0
  -28.8970  -24.8430   24.0700 H   0  0  0  0  0  0  0  0  0  0  0  0
  -28.0950  -23.9360   22.9500 H   0  0  0  0  0  0  0  0  0  0  0  0
  -28.5460  -18.5700   20.4100 C   0  0  0  0  0  2  0  0  0  0  0  0
  -30.2620  -16.0800   19.0010 C   0  0  0  0  0  2  0  0  0  0  0  0
  -30.1140  -14.7940   17.9260 C   0  0  0  0  0  2  0  0  0  0  0  0
  -29.0720  -13.7650   18.3360 C   0  0  0  0  0  2  0  0  0  0  0  0
  -28.2130  -14.6370   19.2340 C   0  0  0  0  0  3  0  0  0  0  0  0
  -28.8370  -15.4840   20.4070 C   0  0  0  0  0  2  0  0  0  0  0  0
  -29.0070  -16.9240   19.8910 N   0  0  0  0  0  0  0  0  0  0  0  0
  -29.8910  -18.5580   20.1870 O   0  0  0  0  0  1  0  0  0  0  0  0
  -26.2660  -23.2700   22.2010 C   0  0  0  0  0  3  0  0  0  0  0  0
  -24.4920  -25.4380   22.8270 C   0  0  0  0  0  2  0  0  0  0  0  0
  -25.8480  -24.6750   22.6740 C   0  0  0  0  0  0  0  0  0  0  0  0
  -25.5610  -22.0710   21.6850 C   0  0  0  0  0  1  0  0  0  0  0  0
  -23.0490  -25.0860   22.7580 C   0  0  0  0  0  1  0  0  0  0  0  0
  -23.9110  -23.3000   22.1070 N   0  0  0  0  0 15  0  0  0  0  0  0
  -26.9980  -20.0730   20.8720 N   0  0  0  0  0  1  0  0  0  0  0  0
  -26.5860  -19.9350   19.9500 H   0  0  0  0  0  0  0  0  0  0  0  0
  -25.9910  -14.9720   20.0530 C   0  0  0  0  0  0  0  0  0  0  0  0
  -25.0500  -14.1460   20.5440 C   0  0  0  0  0  0  0  0  0  0  0  0
  -25.5700  -12.8160   20.4220 C   0  0  0  0  0  0  0  0  0  0  0  0
  -27.0100  -14.1340   19.6950 N   0  0  0  0  0  0  0  0  0  0  0  0
  -26.8130  -12.8290   19.9610 N   0  0  0  0  0  0  0  0  0  0  0  0
  -24.9070  -11.5380   20.6380 C   0  0  0  0  0  0  0  0  0  0  0  0
  -25.3520  -10.6310   21.6230 C   0  0  0  0  0  3  0  0  0  0  0  0
  -24.6590   -9.4210   21.8250 C   0  0  0  0  0  3  0  0  0  0  0  0
  -23.5160   -9.1200   21.0480 C   0  0  0  0  0  0  0  0  0  0  0  0
  -23.1000  -10.0170   20.0530 C   0  0  0  0  0  3  0  0  0  0  0  0
  -23.7900  -11.2190   19.8430 C   0  0  0  0  0  3  0  0  0  0  0  0
  -22.7860   -7.9650   21.1640 O   0  0  0  0  0  0  0  0  0  0  0  0
  -22.4720   -7.4380   22.3900 C   0  0  0  0  0  0  0  0  0  0  0  0
  -21.8000   -8.1930   23.3740 C   0  0  0  0  0  3  0  0  0  0  0  0
  -21.4370   -7.5910   24.5960 C   0  0  0  0  0  3  0  0  0  0  0  0
  -21.7320   -6.2340   24.8280 C   0  0  0  0  0  0  0  0  0  0  0  0
  -22.3990   -5.4790   23.8440 C   0  0  0  0  0  3  0  0  0  0  0  0
  -22.7650   -6.0810   22.6280 C   0  0  0  0  0  0  0  0  0  0  0  0
  -23.3900   -5.3470   21.6760 F   0  0  0  0  0  0  0  0  0  0  0  0
  -21.3740   -5.6510   25.9960 F   0  0  0  0  0  0  0  0  0  0  0  0
  -23.7070  -14.6010   20.9910 C   0  0  0  0  0  0  0  0  0  0  0  0
  -23.1570  -13.9490   22.0050 N   0  0  0  0  0  0  0  0  0  0  0  0
  -23.1760  -15.5840   20.4720 O   0  0  0  0  0  0  0  0  0  0  0  0
  -23.6160  -13.1600   22.4350 H   0  0  0  0  0  0  0  0  0  0  0  0
  -22.2590  -14.2440   22.3640 H   0  0  0  0  0  0  0  0  0  0  0  0
  -26.0730  -16.3590   19.8850 N   0  0  0  0  0  0  0  0  0  0  0  0
  -25.2400  -16.9320   19.9750 H   0  0  0  0  0  0  0  0  0  0  0  0
  -26.7740  -16.7490   19.2690 H   0  0  0  0  0  0  0  0  0  0  0  0
  -19.6790  -29.4640   23.0550 C   0  0  0  0  0 15  0  0  0  0  0  0
  -21.4910  -26.6280   23.4130 N   0  0  0  0  0  1  0  0  0  0  0  0
  -21.7000  -26.7180   24.4140 H   0  0  0  0  0  0  0  0  0  0  0  0
  -29.2180  -27.5520   20.7250 C   0  0  0  0  0  2  0  0  0  0  0  0
  -28.9340  -27.6340   19.2860 O   0  0  0  0  0  0  0  0  0  0  0  0
  -24.3400  -31.1220   23.1180 C   0  0  0  0  0  0  0  0  0  0  0  0
  -27.8010  -28.3800   19.1040 C   0  0  0  0  0  0  0  0  0  0  0  0
  -23.5090  -30.3300   20.9520 C   0  0  0  0  0  3  0  0  0  0  0  0
  -25.2520  -29.5290   19.2620 C   0  0  0  0  0  0  0  0  0  0  0  0
  -25.9410  -30.9820   21.1990 C   0  0  0  0  0  2  0  0  0  0  0  0
  -26.2580  -29.9670   20.1240 C   0  0  0  0  0  0  0  0  0  0  0  0
  -27.5450  -29.4430   19.9980 C   0  0  0  0  0  3  0  0  0  0  0  0
  -26.7980  -27.9470   18.2140 C   0  0  0  0  0  3  0  0  0  0  0  0
  -25.5170  -28.5410   18.2890 C   0  0  0  0  0  3  0  0  0  0  0  0
  -23.9180  -30.2130   19.4480 C   0  0  0  0  0  2  0  0  0  0  0  0
  -24.6090  -30.8090   21.8190 N   0  0  0  0  0  0  0  0  0  0  0  0
  -23.1880  -31.0390   23.5800 O   0  0  0  0  0  0  0  0  0  0  0  0
  -23.0290  -28.9740   21.4210 C   0  0  0  0  0  0  0  0  0  0  0  0
  -22.1690  -28.4280   20.5820 N   0  0  0  0  0  0  0  0  0  0  0  0
  -23.5460  -28.3710   22.3710 O   0  0  0  0  0  0  0  0  0  0  0  0
  -21.8300  -28.9810   19.8100 H   0  0  0  0  0  0  0  0  0  0  0  0
  -21.2960  -25.4850   18.3000 C   0  0  0  0  0  0  0  0  0  0  0  0
  -22.5200  -27.0710   20.3270 C   0  0  0  0  0  3  0  0  0  0  0  0
  -23.3880  -26.6460   19.2160 C   0  0  0  0  0  2  0  0  0  0  0  0
  -22.8970  -26.7870   17.7350 C   0  0  0  0  0  2  0  0  0  0  0  0
  -21.9500  -25.7960   17.1410 C   0  0  0  0  0  2  0  0  0  0  0  0
  -21.4810  -26.4540   19.9290 C   0  0  0  0  0  0  0  0  0  0  0  0
  -20.1650  -26.4480   20.9620 C   0  0  0  0  0  3  0  0  0  0  0  0
  -18.7780  -25.7630   20.5460 C   0  0  0  0  0  3  0  0  0  0  0  0
  -18.6120  -24.9100   19.2120 C   0  0  0  0  0  3  0  0  0  0  0  0
  -19.8170  -24.6920   18.1330 C   0  0  0  0  0  3  0  0  0  0  0  0
  -25.4490  -31.6300   24.0700 C   0  0  0  0  0  3  0  0  0  0  0  0
  -25.2150  -33.0640   24.2640 N   0  0  0  0  0  0  0  0  0  0  0  0
  -25.8560  -34.0280   23.5950 C   0  0  0  0  0  0  0  0  0  0  0  0
  -26.7790  -33.7980   22.8080 O   0  0  0  0  0  0  0  0  0  0  0  0
  -24.4460  -33.3180   24.8690 H   0  0  0  0  0  0  0  0  0  0  0  0
  -24.4150  -35.9110   22.7620 C   0  0  0  0  0  1  0  0  0  0  0  0
  -25.4110  -35.4800   23.8490 C   0  0  0  0  0  3  0  0  0  0  0  0
  -27.4600  -36.1780   25.0080 C   0  0  0  0  0  1  0  0  0  0  0  0
  -26.5360  -36.4360   23.9060 N   0  0  0  0  0  0  0  0  0  0  0  0
  -26.1950  -37.3890   23.9960 H   0  0  0  0  0  0  0  0  0  0  0  0
  -25.4910  -30.8640   25.4460 C   0  0  1  0  0  0  0  0  0  0  0  0
  -24.1180  -30.7740   26.1520 C   0  0  0  0  0  1  0  0  0  0  0  0
  -26.0260  -29.4250   25.2560 C   0  0  0  0  0  1  0  0  0  0  0  0
  -26.4710  -31.5800   26.4020 C   0  0  0  0  0  1  0  0  0  0  0  0
  1  4  1  0
  2  1  2  0
  2  3  1  0
  3  5  1  0
  4 18  1  0
  4  5  1  0
  5  6  1  0
  7  5  1  0
  9 14  1  0
 10 11  1  0
 10  9  1  0
 12 11  1  0
 12 27  1  0
 12 13  1  0
 14 13  1  0
 14  8  1  0
 15  8  1  0
 16 18  2  0
 18 17  1  0
 19 16  1  0
 20 17  1  0
 23 22  1  0
 24 25  2  0
 25 44  1  0
 26 25  1  0
 26 29  1  0
 27 28  1  0
 27 24  1  0
 28 26  2  0
 29 30  1  0
 30 31  2  0
 32 35  1  0
 32 31  1  0
 33 32  2  0
 34 33  1  0
 34 29  2  0
 35 36  1  0
 36 41  2  0
 36 37  1  0
 37 38  2  0
 38 39  1  0
 39 43  1  0
 40 39  2  0
 41 40  1  0
 42 41  1  0
 44 45  1  0
 45 48  1  0
 45 47  1  0
 46 44  2  0
 49 50  1  0
 49 24  1  0
 51 49  1  0
 53 54  1  0
 55  2  1  0
 56 55  1  0
 57 68  2  0
 58 56  1  0
 58 63  1  0
 59 69  1  0
 59 67  1  0
 60 66  1  0
 60 62  1  0
 61 67  1  0
 62 61  1  0
 63 62  2  0
 64 65  1  0
 64 58  2  0
 65 60  2  0
 66 59  1  0
 67 57  1  0
 69 71  2  0
 70 69  1  0
 72 70  1  0
 73 78  1  0
 74 70  1  0
 75 74  1  0
 76 75  1  0
 77 76  1  0
 77 73  1  0
 78 74  1  0
 78 79  2  0
 80 79  1  0
 81 80  2  0
 82 73  2  0
 82 81  1  0
 83 57  1  0
 83 84  1  0
 83 93  1  0
 84 87  1  0
 85 89  1  0
 85 84  1  0
 86 85  2  0
 89 88  1  0
 89 91  1  0
 91 92  1  0
 91 90  1  0
 93 94  1  1
 93 96  1  0
 95 93  1  0
M  ISO  4   8 100  22 100  55 101  56 101
M  END
>  <TORSDO>  (90) 
F 18

>  <SCORE>  (90) 
-1.153

>  <name>  (90) 
89

>  <ligand_id>  (90) 
89

>  <original_smiles>  (90) 
[H]C1=C(C([H])([H])Oc2c([H])c([H])c3c(c2[H])C([H])([H])N(C(=O)C([H])(N([H])C(=O)C([H])(N([H])C([H])([H])[H])C([H])([H])[H])C(C([H])([H])[H])(C([H])([H])[H])C([H])([H])[H])C([H])(C(=O)N([H])C2([H])c4c([H])c([H])c([H])c([H])c4C([H])([H])C([H])([H])C2([H])[H])C3([H])[H])C([H])([H])[N+]([H])([H])C1([H])c1c([H])c(N([H])C(=O)N2C([H])([H])C([H])([H])C([H])([H])C([H])(n3nc(-c4c([H])c([H])c(Oc5c([H])c([H])c(F)c([H])c5F)c([H])c4[H])c(C(=O)N([H])[H])c3N([H])[H])C2([H])[H])nc(N([H])C([H])([H])[H])c1[H]

>  <smiles>  (90) 
[H]C1=C(C([H])([H])Oc2c([H])c([H])c3c(c2[H])C([H])([H])N(C(=O)C([H])(N([H])C(=O)C([H])(N([H])C([H])([H])[H])C([H])([H])[H])C(C([H])([H])[H])(C([H])([H])[H])C([H])([H])[H])C([H])(C(=O)N([H])C2([H])c4c([H])c([H])c([H])c([H])c4C([H])([H])C([H])([H])C2([H])[H])C3([H])[H])C([H])([H])[N+]([H])([H])C1([H])c1c([H])c(N([H])C(=O)N2C([H])([H])C([H])([H])C([H])([H])C([H])(n3nc(-c4c([H])c([H])c(Oc5c([H])c([H])c(F)c([H])c5F)c([H])c4[H])c(C(=O)N([H])[H])c3N([H])[H])C2([H])[H])nc(N([H])C([H])([H])[H])c1[H]

$$$$
90:0:0
     RDKit          3D

 98107  0  0  1  0  0  0  0  0999 V2000
  -30.0950  -20.9660   20.7740 C   0  0  0  0  0  3  0  0  0  0  0  0
  -29.3710  -24.6520   21.6830 C   0  0  0  0  0  2  0  0  0  0  0  0
  -28.0910  -24.1090   19.5750 C   0  0  0  0  0  2  0  0  0  0  0  0
  -30.2570  -23.4900   21.1030 C   0  0  0  0  0  2  0  0  0  0  0  0
  -28.2070  -22.5970   20.0360 C   0  0  0  0  0  2  0  0  0  0  0  0
  -28.1710  -25.1060   20.7830 C   0  0  1  0  0  0  0  0  0  0  0  0
  -29.5290  -22.2440   20.6570 N   0  0  0  0  0  0  0  0  0  0  0  0
  -31.2340  -20.8880   21.4580 N   0  0  0  0  0  0  0  0  0  0  0  0
  -31.7230  -20.0060   21.4960 H   0  0  0  0  0  0  0  0  0  0  0  0
  -31.6300  -21.6740   21.9430 H   0  0  0  0  0  0  0  0  0  0  0  0
  -29.8730  -18.3630   20.8590 C   0  0  0  0  0  3  0  0  0  0  0  0
  -29.2200  -19.5870   18.8550 C   0  0  0  0  0  3  0  0  0  0  0  0
  -29.1980  -17.1330   18.8720 C   0  0  0  0  0  3  0  0  0  0  0  0
  -29.6650  -19.6350   20.1920 C   0  0  0  0  0  0  0  0  0  0  0  0
  -29.6760  -17.0910   20.2010 C   0  0  0  0  0  0  0  0  0  0  0  0
  -28.9680  -18.3580   18.2140 C   0  0  0  0  0  0  0  0  0  0  0  0
  -28.5170  -18.3560   16.9370 F   0  0  0  0  0  0  0  0  0  0  0  0
  -30.5660  -14.7090   20.3910 C   0  0  0  0  0  0  0  0  0  0  0  0
  -30.3540  -12.4710   19.3340 C   0  0  0  0  0  2  0  0  0  0  0  0
  -29.3980  -12.6010   18.1260 C   0  0  0  0  0  2  0  0  0  0  0  0
  -27.9320  -12.4300   18.5700 C   0  0  0  0  0  2  0  0  0  0  0  0
  -27.5810  -13.2800   19.8190 C   0  0  0  0  0  3  0  0  0  0  0  0
  -28.6520  -13.1330   20.9250 C   0  0  0  0  0  2  0  0  0  0  0  0
  -29.9540  -13.4820   20.3370 N   0  0  0  0  0  0  0  0  0  0  0  0
  -31.7030  -14.8730   19.9380 O   0  0  0  0  0  0  0  0  0  0  0  0
  -29.8270  -15.7770   20.8390 N   0  0  0  0  0  0  0  0  0  0  0  0
  -29.0290  -15.4980   21.3900 H   0  0  0  0  0  0  0  0  0  0  0  0
  -25.1920  -13.8570   20.5680 C   0  0  0  0  0  0  0  0  0  0  0  0
  -24.1330  -13.0750   20.9420 C   0  0  0  0  0  0  0  0  0  0  0  0
  -24.6020  -11.7270   20.8950 C   0  0  0  0  0  0  0  0  0  0  0  0
  -26.2390  -12.9840   20.3150 N   0  0  0  0  0  0  0  0  0  0  0  0
  -25.8900  -11.6980   20.5710 N   0  0  0  0  0  0  0  0  0  0  0  0
  -23.8870  -10.4590   21.0840 C   0  0  0  0  0  0  0  0  0  0  0  0
  -24.3390   -9.4820   21.9990 C   0  0  0  0  0  3  0  0  0  0  0  0
  -23.6200   -8.2780   22.1740 C   0  0  0  0  0  3  0  0  0  0  0  0
  -22.4350   -8.0440   21.4370 C   0  0  0  0  0  0  0  0  0  0  0  0
  -22.0000   -9.0120   20.5130 C   0  0  0  0  0  3  0  0  0  0  0  0
  -22.7200  -10.2050   20.3350 C   0  0  0  0  0  3  0  0  0  0  0  0
  -21.6880   -6.8950   21.5230 O   0  0  0  0  0  0  0  0  0  0  0  0
  -21.6690   -6.1340   22.6650 C   0  0  0  0  0  0  0  0  0  0  0  0
  -21.2580   -6.6640   23.9070 C   0  0  0  0  0  3  0  0  0  0  0  0
  -21.1850   -5.8290   25.0390 C   0  0  0  0  0  3  0  0  0  0  0  0
  -21.5130   -4.4650   24.9310 C   0  0  0  0  0  0  0  0  0  0  0  0
  -21.9170   -3.9330   23.6950 C   0  0  0  0  0  3  0  0  0  0  0  0
  -21.9910   -4.7670   22.5630 C   0  0  0  0  0  0  0  0  0  0  0  0
  -22.3610   -4.2450   21.3690 F   0  0  0  0  0  0  0  0  0  0  0  0
  -21.4370   -3.6600   26.0170 F   0  0  0  0  0  0  0  0  0  0  0  0
  -22.7370  -13.5430   21.2330 C   0  0  0  0  0  0  0  0  0  0  0  0
  -22.0200  -12.8340   22.0990 N   0  0  0  0  0  0  0  0  0  0  0  0
  -22.2910  -14.5750   20.7330 O   0  0  0  0  0  0  0  0  0  0  0  0
  -22.3940  -12.0000   22.5280 H   0  0  0  0  0  0  0  0  0  0  0  0
  -21.0850  -13.1310   22.3360 H   0  0  0  0  0  0  0  0  0  0  0  0
  -25.3530  -15.2290   20.3980 N   0  0  0  0  0  0  0  0  0  0  0  0
  -24.5920  -15.8870   20.5310 H   0  0  0  0  0  0  0  0  0  0  0  0
  -26.2010  -15.6670   20.0660 H   0  0  0  0  0  0  0  0  0  0  0  0
  -27.0080  -24.9520   21.5780 O   0  0  0  0  0  0  0  0  0  0  0  0
  -26.2820  -25.3390   21.1040 H   0  0  0  0  0  0  0  0  0  0  0  0
  -28.3590  -26.5080   20.3750 O   0  0  0  0  0  0  0  0  0  0  0  0
  -24.6080  -31.9530   23.2540 C   0  0  0  0  0  0  0  0  0  0  0  0
  -27.2490  -27.3700   20.2720 C   0  0  0  0  0  0  0  0  0  0  0  0
  -23.4220  -30.5410   21.6130 C   0  0  0  0  0  3  0  0  0  0  0  0
  -24.8890  -28.9840   20.2110 C   0  0  0  0  0  0  0  0  0  0  0  0
  -25.9630  -30.8610   21.4540 C   0  0  0  0  0  2  0  0  0  0  0  0
  -26.0500  -29.4770   20.8180 C   0  0  0  0  0  0  0  0  0  0  0  0
  -27.2340  -28.6830   20.8370 C   0  0  0  0  0  3  0  0  0  0  0  0
  -26.0760  -26.9420   19.6100 C   0  0  0  0  0  3  0  0  0  0  0  0
  -24.9040  -27.7230   19.5930 C   0  0  0  0  0  3  0  0  0  0  0  0
  -23.6490  -29.8550   20.2400 C   0  0  0  0  0  2  0  0  0  0  0  0
  -24.6820  -31.1370   22.1630 N   0  0  0  0  0  0  0  0  0  0  0  0
  -23.5190  -32.2360   23.7740 O   0  0  0  0  0  0  0  0  0  0  0  0
  -22.7490  -29.5330   22.5740 C   0  0  0  0  0  0  0  0  0  0  0  0
  -21.4220  -29.3650   22.4430 N   0  0  0  0  0  0  0  0  0  0  0  0
  -23.4200  -28.9030   23.3960 O   0  0  0  0  0  0  0  0  0  0  0  0
  -20.9400  -29.9230   21.7530 H   0  0  0  0  0  0  0  0  0  0  0  0
  -18.0300  -28.2180   22.9520 C   0  0  0  0  0  0  0  0  0  0  0  0
  -20.5920  -28.4390   23.2150 C   0  0  0  0  0  3  0  0  0  0  0  0
  -20.6710  -27.0070   22.6360 C   0  0  0  0  0  2  0  0  0  0  0  0
  -19.5600  -26.7030   21.6240 C   0  0  0  0  0  2  0  0  0  0  0  0
  -18.1830  -26.8690   22.2720 C   0  0  0  0  0  2  0  0  0  0  0  0
  -19.1610  -28.9630   23.3800 C   0  0  0  0  0  0  0  0  0  0  0  0
  -18.9620  -30.2280   23.9750 C   0  0  0  0  0  3  0  0  0  0  0  0
  -17.6650  -30.7470   24.1460 C   0  0  0  0  0  3  0  0  0  0  0  0
  -16.5490  -30.0000   23.7340 C   0  0  0  0  0  3  0  0  0  0  0  0
  -16.7310  -28.7380   23.1430 C   0  0  0  0  0  3  0  0  0  0  0  0
  -25.8850  -32.5910   23.8850 C   0  0  0  0  0  3  0  0  0  0  0  0
  -25.5730  -33.9930   24.1980 N   0  0  0  0  0  0  0  0  0  0  0  0
  -25.9090  -35.0370   23.4300 C   0  0  0  0  0  0  0  0  0  0  0  0
  -26.5830  -34.9230   22.4020 O   0  0  0  0  0  0  0  0  0  0  0  0
  -24.9750  -34.1550   24.9960 H   0  0  0  0  0  0  0  0  0  0  0  0
  -24.1810  -36.8250   23.0510 C   0  0  0  0  0  1  0  0  0  0  0  0
  -25.4200  -36.4310   23.8700 C   0  0  0  0  0  3  0  0  0  0  0  0
  -27.5510  -37.3270   24.6990 C   0  0  0  0  0  1  0  0  0  0  0  0
  -26.4530  -37.4830   23.7480 N   0  0  0  0  0  0  0  0  0  0  0  0
  -26.0450  -38.4040   23.8830 H   0  0  0  0  0  0  0  0  0  0  0  0
  -26.3850  -31.8310   25.1740 C   0  0  1  0  0  0  0  0  0  0  0  0
  -25.2790  -31.6030   26.2310 C   0  0  0  0  0  1  0  0  0  0  0  0
  -26.9710  -30.4480   24.8030 C   0  0  0  0  0  1  0  0  0  0  0  0
  -27.5280  -32.6300   25.8430 C   0  0  0  0  0  1  0  0  0  0  0  0
  1  8  1  0
  3  5  1  0
  3  6  1  0
  4  2  1  0
  5  7  1  0
  6 58  1  6
  6 56  1  0
  6  2  1  0
  7  1  1  0
  7  4  1  0
  8  9  1  0
  8 10  1  0
 12 14  1  0
 13 15  2  0
 14  1  1  0
 14 11  2  0
 15 26  1  0
 15 11  1  0
 16 12  2  0
 16 13  1  0
 17 16  1  0
 18 26  1  0
 19 24  1  0
 20 21  1  0
 20 19  1  0
 22 21  1  0
 22 31  1  0
 22 23  1  0
 24 18  1  0
 24 23  1  0
 25 18  2  0
 26 27  1  0
 28 29  2  0
 29 48  1  0
 30 29  1  0
 30 33  1  0
 31 28  1  0
 31 32  1  0
 32 30  2  0
 33 34  1  0
 34 35  2  0
 36 39  1  0
 36 35  1  0
 37 36  2  0
 38 37  1  0
 38 33  2  0
 39 40  1  0
 40 41  1  0
 41 42  2  0
 43 42  1  0
 43 47  1  0
 44 43  2  0
 45 40  2  0
 45 44  1  0
 46 45  1  0
 48 49  1  0
 49 52  1  0
 49 51  1  0
 50 48  2  0
 53 54  1  0
 53 28  1  0
 55 53  1  0
 57 56  1  0
 59 70  2  0
 60 58  1  0
 60 65  1  0
 61 69  1  0
 61 71  1  0
 62 68  1  0
 62 64  1  0
 63 69  1  0
 64 65  2  0
 64 63  1  0
 66 60  2  0
 67 66  1  0
 67 62  2  0
 68 61  1  0
 69 59  1  0
 71 73  2  0
 72 71  1  0
 74 72  1  0
 75 84  2  0
 75 80  1  0
 76 72  1  0
 76 80  1  0
 77 76  1  0
 78 79  1  0
 78 77  1  0
 79 75  1  0
 80 81  2  0
 81 82  1  0
 83 82  2  0
 84 83  1  0
 85 59  1  0
 85 86  1  0
 85 95  1  0
 86 89  1  0
 87 91  1  0
 87 86  1  0
 88 87  2  0
 91 90  1  0
 93 91  1  0
 93 94  1  0
 93 92  1  0
 95 98  1  1
 95 96  1  0
 97 95  1  0
M  ISO  4   6 101  18 100  26 100  58 101
M  END
>  <TORSDO>  (91) 
F 18

>  <SCORE>  (91) 
-15.425

>  <name>  (91) 
90

>  <ligand_id>  (91) 
90

>  <original_smiles>  (91) 
[H]OC1(Oc2c([H])c([H])c3c(c2[H])C([H])([H])N(C(=O)C([H])(N([H])C(=O)C([H])(N([H])C([H])([H])[H])C([H])([H])[H])C(C([H])([H])[H])(C([H])([H])[H])C([H])([H])[H])C([H])(C(=O)N([H])C2([H])c4c([H])c([H])c([H])c([H])c4C([H])([H])C([H])([H])C2([H])[H])C3([H])[H])C([H])([H])C([H])([H])N(C(c2c([H])c(F)c([H])c(N([H])C(=O)N3C([H])([H])C([H])([H])C([H])([H])C([H])(n4nc(-c5c([H])c([H])c(Oc6c([H])c([H])c(F)c([H])c6F)c([H])c5[H])c(C(=O)N([H])[H])c4N([H])[H])C3([H])[H])c2[H])=[N+]([H])[H])C([H])([H])C1([H])[H]

>  <smiles>  (91) 
[H]OC1(Oc2c([H])c([H])c3c(c2[H])C([H])([H])N(C(=O)C([H])(N([H])C(=O)C([H])(N([H])C([H])([H])[H])C([H])([H])[H])C(C([H])([H])[H])(C([H])([H])[H])C([H])([H])[H])C([H])(C(=O)N([H])C2([H])c4c([H])c([H])c([H])c([H])c4C([H])([H])C([H])([H])C2([H])[H])C3([H])[H])C([H])([H])C([H])([H])N(C(c2c([H])c(F)c([H])c(N([H])C(=O)N3C([H])([H])C([H])([H])C([H])([H])C([H])(n4nc(-c5c([H])c([H])c(Oc6c([H])c([H])c(F)c([H])c6F)c([H])c5[H])c(C(=O)N([H])[H])c4N([H])[H])C3([H])[H])c2[H])=[N+]([H])[H])C([H])([H])C1([H])[H]

$$$$
91:0:0
     RDKit          3D

 94102  0  0  1  0  0  0  0  0999 V2000
  -30.7080  -21.1250   18.2380 C   0  0  0  0  0  3  0  0  0  0  0  0
  -30.0500  -20.0440   20.0860 C   0  0  0  0  0  0  0  0  0  0  0  0
  -30.0500  -21.3550   19.4170 C   0  0  0  0  0  0  0  0  0  0  0  0
  -30.7940  -19.1340   19.3100 C   0  0  0  0  0  0  0  0  0  0  0  0
  -31.1530  -19.8180   18.1680 O   0  0  0  0  0  0  0  0  0  0  0  0
  -29.4330  -19.7260   21.4330 C   0  0  1  0  0  0  0  0  0  0  0  0
  -28.3330  -20.4590   21.6100 F   0  0  0  0  0  0  0  0  0  0  0  0
  -29.1050  -18.4340   21.5070 F   0  0  0  0  0  0  0  0  0  0  0  0
  -30.3010  -20.0090   22.4060 F   0  0  0  0  0  0  0  0  0  0  0  0
  -29.5350  -23.9700   19.3840 C   0  0  0  0  0  0  0  0  0  0  0  0
  -29.4930  -22.6670   19.8900 N   0  0  0  0  0  0  0  0  0  0  0  0
  -30.1240  -24.2240   18.3290 O   0  0  0  0  0  0  0  0  0  0  0  0
  -28.9920  -22.6170   20.7690 H   0  0  0  0  0  0  0  0  0  0  0  0
  -28.8070  -25.1790   20.1670 C   0  0  0  0  0  2  0  0  0  0  0  0
  -28.9130  -26.6040   19.6590 O   0  0  0  0  0  0  0  0  0  0  0  0
  -24.6070  -31.4210   23.0290 C   0  0  0  0  0  0  0  0  0  0  0  0
  -27.7410  -27.4000   19.6780 C   0  0  0  0  0  0  0  0  0  0  0  0
  -23.5920  -30.0620   21.2360 C   0  0  0  0  0  3  0  0  0  0  0  0
  -25.2290  -28.8030   19.7220 C   0  0  0  0  0  0  0  0  0  0  0  0
  -26.0920  -30.6470   21.1590 C   0  0  0  0  0  2  0  0  0  0  0  0
  -26.3340  -29.3420   20.3980 C   0  0  0  0  0  0  0  0  0  0  0  0
  -27.5940  -28.6590   20.3580 C   0  0  0  0  0  3  0  0  0  0  0  0
  -26.6100  -26.9330   18.9770 C   0  0  0  0  0  3  0  0  0  0  0  0
  -25.3740  -27.6100   18.9990 C   0  0  0  0  0  3  0  0  0  0  0  0
  -23.9060  -29.5410   19.8090 C   0  0  0  0  0  2  0  0  0  0  0  0
  -24.7800  -30.7260   21.8660 N   0  0  0  0  0  0  0  0  0  0  0  0
  -23.4860  -31.5350   23.5500 O   0  0  0  0  0  0  0  0  0  0  0  0
  -23.0160  -28.9000   22.0820 C   0  0  0  0  0  0  0  0  0  0  0  0
  -21.7240  -28.5870   21.8810 N   0  0  0  0  0  0  0  0  0  0  0  0
  -23.7310  -28.2870   22.8770 O   0  0  0  0  0  0  0  0  0  0  0  0
  -21.1980  -29.1400   21.2170 H   0  0  0  0  0  0  0  0  0  0  0  0
  -18.5000  -26.9590   22.1080 C   0  0  0  0  0  0  0  0  0  0  0  0
  -20.9930  -27.4990   22.5350 C   0  0  0  0  0  3  0  0  0  0  0  0
  -21.2950  -26.1390   21.8630 C   0  0  0  0  0  2  0  0  0  0  0  0
  -20.2880  -25.7690   20.7700 C   0  0  0  0  0  2  0  0  0  0  0  0
  -18.8700  -25.6970   21.3450 C   0  0  0  0  0  2  0  0  0  0  0  0
  -19.4960  -27.8110   22.6540 C   0  0  0  0  0  0  0  0  0  0  0  0
  -19.0970  -28.9880   23.3240 C   0  0  0  0  0  3  0  0  0  0  0  0
  -17.7350  -29.3150   23.4580 C   0  0  0  0  0  3  0  0  0  0  0  0
  -16.7530  -28.4580   22.9310 C   0  0  0  0  0  3  0  0  0  0  0  0
  -17.1360  -27.2820   22.2610 C   0  0  0  0  0  3  0  0  0  0  0  0
  -25.8000  -32.1220   23.7480 C   0  0  0  0  0  3  0  0  0  0  0  0
  -26.2890  -31.3510   25.0340 C   0  0  1  0  0  0  0  0  0  0  0  0
  -25.1510  -31.0240   26.0300 C   0  0  0  0  0  1  0  0  0  0  0  0
  -26.9770  -30.0210   24.6480 C   0  0  0  0  0  1  0  0  0  0  0  0
  -27.3500  -32.1950   25.7800 C   0  0  0  0  0  1  0  0  0  0  0  0
  -25.3720  -33.4850   24.0960 N   0  0  0  0  0  0  0  0  0  0  0  0
  -25.6550  -34.5810   23.3800 C   0  0  0  0  0  0  0  0  0  0  0  0
  -26.3750  -34.5550   22.3790 O   0  0  0  0  0  0  0  0  0  0  0  0
  -24.7390  -33.5750   24.8770 H   0  0  0  0  0  0  0  0  0  0  0  0
  -23.8070  -36.2430   23.0050 C   0  0  0  0  0  1  0  0  0  0  0  0
  -25.0470  -35.9150   23.8520 C   0  0  0  0  0  3  0  0  0  0  0  0
  -27.0670  -36.9480   24.7880 C   0  0  0  0  0  1  0  0  0  0  0  0
  -25.9980  -37.0470   23.7990 N   0  0  0  0  0  0  0  0  0  0  0  0
  -25.5150  -37.9280   23.9460 H   0  0  0  0  0  0  0  0  0  0  0  0
  -31.5590  -17.7460   19.5260 C   0  0  0  0  0  2  0  0  0  0  0  0
  -31.6860  -15.1300   19.5530 C   0  0  0  0  0  0  0  0  0  0  0  0
  -31.4360  -12.7050   18.9700 C   0  0  0  0  0  2  0  0  0  0  0  0
  -30.4570  -12.5520   17.7880 C   0  0  0  0  0  2  0  0  0  0  0  0
  -29.0050  -12.4580   18.2970 C   0  0  0  0  0  2  0  0  0  0  0  0
  -28.6700  -13.5530   19.3450 C   0  0  0  0  0  3  0  0  0  0  0  0
  -29.7700  -13.6870   20.4190 C   0  0  0  0  0  2  0  0  0  0  0  0
  -31.0340  -13.9240   19.7130 N   0  0  0  0  0  0  0  0  0  0  0  0
  -32.8740  -15.1260   19.2230 O   0  0  0  0  0  0  0  0  0  0  0  0
  -30.9700  -16.3280   19.5720 N   0  0  0  0  0  0  0  0  0  0  0  0
  -29.9830  -16.2570   19.7570 H   0  0  0  0  0  0  0  0  0  0  0  0
  -26.4240  -14.3120   20.3130 C   0  0  0  0  0  0  0  0  0  0  0  0
  -25.3160  -13.6180   20.7200 C   0  0  0  0  0  0  0  0  0  0  0  0
  -25.6410  -12.2350   20.5700 C   0  0  0  0  0  0  0  0  0  0  0  0
  -27.3510  -13.3570   19.9340 N   0  0  0  0  0  0  0  0  0  0  0  0
  -26.8950  -12.0980   20.1540 N   0  0  0  0  0  0  0  0  0  0  0  0
  -24.8080  -11.0360   20.7430 C   0  0  0  0  0  0  0  0  0  0  0  0
  -25.1450  -10.0310   21.6750 C   0  0  0  0  0  3  0  0  0  0  0  0
  -24.3180   -8.8970   21.8380 C   0  0  0  0  0  3  0  0  0  0  0  0
  -23.1380   -8.7650   21.0680 C   0  0  0  0  0  0  0  0  0  0  0  0
  -22.8190   -9.7590   20.1260 C   0  0  0  0  0  3  0  0  0  0  0  0
  -23.6460  -10.8820   19.9620 C   0  0  0  0  0  3  0  0  0  0  0  0
  -22.2860   -7.6890   21.1410 O   0  0  0  0  0  0  0  0  0  0  0  0
  -22.0280   -7.0540   22.3290 C   0  0  0  0  0  0  0  0  0  0  0  0
  -21.4440   -7.7280   23.4230 C   0  0  0  0  0  3  0  0  0  0  0  0
  -21.1330   -7.0200   24.6010 C   0  0  0  0  0  3  0  0  0  0  0  0
  -21.3960   -5.6390   24.6840 C   0  0  0  0  0  0  0  0  0  0  0  0
  -21.9710   -4.9650   23.5920 C   0  0  0  0  0  3  0  0  0  0  0  0
  -22.2840   -5.6710   22.4180 C   0  0  0  0  0  0  0  0  0  0  0  0
  -22.8200   -5.0120   21.3610 F   0  0  0  0  0  0  0  0  0  0  0  0
  -21.0890   -4.9570   25.8110 F   0  0  0  0  0  0  0  0  0  0  0  0
  -23.9990  -14.2050   21.1350 C   0  0  0  0  0  0  0  0  0  0  0  0
  -23.2860  -13.5380   22.0360 N   0  0  0  0  0  0  0  0  0  0  0  0
  -23.6160  -15.2880   20.6950 O   0  0  0  0  0  0  0  0  0  0  0  0
  -23.6120  -12.6570   22.4060 H   0  0  0  0  0  0  0  0  0  0  0  0
  -22.4050  -13.9100   22.3590 H   0  0  0  0  0  0  0  0  0  0  0  0
  -26.7100  -15.6700   20.2090 N   0  0  0  0  0  0  0  0  0  0  0  0
  -26.0240  -16.3810   20.4360 H   0  0  0  0  0  0  0  0  0  0  0  0
  -27.5780  -16.0550   19.8620 H   0  0  0  0  0  0  0  0  0  0  0  0
  1  3  2  0
  2  6  1  0
  3 11  1  0
  3  2  1  0
  4 56  1  0
  4  2  2  0
  5  1  1  0
  5  4  1  0
  6  8  1  6
  6  7  1  0
  6  9  1  0
 10 11  1  0
 10 14  1  0
 11 13  1  0
 12 10  2  0
 15 17  1  0
 15 14  1  0
 16 27  2  0
 17 22  1  0
 18 26  1  0
 18 28  1  0
 19 25  1  0
 19 21  1  0
 20 26  1  0
 21 20  1  0
 22 21  2  0
 23 24  1  0
 23 17  2  0
 24 19  2  0
 25 18  1  0
 26 16  1  0
 28 30  2  0
 29 28  1  0
 31 29  1  0
 32 41  2  0
 32 37  1  0
 33 29  1  0
 33 37  1  0
 34 33  1  0
 35 36  1  0
 35 34  1  0
 36 32  1  0
 37 38  2  0
 38 39  1  0
 40 39  2  0
 41 40  1  0
 42 16  1  0
 42 47  1  0
 42 43  1  0
 43 46  1  1
 43 44  1  0
 45 43  1  0
 47 50  1  0
 48 52  1  0
 48 47  1  0
 49 48  2  0
 52 51  1  0
 54 52  1  0
 54 55  1  0
 54 53  1  0
 56 65  1  0
 57 65  1  0
 57 63  1  0
 58 63  1  0
 59 60  1  0
 59 58  1  0
 61 60  1  0
 61 70  1  0
 61 62  1  0
 63 62  1  0
 64 57  2  0
 65 66  1  0
 67 68  2  0
 68 87  1  0
 69 68  1  0
 69 72  1  0
 70 71  1  0
 70 67  1  0
 71 69  2  0
 72 73  1  0
 73 74  2  0
 75 78  1  0
 75 74  1  0
 76 75  2  0
 77 76  1  0
 77 72  2  0
 78 79  1  0
 79 84  2  0
 79 80  1  0
 80 81  2  0
 81 82  1  0
 82 86  1  0
 83 82  2  0
 84 83  1  0
 85 84  1  0
 87 88  1  0
 88 91  1  0
 88 90  1  0
 89 87  2  0
 92 67  1  0
 92 93  1  0
 94 92  1  0
M  ISO  4  14 101  15 101  57 100  65 100
M  END
>  <TORSDO>  (92) 
F 20

>  <SCORE>  (92) 
-10.494

>  <name>  (92) 
91

>  <ligand_id>  (92) 
91

>  <original_smiles>  (92) 
[H]c1oc(C([H])([H])N([H])C(=O)N2C([H])([H])C([H])([H])C([H])([H])C([H])(n3nc(-c4c([H])c([H])c(Oc5c([H])c([H])c(F)c([H])c5F)c([H])c4[H])c(C(=O)N([H])[H])c3N([H])[H])C2([H])[H])c(C(F)(F)F)c1N([H])C(=O)C([H])([H])Oc1c([H])c([H])c2c(c1[H])C([H])([H])N(C(=O)C([H])(N([H])C(=O)C([H])(N([H])C([H])([H])[H])C([H])([H])[H])C(C([H])([H])[H])(C([H])([H])[H])C([H])([H])[H])C([H])(C(=O)N([H])C1([H])c3c([H])c([H])c([H])c([H])c3C([H])([H])C([H])([H])C1([H])[H])C2([H])[H]

>  <smiles>  (92) 
[H]c1oc(C([H])([H])N([H])C(=O)N2C([H])([H])C([H])([H])C([H])([H])C([H])(n3nc(-c4c([H])c([H])c(Oc5c([H])c([H])c(F)c([H])c5F)c([H])c4[H])c(C(=O)N([H])[H])c3N([H])[H])C2([H])[H])c(C(F)(F)F)c1N([H])C(=O)C([H])([H])Oc1c([H])c([H])c2c(c1[H])C([H])([H])N(C(=O)C([H])(N([H])C(=O)C([H])(N([H])C([H])([H])[H])C([H])([H])[H])C(C([H])([H])[H])(C([H])([H])[H])C([H])([H])[H])C([H])(C(=O)N([H])C1([H])c3c([H])c([H])c([H])c([H])c3C([H])([H])C([H])([H])C1([H])[H])C2([H])[H]

$$$$
92:0:0
     RDKit          3D

 91 99  0  0  1  0  0  0  0  0999 V2000
  -28.9060  -18.3880   20.2920 C   0  0  0  0  0  3  0  0  0  0  0  0
  -29.5360  -19.6880   20.5370 C   0  0  0  0  0  0  0  0  0  0  0  0
  -29.8480  -17.3800   20.5660 C   0  0  0  0  0  0  0  0  0  0  0  0
  -29.2880  -22.3350   20.7480 C   0  0  0  0  0  0  0  0  0  0  0  0
  -30.7840  -19.4350   20.9500 N   0  0  0  0  0  0  0  0  0  0  0  0
  -28.9490  -21.0540   20.2890 N   0  0  0  0  0  0  0  0  0  0  0  0
  -30.0800  -22.4390   21.6890 O   0  0  0  0  0  0  0  0  0  0  0  0
  -30.9860  -18.0240   20.9650 O   0  0  0  0  0  0  0  0  0  0  0  0
  -28.1890  -21.0550   19.6250 H   0  0  0  0  0  0  0  0  0  0  0  0
  -30.5110  -14.8650   20.3850 C   0  0  0  0  0  0  0  0  0  0  0  0
  -30.3710  -12.5650   19.3660 C   0  0  0  0  0  2  0  0  0  0  0  0
  -29.4260  -12.5940   18.1430 C   0  0  0  0  0  2  0  0  0  0  0  0
  -27.9620  -12.3940   18.5790 C   0  0  0  0  0  2  0  0  0  0  0  0
  -27.5720  -13.2960   19.7800 C   0  0  0  0  0  3  0  0  0  0  0  0
  -28.6290  -13.2300   20.9040 C   0  0  0  0  0  2  0  0  0  0  0  0
  -29.9160  -13.6160   20.3100 N   0  0  0  0  0  0  0  0  0  0  0  0
  -31.7110  -14.9700   20.1010 O   0  0  0  0  0  0  0  0  0  0  0  0
  -29.6680  -15.9740   20.5350 N   0  0  0  0  0  0  0  0  0  0  0  0
  -28.7050  -15.6950   20.6130 H   0  0  0  0  0  0  0  0  0  0  0  0
  -25.1860  -13.8910   20.5040 C   0  0  0  0  0  0  0  0  0  0  0  0
  -24.1180  -13.1200   20.8730 C   0  0  0  0  0  0  0  0  0  0  0  0
  -24.5800  -11.7690   20.8450 C   0  0  0  0  0  0  0  0  0  0  0  0
  -26.2280  -13.0100   20.2680 N   0  0  0  0  0  0  0  0  0  0  0  0
  -25.8710  -11.7280   20.5380 N   0  0  0  0  0  0  0  0  0  0  0  0
  -23.8520  -10.5070   21.0330 C   0  0  0  0  0  0  0  0  0  0  0  0
  -24.2790   -9.5400   21.9690 C   0  0  0  0  0  3  0  0  0  0  0  0
  -23.5510   -8.3440   22.1450 C   0  0  0  0  0  3  0  0  0  0  0  0
  -22.3810   -8.1070   21.3850 C   0  0  0  0  0  0  0  0  0  0  0  0
  -21.9720   -9.0630   20.4380 C   0  0  0  0  0  3  0  0  0  0  0  0
  -22.7010  -10.2500   20.2610 C   0  0  0  0  0  3  0  0  0  0  0  0
  -21.6250   -6.9630   21.4700 O   0  0  0  0  0  0  0  0  0  0  0  0
  -21.5690   -6.2210   22.6230 C   0  0  0  0  0  0  0  0  0  0  0  0
  -21.1360   -6.7780   23.8460 C   0  0  0  0  0  3  0  0  0  0  0  0
  -21.0280   -5.9640   24.9900 C   0  0  0  0  0  3  0  0  0  0  0  0
  -21.3410   -4.5930   24.9130 C   0  0  0  0  0  0  0  0  0  0  0  0
  -21.7670   -4.0350   23.6940 C   0  0  0  0  0  3  0  0  0  0  0  0
  -21.8770   -4.8480   22.5520 C   0  0  0  0  0  0  0  0  0  0  0  0
  -22.2680   -4.3020   21.3740 F   0  0  0  0  0  0  0  0  0  0  0  0
  -21.2300   -3.8080   26.0100 F   0  0  0  0  0  0  0  0  0  0  0  0
  -22.7200  -13.6000   21.1370 C   0  0  0  0  0  0  0  0  0  0  0  0
  -21.9850  -12.9050   21.9960 N   0  0  0  0  0  0  0  0  0  0  0  0
  -22.2870  -14.6280   20.6150 O   0  0  0  0  0  0  0  0  0  0  0  0
  -22.3470  -12.0730   22.4390 H   0  0  0  0  0  0  0  0  0  0  0  0
  -21.0480  -13.2080   22.2190 H   0  0  0  0  0  0  0  0  0  0  0  0
  -25.3510  -15.2620   20.3210 N   0  0  0  0  0  0  0  0  0  0  0  0
  -24.5800  -15.9110   20.4300 H   0  0  0  0  0  0  0  0  0  0  0  0
  -26.1740  -15.6930   19.9230 H   0  0  0  0  0  0  0  0  0  0  0  0
  -28.7440  -23.7430   20.0960 C   0  0  0  0  0  2  0  0  0  0  0  0
  -28.6790  -25.0700   22.2530 C   0  0  0  0  0  1  0  0  0  0  0  0
  -28.1380  -24.9530   20.9060 N   0  0  0  0  0  0  0  0  0  0  0  0
  -28.3690  -26.3500   20.2640 O   0  0  0  0  0  0  0  0  0  0  0  0
  -24.6210  -31.9060   23.2490 C   0  0  0  0  0  0  0  0  0  0  0  0
  -27.2650  -27.2470   20.2870 C   0  0  0  0  0  0  0  0  0  0  0  0
  -23.4360  -30.4810   21.6180 C   0  0  0  0  0  3  0  0  0  0  0  0
  -24.9060  -28.9050   20.2250 C   0  0  0  0  0  0  0  0  0  0  0  0
  -25.9800  -30.7880   21.4550 C   0  0  0  0  0  2  0  0  0  0  0  0
  -26.0710  -29.3900   20.8330 C   0  0  0  0  0  0  0  0  0  0  0  0
  -27.2530  -28.5730   20.8550 C   0  0  0  0  0  3  0  0  0  0  0  0
  -26.0780  -26.8370   19.6470 C   0  0  0  0  0  3  0  0  0  0  0  0
  -24.9150  -27.6370   19.6210 C   0  0  0  0  0  3  0  0  0  0  0  0
  -23.6670  -29.7850   20.2500 C   0  0  0  0  0  2  0  0  0  0  0  0
  -24.6980  -31.0810   22.1620 N   0  0  0  0  0  0  0  0  0  0  0  0
  -23.5320  -32.1880   23.7710 O   0  0  0  0  0  0  0  0  0  0  0  0
  -22.7670  -29.4780   22.5890 C   0  0  0  0  0  0  0  0  0  0  0  0
  -21.4410  -29.2980   22.4600 N   0  0  0  0  0  0  0  0  0  0  0  0
  -23.4420  -28.8630   23.4190 O   0  0  0  0  0  0  0  0  0  0  0  0
  -20.9540  -29.8440   21.7640 H   0  0  0  0  0  0  0  0  0  0  0  0
  -18.0640  -28.1010   22.9700 C   0  0  0  0  0  0  0  0  0  0  0  0
  -20.6230  -28.3660   23.2380 C   0  0  0  0  0  3  0  0  0  0  0  0
  -20.7260  -26.9310   22.6730 C   0  0  0  0  0  2  0  0  0  0  0  0
  -19.6250  -26.5990   21.6600 C   0  0  0  0  0  2  0  0  0  0  0  0
  -18.2430  -26.7470   22.3020 C   0  0  0  0  0  2  0  0  0  0  0  0
  -19.1820  -28.8670   23.3940 C   0  0  0  0  0  0  0  0  0  0  0  0
  -18.9610  -30.1330   23.9780 C   0  0  0  0  0  3  0  0  0  0  0  0
  -17.6550  -30.6330   24.1410 C   0  0  0  0  0  3  0  0  0  0  0  0
  -16.5520  -29.8650   23.7330 C   0  0  0  0  0  3  0  0  0  0  0  0
  -16.7570  -28.5990   23.1530 C   0  0  0  0  0  3  0  0  0  0  0  0
  -25.8940  -32.5550   23.8740 C   0  0  0  0  0  3  0  0  0  0  0  0
  -25.5740  -33.9570   24.1830 N   0  0  0  0  0  0  0  0  0  0  0  0
  -25.9110  -35.0040   23.4180 C   0  0  0  0  0  0  0  0  0  0  0  0
  -26.5890  -34.8900   22.3940 O   0  0  0  0  0  0  0  0  0  0  0  0
  -24.9730  -34.1180   24.9780 H   0  0  0  0  0  0  0  0  0  0  0  0
  -24.1840  -36.7920   23.0280 C   0  0  0  0  0  1  0  0  0  0  0  0
  -25.4160  -36.3950   23.8570 C   0  0  0  0  0  3  0  0  0  0  0  0
  -27.5390  -37.2930   24.7060 C   0  0  0  0  0  1  0  0  0  0  0  0
  -26.4480  -37.4490   23.7470 N   0  0  0  0  0  0  0  0  0  0  0  0
  -26.0390  -38.3700   23.8800 H   0  0  0  0  0  0  0  0  0  0  0  0
  -26.4010  -31.8050   25.1670 C   0  0  1  0  0  0  0  0  0  0  0  0
  -25.2990  -31.5830   26.2280 C   0  0  0  0  0  1  0  0  0  0  0  0
  -26.9930  -30.4230   24.8020 C   0  0  0  0  0  1  0  0  0  0  0  0
  -27.5430  -32.6130   25.8260 C   0  0  0  0  0  1  0  0  0  0  0  0
  1  2  1  0
  1  3  2  0
  2  5  2  0
  3  8  1  0
  4  7  2  0
  5  8  1  0
  6  2  1  0
  6  4  1  0
  9  6  1  0
 10 18  1  0
 11 16  1  0
 12 13  1  0
 12 11  1  0
 14 13  1  0
 14 23  1  0
 14 15  1  0
 16 10  1  0
 16 15  1  0
 17 10  2  0
 18  3  1  0
 18 19  1  0
 20 21  2  0
 21 40  1  0
 22 21  1  0
 22 25  1  0
 23 20  1  0
 23 24  1  0
 24 22  2  0
 25 26  1  0
 26 27  2  0
 28 31  1  0
 28 27  1  0
 29 28  2  0
 30 29  1  0
 30 25  2  0
 31 32  1  0
 32 33  1  0
 33 34  2  0
 35 34  1  0
 35 39  1  0
 36 35  2  0
 37 32  2  0
 37 36  1  0
 38 37  1  0
 40 41  1  0
 41 44  1  0
 41 43  1  0
 42 40  2  0
 45 46  1  0
 45 20  1  0
 47 45  1  0
 48  4  1  0
 48 50  1  0
 50 49  1  0
 51 53  1  0
 51 50  1  0
 52 63  2  0
 53 58  1  0
 54 62  1  0
 54 64  1  0
 55 61  1  0
 55 57  1  0
 56 62  1  0
 57 58  2  0
 57 56  1  0
 59 53  2  0
 60 59  1  0
 60 55  2  0
 61 54  1  0
 62 52  1  0
 64 66  2  0
 65 64  1  0
 67 65  1  0
 68 77  2  0
 68 73  1  0
 69 65  1  0
 69 73  1  0
 70 69  1  0
 71 72  1  0
 71 70  1  0
 72 68  1  0
 73 74  2  0
 74 75  1  0
 76 75  2  0
 77 76  1  0
 78 52  1  0
 78 79  1  0
 78 88  1  0
 79 82  1  0
 80 84  1  0
 80 79  1  0
 81 80  2  0
 84 83  1  0
 86 84  1  0
 86 87  1  0
 86 85  1  0
 88 91  1  1
 88 89  1  0
 90 88  1  0
M  ISO  4  10 100  18 100  50 101  51 101
M  END
>  <TORSDO>  (93) 
F 18

>  <SCORE>  (93) 
-14.803

>  <name>  (93) 
92

>  <ligand_id>  (93) 
92

>  <original_smiles>  (93) 
[H]c1c(N([H])C(=O)C([H])([H])N(Oc2c([H])c([H])c3c(c2[H])C([H])([H])N(C(=O)C([H])(N([H])C(=O)C([H])(N([H])C([H])([H])[H])C([H])([H])[H])C(C([H])([H])[H])(C([H])([H])[H])C([H])([H])[H])C([H])(C(=O)N([H])C2([H])c4c([H])c([H])c([H])c([H])c4C([H])([H])C([H])([H])C2([H])[H])C3([H])[H])C([H])([H])[H])noc1N([H])C(=O)N1C([H])([H])C([H])([H])C([H])([H])C([H])(n2nc(-c3c([H])c([H])c(Oc4c([H])c([H])c(F)c([H])c4F)c([H])c3[H])c(C(=O)N([H])[H])c2N([H])[H])C1([H])[H]

>  <smiles>  (93) 
[H]c1c(N([H])C(=O)C([H])([H])N(Oc2c([H])c([H])c3c(c2[H])C([H])([H])N(C(=O)C([H])(N([H])C(=O)C([H])(N([H])C([H])([H])[H])C([H])([H])[H])C(C([H])([H])[H])(C([H])([H])[H])C([H])([H])[H])C([H])(C(=O)N([H])C2([H])c4c([H])c([H])c([H])c([H])c4C([H])([H])C([H])([H])C2([H])[H])C3([H])[H])C([H])([H])[H])noc1N([H])C(=O)N1C([H])([H])C([H])([H])C([H])([H])C([H])(n2nc(-c3c([H])c([H])c(Oc4c([H])c([H])c(F)c([H])c4F)c([H])c3[H])c(C(=O)N([H])[H])c2N([H])[H])C1([H])[H]

$$$$
93:0:0
     RDKit          3D

 92100  0  0  1  0  0  0  0  0999 V2000
  -30.4790  -15.0740   20.4000 C   0  0  0  0  0  0  0  0  0  0  0  0
  -30.4100  -12.6900   19.4930 C   0  0  0  0  0  2  0  0  0  0  0  0
  -29.4950  -12.5820   18.2490 C   0  0  0  0  0  2  0  0  0  0  0  0
  -28.0300  -12.3550   18.6680 C   0  0  0  0  0  2  0  0  0  0  0  0
  -27.5890  -13.3180   19.8010 C   0  0  0  0  0  3  0  0  0  0  0  0
  -28.6230  -13.3740   20.9450 C   0  0  0  0  0  2  0  0  0  0  0  0
  -29.8940  -13.8010   20.3450 N   0  0  0  0  0  0  0  0  0  0  0  0
  -31.7010  -15.1190   20.2160 O   0  0  0  0  0  0  0  0  0  0  0  0
  -29.4250  -20.2720   20.4010 C   0  0  0  0  0  0  0  0  0  0  0  0
  -30.7410  -20.2050   20.8550 C   0  0  0  0  0  0  0  0  0  0  0  0
  -29.9010  -17.7850   20.4650 C   0  0  0  0  0  0  0  0  0  0  0  0
  -29.0010  -18.8450   20.2230 N   0  0  0  0  0  0  0  0  0  0  0  0
  -29.6630  -16.2560   20.4130 N   0  0  0  0  0  0  0  0  0  0  0  0
  -31.4110  -18.5480   20.9630 S   0  0  0  0  0  0  0  0  0  0  0  0
  -28.6840  -16.0260   20.4030 H   0  0  0  0  0  0  0  0  0  0  0  0
  -25.1980  -13.9070   20.4910 C   0  0  0  0  0  0  0  0  0  0  0  0
  -24.1270  -13.1380   20.8480 C   0  0  0  0  0  0  0  0  0  0  0  0
  -24.5920  -11.7860   20.8470 C   0  0  0  0  0  0  0  0  0  0  0  0
  -26.2460  -13.0260   20.2840 N   0  0  0  0  0  0  0  0  0  0  0  0
  -25.8880  -11.7450   20.5630 N   0  0  0  0  0  0  0  0  0  0  0  0
  -23.8610  -10.5260   21.0330 C   0  0  0  0  0  0  0  0  0  0  0  0
  -24.2760   -9.5650   21.9810 C   0  0  0  0  0  3  0  0  0  0  0  0
  -23.5450   -8.3700   22.1560 C   0  0  0  0  0  3  0  0  0  0  0  0
  -22.3850   -8.1290   21.3830 C   0  0  0  0  0  0  0  0  0  0  0  0
  -21.9890   -9.0790   20.4250 C   0  0  0  0  0  3  0  0  0  0  0  0
  -22.7210  -10.2640   20.2480 C   0  0  0  0  0  3  0  0  0  0  0  0
  -21.6250   -6.9870   21.4690 O   0  0  0  0  0  0  0  0  0  0  0  0
  -21.5590   -6.2530   22.6260 C   0  0  0  0  0  0  0  0  0  0  0  0
  -21.1090   -6.8140   23.8400 C   0  0  0  0  0  3  0  0  0  0  0  0
  -20.9890   -6.0050   24.9890 C   0  0  0  0  0  3  0  0  0  0  0  0
  -21.3090   -4.6370   24.9220 C   0  0  0  0  0  0  0  0  0  0  0  0
  -21.7510   -4.0740   23.7120 C   0  0  0  0  0  3  0  0  0  0  0  0
  -21.8730   -4.8790   22.5670 C   0  0  0  0  0  0  0  0  0  0  0  0
  -22.2790   -4.3280   21.3970 F   0  0  0  0  0  0  0  0  0  0  0  0
  -21.1870   -3.8570   26.0220 F   0  0  0  0  0  0  0  0  0  0  0  0
  -22.7240  -13.6170   21.0800 C   0  0  0  0  0  0  0  0  0  0  0  0
  -21.9780  -12.9370   21.9420 N   0  0  0  0  0  0  0  0  0  0  0  0
  -22.2980  -14.6320   20.5300 O   0  0  0  0  0  0  0  0  0  0  0  0
  -22.3340  -12.1170   22.4100 H   0  0  0  0  0  0  0  0  0  0  0  0
  -21.0350  -13.2410   22.1390 H   0  0  0  0  0  0  0  0  0  0  0  0
  -25.3650  -15.2750   20.2950 N   0  0  0  0  0  0  0  0  0  0  0  0
  -24.5900  -15.9240   20.3720 H   0  0  0  0  0  0  0  0  0  0  0  0
  -26.1950  -15.7030   19.9050 H   0  0  0  0  0  0  0  0  0  0  0  0
  -31.5960  -21.2350   21.2460 N   0  0  0  0  0  0  0  0  0  0  0  0
  -31.2410  -22.0940   21.6520 H   0  0  0  0  0  0  0  0  0  0  0  0
  -32.5010  -20.9960   21.6410 H   0  0  0  0  0  0  0  0  0  0  0  0
  -28.5780  -21.6150   20.1320 C   0  0  0  0  0  0  0  0  0  0  0  0
  -27.4390  -21.4870   19.6680 O   0  0  0  0  0  0  0  0  0  0  0  0
  -28.9860  -23.2260   20.4040 C   0  0  0  0  0  2  0  0  0  0  0  0
  -28.1470  -24.5680   18.3360 C   0  0  0  0  0  1  0  0  0  0  0  0
  -28.0920  -24.5970   19.8800 C   0  0  0  0  0  3  0  0  0  0  0  0
  -28.2700  -26.1270   20.2690 O   0  0  0  0  0  0  0  0  0  0  0  0
  -24.6380  -31.8870   23.2520 C   0  0  0  0  0  0  0  0  0  0  0  0
  -27.2150  -27.1330   20.2110 C   0  0  0  0  0  0  0  0  0  0  0  0
  -23.4440  -30.4880   21.6170 C   0  0  0  0  0  3  0  0  0  0  0  0
  -24.8920  -28.9180   20.1920 C   0  0  0  0  0  0  0  0  0  0  0  0
  -26.0040  -30.7480   21.4520 C   0  0  0  0  0  2  0  0  0  0  0  0
  -26.0810  -29.3550   20.7920 C   0  0  0  0  0  0  0  0  0  0  0  0
  -27.2440  -28.4830   20.7750 C   0  0  0  0  0  3  0  0  0  0  0  0
  -25.9810  -26.8050   19.6030 C   0  0  0  0  0  3  0  0  0  0  0  0
  -24.8580  -27.6590   19.5810 C   0  0  0  0  0  3  0  0  0  0  0  0
  -23.6680  -29.8170   20.2380 C   0  0  0  0  0  2  0  0  0  0  0  0
  -24.7160  -31.0620   22.1630 N   0  0  0  0  0  0  0  0  0  0  0  0
  -23.5480  -32.1700   23.7770 O   0  0  0  0  0  0  0  0  0  0  0  0
  -22.7640  -29.4770   22.5770 C   0  0  0  0  0  0  0  0  0  0  0  0
  -21.4370  -29.3010   22.4470 N   0  0  0  0  0  0  0  0  0  0  0  0
  -23.4380  -28.8560   23.4030 O   0  0  0  0  0  0  0  0  0  0  0  0
  -20.9520  -29.8550   21.7540 H   0  0  0  0  0  0  0  0  0  0  0  0
  -18.0620  -28.0820   22.9430 C   0  0  0  0  0  0  0  0  0  0  0  0
  -20.6200  -28.3600   23.2190 C   0  0  0  0  0  3  0  0  0  0  0  0
  -20.7310  -26.9270   22.6480 C   0  0  0  0  0  2  0  0  0  0  0  0
  -19.6340  -26.5950   21.6320 C   0  0  0  0  0  2  0  0  0  0  0  0
  -18.2500  -26.7330   22.2720 C   0  0  0  0  0  2  0  0  0  0  0  0
  -19.1740  -28.8530   23.3760 C   0  0  0  0  0  0  0  0  0  0  0  0
  -18.9430  -30.1160   23.9650 C   0  0  0  0  0  3  0  0  0  0  0  0
  -17.6330  -30.6060   24.1290 C   0  0  0  0  0  3  0  0  0  0  0  0
  -16.5370  -29.8320   23.7120 C   0  0  0  0  0  3  0  0  0  0  0  0
  -16.7520  -28.5710   23.1260 C   0  0  0  0  0  3  0  0  0  0  0  0
  -25.9110  -32.5290   23.8790 C   0  0  0  0  0  3  0  0  0  0  0  0
  -26.4150  -31.7680   25.1680 C   0  0  1  0  0  0  0  0  0  0  0  0
  -25.3130  -31.5400   26.2300 C   0  0  0  0  0  1  0  0  0  0  0  0
  -27.0000  -30.3860   24.7980 C   0  0  0  0  0  1  0  0  0  0  0  0
  -27.5650  -32.5640   25.8270 C   0  0  0  0  0  1  0  0  0  0  0  0
  -25.5930  -33.9280   24.2050 N   0  0  0  0  0  0  0  0  0  0  0  0
  -25.9180  -34.9830   23.4460 C   0  0  0  0  0  0  0  0  0  0  0  0
  -26.5800  -34.8790   22.4120 O   0  0  0  0  0  0  0  0  0  0  0  0
  -25.0030  -34.0830   25.0100 H   0  0  0  0  0  0  0  0  0  0  0  0
  -24.1750  -36.7660   23.1090 C   0  0  0  0  0  1  0  0  0  0  0  0
  -25.4300  -36.3710   23.9040 C   0  0  0  0  0  3  0  0  0  0  0  0
  -27.5700  -37.2750   24.7010 C   0  0  0  0  0  1  0  0  0  0  0  0
  -26.4550  -37.4290   23.7700 N   0  0  0  0  0  0  0  0  0  0  0  0
  -26.0470  -38.3480   23.9160 H   0  0  0  0  0  0  0  0  0  0  0  0
  1 13  1  0
  2  7  1  0
  3  4  1  0
  3  2  1  0
  5  4  1  0
  5 19  1  0
  5  6  1  0
  7  1  1  0
  7  6  1  0
  8  1  2  0
  9 10  2  0
 10 14  1  0
 10 44  1  0
 11 14  1  0
 12  9  1  0
 12 11  2  0
 13 11  1  0
 15 13  1  0
 16 17  2  0
 17 36  1  0
 18 17  1  0
 18 21  1  0
 19 16  1  0
 19 20  1  0
 20 18  2  0
 21 22  1  0
 22 23  2  0
 24 27  1  0
 24 23  1  0
 25 24  2  0
 26 25  1  0
 26 21  2  0
 27 28  1  0
 28 29  1  0
 29 30  2  0
 31 30  1  0
 31 35  1  0
 32 31  2  0
 33 28  2  0
 33 32  1  0
 34 33  1  0
 36 37  1  0
 37 40  1  0
 37 39  1  0
 38 36  2  0
 41 42  1  0
 41 16  1  0
 43 41  1  0
 44 46  1  0
 44 45  1  0
 47  9  1  0
 47 49  1  0
 48 47  2  0
 51 50  1  0
 51 52  1  0
 51 49  1  0
 53 64  2  0
 54 52  1  0
 54 59  1  0
 55 63  1  0
 55 65  1  0
 56 62  1  0
 56 58  1  0
 57 63  1  0
 58 57  1  0
 59 58  2  0
 60 54  2  0
 61 60  1  0
 61 56  2  0
 62 55  1  0
 63 53  1  0
 65 67  2  0
 66 65  1  0
 68 66  1  0
 69 78  2  0
 69 74  1  0
 70 66  1  0
 70 74  1  0
 71 70  1  0
 72 73  1  0
 72 71  1  0
 73 69  1  0
 74 75  2  0
 75 76  1  0
 77 76  2  0
 78 77  1  0
 79 53  1  0
 79 84  1  0
 79 80  1  0
 80 83  1  1
 80 81  1  0
 82 80  1  0
 84 87  1  0
 85 89  1  0
 85 84  1  0
 86 85  2  0
 89 88  1  0
 91 89  1  0
 91 92  1  0
 91 90  1  0
M  ISO  4   1 100  13 100  51 101  52 101
M  END
>  <TORSDO>  (94) 
F 19

>  <SCORE>  (94) 
-15.133

>  <name>  (94) 
93

>  <ligand_id>  (94) 
93

>  <original_smiles>  (94) 
[H]c1c([H])c([H])c2c(c1[H])C([H])([H])C([H])([H])C([H])([H])C2([H])N([H])C(=O)C1([H])N(C(=O)C([H])(N([H])C(=O)C([H])(N([H])C([H])([H])[H])C([H])([H])[H])C(C([H])([H])[H])(C([H])([H])[H])C([H])([H])[H])C([H])([H])c2c([H])c(OC([H])(C([H])([H])[H])C([H])([H])C(=O)c3nc(N([H])C(=O)N4C([H])([H])C([H])([H])C([H])([H])C([H])(n5nc(-c6c([H])c([H])c(Oc7c([H])c([H])c(F)c([H])c7F)c([H])c6[H])c(C(=O)N([H])[H])c5N([H])[H])C4([H])[H])sc3N([H])[H])c([H])c([H])c2C1([H])[H]

>  <smiles>  (94) 
[H]c1c([H])c([H])c2c(c1[H])C([H])([H])C([H])([H])C([H])([H])C2([H])N([H])C(=O)C1([H])N(C(=O)C([H])(N([H])C(=O)C([H])(N([H])C([H])([H])[H])C([H])([H])[H])C(C([H])([H])[H])(C([H])([H])[H])C([H])([H])[H])C([H])([H])c2c([H])c(OC([H])(C([H])([H])[H])C([H])([H])C(=O)c3nc(N([H])C(=O)N4C([H])([H])C([H])([H])C([H])([H])C([H])(n5nc(-c6c([H])c([H])c(Oc7c([H])c([H])c(F)c([H])c7F)c([H])c6[H])c(C(=O)N([H])[H])c5N([H])[H])C4([H])[H])sc3N([H])[H])c([H])c([H])c2C1([H])[H]

$$$$
94:0:0
     RDKit          3D

 96105  0  0  1  0  0  0  0  0999 V2000
  -29.9730  -18.9020   19.9870 C   0  0  0  0  0  3  0  0  0  0  0  0
  -30.2250  -20.2750   22.0490 C   0  0  0  0  0  3  0  0  0  0  0  0
  -30.1260  -17.7790   20.8380 C   0  0  0  0  0  0  0  0  0  0  0  0
  -30.2650  -17.9120   22.2490 C   0  0  0  0  0  0  0  0  0  0  0  0
  -29.9760  -20.1910   20.6320 C   0  0  0  0  0  0  0  0  0  0  0  0
  -30.3620  -19.1410   22.8930 C   0  0  0  0  0  0  0  0  0  0  0  0
  -30.2600  -16.4240   22.4990 C   0  0  0  0  0  2  0  0  0  0  0  0
  -30.1390  -16.2450   20.9100 C   0  0  0  0  0  3  0  0  0  0  0  0
  -31.5840  -14.5180   19.6170 C   0  0  0  0  0  0  0  0  0  0  0  0
  -30.8410  -12.5540   18.3300 C   0  0  0  0  0  2  0  0  0  0  0  0
  -29.7060  -12.9290   17.3580 C   0  0  0  0  0  2  0  0  0  0  0  0
  -28.3510  -12.7400   18.0580 C   0  0  0  0  0  2  0  0  0  0  0  0
  -28.2940  -13.4310   19.4430 C   0  0  0  0  0  3  0  0  0  0  0  0
  -29.5470  -13.1160   20.2960 C   0  0  0  0  0  2  0  0  0  0  0  0
  -30.7380  -13.4490   19.5010 N   0  0  0  0  0  0  0  0  0  0  0  0
  -32.6180  -14.5880   18.9560 O   0  0  0  0  0  0  0  0  0  0  0  0
  -31.3410  -15.5750   20.4170 N   0  0  0  0  0  0  0  0  0  0  0  0
  -32.1400  -16.1930   20.4330 H   0  0  0  0  0  0  0  0  0  0  0  0
  -26.1060  -13.9640   20.6790 C   0  0  0  0  0  0  0  0  0  0  0  0
  -25.0970  -13.1600   21.1410 C   0  0  0  0  0  0  0  0  0  0  0  0
  -25.4950  -11.8200   20.8510 C   0  0  0  0  0  0  0  0  0  0  0  0
  -27.0560  -13.1080   20.1470 N   0  0  0  0  0  0  0  0  0  0  0  0
  -26.7060  -11.8060   20.3060 N   0  0  0  0  0  0  0  0  0  0  0  0
  -24.7690  -10.5520   21.0070 C   0  0  0  0  0  0  0  0  0  0  0  0
  -25.1930   -9.5670   21.9270 C   0  0  0  0  0  3  0  0  0  0  0  0
  -24.4660   -8.3660   22.0750 C   0  0  0  0  0  3  0  0  0  0  0  0
  -23.3030   -8.1410   21.3020 C   0  0  0  0  0  0  0  0  0  0  0  0
  -22.8990   -9.1130   20.3700 C   0  0  0  0  0  3  0  0  0  0  0  0
  -23.6260  -10.3060   20.2200 C   0  0  0  0  0  3  0  0  0  0  0  0
  -22.5480   -6.9930   21.3580 O   0  0  0  0  0  0  0  0  0  0  0  0
  -22.2780   -6.3690   22.5500 C   0  0  0  0  0  0  0  0  0  0  0  0
  -21.6720   -7.0510   23.6290 C   0  0  0  0  0  3  0  0  0  0  0  0
  -21.3430   -6.3530   24.8080 C   0  0  0  0  0  3  0  0  0  0  0  0
  -21.6150   -4.9750   24.9090 C   0  0  0  0  0  0  0  0  0  0  0  0
  -22.2140   -4.2940   23.8360 C   0  0  0  0  0  3  0  0  0  0  0  0
  -22.5410   -4.9890   22.6580 C   0  0  0  0  0  0  0  0  0  0  0  0
  -23.0980   -4.3230   21.6180 F   0  0  0  0  0  0  0  0  0  0  0  0
  -21.2940   -4.3020   26.0390 F   0  0  0  0  0  0  0  0  0  0  0  0
  -23.7900  -13.6140   21.7240 C   0  0  0  0  0  0  0  0  0  0  0  0
  -23.2610  -12.8740   22.6920 N   0  0  0  0  0  0  0  0  0  0  0  0
  -23.2520  -14.6560   21.3550 O   0  0  0  0  0  0  0  0  0  0  0  0
  -23.7120  -12.0280   23.0100 H   0  0  0  0  0  0  0  0  0  0  0  0
  -22.3910  -13.1540   23.1210 H   0  0  0  0  0  0  0  0  0  0  0  0
  -26.2790  -15.3450   20.6450 N   0  0  0  0  0  0  0  0  0  0  0  0
  -25.5510  -15.9830   20.9510 H   0  0  0  0  0  0  0  0  0  0  0  0
  -27.0530  -15.8200   20.1980 H   0  0  0  0  0  0  0  0  0  0  0  0
  -29.0090  -22.4870   20.2520 C   0  0  0  0  0  0  0  0  0  0  0  0
  -29.7600  -21.4130   19.8760 N   0  0  0  0  0  0  0  0  0  0  0  0
  -28.3040  -22.4650   21.2650 O   0  0  0  0  0  0  0  0  0  0  0  0
  -30.2020  -21.4760   18.9670 H   0  0  0  0  0  0  0  0  0  0  0  0
  -28.9760  -23.7770   19.3810 C   0  0  0  0  0  2  0  0  0  0  0  0
  -28.4520  -25.0360   20.1490 C   0  0  0  0  0  2  0  0  0  0  0  0
  -28.5900  -26.3120   19.4720 O   0  0  0  0  0  0  0  0  0  0  0  0
  -24.7410  -31.3720   22.7410 C   0  0  0  0  0  0  0  0  0  0  0  0
  -27.4480  -27.0930   19.4720 C   0  0  0  0  0  0  0  0  0  0  0  0
  -23.5670  -30.0370   21.0230 C   0  0  0  0  0  3  0  0  0  0  0  0
  -25.0480  -28.5960   19.5280 C   0  0  0  0  0  0  0  0  0  0  0  0
  -26.0940  -30.4320   20.8640 C   0  0  0  0  0  2  0  0  0  0  0  0
  -26.2000  -29.0990   20.1460 C   0  0  0  0  0  0  0  0  0  0  0  0
  -27.4100  -28.3590   20.1070 C   0  0  0  0  0  3  0  0  0  0  0  0
  -26.2750  -26.6100   18.8500 C   0  0  0  0  0  3  0  0  0  0  0  0
  -25.0800  -27.3520   18.8760 C   0  0  0  0  0  3  0  0  0  0  0  0
  -23.7910  -29.4350   19.6130 C   0  0  0  0  0  2  0  0  0  0  0  0
  -24.8170  -30.6290   21.6000 N   0  0  0  0  0  0  0  0  0  0  0  0
  -23.6510  -31.5980   23.2870 O   0  0  0  0  0  0  0  0  0  0  0  0
  -22.9270  -28.9600   21.9300 C   0  0  0  0  0  0  0  0  0  0  0  0
  -21.5910  -28.8400   21.8660 N   0  0  0  0  0  0  0  0  0  0  0  0
  -23.6290  -28.2390   22.6450 O   0  0  0  0  0  0  0  0  0  0  0  0
  -21.0860  -29.4820   21.2720 H   0  0  0  0  0  0  0  0  0  0  0  0
  -18.1960  -27.8230   22.5570 C   0  0  0  0  0  0  0  0  0  0  0  0
  -20.7800  -27.8640   22.5930 C   0  0  0  0  0  3  0  0  0  0  0  0
  -20.7110  -26.5170   21.8380 C   0  0  0  0  0  2  0  0  0  0  0  0
  -19.4970  -26.4100   20.9110 C   0  0  0  0  0  2  0  0  0  0  0  0
  -18.1980  -26.5630   21.7080 C   0  0  0  0  0  2  0  0  0  0  0  0
  -19.4080  -28.4400   22.9610 C   0  0  0  0  0  0  0  0  0  0  0  0
  -19.3540  -29.6270   23.7210 C   0  0  0  0  0  3  0  0  0  0  0  0
  -18.1170  -30.1900   24.0870 C   0  0  0  0  0  3  0  0  0  0  0  0
  -16.9190  -29.5660   23.6980 C   0  0  0  0  0  3  0  0  0  0  0  0
  -16.9600  -28.3820   22.9410 C   0  0  0  0  0  3  0  0  0  0  0  0
  -26.0110  -31.9900   23.3990 C   0  0  0  0  0  3  0  0  0  0  0  0
  -26.5950  -31.1110   24.5730 C   0  0  1  0  0  0  0  0  0  0  0  0
  -25.5440  -30.7070   25.6330 C   0  0  0  0  0  1  0  0  0  0  0  0
  -27.2310  -29.8130   24.0210 C   0  0  0  0  0  1  0  0  0  0  0  0
  -27.7170  -31.8870   25.3010 C   0  0  0  0  0  1  0  0  0  0  0  0
  -25.6450  -33.3260   23.8850 N   0  0  0  0  0  0  0  0  0  0  0  0
  -25.9260  -34.4730   23.2520 C   0  0  0  0  0  0  0  0  0  0  0  0
  -26.5900  -34.5180   22.2130 O   0  0  0  0  0  0  0  0  0  0  0  0
  -25.0420  -33.3580   24.6940 H   0  0  0  0  0  0  0  0  0  0  0  0
  -24.1180  -36.2240   23.1110 C   0  0  0  0  0  1  0  0  0  0  0  0
  -25.3810  -35.7770   23.8660 C   0  0  0  0  0  3  0  0  0  0  0  0
  -27.4790  -36.6560   24.7960 C   0  0  0  0  0  1  0  0  0  0  0  0
  -26.3680  -36.8800   23.8760 N   0  0  0  0  0  0  0  0  0  0  0  0
  -25.9200  -37.7580   24.1270 H   0  0  0  0  0  0  0  0  0  0  0  0
  -30.5840  -19.2480   24.2620 N   0  0  0  0  0  0  0  0  0  0  0  0
  -30.9170  -20.1380   24.6220 H   0  0  0  0  0  0  0  0  0  0  0  0
  -31.0050  -18.4550   24.7350 H   0  0  0  0  0  0  0  0  0  0  0  0
  1  5  2  0
  1  3  1  0
  2  6  2  0
  3  8  1  0
  3  4  2  0
  4  7  1  0
  4  6  1  0
  5  2  1  0
  6 94  1  0
  8 17  1  0
  8  7  1  0
  9 17  1  0
 10 15  1  0
 11 12  1  0
 11 10  1  0
 13 12  1  0
 13 22  1  0
 13 14  1  0
 15  9  1  0
 15 14  1  0
 16  9  2  0
 17 18  1  0
 19 20  2  0
 20 39  1  0
 21 24  1  0
 21 20  1  0
 22 23  1  0
 22 19  1  0
 23 21  2  0
 24 25  1  0
 25 26  2  0
 27 30  1  0
 27 26  1  0
 28 27  2  0
 29 28  1  0
 29 24  2  0
 30 31  1  0
 31 36  2  0
 31 32  1  0
 32 33  2  0
 33 34  1  0
 34 38  1  0
 35 34  2  0
 36 35  1  0
 37 36  1  0
 39 40  1  0
 40 42  1  0
 40 43  1  0
 41 39  2  0
 44 19  1  0
 44 45  1  0
 46 44  1  0
 47 49  2  0
 48 47  1  0
 48  5  1  0
 50 48  1  0
 51 52  1  0
 51 47  1  0
 53 52  1  0
 54 65  2  0
 55 53  1  0
 55 60  1  0
 56 64  1  0
 56 66  1  0
 57 63  1  0
 57 59  1  0
 58 64  1  0
 59 58  1  0
 60 59  2  0
 61 62  1  0
 61 55  2  0
 62 57  2  0
 63 56  1  0
 64 54  1  0
 66 68  2  0
 67 66  1  0
 69 67  1  0
 70 79  2  0
 70 75  1  0
 71 67  1  0
 71 75  1  0
 72 71  1  0
 73 74  1  0
 73 72  1  0
 74 70  1  0
 75 76  2  0
 76 77  1  0
 78 77  2  0
 79 78  1  0
 80 54  1  0
 80 85  1  0
 80 81  1  0
 81 84  1  1
 81 82  1  0
 83 81  1  0
 85 88  1  0
 86 90  1  0
 86 85  1  0
 87 86  2  0
 90 89  1  0
 90 92  1  0
 92 93  1  0
 92 91  1  0
 94 95  1  0
 94 96  1  0
M  ISO  4   9 100  17 100  52 101  53 101
M  END
>  <TORSDO>  (95) 
F 20

>  <SCORE>  (95) 
-9.092

>  <name>  (95) 
94

>  <ligand_id>  (95) 
94

>  <original_smiles>  (95) 
[H]c1c([H])c([H])c2c(c1[H])C([H])([H])C([H])([H])C([H])([H])C2([H])N([H])C(=O)C1([H])N(C(=O)C([H])(N([H])C(=O)C([H])(N([H])C([H])([H])[H])C([H])([H])[H])C(C([H])([H])[H])(C([H])([H])[H])C([H])([H])[H])C([H])([H])c2c([H])c(OC([H])([H])C([H])([H])C(=O)N([H])c3c([H])c(N([H])[H])c4c(c3[H])C([H])(N([H])C(=O)N3C([H])([H])C([H])([H])C([H])([H])C([H])(n5nc(-c6c([H])c([H])c(Oc7c([H])c([H])c(F)c([H])c7F)c([H])c6[H])c(C(=O)N([H])[H])c5N([H])[H])C3([H])[H])C4([H])[H])c([H])c([H])c2C1([H])[H]

>  <smiles>  (95) 
[H]c1c([H])c([H])c2c(c1[H])C([H])([H])C([H])([H])C([H])([H])C2([H])N([H])C(=O)C1([H])N(C(=O)C([H])(N([H])C(=O)C([H])(N([H])C([H])([H])[H])C([H])([H])[H])C(C([H])([H])[H])(C([H])([H])[H])C([H])([H])[H])C([H])([H])c2c([H])c(OC([H])([H])C([H])([H])C(=O)N([H])c3c([H])c(N([H])[H])c4c(c3[H])C([H])(N([H])C(=O)N3C([H])([H])C([H])([H])C([H])([H])C([H])(n5nc(-c6c([H])c([H])c(Oc7c([H])c([H])c(F)c([H])c7F)c([H])c6[H])c(C(=O)N([H])[H])c5N([H])[H])C3([H])[H])C4([H])[H])c([H])c([H])c2C1([H])[H]

$$$$
95:0:0
     RDKit          3D

 98107  0  0  1  0  0  0  0  0999 V2000
  -28.6950  -24.2600   19.2850 C   0  0  0  0  0  0  0  0  0  0  0  0
  -28.4630  -25.6010   19.1650 C   0  0  0  0  0  3  0  0  0  0  0  0
  -29.5710  -20.8850   20.7290 C   0  0  0  0  0  3  0  0  0  0  0  0
  -28.7400  -23.3740   18.0620 C   0  0  0  0  0  2  0  0  0  0  0  0
  -28.9100  -23.3730   20.5200 C   0  0  0  0  0  2  0  0  0  0  0  0
  -28.8530  -21.9270   18.5510 C   0  0  0  0  0  2  0  0  0  0  0  0
  -29.1600  -21.9800   19.9980 N   0  0  0  0  0  0  0  0  0  0  0  0
  -29.5890  -21.0100   22.0520 N   0  0  0  0  0  0  0  0  0  0  0  0
  -29.9510  -20.2530   22.6130 H   0  0  0  0  0  0  0  0  0  0  0  0
  -29.2440  -21.8300   22.5170 H   0  0  0  0  0  0  0  0  0  0  0  0
  -31.0350  -19.6660   19.1420 C   0  0  0  0  0  3  0  0  0  0  0  0
  -29.6970  -18.2850   20.6500 C   0  0  0  0  0  3  0  0  0  0  0  0
  -31.1770  -17.2400   19.0240 C   0  0  0  0  0  3  0  0  0  0  0  0
  -30.0600  -19.5890   20.1570 C   0  0  0  0  0  0  0  0  0  0  0  0
  -31.5630  -18.5090   18.5530 C   0  0  0  0  0  0  0  0  0  0  0  0
  -30.2800  -17.0850   20.1140 C   0  0  0  0  0  0  0  0  0  0  0  0
  -30.6820  -14.6020   20.4180 C   0  0  0  0  0  0  0  0  0  0  0  0
  -30.3930  -12.3910   19.3700 C   0  0  0  0  0  2  0  0  0  0  0  0
  -29.4730  -12.5610   18.1410 C   0  0  0  0  0  2  0  0  0  0  0  0
  -27.9950  -12.4260   18.5550 C   0  0  0  0  0  2  0  0  0  0  0  0
  -27.6350  -13.2880   19.7960 C   0  0  0  0  0  3  0  0  0  0  0  0
  -28.6820  -13.1340   20.9220 C   0  0  0  0  0  2  0  0  0  0  0  0
  -30.0020  -13.4220   20.3500 N   0  0  0  0  0  0  0  0  0  0  0  0
  -31.8780  -14.6590   20.1220 O   0  0  0  0  0  0  0  0  0  0  0  0
  -29.9540  -15.7460   20.6070 N   0  0  0  0  0  0  0  0  0  0  0  0
  -29.0310  -15.6180   20.9930 H   0  0  0  0  0  0  0  0  0  0  0  0
  -25.2390  -13.8950   20.4910 C   0  0  0  0  0  0  0  0  0  0  0  0
  -24.1670  -13.1250   20.8550 C   0  0  0  0  0  0  0  0  0  0  0  0
  -24.6280  -11.7720   20.8390 C   0  0  0  0  0  0  0  0  0  0  0  0
  -26.2830  -13.0110   20.2730 N   0  0  0  0  0  0  0  0  0  0  0  0
  -25.9220  -11.7310   20.5440 N   0  0  0  0  0  0  0  0  0  0  0  0
  -23.8990  -10.5120   21.0300 C   0  0  0  0  0  0  0  0  0  0  0  0
  -24.3220   -9.5500   21.9720 C   0  0  0  0  0  3  0  0  0  0  0  0
  -23.5930   -8.3550   22.1530 C   0  0  0  0  0  3  0  0  0  0  0  0
  -22.4260   -8.1130   21.3880 C   0  0  0  0  0  0  0  0  0  0  0  0
  -22.0230   -9.0640   20.4350 C   0  0  0  0  0  3  0  0  0  0  0  0
  -22.7520  -10.2510   20.2530 C   0  0  0  0  0  3  0  0  0  0  0  0
  -21.6680   -6.9710   21.4770 O   0  0  0  0  0  0  0  0  0  0  0  0
  -21.6110   -6.2340   22.6320 C   0  0  0  0  0  0  0  0  0  0  0  0
  -21.1710   -6.7920   23.8520 C   0  0  0  0  0  3  0  0  0  0  0  0
  -21.0600   -5.9810   24.9980 C   0  0  0  0  0  3  0  0  0  0  0  0
  -21.3780   -4.6110   24.9270 C   0  0  0  0  0  0  0  0  0  0  0  0
  -21.8110   -4.0530   23.7120 C   0  0  0  0  0  3  0  0  0  0  0  0
  -21.9250   -4.8610   22.5680 C   0  0  0  0  0  0  0  0  0  0  0  0
  -22.3210   -4.3120   21.3940 F   0  0  0  0  0  0  0  0  0  0  0  0
  -21.2650   -3.8300   26.0260 F   0  0  0  0  0  0  0  0  0  0  0  0
  -22.7670  -13.6050   21.1080 C   0  0  0  0  0  0  0  0  0  0  0  0
  -22.0290  -12.9150   21.9690 N   0  0  0  0  0  0  0  0  0  0  0  0
  -22.3370  -14.6280   20.5770 O   0  0  0  0  0  0  0  0  0  0  0  0
  -22.3890  -12.0880   22.4220 H   0  0  0  0  0  0  0  0  0  0  0  0
  -21.0890  -13.2180   22.1810 H   0  0  0  0  0  0  0  0  0  0  0  0
  -25.4050  -15.2640   20.3060 N   0  0  0  0  0  0  0  0  0  0  0  0
  -24.6320  -15.9150   20.4030 H   0  0  0  0  0  0  0  0  0  0  0  0
  -26.2510  -15.7040   19.9700 H   0  0  0  0  0  0  0  0  0  0  0  0
  -32.4760  -18.6260   17.5040 N   0  0  0  0  0  0  0  0  0  0  0  0
  -32.5130  -19.5000   16.9880 H   0  0  0  0  0  0  0  0  0  0  0  0
  -32.6340  -17.8170   16.9110 H   0  0  0  0  0  0  0  0  0  0  0  0
  -28.3320  -26.5720   20.1480 O   0  0  0  0  0  0  0  0  0  0  0  0
  -24.6060  -31.8810   23.2290 C   0  0  0  0  0  0  0  0  0  0  0  0
  -27.2040  -27.3920   20.1120 C   0  0  0  0  0  0  0  0  0  0  0  0
  -23.3870  -30.4900   21.5940 C   0  0  0  0  0  3  0  0  0  0  0  0
  -24.8250  -28.9560   20.1500 C   0  0  0  0  0  0  0  0  0  0  0  0
  -25.9190  -30.8280   21.3830 C   0  0  0  0  0  2  0  0  0  0  0  0
  -25.9960  -29.4570   20.7320 C   0  0  0  0  0  0  0  0  0  0  0  0
  -27.1890  -28.6820   20.7100 C   0  0  0  0  0  3  0  0  0  0  0  0
  -26.0020  -26.9200   19.5360 C   0  0  0  0  0  3  0  0  0  0  0  0
  -24.8250  -27.6890   19.5480 C   0  0  0  0  0  3  0  0  0  0  0  0
  -23.5870  -29.8230   20.2090 C   0  0  0  0  0  2  0  0  0  0  0  0
  -24.6560  -31.0810   22.1260 N   0  0  0  0  0  0  0  0  0  0  0  0
  -23.5280  -32.1540   23.7780 O   0  0  0  0  0  0  0  0  0  0  0  0
  -22.7370  -29.4660   22.5540 C   0  0  0  0  0  0  0  0  0  0  0  0
  -21.4110  -29.2810   22.4320 N   0  0  0  0  0  0  0  0  0  0  0  0
  -23.4230  -28.8400   23.3660 O   0  0  0  0  0  0  0  0  0  0  0  0
  -20.9180  -29.8380   21.7490 H   0  0  0  0  0  0  0  0  0  0  0  0
  -18.0430  -28.0720   22.9400 C   0  0  0  0  0  0  0  0  0  0  0  0
  -20.6000  -28.3420   23.2070 C   0  0  0  0  0  3  0  0  0  0  0  0
  -20.7080  -26.9100   22.6330 C   0  0  0  0  0  2  0  0  0  0  0  0
  -19.6060  -26.5810   21.6210 C   0  0  0  0  0  2  0  0  0  0  0  0
  -18.2230  -26.7230   22.2650 C   0  0  0  0  0  2  0  0  0  0  0  0
  -19.1590  -28.8390   23.3680 C   0  0  0  0  0  0  0  0  0  0  0  0
  -18.9360  -30.1020   23.9580 C   0  0  0  0  0  3  0  0  0  0  0  0
  -17.6300  -30.5990   24.1250 C   0  0  0  0  0  3  0  0  0  0  0  0
  -16.5280  -29.8280   23.7120 C   0  0  0  0  0  3  0  0  0  0  0  0
  -16.7350  -28.5670   23.1270 C   0  0  0  0  0  3  0  0  0  0  0  0
  -25.8960  -32.5100   23.8410 C   0  0  0  0  0  3  0  0  0  0  0  0
  -25.5890  -33.9080   24.1760 N   0  0  0  0  0  0  0  0  0  0  0  0
  -25.9150  -34.9610   23.4150 C   0  0  0  0  0  0  0  0  0  0  0  0
  -26.5760  -34.8580   22.3770 O   0  0  0  0  0  0  0  0  0  0  0  0
  -25.0010  -34.0620   24.9810 H   0  0  0  0  0  0  0  0  0  0  0  0
  -24.1890  -36.7570   23.0740 C   0  0  0  0  0  1  0  0  0  0  0  0
  -25.4330  -36.3490   23.8780 C   0  0  0  0  0  3  0  0  0  0  0  0
  -27.5720  -37.2280   24.7010 C   0  0  0  0  0  1  0  0  0  0  0  0
  -26.4670  -37.4010   23.7630 N   0  0  0  0  0  0  0  0  0  0  0  0
  -26.0620  -38.3210   23.9180 H   0  0  0  0  0  0  0  0  0  0  0  0
  -26.4220  -31.7350   25.1110 C   0  0  1  0  0  0  0  0  0  0  0  0
  -25.3380  -31.4970   26.1880 C   0  0  0  0  0  1  0  0  0  0  0  0
  -26.9990  -30.3580   24.7120 C   0  0  0  0  0  1  0  0  0  0  0  0
  -27.5800  -32.5260   25.7650 C   0  0  0  0  0  1  0  0  0  0  0  0
  1  5  1  0
  2  1  2  0
  2 58  1  0
  3  8  1  0
  4  6  1  0
  4  1  1  0
  6  7  1  0
  7  5  1  0
  7  3  1  0
  8 10  1  0
  8  9  1  0
 11 14  1  0
 13 16  2  0
 14 12  2  0
 14  3  1  0
 15 13  1  0
 15 11  2  0
 16 25  1  0
 16 12  1  0
 17 25  1  0
 18 23  1  0
 19 20  1  0
 19 18  1  0
 21 20  1  0
 21 30  1  0
 21 22  1  0
 23 17  1  0
 23 22  1  0
 24 17  2  0
 25 26  1  0
 27 28  2  0
 28 47  1  0
 29 28  1  0
 29 32  1  0
 30 27  1  0
 30 31  1  0
 31 29  2  0
 32 33  1  0
 33 34  2  0
 35 38  1  0
 35 34  1  0
 36 35  2  0
 37 36  1  0
 37 32  2  0
 38 39  1  0
 39 40  1  0
 40 41  2  0
 42 41  1  0
 42 46  1  0
 43 42  2  0
 44 39  2  0
 44 43  1  0
 45 44  1  0
 47 48  1  0
 48 51  1  0
 48 50  1  0
 49 47  2  0
 52 53  1  0
 52 27  1  0
 54 52  1  0
 55 15  1  0
 56 55  1  0
 57 55  1  0
 59 70  2  0
 60 58  1  0
 60 65  1  0
 61 69  1  0
 61 71  1  0
 62 68  1  0
 62 64  1  0
 63 69  1  0
 64 63  1  0
 65 64  2  0
 66 67  1  0
 66 60  2  0
 67 62  2  0
 68 61  1  0
 69 59  1  0
 71 73  2  0
 72 71  1  0
 74 72  1  0
 75 84  2  0
 75 80  1  0
 76 72  1  0
 76 80  1  0
 77 76  1  0
 78 79  1  0
 78 77  1  0
 79 75  1  0
 80 81  2  0
 81 82  1  0
 83 82  2  0
 84 83  1  0
 85 59  1  0
 85 86  1  0
 85 95  1  0
 86 89  1  0
 87 91  1  0
 87 86  1  0
 88 87  2  0
 91 90  1  0
 93 91  1  0
 93 94  1  0
 93 92  1  0
 95 98  1  1
 95 96  1  0
 97 95  1  0
M  ISO  4   2 101  17 100  25 100  58 101
M  END
>  <TORSDO>  (96) 
F 18

>  <SCORE>  (96) 
-15.225

>  <name>  (96) 
95

>  <ligand_id>  (96) 
95

>  <original_smiles>  (96) 
[H]C(Oc1c([H])c([H])c2c(c1[H])C([H])([H])N(C(=O)C([H])(N([H])C(=O)C([H])(N([H])C([H])([H])[H])C([H])([H])[H])C(C([H])([H])[H])(C([H])([H])[H])C([H])([H])[H])C([H])(C(=O)N([H])C1([H])c3c([H])c([H])c([H])c([H])c3C([H])([H])C([H])([H])C1([H])[H])C2([H])[H])=C1C([H])([H])N(C(c2c([H])c(N([H])[H])c([H])c(N([H])C(=O)N3C([H])([H])C([H])([H])C([H])([H])C([H])(n4nc(-c5c([H])c([H])c(Oc6c([H])c([H])c(F)c([H])c6F)c([H])c5[H])c(C(=O)N([H])[H])c4N([H])[H])C3([H])[H])c2[H])=[N+]([H])[H])C([H])([H])C1([H])[H]

>  <smiles>  (96) 
[H]C(Oc1c([H])c([H])c2c(c1[H])C([H])([H])N(C(=O)C([H])(N([H])C(=O)C([H])(N([H])C([H])([H])[H])C([H])([H])[H])C(C([H])([H])[H])(C([H])([H])[H])C([H])([H])[H])C([H])(C(=O)N([H])C1([H])c3c([H])c([H])c([H])c([H])c3C([H])([H])C([H])([H])C1([H])[H])C2([H])[H])=C1C([H])([H])N(C(c2c([H])c(N([H])[H])c([H])c(N([H])C(=O)N3C([H])([H])C([H])([H])C([H])([H])C([H])(n4nc(-c5c([H])c([H])c(Oc6c([H])c([H])c(F)c([H])c6F)c([H])c5[H])c(C(=O)N([H])[H])c4N([H])[H])C3([H])[H])c2[H])=[N+]([H])[H])C([H])([H])C1([H])[H]

$$$$
96:0:0
     RDKit          3D

100108  0  0  1  0  0  0  0  0999 V2000
  -28.9870  -20.9350   20.7810 C   0  0  0  0  0  0  0  0  0  0  0  0
  -28.6680  -23.4640   20.3360 C   0  0  0  0  0  0  0  0  0  0  0  0
  -29.2160  -22.1160   20.1200 N   0  0  0  0  0  0  0  0  0  0  0  0
  -27.9630  -20.8200   21.6330 N   0  0  0  0  0  4  0  0  0  0  0  0
  -28.0100  -23.7130   21.3510 O   0  0  0  0  0  0  0  0  0  0  0  0
  -29.8130  -21.9820   19.3180 H   0  0  0  0  0  0  0  0  0  0  0  0
  -27.8410  -19.9740   22.1660 H   0  0  0  0  0  0  0  0  0  0  0  0
  -27.4020  -21.6310   21.8550 H   0  0  0  0  0  0  0  0  0  0  0  0
  -31.2780  -20.0160   20.6750 C   0  0  0  0  0  3  0  0  0  0  0  0
  -29.4730  -18.3660   20.6530 C   0  0  0  0  0  3  0  0  0  0  0  0
  -31.7900  -17.6270   20.7250 C   0  0  0  0  0  3  0  0  0  0  0  0
  -29.8960  -19.7450   20.6610 C   0  0  0  0  0  0  0  0  0  0  0  0
  -32.2160  -18.9720   20.7180 C   0  0  0  0  0  0  0  0  0  0  0  0
  -30.4140  -17.2720   20.6700 C   0  0  0  0  0  0  0  0  0  0  0  0
  -30.6780  -14.7400   20.2800 C   0  0  0  0  0  0  0  0  0  0  0  0
  -30.3520  -12.5460   19.1720 C   0  0  0  0  0  2  0  0  0  0  0  0
  -29.3820  -12.7210   17.9850 C   0  0  0  0  0  2  0  0  0  0  0  0
  -27.9240  -12.5610   18.4550 C   0  0  0  0  0  2  0  0  0  0  0  0
  -27.6090  -13.3950   19.7260 C   0  0  0  0  0  3  0  0  0  0  0  0
  -28.7020  -13.2350   20.8080 C   0  0  0  0  0  2  0  0  0  0  0  0
  -29.9930  -13.5590   20.1880 N   0  0  0  0  0  0  0  0  0  0  0  0
  -31.8280  -14.8160   19.8450 O   0  0  0  0  0  0  0  0  0  0  0  0
  -29.9880  -15.8630   20.6700 N   0  0  0  0  0  0  0  0  0  0  0  0
  -29.0250  -15.6930   20.9180 H   0  0  0  0  0  0  0  0  0  0  0  0
  -25.2380  -13.9680   20.5270 C   0  0  0  0  0  0  0  0  0  0  0  0
  -24.1860  -13.1840   20.9150 C   0  0  0  0  0  0  0  0  0  0  0  0
  -24.6520  -11.8350   20.8470 C   0  0  0  0  0  0  0  0  0  0  0  0
  -26.2790  -13.0960   20.2480 N   0  0  0  0  0  0  0  0  0  0  0  0
  -25.9340  -11.8080   20.5020 N   0  0  0  0  0  0  0  0  0  0  0  0
  -23.9350  -10.5670   21.0350 C   0  0  0  0  0  0  0  0  0  0  0  0
  -24.3790   -9.5990   21.9620 C   0  0  0  0  0  3  0  0  0  0  0  0
  -23.6640   -8.3960   22.1400 C   0  0  0  0  0  3  0  0  0  0  0  0
  -22.4880   -8.1520   21.3900 C   0  0  0  0  0  0  0  0  0  0  0  0
  -22.0630   -9.1090   20.4510 C   0  0  0  0  0  3  0  0  0  0  0  0
  -22.7810  -10.3040   20.2720 C   0  0  0  0  0  3  0  0  0  0  0  0
  -21.7410   -7.0020   21.4770 O   0  0  0  0  0  0  0  0  0  0  0  0
  -21.6880   -6.2650   22.6330 C   0  0  0  0  0  0  0  0  0  0  0  0
  -21.2150   -6.8120   23.8450 C   0  0  0  0  0  3  0  0  0  0  0  0
  -21.1120   -5.9990   24.9910 C   0  0  0  0  0  3  0  0  0  0  0  0
  -21.4710   -4.6390   24.9260 C   0  0  0  0  0  0  0  0  0  0  0  0
  -21.9360   -4.0910   23.7180 C   0  0  0  0  0  3  0  0  0  0  0  0
  -22.0410   -4.9010   22.5740 C   0  0  0  0  0  0  0  0  0  0  0  0
  -22.4710   -4.3620   21.4080 F   0  0  0  0  0  0  0  0  0  0  0  0
  -21.3640   -3.8560   26.0250 F   0  0  0  0  0  0  0  0  0  0  0  0
  -22.7950  -13.6510   21.2340 C   0  0  0  0  0  0  0  0  0  0  0  0
  -22.0910  -12.9300   22.0990 N   0  0  0  0  0  0  0  0  0  0  0  0
  -22.3440  -14.6890   20.7540 O   0  0  0  0  0  0  0  0  0  0  0  0
  -22.4700  -12.0880   22.5080 H   0  0  0  0  0  0  0  0  0  0  0  0
  -21.1580  -13.2220   22.3560 H   0  0  0  0  0  0  0  0  0  0  0  0
  -25.3920  -15.3410   20.3660 N   0  0  0  0  0  0  0  0  0  0  0  0
  -24.6190  -15.9860   20.4920 H   0  0  0  0  0  0  0  0  0  0  0  0
  -26.2160  -15.7840   19.9770 H   0  0  0  0  0  0  0  0  0  0  0  0
  -33.5760  -19.2850   20.7770 N   0  0  0  0  0  0  0  0  0  0  0  0
  -33.8420  -20.2080   21.1050 H   0  0  0  0  0  0  0  0  0  0  0  0
  -34.2180  -18.5640   21.0910 H   0  0  0  0  0  0  0  0  0  0  0  0
  -28.7840  -25.7780   19.2360 C   0  0  0  0  0  3  0  0  0  0  0  0
  -28.9480  -24.4130   19.2320 C   0  0  0  0  0  0  0  0  0  0  0  0
  -29.3970  -23.8580   18.0930 O   0  0  0  0  0  0  0  0  0  0  0  0
  -29.5290  -24.5580   17.4670 H   0  0  0  0  0  0  0  0  0  0  0  0
  -28.4340  -26.6460   20.2620 O   0  0  0  0  0  0  0  0  0  0  0  0
  -24.6050  -31.9280   23.2190 C   0  0  0  0  0  0  0  0  0  0  0  0
  -27.3220  -27.4760   20.1410 C   0  0  0  0  0  0  0  0  0  0  0  0
  -23.4360  -30.5230   21.5560 C   0  0  0  0  0  3  0  0  0  0  0  0
  -24.9240  -29.0140   20.1240 C   0  0  0  0  0  0  0  0  0  0  0  0
  -25.9660  -30.8960   21.3910 C   0  0  0  0  0  2  0  0  0  0  0  0
  -26.0750  -29.5280   20.7360 C   0  0  0  0  0  0  0  0  0  0  0  0
  -27.2760  -28.7660   20.7430 C   0  0  0  0  0  3  0  0  0  0  0  0
  -26.1510  -26.9980   19.5140 C   0  0  0  0  0  3  0  0  0  0  0  0
  -24.9630  -27.7530   19.5050 C   0  0  0  0  0  3  0  0  0  0  0  0
  -23.6700  -29.8610   20.1710 C   0  0  0  0  0  2  0  0  0  0  0  0
  -24.6870  -31.1320   22.1130 N   0  0  0  0  0  0  0  0  0  0  0  0
  -23.5140  -32.1830   23.7480 O   0  0  0  0  0  0  0  0  0  0  0  0
  -22.7840  -29.4890   22.5020 C   0  0  0  0  0  0  0  0  0  0  0  0
  -21.4640  -29.2830   22.3540 N   0  0  0  0  0  0  0  0  0  0  0  0
  -23.4640  -28.8730   23.3290 O   0  0  0  0  0  0  0  0  0  0  0  0
  -20.9760  -29.8320   21.6610 H   0  0  0  0  0  0  0  0  0  0  0  0
  -18.1040  -28.0220   22.7940 C   0  0  0  0  0  0  0  0  0  0  0  0
  -20.6520  -28.3280   23.1100 C   0  0  0  0  0  3  0  0  0  0  0  0
  -20.7910  -26.9010   22.5310 C   0  0  0  0  0  2  0  0  0  0  0  0
  -19.7120  -26.5630   21.4970 C   0  0  0  0  0  2  0  0  0  0  0  0
  -18.3180  -26.6790   22.1180 C   0  0  0  0  0  2  0  0  0  0  0  0
  -19.2010  -28.8050   23.2450 C   0  0  0  0  0  0  0  0  0  0  0  0
  -18.9470  -30.0610   23.8360 C   0  0  0  0  0  3  0  0  0  0  0  0
  -17.6290  -30.5370   23.9810 C   0  0  0  0  0  3  0  0  0  0  0  0
  -16.5480  -29.7520   23.5470 C   0  0  0  0  0  3  0  0  0  0  0  0
  -16.7850  -28.4970   22.9590 C   0  0  0  0  0  3  0  0  0  0  0  0
  -25.8740  -32.5730   23.8570 C   0  0  0  0  0  3  0  0  0  0  0  0
  -26.3770  -31.8120   25.1450 C   0  0  1  0  0  0  0  0  0  0  0  0
  -25.2700  -31.5640   26.1950 C   0  0  0  0  0  1  0  0  0  0  0  0
  -26.9790  -30.4400   24.7650 C   0  0  0  0  0  1  0  0  0  0  0  0
  -27.5100  -32.6180   25.8210 C   0  0  0  0  0  1  0  0  0  0  0  0
  -25.5490  -33.9710   24.1770 N   0  0  0  0  0  0  0  0  0  0  0  0
  -25.8870  -35.0230   23.4200 C   0  0  0  0  0  0  0  0  0  0  0  0
  -26.5760  -34.9200   22.4000 O   0  0  0  0  0  0  0  0  0  0  0  0
  -24.9410  -34.1230   24.9670 H   0  0  0  0  0  0  0  0  0  0  0  0
  -24.1620  -36.8080   23.0160 C   0  0  0  0  0  1  0  0  0  0  0  0
  -25.3820  -36.4100   23.8620 C   0  0  0  0  0  3  0  0  0  0  0  0
  -27.4860  -37.3090   24.7540 C   0  0  0  0  0  1  0  0  0  0  0  0
  -26.4130  -37.4670   23.7760 N   0  0  0  0  0  0  0  0  0  0  0  0
  -25.9970  -38.3860   23.9070 H   0  0  0  0  0  0  0  0  0  0  0  0
  1  4  2  0
  2  5  2  0
  3  2  1  0
  3  1  1  0
  4  8  1  0
  4  7  1  0
  6  3  1  0
  9 13  1  0
 10 12  1  0
 10 14  2  0
 12  9  2  0
 12  1  1  0
 13 11  2  0
 13 53  1  0
 14 23  1  0
 14 11  1  0
 15 23  1  0
 16 21  1  0
 17 18  1  0
 17 16  1  0
 19 18  1  0
 19 28  1  0
 19 20  1  0
 21 15  1  0
 21 20  1  0
 22 15  2  0
 23 24  1  0
 25 26  2  0
 26 45  1  0
 27 26  1  0
 27 30  1  0
 28 29  1  0
 28 25  1  0
 29 27  2  0
 30 31  1  0
 31 32  2  0
 33 36  1  0
 33 32  1  0
 34 33  2  0
 35 34  1  0
 35 30  2  0
 36 37  1  0
 37 38  1  0
 38 39  2  0
 40 39  1  0
 40 44  1  0
 41 40  2  0
 42 37  2  0
 42 41  1  0
 43 42  1  0
 45 46  1  0
 46 49  1  0
 46 48  1  0
 47 45  2  0
 50 51  1  0
 50 25  1  0
 52 50  1  0
 53 55  1  0
 53 54  1  0
 56 60  1  0
 57 56  2  0
 57  2  1  0
 58 57  1  0
 59 58  1  0
 61 72  2  0
 62 60  1  0
 62 67  1  0
 63 71  1  0
 63 73  1  0
 64 70  1  0
 64 66  1  0
 65 71  1  0
 66 67  2  0
 66 65  1  0
 68 62  2  0
 69 68  1  0
 69 64  2  0
 70 63  1  0
 71 61  1  0
 73 75  2  0
 74 73  1  0
 76 74  1  0
 77 86  2  0
 77 82  1  0
 78 74  1  0
 78 82  1  0
 79 78  1  0
 80 81  1  0
 80 79  1  0
 81 77  1  0
 82 83  2  0
 83 84  1  0
 85 84  2  0
 86 85  1  0
 87 61  1  0
 87 92  1  0
 87 88  1  0
 88 91  1  1
 88 89  1  0
 90 88  1  0
 92 95  1  0
 93 97  1  0
 93 92  1  0
 94 93  2  0
 97 96  1  0
 99 97  1  0
 99100  1  0
 99 98  1  0
M  ISO  4  15 100  23 100  56 101  60 101
M  END
>  <TORSDO>  (97) 
F 20

>  <SCORE>  (97) 
-14.502

>  <name>  (97) 
96

>  <ligand_id>  (97) 
96

>  <original_smiles>  (97) 
[H]OC(C(=O)N([H])C(c1c([H])c(N([H])[H])c([H])c(N([H])C(=O)N2C([H])([H])C([H])([H])C([H])([H])C([H])(n3nc(-c4c([H])c([H])c(Oc5c([H])c([H])c(F)c([H])c5F)c([H])c4[H])c(C(=O)N([H])[H])c3N([H])[H])C2([H])[H])c1[H])=[N+]([H])[H])=C([H])Oc1c([H])c([H])c2c(c1[H])C([H])([H])N(C(=O)C([H])(N([H])C(=O)C([H])(N([H])C([H])([H])[H])C([H])([H])[H])C(C([H])([H])[H])(C([H])([H])[H])C([H])([H])[H])C([H])(C(=O)N([H])C1([H])c3c([H])c([H])c([H])c([H])c3C([H])([H])C([H])([H])C1([H])[H])C2([H])[H]

>  <smiles>  (97) 
[H]OC(C(=O)N([H])C(c1c([H])c(N([H])[H])c([H])c(N([H])C(=O)N2C([H])([H])C([H])([H])C([H])([H])C([H])(n3nc(-c4c([H])c([H])c(Oc5c([H])c([H])c(F)c([H])c5F)c([H])c4[H])c(C(=O)N([H])[H])c3N([H])[H])C2([H])[H])c1[H])=[N+]([H])[H])=C([H])Oc1c([H])c([H])c2c(c1[H])C([H])([H])N(C(=O)C([H])(N([H])C(=O)C([H])(N([H])C([H])([H])[H])C([H])([H])[H])C(C([H])([H])[H])(C([H])([H])[H])C([H])([H])[H])C([H])(C(=O)N([H])C1([H])c3c([H])c([H])c([H])c([H])c3C([H])([H])C([H])([H])C1([H])[H])C2([H])[H]

$$$$
