0:0:0
     RDKit          3D

 92100  0  0  1  0  0  0  0  0999 V2000
  -29.9210  -21.1510   21.9170 C   0  0  0  0  0  3  0  0  0  0  0  0
  -29.3210  -19.8710   19.9640 C   0  0  0  0  0  3  0  0  0  0  0  0
  -30.4200  -19.9490   22.4770 C   0  0  0  0  0  2  0  0  0  0  0  0
  -29.3450  -21.1590   20.6270 C   0  0  0  0  0  0  0  0  0  0  0  0
  -29.8510  -18.6560   20.5610 C   0  0  0  0  0  0  0  0  0  0  0  0
  -30.3720  -18.7750   21.8000 N   0  0  0  0  0  0  0  0  0  0  0  0
  -30.7720  -17.9410   22.2370 H   0  0  0  0  0  0  0  0  0  0  0  0
  -28.8060  -22.3790   20.0570 N   0  0  0  0  0  0  0  0  0  0  0  0
  -28.3400  -22.2630   19.1620 H   0  0  0  0  0  0  0  0  0  0  0  0
  -29.1460  -23.8190   20.4000 C   0  0  0  0  0  2  0  0  0  0  0  0
  -27.0070  -24.5810   21.4880 C   0  0  0  0  0  1  0  0  0  0  0  0
  -27.9550  -24.9070   20.3120 C   0  0  0  0  0  3  0  0  0  0  0  0
  -28.2450  -26.3920   20.3000 O   0  0  0  0  0  0  0  0  0  0  0  0
  -24.6070  -31.9350   23.2420 C   0  0  0  0  0  0  0  0  0  0  0  0
  -27.1730  -27.3140   20.1960 C   0  0  0  0  0  0  0  0  0  0  0  0
  -23.3930  -30.5370   21.6110 C   0  0  0  0  0  3  0  0  0  0  0  0
  -24.8310  -28.9800   20.1770 C   0  0  0  0  0  0  0  0  0  0  0  0
  -25.9370  -30.8310   21.4230 C   0  0  0  0  0  2  0  0  0  0  0  0
  -26.0060  -29.4490   20.7770 C   0  0  0  0  0  0  0  0  0  0  0  0
  -27.1810  -28.6270   20.7800 C   0  0  0  0  0  3  0  0  0  0  0  0
  -25.9820  -26.9340   19.5340 C   0  0  0  0  0  3  0  0  0  0  0  0
  -24.8240  -27.7310   19.5440 C   0  0  0  0  0  3  0  0  0  0  0  0
  -23.6000  -29.8610   20.2310 C   0  0  0  0  0  2  0  0  0  0  0  0
  -24.6650  -31.1190   22.1480 N   0  0  0  0  0  0  0  0  0  0  0  0
  -23.5260  -32.2190   23.7770 O   0  0  0  0  0  0  0  0  0  0  0  0
  -22.7290  -29.5250   22.5780 C   0  0  0  0  0  0  0  0  0  0  0  0
  -21.4020  -29.3500   22.4540 N   0  0  0  0  0  0  0  0  0  0  0  0
  -23.4080  -28.9030   23.3980 O   0  0  0  0  0  0  0  0  0  0  0  0
  -20.9130  -29.9060   21.7660 H   0  0  0  0  0  0  0  0  0  0  0  0
  -18.0230  -28.1620   22.9720 C   0  0  0  0  0  0  0  0  0  0  0  0
  -20.5820  -28.4190   23.2320 C   0  0  0  0  0  3  0  0  0  0  0  0
  -20.6800  -26.9840   22.6650 C   0  0  0  0  0  2  0  0  0  0  0  0
  -19.5730  -26.6570   21.6560 C   0  0  0  0  0  2  0  0  0  0  0  0
  -18.1950  -26.8080   22.3030 C   0  0  0  0  0  2  0  0  0  0  0  0
  -19.1440  -28.9250   23.3940 C   0  0  0  0  0  0  0  0  0  0  0  0
  -18.9290  -30.1900   23.9800 C   0  0  0  0  0  3  0  0  0  0  0  0
  -17.6260  -30.6950   24.1480 C   0  0  0  0  0  3  0  0  0  0  0  0
  -16.5190  -29.9300   23.7400 C   0  0  0  0  0  3  0  0  0  0  0  0
  -16.7190  -28.6650   23.1590 C   0  0  0  0  0  3  0  0  0  0  0  0
  -25.8940  -32.5660   23.8550 C   0  0  0  0  0  3  0  0  0  0  0  0
  -26.4160  -31.7940   25.1300 C   0  0  1  0  0  0  0  0  0  0  0  0
  -25.3280  -31.5590   26.2050 C   0  0  0  0  0  1  0  0  0  0  0  0
  -26.9960  -30.4160   24.7360 C   0  0  0  0  0  1  0  0  0  0  0  0
  -27.5700  -32.5880   25.7850 C   0  0  0  0  0  1  0  0  0  0  0  0
  -25.5860  -33.9640   24.1900 N   0  0  0  0  0  0  0  0  0  0  0  0
  -25.9160  -35.0190   23.4320 C   0  0  0  0  0  0  0  0  0  0  0  0
  -26.5790  -34.9170   22.3960 O   0  0  0  0  0  0  0  0  0  0  0  0
  -24.9980  -34.1170   24.9950 H   0  0  0  0  0  0  0  0  0  0  0  0
  -24.1900  -36.8180   23.0890 C   0  0  0  0  0  1  0  0  0  0  0  0
  -25.4320  -36.4070   23.8960 C   0  0  0  0  0  3  0  0  0  0  0  0
  -27.5720  -37.2840   24.7240 C   0  0  0  0  0  1  0  0  0  0  0  0
  -26.4680  -37.4580   23.7840 N   0  0  0  0  0  0  0  0  0  0  0  0
  -26.0640  -38.3780   23.9350 H   0  0  0  0  0  0  0  0  0  0  0  0
  -30.0030  -17.2580   19.8260 C   0  0  0  0  0  2  0  0  0  0  0  0
  -30.6390  -14.7770   20.2710 C   0  0  0  0  0  0  0  0  0  0  0  0
  -30.4130  -12.5170   19.2510 C   0  0  0  0  0  2  0  0  0  0  0  0
  -29.4720  -12.6290   18.0310 C   0  0  0  0  0  2  0  0  0  0  0  0
  -28.0010  -12.4670   18.4640 C   0  0  0  0  0  2  0  0  0  0  0  0
  -27.6420  -13.3300   19.7030 C   0  0  0  0  0  3  0  0  0  0  0  0
  -28.7090  -13.2120   20.8180 C   0  0  0  0  0  2  0  0  0  0  0  0
  -30.0100  -13.5550   20.2280 N   0  0  0  0  0  0  0  0  0  0  0  0
  -31.8020  -14.8890   19.8740 O   0  0  0  0  0  0  0  0  0  0  0  0
  -29.8750  -15.9030   20.5150 N   0  0  0  0  0  0  0  0  0  0  0  0
  -28.9610  -15.7100   20.8960 H   0  0  0  0  0  0  0  0  0  0  0  0
  -25.2510  -13.9130   20.4320 C   0  0  0  0  0  0  0  0  0  0  0  0
  -24.1910  -13.1360   20.8120 C   0  0  0  0  0  0  0  0  0  0  0  0
  -24.6610  -11.7870   20.7870 C   0  0  0  0  0  0  0  0  0  0  0  0
  -26.2990  -13.0380   20.1990 N   0  0  0  0  0  0  0  0  0  0  0  0
  -25.9500  -11.7550   20.4750 N   0  0  0  0  0  0  0  0  0  0  0  0
  -23.9410  -10.5220   20.9870 C   0  0  0  0  0  0  0  0  0  0  0  0
  -24.3810   -9.5610   21.9250 C   0  0  0  0  0  3  0  0  0  0  0  0
  -23.6600   -8.3620   22.1150 C   0  0  0  0  0  3  0  0  0  0  0  0
  -22.4850   -8.1160   21.3650 C   0  0  0  0  0  0  0  0  0  0  0  0
  -22.0650   -9.0650   20.4180 C   0  0  0  0  0  3  0  0  0  0  0  0
  -22.7870  -10.2550   20.2270 C   0  0  0  0  0  3  0  0  0  0  0  0
  -21.7360   -6.9690   21.4630 O   0  0  0  0  0  0  0  0  0  0  0  0
  -21.6940   -6.2310   22.6200 C   0  0  0  0  0  0  0  0  0  0  0  0
  -21.2700   -6.7920   23.8450 C   0  0  0  0  0  3  0  0  0  0  0  0
  -21.1750   -5.9820   24.9930 C   0  0  0  0  0  3  0  0  0  0  0  0
  -21.4930   -4.6120   24.9200 C   0  0  0  0  0  0  0  0  0  0  0  0
  -21.9100   -4.0520   23.6990 C   0  0  0  0  0  3  0  0  0  0  0  0
  -22.0060   -4.8590   22.5520 C   0  0  0  0  0  0  0  0  0  0  0  0
  -22.3880   -4.3080   21.3740 F   0  0  0  0  0  0  0  0  0  0  0  0
  -21.3940   -3.8320   26.0220 F   0  0  0  0  0  0  0  0  0  0  0  0
  -22.7910  -13.6080   21.0840 C   0  0  0  0  0  0  0  0  0  0  0  0
  -22.0690  -12.9150   21.9570 N   0  0  0  0  0  0  0  0  0  0  0  0
  -22.3480  -14.6270   20.5570 O   0  0  0  0  0  0  0  0  0  0  0  0
  -22.4400  -12.0920   22.4080 H   0  0  0  0  0  0  0  0  0  0  0  0
  -21.1310  -13.2160   22.1810 H   0  0  0  0  0  0  0  0  0  0  0  0
  -25.4050  -15.2840   20.2450 N   0  0  0  0  0  0  0  0  0  0  0  0
  -24.6280  -15.9300   20.3470 H   0  0  0  0  0  0  0  0  0  0  0  0
  -26.2360  -15.7260   19.8730 H   0  0  0  0  0  0  0  0  0  0  0  0
  1  3  1  0
  2  5  2  0
  2  4  1  0
  4  1  2  0
  5  6  1  0
  6  7  1  0
  6  3  1  0
  8 10  1  0
  8  4  1  0
  9  8  1  0
 12 10  1  0
 12 11  1  0
 13 12  1  0
 14 25  2  0
 15 13  1  0
 15 20  1  0
 16 24  1  0
 16 26  1  0
 17 23  1  0
 17 19  1  0
 18 24  1  0
 19 20  2  0
 19 18  1  0
 21 22  1  0
 21 15  2  0
 22 17  2  0
 23 16  1  0
 24 14  1  0
 26 28  2  0
 27 26  1  0
 29 27  1  0
 30 39  2  0
 30 35  1  0
 31 27  1  0
 31 35  1  0
 32 31  1  0
 33 34  1  0
 33 32  1  0
 34 30  1  0
 35 36  2  0
 36 37  1  0
 38 37  2  0
 39 38  1  0
 40 14  1  0
 40 45  1  0
 40 41  1  0
 41 44  1  1
 41 42  1  0
 43 41  1  0
 45 48  1  0
 46 50  1  0
 46 45  1  0
 47 46  2  0
 50 49  1  0
 52 50  1  0
 52 53  1  0
 52 51  1  0
 54 63  1  0
 54  5  1  0
 55 63  1  0
 56 61  1  0
 57 58  1  0
 57 56  1  0
 59 58  1  0
 59 68  1  0
 59 60  1  0
 61 55  1  0
 61 60  1  0
 62 55  2  0
 63 64  1  0
 65 66  2  0
 66 85  1  0
 67 66  1  0
 67 70  1  0
 68 65  1  0
 68 69  1  0
 69 67  2  0
 70 71  1  0
 71 72  2  0
 73 76  1  0
 73 72  1  0
 74 73  2  0
 75 74  1  0
 75 70  2  0
 76 77  1  0
 77 78  1  0
 78 79  2  0
 80 79  1  0
 80 84  1  0
 81 80  2  0
 82 77  2  0
 82 81  1  0
 83 82  1  0
 85 86  1  0
 86 89  1  0
 86 88  1  0
 87 85  2  0
 90 91  1  0
 90 65  1  0
 92 90  1  0
M  ISO  4  12 101  13 101  55 100  63 100
M  END
>  <TORSDO>  (1) 
F 20

>  <SCORE>  (1) 
-13.816

>  <name>  (1) 
0

>  <ligand_id>  (1) 
0

>  <original_smiles>  (1) 
[H]c1c([H])c([H])c2c(c1[H])C([H])([H])C([H])([H])C([H])([H])C2([H])N([H])C(=O)C1([H])N(C(=O)C([H])(N([H])C(=O)C([H])(N([H])C([H])([H])[H])C([H])([H])[H])C(C([H])([H])[H])(C([H])([H])[H])C([H])([H])[H])C([H])([H])c2c([H])c(OC([H])(C([H])([H])[H])C([H])([H])N([H])c3c([H])c([H])[n+]([H])c(C([H])([H])N([H])C(=O)N4C([H])([H])C([H])([H])C([H])([H])C([H])(n5nc(-c6c([H])c([H])c(Oc7c([H])c([H])c(F)c([H])c7F)c([H])c6[H])c(C(=O)N([H])[H])c5N([H])[H])C4([H])[H])c3[H])c([H])c([H])c2C1([H])[H]

>  <smiles>  (1) 
[H]c1c([H])c([H])c2c(c1[H])C([H])([H])C([H])([H])C([H])([H])C2([H])N([H])C(=O)C1([H])N(C(=O)C([H])(N([H])C(=O)C([H])(N([H])C([H])([H])[H])C([H])([H])[H])C(C([H])([H])[H])(C([H])([H])[H])C([H])([H])[H])C([H])([H])c2c([H])c(OC([H])(C([H])([H])[H])C([H])([H])N([H])c3c([H])c([H])[n+]([H])c(C([H])([H])N([H])C(=O)N4C([H])([H])C([H])([H])C([H])([H])C([H])(n5nc(-c6c([H])c([H])c(Oc7c([H])c([H])c(F)c([H])c7F)c([H])c6[H])c(C(=O)N([H])[H])c5N([H])[H])C4([H])[H])c3[H])c([H])c([H])c2C1([H])[H]

$$$$
1:0:0
     RDKit          3D

 96105  0  0  1  0  0  0  0  0999 V2000
  -27.4010  -21.8310   21.8620 C   0  0  0  0  0  2  0  0  0  0  0  0
  -28.7090  -22.3810   22.4060 C   0  0  0  0  0  2  0  0  0  0  0  0
  -27.7700  -20.7230   20.8880 C   0  0  0  0  0  2  0  0  0  0  0  0
  -29.4180  -23.1120   21.2730 C   0  0  0  0  0  2  0  0  0  0  0  0
  -28.8460  -21.0560   19.8070 C   0  0  0  0  0  3  0  0  0  0  0  0
  -29.6780  -22.3210   20.0190 N   0  0  1  0  0  4  0  0  0  0  0  0
  -30.6100  -21.9490   20.1450 H   0  0  0  0  0  0  0  0  0  0  0  0
  -31.5180  -18.3930   20.1510 C   0  0  0  0  0  3  0  0  0  0  0  0
  -30.5590  -17.4310   19.8960 C   0  0  0  0  0  0  0  0  0  0  0  0
  -29.7730  -19.8340   19.6910 C   0  0  0  0  0  0  0  0  0  0  0  0
  -31.0620  -19.7340   20.0560 N   0  0  0  0  0  0  0  0  0  0  0  0
  -29.0970  -18.2280   19.3430 S   0  0  0  0  0  0  0  0  0  0  0  0
  -31.3430  -15.0640   19.7650 C   0  0  0  0  0  0  0  0  0  0  0  0
  -31.1370  -12.7350   18.9280 C   0  0  0  0  0  2  0  0  0  0  0  0
  -30.1290  -12.7180   17.7550 C   0  0  0  0  0  2  0  0  0  0  0  0
  -28.6790  -12.6010   18.2640 C   0  0  0  0  0  2  0  0  0  0  0  0
  -28.3610  -13.6010   19.4060 C   0  0  0  0  0  3  0  0  0  0  0  0
  -29.4610  -13.5460   20.4870 C   0  0  0  0  0  2  0  0  0  0  0  0
  -30.7510  -13.8320   19.8330 N   0  0  0  0  0  0  0  0  0  0  0  0
  -32.4540  -15.2440   19.2580 O   0  0  0  0  0  0  0  0  0  0  0  0
  -30.5410  -16.0840   20.1690 N   0  0  0  0  0  0  0  0  0  0  0  0
  -29.6570  -15.7470   20.5120 H   0  0  0  0  0  0  0  0  0  0  0  0
  -26.0550  -14.2980   20.3190 C   0  0  0  0  0  0  0  0  0  0  0  0
  -24.9750  -13.5660   20.7320 C   0  0  0  0  0  0  0  0  0  0  0  0
  -25.3570  -12.1970   20.6070 C   0  0  0  0  0  0  0  0  0  0  0  0
  -27.0320  -13.3750   19.9700 N   0  0  0  0  0  0  0  0  0  0  0  0
  -26.6180  -12.1040   20.2010 N   0  0  0  0  0  0  0  0  0  0  0  0
  -24.5780  -10.9660   20.7960 C   0  0  0  0  0  0  0  0  0  0  0  0
  -24.9260  -10.0140   21.7780 C   0  0  0  0  0  3  0  0  0  0  0  0
  -24.1510   -8.8480   21.9530 C   0  0  0  0  0  3  0  0  0  0  0  0
  -23.0120   -8.6250   21.1430 C   0  0  0  0  0  0  0  0  0  0  0  0
  -22.6810   -9.5670   20.1490 C   0  0  0  0  0  3  0  0  0  0  0  0
  -23.4590  -10.7240   19.9740 C   0  0  0  0  0  3  0  0  0  0  0  0
  -22.2170   -7.5080   21.2240 O   0  0  0  0  0  0  0  0  0  0  0  0
  -21.9400   -6.9040   22.4240 C   0  0  0  0  0  0  0  0  0  0  0  0
  -21.2890   -7.5940   23.4710 C   0  0  0  0  0  3  0  0  0  0  0  0
  -20.9610   -6.9170   24.6610 C   0  0  0  0  0  3  0  0  0  0  0  0
  -21.2730   -5.5530   24.8060 C   0  0  0  0  0  0  0  0  0  0  0  0
  -21.9130   -4.8630   23.7640 C   0  0  0  0  0  3  0  0  0  0  0  0
  -22.2440   -5.5350   22.5750 C   0  0  0  0  0  0  0  0  0  0  0  0
  -22.8450   -4.8600   21.5650 F   0  0  0  0  0  0  0  0  0  0  0  0
  -20.9470   -4.9010   25.9480 F   0  0  0  0  0  0  0  0  0  0  0  0
  -23.6280  -14.1040   21.1270 C   0  0  0  0  0  0  0  0  0  0  0  0
  -22.9280  -13.4150   22.0200 N   0  0  0  0  0  0  0  0  0  0  0  0
  -23.2110  -15.1710   20.6790 O   0  0  0  0  0  0  0  0  0  0  0  0
  -23.2820  -12.5560   22.4140 H   0  0  0  0  0  0  0  0  0  0  0  0
  -22.0230  -13.7550   22.3140 H   0  0  0  0  0  0  0  0  0  0  0  0
  -26.2750  -15.6660   20.1970 N   0  0  0  0  0  0  0  0  0  0  0  0
  -25.5540  -16.3440   20.4160 H   0  0  0  0  0  0  0  0  0  0  0  0
  -27.1090  -16.0910   19.8140 H   0  0  0  0  0  0  0  0  0  0  0  0
  -29.7240  -23.1940   18.7710 C   0  0  0  0  0  2  0  0  0  0  0  0
  -29.9350  -24.7420   18.9550 C   0  0  0  0  0  0  0  0  0  0  0  0
  -30.8860  -25.1850   19.6090 O   0  0  0  0  0  0  0  0  0  0  0  0
  -29.3580  -26.0010   16.8040 C   0  0  0  0  0  1  0  0  0  0  0  0
  -28.9280  -25.7060   18.2540 C   0  0  0  0  0  3  0  0  0  0  0  0
  -28.7770  -26.9890   18.9310 O   0  0  0  0  0  0  0  0  0  0  0  0
  -24.6220  -31.2630   22.8880 C   0  0  0  0  0  0  0  0  0  0  0  0
  -27.5240  -27.5940   19.0490 C   0  0  0  0  0  0  0  0  0  0  0  0
  -23.4700  -29.9790   21.1180 C   0  0  0  0  0  3  0  0  0  0  0  0
  -24.9840  -28.8350   19.4130 C   0  0  0  0  0  0  0  0  0  0  0  0
  -25.9310  -30.6390   20.8530 C   0  0  0  0  0  2  0  0  0  0  0  0
  -26.1240  -29.3860   20.0140 C   0  0  0  0  0  0  0  0  0  0  0  0
  -27.3900  -28.7740   19.8340 C   0  0  0  0  0  3  0  0  0  0  0  0
  -26.3520  -27.0780   18.4390 C   0  0  0  0  0  3  0  0  0  0  0  0
  -25.0930  -27.6760   18.6320 C   0  0  0  0  0  3  0  0  0  0  0  0
  -23.6710  -29.5490   19.6400 C   0  0  0  0  0  2  0  0  0  0  0  0
  -24.6950  -30.6350   21.6790 N   0  0  0  0  0  0  0  0  0  0  0  0
  -23.5570  -31.3300   23.5170 O   0  0  0  0  0  0  0  0  0  0  0  0
  -22.9960  -28.7580   21.9450 C   0  0  0  0  0  0  0  0  0  0  0  0
  -21.7050  -28.4100   21.8190 N   0  0  0  0  0  0  0  0  0  0  0  0
  -23.7840  -28.1380   22.6640 O   0  0  0  0  0  0  0  0  0  0  0  0
  -21.1220  -28.9800   21.2200 H   0  0  0  0  0  0  0  0  0  0  0  0
  -18.5620  -26.6490   22.1530 C   0  0  0  0  0  0  0  0  0  0  0  0
  -21.0490  -27.2750   22.4720 C   0  0  0  0  0  3  0  0  0  0  0  0
  -21.3710  -25.9480   21.7460 C   0  0  0  0  0  2  0  0  0  0  0  0
  -20.3250  -25.5690   20.6910 C   0  0  0  0  0  2  0  0  0  0  0  0
  -18.9450  -25.4250   21.3360 C   0  0  0  0  0  2  0  0  0  0  0  0
  -19.5510  -27.5250   22.6750 C   0  0  0  0  0  0  0  0  0  0  0  0
  -19.1400  -28.6630   23.4000 C   0  0  0  0  0  3  0  0  0  0  0  0
  -17.7730  -28.9330   23.6070 C   0  0  0  0  0  3  0  0  0  0  0  0
  -16.7990  -28.0540   23.1000 C   0  0  0  0  0  3  0  0  0  0  0  0
  -17.1940  -26.9140   22.3800 C   0  0  0  0  0  3  0  0  0  0  0  0
  -25.8700  -31.9510   23.5260 C   0  0  0  0  0  3  0  0  0  0  0  0
  -26.4940  -31.1280   24.7210 C   0  0  1  0  0  0  0  0  0  0  0  0
  -25.4650  -30.7200   25.8010 C   0  0  0  0  0  1  0  0  0  0  0  0
  -27.1680  -29.8370   24.1990 C   0  0  0  0  0  1  0  0  0  0  0  0
  -27.6000  -31.9550   25.4150 C   0  0  0  0  0  1  0  0  0  0  0  0
  -25.4630  -33.2880   23.9800 N   0  0  0  0  0  0  0  0  0  0  0  0
  -25.6960  -34.4240   23.3060 C   0  0  0  0  0  0  0  0  0  0  0  0
  -26.3540  -34.4590   22.2620 O   0  0  0  0  0  0  0  0  0  0  0  0
  -24.8880  -33.3280   24.8080 H   0  0  0  0  0  0  0  0  0  0  0  0
  -23.8310  -36.0990   23.1140 C   0  0  0  0  0  1  0  0  0  0  0  0
  -25.1100  -35.7260   23.8840 C   0  0  0  0  0  3  0  0  0  0  0  0
  -27.1790  -36.7040   24.7740 C   0  0  0  0  0  1  0  0  0  0  0  0
  -26.0560  -36.8610   23.8530 N   0  0  0  0  0  0  0  0  0  0  0  0
  -25.5830  -37.7310   24.0790 H   0  0  0  0  0  0  0  0  0  0  0  0
  1  2  1  0
  3  1  1  0
  4  2  1  0
  5 10  1  0
  5  6  1  0
  5  3  1  0
  6  7  1  1
  6  4  1  0
  9  8  2  0
  9 21  1  0
 10 11  2  0
 11  8  1  0
 12 10  1  0
 12  9  1  0
 13 19  1  0
 13 21  1  0
 14 19  1  0
 15 16  1  0
 15 14  1  0
 17 16  1  0
 17 26  1  0
 17 18  1  0
 19 18  1  0
 20 13  2  0
 21 22  1  0
 23 24  2  0
 24 43  1  0
 25 24  1  0
 25 28  1  0
 26 27  1  0
 26 23  1  0
 27 25  2  0
 28 29  1  0
 29 30  2  0
 31 34  1  0
 31 30  1  0
 32 31  2  0
 33 32  1  0
 33 28  2  0
 34 35  1  0
 35 40  2  0
 35 36  1  0
 36 37  2  0
 37 38  1  0
 38 42  1  0
 39 38  2  0
 40 39  1  0
 41 40  1  0
 43 44  1  0
 44 47  1  0
 44 46  1  0
 45 43  2  0
 48 23  1  0
 48 49  1  0
 50 48  1  0
 51 52  1  0
 51  6  1  0
 52 53  2  0
 55 54  1  0
 55 56  1  0
 55 52  1  0
 56 58  1  0
 57 68  2  0
 58 63  1  0
 59 67  1  0
 59 69  1  0
 60 66  1  0
 60 62  1  0
 61 67  1  0
 62 61  1  0
 63 62  2  0
 64 65  1  0
 64 58  2  0
 65 60  2  0
 66 59  1  0
 67 57  1  0
 69 71  2  0
 70 69  1  0
 72 70  1  0
 73 82  2  0
 73 78  1  0
 74 70  1  0
 74 78  1  0
 75 74  1  0
 76 77  1  0
 76 75  1  0
 77 73  1  0
 78 79  2  0
 79 80  1  0
 81 80  2  0
 82 81  1  0
 83 57  1  0
 83 88  1  0
 83 84  1  0
 84 87  1  1
 84 85  1  0
 86 84  1  0
 88 91  1  0
 89 93  1  0
 89 88  1  0
 90 89  2  0
 93 92  1  0
 95 93  1  0
 95 96  1  0
 95 94  1  0
M  ISO  4  13 100  21 100  55 101  56 101
M  END
>  <TORSDO>  (2) 
F 20

>  <SCORE>  (2) 
-9.637

>  <name>  (2) 
1

>  <ligand_id>  (2) 
1

>  <original_smiles>  (2) 
[H]c1nc(C2([H])C([H])([H])C([H])([H])C([H])([H])C([H])([H])[N+]2([H])C([H])([H])C(=O)C([H])(Oc2c([H])c([H])c3c(c2[H])C([H])([H])N(C(=O)C([H])(N([H])C(=O)C([H])(N([H])C([H])([H])[H])C([H])([H])[H])C(C([H])([H])[H])(C([H])([H])[H])C([H])([H])[H])C([H])(C(=O)N([H])C2([H])c4c([H])c([H])c([H])c([H])c4C([H])([H])C([H])([H])C2([H])[H])C3([H])[H])C([H])([H])[H])sc1N([H])C(=O)N1C([H])([H])C([H])([H])C([H])([H])C([H])(n2nc(-c3c([H])c([H])c(Oc4c([H])c([H])c(F)c([H])c4F)c([H])c3[H])c(C(=O)N([H])[H])c2N([H])[H])C1([H])[H]

>  <smiles>  (2) 
[H]c1nc(C2([H])C([H])([H])C([H])([H])C([H])([H])C([H])([H])[N+]2([H])C([H])([H])C(=O)C([H])(Oc2c([H])c([H])c3c(c2[H])C([H])([H])N(C(=O)C([H])(N([H])C(=O)C([H])(N([H])C([H])([H])[H])C([H])([H])[H])C(C([H])([H])[H])(C([H])([H])[H])C([H])([H])[H])C([H])(C(=O)N([H])C2([H])c4c([H])c([H])c([H])c([H])c4C([H])([H])C([H])([H])C2([H])[H])C3([H])[H])C([H])([H])[H])sc1N([H])C(=O)N1C([H])([H])C([H])([H])C([H])([H])C([H])(n2nc(-c3c([H])c([H])c(Oc4c([H])c([H])c(F)c([H])c4F)c([H])c3[H])c(C(=O)N([H])[H])c2N([H])[H])C1([H])[H]

$$$$
2:0:0
     RDKit          3D

 99108  0  0  1  0  0  0  0  0999 V2000
  -28.8600  -23.5280   19.9760 C   0  0  0  0  0  0  0  0  0  0  0  0
  -30.5540  -21.4990   19.2050 C   0  0  0  0  0  3  0  0  0  0  0  0
  -29.7720  -25.1880   18.5790 C   0  0  0  0  0  2  0  0  0  0  0  0
  -30.3640  -23.8120   18.2200 C   0  0  0  0  0  2  0  0  0  0  0  0
  -28.4340  -24.9310   19.2680 C   0  0  1  0  0  0  0  0  0  0  0  0
  -27.3810  -24.6590   18.1630 C   0  0  0  0  0  1  0  0  0  0  0  0
  -29.9300  -22.7900   19.2150 N   0  0  0  0  0  0  0  0  0  0  0  0
  -31.4470  -21.3330   18.2190 N   0  0  0  0  0  0  0  0  0  0  0  0
  -28.3150  -23.0560   20.9770 O   0  0  0  0  0  0  0  0  0  0  0  0
  -31.9850  -20.4810   18.2070 H   0  0  0  0  0  0  0  0  0  0  0  0
  -31.6350  -22.0270   17.5180 H   0  0  0  0  0  0  0  0  0  0  0  0
  -30.6390  -20.3040   21.4550 C   0  0  0  0  0  3  0  0  0  0  0  0
  -30.6680  -18.8370   19.5000 C   0  0  0  0  0  3  0  0  0  0  0  0
  -30.9950  -17.8630   21.6860 C   0  0  0  0  0  3  0  0  0  0  0  0
  -30.5470  -20.2020   20.0550 C   0  0  0  0  0  0  0  0  0  0  0  0
  -30.8550  -19.1570   22.2540 C   0  0  0  0  0  0  0  0  0  0  0  0
  -30.9190  -17.6300   20.2920 C   0  0  0  0  0  0  0  0  0  0  0  0
  -31.6400  -15.0420   19.9300 C   0  0  0  0  0  0  0  0  0  0  0  0
  -31.3400  -12.7200   18.9990 C   0  0  0  0  0  2  0  0  0  0  0  0
  -30.3760  -12.7760   17.7900 C   0  0  0  0  0  2  0  0  0  0  0  0
  -28.9040  -12.7090   18.2480 C   0  0  0  0  0  2  0  0  0  0  0  0
  -28.6030  -13.6690   19.4280 C   0  0  0  0  0  3  0  0  0  0  0  0
  -29.6740  -13.5550   20.5350 C   0  0  0  0  0  2  0  0  0  0  0  0
  -30.9730  -13.8310   19.9050 N   0  0  0  0  0  0  0  0  0  0  0  0
  -32.8510  -15.0720   19.6900 O   0  0  0  0  0  0  0  0  0  0  0  0
  -30.8360  -16.1870   19.8720 N   0  0  0  0  0  0  0  0  0  0  0  0
  -29.8780  -15.8760   19.8420 H   0  0  0  0  0  0  0  0  0  0  0  0
  -26.2990  -14.4690   20.2180 C   0  0  0  0  0  0  0  0  0  0  0  0
  -25.1730  -13.7920   20.6000 C   0  0  0  0  0  0  0  0  0  0  0  0
  -25.5080  -12.4040   20.5390 C   0  0  0  0  0  0  0  0  0  0  0  0
  -27.2500  -13.4990   19.9460 N   0  0  0  0  0  0  0  0  0  0  0  0
  -26.7830  -12.2510   20.2040 N   0  0  0  0  0  0  0  0  0  0  0  0
  -24.6690  -11.2120   20.7220 C   0  0  0  0  0  0  0  0  0  0  0  0
  -24.9950  -10.2190   21.6700 C   0  0  0  0  0  3  0  0  0  0  0  0
  -24.1630   -9.0910   21.8410 C   0  0  0  0  0  3  0  0  0  0  0  0
  -22.9900   -8.9510   21.0630 C   0  0  0  0  0  0  0  0  0  0  0  0
  -22.6820   -9.9320   20.1030 C   0  0  0  0  0  3  0  0  0  0  0  0
  -23.5150  -11.0510   19.9310 C   0  0  0  0  0  3  0  0  0  0  0  0
  -22.1360   -7.8780   21.1420 O   0  0  0  0  0  0  0  0  0  0  0  0
  -21.9360   -7.2030   22.3190 C   0  0  0  0  0  0  0  0  0  0  0  0
  -21.4930   -7.8590   23.4880 C   0  0  0  0  0  3  0  0  0  0  0  0
  -21.2340   -7.1140   24.6570 C   0  0  0  0  0  3  0  0  0  0  0  0
  -21.4100   -5.7170   24.6570 C   0  0  0  0  0  0  0  0  0  0  0  0
  -21.8460   -5.0620   23.4910 C   0  0  0  0  0  3  0  0  0  0  0  0
  -22.1060   -5.8040   22.3250 C   0  0  0  0  0  0  0  0  0  0  0  0
  -22.5060   -5.1640   21.1990 F   0  0  0  0  0  0  0  0  0  0  0  0
  -21.1530   -5.0020   25.7770 F   0  0  0  0  0  0  0  0  0  0  0  0
  -23.8310  -14.3930   20.9020 C   0  0  0  0  0  0  0  0  0  0  0  0
  -23.0720  -13.7770   21.8020 N   0  0  0  0  0  0  0  0  0  0  0  0
  -23.4680  -15.4440   20.3760 O   0  0  0  0  0  0  0  0  0  0  0  0
  -23.3790  -12.9260   22.2500 H   0  0  0  0  0  0  0  0  0  0  0  0
  -22.1720  -14.1640   22.0480 H   0  0  0  0  0  0  0  0  0  0  0  0
  -26.5830  -15.8220   20.0520 N   0  0  0  0  0  0  0  0  0  0  0  0
  -25.8660  -16.5290   20.1720 H   0  0  0  0  0  0  0  0  0  0  0  0
  -27.4230  -16.1860   19.6240 H   0  0  0  0  0  0  0  0  0  0  0  0
  -30.9310  -19.3110   23.6390 N   0  0  0  0  0  0  0  0  0  0  0  0
  -31.0940  -20.2330   24.0310 H   0  0  0  0  0  0  0  0  0  0  0  0
  -31.3190  -18.5600   24.2020 H   0  0  0  0  0  0  0  0  0  0  0  0
  -28.1790  -26.2370   20.0460 O   0  0  0  0  0  0  0  0  0  0  0  0
  -24.5840  -31.8250   23.0940 C   0  0  0  0  0  0  0  0  0  0  0  0
  -27.0640  -27.1340   19.9950 C   0  0  0  0  0  0  0  0  0  0  0  0
  -23.3290  -30.4310   21.4960 C   0  0  0  0  0  3  0  0  0  0  0  0
  -24.7250  -28.8480   20.0420 C   0  0  0  0  0  0  0  0  0  0  0  0
  -25.8750  -30.6960   21.2510 C   0  0  0  0  0  2  0  0  0  0  0  0
  -25.9230  -29.3070   20.6020 C   0  0  0  0  0  0  0  0  0  0  0  0
  -27.0880  -28.4650   20.5620 C   0  0  0  0  0  3  0  0  0  0  0  0
  -25.8170  -26.7420   19.4600 C   0  0  0  0  0  3  0  0  0  0  0  0
  -24.6800  -27.5730   19.4630 C   0  0  0  0  0  3  0  0  0  0  0  0
  -23.5060  -29.7480   20.1150 C   0  0  0  0  0  2  0  0  0  0  0  0
  -24.6190  -31.0030   22.0030 N   0  0  0  0  0  0  0  0  0  0  0  0
  -23.5150  -32.1190   23.6510 O   0  0  0  0  0  0  0  0  0  0  0  0
  -22.6740  -29.4290   22.4790 C   0  0  0  0  0  0  0  0  0  0  0  0
  -21.3450  -29.2520   22.3730 N   0  0  0  0  0  0  0  0  0  0  0  0
  -23.3610  -28.8140   23.2980 O   0  0  0  0  0  0  0  0  0  0  0  0
  -20.8470  -29.8000   21.6850 H   0  0  0  0  0  0  0  0  0  0  0  0
  -17.9830  -28.0160   22.9010 C   0  0  0  0  0  0  0  0  0  0  0  0
  -20.5370  -28.3240   23.1680 C   0  0  0  0  0  3  0  0  0  0  0  0
  -20.6630  -26.8780   22.6340 C   0  0  0  0  0  2  0  0  0  0  0  0
  -19.5680  -26.5100   21.6270 C   0  0  0  0  0  2  0  0  0  0  0  0
  -18.1830  -26.6510   22.2630 C   0  0  0  0  0  2  0  0  0  0  0  0
  -19.0890  -28.8070   23.3120 C   0  0  0  0  0  0  0  0  0  0  0  0
  -18.8470  -30.0820   23.8690 C   0  0  0  0  0  3  0  0  0  0  0  0
  -17.5340  -30.5660   24.0200 C   0  0  0  0  0  3  0  0  0  0  0  0
  -16.4440  -29.7720   23.6250 C   0  0  0  0  0  3  0  0  0  0  0  0
  -16.6690  -28.4990   23.0700 C   0  0  0  0  0  3  0  0  0  0  0  0
  -25.8840  -32.4530   23.6850 C   0  0  0  0  0  3  0  0  0  0  0  0
  -25.5780  -33.8420   24.0580 N   0  0  0  0  0  0  0  0  0  0  0  0
  -25.9060  -34.9180   23.3290 C   0  0  0  0  0  0  0  0  0  0  0  0
  -26.5630  -34.8440   22.2870 O   0  0  0  0  0  0  0  0  0  0  0  0
  -24.9950  -33.9740   24.8710 H   0  0  0  0  0  0  0  0  0  0  0  0
  -24.1850  -36.7320   23.0460 C   0  0  0  0  0  1  0  0  0  0  0  0
  -25.4290  -36.2940   23.8350 C   0  0  0  0  0  3  0  0  0  0  0  0
  -27.5750  -37.1390   24.6770 C   0  0  0  0  0  1  0  0  0  0  0  0
  -26.4660  -37.3450   23.7490 N   0  0  0  0  0  0  0  0  0  0  0  0
  -26.0670  -38.2620   23.9310 H   0  0  0  0  0  0  0  0  0  0  0  0
  -26.4460  -31.6590   24.9270 C   0  0  1  0  0  0  0  0  0  0  0  0
  -25.3920  -31.3950   26.0270 C   0  0  0  0  0  1  0  0  0  0  0  0
  -27.0240  -30.2940   24.4900 C   0  0  0  0  0  1  0  0  0  0  0  0
  -27.6150  -32.4470   25.5660 C   0  0  0  0  0  1  0  0  0  0  0  0
  1  9  2  0
  2  8  1  0
  2  7  1  0
  2 15  1  0
  3  5  1  0
  4  3  1  0
  4  7  1  0
  5  6  1  6
  5  1  1  0
  5 59  1  0
  7  1  1  0
 10  8  1  0
 11  8  1  0
 12 16  1  0
 13 15  1  0
 13 17  2  0
 14 16  2  0
 15 12  2  0
 16 56  1  0
 17 14  1  0
 19 24  1  0
 20 21  1  0
 20 19  1  0
 22 21  1  0
 22 31  1  0
 22 23  1  0
 24 18  1  0
 24 23  1  0
 25 18  2  0
 26 18  1  0
 26 17  1  0
 27 26  1  0
 28 29  2  0
 29 48  1  0
 30 29  1  0
 30 33  1  0
 31 32  1  0
 31 28  1  0
 32 30  2  0
 33 34  1  0
 34 35  2  0
 36 39  1  0
 36 35  1  0
 37 36  2  0
 38 37  1  0
 38 33  2  0
 39 40  1  0
 40 45  2  0
 40 41  1  0
 41 42  2  0
 43 42  1  0
 43 47  1  0
 44 43  2  0
 45 44  1  0
 46 45  1  0
 48 49  1  0
 49 52  1  0
 49 51  1  0
 50 48  2  0
 53 54  1  0
 53 28  1  0
 55 53  1  0
 56 57  1  0
 56 58  1  0
 60 71  2  0
 61 59  1  0
 61 66  1  0
 62 70  1  0
 62 72  1  0
 63 69  1  0
 63 65  1  0
 64 70  1  0
 65 64  1  0
 66 65  2  0
 67 68  1  0
 67 61  2  0
 68 63  2  0
 69 62  1  0
 70 60  1  0
 72 74  2  0
 73 72  1  0
 75 73  1  0
 76 85  2  0
 76 81  1  0
 77 73  1  0
 77 81  1  0
 78 77  1  0
 79 80  1  0
 79 78  1  0
 80 76  1  0
 81 82  2  0
 82 83  1  0
 84 83  2  0
 85 84  1  0
 86 60  1  0
 86 87  1  0
 86 96  1  0
 87 90  1  0
 88 92  1  0
 88 87  1  0
 89 88  2  0
 92 91  1  0
 94 92  1  0
 94 95  1  0
 94 93  1  0
 96 99  1  1
 96 97  1  0
 98 96  1  0
M  ISO  4   5 101  18 100  26 100  59 101
M  END
>  <TORSDO>  (3) 
F 18

>  <SCORE>  (3) 
-13.692

>  <name>  (3) 
2

>  <ligand_id>  (3) 
2

>  <original_smiles>  (3) 
[H]c1c([H])c([H])c2c(c1[H])C([H])([H])C([H])([H])C([H])([H])C2([H])N([H])C(=O)C1([H])N(C(=O)C([H])(N([H])C(=O)C([H])(N([H])C([H])([H])[H])C([H])([H])[H])C(C([H])([H])[H])(C([H])([H])[H])C([H])([H])[H])C([H])([H])c2c([H])c(OC3(C([H])([H])[H])C(=O)N(C(c4c([H])c(N([H])[H])c([H])c(N([H])C(=O)N5C([H])([H])C([H])([H])C([H])([H])C([H])(n6nc(-c7c([H])c([H])c(Oc8c([H])c([H])c(F)c([H])c8F)c([H])c7[H])c(C(=O)N([H])[H])c6N([H])[H])C5([H])[H])c4[H])=[N+]([H])[H])C([H])([H])C3([H])[H])c([H])c([H])c2C1([H])[H]

>  <smiles>  (3) 
[H]c1c([H])c([H])c2c(c1[H])C([H])([H])C([H])([H])C([H])([H])C2([H])N([H])C(=O)C1([H])N(C(=O)C([H])(N([H])C(=O)C([H])(N([H])C([H])([H])[H])C([H])([H])[H])C(C([H])([H])[H])(C([H])([H])[H])C([H])([H])[H])C([H])([H])c2c([H])c(OC3(C([H])([H])[H])C(=O)N(C(c4c([H])c(N([H])[H])c([H])c(N([H])C(=O)N5C([H])([H])C([H])([H])C([H])([H])C([H])(n6nc(-c7c([H])c([H])c(Oc8c([H])c([H])c(F)c([H])c8F)c([H])c7[H])c(C(=O)N([H])[H])c6N([H])[H])C5([H])[H])c4[H])=[N+]([H])[H])C([H])([H])C3([H])[H])c([H])c([H])c2C1([H])[H]

$$$$
3:0:0
     RDKit          3D

 91 99  0  0  1  0  0  0  0  0999 V2000
  -29.8390  -21.0020   19.8030 N   0  0  0  0  0  0  0  0  0  0  0  0
  -30.7570  -21.2920   19.4700 H   0  0  0  0  0  0  0  0  0  0  0  0
  -30.4020  -18.4500   20.0160 C   0  0  0  0  0  3  0  0  0  0  0  0
  -29.5530  -17.2690   20.1890 C   0  0  0  0  0  0  0  0  0  0  0  0
  -28.2820  -17.7900   20.2460 C   0  0  0  0  0  0  0  0  0  0  0  0
  -29.5590  -19.5790   19.9630 C   0  0  0  0  0  0  0  0  0  0  0  0
  -26.9360  -17.1710   20.4210 C   0  0  0  0  0  1  0  0  0  0  0  0
  -28.2730  -19.1630   20.1060 O   0  0  0  0  0  0  0  0  0  0  0  0
  -30.5960  -14.7820   19.8240 C   0  0  0  0  0  0  0  0  0  0  0  0
  -30.4850  -12.4480   18.9010 C   0  0  0  0  0  2  0  0  0  0  0  0
  -29.4470  -12.4310   17.7520 C   0  0  0  0  0  2  0  0  0  0  0  0
  -28.0190  -12.2140   18.2930 C   0  0  0  0  0  2  0  0  0  0  0  0
  -27.6990  -13.1250   19.5080 C   0  0  0  0  0  3  0  0  0  0  0  0
  -28.8430  -13.0900   20.5480 C   0  0  0  0  0  2  0  0  0  0  0  0
  -30.0800  -13.5010   19.8600 N   0  0  0  0  0  0  0  0  0  0  0  0
  -31.7110  -14.9920   19.3370 O   0  0  0  0  0  0  0  0  0  0  0  0
  -29.7320  -15.7830   20.2420 N   0  0  0  0  0  0  0  0  0  0  0  0
  -28.9470  -15.3360   20.6890 H   0  0  0  0  0  0  0  0  0  0  0  0
  -25.3750  -13.6770   20.4540 C   0  0  0  0  0  0  0  0  0  0  0  0
  -24.3520  -12.8830   20.8960 C   0  0  0  0  0  0  0  0  0  0  0  0
  -24.8190  -11.5380   20.7810 C   0  0  0  0  0  0  0  0  0  0  0  0
  -26.4010  -12.8140   20.1010 N   0  0  0  0  0  0  0  0  0  0  0  0
  -26.0770  -11.5200   20.3570 N   0  0  0  0  0  0  0  0  0  0  0  0
  -24.1180  -10.2640   20.9930 C   0  0  0  0  0  0  0  0  0  0  0  0
  -24.5470   -9.3400   21.9700 C   0  0  0  0  0  3  0  0  0  0  0  0
  -23.8460   -8.1320   22.1700 C   0  0  0  0  0  3  0  0  0  0  0  0
  -22.7020   -7.8370   21.3910 C   0  0  0  0  0  0  0  0  0  0  0  0
  -22.2920   -8.7510   20.4040 C   0  0  0  0  0  3  0  0  0  0  0  0
  -22.9940   -9.9500   20.2030 C   0  0  0  0  0  3  0  0  0  0  0  0
  -21.9750   -6.6760   21.4970 O   0  0  0  0  0  0  0  0  0  0  0  0
  -21.7870   -6.0520   22.7040 C   0  0  0  0  0  0  0  0  0  0  0  0
  -21.1670   -6.7040   23.7910 C   0  0  0  0  0  3  0  0  0  0  0  0
  -20.9310   -6.0030   24.9910 C   0  0  0  0  0  3  0  0  0  0  0  0
  -21.3040   -4.6500   25.1020 C   0  0  0  0  0  0  0  0  0  0  0  0
  -21.9170   -3.9980   24.0180 C   0  0  0  0  0  3  0  0  0  0  0  0
  -22.1550   -4.6970   22.8210 C   0  0  0  0  0  0  0  0  0  0  0  0
  -22.7260   -4.0580   21.7710 F   0  0  0  0  0  0  0  0  0  0  0  0
  -21.0730   -3.9740   26.2510 F   0  0  0  0  0  0  0  0  0  0  0  0
  -22.9800  -13.3410   21.3030 C   0  0  0  0  0  0  0  0  0  0  0  0
  -22.3400  -12.6240   22.2190 N   0  0  0  0  0  0  0  0  0  0  0  0
  -22.4860  -14.3690   20.8410 O   0  0  0  0  0  0  0  0  0  0  0  0
  -22.7500  -11.7910   22.6130 H   0  0  0  0  0  0  0  0  0  0  0  0
  -21.4250  -12.9150   22.5310 H   0  0  0  0  0  0  0  0  0  0  0  0
  -25.5090  -15.0530   20.2960 N   0  0  0  0  0  0  0  0  0  0  0  0
  -24.7310  -15.6800   20.4720 H   0  0  0  0  0  0  0  0  0  0  0  0
  -26.2710  -15.5000   19.8040 H   0  0  0  0  0  0  0  0  0  0  0  0
  -28.7900  -22.1180   19.8160 C   0  0  0  0  0  2  0  0  0  0  0  0
  -29.1820  -23.6870   19.6880 C   0  0  0  0  0  0  0  0  0  0  0  0
  -30.3730  -24.0080   19.7490 O   0  0  0  0  0  0  0  0  0  0  0  0
  -28.0520  -24.8210   19.4600 C   0  0  0  0  0  2  0  0  0  0  0  0
  -28.3640  -26.3040   19.6160 O   0  0  0  0  0  0  0  0  0  0  0  0
  -24.6680  -31.6130   23.0200 C   0  0  0  0  0  0  0  0  0  0  0  0
  -27.2720  -27.2210   19.6370 C   0  0  0  0  0  0  0  0  0  0  0  0
  -23.4620  -30.3210   21.3020 C   0  0  0  0  0  3  0  0  0  0  0  0
  -24.9100  -28.8770   19.7580 C   0  0  0  0  0  0  0  0  0  0  0  0
  -26.0060  -30.6470   21.1250 C   0  0  0  0  0  2  0  0  0  0  0  0
  -26.0870  -29.3120   20.3790 C   0  0  0  0  0  0  0  0  0  0  0  0
  -27.2720  -28.4990   20.3030 C   0  0  0  0  0  3  0  0  0  0  0  0
  -26.0630  -26.8690   18.9920 C   0  0  0  0  0  3  0  0  0  0  0  0
  -24.9050  -27.6660   19.0540 C   0  0  0  0  0  3  0  0  0  0  0  0
  -23.6710  -29.7460   19.8780 C   0  0  0  0  0  2  0  0  0  0  0  0
  -24.7320  -30.8750   21.8720 N   0  0  0  0  0  0  0  0  0  0  0  0
  -23.5870  -31.8470   23.5800 O   0  0  0  0  0  0  0  0  0  0  0  0
  -22.8100  -29.2390   22.1970 C   0  0  0  0  0  0  0  0  0  0  0  0
  -21.4800  -29.0720   22.0820 N   0  0  0  0  0  0  0  0  0  0  0  0
  -23.5000  -28.5540   22.9570 O   0  0  0  0  0  0  0  0  0  0  0  0
  -20.9800  -29.6750   21.4440 H   0  0  0  0  0  0  0  0  0  0  0  0
  -18.1010  -27.8920   22.6300 C   0  0  0  0  0  0  0  0  0  0  0  0
  -20.6740  -28.0810   22.7990 C   0  0  0  0  0  3  0  0  0  0  0  0
  -20.7170  -26.7070   22.0890 C   0  0  0  0  0  2  0  0  0  0  0  0
  -19.5630  -26.5030   21.1020 C   0  0  0  0  0  2  0  0  0  0  0  0
  -18.2150  -26.6120   21.8200 C   0  0  0  0  0  2  0  0  0  0  0  0
  -19.2550  -28.5900   23.0760 C   0  0  0  0  0  0  0  0  0  0  0  0
  -19.0910  -29.7940   23.7970 C   0  0  0  0  0  3  0  0  0  0  0  0
  -17.8060  -30.2990   24.0730 C   0  0  0  0  0  3  0  0  0  0  0  0
  -16.6670  -29.5960   23.6410 C   0  0  0  0  0  3  0  0  0  0  0  0
  -16.8150  -28.3950   22.9250 C   0  0  0  0  0  3  0  0  0  0  0  0
  -25.9510  -32.2150   23.6730 C   0  0  0  0  0  3  0  0  0  0  0  0
  -26.4760  -31.3730   24.9000 C   0  0  1  0  0  0  0  0  0  0  0  0
  -25.3900  -31.0650   25.9570 C   0  0  0  0  0  1  0  0  0  0  0  0
  -27.0650  -30.0230   24.4300 C   0  0  0  0  0  1  0  0  0  0  0  0
  -27.6250  -32.1350   25.6030 C   0  0  0  0  0  1  0  0  0  0  0  0
  -25.6340  -33.5900   24.0900 N   0  0  0  0  0  0  0  0  0  0  0  0
  -25.9230  -34.6890   23.3780 C   0  0  0  0  0  0  0  0  0  0  0  0
  -26.5520  -34.6510   22.3170 O   0  0  0  0  0  0  0  0  0  0  0  0
  -25.0720  -33.6930   24.9220 H   0  0  0  0  0  0  0  0  0  0  0  0
  -24.1470  -36.4640   23.2060 C   0  0  0  0  0  1  0  0  0  0  0  0
  -25.4370  -36.0430   23.9290 C   0  0  0  0  0  3  0  0  0  0  0  0
  -27.5930  -36.9340   24.7000 C   0  0  0  0  0  1  0  0  0  0  0  0
  -26.4440  -37.1210   23.8170 N   0  0  0  0  0  0  0  0  0  0  0  0
  -26.0290  -38.0250   24.0240 H   0  0  0  0  0  0  0  0  0  0  0  0
  1 47  1  0
  1  6  1  0
  2  1  1  0
  3  4  1  0
  4 17  1  0
  4  5  2  0
  5  7  1  0
  6  3  2  0
  6  8  1  0
  8  5  1  0
  9 15  1  0
  9 17  1  0
 10 15  1  0
 11 12  1  0
 11 10  1  0
 13 12  1  0
 13 22  1  0
 13 14  1  0
 15 14  1  0
 16  9  2  0
 17 18  1  0
 19 20  2  0
 20 39  1  0
 21 20  1  0
 21 24  1  0
 22 23  1  0
 22 19  1  0
 23 21  2  0
 24 25  1  0
 25 26  2  0
 27 30  1  0
 27 26  1  0
 28 27  2  0
 29 28  1  0
 29 24  2  0
 30 31  1  0
 31 36  2  0
 31 32  1  0
 32 33  2  0
 33 34  1  0
 34 38  1  0
 35 34  2  0
 36 35  1  0
 37 36  1  0
 39 40  1  0
 40 43  1  0
 40 42  1  0
 41 39  2  0
 44 19  1  0
 44 45  1  0
 46 44  1  0
 48 49  2  0
 48 47  1  0
 50 51  1  0
 50 48  1  0
 51 53  1  0
 52 63  2  0
 53 58  1  0
 54 62  1  0
 54 64  1  0
 55 61  1  0
 55 57  1  0
 56 62  1  0
 57 56  1  0
 58 57  2  0
 59 60  1  0
 59 53  2  0
 60 55  2  0
 61 54  1  0
 62 52  1  0
 64 66  2  0
 65 64  1  0
 67 65  1  0
 68 77  2  0
 68 73  1  0
 69 65  1  0
 69 73  1  0
 70 69  1  0
 71 72  1  0
 71 70  1  0
 72 68  1  0
 73 74  2  0
 74 75  1  0
 76 75  2  0
 77 76  1  0
 78 52  1  0
 78 83  1  0
 78 79  1  0
 79 82  1  1
 79 80  1  0
 81 79  1  0
 83 86  1  0
 84 88  1  0
 84 83  1  0
 85 84  2  0
 88 87  1  0
 90 88  1  0
 90 91  1  0
 90 89  1  0
M  ISO  4   9 100  17 100  50 101  51 101
M  END
>  <TORSDO>  (4) 
F 20

>  <SCORE>  (4) 
-12.797

>  <name>  (4) 
3

>  <ligand_id>  (4) 
3

>  <original_smiles>  (4) 
[H]c1c([H])c([H])c2c(c1[H])C([H])([H])C([H])([H])C([H])([H])C2([H])N([H])C(=O)C1([H])N(C(=O)C([H])(N([H])C(=O)C([H])(N([H])C([H])([H])[H])C([H])([H])[H])C(C([H])([H])[H])(C([H])([H])[H])C([H])([H])[H])C([H])([H])c2c([H])c(OC([H])([H])C(=O)C([H])([H])N([H])c3oc(C([H])([H])[H])c(N([H])C(=O)N4C([H])([H])C([H])([H])C([H])([H])C([H])(n5nc(-c6c([H])c([H])c(Oc7c([H])c([H])c(F)c([H])c7F)c([H])c6[H])c(C(=O)N([H])[H])c5N([H])[H])C4([H])[H])c3[H])c([H])c([H])c2C1([H])[H]

>  <smiles>  (4) 
[H]c1c([H])c([H])c2c(c1[H])C([H])([H])C([H])([H])C([H])([H])C2([H])N([H])C(=O)C1([H])N(C(=O)C([H])(N([H])C(=O)C([H])(N([H])C([H])([H])[H])C([H])([H])[H])C(C([H])([H])[H])(C([H])([H])[H])C([H])([H])[H])C([H])([H])c2c([H])c(OC([H])([H])C(=O)C([H])([H])N([H])c3oc(C([H])([H])[H])c(N([H])C(=O)N4C([H])([H])C([H])([H])C([H])([H])C([H])(n5nc(-c6c([H])c([H])c(Oc7c([H])c([H])c(F)c([H])c7F)c([H])c6[H])c(C(=O)N([H])[H])c5N([H])[H])C4([H])[H])c3[H])c([H])c([H])c2C1([H])[H]

$$$$
4:0:0
     RDKit          3D

 90 99  0  0  1  0  0  0  0  0999 V2000
  -29.2070  -21.1320   20.4000 C   0  0  0  0  0  3  0  0  0  0  0  0
  -29.0430  -22.3640   19.4520 C   0  0  0  0  0  2  0  0  0  0  0  0
  -28.5270  -22.9430   21.6470 C   0  0  0  0  0  2  0  0  0  0  0  0
  -28.9680  -23.6650   20.3450 C   0  0  0  0  0  3  0  0  0  0  0  0
  -28.9080  -21.5120   21.5800 N   0  0  0  0  0  2  0  0  0  0  0  0
  -30.5620  -14.7780   20.3790 C   0  0  0  0  0  0  0  0  0  0  0  0
  -30.3560  -12.4950   19.3940 C   0  0  0  0  0  2  0  0  0  0  0  0
  -29.4320  -12.5790   18.1600 C   0  0  0  0  0  2  0  0  0  0  0  0
  -27.9570  -12.4120   18.5750 C   0  0  0  0  0  2  0  0  0  0  0  0
  -27.5760  -13.2940   19.7940 C   0  0  0  0  0  3  0  0  0  0  0  0
  -28.6280  -13.2060   20.9230 C   0  0  0  0  0  2  0  0  0  0  0  0
  -29.9320  -13.5510   20.3440 N   0  0  0  0  0  0  0  0  0  0  0  0
  -31.7430  -14.8560   20.0270 O   0  0  0  0  0  0  0  0  0  0  0  0
  -30.5200  -19.4150   18.9470 C   0  0  0  0  0  3  0  0  0  0  0  0
  -29.6960  -19.6930   20.0150 C   0  0  0  0  0  0  0  0  0  0  0  0
  -30.0160  -17.3090   20.1990 C   0  0  0  0  0  0  0  0  0  0  0  0
  -29.4190  -18.4430   20.7100 N   0  0  0  0  0  0  0  0  0  0  0  0
  -29.8210  -15.9170   20.6670 N   0  0  0  0  0  0  0  0  0  0  0  0
  -30.9850  -17.7260   18.7890 S   0  0  0  0  0  0  0  0  0  0  0  0
  -28.9380  -15.7430   21.1210 H   0  0  0  0  0  0  0  0  0  0  0  0
  -25.1780  -13.8840   20.4890 C   0  0  0  0  0  0  0  0  0  0  0  0
  -24.1100  -13.1100   20.8540 C   0  0  0  0  0  0  0  0  0  0  0  0
  -24.5750  -11.7600   20.8390 C   0  0  0  0  0  0  0  0  0  0  0  0
  -26.2270  -13.0050   20.2720 N   0  0  0  0  0  0  0  0  0  0  0  0
  -25.8700  -11.7230   20.5460 N   0  0  0  0  0  0  0  0  0  0  0  0
  -23.8470  -10.4990   21.0320 C   0  0  0  0  0  0  0  0  0  0  0  0
  -24.2720   -9.5350   21.9730 C   0  0  0  0  0  3  0  0  0  0  0  0
  -23.5420   -8.3400   22.1530 C   0  0  0  0  0  3  0  0  0  0  0  0
  -22.3750   -8.0990   21.3920 C   0  0  0  0  0  0  0  0  0  0  0  0
  -21.9680   -9.0510   20.4410 C   0  0  0  0  0  3  0  0  0  0  0  0
  -22.6980  -10.2370   20.2580 C   0  0  0  0  0  3  0  0  0  0  0  0
  -21.6180   -6.9550   21.4820 O   0  0  0  0  0  0  0  0  0  0  0  0
  -21.5620   -6.2170   22.6370 C   0  0  0  0  0  0  0  0  0  0  0  0
  -21.1170   -6.7730   23.8560 C   0  0  0  0  0  3  0  0  0  0  0  0
  -21.0090   -5.9610   25.0040 C   0  0  0  0  0  3  0  0  0  0  0  0
  -21.3360   -4.5940   24.9320 C   0  0  0  0  0  0  0  0  0  0  0  0
  -21.7740   -4.0370   23.7170 C   0  0  0  0  0  3  0  0  0  0  0  0
  -21.8830   -4.8460   22.5730 C   0  0  0  0  0  0  0  0  0  0  0  0
  -22.2860   -4.2990   21.4000 F   0  0  0  0  0  0  0  0  0  0  0  0
  -21.2260   -3.8120   26.0310 F   0  0  0  0  0  0  0  0  0  0  0  0
  -22.7080  -13.5880   21.1040 C   0  0  0  0  0  0  0  0  0  0  0  0
  -21.9700  -12.9010   21.9680 N   0  0  0  0  0  0  0  0  0  0  0  0
  -22.2760  -14.6080   20.5690 O   0  0  0  0  0  0  0  0  0  0  0  0
  -22.3300  -12.0770   22.4250 H   0  0  0  0  0  0  0  0  0  0  0  0
  -21.0280  -13.2050   22.1750 H   0  0  0  0  0  0  0  0  0  0  0  0
  -25.3390  -15.2530   20.3000 N   0  0  0  0  0  0  0  0  0  0  0  0
  -24.5690  -15.9040   20.4040 H   0  0  0  0  0  0  0  0  0  0  0  0
  -26.1820  -15.6930   19.9530 H   0  0  0  0  0  0  0  0  0  0  0  0
  -28.0600  -24.9290   19.8660 C   0  0  0  0  0  2  0  0  0  0  0  0
  -28.2680  -26.3730   20.2600 O   0  0  0  0  0  0  0  0  0  0  0  0
  -24.6050  -31.8820   23.2820 C   0  0  0  0  0  0  0  0  0  0  0  0
  -27.1820  -27.2850   20.1890 C   0  0  0  0  0  0  0  0  0  0  0  0
  -23.3930  -30.4970   21.6410 C   0  0  0  0  0  3  0  0  0  0  0  0
  -24.8330  -28.9520   20.1960 C   0  0  0  0  0  0  0  0  0  0  0  0
  -25.9380  -30.7930   21.4550 C   0  0  0  0  0  2  0  0  0  0  0  0
  -26.0100  -29.4150   20.7980 C   0  0  0  0  0  0  0  0  0  0  0  0
  -27.1850  -28.5920   20.7890 C   0  0  0  0  0  3  0  0  0  0  0  0
  -25.9840  -26.9060   19.5380 C   0  0  0  0  0  3  0  0  0  0  0  0
  -24.8260  -27.7040   19.5580 C   0  0  0  0  0  3  0  0  0  0  0  0
  -23.6010  -29.8320   20.2560 C   0  0  0  0  0  2  0  0  0  0  0  0
  -24.6650  -31.0750   22.1820 N   0  0  0  0  0  0  0  0  0  0  0  0
  -23.5230  -32.1620   23.8210 O   0  0  0  0  0  0  0  0  0  0  0  0
  -22.7290  -29.4760   22.5980 C   0  0  0  0  0  0  0  0  0  0  0  0
  -21.4040  -29.2940   22.4680 N   0  0  0  0  0  0  0  0  0  0  0  0
  -23.4060  -28.8520   23.4180 O   0  0  0  0  0  0  0  0  0  0  0  0
  -20.9140  -29.8540   21.7840 H   0  0  0  0  0  0  0  0  0  0  0  0
  -18.0300  -28.0740   22.9530 C   0  0  0  0  0  0  0  0  0  0  0  0
  -20.5860  -28.3520   23.2350 C   0  0  0  0  0  3  0  0  0  0  0  0
  -20.6980  -26.9190   22.6630 C   0  0  0  0  0  2  0  0  0  0  0  0
  -19.6040  -26.5870   21.6430 C   0  0  0  0  0  2  0  0  0  0  0  0
  -18.2180  -26.7240   22.2800 C   0  0  0  0  0  2  0  0  0  0  0  0
  -19.1410  -28.8440   23.3860 C   0  0  0  0  0  0  0  0  0  0  0  0
  -18.9100  -30.1060   23.9770 C   0  0  0  0  0  3  0  0  0  0  0  0
  -17.6010  -30.5990   24.1340 C   0  0  0  0  0  3  0  0  0  0  0  0
  -16.5040  -29.8260   23.7160 C   0  0  0  0  0  3  0  0  0  0  0  0
  -16.7200  -28.5640   23.1320 C   0  0  0  0  0  3  0  0  0  0  0  0
  -25.8900  -32.5090   23.9040 C   0  0  0  0  0  3  0  0  0  0  0  0
  -25.5900  -33.9120   24.2250 N   0  0  0  0  0  0  0  0  0  0  0  0
  -25.9150  -34.9580   23.4520 C   0  0  0  0  0  0  0  0  0  0  0  0
  -26.5700  -34.8410   22.4120 O   0  0  0  0  0  0  0  0  0  0  0  0
  -25.0050  -34.0760   25.0310 H   0  0  0  0  0  0  0  0  0  0  0  0
  -24.1850  -36.7530   23.1110 C   0  0  0  0  0  1  0  0  0  0  0  0
  -25.4410  -36.3530   23.9030 C   0  0  0  0  0  3  0  0  0  0  0  0
  -27.5930  -37.2450   24.6810 C   0  0  0  0  0  1  0  0  0  0  0  0
  -26.4740  -37.4020   23.7550 N   0  0  0  0  0  0  0  0  0  0  0  0
  -26.0730  -38.3250   23.8950 H   0  0  0  0  0  0  0  0  0  0  0  0
  -26.3950  -31.7440   25.1900 C   0  0  1  0  0  0  0  0  0  0  0  0
  -25.2950  -31.5250   26.2560 C   0  0  0  0  0  1  0  0  0  0  0  0
  -26.9670  -30.3580   24.8140 C   0  0  0  0  0  1  0  0  0  0  0  0
  -27.5490  -32.5340   25.8490 C   0  0  0  0  0  1  0  0  0  0  0  0
  1 15  1  0
  1  5  1  0
  2  4  1  0
  2  1  1  0
  4 49  1  0
  4  3  1  0
  5  3  1  0
  6 18  1  0
  7 12  1  0
  8  9  1  0
  8  7  1  0
 10  9  1  0
 10 24  1  0
 10 11  1  0
 12  6  1  0
 12 11  1  0
 13  6  2  0
 14 15  2  0
 15 17  1  0
 16 18  1  0
 16 17  2  0
 18 20  1  0
 19 14  1  0
 19 16  1  0
 21 22  2  0
 22 41  1  0
 23 22  1  0
 23 26  1  0
 24 21  1  0
 24 25  1  0
 25 23  2  0
 26 27  1  0
 27 28  2  0
 29 32  1  0
 29 28  1  0
 30 29  2  0
 31 30  1  0
 31 26  2  0
 32 33  1  0
 33 34  1  0
 34 35  2  0
 36 35  1  0
 36 40  1  0
 37 36  2  0
 38 33  2  0
 38 37  1  0
 39 38  1  0
 41 42  1  0
 42 45  1  0
 42 44  1  0
 43 41  2  0
 46 47  1  0
 46 21  1  0
 48 46  1  0
 49 50  1  0
 51 62  2  0
 52 50  1  0
 52 57  1  0
 53 61  1  0
 53 63  1  0
 54 60  1  0
 54 56  1  0
 55 61  1  0
 56 55  1  0
 57 56  2  0
 58 59  1  0
 58 52  2  0
 59 54  2  0
 60 53  1  0
 61 51  1  0
 63 65  2  0
 64 63  1  0
 66 64  1  0
 67 76  2  0
 67 72  1  0
 68 64  1  0
 68 72  1  0
 69 68  1  0
 70 71  1  0
 70 69  1  0
 71 67  1  0
 72 73  2  0
 73 74  1  0
 75 74  2  0
 76 75  1  0
 77 51  1  0
 77 78  1  0
 77 87  1  0
 78 81  1  0
 79 83  1  0
 79 78  1  0
 80 79  2  0
 83 82  1  0
 85 86  1  0
 85 83  1  0
 85 84  1  0
 87 90  1  1
 87 88  1  0
 89 87  1  0
M  ISO  4   6 100  18 100  49 101  50 101
M  END
>  <TORSDO>  (5) 
F 17

>  <SCORE>  (5) 
-15.128

>  <name>  (5) 
4

>  <ligand_id>  (5) 
4

>  <original_smiles>  (5) 
[H]c1sc(N([H])C(=O)N2C([H])([H])C([H])([H])C([H])([H])C([H])(n3nc(-c4c([H])c([H])c(Oc5c([H])c([H])c(F)c([H])c5F)c([H])c4[H])c(C(=O)N([H])[H])c3N([H])[H])C2([H])[H])nc1C1=NC([H])([H])C([H])(C([H])([H])Oc2c([H])c([H])c3c(c2[H])C([H])([H])N(C(=O)C([H])(N([H])C(=O)C([H])(N([H])C([H])([H])[H])C([H])([H])[H])C(C([H])([H])[H])(C([H])([H])[H])C([H])([H])[H])C([H])(C(=O)N([H])C2([H])c4c([H])c([H])c([H])c([H])c4C([H])([H])C([H])([H])C2([H])[H])C3([H])[H])C1([H])[H]

>  <smiles>  (5) 
[H]c1sc(N([H])C(=O)N2C([H])([H])C([H])([H])C([H])([H])C([H])(n3nc(-c4c([H])c([H])c(Oc5c([H])c([H])c(F)c([H])c5F)c([H])c4[H])c(C(=O)N([H])[H])c3N([H])[H])C2([H])[H])nc1C1=NC([H])([H])C([H])(C([H])([H])Oc2c([H])c([H])c3c(c2[H])C([H])([H])N(C(=O)C([H])(N([H])C(=O)C([H])(N([H])C([H])([H])[H])C([H])([H])[H])C(C([H])([H])[H])(C([H])([H])[H])C([H])([H])[H])C([H])(C(=O)N([H])C2([H])c4c([H])c([H])c([H])c([H])c4C([H])([H])C([H])([H])C2([H])[H])C3([H])[H])C1([H])[H]

$$$$
5:0:0
     RDKit          3D

 95104  0  0  1  0  0  0  0  0999 V2000
  -29.9400  -23.8960   20.5890 C   0  0  0  0  0  3  0  0  0  0  0  0
  -29.0420  -23.7430   19.6040 C   0  0  0  0  0  0  0  0  0  0  0  0
  -30.6410  -22.7490   21.1860 C   0  0  0  0  0  0  0  0  0  0  0  0
  -30.1460  -21.3130   20.9280 C   0  0  0  0  0  2  0  0  0  0  0  0
  -28.7600  -22.2810   19.0090 C   0  0  0  0  0  3  0  0  0  0  0  0
  -29.3880  -21.0630   19.6910 N   0  0  0  0  0  0  0  0  0  0  0  0
  -31.5940  -22.9120   21.9520 O   0  0  0  0  0  0  0  0  0  0  0  0
  -27.1370  -18.1910   20.6620 C   0  0  0  0  0  3  0  0  0  0  0  0
  -27.6670  -19.4810   20.4610 C   0  0  0  0  0  3  0  0  0  0  0  0
  -27.8040  -17.0400   20.2030 C   0  0  0  0  0  3  0  0  0  0  0  0
  -29.5330  -18.4870   19.2780 C   0  0  0  0  0  3  0  0  0  0  0  0
  -28.8680  -19.7000   19.7460 C   0  0  0  0  0  0  0  0  0  0  0  0
  -29.0280  -17.1340   19.5150 C   0  0  0  0  0  0  0  0  0  0  0  0
  -30.4100  -14.8910   19.4750 C   0  0  0  0  0  0  0  0  0  0  0  0
  -30.3460  -12.4920   18.7940 C   0  0  0  0  0  2  0  0  0  0  0  0
  -29.3210  -12.2930   17.6550 C   0  0  0  0  0  2  0  0  0  0  0  0
  -27.9060  -12.0700   18.2290 C   0  0  0  0  0  2  0  0  0  0  0  0
  -27.5320  -13.0850   19.3420 C   0  0  0  0  0  3  0  0  0  0  0  0
  -28.6730  -13.2520   20.3670 C   0  0  0  0  0  2  0  0  0  0  0  0
  -29.8650  -13.6330   19.6040 N   0  0  0  0  0  0  0  0  0  0  0  0
  -31.6130  -15.0000   19.2330 O   0  0  0  0  0  0  0  0  0  0  0  0
  -29.6070  -15.8950   18.9550 N   0  0  0  0  0  0  0  0  0  0  0  0
  -29.9870  -16.0920   18.0410 H   0  0  0  0  0  0  0  0  0  0  0  0
  -25.2210  -13.6040   20.3240 C   0  0  0  0  0  0  0  0  0  0  0  0
  -24.2160  -12.8030   20.7870 C   0  0  0  0  0  0  0  0  0  0  0  0
  -24.7050  -11.4640   20.6930 C   0  0  0  0  0  0  0  0  0  0  0  0
  -26.2560  -12.7550   19.9720 N   0  0  0  0  0  0  0  0  0  0  0  0
  -25.9590  -11.4620   20.2580 N   0  0  0  0  0  0  0  0  0  0  0  0
  -24.0320  -10.1810   20.9380 C   0  0  0  0  0  0  0  0  0  0  0  0
  -24.5040   -9.2770   21.9150 C   0  0  0  0  0  3  0  0  0  0  0  0
  -23.8320   -8.0570   22.1490 C   0  0  0  0  0  3  0  0  0  0  0  0
  -22.6750   -7.7310   21.4020 C   0  0  0  0  0  0  0  0  0  0  0  0
  -22.2200   -8.6250   20.4160 C   0  0  0  0  0  3  0  0  0  0  0  0
  -22.8920   -9.8360   20.1830 C   0  0  0  0  0  3  0  0  0  0  0  0
  -21.9720   -6.5570   21.5410 O   0  0  0  0  0  0  0  0  0  0  0  0
  -21.8370   -5.9370   22.7580 C   0  0  0  0  0  0  0  0  0  0  0  0
  -21.2850   -6.6000   23.8760 C   0  0  0  0  0  3  0  0  0  0  0  0
  -21.1020   -5.9050   25.0890 C   0  0  0  0  0  3  0  0  0  0  0  0
  -21.4620   -4.5470   25.1820 C   0  0  0  0  0  0  0  0  0  0  0  0
  -22.0060   -3.8840   24.0690 C   0  0  0  0  0  3  0  0  0  0  0  0
  -22.1930   -4.5780   22.8600 C   0  0  0  0  0  0  0  0  0  0  0  0
  -22.6990   -3.9280   21.7850 F   0  0  0  0  0  0  0  0  0  0  0  0
  -21.2800   -3.8770   26.3440 F   0  0  0  0  0  0  0  0  0  0  0  0
  -22.8410  -13.2440   21.1980 C   0  0  0  0  0  0  0  0  0  0  0  0
  -22.2330  -12.5460   22.1500 N   0  0  0  0  0  0  0  0  0  0  0  0
  -22.3160  -14.2460   20.7090 O   0  0  0  0  0  0  0  0  0  0  0  0
  -22.6690  -11.7380   22.5640 H   0  0  0  0  0  0  0  0  0  0  0  0
  -21.3180  -12.8260   22.4680 H   0  0  0  0  0  0  0  0  0  0  0  0
  -25.3370  -14.9800   20.1500 N   0  0  0  0  0  0  0  0  0  0  0  0
  -24.5700  -15.6160   20.3420 H   0  0  0  0  0  0  0  0  0  0  0  0
  -26.1390  -15.4310   19.7280 H   0  0  0  0  0  0  0  0  0  0  0  0
  -27.1530  -21.2890   17.2720 C   0  0  0  0  0  1  0  0  0  0  0  0
  -27.2840  -22.0530   18.5980 C   0  0  0  0  0  2  0  0  0  0  0  0
  -28.2940  -25.0310   19.0350 C   0  0  0  0  0  2  0  0  0  0  0  0
  -28.5690  -26.4290   19.5410 O   0  0  0  0  0  0  0  0  0  0  0  0
  -24.8610  -31.5610   23.1300 C   0  0  0  0  0  0  0  0  0  0  0  0
  -27.4770  -27.3350   19.5720 C   0  0  0  0  0  0  0  0  0  0  0  0
  -23.6460  -30.2900   21.3990 C   0  0  0  0  0  3  0  0  0  0  0  0
  -25.0930  -28.9310   19.7800 C   0  0  0  0  0  0  0  0  0  0  0  0
  -26.1780  -30.6750   21.1860 C   0  0  0  0  0  2  0  0  0  0  0  0
  -26.2720  -29.3660   20.4030 C   0  0  0  0  0  0  0  0  0  0  0  0
  -27.4670  -28.5800   20.2900 C   0  0  0  0  0  3  0  0  0  0  0  0
  -26.2790  -26.9980   18.8990 C   0  0  0  0  0  3  0  0  0  0  0  0
  -25.1060  -27.7630   19.0090 C   0  0  0  0  0  3  0  0  0  0  0  0
  -23.8380  -29.7610   19.9540 C   0  0  0  0  0  2  0  0  0  0  0  0
  -24.9140  -30.8550   21.9630 N   0  0  0  0  0  0  0  0  0  0  0  0
  -23.7860  -31.7610   23.7160 O   0  0  0  0  0  0  0  0  0  0  0  0
  -23.0360  -29.1690   22.2740 C   0  0  0  0  0  0  0  0  0  0  0  0
  -21.7260  -28.9150   22.1120 N   0  0  0  0  0  0  0  0  0  0  0  0
  -23.7440  -28.5380   23.0650 O   0  0  0  0  0  0  0  0  0  0  0  0
  -21.2180  -29.4780   21.4450 H   0  0  0  0  0  0  0  0  0  0  0  0
  -18.4320  -27.4610   22.4550 C   0  0  0  0  0  0  0  0  0  0  0  0
  -20.9600  -27.8780   22.8020 C   0  0  0  0  0  3  0  0  0  0  0  0
  -21.1720  -26.4970   22.1400 C   0  0  0  0  0  2  0  0  0  0  0  0
  -20.1140  -26.1640   21.0810 C   0  0  0  0  0  2  0  0  0  0  0  0
  -18.7170  -26.1710   21.7080 C   0  0  0  0  0  2  0  0  0  0  0  0
  -19.4850  -28.2700   22.9590 C   0  0  0  0  0  0  0  0  0  0  0  0
  -19.1650  -29.4730   23.6230 C   0  0  0  0  0  3  0  0  0  0  0  0
  -17.8230  -29.8700   23.7880 C   0  0  0  0  0  3  0  0  0  0  0  0
  -16.7840  -29.0570   23.2980 C   0  0  0  0  0  3  0  0  0  0  0  0
  -17.0910  -27.8540   22.6380 C   0  0  0  0  0  3  0  0  0  0  0  0
  -26.1450  -32.1680   23.7750 C   0  0  0  0  0  3  0  0  0  0  0  0
  -26.6360  -31.3720   25.0460 C   0  0  1  0  0  0  0  0  0  0  0  0
  -25.5240  -31.1330   26.0940 C   0  0  0  0  0  1  0  0  0  0  0  0
  -27.2080  -29.9920   24.6440 C   0  0  0  0  0  1  0  0  0  0  0  0
  -27.7830  -32.1450   25.7360 C   0  0  0  0  0  1  0  0  0  0  0  0
  -25.8500  -33.5650   24.1240 N   0  0  0  0  0  0  0  0  0  0  0  0
  -26.1570  -34.6240   23.3640 C   0  0  0  0  0  0  0  0  0  0  0  0
  -26.7880  -34.5250   22.3080 O   0  0  0  0  0  0  0  0  0  0  0  0
  -25.2890  -33.7140   24.9500 H   0  0  0  0  0  0  0  0  0  0  0  0
  -24.4290  -36.4300   23.0790 C   0  0  0  0  0  1  0  0  0  0  0  0
  -25.6910  -36.0100   23.8490 C   0  0  0  0  0  3  0  0  0  0  0  0
  -27.8460  -36.8880   24.6380 C   0  0  0  0  0  1  0  0  0  0  0  0
  -26.7260  -37.0600   23.7150 N   0  0  0  0  0  0  0  0  0  0  0  0
  -26.3280  -37.9820   23.8690 H   0  0  0  0  0  0  0  0  0  0  0  0
  1  3  1  0
  2  1  2  0
  3  7  2  0
  4  3  1  0
  5 53  1  0
  5  2  1  0
  5  6  1  0
  6 12  1  0
  6  4  1  0
  9  8  1  0
 10  8  2  0
 11 13  2  0
 11 12  1  0
 12  9  2  0
 13 10  1  0
 14 20  1  0
 15 20  1  0
 16 17  1  0
 16 15  1  0
 18 17  1  0
 18 27  1  0
 18 19  1  0
 20 19  1  0
 21 14  2  0
 22 14  1  0
 22 13  1  0
 23 22  1  0
 24 25  2  0
 25 44  1  0
 26 25  1  0
 26 29  1  0
 27 28  1  0
 27 24  1  0
 28 26  2  0
 29 30  1  0
 30 31  2  0
 32 35  1  0
 32 31  1  0
 33 32  2  0
 34 33  1  0
 34 29  2  0
 35 36  1  0
 36 41  2  0
 36 37  1  0
 37 38  2  0
 38 39  1  0
 39 43  1  0
 40 39  2  0
 41 40  1  0
 42 41  1  0
 44 45  1  0
 45 48  1  0
 45 47  1  0
 46 44  2  0
 49 24  1  0
 49 50  1  0
 51 49  1  0
 52 53  1  0
 54 55  1  0
 54  2  1  0
 55 57  1  0
 56 67  2  0
 57 62  1  0
 58 66  1  0
 58 68  1  0
 59 65  1  0
 59 61  1  0
 60 66  1  0
 61 60  1  0
 62 61  2  0
 63 64  1  0
 63 57  2  0
 64 59  2  0
 65 58  1  0
 66 56  1  0
 68 70  2  0
 69 68  1  0
 71 69  1  0
 72 81  2  0
 72 77  1  0
 73 69  1  0
 73 77  1  0
 74 73  1  0
 75 76  1  0
 75 74  1  0
 76 72  1  0
 77 78  2  0
 78 79  1  0
 80 79  2  0
 81 80  1  0
 82 56  1  0
 82 87  1  0
 82 83  1  0
 83 86  1  1
 83 84  1  0
 85 83  1  0
 87 90  1  0
 88 92  1  0
 88 87  1  0
 89 88  2  0
 92 91  1  0
 94 92  1  0
 94 95  1  0
 94 93  1  0
M  ISO  4  14 100  22 100  54 101  55 101
M  END
>  <TORSDO>  (6) 
F 19

>  <SCORE>  (6) 
-11.526

>  <name>  (6) 
5

>  <ligand_id>  (6) 
5

>  <original_smiles>  (6) 
[H]C1=C(C([H])([H])Oc2c([H])c([H])c3c(c2[H])C([H])([H])N(C(=O)C([H])(N([H])C(=O)C([H])(N([H])C([H])([H])[H])C([H])([H])[H])C(C([H])([H])[H])(C([H])([H])[H])C([H])([H])[H])C([H])(C(=O)N([H])C2([H])c4c([H])c([H])c([H])c([H])c4C([H])([H])C([H])([H])C2([H])[H])C3([H])[H])C([H])(C([H])([H])C([H])([H])[H])N(c2c([H])c([H])c([H])c(N([H])C(=O)N3C([H])([H])C([H])([H])C([H])([H])C([H])(n4nc(-c5c([H])c([H])c(Oc6c([H])c([H])c(F)c([H])c6F)c([H])c5[H])c(C(=O)N([H])[H])c4N([H])[H])C3([H])[H])c2[H])C([H])([H])C1=O

>  <smiles>  (6) 
[H]C1=C(C([H])([H])Oc2c([H])c([H])c3c(c2[H])C([H])([H])N(C(=O)C([H])(N([H])C(=O)C([H])(N([H])C([H])([H])[H])C([H])([H])[H])C(C([H])([H])[H])(C([H])([H])[H])C([H])([H])[H])C([H])(C(=O)N([H])C2([H])c4c([H])c([H])c([H])c([H])c4C([H])([H])C([H])([H])C2([H])[H])C3([H])[H])C([H])(C([H])([H])C([H])([H])[H])N(c2c([H])c([H])c([H])c(N([H])C(=O)N3C([H])([H])C([H])([H])C([H])([H])C([H])(n4nc(-c5c([H])c([H])c(Oc6c([H])c([H])c(F)c([H])c6F)c([H])c5[H])c(C(=O)N([H])[H])c4N([H])[H])C3([H])[H])c2[H])C([H])([H])C1=O

$$$$
6:0:0
     RDKit          3D

 97106  0  0  1  0  0  0  0  0999 V2000
  -28.7220  -22.4330   20.1280 C   0  0  0  0  0  0  0  0  0  0  0  0
  -29.2290  -21.3870   20.9210 N   0  0  0  0  0  0  0  0  0  0  0  0
  -28.2550  -22.1700   19.0160 O   0  0  0  0  0  0  0  0  0  0  0  0
  -29.3970  -21.6430   21.8860 H   0  0  0  0  0  0  0  0  0  0  0  0
  -30.7730  -14.9360   21.1350 C   0  0  0  0  0  0  0  0  0  0  0  0
  -30.7720  -12.5230   20.4080 C   0  0  0  0  0  2  0  0  0  0  0  0
  -30.0390  -12.4610   19.0500 C   0  0  0  0  0  2  0  0  0  0  0  0
  -28.5120  -12.3620   19.2640 C   0  0  0  0  0  2  0  0  0  0  0  0
  -27.9600  -13.2820   20.3980 C   0  0  0  0  0  3  0  0  0  0  0  0
  -28.8720  -13.3010   21.6400 C   0  0  0  0  0  2  0  0  0  0  0  0
  -30.2050  -13.6720   21.1530 N   0  0  0  0  0  0  0  0  0  0  0  0
  -32.0070  -15.0120   21.1540 O   0  0  0  0  0  0  0  0  0  0  0  0
  -29.6280  -18.7350   21.2490 C   0  0  0  0  0  3  0  0  0  0  0  0
  -30.2370  -19.9650   19.1650 C   0  0  0  0  0  3  0  0  0  0  0  0
  -30.4430  -17.5860   19.2310 C   0  0  0  0  0  0  0  0  0  0  0  0
  -30.0520  -17.4930   20.6020 C   0  0  0  0  0  0  0  0  0  0  0  0
  -29.6810  -20.0150   20.4860 C   0  0  0  0  0  0  0  0  0  0  0  0
  -30.5800  -18.7650   18.4960 C   0  0  0  0  0  0  0  0  0  0  0  0
  -30.3530  -16.1060   19.0290 C   0  0  0  0  0  3  0  0  0  0  0  0
  -29.1770  -15.8130   18.0620 C   0  0  0  0  0  1  0  0  0  0  0  0
  -30.0270  -15.9750   20.5220 N   0  0  0  0  0  0  0  0  0  0  0  0
  -25.5030  -13.8770   20.7950 C   0  0  0  0  0  0  0  0  0  0  0  0
  -24.3970  -13.1040   21.0390 C   0  0  0  0  0  0  0  0  0  0  0  0
  -24.8640  -11.7540   21.0800 C   0  0  0  0  0  0  0  0  0  0  0  0
  -26.5670  -12.9930   20.7170 N   0  0  0  0  0  0  0  0  0  0  0  0
  -26.1830  -11.7120   20.9400 N   0  0  0  0  0  0  0  0  0  0  0  0
  -24.1180  -10.4940   21.1880 C   0  0  0  0  0  0  0  0  0  0  0  0
  -24.4770   -9.5070   22.1320 C   0  0  0  0  0  3  0  0  0  0  0  0
  -23.7420   -8.3050   22.2330 C   0  0  0  0  0  3  0  0  0  0  0  0
  -22.6290   -8.0860   21.3870 C   0  0  0  0  0  0  0  0  0  0  0  0
  -22.2890   -9.0600   20.4310 C   0  0  0  0  0  3  0  0  0  0  0  0
  -23.0280  -10.2510   20.3290 C   0  0  0  0  0  3  0  0  0  0  0  0
  -21.8670   -6.9420   21.3960 O   0  0  0  0  0  0  0  0  0  0  0  0
  -21.7790   -6.1450   22.5090 C   0  0  0  0  0  0  0  0  0  0  0  0
  -21.3000   -6.6330   23.7450 C   0  0  0  0  0  3  0  0  0  0  0  0
  -21.1740   -5.7640   24.8470 C   0  0  0  0  0  3  0  0  0  0  0  0
  -21.5070   -4.4020   24.7080 C   0  0  0  0  0  0  0  0  0  0  0  0
  -21.9740   -3.9090   23.4780 C   0  0  0  0  0  3  0  0  0  0  0  0
  -22.1080   -4.7800   22.3810 C   0  0  0  0  0  0  0  0  0  0  0  0
  -22.5430   -4.3000   21.1890 F   0  0  0  0  0  0  0  0  0  0  0  0
  -21.3770   -3.5630   25.7610 F   0  0  0  0  0  0  0  0  0  0  0  0
  -22.9720  -13.5780   21.1270 C   0  0  0  0  0  0  0  0  0  0  0  0
  -22.1390  -12.8880   21.9010 N   0  0  0  0  0  0  0  0  0  0  0  0
  -22.5980  -14.5970   20.5480 O   0  0  0  0  0  0  0  0  0  0  0  0
  -22.4500  -12.0530   22.3740 H   0  0  0  0  0  0  0  0  0  0  0  0
  -21.1800  -13.1880   22.0110 H   0  0  0  0  0  0  0  0  0  0  0  0
  -25.6990  -15.2450   20.6210 N   0  0  0  0  0  0  0  0  0  0  0  0
  -24.9320  -15.9100   20.6000 H   0  0  0  0  0  0  0  0  0  0  0  0
  -26.6100  -15.6630   20.4690 H   0  0  0  0  0  0  0  0  0  0  0  0
  -30.9900  -18.7710   17.1660 N   0  0  0  0  0  0  0  0  0  0  0  0
  -30.7960  -19.5950   16.6060 H   0  0  0  0  0  0  0  0  0  0  0  0
  -30.9240  -17.9170   16.6250 H   0  0  0  0  0  0  0  0  0  0  0  0
  -28.4520  -24.9830   19.8580 C   0  0  0  0  0  3  0  0  0  0  0  0
  -28.7110  -23.8600   20.6570 C   0  0  0  0  0  0  0  0  0  0  0  0
  -28.9660  -24.0560   21.9560 O   0  0  0  0  0  0  0  0  0  0  0  0
  -28.8820  -24.9890   22.1150 H   0  0  0  0  0  0  0  0  0  0  0  0
  -28.4830  -26.3730   20.2280 O   0  0  0  0  0  0  0  0  0  0  0  0
  -24.5640  -31.8000   23.0930 C   0  0  0  0  0  0  0  0  0  0  0  0
  -27.3660  -27.2470   20.1050 C   0  0  0  0  0  0  0  0  0  0  0  0
  -23.4480  -30.3530   21.4420 C   0  0  0  0  0  3  0  0  0  0  0  0
  -24.9700  -28.8360   20.0510 C   0  0  0  0  0  0  0  0  0  0  0  0
  -25.9880  -30.7370   21.3110 C   0  0  0  0  0  2  0  0  0  0  0  0
  -26.1190  -29.3530   20.6660 C   0  0  0  0  0  0  0  0  0  0  0  0
  -27.3230  -28.5730   20.6700 C   0  0  0  0  0  3  0  0  0  0  0  0
  -26.1900  -26.8030   19.4620 C   0  0  0  0  0  3  0  0  0  0  0  0
  -25.0080  -27.5710   19.4460 C   0  0  0  0  0  3  0  0  0  0  0  0
  -23.7210  -29.6960   20.0630 C   0  0  0  0  0  2  0  0  0  0  0  0
  -24.6870  -30.9820   22.0050 N   0  0  0  0  0  0  0  0  0  0  0  0
  -23.4580  -32.0430   23.5950 O   0  0  0  0  0  0  0  0  0  0  0  0
  -22.7920  -29.3170   22.3900 C   0  0  0  0  0  0  0  0  0  0  0  0
  -21.4700  -29.1100   22.2590 N   0  0  0  0  0  0  0  0  0  0  0  0
  -23.4780  -28.7030   23.2120 O   0  0  0  0  0  0  0  0  0  0  0  0
  -20.9690  -29.6710   21.5840 H   0  0  0  0  0  0  0  0  0  0  0  0
  -18.1220  -27.8060   22.7380 C   0  0  0  0  0  0  0  0  0  0  0  0
  -20.6710  -28.1500   23.0260 C   0  0  0  0  0  3  0  0  0  0  0  0
  -20.8200  -26.7150   22.4710 C   0  0  0  0  0  2  0  0  0  0  0  0
  -19.7380  -26.3480   21.4460 C   0  0  0  0  0  2  0  0  0  0  0  0
  -18.3460  -26.4580   22.0730 C   0  0  0  0  0  2  0  0  0  0  0  0
  -19.2120  -28.6060   23.1730 C   0  0  0  0  0  0  0  0  0  0  0  0
  -18.9480  -29.8630   23.7590 C   0  0  0  0  0  3  0  0  0  0  0  0
  -17.6250  -30.3240   23.9060 C   0  0  0  0  0  3  0  0  0  0  0  0
  -16.5520  -29.5250   23.4790 C   0  0  0  0  0  3  0  0  0  0  0  0
  -16.8000  -28.2660   22.9050 C   0  0  0  0  0  3  0  0  0  0  0  0
  -25.8050  -32.4910   23.7330 C   0  0  0  0  0  3  0  0  0  0  0  0
  -26.3260  -31.7510   25.0250 C   0  0  1  0  0  0  0  0  0  0  0  0
  -25.2260  -31.4870   26.0790 C   0  0  0  0  0  1  0  0  0  0  0  0
  -26.9580  -30.3880   24.6620 C   0  0  0  0  0  1  0  0  0  0  0  0
  -27.4440  -32.5850   25.6940 C   0  0  0  0  0  1  0  0  0  0  0  0
  -25.4330  -33.8810   24.0470 N   0  0  0  0  0  0  0  0  0  0  0  0
  -25.8490  -34.9540   23.3580 C   0  0  0  0  0  0  0  0  0  0  0  0
  -26.6520  -34.8800   22.4250 O   0  0  0  0  0  0  0  0  0  0  0  0
  -24.7400  -34.0160   24.7690 H   0  0  0  0  0  0  0  0  0  0  0  0
  -24.2060  -36.7640   22.7690 C   0  0  0  0  0  1  0  0  0  0  0  0
  -25.2870  -36.3280   23.7730 C   0  0  0  0  0  3  0  0  0  0  0  0
  -27.2440  -37.1700   24.9910 C   0  0  0  0  0  1  0  0  0  0  0  0
  -26.3210  -37.3790   23.8790 N   0  0  0  0  0  0  0  0  0  0  0  0
  -25.8930  -38.2960   23.9910 H   0  0  0  0  0  0  0  0  0  0  0  0
  1 54  1  0
  1  2  1  0
  2  4  1  0
  3  1  2  0
  5 11  1  0
  5 12  2  0
  6 11  1  0
  7  8  1  0
  7  6  1  0
  9  8  1  0
  9 25  1  0
  9 10  1  0
 11 10  1  0
 14 17  1  0
 15 16  2  0
 16 13  1  0
 17  2  1  0
 17 13  2  0
 18 14  2  0
 18 15  1  0
 19 20  1  0
 19 15  1  0
 19 21  1  0
 21 16  1  0
 21  5  1  0
 22 23  2  0
 23 24  1  0
 23 42  1  0
 24 27  1  0
 25 22  1  0
 25 26  1  0
 26 24  2  0
 27 28  1  0
 28 29  2  0
 30 33  1  0
 30 29  1  0
 31 30  2  0
 32 31  1  0
 32 27  2  0
 33 34  1  0
 34 35  1  0
 35 36  2  0
 37 36  1  0
 37 41  1  0
 38 37  2  0
 39 34  2  0
 39 38  1  0
 40 39  1  0
 42 43  1  0
 43 46  1  0
 43 45  1  0
 44 42  2  0
 47 22  1  0
 48 47  1  0
 49 47  1  0
 50 18  1  0
 51 50  1  0
 52 50  1  0
 53 57  1  0
 53 54  2  0
 54 55  1  0
 55 56  1  0
 58 69  2  0
 59 57  1  0
 59 64  1  0
 60 68  1  0
 60 70  1  0
 61 67  1  0
 61 63  1  0
 62 68  1  0
 63 64  2  0
 63 62  1  0
 65 59  2  0
 66 65  1  0
 66 61  2  0
 67 60  1  0
 68 58  1  0
 70 72  2  0
 71 70  1  0
 73 71  1  0
 74 83  2  0
 74 79  1  0
 75 71  1  0
 75 79  1  0
 76 75  1  0
 77 78  1  0
 77 76  1  0
 78 74  1  0
 79 80  2  0
 80 81  1  0
 82 81  2  0
 83 82  1  0
 84 58  1  0
 84 89  1  0
 84 85  1  0
 85 88  1  1
 85 86  1  0
 87 85  1  0
 89 92  1  0
 90 94  1  0
 90 89  1  0
 91 90  2  0
 94 93  1  0
 94 96  1  0
 96 97  1  0
 96 95  1  0
M  ISO  4   5 100  21 100  53 101  57 101
M  END
>  <TORSDO>  (7) 
F 19

>  <SCORE>  (7) 
-12.726

>  <name>  (7) 
6

>  <ligand_id>  (7) 
6

>  <original_smiles>  (7) 
[H]OC(C(=O)N([H])c1c([H])c(N([H])[H])c2c(c1[H])N(C(=O)N1C([H])([H])C([H])([H])C([H])([H])C([H])(n3nc(-c4c([H])c([H])c(Oc5c([H])c([H])c(F)c([H])c5F)c([H])c4[H])c(C(=O)N([H])[H])c3N([H])[H])C1([H])[H])C2([H])C([H])([H])[H])=C([H])Oc1c([H])c([H])c2c(c1[H])C([H])([H])N(C(=O)C([H])(N([H])C(=O)C([H])(N([H])C([H])([H])[H])C([H])([H])[H])C(C([H])([H])[H])(C([H])([H])[H])C([H])([H])[H])C([H])(C(=O)N([H])C1([H])c3c([H])c([H])c([H])c([H])c3C([H])([H])C([H])([H])C1([H])[H])C2([H])[H]

>  <smiles>  (7) 
[H]OC(C(=O)N([H])c1c([H])c(N([H])[H])c2c(c1[H])N(C(=O)N1C([H])([H])C([H])([H])C([H])([H])C([H])(n3nc(-c4c([H])c([H])c(Oc5c([H])c([H])c(F)c([H])c5F)c([H])c4[H])c(C(=O)N([H])[H])c3N([H])[H])C1([H])[H])C2([H])C([H])([H])[H])=C([H])Oc1c([H])c([H])c2c(c1[H])C([H])([H])N(C(=O)C([H])(N([H])C(=O)C([H])(N([H])C([H])([H])[H])C([H])([H])[H])C(C([H])([H])[H])(C([H])([H])[H])C([H])([H])[H])C([H])(C(=O)N([H])C1([H])c3c([H])c([H])c([H])c([H])c3C([H])([H])C([H])([H])C1([H])[H])C2([H])[H]

$$$$
7:0:0
     RDKit          3D

 90 99  0  0  1  0  0  0  0  0999 V2000
  -27.7320  -21.3800   19.0180 C   0  0  0  0  0  2  0  0  0  0  0  0
  -27.5020  -22.9330   19.0120 C   0  0  0  0  0  2  0  0  0  0  0  0
  -29.1160  -22.3310   20.6910 C   0  0  0  0  0  2  0  0  0  0  0  0
  -29.1050  -21.1160   19.6610 C   0  0  0  0  0  3  0  0  0  0  0  0
  -28.5450  -23.6220   19.9330 C   0  0  0  0  0  3  0  0  0  0  0  0
  -30.5470  -14.7780   20.3330 C   0  0  0  0  0  0  0  0  0  0  0  0
  -30.3770  -12.4800   19.3640 C   0  0  0  0  0  2  0  0  0  0  0  0
  -29.4430  -12.5610   18.1350 C   0  0  0  0  0  2  0  0  0  0  0  0
  -27.9690  -12.3910   18.5570 C   0  0  0  0  0  2  0  0  0  0  0  0
  -27.5930  -13.2680   19.7810 C   0  0  0  0  0  3  0  0  0  0  0  0
  -28.6540  -13.1700   20.9020 C   0  0  0  0  0  2  0  0  0  0  0  0
  -29.9460  -13.5350   20.3080 N   0  0  0  0  0  0  0  0  0  0  0  0
  -31.7440  -14.8700   20.0400 O   0  0  0  0  0  0  0  0  0  0  0  0
  -28.8950  -18.3770   20.2350 C   0  0  0  0  0  3  0  0  0  0  0  0
  -29.5100  -19.6100   19.9890 C   0  0  0  0  0  0  0  0  0  0  0  0
  -29.9280  -17.3450   20.2690 C   0  0  0  0  0  0  0  0  0  0  0  0
  -31.1000  -17.9380   20.0800 N   0  0  0  0  0  0  0  0  0  0  0  0
  -29.7200  -15.8880   20.4720 N   0  0  0  0  0  0  0  0  0  0  0  0
  -30.8530  -19.3240   19.9300 O   0  0  0  0  0  0  0  0  0  0  0  0
  -28.7710  -15.6430   20.6970 H   0  0  0  0  0  0  0  0  0  0  0  0
  -25.2000  -13.8600   20.4940 C   0  0  0  0  0  0  0  0  0  0  0  0
  -24.1360  -13.0870   20.8610 C   0  0  0  0  0  0  0  0  0  0  0  0
  -24.5980  -11.7360   20.8370 C   0  0  0  0  0  0  0  0  0  0  0  0
  -26.2470  -12.9800   20.2670 N   0  0  0  0  0  0  0  0  0  0  0  0
  -25.8910  -11.6980   20.5370 N   0  0  0  0  0  0  0  0  0  0  0  0
  -23.8720  -10.4730   21.0220 C   0  0  0  0  0  0  0  0  0  0  0  0
  -24.2940   -9.5110   21.9650 C   0  0  0  0  0  3  0  0  0  0  0  0
  -23.5670   -8.3160   22.1420 C   0  0  0  0  0  3  0  0  0  0  0  0
  -22.4020   -8.0710   21.3760 C   0  0  0  0  0  0  0  0  0  0  0  0
  -22.0000   -9.0220   20.4220 C   0  0  0  0  0  3  0  0  0  0  0  0
  -22.7280  -10.2100   20.2440 C   0  0  0  0  0  3  0  0  0  0  0  0
  -21.6480   -6.9260   21.4600 O   0  0  0  0  0  0  0  0  0  0  0  0
  -21.5790   -6.1940   22.6180 C   0  0  0  0  0  0  0  0  0  0  0  0
  -21.1240   -6.7560   23.8310 C   0  0  0  0  0  3  0  0  0  0  0  0
  -21.0040   -5.9500   24.9800 C   0  0  0  0  0  3  0  0  0  0  0  0
  -21.3290   -4.5810   24.9170 C   0  0  0  0  0  0  0  0  0  0  0  0
  -21.7770   -4.0190   23.7100 C   0  0  0  0  0  3  0  0  0  0  0  0
  -21.9000   -4.8230   22.5630 C   0  0  0  0  0  0  0  0  0  0  0  0
  -22.3110   -4.2710   21.3970 F   0  0  0  0  0  0  0  0  0  0  0  0
  -21.2070   -3.8040   26.0190 F   0  0  0  0  0  0  0  0  0  0  0  0
  -22.7350  -13.5630   21.1190 C   0  0  0  0  0  0  0  0  0  0  0  0
  -21.9980  -12.8720   21.9800 N   0  0  0  0  0  0  0  0  0  0  0  0
  -22.3030  -14.5880   20.5920 O   0  0  0  0  0  0  0  0  0  0  0  0
  -22.3560  -12.0440   22.4330 H   0  0  0  0  0  0  0  0  0  0  0  0
  -21.0590  -13.1770   22.1950 H   0  0  0  0  0  0  0  0  0  0  0  0
  -25.3590  -15.2310   20.3100 N   0  0  0  0  0  0  0  0  0  0  0  0
  -24.5760  -15.8680   20.4060 H   0  0  0  0  0  0  0  0  0  0  0  0
  -26.1850  -15.6750   19.9290 H   0  0  0  0  0  0  0  0  0  0  0  0
  -28.0160  -24.9480   20.7200 C   0  0  0  0  0  2  0  0  0  0  0  0
  -28.2760  -26.3610   20.2520 O   0  0  0  0  0  0  0  0  0  0  0  0
  -24.6000  -31.8790   23.2330 C   0  0  0  0  0  0  0  0  0  0  0  0
  -27.1980  -27.2690   20.2140 C   0  0  0  0  0  0  0  0  0  0  0  0
  -23.4040  -30.4790   21.5880 C   0  0  0  0  0  3  0  0  0  0  0  0
  -24.8590  -28.9230   20.1700 C   0  0  0  0  0  0  0  0  0  0  0  0
  -25.9480  -30.7850   21.4180 C   0  0  0  0  0  2  0  0  0  0  0  0
  -26.0260  -29.3990   20.7790 C   0  0  0  0  0  0  0  0  0  0  0  0
  -27.2020  -28.5850   20.7910 C   0  0  0  0  0  3  0  0  0  0  0  0
  -26.0140  -26.8630   19.5670 C   0  0  0  0  0  3  0  0  0  0  0  0
  -24.8580  -27.6650   19.5470 C   0  0  0  0  0  3  0  0  0  0  0  0
  -23.6260  -29.8030   20.2090 C   0  0  0  0  0  2  0  0  0  0  0  0
  -24.6700  -31.0660   22.1370 N   0  0  0  0  0  0  0  0  0  0  0  0
  -23.5160  -32.1580   23.7620 O   0  0  0  0  0  0  0  0  0  0  0  0
  -22.7370  -29.4620   22.5450 C   0  0  0  0  0  0  0  0  0  0  0  0
  -21.4100  -29.2920   22.4200 N   0  0  0  0  0  0  0  0  0  0  0  0
  -23.4130  -28.8370   23.3670 O   0  0  0  0  0  0  0  0  0  0  0  0
  -20.9210  -29.8510   21.7360 H   0  0  0  0  0  0  0  0  0  0  0  0
  -18.0290  -28.1010   22.9180 C   0  0  0  0  0  0  0  0  0  0  0  0
  -20.5880  -28.3540   23.1900 C   0  0  0  0  0  3  0  0  0  0  0  0
  -20.6860  -26.9220   22.6140 C   0  0  0  0  0  2  0  0  0  0  0  0
  -19.5840  -26.6040   21.5980 C   0  0  0  0  0  2  0  0  0  0  0  0
  -18.2020  -26.7520   22.2410 C   0  0  0  0  0  2  0  0  0  0  0  0
  -19.1500  -28.8610   23.3510 C   0  0  0  0  0  0  0  0  0  0  0  0
  -18.9320  -30.1220   23.9430 C   0  0  0  0  0  3  0  0  0  0  0  0
  -17.6280  -30.6250   24.1100 C   0  0  0  0  0  3  0  0  0  0  0  0
  -16.5220  -29.8620   23.6950 C   0  0  0  0  0  3  0  0  0  0  0  0
  -16.7250  -28.6030   23.1040 C   0  0  0  0  0  3  0  0  0  0  0  0
  -25.8770  -32.5150   23.8590 C   0  0  0  0  0  3  0  0  0  0  0  0
  -25.5680  -33.9160   24.1810 N   0  0  0  0  0  0  0  0  0  0  0  0
  -25.9030  -34.9660   23.4190 C   0  0  0  0  0  0  0  0  0  0  0  0
  -26.5760  -34.8570   22.3900 O   0  0  0  0  0  0  0  0  0  0  0  0
  -24.9750  -34.0780   24.9820 H   0  0  0  0  0  0  0  0  0  0  0  0
  -24.1800  -36.7620   23.0510 C   0  0  0  0  0  1  0  0  0  0  0  0
  -25.4170  -36.3570   23.8690 C   0  0  0  0  0  3  0  0  0  0  0  0
  -27.5480  -37.2430   24.7080 C   0  0  0  0  0  1  0  0  0  0  0  0
  -26.4520  -37.4090   23.7580 N   0  0  0  0  0  0  0  0  0  0  0  0
  -26.0460  -38.3300   23.8990 H   0  0  0  0  0  0  0  0  0  0  0  0
  -26.3840  -31.7520   25.1450 C   0  0  1  0  0  0  0  0  0  0  0  0
  -25.2850  -31.5260   26.2090 C   0  0  0  0  0  1  0  0  0  0  0  0
  -26.9650  -30.3700   24.7690 C   0  0  0  0  0  1  0  0  0  0  0  0
  -27.5320  -32.5480   25.8090 C   0  0  0  0  0  1  0  0  0  0  0  0
  1  4  1  0
  2  1  1  0
  2  5  1  0
  4 15  1  0
  4  3  1  0
  5  3  1  0
  5 49  1  0
  6 18  1  0
  7 12  1  0
  8  9  1  0
  8  7  1  0
 10  9  1  0
 10 24  1  0
 10 11  1  0
 12  6  1  0
 12 11  1  0
 13  6  2  0
 14 16  1  0
 15 14  2  0
 16 18  1  0
 17 16  2  0
 18 20  1  0
 19 15  1  0
 19 17  1  0
 21 22  2  0
 22 41  1  0
 23 22  1  0
 23 26  1  0
 24 21  1  0
 24 25  1  0
 25 23  2  0
 26 27  1  0
 27 28  2  0
 29 32  1  0
 29 28  1  0
 30 29  2  0
 31 30  1  0
 31 26  2  0
 32 33  1  0
 33 34  1  0
 34 35  2  0
 36 35  1  0
 36 40  1  0
 37 36  2  0
 38 33  2  0
 38 37  1  0
 39 38  1  0
 41 42  1  0
 42 45  1  0
 42 44  1  0
 43 41  2  0
 46 47  1  0
 46 21  1  0
 48 46  1  0
 50 49  1  0
 51 62  2  0
 52 50  1  0
 52 57  1  0
 53 61  1  0
 53 63  1  0
 54 60  1  0
 54 56  1  0
 55 61  1  0
 56 57  2  0
 56 55  1  0
 58 52  2  0
 59 58  1  0
 59 54  2  0
 60 53  1  0
 61 51  1  0
 63 65  2  0
 64 63  1  0
 66 64  1  0
 67 76  2  0
 67 72  1  0
 68 64  1  0
 68 72  1  0
 69 68  1  0
 70 71  1  0
 70 69  1  0
 71 67  1  0
 72 73  2  0
 73 74  1  0
 75 74  2  0
 76 75  1  0
 77 51  1  0
 77 78  1  0
 77 87  1  0
 78 81  1  0
 79 83  1  0
 79 78  1  0
 80 79  2  0
 83 82  1  0
 85 83  1  0
 85 86  1  0
 85 84  1  0
 87 90  1  1
 87 88  1  0
 89 87  1  0
M  ISO  4   6 100  18 100  49 101  50 101
M  END
>  <TORSDO>  (8) 
F 17

>  <SCORE>  (8) 
-15.125

>  <name>  (8) 
7

>  <ligand_id>  (8) 
7

>  <original_smiles>  (8) 
[H]c1c(N([H])C(=O)N2C([H])([H])C([H])([H])C([H])([H])C([H])(n3nc(-c4c([H])c([H])c(Oc5c([H])c([H])c(F)c([H])c5F)c([H])c4[H])c(C(=O)N([H])[H])c3N([H])[H])C2([H])[H])noc1C1([H])C([H])([H])C([H])([H])C([H])(C([H])([H])Oc2c([H])c([H])c3c(c2[H])C([H])([H])N(C(=O)C([H])(N([H])C(=O)C([H])(N([H])C([H])([H])[H])C([H])([H])[H])C(C([H])([H])[H])(C([H])([H])[H])C([H])([H])[H])C([H])(C(=O)N([H])C2([H])c4c([H])c([H])c([H])c([H])c4C([H])([H])C([H])([H])C2([H])[H])C3([H])[H])C1([H])[H]

>  <smiles>  (8) 
[H]c1c(N([H])C(=O)N2C([H])([H])C([H])([H])C([H])([H])C([H])(n3nc(-c4c([H])c([H])c(Oc5c([H])c([H])c(F)c([H])c5F)c([H])c4[H])c(C(=O)N([H])[H])c3N([H])[H])C2([H])[H])noc1C1([H])C([H])([H])C([H])([H])C([H])(C([H])([H])Oc2c([H])c([H])c3c(c2[H])C([H])([H])N(C(=O)C([H])(N([H])C(=O)C([H])(N([H])C([H])([H])[H])C([H])([H])[H])C(C([H])([H])[H])(C([H])([H])[H])C([H])([H])[H])C([H])(C(=O)N([H])C2([H])c4c([H])c([H])c([H])c([H])c4C([H])([H])C([H])([H])C2([H])[H])C3([H])[H])C1([H])[H]

$$$$
8:0:0
     RDKit          3D

 92100  0  0  1  0  0  0  0  0999 V2000
  -28.9010  -22.5470   20.2750 C   0  0  0  0  0  0  0  0  0  0  0  0
  -28.7020  -21.1900   20.6120 N   0  0  0  0  0  0  0  0  0  0  0  0
  -29.7920  -22.8910   19.4980 O   0  0  0  0  0  0  0  0  0  0  0  0
  -27.9000  -21.1180   21.2280 H   0  0  0  0  0  0  0  0  0  0  0  0
  -28.9700  -18.6130   20.6830 C   0  0  0  0  0  3  0  0  0  0  0  0
  -30.9290  -18.0200   19.5830 C   0  0  0  0  0  3  0  0  0  0  0  0
  -29.8730  -17.4950   20.2830 C   0  0  0  0  0  0  0  0  0  0  0  0
  -29.3400  -19.9430   20.3320 C   0  0  0  0  0  0  0  0  0  0  0  0
  -30.8550  -19.7850   19.4460 S   0  0  0  0  0  0  0  0  0  0  0  0
  -30.5000  -14.8810   20.2880 C   0  0  0  0  0  0  0  0  0  0  0  0
  -30.3710  -12.5680   19.3110 C   0  0  0  0  0  2  0  0  0  0  0  0
  -29.4290  -12.5870   18.0850 C   0  0  0  0  0  2  0  0  0  0  0  0
  -27.9650  -12.3930   18.5180 C   0  0  0  0  0  2  0  0  0  0  0  0
  -27.5790  -13.2810   19.7330 C   0  0  0  0  0  3  0  0  0  0  0  0
  -28.6390  -13.2280   20.8510 C   0  0  0  0  0  2  0  0  0  0  0  0
  -29.9170  -13.6260   20.2500 N   0  0  0  0  0  0  0  0  0  0  0  0
  -31.6860  -14.9800   19.9480 O   0  0  0  0  0  0  0  0  0  0  0  0
  -29.6950  -16.0120   20.5310 N   0  0  0  0  0  0  0  0  0  0  0  0
  -28.7790  -15.7670   20.8780 H   0  0  0  0  0  0  0  0  0  0  0  0
  -25.2020  -13.8570   20.4830 C   0  0  0  0  0  0  0  0  0  0  0  0
  -24.1400  -13.0800   20.8540 C   0  0  0  0  0  0  0  0  0  0  0  0
  -24.6090  -11.7290   20.8200 C   0  0  0  0  0  0  0  0  0  0  0  0
  -26.2440  -12.9820   20.2330 N   0  0  0  0  0  0  0  0  0  0  0  0
  -25.8980  -11.6960   20.5020 N   0  0  0  0  0  0  0  0  0  0  0  0
  -23.8890  -10.4650   21.0170 C   0  0  0  0  0  0  0  0  0  0  0  0
  -24.3330   -9.4970   21.9440 C   0  0  0  0  0  3  0  0  0  0  0  0
  -23.6120   -8.2960   22.1260 C   0  0  0  0  0  3  0  0  0  0  0  0
  -22.4320   -8.0580   21.3830 C   0  0  0  0  0  0  0  0  0  0  0  0
  -22.0080   -9.0150   20.4450 C   0  0  0  0  0  3  0  0  0  0  0  0
  -22.7280  -10.2060   20.2610 C   0  0  0  0  0  3  0  0  0  0  0  0
  -21.6820   -6.9110   21.4760 O   0  0  0  0  0  0  0  0  0  0  0  0
  -21.6530   -6.1610   22.6230 C   0  0  0  0  0  0  0  0  0  0  0  0
  -21.2480   -6.7070   23.8600 C   0  0  0  0  0  3  0  0  0  0  0  0
  -21.1700   -5.8840   25.0020 C   0  0  0  0  0  3  0  0  0  0  0  0
  -21.4810   -4.5140   24.9050 C   0  0  0  0  0  0  0  0  0  0  0  0
  -21.8770   -3.9680   23.6700 C   0  0  0  0  0  3  0  0  0  0  0  0
  -21.9600   -4.7890   22.5340 C   0  0  0  0  0  0  0  0  0  0  0  0
  -22.3240   -4.2530   21.3430 F   0  0  0  0  0  0  0  0  0  0  0  0
  -21.3980   -3.7210   25.9980 F   0  0  0  0  0  0  0  0  0  0  0  0
  -22.7420  -13.5530   21.1260 C   0  0  0  0  0  0  0  0  0  0  0  0
  -22.0170  -12.8580   21.9950 N   0  0  0  0  0  0  0  0  0  0  0  0
  -22.3010  -14.5770   20.6030 O   0  0  0  0  0  0  0  0  0  0  0  0
  -22.3900  -12.0330   22.4420 H   0  0  0  0  0  0  0  0  0  0  0  0
  -21.0790  -13.1580   22.2180 H   0  0  0  0  0  0  0  0  0  0  0  0
  -25.3600  -15.2300   20.3130 N   0  0  0  0  0  0  0  0  0  0  0  0
  -24.5820  -15.8730   20.4250 H   0  0  0  0  0  0  0  0  0  0  0  0
  -26.1980  -15.6790   19.9710 H   0  0  0  0  0  0  0  0  0  0  0  0
  -27.7090  -24.9320   20.9130 C   0  0  0  0  0  3  0  0  0  0  0  0
  -27.9380  -23.5310   20.9360 C   0  0  0  0  0  0  0  0  0  0  0  0
  -27.0820  -22.8930   21.7600 O   0  0  0  0  0  0  0  0  0  0  0  0
  -26.4930  -23.5370   22.1270 H   0  0  0  0  0  0  0  0  0  0  0  0
  -28.1720  -26.1610   20.3070 O   0  0  0  0  0  0  0  0  0  0  0  0
  -24.6170  -31.8690   23.2320 C   0  0  0  0  0  0  0  0  0  0  0  0
  -27.1880  -27.1960   20.2130 C   0  0  0  0  0  0  0  0  0  0  0  0
  -23.4150  -30.4710   21.5940 C   0  0  0  0  0  3  0  0  0  0  0  0
  -24.8660  -28.9140   20.1610 C   0  0  0  0  0  0  0  0  0  0  0  0
  -25.9660  -30.7490   21.4290 C   0  0  0  0  0  2  0  0  0  0  0  0
  -26.0400  -29.3610   20.7840 C   0  0  0  0  0  0  0  0  0  0  0  0
  -27.2050  -28.5120   20.8100 C   0  0  0  0  0  3  0  0  0  0  0  0
  -26.0000  -26.8480   19.5350 C   0  0  0  0  0  3  0  0  0  0  0  0
  -24.8560  -27.6660   19.5200 C   0  0  0  0  0  3  0  0  0  0  0  0
  -23.6360  -29.8040   20.2100 C   0  0  0  0  0  2  0  0  0  0  0  0
  -24.6850  -31.0500   22.1400 N   0  0  0  0  0  0  0  0  0  0  0  0
  -23.5330  -32.1510   23.7640 O   0  0  0  0  0  0  0  0  0  0  0  0
  -22.7460  -29.4560   22.5540 C   0  0  0  0  0  0  0  0  0  0  0  0
  -21.4190  -29.2830   22.4320 N   0  0  0  0  0  0  0  0  0  0  0  0
  -23.4220  -28.8310   23.3750 O   0  0  0  0  0  0  0  0  0  0  0  0
  -20.9290  -29.8420   21.7490 H   0  0  0  0  0  0  0  0  0  0  0  0
  -18.0430  -28.0790   22.9420 C   0  0  0  0  0  0  0  0  0  0  0  0
  -20.6020  -28.3470   23.2070 C   0  0  0  0  0  3  0  0  0  0  0  0
  -20.7060  -26.9120   22.6370 C   0  0  0  0  0  2  0  0  0  0  0  0
  -19.6050  -26.5840   21.6250 C   0  0  0  0  0  2  0  0  0  0  0  0
  -18.2230  -26.7280   22.2690 C   0  0  0  0  0  2  0  0  0  0  0  0
  -19.1600  -28.8450   23.3690 C   0  0  0  0  0  0  0  0  0  0  0  0
  -18.9380  -30.1080   23.9590 C   0  0  0  0  0  3  0  0  0  0  0  0
  -17.6320  -30.6060   24.1260 C   0  0  0  0  0  3  0  0  0  0  0  0
  -16.5300  -29.8370   23.7140 C   0  0  0  0  0  3  0  0  0  0  0  0
  -16.7360  -28.5750   23.1280 C   0  0  0  0  0  3  0  0  0  0  0  0
  -25.8990  -32.5060   23.8520 C   0  0  0  0  0  3  0  0  0  0  0  0
  -26.4130  -31.7390   25.1320 C   0  0  1  0  0  0  0  0  0  0  0  0
  -25.3200  -31.5070   26.2000 C   0  0  0  0  0  1  0  0  0  0  0  0
  -26.9970  -30.3600   24.7500 C   0  0  0  0  0  1  0  0  0  0  0  0
  -27.5640  -32.5350   25.7920 C   0  0  0  0  0  1  0  0  0  0  0  0
  -25.5840  -33.9040   24.1840 N   0  0  0  0  0  0  0  0  0  0  0  0
  -25.9100  -34.9600   23.4250 C   0  0  0  0  0  0  0  0  0  0  0  0
  -26.5750  -34.8600   22.3910 O   0  0  0  0  0  0  0  0  0  0  0  0
  -24.9940  -34.0550   24.9880 H   0  0  0  0  0  0  0  0  0  0  0  0
  -24.1780  -36.7560   23.0840 C   0  0  0  0  0  1  0  0  0  0  0  0
  -25.4230  -36.3480   23.8890 C   0  0  0  0  0  3  0  0  0  0  0  0
  -27.5570  -37.2380   24.7160 C   0  0  0  0  0  1  0  0  0  0  0  0
  -26.4540  -37.4020   23.7720 N   0  0  0  0  0  0  0  0  0  0  0  0
  -26.0470  -38.3220   23.9170 H   0  0  0  0  0  0  0  0  0  0  0  0
  1  2  1  0
  1 49  1  0
  2  4  1  0
  3  1  2  0
  6  7  2  0
  7 18  1  0
  7  5  1  0
  8  2  1  0
  8  5  2  0
  9  6  1  0
  9  8  1  0
 10 18  1  0
 11 16  1  0
 12 13  1  0
 12 11  1  0
 14 13  1  0
 14 23  1  0
 14 15  1  0
 16 10  1  0
 16 15  1  0
 17 10  2  0
 18 19  1  0
 20 21  2  0
 21 40  1  0
 22 21  1  0
 22 25  1  0
 23 20  1  0
 23 24  1  0
 24 22  2  0
 25 26  1  0
 26 27  2  0
 28 31  1  0
 28 27  1  0
 29 28  2  0
 30 29  1  0
 30 25  2  0
 31 32  1  0
 32 33  1  0
 33 34  2  0
 35 34  1  0
 35 39  1  0
 36 35  2  0
 37 32  2  0
 37 36  1  0
 38 37  1  0
 40 41  1  0
 41 44  1  0
 41 43  1  0
 42 40  2  0
 45 46  1  0
 45 20  1  0
 47 45  1  0
 48 49  2  0
 49 50  1  0
 50 51  1  0
 52 48  1  0
 53 64  2  0
 54 52  1  0
 54 59  1  0
 55 63  1  0
 55 65  1  0
 56 62  1  0
 56 58  1  0
 57 63  1  0
 58 59  2  0
 58 57  1  0
 60 54  2  0
 61 60  1  0
 61 56  2  0
 62 55  1  0
 63 53  1  0
 65 67  2  0
 66 65  1  0
 68 66  1  0
 69 78  2  0
 69 74  1  0
 70 66  1  0
 70 74  1  0
 71 70  1  0
 72 73  1  0
 72 71  1  0
 73 69  1  0
 74 75  2  0
 75 76  1  0
 77 76  2  0
 78 77  1  0
 79 53  1  0
 79 84  1  0
 79 80  1  0
 80 83  1  1
 80 81  1  0
 82 80  1  0
 84 87  1  0
 85 89  1  0
 85 84  1  0
 86 85  2  0
 89 88  1  0
 91 89  1  0
 91 92  1  0
 91 90  1  0
M  ISO  4  10 100  18 100  48 101  52 101
M  END
>  <TORSDO>  (9) 
F 19

>  <SCORE>  (9) 
-14.652

>  <name>  (9) 
8

>  <ligand_id>  (9) 
8

>  <original_smiles>  (9) 
[H]OC(C(=O)N([H])c1sc([H])c(N([H])C(=O)N2C([H])([H])C([H])([H])C([H])([H])C([H])(n3nc(-c4c([H])c([H])c(Oc5c([H])c([H])c(F)c([H])c5F)c([H])c4[H])c(C(=O)N([H])[H])c3N([H])[H])C2([H])[H])c1[H])=C([H])Oc1c([H])c([H])c2c(c1[H])C([H])([H])N(C(=O)C([H])(N([H])C(=O)C([H])(N([H])C([H])([H])[H])C([H])([H])[H])C(C([H])([H])[H])(C([H])([H])[H])C([H])([H])[H])C([H])(C(=O)N([H])C1([H])c3c([H])c([H])c([H])c([H])c3C([H])([H])C([H])([H])C1([H])[H])C2([H])[H]

>  <smiles>  (9) 
[H]OC(C(=O)N([H])c1sc([H])c(N([H])C(=O)N2C([H])([H])C([H])([H])C([H])([H])C([H])(n3nc(-c4c([H])c([H])c(Oc5c([H])c([H])c(F)c([H])c5F)c([H])c4[H])c(C(=O)N([H])[H])c3N([H])[H])C2([H])[H])c1[H])=C([H])Oc1c([H])c([H])c2c(c1[H])C([H])([H])N(C(=O)C([H])(N([H])C(=O)C([H])(N([H])C([H])([H])[H])C([H])([H])[H])C(C([H])([H])[H])(C([H])([H])[H])C([H])([H])[H])C([H])(C(=O)N([H])C1([H])c3c([H])c([H])c([H])c([H])c3C([H])([H])C([H])([H])C1([H])[H])C2([H])[H]

$$$$
9:0:0
     RDKit          3D

 95104  0  0  1  0  0  0  0  0999 V2000
  -28.7800  -23.8820   21.0380 C   0  0  0  0  0  0  0  0  0  0  0  0
  -29.3660  -21.3370   21.0600 C   0  0  0  0  0  3  0  0  0  0  0  0
  -28.4060  -24.2490   18.7340 C   0  0  0  0  0  2  0  0  0  0  0  0
  -28.6500  -22.7230   18.9930 C   0  0  0  0  0  2  0  0  0  0  0  0
  -28.0400  -24.8890   20.0840 C   0  0  0  0  0  3  0  0  0  0  0  0
  -28.9910  -22.5400   20.4160 N   0  0  0  0  0  0  0  0  0  0  0  0
  -29.5310  -21.3870   22.3980 N   0  0  0  0  0  0  0  0  0  0  0  0
  -29.0740  -24.1380   22.2160 O   0  0  0  0  0  0  0  0  0  0  0  0
  -29.8070  -20.5710   22.9250 H   0  0  0  0  0  0  0  0  0  0  0  0
  -29.4320  -22.2660   22.8950 H   0  0  0  0  0  0  0  0  0  0  0  0
  -30.6360  -18.0510   19.3780 C   0  0  0  0  0  3  0  0  0  0  0  0
  -30.4380  -19.4930   19.4770 C   0  0  0  0  0  0  0  0  0  0  0  0
  -29.6310  -19.9480   20.5000 C   0  0  0  0  0  0  0  0  0  0  0  0
  -29.9640  -17.2800   20.3130 C   0  0  0  0  0  0  0  0  0  0  0  0
  -31.0610  -20.3120   18.6610 F   0  0  0  0  0  0  0  0  0  0  0  0
  -29.0550  -18.4580   21.3200 S   0  0  0  0  0  0  0  0  0  0  0  0
  -30.6210  -14.8080   20.0160 C   0  0  0  0  0  0  0  0  0  0  0  0
  -30.3740  -12.5620   18.9410 C   0  0  0  0  0  2  0  0  0  0  0  0
  -29.3610  -12.6820   17.7780 C   0  0  0  0  0  2  0  0  0  0  0  0
  -27.9180  -12.4970   18.2880 C   0  0  0  0  0  2  0  0  0  0  0  0
  -27.6250  -13.3430   19.5550 C   0  0  0  0  0  3  0  0  0  0  0  0
  -28.7460  -13.1950   20.6090 C   0  0  0  0  0  2  0  0  0  0  0  0
  -30.0130  -13.5730   19.9640 N   0  0  0  0  0  0  0  0  0  0  0  0
  -31.7530  -14.9570   19.5450 O   0  0  0  0  0  0  0  0  0  0  0  0
  -29.8760  -15.8810   20.4890 N   0  0  0  0  0  0  0  0  0  0  0  0
  -29.0570  -15.5810   20.9960 H   0  0  0  0  0  0  0  0  0  0  0  0
  -25.2800  -13.9250   20.4200 C   0  0  0  0  0  0  0  0  0  0  0  0
  -24.2330  -13.1460   20.8330 C   0  0  0  0  0  0  0  0  0  0  0  0
  -24.6900  -11.7940   20.7510 C   0  0  0  0  0  0  0  0  0  0  0  0
  -26.3070  -13.0480   20.1100 N   0  0  0  0  0  0  0  0  0  0  0  0
  -25.9620  -11.7610   20.3710 N   0  0  0  0  0  0  0  0  0  0  0  0
  -23.9720  -10.5300   20.9570 C   0  0  0  0  0  0  0  0  0  0  0  0
  -24.4380   -9.5560   21.8680 C   0  0  0  0  0  3  0  0  0  0  0  0
  -23.7200   -8.3570   22.0640 C   0  0  0  0  0  3  0  0  0  0  0  0
  -22.5210   -8.1230   21.3490 C   0  0  0  0  0  0  0  0  0  0  0  0
  -22.0730   -9.0850   20.4270 C   0  0  0  0  0  3  0  0  0  0  0  0
  -22.7920  -10.2760   20.2300 C   0  0  0  0  0  3  0  0  0  0  0  0
  -21.7710   -6.9760   21.4550 O   0  0  0  0  0  0  0  0  0  0  0  0
  -21.7370   -6.2420   22.6130 C   0  0  0  0  0  0  0  0  0  0  0  0
  -21.3330   -6.8090   23.8410 C   0  0  0  0  0  3  0  0  0  0  0  0
  -21.2470   -6.0020   24.9940 C   0  0  0  0  0  3  0  0  0  0  0  0
  -21.5540   -4.6290   24.9180 C   0  0  0  0  0  0  0  0  0  0  0  0
  -21.9500   -4.0630   23.6940 C   0  0  0  0  0  3  0  0  0  0  0  0
  -22.0390   -4.8670   22.5450 C   0  0  0  0  0  0  0  0  0  0  0  0
  -22.4010   -4.3130   21.3630 F   0  0  0  0  0  0  0  0  0  0  0  0
  -21.4630   -3.8530   26.0220 F   0  0  0  0  0  0  0  0  0  0  0  0
  -22.8550  -13.6200   21.1910 C   0  0  0  0  0  0  0  0  0  0  0  0
  -22.1750  -12.9110   22.0850 N   0  0  0  0  0  0  0  0  0  0  0  0
  -22.3900  -14.6540   20.7130 O   0  0  0  0  0  0  0  0  0  0  0  0
  -22.5660  -12.0740   22.4940 H   0  0  0  0  0  0  0  0  0  0  0  0
  -21.2520  -13.2100   22.3680 H   0  0  0  0  0  0  0  0  0  0  0  0
  -25.4370  -15.2980   20.2600 N   0  0  0  0  0  0  0  0  0  0  0  0
  -24.6770  -15.9500   20.4180 H   0  0  0  0  0  0  0  0  0  0  0  0
  -26.2610  -15.7390   19.8690 H   0  0  0  0  0  0  0  0  0  0  0  0
  -28.2750  -26.3810   20.2440 O   0  0  0  0  0  0  0  0  0  0  0  0
  -24.5980  -31.8850   23.2350 C   0  0  0  0  0  0  0  0  0  0  0  0
  -27.1850  -27.2870   20.1600 C   0  0  0  0  0  0  0  0  0  0  0  0
  -23.3890  -30.4930   21.5950 C   0  0  0  0  0  3  0  0  0  0  0  0
  -24.8340  -28.9490   20.1510 C   0  0  0  0  0  0  0  0  0  0  0  0
  -25.9320  -30.7970   21.4100 C   0  0  0  0  0  2  0  0  0  0  0  0
  -26.0080  -29.4170   20.7550 C   0  0  0  0  0  0  0  0  0  0  0  0
  -27.1850  -28.5990   20.7500 C   0  0  0  0  0  3  0  0  0  0  0  0
  -25.9940  -26.9020   19.5030 C   0  0  0  0  0  3  0  0  0  0  0  0
  -24.8340  -27.7010   19.5110 C   0  0  0  0  0  3  0  0  0  0  0  0
  -23.6000  -29.8270   20.2100 C   0  0  0  0  0  2  0  0  0  0  0  0
  -24.6590  -31.0770   22.1360 N   0  0  0  0  0  0  0  0  0  0  0  0
  -23.5170  -32.1610   23.7740 O   0  0  0  0  0  0  0  0  0  0  0  0
  -22.7270  -29.4730   22.5540 C   0  0  0  0  0  0  0  0  0  0  0  0
  -21.4020  -29.2910   22.4270 N   0  0  0  0  0  0  0  0  0  0  0  0
  -23.4080  -28.8500   23.3740 O   0  0  0  0  0  0  0  0  0  0  0  0
  -20.9120  -29.8460   21.7390 H   0  0  0  0  0  0  0  0  0  0  0  0
  -18.0310  -28.0650   22.9140 C   0  0  0  0  0  0  0  0  0  0  0  0
  -20.5860  -28.3490   23.1980 C   0  0  0  0  0  3  0  0  0  0  0  0
  -20.7050  -26.9160   22.6300 C   0  0  0  0  0  2  0  0  0  0  0  0
  -19.6120  -26.5780   21.6110 C   0  0  0  0  0  2  0  0  0  0  0  0
  -18.2250  -26.7140   22.2460 C   0  0  0  0  0  2  0  0  0  0  0  0
  -19.1410  -28.8390   23.3470 C   0  0  0  0  0  0  0  0  0  0  0  0
  -18.9060  -30.1020   23.9330 C   0  0  0  0  0  3  0  0  0  0  0  0
  -17.5960  -30.5910   24.0890 C   0  0  0  0  0  3  0  0  0  0  0  0
  -16.5010  -29.8130   23.6730 C   0  0  0  0  0  3  0  0  0  0  0  0
  -16.7200  -28.5520   23.0910 C   0  0  0  0  0  3  0  0  0  0  0  0
  -25.8820  -32.5160   23.8550 C   0  0  0  0  0  3  0  0  0  0  0  0
  -25.5720  -33.9140   24.1940 N   0  0  0  0  0  0  0  0  0  0  0  0
  -25.8890  -34.9710   23.4360 C   0  0  0  0  0  0  0  0  0  0  0  0
  -26.5440  -34.8740   22.3940 O   0  0  0  0  0  0  0  0  0  0  0  0
  -24.9890  -34.0630   25.0050 H   0  0  0  0  0  0  0  0  0  0  0  0
  -24.1440  -36.7550   23.1260 C   0  0  0  0  0  1  0  0  0  0  0  0
  -25.4060  -36.3570   23.9070 C   0  0  0  0  0  3  0  0  0  0  0  0
  -27.5550  -37.2500   24.6890 C   0  0  0  0  0  1  0  0  0  0  0  0
  -26.4300  -37.4150   23.7720 N   0  0  0  0  0  0  0  0  0  0  0  0
  -26.0230  -38.3330   23.9310 H   0  0  0  0  0  0  0  0  0  0  0  0
  -26.4030  -31.7420   25.1280 C   0  0  1  0  0  0  0  0  0  0  0  0
  -25.3140  -31.5020   26.1990 C   0  0  0  0  0  1  0  0  0  0  0  0
  -26.9850  -30.3650   24.7320 C   0  0  0  0  0  1  0  0  0  0  0  0
  -27.5560  -32.5350   25.7870 C   0  0  0  0  0  1  0  0  0  0  0  0
  1  8  2  0
  2  7  1  0
  3  4  1  0
  3  5  1  0
  4  6  1  0
  5 55  1  0
  5  1  1  0
  6  1  1  0
  6  2  1  0
  7 10  1  0
  7  9  1  0
 11 12  1  0
 11 14  2  0
 12 13  2  0
 13  2  1  0
 13 16  1  0
 14 25  1  0
 14 16  1  0
 15 12  1  0
 17 25  1  0
 18 23  1  0
 19 20  1  0
 19 18  1  0
 21 20  1  0
 21 30  1  0
 21 22  1  0
 23 17  1  0
 23 22  1  0
 24 17  2  0
 25 26  1  0
 27 28  2  0
 28 47  1  0
 29 28  1  0
 29 32  1  0
 30 31  1  0
 30 27  1  0
 31 29  2  0
 32 33  1  0
 33 34  2  0
 35 38  1  0
 35 34  1  0
 36 35  2  0
 37 36  1  0
 37 32  2  0
 38 39  1  0
 39 40  1  0
 40 41  2  0
 42 41  1  0
 42 46  1  0
 43 42  2  0
 44 39  2  0
 44 43  1  0
 45 44  1  0
 47 48  1  0
 48 51  1  0
 48 50  1  0
 49 47  2  0
 52 53  1  0
 52 27  1  0
 54 52  1  0
 56 67  2  0
 57 55  1  0
 57 62  1  0
 58 66  1  0
 58 68  1  0
 59 65  1  0
 59 61  1  0
 60 66  1  0
 61 60  1  0
 62 61  2  0
 63 64  1  0
 63 57  2  0
 64 59  2  0
 65 58  1  0
 66 56  1  0
 68 70  2  0
 69 68  1  0
 71 69  1  0
 72 81  2  0
 72 77  1  0
 73 69  1  0
 73 77  1  0
 74 73  1  0
 75 76  1  0
 75 74  1  0
 76 72  1  0
 77 78  2  0
 78 79  1  0
 80 79  2  0
 81 80  1  0
 82 56  1  0
 82 83  1  0
 82 92  1  0
 83 86  1  0
 84 88  1  0
 84 83  1  0
 85 84  2  0
 88 87  1  0
 90 88  1  0
 90 91  1  0
 90 89  1  0
 92 95  1  1
 92 93  1  0
 94 92  1  0
M  ISO  4   5 101  17 100  25 100  55 101
M  END
>  <TORSDO>  (10) 
F 17

>  <SCORE>  (10) 
-14.686

>  <name>  (10) 
9

>  <ligand_id>  (10) 
9

>  <original_smiles>  (10) 
[H]c1c([H])c([H])c2c(c1[H])C([H])([H])C([H])([H])C([H])([H])C2([H])N([H])C(=O)C1([H])N(C(=O)C([H])(N([H])C(=O)C([H])(N([H])C([H])([H])[H])C([H])([H])[H])C(C([H])([H])[H])(C([H])([H])[H])C([H])([H])[H])C([H])([H])c2c([H])c(OC3([H])C(=O)N(C(c4sc(N([H])C(=O)N5C([H])([H])C([H])([H])C([H])([H])C([H])(n6nc(-c7c([H])c([H])c(Oc8c([H])c([H])c(F)c([H])c8F)c([H])c7[H])c(C(=O)N([H])[H])c6N([H])[H])C5([H])[H])c([H])c4F)=[N+]([H])[H])C([H])([H])C3([H])[H])c([H])c([H])c2C1([H])[H]

>  <smiles>  (10) 
[H]c1c([H])c([H])c2c(c1[H])C([H])([H])C([H])([H])C([H])([H])C2([H])N([H])C(=O)C1([H])N(C(=O)C([H])(N([H])C(=O)C([H])(N([H])C([H])([H])[H])C([H])([H])[H])C(C([H])([H])[H])(C([H])([H])[H])C([H])([H])[H])C([H])([H])c2c([H])c(OC3([H])C(=O)N(C(c4sc(N([H])C(=O)N5C([H])([H])C([H])([H])C([H])([H])C([H])(n6nc(-c7c([H])c([H])c(Oc8c([H])c([H])c(F)c([H])c8F)c([H])c7[H])c(C(=O)N([H])[H])c6N([H])[H])C5([H])[H])c([H])c4F)=[N+]([H])[H])C([H])([H])C3([H])[H])c([H])c([H])c2C1([H])[H]

$$$$
10:0:0
     RDKit          3D

 92100  0  0  1  0  0  0  0  0999 V2000
  -29.2300  -22.3370   20.7990 C   0  0  0  0  0  0  0  0  0  0  0  0
  -28.9610  -21.0620   20.2970 N   0  0  0  0  0  0  0  0  0  0  0  0
  -29.9240  -22.4390   21.8100 O   0  0  0  0  0  0  0  0  0  0  0  0
  -28.2460  -21.0430   19.5820 H   0  0  0  0  0  0  0  0  0  0  0  0
  -29.0850  -18.4870   20.3690 C   0  0  0  0  0  3  0  0  0  0  0  0
  -31.2380  -17.8900   21.0380 C   0  0  0  0  0  3  0  0  0  0  0  0
  -30.0310  -17.3800   20.6350 C   0  0  0  0  0  0  0  0  0  0  0  0
  -29.5630  -19.8080   20.5560 C   0  0  0  0  0  0  0  0  0  0  0  0
  -31.2290  -19.6500   21.1100 S   0  0  0  0  0  0  0  0  0  0  0  0
  -30.5550  -14.7980   20.3550 C   0  0  0  0  0  0  0  0  0  0  0  0
  -30.3750  -12.5240   19.3150 C   0  0  0  0  0  2  0  0  0  0  0  0
  -29.4270  -12.5910   18.0960 C   0  0  0  0  0  2  0  0  0  0  0  0
  -27.9580  -12.4170   18.5320 C   0  0  0  0  0  2  0  0  0  0  0  0
  -27.5900  -13.2900   19.7620 C   0  0  0  0  0  3  0  0  0  0  0  0
  -28.6560  -13.1910   20.8730 C   0  0  0  0  0  2  0  0  0  0  0  0
  -29.9420  -13.5660   20.2730 N   0  0  0  0  0  0  0  0  0  0  0  0
  -31.7470  -14.9030   20.0440 O   0  0  0  0  0  0  0  0  0  0  0  0
  -29.7450  -15.9160   20.5520 N   0  0  0  0  0  0  0  0  0  0  0  0
  -28.7690  -15.6750   20.6240 H   0  0  0  0  0  0  0  0  0  0  0  0
  -25.2040  -13.8710   20.5040 C   0  0  0  0  0  0  0  0  0  0  0  0
  -24.1430  -13.0930   20.8820 C   0  0  0  0  0  0  0  0  0  0  0  0
  -24.6100  -11.7440   20.8450 C   0  0  0  0  0  0  0  0  0  0  0  0
  -26.2490  -12.9950   20.2600 N   0  0  0  0  0  0  0  0  0  0  0  0
  -25.9010  -11.7100   20.5290 N   0  0  0  0  0  0  0  0  0  0  0  0
  -23.8900  -10.4790   21.0350 C   0  0  0  0  0  0  0  0  0  0  0  0
  -24.3290   -9.5110   21.9670 C   0  0  0  0  0  3  0  0  0  0  0  0
  -23.6070   -8.3110   22.1460 C   0  0  0  0  0  3  0  0  0  0  0  0
  -22.4310   -8.0710   21.3960 C   0  0  0  0  0  0  0  0  0  0  0  0
  -22.0110   -9.0270   20.4550 C   0  0  0  0  0  3  0  0  0  0  0  0
  -22.7330  -10.2180   20.2730 C   0  0  0  0  0  3  0  0  0  0  0  0
  -21.6810   -6.9240   21.4860 O   0  0  0  0  0  0  0  0  0  0  0  0
  -21.6410   -6.1770   22.6370 C   0  0  0  0  0  0  0  0  0  0  0  0
  -21.2110   -6.7240   23.8650 C   0  0  0  0  0  3  0  0  0  0  0  0
  -21.1190   -5.9040   25.0070 C   0  0  0  0  0  3  0  0  0  0  0  0
  -21.4470   -4.5380   24.9220 C   0  0  0  0  0  0  0  0  0  0  0  0
  -21.8690   -3.9890   23.6980 C   0  0  0  0  0  3  0  0  0  0  0  0
  -21.9620   -4.8070   22.5580 C   0  0  0  0  0  0  0  0  0  0  0  0
  -22.3490   -4.2690   21.3760 F   0  0  0  0  0  0  0  0  0  0  0  0
  -21.3500   -3.7480   26.0160 F   0  0  0  0  0  0  0  0  0  0  0  0
  -22.7450  -13.5660   21.1570 C   0  0  0  0  0  0  0  0  0  0  0  0
  -22.0210  -12.8640   22.0220 N   0  0  0  0  0  0  0  0  0  0  0  0
  -22.3040  -14.5920   20.6400 O   0  0  0  0  0  0  0  0  0  0  0  0
  -22.3910  -12.0350   22.4630 H   0  0  0  0  0  0  0  0  0  0  0  0
  -21.0830  -13.1620   22.2470 H   0  0  0  0  0  0  0  0  0  0  0  0
  -25.3610  -15.2430   20.3220 N   0  0  0  0  0  0  0  0  0  0  0  0
  -24.5870  -15.8890   20.4340 H   0  0  0  0  0  0  0  0  0  0  0  0
  -26.1800  -15.6770   19.9200 H   0  0  0  0  0  0  0  0  0  0  0  0
  -28.6720  -23.7070   20.1240 C   0  0  0  0  0  2  0  0  0  0  0  0
  -29.7430  -25.4940   21.7220 C   0  0  0  0  0  1  0  0  0  0  0  0
  -27.3090  -24.9800   21.9280 C   0  0  0  0  0  1  0  0  0  0  0  0
  -28.4730  -25.1360   20.9250 C   0  0  2  0  0  0  0  0  0  0  0  0
  -28.3560  -26.4310   20.1480 O   0  0  0  0  0  0  0  0  0  0  0  0
  -24.6060  -31.8730   23.2360 C   0  0  0  0  0  0  0  0  0  0  0  0
  -27.2360  -27.2910   20.1940 C   0  0  0  0  0  0  0  0  0  0  0  0
  -23.4110  -30.4720   21.5900 C   0  0  0  0  0  3  0  0  0  0  0  0
  -24.8730  -28.9200   20.1680 C   0  0  0  0  0  0  0  0  0  0  0  0
  -25.9530  -30.7910   21.4170 C   0  0  0  0  0  2  0  0  0  0  0  0
  -26.0400  -29.4090   20.7700 C   0  0  0  0  0  0  0  0  0  0  0  0
  -27.2270  -28.6080   20.7680 C   0  0  0  0  0  3  0  0  0  0  0  0
  -26.0490  -26.8650   19.5640 C   0  0  0  0  0  3  0  0  0  0  0  0
  -24.8820  -27.6550   19.5560 C   0  0  0  0  0  3  0  0  0  0  0  0
  -23.6330  -29.7940   20.2120 C   0  0  0  0  0  2  0  0  0  0  0  0
  -24.6760  -31.0650   22.1360 N   0  0  0  0  0  0  0  0  0  0  0  0
  -23.5200  -32.1450   23.7700 O   0  0  0  0  0  0  0  0  0  0  0  0
  -22.7490  -29.4540   22.5500 C   0  0  0  0  0  0  0  0  0  0  0  0
  -21.4230  -29.2750   22.4240 N   0  0  0  0  0  0  0  0  0  0  0  0
  -23.4300  -28.8270   23.3660 O   0  0  0  0  0  0  0  0  0  0  0  0
  -20.9330  -29.8340   21.7410 H   0  0  0  0  0  0  0  0  0  0  0  0
  -18.0490  -28.0720   22.9340 C   0  0  0  0  0  0  0  0  0  0  0  0
  -20.6080  -28.3320   23.1930 C   0  0  0  0  0  3  0  0  0  0  0  0
  -20.7090  -26.9040   22.6090 C   0  0  0  0  0  2  0  0  0  0  0  0
  -19.6030  -26.5860   21.5970 C   0  0  0  0  0  2  0  0  0  0  0  0
  -18.2240  -26.7260   22.2470 C   0  0  0  0  0  2  0  0  0  0  0  0
  -19.1680  -28.8320   23.3630 C   0  0  0  0  0  0  0  0  0  0  0  0
  -18.9520  -30.0900   23.9640 C   0  0  0  0  0  3  0  0  0  0  0  0
  -17.6470  -30.5890   24.1390 C   0  0  0  0  0  3  0  0  0  0  0  0
  -16.5420  -29.8260   23.7260 C   0  0  0  0  0  3  0  0  0  0  0  0
  -16.7440  -28.5690   23.1290 C   0  0  0  0  0  3  0  0  0  0  0  0
  -25.8840  -32.5110   23.8630 C   0  0  0  0  0  3  0  0  0  0  0  0
  -26.4000  -31.7400   25.1400 C   0  0  1  0  0  0  0  0  0  0  0  0
  -25.3060  -31.4970   26.2050 C   0  0  0  0  0  1  0  0  0  0  0  0
  -26.9920  -30.3660   24.7520 C   0  0  0  0  0  1  0  0  0  0  0  0
  -27.5440  -32.5400   25.8070 C   0  0  0  0  0  1  0  0  0  0  0  0
  -25.5680  -33.9080   24.1960 N   0  0  0  0  0  0  0  0  0  0  0  0
  -25.8980  -34.9660   23.4430 C   0  0  0  0  0  0  0  0  0  0  0  0
  -26.5700  -34.8680   22.4120 O   0  0  0  0  0  0  0  0  0  0  0  0
  -24.9690  -34.0580   24.9950 H   0  0  0  0  0  0  0  0  0  0  0  0
  -24.1660  -36.7570   23.0880 C   0  0  0  0  0  1  0  0  0  0  0  0
  -25.4050  -36.3520   23.9040 C   0  0  0  0  0  3  0  0  0  0  0  0
  -27.5340  -37.2390   24.7460 C   0  0  0  0  0  1  0  0  0  0  0  0
  -26.4360  -37.4080   23.7980 N   0  0  0  0  0  0  0  0  0  0  0  0
  -26.0280  -38.3270   23.9460 H   0  0  0  0  0  0  0  0  0  0  0  0
  1  3  2  0
  2  8  1  0
  2  1  1  0
  4  2  1  0
  5  8  2  0
  5  7  1  0
  6  9  1  0
  7  6  2  0
  8  9  1  0
 10 18  1  0
 11 16  1  0
 12 13  1  0
 12 11  1  0
 14 13  1  0
 14 23  1  0
 14 15  1  0
 16 10  1  0
 16 15  1  0
 17 10  2  0
 18 19  1  0
 18  7  1  0
 20 21  2  0
 21 40  1  0
 22 21  1  0
 22 25  1  0
 23 20  1  0
 23 24  1  0
 24 22  2  0
 25 26  1  0
 26 27  2  0
 28 31  1  0
 28 27  1  0
 29 28  2  0
 30 29  1  0
 30 25  2  0
 31 32  1  0
 32 33  1  0
 33 34  2  0
 35 34  1  0
 35 39  1  0
 36 35  2  0
 37 32  2  0
 37 36  1  0
 38 37  1  0
 40 41  1  0
 41 44  1  0
 41 43  1  0
 42 40  2  0
 45 46  1  0
 45 20  1  0
 47 45  1  0
 48  1  1  0
 48 51  1  0
 51 49  1  1
 51 50  1  0
 52 54  1  0
 52 51  1  0
 53 64  2  0
 54 59  1  0
 55 63  1  0
 55 65  1  0
 56 62  1  0
 56 58  1  0
 57 63  1  0
 58 57  1  0
 59 58  2  0
 60 54  2  0
 61 60  1  0
 61 56  2  0
 62 55  1  0
 63 53  1  0
 65 67  2  0
 66 65  1  0
 68 66  1  0
 69 78  2  0
 69 74  1  0
 70 66  1  0
 70 74  1  0
 71 70  1  0
 72 73  1  0
 72 71  1  0
 73 69  1  0
 74 75  2  0
 75 76  1  0
 77 76  2  0
 78 77  1  0
 79 53  1  0
 79 84  1  0
 79 80  1  0
 80 83  1  1
 80 81  1  0
 82 80  1  0
 84 87  1  0
 85 89  1  0
 85 84  1  0
 86 85  2  0
 89 88  1  0
 91 89  1  0
 91 92  1  0
 91 90  1  0
M  ISO  4  10 100  18 100  51 101  52 101
M  END
>  <TORSDO>  (11) 
F 19

>  <SCORE>  (11) 
-14.498

>  <name>  (11) 
10

>  <ligand_id>  (11) 
10

>  <original_smiles>  (11) 
[H]c1sc(N([H])C(=O)C([H])([H])C(Oc2c([H])c([H])c3c(c2[H])C([H])([H])N(C(=O)C([H])(N([H])C(=O)C([H])(N([H])C([H])([H])[H])C([H])([H])[H])C(C([H])([H])[H])(C([H])([H])[H])C([H])([H])[H])C([H])(C(=O)N([H])C2([H])c4c([H])c([H])c([H])c([H])c4C([H])([H])C([H])([H])C2([H])[H])C3([H])[H])(C([H])([H])[H])C([H])([H])[H])c([H])c1N([H])C(=O)N1C([H])([H])C([H])([H])C([H])([H])C([H])(n2nc(-c3c([H])c([H])c(Oc4c([H])c([H])c(F)c([H])c4F)c([H])c3[H])c(C(=O)N([H])[H])c2N([H])[H])C1([H])[H]

>  <smiles>  (11) 
[H]c1sc(N([H])C(=O)C([H])([H])C(Oc2c([H])c([H])c3c(c2[H])C([H])([H])N(C(=O)C([H])(N([H])C(=O)C([H])(N([H])C([H])([H])[H])C([H])([H])[H])C(C([H])([H])[H])(C([H])([H])[H])C([H])([H])[H])C([H])(C(=O)N([H])C2([H])c4c([H])c([H])c([H])c([H])c4C([H])([H])C([H])([H])C2([H])[H])C3([H])[H])(C([H])([H])[H])C([H])([H])[H])c([H])c1N([H])C(=O)N1C([H])([H])C([H])([H])C([H])([H])C([H])(n2nc(-c3c([H])c([H])c(Oc4c([H])c([H])c(F)c([H])c4F)c([H])c3[H])c(C(=O)N([H])[H])c2N([H])[H])C1([H])[H]

$$$$
11:0:0
     RDKit          3D

 96104  0  0  1  0  0  0  0  0999 V2000
  -28.9750  -22.1930   20.4710 C   0  0  0  0  0  0  0  0  0  0  0  0
  -28.2150  -22.0480   21.5930 N   0  0  0  0  0  4  0  0  0  0  0  0
  -29.5440  -21.0700   19.8370 N   0  0  0  0  0  0  0  0  0  0  0  0
  -27.8280  -22.8570   22.0640 H   0  0  0  0  0  0  0  0  0  0  0  0
  -28.1550  -21.1530   22.0670 H   0  0  0  0  0  0  0  0  0  0  0  0
  -30.3030  -21.2170   19.1920 H   0  0  0  0  0  0  0  0  0  0  0  0
  -27.9760  -19.1640   20.1860 C   0  0  0  0  0  3  0  0  0  0  0  0
  -30.1960  -18.4560   20.1270 C   0  0  0  0  0  0  0  0  0  0  0  0
  -29.2610  -19.6340   20.0750 C   0  0  0  0  0  0  0  0  0  0  0  0
  -29.5930  -17.1810   20.2870 C   0  0  0  0  0  0  0  0  0  0  0  0
  -27.8690  -17.4410   20.3970 S   0  0  0  0  0  0  0  0  0  0  0  0
  -30.8150  -14.8570   19.8940 C   0  0  0  0  0  0  0  0  0  0  0  0
  -30.7700  -12.5140   18.9770 C   0  0  0  0  0  2  0  0  0  0  0  0
  -29.7520  -12.4690   17.8120 C   0  0  0  0  0  2  0  0  0  0  0  0
  -28.3140  -12.2480   18.3290 C   0  0  0  0  0  2  0  0  0  0  0  0
  -27.9660  -13.1760   19.5210 C   0  0  0  0  0  3  0  0  0  0  0  0
  -29.0840  -13.1380   20.5870 C   0  0  0  0  0  2  0  0  0  0  0  0
  -30.3330  -13.5630   19.9290 N   0  0  0  0  0  0  0  0  0  0  0  0
  -31.9250  -15.1000   19.4060 O   0  0  0  0  0  0  0  0  0  0  0  0
  -29.9240  -15.8120   20.3560 N   0  0  0  0  0  0  0  0  0  0  0  0
  -29.1850  -15.3090   20.8240 H   0  0  0  0  0  0  0  0  0  0  0  0
  -25.6370  -13.7490   20.4370 C   0  0  0  0  0  0  0  0  0  0  0  0
  -24.5960  -12.9640   20.8510 C   0  0  0  0  0  0  0  0  0  0  0  0
  -25.0450  -11.6140   20.7240 C   0  0  0  0  0  0  0  0  0  0  0  0
  -26.6560  -12.8760   20.0870 N   0  0  0  0  0  0  0  0  0  0  0  0
  -26.3090  -11.5840   20.3190 N   0  0  0  0  0  0  0  0  0  0  0  0
  -24.3260  -10.3470   20.9100 C   0  0  0  0  0  0  0  0  0  0  0  0
  -24.7280   -9.4080   21.8840 C   0  0  0  0  0  3  0  0  0  0  0  0
  -24.0110   -8.2040   22.0560 C   0  0  0  0  0  3  0  0  0  0  0  0
  -22.8760   -7.9330   21.2530 C   0  0  0  0  0  0  0  0  0  0  0  0
  -22.4930   -8.8630   20.2710 C   0  0  0  0  0  3  0  0  0  0  0  0
  -23.2120  -10.0570   20.0980 C   0  0  0  0  0  3  0  0  0  0  0  0
  -22.1340   -6.7790   21.3330 O   0  0  0  0  0  0  0  0  0  0  0  0
  -21.9270   -6.1370   22.5270 C   0  0  0  0  0  0  0  0  0  0  0  0
  -21.2890   -6.7740   23.6130 C   0  0  0  0  0  3  0  0  0  0  0  0
  -21.0320   -6.0570   24.7990 C   0  0  0  0  0  3  0  0  0  0  0  0
  -21.4020   -4.7020   24.8960 C   0  0  0  0  0  0  0  0  0  0  0  0
  -22.0320   -4.0650   23.8130 C   0  0  0  0  0  3  0  0  0  0  0  0
  -22.2900   -4.7810   22.6310 C   0  0  0  0  0  0  0  0  0  0  0  0
  -22.8790   -4.1550   21.5820 F   0  0  0  0  0  0  0  0  0  0  0  0
  -21.1480   -4.0110   26.0310 F   0  0  0  0  0  0  0  0  0  0  0  0
  -23.2250  -13.4350   21.2430 C   0  0  0  0  0  0  0  0  0  0  0  0
  -22.5590  -12.7080   22.1330 N   0  0  0  0  0  0  0  0  0  0  0  0
  -22.7560  -14.4820   20.7990 O   0  0  0  0  0  0  0  0  0  0  0  0
  -22.9520  -11.8600   22.5150 H   0  0  0  0  0  0  0  0  0  0  0  0
  -21.6420  -13.0040   22.4390 H   0  0  0  0  0  0  0  0  0  0  0  0
  -25.7960  -15.1240   20.3080 N   0  0  0  0  0  0  0  0  0  0  0  0
  -25.0370  -15.7710   20.4930 H   0  0  0  0  0  0  0  0  0  0  0  0
  -26.6090  -15.5720   19.9040 H   0  0  0  0  0  0  0  0  0  0  0  0
  -31.5840  -18.5940   19.9940 N   0  0  0  0  0  0  0  0  0  0  0  0
  -32.0210  -19.3530   20.5070 H   0  0  0  0  0  0  0  0  0  0  0  0
  -32.1000  -17.7310   20.1430 H   0  0  0  0  0  0  0  0  0  0  0  0
  -29.1690  -23.7410   19.9630 C   0  0  0  0  0  0  0  0  0  0  0  0
  -29.9740  -23.9360   19.0470 O   0  0  0  0  0  0  0  0  0  0  0  0
  -28.3590  -25.0010   20.5760 C   0  0  0  0  0  2  0  0  0  0  0  0
  -28.6230  -26.4180   20.1070 O   0  0  0  0  0  0  0  0  0  0  0  0
  -24.8940  -31.8310   23.2630 C   0  0  0  0  0  0  0  0  0  0  0  0
  -27.5360  -27.3260   20.1050 C   0  0  0  0  0  0  0  0  0  0  0  0
  -23.7120  -30.4920   21.5610 C   0  0  0  0  0  3  0  0  0  0  0  0
  -25.1820  -28.9820   20.1030 C   0  0  0  0  0  0  0  0  0  0  0  0
  -26.2580  -30.8010   21.4240 C   0  0  0  0  0  2  0  0  0  0  0  0
  -26.3470  -29.4390   20.7330 C   0  0  0  0  0  0  0  0  0  0  0  0
  -27.5300  -28.6270   20.7180 C   0  0  0  0  0  3  0  0  0  0  0  0
  -26.3490  -26.9380   19.4470 C   0  0  0  0  0  3  0  0  0  0  0  0
  -25.1900  -27.7410   19.4450 C   0  0  0  0  0  3  0  0  0  0  0  0
  -23.9480  -29.8620   20.1630 C   0  0  0  0  0  2  0  0  0  0  0  0
  -24.9730  -31.0580   22.1400 N   0  0  0  0  0  0  0  0  0  0  0  0
  -23.8030  -32.0930   23.7920 O   0  0  0  0  0  0  0  0  0  0  0  0
  -23.0320  -29.4470   22.4790 C   0  0  0  0  0  0  0  0  0  0  0  0
  -21.7130  -29.2500   22.3020 N   0  0  0  0  0  0  0  0  0  0  0  0
  -23.6910  -28.8170   23.3090 O   0  0  0  0  0  0  0  0  0  0  0  0
  -21.2380  -29.8120   21.6090 H   0  0  0  0  0  0  0  0  0  0  0  0
  -18.3440  -27.9770   22.6590 C   0  0  0  0  0  0  0  0  0  0  0  0
  -20.8850  -28.2820   23.0250 C   0  0  0  0  0  3  0  0  0  0  0  0
  -21.0360  -26.8650   22.4250 C   0  0  0  0  0  2  0  0  0  0  0  0
  -19.9780  -26.5400   21.3670 C   0  0  0  0  0  2  0  0  0  0  0  0
  -18.5720  -26.6450   21.9640 C   0  0  0  0  0  2  0  0  0  0  0  0
  -19.4310  -28.7520   23.1430 C   0  0  0  0  0  0  0  0  0  0  0  0
  -19.1650  -29.9980   23.7520 C   0  0  0  0  0  3  0  0  0  0  0  0
  -17.8450  -30.4690   23.8810 C   0  0  0  0  0  3  0  0  0  0  0  0
  -16.7720  -29.6920   23.4130 C   0  0  0  0  0  3  0  0  0  0  0  0
  -17.0220  -28.4460   22.8090 C   0  0  0  0  0  3  0  0  0  0  0  0
  -26.1670  -32.4420   23.9270 C   0  0  0  0  0  3  0  0  0  0  0  0
  -26.6800  -31.6120   25.1680 C   0  0  1  0  0  0  0  0  0  0  0  0
  -25.5780  -31.3040   26.2090 C   0  0  0  0  0  1  0  0  0  0  0  0
  -27.2870  -30.2640   24.7120 C   0  0  0  0  0  1  0  0  0  0  0  0
  -27.8120  -32.3850   25.8840 C   0  0  0  0  0  1  0  0  0  0  0  0
  -25.8440  -33.8200   24.3270 N   0  0  0  0  0  0  0  0  0  0  0  0
  -26.1710  -34.9140   23.6240 C   0  0  0  0  0  0  0  0  0  0  0  0
  -26.8430  -34.8680   22.5910 O   0  0  0  0  0  0  0  0  0  0  0  0
  -25.2460  -33.9280   25.1320 H   0  0  0  0  0  0  0  0  0  0  0  0
  -24.4350  -36.7150   23.3580 C   0  0  0  0  0  1  0  0  0  0  0  0
  -25.6750  -36.2740   24.1530 C   0  0  0  0  0  3  0  0  0  0  0  0
  -27.7950  -37.1310   25.0460 C   0  0  0  0  0  1  0  0  0  0  0  0
  -26.7020  -37.3370   24.1000 N   0  0  0  0  0  0  0  0  0  0  0  0
  -26.2900  -38.2470   24.2840 H   0  0  0  0  0  0  0  0  0  0  0  0
  1  2  2  0
  2  4  1  0
  2  5  1  0
  3  9  1  0
  3  1  1  0
  6  3  1  0
  7 11  1  0
  8 10  2  0
  9  8  1  0
  9  7  2  0
 10 20  1  0
 10 11  1  0
 12 18  1  0
 12 20  1  0
 13 18  1  0
 14 15  1  0
 14 13  1  0
 16 15  1  0
 16 25  1  0
 16 17  1  0
 18 17  1  0
 19 12  2  0
 20 21  1  0
 22 23  2  0
 23 42  1  0
 24 23  1  0
 24 27  1  0
 25 26  1  0
 25 22  1  0
 26 24  2  0
 27 28  1  0
 28 29  2  0
 30 33  1  0
 30 29  1  0
 31 30  2  0
 32 31  1  0
 32 27  2  0
 33 34  1  0
 34 39  2  0
 34 35  1  0
 35 36  2  0
 36 37  1  0
 37 41  1  0
 38 37  2  0
 39 38  1  0
 40 39  1  0
 42 43  1  0
 43 46  1  0
 43 45  1  0
 44 42  2  0
 47 22  1  0
 47 48  1  0
 49 47  1  0
 50  8  1  0
 50 52  1  0
 50 51  1  0
 53  1  1  0
 53 55  1  0
 54 53  2  0
 56 55  1  0
 57 68  2  0
 58 56  1  0
 58 63  1  0
 59 67  1  0
 59 69  1  0
 60 66  1  0
 60 62  1  0
 61 67  1  0
 62 61  1  0
 63 62  2  0
 64 58  2  0
 65 64  1  0
 65 60  2  0
 66 59  1  0
 67 57  1  0
 69 71  2  0
 70 69  1  0
 72 70  1  0
 73 82  2  0
 73 78  1  0
 74 70  1  0
 74 78  1  0
 75 74  1  0
 76 77  1  0
 76 75  1  0
 77 73  1  0
 78 79  2  0
 79 80  1  0
 81 80  2  0
 82 81  1  0
 83 57  1  0
 83 88  1  0
 83 84  1  0
 84 87  1  1
 84 85  1  0
 86 84  1  0
 88 91  1  0
 89 93  1  0
 89 88  1  0
 90 89  2  0
 93 92  1  0
 95 93  1  0
 95 96  1  0
 95 94  1  0
M  ISO  4  12 100  20 100  55 101  56 101
M  END
>  <TORSDO>  (12) 
F 20

>  <SCORE>  (12) 
-13.106

>  <name>  (12) 
11

>  <ligand_id>  (12) 
11

>  <original_smiles>  (12) 
[H]c1sc(N([H])C(=O)N2C([H])([H])C([H])([H])C([H])([H])C([H])(n3nc(-c4c([H])c([H])c(Oc5c([H])c([H])c(F)c([H])c5F)c([H])c4[H])c(C(=O)N([H])[H])c3N([H])[H])C2([H])[H])c(N([H])[H])c1[N+]([H])=C(C(=O)C([H])([H])Oc1c([H])c([H])c2c(c1[H])C([H])([H])N(C(=O)C([H])(N([H])C(=O)C([H])(N([H])C([H])([H])[H])C([H])([H])[H])C(C([H])([H])[H])(C([H])([H])[H])C([H])([H])[H])C([H])(C(=O)N([H])C1([H])c3c([H])c([H])c([H])c([H])c3C([H])([H])C([H])([H])C1([H])[H])C2([H])[H])N([H])[H]

>  <smiles>  (12) 
[H]c1sc(N([H])C(=O)N2C([H])([H])C([H])([H])C([H])([H])C([H])(n3nc(-c4c([H])c([H])c(Oc5c([H])c([H])c(F)c([H])c5F)c([H])c4[H])c(C(=O)N([H])[H])c3N([H])[H])C2([H])[H])c(N([H])[H])c1[N+]([H])=C(C(=O)C([H])([H])Oc1c([H])c([H])c2c(c1[H])C([H])([H])N(C(=O)C([H])(N([H])C(=O)C([H])(N([H])C([H])([H])[H])C([H])([H])[H])C(C([H])([H])[H])(C([H])([H])[H])C([H])([H])[H])C([H])(C(=O)N([H])C1([H])c3c([H])c([H])c([H])c([H])c3C([H])([H])C([H])([H])C1([H])[H])C2([H])[H])N([H])[H]

$$$$
12:0:0
     RDKit          3D

 93101  0  0  1  0  0  0  0  0999 V2000
  -30.8520  -19.7150   21.1740 C   0  0  0  0  0  3  0  0  0  0  0  0
  -30.4100  -21.0500   20.9530 C   0  0  0  0  0  3  0  0  0  0  0  0
  -30.0710  -18.5860   20.7960 C   0  0  0  0  0  0  0  0  0  0  0  0
  -29.1560  -21.2680   20.3520 C   0  0  0  0  0  0  0  0  0  0  0  0
  -28.8410  -18.9210   20.1800 C   0  0  0  0  0  0  0  0  0  0  0  0
  -28.4050  -20.1980   19.9810 N   0  0  0  0  0  0  0  0  0  0  0  0
  -28.5980  -22.5480   20.0670 N   0  0  0  0  0  0  0  0  0  0  0  0
  -27.7020  -22.5230   19.5930 H   0  0  0  0  0  0  0  0  0  0  0  0
  -27.9930  -17.9370   19.7020 N   0  0  0  0  0  0  0  0  0  0  0  0
  -28.4480  -17.0720   19.4480 H   0  0  0  0  0  0  0  0  0  0  0  0
  -27.3150  -18.2400   19.0150 H   0  0  0  0  0  0  0  0  0  0  0  0
  -30.6790  -17.1510   21.0790 C   0  0  0  0  0  2  0  0  0  0  0  0
  -30.6580  -14.6750   20.4340 C   0  0  0  0  0  0  0  0  0  0  0  0
  -30.3550  -12.4540   19.3630 C   0  0  0  0  0  2  0  0  0  0  0  0
  -29.4230  -12.5800   18.1420 C   0  0  0  0  0  2  0  0  0  0  0  0
  -27.9570  -12.4010   18.5780 C   0  0  0  0  0  2  0  0  0  0  0  0
  -27.5900  -13.2840   19.8010 C   0  0  0  0  0  3  0  0  0  0  0  0
  -28.6520  -13.1830   20.9220 C   0  0  0  0  0  2  0  0  0  0  0  0
  -29.9600  -13.4990   20.3320 N   0  0  0  0  0  0  0  0  0  0  0  0
  -31.8200  -14.7460   20.0300 O   0  0  0  0  0  0  0  0  0  0  0  0
  -30.0070  -15.8150   20.8400 N   0  0  0  0  0  0  0  0  0  0  0  0
  -29.0610  -15.7040   21.1690 H   0  0  0  0  0  0  0  0  0  0  0  0
  -25.2000  -13.8620   20.5380 C   0  0  0  0  0  0  0  0  0  0  0  0
  -24.1400  -13.0810   20.9090 C   0  0  0  0  0  0  0  0  0  0  0  0
  -24.6110  -11.7330   20.8790 C   0  0  0  0  0  0  0  0  0  0  0  0
  -26.2480  -12.9900   20.2970 N   0  0  0  0  0  0  0  0  0  0  0  0
  -25.9020  -11.7030   20.5660 N   0  0  0  0  0  0  0  0  0  0  0  0
  -23.8930  -10.4650   21.0710 C   0  0  0  0  0  0  0  0  0  0  0  0
  -24.3420   -9.4940   21.9920 C   0  0  0  0  0  3  0  0  0  0  0  0
  -23.6230   -8.2920   22.1750 C   0  0  0  0  0  3  0  0  0  0  0  0
  -22.4410   -8.0530   21.4350 C   0  0  0  0  0  0  0  0  0  0  0  0
  -22.0100   -9.0130   20.5030 C   0  0  0  0  0  3  0  0  0  0  0  0
  -22.7290  -10.2070   20.3190 C   0  0  0  0  0  3  0  0  0  0  0  0
  -21.6920   -6.9050   21.5270 O   0  0  0  0  0  0  0  0  0  0  0  0
  -21.6710   -6.1480   22.6720 C   0  0  0  0  0  0  0  0  0  0  0  0
  -21.2530   -6.6830   23.9090 C   0  0  0  0  0  3  0  0  0  0  0  0
  -21.1780   -5.8520   25.0460 C   0  0  0  0  0  3  0  0  0  0  0  0
  -21.5130   -4.4890   24.9450 C   0  0  0  0  0  0  0  0  0  0  0  0
  -21.9230   -3.9530   23.7120 C   0  0  0  0  0  3  0  0  0  0  0  0
  -22.0000   -4.7810   22.5780 C   0  0  0  0  0  0  0  0  0  0  0  0
  -22.3750   -4.2550   21.3880 F   0  0  0  0  0  0  0  0  0  0  0  0
  -21.4360   -3.6900   26.0340 F   0  0  0  0  0  0  0  0  0  0  0  0
  -22.7390  -13.5490   21.1850 C   0  0  0  0  0  0  0  0  0  0  0  0
  -22.0210  -12.8530   22.0590 N   0  0  0  0  0  0  0  0  0  0  0  0
  -22.2910  -14.5670   20.6600 O   0  0  0  0  0  0  0  0  0  0  0  0
  -22.3960  -12.0310   22.5080 H   0  0  0  0  0  0  0  0  0  0  0  0
  -21.0820  -13.1470   22.2850 H   0  0  0  0  0  0  0  0  0  0  0  0
  -25.3560  -15.2330   20.3610 N   0  0  0  0  0  0  0  0  0  0  0  0
  -24.5900  -15.8870   20.4820 H   0  0  0  0  0  0  0  0  0  0  0  0
  -26.2130  -15.6880   20.0740 H   0  0  0  0  0  0  0  0  0  0  0  0
  -29.0970  -23.9130   20.4240 C   0  0  0  0  0  2  0  0  0  0  0  0
  -28.1080  -25.0730   19.9590 C   0  0  0  0  0  2  0  0  0  0  0  0
  -28.3190  -26.5040   20.2900 O   0  0  0  0  0  0  0  0  0  0  0  0
  -24.6050  -31.9330   23.2720 C   0  0  0  0  0  0  0  0  0  0  0  0
  -27.2070  -27.3650   20.2220 C   0  0  0  0  0  0  0  0  0  0  0  0
  -23.4000  -30.5430   21.6270 C   0  0  0  0  0  3  0  0  0  0  0  0
  -24.8470  -28.9870   20.2090 C   0  0  0  0  0  0  0  0  0  0  0  0
  -25.9420  -30.8470   21.4550 C   0  0  0  0  0  2  0  0  0  0  0  0
  -26.0160  -29.4670   20.8110 C   0  0  0  0  0  0  0  0  0  0  0  0
  -27.1970  -28.6670   20.8110 C   0  0  0  0  0  3  0  0  0  0  0  0
  -26.0150  -26.9500   19.5780 C   0  0  0  0  0  3  0  0  0  0  0  0
  -24.8480  -27.7330   19.5840 C   0  0  0  0  0  3  0  0  0  0  0  0
  -23.6150  -29.8640   20.2500 C   0  0  0  0  0  2  0  0  0  0  0  0
  -24.6680  -31.1250   22.1750 N   0  0  0  0  0  0  0  0  0  0  0  0
  -23.5210  -32.2170   23.8030 O   0  0  0  0  0  0  0  0  0  0  0  0
  -22.7250  -29.5320   22.5850 C   0  0  0  0  0  0  0  0  0  0  0  0
  -21.3970  -29.3660   22.4510 N   0  0  0  0  0  0  0  0  0  0  0  0
  -23.3940  -28.8990   23.4060 O   0  0  0  0  0  0  0  0  0  0  0  0
  -20.9170  -29.9300   21.7640 H   0  0  0  0  0  0  0  0  0  0  0  0
  -18.0030  -28.2140   22.9510 C   0  0  0  0  0  0  0  0  0  0  0  0
  -20.5650  -28.4360   23.2190 C   0  0  0  0  0  3  0  0  0  0  0  0
  -20.6460  -27.0070   22.6380 C   0  0  0  0  0  2  0  0  0  0  0  0
  -19.5380  -26.7040   21.6240 C   0  0  0  0  0  2  0  0  0  0  0  0
  -18.1590  -26.8660   22.2700 C   0  0  0  0  0  2  0  0  0  0  0  0
  -19.1330  -28.9600   23.3830 C   0  0  0  0  0  0  0  0  0  0  0  0
  -18.9330  -30.2230   23.9800 C   0  0  0  0  0  3  0  0  0  0  0  0
  -17.6340  -30.7410   24.1500 C   0  0  0  0  0  3  0  0  0  0  0  0
  -16.5190  -29.9940   23.7330 C   0  0  0  0  0  3  0  0  0  0  0  0
  -16.7050  -28.7320   23.1400 C   0  0  0  0  0  3  0  0  0  0  0  0
  -25.8890  -32.5570   23.9020 C   0  0  0  0  0  3  0  0  0  0  0  0
  -26.3900  -31.7840   25.1830 C   0  0  1  0  0  0  0  0  0  0  0  0
  -25.2880  -31.5570   26.2440 C   0  0  0  0  0  1  0  0  0  0  0  0
  -26.9640  -30.4010   24.7970 C   0  0  0  0  0  1  0  0  0  0  0  0
  -27.5410  -32.5720   25.8520 C   0  0  0  0  0  1  0  0  0  0  0  0
  -25.5870  -33.9580   24.2280 N   0  0  0  0  0  0  0  0  0  0  0  0
  -25.9190  -35.0070   23.4630 C   0  0  0  0  0  0  0  0  0  0  0  0
  -26.5800  -34.8960   22.4260 O   0  0  0  0  0  0  0  0  0  0  0  0
  -24.9980  -34.1170   25.0330 H   0  0  0  0  0  0  0  0  0  0  0  0
  -24.1920  -36.8050   23.1190 C   0  0  0  0  0  1  0  0  0  0  0  0
  -25.4420  -36.4000   23.9180 C   0  0  0  0  0  3  0  0  0  0  0  0
  -27.5880  -37.2820   24.7210 C   0  0  0  0  0  1  0  0  0  0  0  0
  -26.4780  -37.4480   23.7880 N   0  0  0  0  0  0  0  0  0  0  0  0
  -26.0750  -38.3700   23.9310 H   0  0  0  0  0  0  0  0  0  0  0  0
  2  1  1  0
  3 12  1  0
  3  1  2  0
  4  2  2  0
  5  3  1  0
  6  5  2  0
  6  4  1  0
  7  4  1  0
  7 51  1  0
  8  7  1  0
  9  5  1  0
 10  9  1  0
 11  9  1  0
 13 21  1  0
 14 19  1  0
 15 16  1  0
 15 14  1  0
 17 16  1  0
 17 26  1  0
 17 18  1  0
 19 13  1  0
 19 18  1  0
 20 13  2  0
 21 12  1  0
 21 22  1  0
 23 24  2  0
 24 43  1  0
 25 24  1  0
 25 28  1  0
 26 23  1  0
 26 27  1  0
 27 25  2  0
 28 29  1  0
 29 30  2  0
 31 34  1  0
 31 30  1  0
 32 31  2  0
 33 32  1  0
 33 28  2  0
 34 35  1  0
 35 36  1  0
 36 37  2  0
 38 37  1  0
 38 42  1  0
 39 38  2  0
 40 35  2  0
 40 39  1  0
 41 40  1  0
 43 44  1  0
 44 47  1  0
 44 46  1  0
 45 43  2  0
 48 49  1  0
 48 23  1  0
 50 48  1  0
 52 53  1  0
 52 51  1  0
 54 65  2  0
 55 53  1  0
 55 60  1  0
 56 64  1  0
 56 66  1  0
 57 63  1  0
 57 59  1  0
 58 64  1  0
 59 58  1  0
 60 59  2  0
 61 62  1  0
 61 55  2  0
 62 57  2  0
 63 56  1  0
 64 54  1  0
 66 68  2  0
 67 66  1  0
 69 67  1  0
 70 79  2  0
 70 75  1  0
 71 67  1  0
 71 75  1  0
 72 71  1  0
 73 74  1  0
 73 72  1  0
 74 70  1  0
 75 76  2  0
 76 77  1  0
 78 77  2  0
 79 78  1  0
 80 54  1  0
 80 85  1  0
 80 81  1  0
 81 84  1  1
 81 82  1  0
 83 81  1  0
 85 88  1  0
 86 90  1  0
 86 85  1  0
 87 86  2  0
 90 89  1  0
 92 90  1  0
 92 93  1  0
 92 91  1  0
M  ISO  4  13 100  21 100  52 101  53 101
M  END
>  <TORSDO>  (13) 
F 20

>  <SCORE>  (13) 
-14.262

>  <name>  (13) 
12

>  <ligand_id>  (13) 
12

>  <original_smiles>  (13) 
[H]c1c(N([H])C([H])([H])C([H])([H])Oc2c([H])c([H])c3c(c2[H])C([H])([H])N(C(=O)C([H])(N([H])C(=O)C([H])(N([H])C([H])([H])[H])C([H])([H])[H])C(C([H])([H])[H])(C([H])([H])[H])C([H])([H])[H])C([H])(C(=O)N([H])C2([H])c4c([H])c([H])c([H])c([H])c4C([H])([H])C([H])([H])C2([H])[H])C3([H])[H])nc(N([H])[H])c(C([H])([H])N([H])C(=O)N2C([H])([H])C([H])([H])C([H])([H])C([H])(n3nc(-c4c([H])c([H])c(Oc5c([H])c([H])c(F)c([H])c5F)c([H])c4[H])c(C(=O)N([H])[H])c3N([H])[H])C2([H])[H])c1[H]

>  <smiles>  (13) 
[H]c1c(N([H])C([H])([H])C([H])([H])Oc2c([H])c([H])c3c(c2[H])C([H])([H])N(C(=O)C([H])(N([H])C(=O)C([H])(N([H])C([H])([H])[H])C([H])([H])[H])C(C([H])([H])[H])(C([H])([H])[H])C([H])([H])[H])C([H])(C(=O)N([H])C2([H])c4c([H])c([H])c([H])c([H])c4C([H])([H])C([H])([H])C2([H])[H])C3([H])[H])nc(N([H])[H])c(C([H])([H])N([H])C(=O)N2C([H])([H])C([H])([H])C([H])([H])C([H])(n3nc(-c4c([H])c([H])c(Oc5c([H])c([H])c(F)c([H])c5F)c([H])c4[H])c(C(=O)N([H])[H])c3N([H])[H])C2([H])[H])c1[H]

$$$$
13:0:0
     RDKit          3D

 90 98  0  0  1  0  0  0  0  0999 V2000
  -28.9950  -22.1680   19.9140 C   0  0  0  0  0  2  0  0  0  0  0  0
  -28.8300  -23.6390   20.5810 C   0  0  0  0  0  0  0  0  0  0  0  0
  -29.2730  -23.8180   21.7210 O   0  0  0  0  0  0  0  0  0  0  0  0
  -28.0860  -24.8560   19.8210 C   0  0  0  0  0  2  0  0  0  0  0  0
  -28.2630  -26.3020   20.2730 O   0  0  0  0  0  0  0  0  0  0  0  0
  -24.6120  -31.8700   23.2390 C   0  0  0  0  0  0  0  0  0  0  0  0
  -27.1850  -27.2300   20.1810 C   0  0  0  0  0  0  0  0  0  0  0  0
  -23.4020  -30.4780   21.6030 C   0  0  0  0  0  3  0  0  0  0  0  0
  -24.8430  -28.9190   20.1670 C   0  0  0  0  0  0  0  0  0  0  0  0
  -25.9500  -30.7610   21.4250 C   0  0  0  0  0  2  0  0  0  0  0  0
  -26.0190  -29.3770   20.7730 C   0  0  0  0  0  0  0  0  0  0  0  0
  -27.1890  -28.5440   20.7750 C   0  0  0  0  0  3  0  0  0  0  0  0
  -25.9890  -26.8640   19.5190 C   0  0  0  0  0  3  0  0  0  0  0  0
  -24.8370  -27.6730   19.5270 C   0  0  0  0  0  3  0  0  0  0  0  0
  -23.6140  -29.8050   20.2200 C   0  0  0  0  0  2  0  0  0  0  0  0
  -24.6740  -31.0560   22.1440 N   0  0  0  0  0  0  0  0  0  0  0  0
  -23.5290  -32.1540   23.7730 O   0  0  0  0  0  0  0  0  0  0  0  0
  -22.7330  -29.4650   22.5630 C   0  0  0  0  0  0  0  0  0  0  0  0
  -21.4060  -29.2920   22.4390 N   0  0  0  0  0  0  0  0  0  0  0  0
  -23.4090  -28.8380   23.3830 O   0  0  0  0  0  0  0  0  0  0  0  0
  -20.9180  -29.8490   21.7510 H   0  0  0  0  0  0  0  0  0  0  0  0
  -18.0270  -28.0930   22.9400 C   0  0  0  0  0  0  0  0  0  0  0  0
  -20.5850  -28.3570   23.2120 C   0  0  0  0  0  3  0  0  0  0  0  0
  -20.6880  -26.9220   22.6440 C   0  0  0  0  0  2  0  0  0  0  0  0
  -19.5890  -26.5940   21.6280 C   0  0  0  0  0  2  0  0  0  0  0  0
  -18.2060  -26.7410   22.2700 C   0  0  0  0  0  2  0  0  0  0  0  0
  -19.1440  -28.8580   23.3680 C   0  0  0  0  0  0  0  0  0  0  0  0
  -18.9220  -30.1220   23.9570 C   0  0  0  0  0  3  0  0  0  0  0  0
  -17.6170  -30.6220   24.1200 C   0  0  0  0  0  3  0  0  0  0  0  0
  -16.5140  -29.8540   23.7070 C   0  0  0  0  0  3  0  0  0  0  0  0
  -16.7200  -28.5910   23.1230 C   0  0  0  0  0  3  0  0  0  0  0  0
  -25.8960  -32.5010   23.8600 C   0  0  0  0  0  3  0  0  0  0  0  0
  -26.4110  -31.7300   25.1360 C   0  0  1  0  0  0  0  0  0  0  0  0
  -25.3190  -31.4990   26.2080 C   0  0  0  0  0  1  0  0  0  0  0  0
  -26.9870  -30.3480   24.7500 C   0  0  0  0  0  1  0  0  0  0  0  0
  -27.5670  -32.5200   25.7950 C   0  0  0  0  0  1  0  0  0  0  0  0
  -25.5900  -33.9000   24.1920 N   0  0  0  0  0  0  0  0  0  0  0  0
  -25.9170  -34.9550   23.4340 C   0  0  0  0  0  0  0  0  0  0  0  0
  -26.5780  -34.8520   22.3970 O   0  0  0  0  0  0  0  0  0  0  0  0
  -25.0000  -34.0540   24.9980 H   0  0  0  0  0  0  0  0  0  0  0  0
  -24.1850  -36.7510   23.1030 C   0  0  0  0  0  1  0  0  0  0  0  0
  -25.4360  -36.3440   23.8980 C   0  0  0  0  0  3  0  0  0  0  0  0
  -27.5820  -37.2260   24.7010 C   0  0  0  0  0  1  0  0  0  0  0  0
  -26.4680  -37.3960   23.7730 N   0  0  0  0  0  0  0  0  0  0  0  0
  -26.0650  -38.3160   23.9260 H   0  0  0  0  0  0  0  0  0  0  0  0
  -29.0640  -20.8940   20.7650 N   0  0  0  0  0  0  0  0  0  0  0  0
  -28.4200  -20.9020   21.5520 H   0  0  0  0  0  0  0  0  0  0  0  0
  -30.7710  -17.8750   19.4430 C   0  0  0  0  0  3  0  0  0  0  0  0
  -30.5350  -19.3020   19.4280 C   0  0  0  0  0  3  0  0  0  0  0  0
  -29.9420  -17.3020   20.3800 C   0  0  0  0  0  0  0  0  0  0  0  0
  -29.5720  -19.5820   20.3630 C   0  0  0  0  0  0  0  0  0  0  0  0
  -29.1890  -18.3570   20.9590 O   0  0  0  0  0  0  0  0  0  0  0  0
  -30.5500  -14.7950   20.3350 C   0  0  0  0  0  0  0  0  0  0  0  0
  -30.3590  -12.5000   19.3430 C   0  0  0  0  0  2  0  0  0  0  0  0
  -29.4170  -12.5640   18.1180 C   0  0  0  0  0  2  0  0  0  0  0  0
  -27.9490  -12.3860   18.5540 C   0  0  0  0  0  2  0  0  0  0  0  0
  -27.5790  -13.2740   19.7720 C   0  0  0  0  0  3  0  0  0  0  0  0
  -28.6420  -13.1930   20.8890 C   0  0  0  0  0  2  0  0  0  0  0  0
  -29.9370  -13.5560   20.2950 N   0  0  0  0  0  0  0  0  0  0  0  0
  -31.7230  -14.8900   19.9570 O   0  0  0  0  0  0  0  0  0  0  0  0
  -29.7870  -15.9210   20.6580 N   0  0  0  0  0  0  0  0  0  0  0  0
  -28.9090  -15.6860   21.0940 H   0  0  0  0  0  0  0  0  0  0  0  0
  -25.1940  -13.8650   20.5040 C   0  0  0  0  0  0  0  0  0  0  0  0
  -24.1300  -13.0920   20.8810 C   0  0  0  0  0  0  0  0  0  0  0  0
  -24.5930  -11.7410   20.8530 C   0  0  0  0  0  0  0  0  0  0  0  0
  -26.2380  -12.9850   20.2660 N   0  0  0  0  0  0  0  0  0  0  0  0
  -25.8820  -11.7020   20.5400 N   0  0  0  0  0  0  0  0  0  0  0  0
  -23.8650  -10.4800   21.0500 C   0  0  0  0  0  0  0  0  0  0  0  0
  -24.3110   -9.5060   21.9700 C   0  0  0  0  0  3  0  0  0  0  0  0
  -23.5840   -8.3100   22.1560 C   0  0  0  0  0  3  0  0  0  0  0  0
  -22.3970   -8.0790   21.4190 C   0  0  0  0  0  0  0  0  0  0  0  0
  -21.9700   -9.0420   20.4880 C   0  0  0  0  0  3  0  0  0  0  0  0
  -22.6980  -10.2290   20.3010 C   0  0  0  0  0  3  0  0  0  0  0  0
  -21.6400   -6.9370   21.5150 O   0  0  0  0  0  0  0  0  0  0  0  0
  -21.6220   -6.1790   22.6580 C   0  0  0  0  0  0  0  0  0  0  0  0
  -21.2430   -6.7200   23.9070 C   0  0  0  0  0  3  0  0  0  0  0  0
  -21.1720   -5.8890   25.0420 C   0  0  0  0  0  3  0  0  0  0  0  0
  -21.4700   -4.5180   24.9320 C   0  0  0  0  0  0  0  0  0  0  0  0
  -21.8410   -3.9760   23.6880 C   0  0  0  0  0  3  0  0  0  0  0  0
  -21.9140   -4.8040   22.5550 C   0  0  0  0  0  0  0  0  0  0  0  0
  -22.2520   -4.2720   21.3550 F   0  0  0  0  0  0  0  0  0  0  0  0
  -21.3930   -3.7170   26.0200 F   0  0  0  0  0  0  0  0  0  0  0  0
  -22.7340  -13.5710   21.1550 C   0  0  0  0  0  0  0  0  0  0  0  0
  -22.0100  -12.8820   22.0280 N   0  0  0  0  0  0  0  0  0  0  0  0
  -22.2950  -14.5930   20.6290 O   0  0  0  0  0  0  0  0  0  0  0  0
  -22.3780  -12.0550   22.4750 H   0  0  0  0  0  0  0  0  0  0  0  0
  -21.0720  -13.1850   22.2540 H   0  0  0  0  0  0  0  0  0  0  0  0
  -25.3560  -15.2350   20.3190 N   0  0  0  0  0  0  0  0  0  0  0  0
  -24.5860  -15.8850   20.4230 H   0  0  0  0  0  0  0  0  0  0  0  0
  -26.1950  -15.6720   19.9580 H   0  0  0  0  0  0  0  0  0  0  0  0
  1  2  1  0
  1 46  1  0
  2  3  2  0
  4  5  1  0
  4  2  1  0
  6 17  2  0
  7  5  1  0
  7 12  1  0
  8 16  1  0
  8 18  1  0
  9 15  1  0
  9 11  1  0
 10 16  1  0
 11 12  2  0
 11 10  1  0
 13 14  1  0
 13  7  2  0
 14  9  2  0
 15  8  1  0
 16  6  1  0
 18 20  2  0
 19 18  1  0
 21 19  1  0
 22 31  2  0
 22 27  1  0
 23 19  1  0
 23 27  1  0
 24 23  1  0
 25 26  1  0
 25 24  1  0
 26 22  1  0
 27 28  2  0
 28 29  1  0
 30 29  2  0
 31 30  1  0
 32  6  1  0
 32 37  1  0
 32 33  1  0
 33 36  1  1
 33 34  1  0
 35 33  1  0
 37 40  1  0
 38 42  1  0
 38 37  1  0
 39 38  2  0
 42 41  1  0
 44 42  1  0
 44 45  1  0
 44 43  1  0
 46 47  1  0
 48 50  2  0
 49 48  1  0
 49 51  2  0
 50 61  1  0
 50 52  1  0
 51 46  1  0
 51 52  1  0
 53 61  1  0
 54 59  1  0
 55 56  1  0
 55 54  1  0
 57 56  1  0
 57 66  1  0
 57 58  1  0
 59 53  1  0
 59 58  1  0
 60 53  2  0
 61 62  1  0
 63 64  2  0
 64 83  1  0
 65 64  1  0
 65 68  1  0
 66 63  1  0
 66 67  1  0
 67 65  2  0
 68 69  1  0
 69 70  2  0
 71 74  1  0
 71 70  1  0
 72 71  2  0
 73 72  1  0
 73 68  2  0
 74 75  1  0
 75 76  1  0
 76 77  2  0
 78 77  1  0
 78 82  1  0
 79 78  2  0
 80 75  2  0
 80 79  1  0
 81 80  1  0
 83 84  1  0
 84 87  1  0
 84 86  1  0
 85 83  2  0
 88 89  1  0
 88 63  1  0
 90 88  1  0
M  ISO  4   4 101   5 101  53 100  61 100
M  END
>  <TORSDO>  (14) 
F 20

>  <SCORE>  (14) 
-13.807

>  <name>  (14) 
13

>  <ligand_id>  (14) 
13

>  <original_smiles>  (14) 
[H]c1c(N([H])C(=O)N2C([H])([H])C([H])([H])C([H])([H])C([H])(n3nc(-c4c([H])c([H])c(Oc5c([H])c([H])c(F)c([H])c5F)c([H])c4[H])c(C(=O)N([H])[H])c3N([H])[H])C2([H])[H])oc(N([H])C([H])([H])C(=O)C([H])([H])Oc2c([H])c([H])c3c(c2[H])C([H])([H])N(C(=O)C([H])(N([H])C(=O)C([H])(N([H])C([H])([H])[H])C([H])([H])[H])C(C([H])([H])[H])(C([H])([H])[H])C([H])([H])[H])C([H])(C(=O)N([H])C2([H])c4c([H])c([H])c([H])c([H])c4C([H])([H])C([H])([H])C2([H])[H])C3([H])[H])c1[H]

>  <smiles>  (14) 
[H]c1c(N([H])C(=O)N2C([H])([H])C([H])([H])C([H])([H])C([H])(n3nc(-c4c([H])c([H])c(Oc5c([H])c([H])c(F)c([H])c5F)c([H])c4[H])c(C(=O)N([H])[H])c3N([H])[H])C2([H])[H])oc(N([H])C([H])([H])C(=O)C([H])([H])Oc2c([H])c([H])c3c(c2[H])C([H])([H])N(C(=O)C([H])(N([H])C(=O)C([H])(N([H])C([H])([H])[H])C([H])([H])[H])C(C([H])([H])[H])(C([H])([H])[H])C([H])([H])[H])C([H])(C(=O)N([H])C2([H])c4c([H])c([H])c([H])c([H])c4C([H])([H])C([H])([H])C2([H])[H])C3([H])[H])c1[H]

$$$$
14:0:0
     RDKit          3D

 92100  0  0  1  0  0  0  0  0999 V2000
  -28.8950  -21.3060   19.5560 C   0  0  0  0  0  3  0  0  0  0  0  0
  -28.7110  -20.5010   18.3000 C   0  0  0  0  0  1  0  0  0  0  0  0
  -29.3870  -20.6550   20.6580 N   0  0  0  0  0  0  0  0  0  0  0  0
  -28.5920  -22.6510   19.4450 N   0  0  0  0  0  0  0  0  0  0  0  0
  -29.7280  -21.1950   21.4400 H   0  0  0  0  0  0  0  0  0  0  0  0
  -28.2280  -22.8940   18.5320 H   0  0  0  0  0  0  0  0  0  0  0  0
  -31.1950  -19.0430   21.0710 C   0  0  0  0  0  3  0  0  0  0  0  0
  -31.3320  -17.6170   21.0370 C   0  0  0  0  0  3  0  0  0  0  0  0
  -29.9110  -19.3200   20.6900 C   0  0  0  0  0  0  0  0  0  0  0  0
  -30.1160  -17.0990   20.6690 C   0  0  0  0  0  0  0  0  0  0  0  0
  -29.2080  -18.1420   20.4480 O   0  0  0  0  0  0  0  0  0  0  0  0
  -30.5950  -14.6490   20.4040 C   0  0  0  0  0  0  0  0  0  0  0  0
  -30.3650  -12.4130   19.3530 C   0  0  0  0  0  2  0  0  0  0  0  0
  -29.4120  -12.5320   18.1440 C   0  0  0  0  0  2  0  0  0  0  0  0
  -27.9460  -12.3670   18.5890 C   0  0  0  0  0  2  0  0  0  0  0  0
  -27.5890  -13.2420   19.8200 C   0  0  0  0  0  3  0  0  0  0  0  0
  -28.6570  -13.1120   20.9290 C   0  0  0  0  0  2  0  0  0  0  0  0
  -29.9560  -13.4410   20.3300 N   0  0  0  0  0  0  0  0  0  0  0  0
  -31.7800  -14.7570   20.0770 O   0  0  0  0  0  0  0  0  0  0  0  0
  -29.7950  -15.7490   20.5980 N   0  0  0  0  0  0  0  0  0  0  0  0
  -28.8120  -15.5370   20.6540 H   0  0  0  0  0  0  0  0  0  0  0  0
  -25.2060  -13.8390   20.5720 C   0  0  0  0  0  0  0  0  0  0  0  0
  -24.1430  -13.0610   20.9470 C   0  0  0  0  0  0  0  0  0  0  0  0
  -24.6070  -11.7100   20.9040 C   0  0  0  0  0  0  0  0  0  0  0  0
  -26.2480  -12.9590   20.3200 N   0  0  0  0  0  0  0  0  0  0  0  0
  -25.8950  -11.6760   20.5850 N   0  0  0  0  0  0  0  0  0  0  0  0
  -23.8850  -10.4450   21.0890 C   0  0  0  0  0  0  0  0  0  0  0  0
  -24.3310   -9.4670   22.0050 C   0  0  0  0  0  3  0  0  0  0  0  0
  -23.6080   -8.2680   22.1800 C   0  0  0  0  0  3  0  0  0  0  0  0
  -22.4240   -8.0390   21.4390 C   0  0  0  0  0  0  0  0  0  0  0  0
  -21.9960   -9.0060   20.5130 C   0  0  0  0  0  3  0  0  0  0  0  0
  -22.7210  -10.1970   20.3360 C   0  0  0  0  0  3  0  0  0  0  0  0
  -21.6720   -6.8930   21.5240 O   0  0  0  0  0  0  0  0  0  0  0  0
  -21.6460   -6.1300   22.6640 C   0  0  0  0  0  0  0  0  0  0  0  0
  -21.2480   -6.6640   23.9090 C   0  0  0  0  0  3  0  0  0  0  0  0
  -21.1710   -5.8280   25.0400 C   0  0  0  0  0  3  0  0  0  0  0  0
  -21.4820   -4.4610   24.9290 C   0  0  0  0  0  0  0  0  0  0  0  0
  -21.8750   -3.9260   23.6890 C   0  0  0  0  0  3  0  0  0  0  0  0
  -21.9540   -4.7580   22.5600 C   0  0  0  0  0  0  0  0  0  0  0  0
  -22.3130   -4.2340   21.3620 F   0  0  0  0  0  0  0  0  0  0  0  0
  -21.4020   -3.6550   26.0140 F   0  0  0  0  0  0  0  0  0  0  0  0
  -22.7480  -13.5350   21.2310 C   0  0  0  0  0  0  0  0  0  0  0  0
  -22.0250  -12.8320   22.0950 N   0  0  0  0  0  0  0  0  0  0  0  0
  -22.3070  -14.5650   20.7220 O   0  0  0  0  0  0  0  0  0  0  0  0
  -22.3930  -11.9980   22.5280 H   0  0  0  0  0  0  0  0  0  0  0  0
  -21.0900  -13.1360   22.3280 H   0  0  0  0  0  0  0  0  0  0  0  0
  -25.3620  -15.2110   20.4000 N   0  0  0  0  0  0  0  0  0  0  0  0
  -24.5820  -15.8490   20.5120 H   0  0  0  0  0  0  0  0  0  0  0  0
  -26.1880  -15.6630   20.0300 H   0  0  0  0  0  0  0  0  0  0  0  0
  -28.6150  -23.8730   20.3340 C   0  0  0  0  0  2  0  0  0  0  0  0
  -28.5030  -25.2470   19.5280 C   0  0  0  0  0  2  0  0  0  0  0  0
  -28.3710  -26.5460   20.2240 O   0  0  0  0  0  0  0  0  0  0  0  0
  -24.5920  -31.8830   23.2340 C   0  0  0  0  0  0  0  0  0  0  0  0
  -27.2130  -27.3350   20.1710 C   0  0  0  0  0  0  0  0  0  0  0  0
  -23.3860  -30.4790   21.5980 C   0  0  0  0  0  3  0  0  0  0  0  0
  -24.8340  -28.9270   20.1750 C   0  0  0  0  0  0  0  0  0  0  0  0
  -25.9230  -30.8060   21.4060 C   0  0  0  0  0  2  0  0  0  0  0  0
  -26.0020  -29.4260   20.7640 C   0  0  0  0  0  0  0  0  0  0  0  0
  -27.1910  -28.6410   20.7510 C   0  0  0  0  0  3  0  0  0  0  0  0
  -26.0090  -26.8720   19.5880 C   0  0  0  0  0  3  0  0  0  0  0  0
  -24.8390  -27.6550   19.5850 C   0  0  0  0  0  3  0  0  0  0  0  0
  -23.5990  -29.8000   20.2200 C   0  0  0  0  0  2  0  0  0  0  0  0
  -24.6540  -31.0730   22.1380 N   0  0  0  0  0  0  0  0  0  0  0  0
  -23.5090  -32.1600   23.7680 O   0  0  0  0  0  0  0  0  0  0  0  0
  -22.7290  -29.4640   22.5630 C   0  0  0  0  0  0  0  0  0  0  0  0
  -21.4030  -29.2820   22.4340 N   0  0  0  0  0  0  0  0  0  0  0  0
  -23.4080  -28.8420   23.3830 O   0  0  0  0  0  0  0  0  0  0  0  0
  -20.9130  -29.8370   21.7460 H   0  0  0  0  0  0  0  0  0  0  0  0
  -18.0300  -28.0690   22.9260 C   0  0  0  0  0  0  0  0  0  0  0  0
  -20.5860  -28.3440   23.2070 C   0  0  0  0  0  3  0  0  0  0  0  0
  -20.6990  -26.9100   22.6420 C   0  0  0  0  0  2  0  0  0  0  0  0
  -19.6040  -26.5720   21.6260 C   0  0  0  0  0  2  0  0  0  0  0  0
  -18.2180  -26.7150   22.2610 C   0  0  0  0  0  2  0  0  0  0  0  0
  -19.1420  -28.8400   23.3560 C   0  0  0  0  0  0  0  0  0  0  0  0
  -18.9130  -30.1070   23.9360 C   0  0  0  0  0  3  0  0  0  0  0  0
  -17.6040  -30.6010   24.0930 C   0  0  0  0  0  3  0  0  0  0  0  0
  -16.5080  -29.8280   23.6780 C   0  0  0  0  0  3  0  0  0  0  0  0
  -16.7190  -28.5640   23.1010 C   0  0  0  0  0  3  0  0  0  0  0  0
  -25.8750  -32.5180   23.8540 C   0  0  0  0  0  3  0  0  0  0  0  0
  -26.3920  -31.7540   25.1340 C   0  0  1  0  0  0  0  0  0  0  0  0
  -25.3010  -31.5240   26.2050 C   0  0  0  0  0  1  0  0  0  0  0  0
  -26.9750  -30.3740   24.7480 C   0  0  0  0  0  1  0  0  0  0  0  0
  -27.5430  -32.5530   25.7920 C   0  0  0  0  0  1  0  0  0  0  0  0
  -25.5660  -33.9180   24.1790 N   0  0  0  0  0  0  0  0  0  0  0  0
  -25.8950  -34.9680   23.4150 C   0  0  0  0  0  0  0  0  0  0  0  0
  -26.5620  -34.8620   22.3820 O   0  0  0  0  0  0  0  0  0  0  0  0
  -24.9840  -34.0760   24.9880 H   0  0  0  0  0  0  0  0  0  0  0  0
  -24.1670  -36.7600   23.0590 C   0  0  0  0  0  1  0  0  0  0  0  0
  -25.4090  -36.3580   23.8690 C   0  0  0  0  0  3  0  0  0  0  0  0
  -27.5440  -37.2450   24.6970 C   0  0  0  0  0  1  0  0  0  0  0  0
  -26.4430  -37.4100   23.7540 N   0  0  0  0  0  0  0  0  0  0  0  0
  -26.0360  -38.3300   23.9000 H   0  0  0  0  0  0  0  0  0  0  0  0
  1  2  1  0
  1  3  1  0
  3  9  1  0
  3  5  1  0
  4  1  1  0
  4 50  1  0
  6  4  1  0
  8  7  1  0
  9  7  2  0
 10  8  2  0
 11 10  1  0
 11  9  1  0
 12 20  1  0
 13 18  1  0
 14 15  1  0
 14 13  1  0
 16 15  1  0
 16 25  1  0
 16 17  1  0
 18 12  1  0
 18 17  1  0
 19 12  2  0
 20 21  1  0
 20 10  1  0
 22 23  2  0
 23 42  1  0
 24 23  1  0
 24 27  1  0
 25 22  1  0
 25 26  1  0
 26 24  2  0
 27 28  1  0
 28 29  2  0
 30 33  1  0
 30 29  1  0
 31 30  2  0
 32 31  1  0
 32 27  2  0
 33 34  1  0
 34 35  1  0
 35 36  2  0
 37 36  1  0
 37 41  1  0
 38 37  2  0
 39 34  2  0
 39 38  1  0
 40 39  1  0
 42 43  1  0
 43 46  1  0
 43 45  1  0
 44 42  2  0
 47 48  1  0
 47 22  1  0
 49 47  1  0
 51 52  1  0
 51 50  1  0
 53 64  2  0
 54 52  1  0
 54 59  1  0
 55 63  1  0
 55 65  1  0
 56 62  1  0
 56 58  1  0
 57 63  1  0
 58 57  1  0
 59 58  2  0
 60 54  2  0
 61 60  1  0
 61 56  2  0
 62 55  1  0
 63 53  1  0
 65 67  2  0
 66 65  1  0
 68 66  1  0
 69 78  2  0
 69 74  1  0
 70 66  1  0
 70 74  1  0
 71 70  1  0
 72 73  1  0
 72 71  1  0
 73 69  1  0
 74 75  2  0
 75 76  1  0
 77 76  2  0
 78 77  1  0
 79 53  1  0
 79 84  1  0
 79 80  1  0
 80 83  1  1
 80 81  1  0
 82 80  1  0
 84 87  1  0
 85 89  1  0
 85 84  1  0
 86 85  2  0
 89 88  1  0
 91 89  1  0
 91 92  1  0
 91 90  1  0
M  ISO  4  12 100  20 100  51 101  52 101
M  END
>  <TORSDO>  (15) 
F 19

>  <SCORE>  (15) 
-14.399

>  <name>  (15) 
14

>  <ligand_id>  (15) 
14

>  <original_smiles>  (15) 
[H]c1c(N([H])C(=O)N2C([H])([H])C([H])([H])C([H])([H])C([H])(n3nc(-c4c([H])c([H])c(Oc5c([H])c([H])c(F)c([H])c5F)c([H])c4[H])c(C(=O)N([H])[H])c3N([H])[H])C2([H])[H])oc(N([H])C(=[N+]([H])C([H])([H])C([H])([H])Oc2c([H])c([H])c3c(c2[H])C([H])([H])N(C(=O)C([H])(N([H])C(=O)C([H])(N([H])C([H])([H])[H])C([H])([H])[H])C(C([H])([H])[H])(C([H])([H])[H])C([H])([H])[H])C([H])(C(=O)N([H])C2([H])c4c([H])c([H])c([H])c([H])c4C([H])([H])C([H])([H])C2([H])[H])C3([H])[H])C([H])([H])[H])c1[H]

>  <smiles>  (15) 
[H]c1c(N([H])C(=O)N2C([H])([H])C([H])([H])C([H])([H])C([H])(n3nc(-c4c([H])c([H])c(Oc5c([H])c([H])c(F)c([H])c5F)c([H])c4[H])c(C(=O)N([H])[H])c3N([H])[H])C2([H])[H])oc(N([H])C(=[N+]([H])C([H])([H])C([H])([H])Oc2c([H])c([H])c3c(c2[H])C([H])([H])N(C(=O)C([H])(N([H])C(=O)C([H])(N([H])C([H])([H])[H])C([H])([H])[H])C(C([H])([H])[H])(C([H])([H])[H])C([H])([H])[H])C([H])(C(=O)N([H])C2([H])c4c([H])c([H])c([H])c([H])c4C([H])([H])C([H])([H])C2([H])[H])C3([H])[H])C([H])([H])[H])c1[H]

$$$$
15:0:0
     RDKit          3D

 96105  0  0  1  0  0  0  0  0999 V2000
  -28.7270  -23.7970   20.9990 C   0  0  0  0  0  0  0  0  0  0  0  0
  -29.3500  -21.2450   20.9180 C   0  0  0  0  0  3  0  0  0  0  0  0
  -28.3570  -24.2380   18.7080 C   0  0  0  0  0  2  0  0  0  0  0  0
  -28.5620  -22.7050   18.9270 C   0  0  0  0  0  2  0  0  0  0  0  0
  -28.0000  -24.8450   20.0690 C   0  0  0  0  0  3  0  0  0  0  0  0
  -28.9430  -22.4710   20.3420 N   0  0  0  0  0  0  0  0  0  0  0  0
  -29.4580  -21.2060   22.2470 N   0  0  0  0  0  0  0  0  0  0  0  0
  -29.0270  -24.0170   22.1780 O   0  0  0  0  0  0  0  0  0  0  0  0
  -29.8100  -20.3820   22.7070 H   0  0  0  0  0  0  0  0  0  0  0  0
  -29.3110  -22.0540   22.7800 H   0  0  0  0  0  0  0  0  0  0  0  0
  -29.5030  -18.5640   20.7300 C   0  0  0  0  0  3  0  0  0  0  0  0
  -30.6390  -20.0160   19.1380 C   0  0  0  0  0  3  0  0  0  0  0  0
  -30.9340  -17.5770   19.0350 C   0  0  0  0  0  3  0  0  0  0  0  0
  -29.7660  -19.9220   20.2400 C   0  0  0  0  0  0  0  0  0  0  0  0
  -30.0970  -17.3550   20.1560 C   0  0  0  0  0  0  0  0  0  0  0  0
  -31.2000  -18.8710   18.5420 C   0  0  0  0  0  0  0  0  0  0  0  0
  -32.0290  -19.0200   17.4820 F   0  0  0  0  0  0  0  0  0  0  0  0
  -30.5890  -14.7830   20.3590 C   0  0  0  0  0  0  0  0  0  0  0  0
  -30.3680  -12.4970   19.3760 C   0  0  0  0  0  2  0  0  0  0  0  0
  -29.4360  -12.5690   18.1450 C   0  0  0  0  0  2  0  0  0  0  0  0
  -27.9660  -12.4030   18.5730 C   0  0  0  0  0  2  0  0  0  0  0  0
  -27.5930  -13.2970   19.7860 C   0  0  0  0  0  3  0  0  0  0  0  0
  -28.6480  -13.2190   20.9110 C   0  0  0  0  0  2  0  0  0  0  0  0
  -29.9480  -13.5620   20.3200 N   0  0  0  0  0  0  0  0  0  0  0  0
  -31.7740  -14.8440   20.0210 O   0  0  0  0  0  0  0  0  0  0  0  0
  -29.8560  -15.9440   20.6090 N   0  0  0  0  0  0  0  0  0  0  0  0
  -28.9620  -15.7820   21.0480 H   0  0  0  0  0  0  0  0  0  0  0  0
  -25.2060  -13.8950   20.5060 C   0  0  0  0  0  0  0  0  0  0  0  0
  -24.1380  -13.1240   20.8770 C   0  0  0  0  0  0  0  0  0  0  0  0
  -24.5990  -11.7730   20.8560 C   0  0  0  0  0  0  0  0  0  0  0  0
  -26.2480  -13.0120   20.2760 N   0  0  0  0  0  0  0  0  0  0  0  0
  -25.8900  -11.7300   20.5510 N   0  0  0  0  0  0  0  0  0  0  0  0
  -23.8680  -10.5130   21.0510 C   0  0  0  0  0  0  0  0  0  0  0  0
  -24.3080   -9.5380   21.9750 C   0  0  0  0  0  3  0  0  0  0  0  0
  -23.5760   -8.3450   22.1580 C   0  0  0  0  0  3  0  0  0  0  0  0
  -22.3920   -8.1170   21.4180 C   0  0  0  0  0  0  0  0  0  0  0  0
  -21.9720   -9.0790   20.4830 C   0  0  0  0  0  3  0  0  0  0  0  0
  -22.7030  -10.2640   20.2980 C   0  0  0  0  0  3  0  0  0  0  0  0
  -21.6310   -6.9760   21.5110 O   0  0  0  0  0  0  0  0  0  0  0  0
  -21.6080   -6.2190   22.6550 C   0  0  0  0  0  0  0  0  0  0  0  0
  -21.2320   -6.7640   23.9020 C   0  0  0  0  0  3  0  0  0  0  0  0
  -21.1540   -5.9350   25.0380 C   0  0  0  0  0  3  0  0  0  0  0  0
  -21.4410   -4.5610   24.9290 C   0  0  0  0  0  0  0  0  0  0  0  0
  -21.8080   -4.0150   23.6870 C   0  0  0  0  0  3  0  0  0  0  0  0
  -21.8880   -4.8420   22.5530 C   0  0  0  0  0  0  0  0  0  0  0  0
  -22.2230   -4.3060   21.3540 F   0  0  0  0  0  0  0  0  0  0  0  0
  -21.3580   -3.7620   26.0190 F   0  0  0  0  0  0  0  0  0  0  0  0
  -22.7410  -13.6060   21.1420 C   0  0  0  0  0  0  0  0  0  0  0  0
  -22.0100  -12.9200   22.0120 N   0  0  0  0  0  0  0  0  0  0  0  0
  -22.3070  -14.6280   20.6110 O   0  0  0  0  0  0  0  0  0  0  0  0
  -22.3730  -12.0930   22.4630 H   0  0  0  0  0  0  0  0  0  0  0  0
  -21.0720  -13.2260   22.2320 H   0  0  0  0  0  0  0  0  0  0  0  0
  -25.3740  -15.2630   20.3200 N   0  0  0  0  0  0  0  0  0  0  0  0
  -24.6040  -15.9170   20.4190 H   0  0  0  0  0  0  0  0  0  0  0  0
  -26.2150  -15.6970   19.9610 H   0  0  0  0  0  0  0  0  0  0  0  0
  -28.2580  -26.3330   20.2450 O   0  0  0  0  0  0  0  0  0  0  0  0
  -24.6200  -31.8780   23.2260 C   0  0  0  0  0  0  0  0  0  0  0  0
  -27.1790  -27.2530   20.1590 C   0  0  0  0  0  0  0  0  0  0  0  0
  -23.4020  -30.4850   21.5940 C   0  0  0  0  0  3  0  0  0  0  0  0
  -24.8370  -28.9310   20.1510 C   0  0  0  0  0  0  0  0  0  0  0  0
  -25.9460  -30.7770   21.4010 C   0  0  0  0  0  2  0  0  0  0  0  0
  -26.0140  -29.3940   20.7490 C   0  0  0  0  0  0  0  0  0  0  0  0
  -27.1870  -28.5680   20.7450 C   0  0  0  0  0  3  0  0  0  0  0  0
  -25.9840  -26.8780   19.5040 C   0  0  0  0  0  3  0  0  0  0  0  0
  -24.8280  -27.6810   19.5150 C   0  0  0  0  0  3  0  0  0  0  0  0
  -23.6050  -29.8130   20.2110 C   0  0  0  0  0  2  0  0  0  0  0  0
  -24.6750  -31.0660   22.1280 N   0  0  0  0  0  0  0  0  0  0  0  0
  -23.5400  -32.1600   23.7660 O   0  0  0  0  0  0  0  0  0  0  0  0
  -22.7400  -29.4710   22.5590 C   0  0  0  0  0  0  0  0  0  0  0  0
  -21.4120  -29.2980   22.4440 N   0  0  0  0  0  0  0  0  0  0  0  0
  -23.4210  -28.8430   23.3740 O   0  0  0  0  0  0  0  0  0  0  0  0
  -20.9200  -29.8570   21.7600 H   0  0  0  0  0  0  0  0  0  0  0  0
  -18.0360  -28.0990   22.9620 C   0  0  0  0  0  0  0  0  0  0  0  0
  -20.5950  -28.3630   23.2210 C   0  0  0  0  0  3  0  0  0  0  0  0
  -20.6960  -26.9290   22.6520 C   0  0  0  0  0  2  0  0  0  0  0  0
  -19.5910  -26.6010   21.6420 C   0  0  0  0  0  2  0  0  0  0  0  0
  -18.2110  -26.7480   22.2900 C   0  0  0  0  0  2  0  0  0  0  0  0
  -19.1550  -28.8640   23.3840 C   0  0  0  0  0  0  0  0  0  0  0  0
  -18.9360  -30.1300   23.9730 C   0  0  0  0  0  3  0  0  0  0  0  0
  -17.6310  -30.6290   24.1420 C   0  0  0  0  0  3  0  0  0  0  0  0
  -16.5270  -29.8610   23.7360 C   0  0  0  0  0  3  0  0  0  0  0  0
  -16.7300  -28.5970   23.1500 C   0  0  0  0  0  3  0  0  0  0  0  0
  -25.9070  -32.5090   23.8390 C   0  0  0  0  0  3  0  0  0  0  0  0
  -25.5990  -33.9050   24.1820 N   0  0  0  0  0  0  0  0  0  0  0  0
  -25.9160  -34.9640   23.4270 C   0  0  0  0  0  0  0  0  0  0  0  0
  -26.5690  -34.8690   22.3830 O   0  0  0  0  0  0  0  0  0  0  0  0
  -25.0190  -34.0530   24.9950 H   0  0  0  0  0  0  0  0  0  0  0  0
  -24.1760  -36.7550   23.1190 C   0  0  0  0  0  1  0  0  0  0  0  0
  -25.4350  -36.3490   23.9020 C   0  0  0  0  0  3  0  0  0  0  0  0
  -27.5850  -37.2350   24.6910 C   0  0  0  0  0  1  0  0  0  0  0  0
  -26.4620  -37.4060   23.7730 N   0  0  0  0  0  0  0  0  0  0  0  0
  -26.0560  -38.3240   23.9360 H   0  0  0  0  0  0  0  0  0  0  0  0
  -26.4350  -31.7320   25.1070 C   0  0  1  0  0  0  0  0  0  0  0  0
  -25.3520  -31.4920   26.1850 C   0  0  0  0  0  1  0  0  0  0  0  0
  -27.0120  -30.3540   24.7050 C   0  0  0  0  0  1  0  0  0  0  0  0
  -27.5950  -32.5210   25.7600 C   0  0  0  0  0  1  0  0  0  0  0  0
  1  8  2  0
  2  7  1  0
  3  4  1  0
  3  5  1  0
  4  6  1  0
  5 56  1  0
  5  1  1  0
  6  2  1  0
  6  1  1  0
  7  9  1  0
  7 10  1  0
 12 14  2  0
 13 15  1  0
 14 11  1  0
 14  2  1  0
 15 26  1  0
 15 11  2  0
 16 13  2  0
 16 12  1  0
 17 16  1  0
 18 26  1  0
 19 24  1  0
 20 21  1  0
 20 19  1  0
 22 21  1  0
 22 31  1  0
 22 23  1  0
 24 18  1  0
 24 23  1  0
 25 18  2  0
 26 27  1  0
 28 29  2  0
 29 48  1  0
 30 29  1  0
 30 33  1  0
 31 28  1  0
 31 32  1  0
 32 30  2  0
 33 34  1  0
 34 35  2  0
 36 39  1  0
 36 35  1  0
 37 36  2  0
 38 37  1  0
 38 33  2  0
 39 40  1  0
 40 41  1  0
 41 42  2  0
 43 42  1  0
 43 47  1  0
 44 43  2  0
 45 40  2  0
 45 44  1  0
 46 45  1  0
 48 49  1  0
 49 52  1  0
 49 51  1  0
 50 48  2  0
 53 54  1  0
 53 28  1  0
 55 53  1  0
 57 68  2  0
 58 56  1  0
 58 63  1  0
 59 67  1  0
 59 69  1  0
 60 66  1  0
 60 62  1  0
 61 67  1  0
 62 61  1  0
 63 62  2  0
 64 65  1  0
 64 58  2  0
 65 60  2  0
 66 59  1  0
 67 57  1  0
 69 71  2  0
 70 69  1  0
 72 70  1  0
 73 82  2  0
 73 78  1  0
 74 70  1  0
 74 78  1  0
 75 74  1  0
 76 77  1  0
 76 75  1  0
 77 73  1  0
 78 79  2  0
 79 80  1  0
 81 80  2  0
 82 81  1  0
 83 57  1  0
 83 84  1  0
 83 93  1  0
 84 87  1  0
 85 89  1  0
 85 84  1  0
 86 85  2  0
 89 88  1  0
 91 89  1  0
 91 92  1  0
 91 90  1  0
 93 96  1  1
 93 94  1  0
 95 93  1  0
M  ISO  4   5 101  18 100  26 100  56 101
M  END
>  <TORSDO>  (16) 
F 17

>  <SCORE>  (16) 
-15.497

>  <name>  (16) 
15

>  <ligand_id>  (16) 
15

>  <original_smiles>  (16) 
[H]c1c([H])c([H])c2c(c1[H])C([H])([H])C([H])([H])C([H])([H])C2([H])N([H])C(=O)C1([H])N(C(=O)C([H])(N([H])C(=O)C([H])(N([H])C([H])([H])[H])C([H])([H])[H])C(C([H])([H])[H])(C([H])([H])[H])C([H])([H])[H])C([H])([H])c2c([H])c(OC3([H])C(=O)N(C(c4c([H])c(F)c([H])c(N([H])C(=O)N5C([H])([H])C([H])([H])C([H])([H])C([H])(n6nc(-c7c([H])c([H])c(Oc8c([H])c([H])c(F)c([H])c8F)c([H])c7[H])c(C(=O)N([H])[H])c6N([H])[H])C5([H])[H])c4[H])=[N+]([H])[H])C([H])([H])C3([H])[H])c([H])c([H])c2C1([H])[H]

>  <smiles>  (16) 
[H]c1c([H])c([H])c2c(c1[H])C([H])([H])C([H])([H])C([H])([H])C2([H])N([H])C(=O)C1([H])N(C(=O)C([H])(N([H])C(=O)C([H])(N([H])C([H])([H])[H])C([H])([H])[H])C(C([H])([H])[H])(C([H])([H])[H])C([H])([H])[H])C([H])([H])c2c([H])c(OC3([H])C(=O)N(C(c4c([H])c(F)c([H])c(N([H])C(=O)N5C([H])([H])C([H])([H])C([H])([H])C([H])(n6nc(-c7c([H])c([H])c(Oc8c([H])c([H])c(F)c([H])c8F)c([H])c7[H])c(C(=O)N([H])[H])c6N([H])[H])C5([H])[H])c4[H])=[N+]([H])[H])C([H])([H])C3([H])[H])c([H])c([H])c2C1([H])[H]

$$$$
16:0:0
     RDKit          3D

 96104  0  0  1  0  0  0  0  0999 V2000
  -29.0800  -20.8440   20.5140 C   0  0  0  0  0  0  0  0  0  0  0  0
  -27.7990  -20.7620   20.1370 N   0  0  0  0  0  4  0  0  0  0  0  0
  -29.6730  -22.0660   20.6470 N   0  0  0  0  0  0  0  0  0  0  0  0
  -27.3640  -19.8560   20.0750 H   0  0  0  0  0  0  0  0  0  0  0  0
  -27.2410  -21.5710   19.9360 H   0  0  0  0  0  0  0  0  0  0  0  0
  -30.6310  -21.9360   20.9580 H   0  0  0  0  0  0  0  0  0  0  0  0
  -31.6330  -17.4860   21.1490 C   0  0  0  0  0  3  0  0  0  0  0  0
  -29.4160  -18.2470   20.5960 C   0  0  0  0  0  3  0  0  0  0  0  0
  -32.0030  -18.8330   21.3010 C   0  0  0  0  0  3  0  0  0  0  0  0
  -30.3150  -17.1440   20.7710 C   0  0  0  0  0  0  0  0  0  0  0  0
  -29.8830  -19.5930   20.7600 C   0  0  0  0  0  0  0  0  0  0  0  0
  -31.1610  -19.8660   21.1080 N   0  0  0  0  0  0  0  0  0  0  0  0
  -30.6250  -14.6710   20.1810 C   0  0  0  0  0  0  0  0  0  0  0  0
  -30.3120  -12.4910   19.0290 C   0  0  0  0  0  2  0  0  0  0  0  0
  -29.3250  -12.6720   17.8560 C   0  0  0  0  0  2  0  0  0  0  0  0
  -27.8730  -12.4980   18.3420 C   0  0  0  0  0  2  0  0  0  0  0  0
  -27.5690  -13.3210   19.6240 C   0  0  0  0  0  3  0  0  0  0  0  0
  -28.6730  -13.1360   20.6910 C   0  0  0  0  0  2  0  0  0  0  0  0
  -29.9580  -13.4800   20.0660 N   0  0  0  0  0  0  0  0  0  0  0  0
  -31.7660  -14.7940   19.7230 O   0  0  0  0  0  0  0  0  0  0  0  0
  -29.9070  -15.7500   20.6270 N   0  0  0  0  0  0  0  0  0  0  0  0
  -28.9420  -15.5500   20.8330 H   0  0  0  0  0  0  0  0  0  0  0  0
  -25.2040  -13.8940   20.4450 C   0  0  0  0  0  0  0  0  0  0  0  0
  -24.1590  -13.1090   20.8460 C   0  0  0  0  0  0  0  0  0  0  0  0
  -24.6280  -11.7610   20.7770 C   0  0  0  0  0  0  0  0  0  0  0  0
  -26.2430  -13.0230   20.1560 N   0  0  0  0  0  0  0  0  0  0  0  0
  -25.9040  -11.7350   20.4170 N   0  0  0  0  0  0  0  0  0  0  0  0
  -23.9180  -10.4900   20.9780 C   0  0  0  0  0  0  0  0  0  0  0  0
  -24.3720   -9.5290   21.9070 C   0  0  0  0  0  3  0  0  0  0  0  0
  -23.6620   -8.3240   22.0960 C   0  0  0  0  0  3  0  0  0  0  0  0
  -22.4830   -8.0710   21.3530 C   0  0  0  0  0  0  0  0  0  0  0  0
  -22.0480   -9.0220   20.4130 C   0  0  0  0  0  3  0  0  0  0  0  0
  -22.7590  -10.2180   20.2230 C   0  0  0  0  0  3  0  0  0  0  0  0
  -21.7440   -6.9170   21.4510 O   0  0  0  0  0  0  0  0  0  0  0  0
  -21.6950   -6.1900   22.6120 C   0  0  0  0  0  0  0  0  0  0  0  0
  -21.2210   -6.7450   23.8210 C   0  0  0  0  0  3  0  0  0  0  0  0
  -21.1200   -5.9410   24.9740 C   0  0  0  0  0  3  0  0  0  0  0  0
  -21.4860   -4.5830   24.9210 C   0  0  0  0  0  0  0  0  0  0  0  0
  -21.9550   -4.0260   23.7180 C   0  0  0  0  0  3  0  0  0  0  0  0
  -22.0560   -4.8270   22.5660 C   0  0  0  0  0  0  0  0  0  0  0  0
  -22.4880   -4.2800   21.4050 F   0  0  0  0  0  0  0  0  0  0  0  0
  -21.3830   -3.8090   26.0270 F   0  0  0  0  0  0  0  0  0  0  0  0
  -22.7710  -13.5710   21.1800 C   0  0  0  0  0  0  0  0  0  0  0  0
  -22.0780  -12.8520   22.0560 N   0  0  0  0  0  0  0  0  0  0  0  0
  -22.3090  -14.6070   20.7010 O   0  0  0  0  0  0  0  0  0  0  0  0
  -22.4640  -12.0150   22.4680 H   0  0  0  0  0  0  0  0  0  0  0  0
  -21.1480  -13.1460   22.3190 H   0  0  0  0  0  0  0  0  0  0  0  0
  -25.3510  -15.2690   20.2780 N   0  0  0  0  0  0  0  0  0  0  0  0
  -24.5770  -15.9110   20.4080 H   0  0  0  0  0  0  0  0  0  0  0  0
  -26.1650  -15.7130   19.8740 H   0  0  0  0  0  0  0  0  0  0  0  0
  -29.3090  -23.4890   20.2990 C   0  0  0  0  0  2  0  0  0  0  0  0
  -27.2050  -24.0590   21.6170 C   0  0  0  0  0  1  0  0  0  0  0  0
  -29.4270  -24.0690   22.7750 C   0  0  0  0  0  1  0  0  0  0  0  0
  -28.7010  -24.3890   21.4460 C   0  0  1  0  0  0  0  0  0  0  0  0
  -28.8820  -25.9580   21.2480 C   0  0  0  0  0  2  0  0  0  0  0  0
  -28.4100  -26.6150   20.0540 O   0  0  0  0  0  0  0  0  0  0  0  0
  -24.6080  -31.8830   23.2080 C   0  0  0  0  0  0  0  0  0  0  0  0
  -27.2860  -27.4200   20.1400 C   0  0  0  0  0  0  0  0  0  0  0  0
  -23.4240  -30.4850   21.5500 C   0  0  0  0  0  3  0  0  0  0  0  0
  -24.9010  -28.9570   20.1300 C   0  0  0  0  0  0  0  0  0  0  0  0
  -25.9540  -30.8380   21.3850 C   0  0  0  0  0  2  0  0  0  0  0  0
  -26.0540  -29.4650   20.7440 C   0  0  0  0  0  0  0  0  0  0  0  0
  -27.2540  -28.7030   20.7550 C   0  0  0  0  0  3  0  0  0  0  0  0
  -26.1220  -26.9480   19.5060 C   0  0  0  0  0  3  0  0  0  0  0  0
  -24.9320  -27.6990   19.5070 C   0  0  0  0  0  3  0  0  0  0  0  0
  -23.6550  -29.8170   20.1680 C   0  0  0  0  0  2  0  0  0  0  0  0
  -24.6790  -31.0860   22.1050 N   0  0  0  0  0  0  0  0  0  0  0  0
  -23.5210  -32.1470   23.7410 O   0  0  0  0  0  0  0  0  0  0  0  0
  -22.7700  -29.4540   22.4980 C   0  0  0  0  0  0  0  0  0  0  0  0
  -21.4440  -29.2790   22.3730 N   0  0  0  0  0  0  0  0  0  0  0  0
  -23.4520  -28.8140   23.3030 O   0  0  0  0  0  0  0  0  0  0  0  0
  -20.9530  -29.8530   21.7010 H   0  0  0  0  0  0  0  0  0  0  0  0
  -18.0660  -28.0980   22.9000 C   0  0  0  0  0  0  0  0  0  0  0  0
  -20.6290  -28.3290   23.1270 C   0  0  0  0  0  3  0  0  0  0  0  0
  -20.7140  -26.9170   22.5040 C   0  0  0  0  0  2  0  0  0  0  0  0
  -19.5800  -26.6170   21.5190 C   0  0  0  0  0  2  0  0  0  0  0  0
  -18.2220  -26.7510   22.2120 C   0  0  0  0  0  2  0  0  0  0  0  0
  -19.1980  -28.8430   23.3200 C   0  0  0  0  0  0  0  0  0  0  0  0
  -19.0010  -30.0990   23.9330 C   0  0  0  0  0  3  0  0  0  0  0  0
  -17.7050  -30.6140   24.1260 C   0  0  0  0  0  3  0  0  0  0  0  0
  -16.5870  -29.8660   23.7180 C   0  0  0  0  0  3  0  0  0  0  0  0
  -16.7680  -28.6090   23.1130 C   0  0  0  0  0  3  0  0  0  0  0  0
  -25.8850  -32.5210   23.8390 C   0  0  0  0  0  3  0  0  0  0  0  0
  -26.3980  -31.7500   25.1180 C   0  0  1  0  0  0  0  0  0  0  0  0
  -25.2940  -31.5060   26.1720 C   0  0  0  0  0  1  0  0  0  0  0  0
  -26.9930  -30.3750   24.7290 C   0  0  0  0  0  1  0  0  0  0  0  0
  -27.5370  -32.5510   25.7910 C   0  0  0  0  0  1  0  0  0  0  0  0
  -25.5660  -33.9180   24.1670 N   0  0  0  0  0  0  0  0  0  0  0  0
  -25.8970  -34.9720   23.4090 C   0  0  0  0  0  0  0  0  0  0  0  0
  -26.5760  -34.8730   22.3840 O   0  0  0  0  0  0  0  0  0  0  0  0
  -24.9660  -34.0700   24.9640 H   0  0  0  0  0  0  0  0  0  0  0  0
  -24.1710  -36.7610   23.0300 C   0  0  0  0  0  1  0  0  0  0  0  0
  -25.3980  -36.3560   23.8630 C   0  0  0  0  0  3  0  0  0  0  0  0
  -27.5100  -37.2470   24.7420 C   0  0  0  0  0  1  0  0  0  0  0  0
  -26.4290  -37.4140   23.7740 N   0  0  0  0  0  0  0  0  0  0  0  0
  -26.0180  -38.3320   23.9130 H   0  0  0  0  0  0  0  0  0  0  0  0
  1  3  1  0
  1 11  1  0
  2  1  2  0
  3  6  1  0
  4  2  1  0
  5  2  1  0
  7  9  1  0
  8 11  2  0
  8 10  1  0
 10  7  2  0
 11 12  1  0
 12  9  2  0
 13 21  1  0
 14 19  1  0
 15 16  1  0
 15 14  1  0
 17 16  1  0
 17 26  1  0
 17 18  1  0
 19 13  1  0
 19 18  1  0
 20 13  2  0
 21 10  1  0
 21 22  1  0
 23 24  2  0
 24 43  1  0
 25 24  1  0
 25 28  1  0
 26 27  1  0
 26 23  1  0
 27 25  2  0
 28 29  1  0
 29 30  2  0
 31 34  1  0
 31 30  1  0
 32 31  2  0
 33 32  1  0
 33 28  2  0
 34 35  1  0
 35 36  1  0
 36 37  2  0
 38 37  1  0
 38 42  1  0
 39 38  2  0
 40 35  2  0
 40 39  1  0
 41 40  1  0
 43 44  1  0
 44 47  1  0
 44 46  1  0
 45 43  2  0
 48 49  1  0
 48 23  1  0
 50 48  1  0
 51  3  1  0
 51 54  1  0
 54 52  1  1
 54 53  1  0
 55 54  1  0
 56 58  1  0
 56 55  1  0
 57 68  2  0
 58 63  1  0
 59 67  1  0
 59 69  1  0
 60 66  1  0
 60 62  1  0
 61 67  1  0
 62 63  2  0
 62 61  1  0
 64 65  1  0
 64 58  2  0
 65 60  2  0
 66 59  1  0
 67 57  1  0
 69 71  2  0
 70 69  1  0
 72 70  1  0
 73 82  2  0
 73 78  1  0
 74 70  1  0
 74 78  1  0
 75 74  1  0
 76 77  1  0
 76 75  1  0
 77 73  1  0
 78 79  2  0
 79 80  1  0
 81 80  2  0
 82 81  1  0
 83 57  1  0
 83 88  1  0
 83 84  1  0
 84 87  1  1
 84 85  1  0
 86 84  1  0
 88 91  1  0
 89 93  1  0
 89 88  1  0
 90 89  2  0
 93 92  1  0
 95 93  1  0
 95 96  1  0
 95 94  1  0
M  ISO  4  13 100  21 100  55 101  56 101
M  END
>  <TORSDO>  (17) 
F 20

>  <SCORE>  (17) 
-14.345

>  <name>  (17) 
16

>  <ligand_id>  (17) 
16

>  <original_smiles>  (17) 
[H]c1nc(C(N([H])[H])=[N+]([H])C([H])([H])C(C([H])([H])[H])(C([H])([H])[H])C([H])([H])Oc2c([H])c([H])c3c(c2[H])C([H])([H])N(C(=O)C([H])(N([H])C(=O)C([H])(N([H])C([H])([H])[H])C([H])([H])[H])C(C([H])([H])[H])(C([H])([H])[H])C([H])([H])[H])C([H])(C(=O)N([H])C2([H])c4c([H])c([H])c([H])c([H])c4C([H])([H])C([H])([H])C2([H])[H])C3([H])[H])c([H])c(N([H])C(=O)N2C([H])([H])C([H])([H])C([H])([H])C([H])(n3nc(-c4c([H])c([H])c(Oc5c([H])c([H])c(F)c([H])c5F)c([H])c4[H])c(C(=O)N([H])[H])c3N([H])[H])C2([H])[H])c1[H]

>  <smiles>  (17) 
[H]c1nc(C(N([H])[H])=[N+]([H])C([H])([H])C(C([H])([H])[H])(C([H])([H])[H])C([H])([H])Oc2c([H])c([H])c3c(c2[H])C([H])([H])N(C(=O)C([H])(N([H])C(=O)C([H])(N([H])C([H])([H])[H])C([H])([H])[H])C(C([H])([H])[H])(C([H])([H])[H])C([H])([H])[H])C([H])(C(=O)N([H])C2([H])c4c([H])c([H])c([H])c([H])c4C([H])([H])C([H])([H])C2([H])[H])C3([H])[H])c([H])c(N([H])C(=O)N2C([H])([H])C([H])([H])C([H])([H])C([H])(n3nc(-c4c([H])c([H])c(Oc5c([H])c([H])c(F)c([H])c5F)c([H])c4[H])c(C(=O)N([H])[H])c3N([H])[H])C2([H])[H])c1[H]

$$$$
17:0:0
     RDKit          3D

 93101  0  0  1  0  0  0  0  0999 V2000
  -27.1120  -22.6890   19.9950 C   0  0  0  0  0  1  0  0  0  0  0  0
  -28.4680  -22.8400   22.1410 C   0  0  0  0  0  1  0  0  0  0  0  0
  -28.5300  -22.8510   20.5940 C   0  0  2  0  0  0  0  0  0  0  0  0
  -29.0460  -24.2580   20.1360 C   0  0  0  0  0  0  0  0  0  0  0  0
  -29.9190  -24.3790   19.2700 O   0  0  0  0  0  0  0  0  0  0  0  0
  -28.3920  -25.5010   20.8050 C   0  0  0  0  0  2  0  0  0  0  0  0
  -28.4730  -26.7100   20.0310 O   0  0  0  0  0  0  0  0  0  0  0  0
  -24.6290  -31.8430   23.1980 C   0  0  0  0  0  0  0  0  0  0  0  0
  -27.3090  -27.4530   20.0610 C   0  0  0  0  0  0  0  0  0  0  0  0
  -23.4350  -30.4560   21.5310 C   0  0  0  0  0  3  0  0  0  0  0  0
  -24.9030  -28.9430   20.0910 C   0  0  0  0  0  0  0  0  0  0  0  0
  -25.9580  -30.8300   21.3480 C   0  0  0  0  0  2  0  0  0  0  0  0
  -26.0570  -29.4690   20.6880 C   0  0  0  0  0  0  0  0  0  0  0  0
  -27.2660  -28.7290   20.6710 C   0  0  0  0  0  3  0  0  0  0  0  0
  -26.1380  -26.9450   19.4570 C   0  0  0  0  0  3  0  0  0  0  0  0
  -24.9380  -27.6810   19.4720 C   0  0  0  0  0  3  0  0  0  0  0  0
  -23.6530  -29.7900   20.1450 C   0  0  0  0  0  2  0  0  0  0  0  0
  -24.6920  -31.0580   22.0840 N   0  0  0  0  0  0  0  0  0  0  0  0
  -23.5450  -32.1050   23.7390 O   0  0  0  0  0  0  0  0  0  0  0  0
  -22.7820  -29.4250   22.4770 C   0  0  0  0  0  0  0  0  0  0  0  0
  -21.4540  -29.2670   22.3640 N   0  0  0  0  0  0  0  0  0  0  0  0
  -23.4660  -28.7700   23.2680 O   0  0  0  0  0  0  0  0  0  0  0  0
  -20.9710  -29.8640   21.7080 H   0  0  0  0  0  0  0  0  0  0  0  0
  -18.0650  -28.0920   22.8930 C   0  0  0  0  0  0  0  0  0  0  0  0
  -20.6320  -28.3120   23.1030 C   0  0  0  0  0  3  0  0  0  0  0  0
  -20.7070  -26.9070   22.4570 C   0  0  0  0  0  2  0  0  0  0  0  0
  -19.5540  -26.6150   21.4920 C   0  0  0  0  0  2  0  0  0  0  0  0
  -18.2140  -26.7380   22.2200 C   0  0  0  0  0  2  0  0  0  0  0  0
  -19.2060  -28.8330   23.3030 C   0  0  0  0  0  0  0  0  0  0  0  0
  -19.0190  -30.0920   23.9150 C   0  0  0  0  0  3  0  0  0  0  0  0
  -17.7260  -30.6080   24.1190 C   0  0  0  0  0  3  0  0  0  0  0  0
  -16.6010  -29.8640   23.7240 C   0  0  0  0  0  3  0  0  0  0  0  0
  -16.7730  -28.6080   23.1130 C   0  0  0  0  0  3  0  0  0  0  0  0
  -25.9100  -32.4660   23.8350 C   0  0  0  0  0  3  0  0  0  0  0  0
  -26.4210  -31.6790   25.1040 C   0  0  1  0  0  0  0  0  0  0  0  0
  -25.3220  -31.4300   26.1640 C   0  0  0  0  0  1  0  0  0  0  0  0
  -27.0090  -30.3070   24.6970 C   0  0  0  0  0  1  0  0  0  0  0  0
  -27.5710  -32.4640   25.7790 C   0  0  0  0  0  1  0  0  0  0  0  0
  -25.5980  -33.8590   24.1780 N   0  0  0  0  0  0  0  0  0  0  0  0
  -25.9300  -34.9190   23.4290 C   0  0  0  0  0  0  0  0  0  0  0  0
  -26.6030  -34.8270   22.3980 O   0  0  0  0  0  0  0  0  0  0  0  0
  -24.9990  -34.0020   24.9770 H   0  0  0  0  0  0  0  0  0  0  0  0
  -24.2050  -36.7140   23.0780 C   0  0  0  0  0  1  0  0  0  0  0  0
  -25.4390  -36.3000   23.8950 C   0  0  0  0  0  3  0  0  0  0  0  0
  -27.5630  -37.1790   24.7570 C   0  0  0  0  0  1  0  0  0  0  0  0
  -26.4740  -37.3540   23.8020 N   0  0  0  0  0  0  0  0  0  0  0  0
  -26.0650  -38.2710   23.9570 H   0  0  0  0  0  0  0  0  0  0  0  0
  -29.4210  -21.6230   20.1470 C   0  0  0  0  0  2  0  0  0  0  0  0
  -28.8610  -20.3360   20.6130 N   0  0  0  0  0  0  0  0  0  0  0  0
  -27.9880  -20.3900   21.1230 H   0  0  0  0  0  0  0  0  0  0  0  0
  -30.6640  -14.5240   20.0680 C   0  0  0  0  0  0  0  0  0  0  0  0
  -30.3110  -12.3610   18.9300 C   0  0  0  0  0  2  0  0  0  0  0  0
  -29.3140  -12.6080   17.7760 C   0  0  0  0  0  2  0  0  0  0  0  0
  -27.8600  -12.4670   18.2670 C   0  0  0  0  0  2  0  0  0  0  0  0
  -27.5890  -13.2630   19.5720 C   0  0  0  0  0  3  0  0  0  0  0  0
  -28.7010  -13.0230   20.6200 C   0  0  0  0  0  2  0  0  0  0  0  0
  -29.9990  -13.3330   19.9910 N   0  0  0  0  0  0  0  0  0  0  0  0
  -31.7690  -14.6880   19.5420 O   0  0  0  0  0  0  0  0  0  0  0  0
  -29.0470  -17.8380   20.8740 C   0  0  0  0  0  3  0  0  0  0  0  0
  -30.0790  -16.9480   20.4520 C   0  0  0  0  0  0  0  0  0  0  0  0
  -29.4730  -19.0810   20.4850 C   0  0  0  0  0  0  0  0  0  0  0  0
  -31.0700  -17.6140   19.8640 N   0  0  0  0  0  0  0  0  0  0  0  0
  -29.9740  -15.5300   20.6480 N   0  0  0  0  0  0  0  0  0  0  0  0
  -30.6900  -18.9710   19.8820 O   0  0  0  0  0  0  0  0  0  0  0  0
  -29.1370  -15.2290   21.1190 H   0  0  0  0  0  0  0  0  0  0  0  0
  -25.2300  -13.8590   20.4110 C   0  0  0  0  0  0  0  0  0  0  0  0
  -24.1810  -13.0850   20.8220 C   0  0  0  0  0  0  0  0  0  0  0  0
  -24.6350  -11.7320   20.7470 C   0  0  0  0  0  0  0  0  0  0  0  0
  -26.2600  -12.9810   20.1120 N   0  0  0  0  0  0  0  0  0  0  0  0
  -25.9060  -11.6950   20.3660 N   0  0  0  0  0  0  0  0  0  0  0  0
  -23.9130  -10.4710   20.9560 C   0  0  0  0  0  0  0  0  0  0  0  0
  -24.3660   -9.5020   21.8780 C   0  0  0  0  0  3  0  0  0  0  0  0
  -23.6420   -8.3050   22.0720 C   0  0  0  0  0  3  0  0  0  0  0  0
  -22.4520   -8.0700   21.3440 C   0  0  0  0  0  0  0  0  0  0  0  0
  -22.0190   -9.0270   20.4110 C   0  0  0  0  0  3  0  0  0  0  0  0
  -22.7430  -10.2150   20.2150 C   0  0  0  0  0  3  0  0  0  0  0  0
  -21.6990   -6.9240   21.4490 O   0  0  0  0  0  0  0  0  0  0  0  0
  -21.6520   -6.1990   22.6120 C   0  0  0  0  0  0  0  0  0  0  0  0
  -21.1990   -6.7630   23.8250 C   0  0  0  0  0  3  0  0  0  0  0  0
  -21.0970   -5.9610   24.9790 C   0  0  0  0  0  3  0  0  0  0  0  0
  -21.4390   -4.5970   24.9220 C   0  0  0  0  0  0  0  0  0  0  0  0
  -21.8890   -4.0320   23.7150 C   0  0  0  0  0  3  0  0  0  0  0  0
  -21.9900   -4.8310   22.5620 C   0  0  0  0  0  0  0  0  0  0  0  0
  -22.4010   -4.2780   21.3950 F   0  0  0  0  0  0  0  0  0  0  0  0
  -21.3390   -3.8240   26.0280 F   0  0  0  0  0  0  0  0  0  0  0  0
  -22.8030  -13.5630   21.1810 C   0  0  0  0  0  0  0  0  0  0  0  0
  -22.1220  -12.8560   22.0770 N   0  0  0  0  0  0  0  0  0  0  0  0
  -22.3410  -14.6010   20.7060 O   0  0  0  0  0  0  0  0  0  0  0  0
  -22.5090  -12.0180   22.4840 H   0  0  0  0  0  0  0  0  0  0  0  0
  -21.2050  -13.1640   22.3650 H   0  0  0  0  0  0  0  0  0  0  0  0
  -25.3890  -15.2350   20.2510 N   0  0  0  0  0  0  0  0  0  0  0  0
  -24.6190  -15.8780   20.3980 H   0  0  0  0  0  0  0  0  0  0  0  0
  -26.2000  -15.6820   19.8450 H   0  0  0  0  0  0  0  0  0  0  0  0
  3  1  1  6
  3  2  1  0
  4  3  1  0
  4  6  1  0
  5  4  2  0
  7  9  1  0
  7  6  1  0
  8 19  2  0
  9 14  1  0
 10 18  1  0
 10 20  1  0
 11 17  1  0
 11 13  1  0
 12 18  1  0
 13 12  1  0
 14 13  2  0
 15 16  1  0
 15  9  2  0
 16 11  2  0
 17 10  1  0
 18  8  1  0
 20 22  2  0
 21 20  1  0
 23 21  1  0
 24 33  2  0
 24 29  1  0
 25 21  1  0
 25 29  1  0
 26 25  1  0
 27 28  1  0
 27 26  1  0
 28 24  1  0
 29 30  2  0
 30 31  1  0
 32 31  2  0
 33 32  1  0
 34  8  1  0
 34 39  1  0
 34 35  1  0
 35 38  1  1
 35 36  1  0
 37 35  1  0
 39 42  1  0
 40 44  1  0
 40 39  1  0
 41 40  2  0
 44 43  1  0
 46 44  1  0
 46 47  1  0
 46 45  1  0
 48  3  1  0
 48 49  1  0
 49 50  1  0
 51 63  1  0
 52 57  1  0
 53 54  1  0
 53 52  1  0
 55 54  1  0
 55 69  1  0
 55 56  1  0
 57 51  1  0
 57 56  1  0
 58 51  2  0
 60 63  1  0
 60 59  1  0
 61 49  1  0
 61 59  2  0
 62 64  1  0
 62 60  2  0
 63 65  1  0
 64 61  1  0
 66 67  2  0
 67 86  1  0
 68 67  1  0
 68 71  1  0
 69 70  1  0
 69 66  1  0
 70 68  2  0
 71 72  1  0
 72 73  2  0
 74 77  1  0
 74 73  1  0
 75 74  2  0
 76 75  1  0
 76 71  2  0
 77 78  1  0
 78 79  1  0
 79 80  2  0
 81 80  1  0
 81 85  1  0
 82 81  2  0
 83 78  2  0
 83 82  1  0
 84 83  1  0
 86 87  1  0
 87 90  1  0
 87 89  1  0
 88 86  2  0
 91 92  1  0
 91 66  1  0
 93 91  1  0
M  ISO  4   6 101   7 101  51 100  63 100
M  END
>  <TORSDO>  (18) 
F 20

>  <SCORE>  (18) 
-13.794

>  <name>  (18) 
17

>  <ligand_id>  (18) 
17

>  <original_smiles>  (18) 
[H]c1c(N([H])C(=O)N2C([H])([H])C([H])([H])C([H])([H])C([H])(n3nc(-c4c([H])c([H])c(Oc5c([H])c([H])c(F)c([H])c5F)c([H])c4[H])c(C(=O)N([H])[H])c3N([H])[H])C2([H])[H])noc1N([H])C([H])([H])C(C(=O)C([H])([H])Oc1c([H])c([H])c2c(c1[H])C([H])([H])N(C(=O)C([H])(N([H])C(=O)C([H])(N([H])C([H])([H])[H])C([H])([H])[H])C(C([H])([H])[H])(C([H])([H])[H])C([H])([H])[H])C([H])(C(=O)N([H])C1([H])c3c([H])c([H])c([H])c([H])c3C([H])([H])C([H])([H])C1([H])[H])C2([H])[H])(C([H])([H])[H])C([H])([H])[H]

>  <smiles>  (18) 
[H]c1c(N([H])C(=O)N2C([H])([H])C([H])([H])C([H])([H])C([H])(n3nc(-c4c([H])c([H])c(Oc5c([H])c([H])c(F)c([H])c5F)c([H])c4[H])c(C(=O)N([H])[H])c3N([H])[H])C2([H])[H])noc1N([H])C([H])([H])C(C(=O)C([H])([H])Oc1c([H])c([H])c2c(c1[H])C([H])([H])N(C(=O)C([H])(N([H])C(=O)C([H])(N([H])C([H])([H])[H])C([H])([H])[H])C(C([H])([H])[H])(C([H])([H])[H])C([H])([H])[H])C([H])(C(=O)N([H])C1([H])c3c([H])c([H])c([H])c([H])c3C([H])([H])C([H])([H])C1([H])[H])C2([H])[H])(C([H])([H])[H])C([H])([H])[H]

$$$$
18:0:0
     RDKit          3D

 92101  0  0  1  0  0  0  0  0999 V2000
  -27.6770  -23.5890   22.6350 C   0  0  0  0  0  2  0  0  0  0  0  0
  -27.8330  -22.2660   21.8420 C   0  0  0  0  0  2  0  0  0  0  0  0
  -28.2160  -24.8730   21.9630 C   0  0  0  0  0  2  0  0  0  0  0  0
  -28.8520  -23.5390   19.8730 C   0  0  0  0  0  2  0  0  0  0  0  0
  -29.0240  -22.2230   20.8650 C   0  0  0  0  0  3  0  0  0  0  0  0
  -28.0590  -24.8870   20.4370 C   0  0  0  0  0  3  0  0  0  0  0  0
  -28.3380  -19.7390   20.0330 C   0  0  0  0  0  3  0  0  0  0  0  0
  -28.5180  -18.3050   19.9830 C   0  0  0  0  0  3  0  0  0  0  0  0
  -30.7540  -18.5330   20.7130 C   0  0  0  0  0  3  0  0  0  0  0  0
  -29.3410  -20.6600   20.4650 C   0  0  0  0  0  0  0  0  0  0  0  0
  -29.7220  -17.6100   20.3410 C   0  0  0  0  0  0  0  0  0  0  0  0
  -30.5720  -19.9770   20.7800 C   0  0  0  0  0  0  0  0  0  0  0  0
  -31.6140  -20.7190   21.2280 F   0  0  0  0  0  0  0  0  0  0  0  0
  -30.6040  -15.0030   20.2270 C   0  0  0  0  0  0  0  0  0  0  0  0
  -30.5050  -12.6730   19.2550 C   0  0  0  0  0  2  0  0  0  0  0  0
  -29.5440  -12.6650   18.0420 C   0  0  0  0  0  2  0  0  0  0  0  0
  -28.0860  -12.4520   18.4930 C   0  0  0  0  0  2  0  0  0  0  0  0
  -27.6980  -13.3570   19.6910 C   0  0  0  0  0  3  0  0  0  0  0  0
  -28.7710  -13.3250   20.8010 C   0  0  0  0  0  2  0  0  0  0  0  0
  -30.0440  -13.7330   20.1880 N   0  0  0  0  0  0  0  0  0  0  0  0
  -31.7910  -15.1390   19.9180 O   0  0  0  0  0  0  0  0  0  0  0  0
  -29.7230  -16.0880   20.4040 N   0  0  0  0  0  0  0  0  0  0  0  0
  -28.7930  -15.7230   20.5420 H   0  0  0  0  0  0  0  0  0  0  0  0
  -25.3240  -13.9310   20.4680 C   0  0  0  0  0  0  0  0  0  0  0  0
  -24.2650  -13.1520   20.8470 C   0  0  0  0  0  0  0  0  0  0  0  0
  -24.7300  -11.8010   20.7910 C   0  0  0  0  0  0  0  0  0  0  0  0
  -26.3640  -13.0560   20.2030 N   0  0  0  0  0  0  0  0  0  0  0  0
  -26.0150  -11.7690   20.4600 N   0  0  0  0  0  0  0  0  0  0  0  0
  -24.0080  -10.5360   20.9780 C   0  0  0  0  0  0  0  0  0  0  0  0
  -24.4230   -9.5800   21.9310 C   0  0  0  0  0  3  0  0  0  0  0  0
  -23.6990   -8.3810   22.1050 C   0  0  0  0  0  3  0  0  0  0  0  0
  -22.5470   -8.1280   21.3250 C   0  0  0  0  0  0  0  0  0  0  0  0
  -22.1500   -9.0730   20.3610 C   0  0  0  0  0  3  0  0  0  0  0  0
  -22.8750  -10.2630   20.1850 C   0  0  0  0  0  3  0  0  0  0  0  0
  -21.7980   -6.9780   21.4060 O   0  0  0  0  0  0  0  0  0  0  0  0
  -21.6860   -6.2740   22.5770 C   0  0  0  0  0  0  0  0  0  0  0  0
  -21.1620   -6.8590   23.7510 C   0  0  0  0  0  3  0  0  0  0  0  0
  -20.9980   -6.0800   24.9140 C   0  0  0  0  0  3  0  0  0  0  0  0
  -21.3470   -4.7160   24.9030 C   0  0  0  0  0  0  0  0  0  0  0  0
  -21.8640   -4.1300   23.7350 C   0  0  0  0  0  3  0  0  0  0  0  0
  -22.0290   -4.9060   22.5740 C   0  0  0  0  0  0  0  0  0  0  0  0
  -22.5070   -4.3320   21.4440 F   0  0  0  0  0  0  0  0  0  0  0  0
  -21.1830   -3.9650   26.0180 F   0  0  0  0  0  0  0  0  0  0  0  0
  -22.8720  -13.6240   21.1440 C   0  0  0  0  0  0  0  0  0  0  0  0
  -22.1570  -12.9170   22.0110 N   0  0  0  0  0  0  0  0  0  0  0  0
  -22.4270  -14.6550   20.6410 O   0  0  0  0  0  0  0  0  0  0  0  0
  -22.5280  -12.0830   22.4400 H   0  0  0  0  0  0  0  0  0  0  0  0
  -21.2220  -13.2180   22.2520 H   0  0  0  0  0  0  0  0  0  0  0  0
  -25.4810  -15.3030   20.3020 N   0  0  0  0  0  0  0  0  0  0  0  0
  -24.7040  -15.9460   20.4200 H   0  0  0  0  0  0  0  0  0  0  0  0
  -26.2940  -15.7380   19.8870 H   0  0  0  0  0  0  0  0  0  0  0  0
  -28.2810  -26.3500   20.0170 O   0  0  0  0  0  0  0  0  0  0  0  0
  -24.6720  -31.9050   23.1960 C   0  0  0  0  0  0  0  0  0  0  0  0
  -27.2010  -27.2880   20.0400 C   0  0  0  0  0  0  0  0  0  0  0  0
  -23.4370  -30.5280   21.5650 C   0  0  0  0  0  3  0  0  0  0  0  0
  -24.8580  -28.9830   20.0900 C   0  0  0  0  0  0  0  0  0  0  0  0
  -25.9820  -30.8170   21.3440 C   0  0  0  0  0  2  0  0  0  0  0  0
  -26.0450  -29.4390   20.6760 C   0  0  0  0  0  0  0  0  0  0  0  0
  -27.2210  -28.6060   20.6350 C   0  0  0  0  0  3  0  0  0  0  0  0
  -25.9910  -26.9250   19.4130 C   0  0  0  0  0  3  0  0  0  0  0  0
  -24.8390  -27.7380   19.4430 C   0  0  0  0  0  3  0  0  0  0  0  0
  -23.6300  -29.8740   20.1720 C   0  0  0  0  0  2  0  0  0  0  0  0
  -24.7170  -31.1030   22.0910 N   0  0  0  0  0  0  0  0  0  0  0  0
  -23.5980  -32.1800   23.7530 O   0  0  0  0  0  0  0  0  0  0  0  0
  -22.7860  -29.5030   22.5280 C   0  0  0  0  0  0  0  0  0  0  0  0
  -21.4590  -29.3170   22.4170 N   0  0  0  0  0  0  0  0  0  0  0  0
  -23.4770  -28.8800   23.3370 O   0  0  0  0  0  0  0  0  0  0  0  0
  -20.9550  -29.8760   21.7420 H   0  0  0  0  0  0  0  0  0  0  0  0
  -18.1010  -28.0730   22.9470 C   0  0  0  0  0  0  0  0  0  0  0  0
  -20.6590  -28.3670   23.1930 C   0  0  0  0  0  3  0  0  0  0  0  0
  -20.7740  -26.9380   22.6160 C   0  0  0  0  0  2  0  0  0  0  0  0
  -19.6690  -26.6040   21.6090 C   0  0  0  0  0  2  0  0  0  0  0  0
  -18.2910  -26.7280   22.2650 C   0  0  0  0  0  2  0  0  0  0  0  0
  -19.2130  -28.8500   23.3690 C   0  0  0  0  0  0  0  0  0  0  0  0
  -18.9820  -30.1060   23.9680 C   0  0  0  0  0  3  0  0  0  0  0  0
  -17.6720  -30.5880   24.1480 C   0  0  0  0  0  3  0  0  0  0  0  0
  -16.5750  -29.8090   23.7400 C   0  0  0  0  0  3  0  0  0  0  0  0
  -16.7900  -28.5530   23.1450 C   0  0  0  0  0  3  0  0  0  0  0  0
  -25.9650  -32.5330   23.8010 C   0  0  0  0  0  3  0  0  0  0  0  0
  -25.6590  -33.9260   24.1610 N   0  0  0  0  0  0  0  0  0  0  0  0
  -25.9580  -34.9940   23.4100 C   0  0  0  0  0  0  0  0  0  0  0  0
  -26.5900  -34.9110   22.3530 O   0  0  0  0  0  0  0  0  0  0  0  0
  -25.0930  -34.0630   24.9860 H   0  0  0  0  0  0  0  0  0  0  0  0
  -24.2100  -36.7850   23.1500 C   0  0  0  0  0  1  0  0  0  0  0  0
  -25.4820  -36.3730   23.9070 C   0  0  0  0  0  3  0  0  0  0  0  0
  -27.6400  -37.2610   24.6720 C   0  0  0  0  0  1  0  0  0  0  0  0
  -26.5040  -37.4350   23.7710 N   0  0  0  0  0  0  0  0  0  0  0  0
  -26.0980  -38.3500   23.9460 H   0  0  0  0  0  0  0  0  0  0  0  0
  -26.5110  -31.7440   25.0540 C   0  0  1  0  0  0  0  0  0  0  0  0
  -25.4430  -31.4880   26.1430 C   0  0  0  0  0  1  0  0  0  0  0  0
  -27.0880  -30.3720   24.6350 C   0  0  0  0  0  1  0  0  0  0  0  0
  -27.6740  -32.5300   25.7030 C   0  0  0  0  0  1  0  0  0  0  0  0
  2  1  1  0
  3  1  1  0
  4  6  1  0
  4  5  1  0
  5 10  1  0
  5  2  1  0
  6 52  1  0
  6  3  1  0
  7 10  1  0
  8  7  2  0
  8 11  1  0
  9 12  1  0
 10 12  2  0
 11 22  1  0
 11  9  2  0
 12 13  1  0
 14 22  1  0
 15 20  1  0
 16 17  1  0
 16 15  1  0
 18 17  1  0
 18 27  1  0
 18 19  1  0
 20 14  1  0
 20 19  1  0
 21 14  2  0
 22 23  1  0
 24 25  2  0
 25 44  1  0
 26 25  1  0
 26 29  1  0
 27 28  1  0
 27 24  1  0
 28 26  2  0
 29 30  1  0
 30 31  2  0
 32 35  1  0
 32 31  1  0
 33 32  2  0
 34 33  1  0
 34 29  2  0
 35 36  1  0
 36 37  1  0
 37 38  2  0
 39 38  1  0
 39 43  1  0
 40 39  2  0
 41 36  2  0
 41 40  1  0
 42 41  1  0
 44 45  1  0
 45 48  1  0
 45 47  1  0
 46 44  2  0
 49 50  1  0
 49 24  1  0
 51 49  1  0
 52 54  1  0
 53 64  2  0
 54 59  1  0
 55 63  1  0
 55 65  1  0
 56 62  1  0
 56 58  1  0
 57 63  1  0
 58 57  1  0
 59 58  2  0
 60 61  1  0
 60 54  2  0
 61 56  2  0
 62 55  1  0
 63 53  1  0
 65 67  2  0
 66 65  1  0
 68 66  1  0
 69 78  2  0
 69 74  1  0
 70 66  1  0
 70 74  1  0
 71 70  1  0
 72 73  1  0
 72 71  1  0
 73 69  1  0
 74 75  2  0
 75 76  1  0
 77 76  2  0
 78 77  1  0
 79 53  1  0
 79 80  1  0
 79 89  1  0
 80 83  1  0
 81 85  1  0
 81 80  1  0
 82 81  2  0
 85 84  1  0
 87 85  1  0
 87 88  1  0
 87 86  1  0
 89 92  1  1
 89 90  1  0
 91 89  1  0
M  ISO  4   6 101  14 100  22 100  52 101
M  END
>  <TORSDO>  (19) 
F 17

>  <SCORE>  (19) 
-14.614

>  <name>  (19) 
18

>  <ligand_id>  (19) 
18

>  <original_smiles>  (19) 
[H]c1c([H])c([H])c2c(c1[H])C([H])([H])C([H])([H])C([H])([H])C2([H])N([H])C(=O)C1([H])N(C(=O)C([H])(N([H])C(=O)C([H])(N([H])C([H])([H])[H])C([H])([H])[H])C(C([H])([H])[H])(C([H])([H])[H])C([H])([H])[H])C([H])([H])c2c([H])c(OC3([H])C([H])([H])C([H])([H])C([H])([H])C([H])(c4c([H])c([H])c(N([H])C(=O)N5C([H])([H])C([H])([H])C([H])([H])C([H])(n6nc(-c7c([H])c([H])c(Oc8c([H])c([H])c(F)c([H])c8F)c([H])c7[H])c(C(=O)N([H])[H])c6N([H])[H])C5([H])[H])c([H])c4F)C3([H])[H])c([H])c([H])c2C1([H])[H]

>  <smiles>  (19) 
[H]c1c([H])c([H])c2c(c1[H])C([H])([H])C([H])([H])C([H])([H])C2([H])N([H])C(=O)C1([H])N(C(=O)C([H])(N([H])C(=O)C([H])(N([H])C([H])([H])[H])C([H])([H])[H])C(C([H])([H])[H])(C([H])([H])[H])C([H])([H])[H])C([H])([H])c2c([H])c(OC3([H])C([H])([H])C([H])([H])C([H])([H])C([H])(c4c([H])c([H])c(N([H])C(=O)N5C([H])([H])C([H])([H])C([H])([H])C([H])(n6nc(-c7c([H])c([H])c(Oc8c([H])c([H])c(F)c([H])c8F)c([H])c7[H])c(C(=O)N([H])[H])c6N([H])[H])C5([H])[H])c([H])c4F)C3([H])[H])c([H])c([H])c2C1([H])[H]

$$$$
19:0:0
     RDKit          3D

 90 98  0  0  1  0  0  0  0  0999 V2000
  -28.4240  -23.7350   20.0400 C   0  0  0  0  0  0  0  0  0  0  0  0
  -28.5880  -22.5550   20.7500 N   0  0  0  0  0  0  0  0  0  0  0  0
  -28.4690  -23.7590   18.8070 O   0  0  0  0  0  0  0  0  0  0  0  0
  -28.5920  -22.7110   21.7510 H   0  0  0  0  0  0  0  0  0  0  0  0
  -28.7230  -19.0490   19.3180 C   0  0  0  0  0  3  0  0  0  0  0  0
  -28.3250  -20.4540   19.3300 C   0  0  0  0  0  3  0  0  0  0  0  0
  -29.5340  -18.6480   20.3620 C   0  0  0  0  0  0  0  0  0  0  0  0
  -28.7970  -21.2130   20.3880 C   0  0  0  0  0  0  0  0  0  0  0  0
  -29.7290  -20.0830   21.4080 S   0  0  0  0  0  0  0  0  0  0  0  0
  -30.3460  -17.3180   20.6280 C   0  0  0  0  0  2  0  0  0  0  0  0
  -30.5770  -14.7650   20.1490 C   0  0  0  0  0  0  0  0  0  0  0  0
  -30.3470  -12.4950   19.1320 C   0  0  0  0  0  2  0  0  0  0  0  0
  -29.3750  -12.5620   17.9330 C   0  0  0  0  0  2  0  0  0  0  0  0
  -27.9150  -12.4070   18.4010 C   0  0  0  0  0  2  0  0  0  0  0  0
  -27.5810  -13.2970   19.6290 C   0  0  0  0  0  3  0  0  0  0  0  0
  -28.6650  -13.2000   20.7200 C   0  0  0  0  0  2  0  0  0  0  0  0
  -29.9420  -13.5490   20.0870 N   0  0  0  0  0  0  0  0  0  0  0  0
  -31.7630  -14.8520   19.8180 O   0  0  0  0  0  0  0  0  0  0  0  0
  -29.8270  -15.9040   20.4030 N   0  0  0  0  0  0  0  0  0  0  0  0
  -28.8450  -15.7570   20.5800 H   0  0  0  0  0  0  0  0  0  0  0  0
  -25.2210  -13.9060   20.4280 C   0  0  0  0  0  0  0  0  0  0  0  0
  -24.1590  -13.1390   20.8210 C   0  0  0  0  0  0  0  0  0  0  0  0
  -24.6090  -11.7840   20.7700 C   0  0  0  0  0  0  0  0  0  0  0  0
  -26.2500  -13.0180   20.1560 N   0  0  0  0  0  0  0  0  0  0  0  0
  -25.8910  -11.7360   20.4250 N   0  0  0  0  0  0  0  0  0  0  0  0
  -23.8770  -10.5270   20.9700 C   0  0  0  0  0  0  0  0  0  0  0  0
  -24.3170   -9.5540   21.8960 C   0  0  0  0  0  3  0  0  0  0  0  0
  -23.5830   -8.3610   22.0820 C   0  0  0  0  0  3  0  0  0  0  0  0
  -22.3990   -8.1340   21.3420 C   0  0  0  0  0  0  0  0  0  0  0  0
  -21.9790   -9.0950   20.4050 C   0  0  0  0  0  3  0  0  0  0  0  0
  -22.7120  -10.2780   20.2170 C   0  0  0  0  0  3  0  0  0  0  0  0
  -21.6350   -6.9950   21.4410 O   0  0  0  0  0  0  0  0  0  0  0  0
  -21.5830   -6.2610   22.5990 C   0  0  0  0  0  0  0  0  0  0  0  0
  -21.1480   -6.8230   23.8190 C   0  0  0  0  0  3  0  0  0  0  0  0
  -21.0430   -6.0160   24.9680 C   0  0  0  0  0  3  0  0  0  0  0  0
  -21.3640   -4.6470   24.8990 C   0  0  0  0  0  0  0  0  0  0  0  0
  -21.7910   -4.0840   23.6830 C   0  0  0  0  0  3  0  0  0  0  0  0
  -21.8970   -4.8890   22.5350 C   0  0  0  0  0  0  0  0  0  0  0  0
  -22.2890   -4.3370   21.3620 F   0  0  0  0  0  0  0  0  0  0  0  0
  -21.2560   -3.8690   26.0010 F   0  0  0  0  0  0  0  0  0  0  0  0
  -22.7740  -13.6270   21.1350 C   0  0  0  0  0  0  0  0  0  0  0  0
  -22.0620  -12.9300   22.0130 N   0  0  0  0  0  0  0  0  0  0  0  0
  -22.3320  -14.6600   20.6330 O   0  0  0  0  0  0  0  0  0  0  0  0
  -22.4340  -12.0920   22.4390 H   0  0  0  0  0  0  0  0  0  0  0  0
  -21.1340  -13.2380   22.2650 H   0  0  0  0  0  0  0  0  0  0  0  0
  -25.3930  -15.2760   20.2510 N   0  0  0  0  0  0  0  0  0  0  0  0
  -24.6310  -15.9350   20.3700 H   0  0  0  0  0  0  0  0  0  0  0  0
  -26.2260  -15.7050   19.8730 H   0  0  0  0  0  0  0  0  0  0  0  0
  -28.1720  -25.1000   20.8510 C   0  0  0  0  0  2  0  0  0  0  0  0
  -28.3520  -26.4320   20.1840 O   0  0  0  0  0  0  0  0  0  0  0  0
  -24.6240  -31.8850   23.2380 C   0  0  0  0  0  0  0  0  0  0  0  0
  -27.2600  -27.3180   20.1860 C   0  0  0  0  0  0  0  0  0  0  0  0
  -23.4340  -30.4860   21.5880 C   0  0  0  0  0  3  0  0  0  0  0  0
  -24.8970  -28.9360   20.1720 C   0  0  0  0  0  0  0  0  0  0  0  0
  -25.9760  -30.8100   21.4160 C   0  0  0  0  0  2  0  0  0  0  0  0
  -26.0660  -29.4300   20.7660 C   0  0  0  0  0  0  0  0  0  0  0  0
  -27.2560  -28.6340   20.7560 C   0  0  0  0  0  3  0  0  0  0  0  0
  -26.0660  -26.8800   19.5790 C   0  0  0  0  0  3  0  0  0  0  0  0
  -24.8980  -27.6650   19.5750 C   0  0  0  0  0  3  0  0  0  0  0  0
  -23.6580  -29.8100   20.2100 C   0  0  0  0  0  2  0  0  0  0  0  0
  -24.6980  -31.0790   22.1380 N   0  0  0  0  0  0  0  0  0  0  0  0
  -23.5360  -32.1550   23.7690 O   0  0  0  0  0  0  0  0  0  0  0  0
  -22.7700  -29.4680   22.5440 C   0  0  0  0  0  0  0  0  0  0  0  0
  -21.4420  -29.2910   22.4180 N   0  0  0  0  0  0  0  0  0  0  0  0
  -23.4460  -28.8360   23.3610 O   0  0  0  0  0  0  0  0  0  0  0  0
  -20.9540  -29.8500   21.7310 H   0  0  0  0  0  0  0  0  0  0  0  0
  -18.0650  -28.0910   22.9180 C   0  0  0  0  0  0  0  0  0  0  0  0
  -20.6250  -28.3490   23.1830 C   0  0  0  0  0  3  0  0  0  0  0  0
  -20.7240  -26.9200   22.5990 C   0  0  0  0  0  2  0  0  0  0  0  0
  -19.6190  -26.6050   21.5850 C   0  0  0  0  0  2  0  0  0  0  0  0
  -18.2390  -26.7470   22.2330 C   0  0  0  0  0  2  0  0  0  0  0  0
  -19.1850  -28.8510   23.3510 C   0  0  0  0  0  0  0  0  0  0  0  0
  -18.9680  -30.1100   23.9510 C   0  0  0  0  0  3  0  0  0  0  0  0
  -17.6650  -30.6100   24.1250 C   0  0  0  0  0  3  0  0  0  0  0  0
  -16.5590  -29.8480   23.7090 C   0  0  0  0  0  3  0  0  0  0  0  0
  -16.7600  -28.5900   23.1110 C   0  0  0  0  0  3  0  0  0  0  0  0
  -25.9000  -32.5240   23.8700 C   0  0  0  0  0  3  0  0  0  0  0  0
  -26.4100  -31.7550   25.1500 C   0  0  1  0  0  0  0  0  0  0  0  0
  -25.3110  -31.5160   26.2120 C   0  0  0  0  0  1  0  0  0  0  0  0
  -27.0000  -30.3790   24.7650 C   0  0  0  0  0  1  0  0  0  0  0  0
  -27.5540  -32.5530   25.8170 C   0  0  0  0  0  1  0  0  0  0  0  0
  -25.5840  -33.9210   24.2010 N   0  0  0  0  0  0  0  0  0  0  0  0
  -25.9040  -34.9740   23.4400 C   0  0  0  0  0  0  0  0  0  0  0  0
  -26.5650  -34.8740   22.4030 O   0  0  0  0  0  0  0  0  0  0  0  0
  -25.0000  -34.0720   25.0110 H   0  0  0  0  0  0  0  0  0  0  0  0
  -24.1670  -36.7600   23.0970 C   0  0  0  0  0  1  0  0  0  0  0  0
  -25.4160  -36.3620   23.9000 C   0  0  0  0  0  3  0  0  0  0  0  0
  -27.5420  -37.2670   24.7270 C   0  0  0  0  0  1  0  0  0  0  0  0
  -26.4470  -37.4140   23.7700 N   0  0  0  0  0  0  0  0  0  0  0  0
  -26.0420  -38.3390   23.8870 H   0  0  0  0  0  0  0  0  0  0  0  0
  1  2  1  0
  1 49  1  0
  2  4  1  0
  3  1  2  0
  5  6  1  0
  5  7  2  0
  6  8  2  0
  7 10  1  0
  7  9  1  0
  8  2  1  0
  8  9  1  0
 11 19  1  0
 12 17  1  0
 13 14  1  0
 13 12  1  0
 15 14  1  0
 15 24  1  0
 15 16  1  0
 17 11  1  0
 17 16  1  0
 18 11  2  0
 19 20  1  0
 19 10  1  0
 21 22  2  0
 22 41  1  0
 23 22  1  0
 23 26  1  0
 24 25  1  0
 24 21  1  0
 25 23  2  0
 26 27  1  0
 27 28  2  0
 29 32  1  0
 29 28  1  0
 30 29  2  0
 31 30  1  0
 31 26  2  0
 32 33  1  0
 33 34  1  0
 34 35  2  0
 36 35  1  0
 36 40  1  0
 37 36  2  0
 38 33  2  0
 38 37  1  0
 39 38  1  0
 41 42  1  0
 42 45  1  0
 42 44  1  0
 43 41  2  0
 46 47  1  0
 46 21  1  0
 48 46  1  0
 50 52  1  0
 50 49  1  0
 51 62  2  0
 52 57  1  0
 53 61  1  0
 53 63  1  0
 54 60  1  0
 54 56  1  0
 55 61  1  0
 56 55  1  0
 57 56  2  0
 58 52  2  0
 59 58  1  0
 59 54  2  0
 60 53  1  0
 61 51  1  0
 63 65  2  0
 64 63  1  0
 66 64  1  0
 67 76  2  0
 67 72  1  0
 68 64  1  0
 68 72  1  0
 69 68  1  0
 70 71  1  0
 70 69  1  0
 71 67  1  0
 72 73  2  0
 73 74  1  0
 75 74  2  0
 76 75  1  0
 77 51  1  0
 77 82  1  0
 77 78  1  0
 78 81  1  1
 78 79  1  0
 80 78  1  0
 82 85  1  0
 83 87  1  0
 83 82  1  0
 84 83  2  0
 87 86  1  0
 89 90  1  0
 89 87  1  0
 89 88  1  0
M  ISO  4  11 100  19 100  49 101  50 101
M  END
>  <TORSDO>  (20) 
F 19

>  <SCORE>  (20) 
-14.044

>  <name>  (20) 
19

>  <ligand_id>  (20) 
19

>  <original_smiles>  (20) 
[H]c1c(N([H])C(=O)C([H])([H])Oc2c([H])c([H])c3c(c2[H])C([H])([H])N(C(=O)C([H])(N([H])C(=O)C([H])(N([H])C([H])([H])[H])C([H])([H])[H])C(C([H])([H])[H])(C([H])([H])[H])C([H])([H])[H])C([H])(C(=O)N([H])C2([H])c4c([H])c([H])c([H])c([H])c4C([H])([H])C([H])([H])C2([H])[H])C3([H])[H])sc(C([H])([H])N([H])C(=O)N2C([H])([H])C([H])([H])C([H])([H])C([H])(n3nc(-c4c([H])c([H])c(Oc5c([H])c([H])c(F)c([H])c5F)c([H])c4[H])c(C(=O)N([H])[H])c3N([H])[H])C2([H])[H])c1[H]

>  <smiles>  (20) 
[H]c1c(N([H])C(=O)C([H])([H])Oc2c([H])c([H])c3c(c2[H])C([H])([H])N(C(=O)C([H])(N([H])C(=O)C([H])(N([H])C([H])([H])[H])C([H])([H])[H])C(C([H])([H])[H])(C([H])([H])[H])C([H])([H])[H])C([H])(C(=O)N([H])C2([H])c4c([H])c([H])c([H])c([H])c4C([H])([H])C([H])([H])C2([H])[H])C3([H])[H])sc(C([H])([H])N([H])C(=O)N2C([H])([H])C([H])([H])C([H])([H])C([H])(n3nc(-c4c([H])c([H])c(Oc5c([H])c([H])c(F)c([H])c5F)c([H])c4[H])c(C(=O)N([H])[H])c3N([H])[H])C2([H])[H])c1[H]

$$$$
20:0:0
     RDKit          3D

 97106  0  0  1  0  0  0  0  0999 V2000
  -29.4820  -24.5050   20.2720 C   0  0  0  0  0  0  0  0  0  0  0  0
  -28.2410  -21.0700   21.2040 C   0  0  0  0  0  2  0  0  0  0  0  0
  -27.9680  -22.5850   21.0680 C   0  0  0  0  0  2  0  0  0  0  0  0
  -30.1400  -22.1010   20.1980 C   0  0  0  0  0  2  0  0  0  0  0  0
  -29.3080  -20.7980   20.1430 C   0  0  0  0  0  3  0  0  0  0  0  0
  -29.2090  -23.1910   20.5480 N   0  0  0  0  0  0  0  0  0  0  0  0
  -30.5050  -24.8060   19.6360 O   0  0  0  0  0  0  0  0  0  0  0  0
  -31.7410  -17.6820   20.0280 C   0  0  0  0  0  3  0  0  0  0  0  0
  -30.4880  -17.2260   20.3850 C   0  0  0  0  0  0  0  0  0  0  0  0
  -30.0910  -19.5010   20.2700 C   0  0  0  0  0  0  0  0  0  0  0  0
  -29.5460  -18.2810   20.4740 N   0  0  0  0  0  0  0  0  0  0  0  0
  -31.8290  -19.4260   19.9550 S   0  0  0  0  0  0  0  0  0  0  0  0
  -30.8890  -14.7310   20.4130 C   0  0  0  0  0  0  0  0  0  0  0  0
  -30.6400  -12.5180   19.3850 C   0  0  0  0  0  2  0  0  0  0  0  0
  -29.7560  -12.7320   18.1370 C   0  0  0  0  0  2  0  0  0  0  0  0
  -28.2590  -12.6080   18.5060 C   0  0  0  0  0  2  0  0  0  0  0  0
  -27.8730  -13.4400   19.7650 C   0  0  0  0  0  3  0  0  0  0  0  0
  -28.8990  -13.2450   20.9050 C   0  0  0  0  0  2  0  0  0  0  0  0
  -30.2310  -13.5370   20.3610 N   0  0  0  0  0  0  0  0  0  0  0  0
  -32.0750  -14.8170   20.0850 O   0  0  0  0  0  0  0  0  0  0  0  0
  -30.1310  -15.8420   20.6270 N   0  0  0  0  0  0  0  0  0  0  0  0
  -29.1740  -15.6630   20.8970 H   0  0  0  0  0  0  0  0  0  0  0  0
  -25.4650  -14.0350   20.4510 C   0  0  0  0  0  0  0  0  0  0  0  0
  -24.3920  -13.2650   20.8200 C   0  0  0  0  0  0  0  0  0  0  0  0
  -24.8630  -11.9130   20.8050 C   0  0  0  0  0  0  0  0  0  0  0  0
  -26.5140  -13.1560   20.2280 N   0  0  0  0  0  0  0  0  0  0  0  0
  -26.1550  -11.8750   20.4940 N   0  0  0  0  0  0  0  0  0  0  0  0
  -24.1380  -10.6510   20.9980 C   0  0  0  0  0  0  0  0  0  0  0  0
  -24.5460   -9.6990   21.9590 C   0  0  0  0  0  3  0  0  0  0  0  0
  -23.8190   -8.5000   22.1290 C   0  0  0  0  0  3  0  0  0  0  0  0
  -22.6720   -8.2500   21.3420 C   0  0  0  0  0  0  0  0  0  0  0  0
  -22.2830   -9.1960   20.3750 C   0  0  0  0  0  3  0  0  0  0  0  0
  -23.0130  -10.3830   20.2010 C   0  0  0  0  0  3  0  0  0  0  0  0
  -21.9110   -7.1080   21.4240 O   0  0  0  0  0  0  0  0  0  0  0  0
  -21.8180   -6.3900   22.5890 C   0  0  0  0  0  0  0  0  0  0  0  0
  -21.3110   -6.9570   23.7800 C   0  0  0  0  0  3  0  0  0  0  0  0
  -21.1660   -6.1600   24.9320 C   0  0  0  0  0  3  0  0  0  0  0  0
  -21.5190   -4.7970   24.8980 C   0  0  0  0  0  0  0  0  0  0  0  0
  -22.0160   -4.2300   23.7100 C   0  0  0  0  0  3  0  0  0  0  0  0
  -22.1610   -5.0210   22.5590 C   0  0  0  0  0  0  0  0  0  0  0  0
  -22.6230   -4.4630   21.4130 F   0  0  0  0  0  0  0  0  0  0  0  0
  -21.3770   -4.0320   26.0040 F   0  0  0  0  0  0  0  0  0  0  0  0
  -22.9890  -13.7460   21.0750 C   0  0  0  0  0  0  0  0  0  0  0  0
  -22.2380  -13.0550   21.9240 N   0  0  0  0  0  0  0  0  0  0  0  0
  -22.5640  -14.7780   20.5510 O   0  0  0  0  0  0  0  0  0  0  0  0
  -22.5810  -12.2130   22.3660 H   0  0  0  0  0  0  0  0  0  0  0  0
  -21.3000  -13.3750   22.1310 H   0  0  0  0  0  0  0  0  0  0  0  0
  -25.6250  -15.4050   20.2670 N   0  0  0  0  0  0  0  0  0  0  0  0
  -24.8530  -16.0530   20.3720 H   0  0  0  0  0  0  0  0  0  0  0  0
  -26.4830  -15.8570   19.9730 H   0  0  0  0  0  0  0  0  0  0  0  0
  -28.5680  -25.6630   20.7880 C   0  0  0  0  0  3  0  0  0  0  0  0
  -29.1700  -26.1640   22.1150 C   0  0  0  0  0  0  0  0  0  0  0  0
  -30.1580  -26.9660   22.1600 N   0  0  0  0  0  0  0  0  0  0  0  0
  -30.4370  -27.1810   23.1100 H   0  0  0  0  0  0  0  0  0  0  0  0
  -29.3690  -24.6090   24.1450 C   0  0  0  0  0  1  0  0  0  0  0  0
  -28.5190  -25.6700   23.4020 C   0  0  0  0  0  2  0  0  0  0  0  0
  -28.4870  -26.7600   19.8280 O   0  0  0  0  0  0  0  0  0  0  0  0
  -24.5670  -31.7990   23.0610 C   0  0  0  0  0  0  0  0  0  0  0  0
  -27.3120  -27.4930   19.8520 C   0  0  0  0  0  0  0  0  0  0  0  0
  -23.3880  -30.3980   21.4030 C   0  0  0  0  0  3  0  0  0  0  0  0
  -24.8720  -28.9390   19.9220 C   0  0  0  0  0  0  0  0  0  0  0  0
  -25.9040  -30.8310   21.1870 C   0  0  0  0  0  2  0  0  0  0  0  0
  -26.0210  -29.4810   20.5050 C   0  0  0  0  0  0  0  0  0  0  0  0
  -27.2470  -28.7700   20.4600 C   0  0  0  0  0  3  0  0  0  0  0  0
  -26.1400  -26.9670   19.2640 C   0  0  0  0  0  3  0  0  0  0  0  0
  -24.9240  -27.6780   19.3030 C   0  0  0  0  0  3  0  0  0  0  0  0
  -23.6050  -29.7640   20.0050 C   0  0  0  0  0  2  0  0  0  0  0  0
  -24.6380  -31.0240   21.9390 N   0  0  0  0  0  0  0  0  0  0  0  0
  -23.4830  -32.0240   23.6160 O   0  0  0  0  0  0  0  0  0  0  0  0
  -22.7830  -29.3320   22.3440 C   0  0  0  0  0  0  0  0  0  0  0  0
  -21.4690  -29.0930   22.2110 N   0  0  0  0  0  0  0  0  0  0  0  0
  -23.4920  -28.7270   23.1500 O   0  0  0  0  0  0  0  0  0  0  0  0
  -20.9580  -29.6320   21.5280 H   0  0  0  0  0  0  0  0  0  0  0  0
  -18.1560  -27.7140   22.6490 C   0  0  0  0  0  0  0  0  0  0  0  0
  -20.6910  -28.1050   22.9610 C   0  0  0  0  0  3  0  0  0  0  0  0
  -20.8790  -26.6880   22.3720 C   0  0  0  0  0  2  0  0  0  0  0  0
  -19.8090  -26.3150   21.3410 C   0  0  0  0  0  2  0  0  0  0  0  0
  -18.4130  -26.3810   21.9660 C   0  0  0  0  0  2  0  0  0  0  0  0
  -19.2260  -28.5290   23.1010 C   0  0  0  0  0  0  0  0  0  0  0  0
  -18.9280  -29.7770   23.6930 C   0  0  0  0  0  3  0  0  0  0  0  0
  -17.5960  -30.2060   23.8430 C   0  0  0  0  0  3  0  0  0  0  0  0
  -16.5420  -29.3830   23.4100 C   0  0  0  0  0  3  0  0  0  0  0  0
  -16.8220  -28.1400   22.8170 C   0  0  0  0  0  3  0  0  0  0  0  0
  -25.8380  -32.4540   23.6790 C   0  0  0  0  0  3  0  0  0  0  0  0
  -26.3920  -31.6710   24.9330 C   0  0  1  0  0  0  0  0  0  0  0  0
  -25.3220  -31.3700   26.0090 C   0  0  0  0  0  1  0  0  0  0  0  0
  -27.0090  -30.3180   24.5020 C   0  0  0  0  0  1  0  0  0  0  0  0
  -27.5210  -32.4890   25.6010 C   0  0  0  0  0  1  0  0  0  0  0  0
  -25.4840  -33.8330   24.0410 N   0  0  0  0  0  0  0  0  0  0  0  0
  -25.8080  -34.9170   23.3210 C   0  0  0  0  0  0  0  0  0  0  0  0
  -26.5070  -34.8610   22.3060 O   0  0  0  0  0  0  0  0  0  0  0  0
  -24.8460  -33.9440   24.8150 H   0  0  0  0  0  0  0  0  0  0  0  0
  -24.0670  -36.6970   22.9550 C   0  0  0  0  0  1  0  0  0  0  0  0
  -25.2760  -36.2770   23.8080 C   0  0  0  0  0  3  0  0  0  0  0  0
  -27.3530  -37.1680   24.7700 C   0  0  0  0  0  1  0  0  0  0  0  0
  -26.2920  -37.3520   23.7830 N   0  0  0  0  0  0  0  0  0  0  0  0
  -25.8610  -38.2590   23.9430 H   0  0  0  0  0  0  0  0  0  0  0  0
  1  6  1  0
  1 51  1  0
  3  2  1  0
  4  6  1  0
  5  4  1  0
  5 10  1  0
  5  2  1  0
  6  3  1  0
  7  1  2  0
  8  9  2  0
  9 11  1  0
  9 21  1  0
 10 11  2  0
 12  8  1  0
 12 10  1  0
 13 21  1  0
 14 19  1  0
 15 16  1  0
 15 14  1  0
 17 16  1  0
 17 26  1  0
 17 18  1  0
 19 13  1  0
 19 18  1  0
 20 13  2  0
 21 22  1  0
 23 24  2  0
 24 43  1  0
 25 24  1  0
 25 28  1  0
 26 23  1  0
 26 27  1  0
 27 25  2  0
 28 29  1  0
 29 30  2  0
 31 34  1  0
 31 30  1  0
 32 31  2  0
 33 32  1  0
 33 28  2  0
 34 35  1  0
 35 36  1  0
 36 37  2  0
 38 37  1  0
 38 42  1  0
 39 38  2  0
 40 35  2  0
 40 39  1  0
 41 40  1  0
 43 44  1  0
 44 47  1  0
 44 46  1  0
 45 43  2  0
 48 49  1  0
 48 23  1  0
 50 48  1  0
 51 57  1  0
 51 52  1  0
 52 53  2  0
 52 56  1  0
 53 54  1  0
 56 55  1  0
 57 59  1  0
 58 69  2  0
 59 64  1  0
 60 68  1  0
 60 70  1  0
 61 67  1  0
 61 63  1  0
 62 68  1  0
 63 62  1  0
 64 63  2  0
 65 66  1  0
 65 59  2  0
 66 61  2  0
 67 60  1  0
 68 58  1  0
 70 72  2  0
 71 70  1  0
 73 71  1  0
 74 83  2  0
 74 79  1  0
 75 71  1  0
 75 79  1  0
 76 75  1  0
 77 78  1  0
 77 76  1  0
 78 74  1  0
 79 80  2  0
 80 81  1  0
 82 81  2  0
 83 82  1  0
 84 58  1  0
 84 89  1  0
 84 85  1  0
 85 88  1  1
 85 86  1  0
 87 85  1  0
 89 92  1  0
 90 94  1  0
 90 89  1  0
 91 90  2  0
 94 93  1  0
 96 94  1  0
 96 97  1  0
 96 95  1  0
M  ISO  4  13 100  21 100  51 101  57 101
M  END
>  <TORSDO>  (21) 
F 20

>  <SCORE>  (21) 
-13.403

>  <name>  (21) 
20

>  <ligand_id>  (21) 
20

>  <original_smiles>  (21) 
[H]N=C(C([H])(Oc1c([H])c([H])c2c(c1[H])C([H])([H])N(C(=O)C([H])(N([H])C(=O)C([H])(N([H])C([H])([H])[H])C([H])([H])[H])C(C([H])([H])[H])(C([H])([H])[H])C([H])([H])[H])C([H])(C(=O)N([H])C1([H])c3c([H])c([H])c([H])c([H])c3C([H])([H])C([H])([H])C1([H])[H])C2([H])[H])C(=O)N1C([H])([H])C([H])([H])C([H])(c2nc(N([H])C(=O)N3C([H])([H])C([H])([H])C([H])([H])C([H])(n4nc(-c5c([H])c([H])c(Oc6c([H])c([H])c(F)c([H])c6F)c([H])c5[H])c(C(=O)N([H])[H])c4N([H])[H])C3([H])[H])c([H])s2)C1([H])[H])C([H])([H])C([H])([H])[H]

>  <smiles>  (21) 
[H]N=C(C([H])(Oc1c([H])c([H])c2c(c1[H])C([H])([H])N(C(=O)C([H])(N([H])C(=O)C([H])(N([H])C([H])([H])[H])C([H])([H])[H])C(C([H])([H])[H])(C([H])([H])[H])C([H])([H])[H])C([H])(C(=O)N([H])C1([H])c3c([H])c([H])c([H])c([H])c3C([H])([H])C([H])([H])C1([H])[H])C2([H])[H])C(=O)N1C([H])([H])C([H])([H])C([H])(c2nc(N([H])C(=O)N3C([H])([H])C([H])([H])C([H])([H])C([H])(n4nc(-c5c([H])c([H])c(Oc6c([H])c([H])c(F)c([H])c6F)c([H])c5[H])c(C(=O)N([H])[H])c4N([H])[H])C3([H])[H])c([H])s2)C1([H])[H])C([H])([H])C([H])([H])[H]

$$$$
21:0:0
     RDKit          3D

 94103  0  0  1  0  0  0  0  0999 V2000
  -30.2190  -23.9380   20.8580 C   0  0  0  0  0  3  0  0  0  0  0  0
  -29.0790  -23.7350   20.1780 C   0  0  0  0  0  0  0  0  0  0  0  0
  -31.1540  -22.8010   21.2720 C   0  0  0  0  0  2  0  0  0  0  0  0
  -28.7390  -22.2290   19.7630 C   0  0  0  0  0  2  0  0  0  0  0  0
  -30.4660  -21.4150   21.3850 C   0  0  0  0  0  2  0  0  0  0  0  0
  -29.6190  -21.0700   20.2360 N   0  0  0  0  0  0  0  0  0  0  0  0
  -29.9170  -18.4830   20.7240 C   0  0  0  0  0  3  0  0  0  0  0  0
  -29.5400  -19.6260   19.8470 C   0  0  0  0  0  0  0  0  0  0  0  0
  -29.1250  -19.0970   18.6290 C   0  0  0  0  0  0  0  0  0  0  0  0
  -29.7860  -17.1700   20.2120 C   0  0  0  0  0  0  0  0  0  0  0  0
  -29.2250  -17.3290   18.5750 S   0  0  0  0  0  0  0  0  0  0  0  0
  -30.5840  -14.7780   20.4100 C   0  0  0  0  0  0  0  0  0  0  0  0
  -30.3600  -12.5020   19.4130 C   0  0  0  0  0  2  0  0  0  0  0  0
  -29.4180  -12.5850   18.1910 C   0  0  0  0  0  2  0  0  0  0  0  0
  -27.9520  -12.4100   18.6250 C   0  0  0  0  0  2  0  0  0  0  0  0
  -27.5890  -13.2980   19.8470 C   0  0  0  0  0  3  0  0  0  0  0  0
  -28.6480  -13.2100   20.9700 C   0  0  0  0  0  2  0  0  0  0  0  0
  -29.9530  -13.5500   20.3800 N   0  0  0  0  0  0  0  0  0  0  0  0
  -31.7470  -14.8820   20.0080 O   0  0  0  0  0  0  0  0  0  0  0  0
  -29.8670  -15.8970   20.8000 N   0  0  0  0  0  0  0  0  0  0  0  0
  -29.0230  -15.6370   21.2920 H   0  0  0  0  0  0  0  0  0  0  0  0
  -25.1990  -13.8960   20.5520 C   0  0  0  0  0  0  0  0  0  0  0  0
  -24.1240  -13.1250   20.9090 C   0  0  0  0  0  0  0  0  0  0  0  0
  -24.5820  -11.7730   20.8850 C   0  0  0  0  0  0  0  0  0  0  0  0
  -26.2410  -13.0110   20.3300 N   0  0  0  0  0  0  0  0  0  0  0  0
  -25.8780  -11.7300   20.5900 N   0  0  0  0  0  0  0  0  0  0  0  0
  -23.8490  -10.5140   21.0740 C   0  0  0  0  0  0  0  0  0  0  0  0
  -24.2790   -9.5390   22.0010 C   0  0  0  0  0  3  0  0  0  0  0  0
  -23.5480   -8.3450   22.1780 C   0  0  0  0  0  3  0  0  0  0  0  0
  -22.3740   -8.1150   21.4220 C   0  0  0  0  0  0  0  0  0  0  0  0
  -21.9640   -9.0750   20.4780 C   0  0  0  0  0  3  0  0  0  0  0  0
  -22.6960  -10.2610   20.3030 C   0  0  0  0  0  3  0  0  0  0  0  0
  -21.6140   -6.9720   21.5070 O   0  0  0  0  0  0  0  0  0  0  0  0
  -21.5660   -6.2200   22.6510 C   0  0  0  0  0  0  0  0  0  0  0  0
  -21.1530   -6.7690   23.8840 C   0  0  0  0  0  3  0  0  0  0  0  0
  -21.0540   -5.9440   25.0230 C   0  0  0  0  0  3  0  0  0  0  0  0
  -21.3630   -4.5740   24.9290 C   0  0  0  0  0  0  0  0  0  0  0  0
  -21.7720   -4.0240   23.7010 C   0  0  0  0  0  3  0  0  0  0  0  0
  -21.8720   -4.8450   22.5660 C   0  0  0  0  0  0  0  0  0  0  0  0
  -22.2470   -4.3080   21.3800 F   0  0  0  0  0  0  0  0  0  0  0  0
  -21.2590   -3.7800   26.0210 F   0  0  0  0  0  0  0  0  0  0  0  0
  -22.7260  -13.6060   21.1600 C   0  0  0  0  0  0  0  0  0  0  0  0
  -21.9880  -12.9090   22.0180 N   0  0  0  0  0  0  0  0  0  0  0  0
  -22.2950  -14.6290   20.6340 O   0  0  0  0  0  0  0  0  0  0  0  0
  -22.3620  -12.0870   22.4710 H   0  0  0  0  0  0  0  0  0  0  0  0
  -21.0430  -13.1990   22.2250 H   0  0  0  0  0  0  0  0  0  0  0  0
  -25.3740  -15.2620   20.3780 N   0  0  0  0  0  0  0  0  0  0  0  0
  -24.6140  -15.9270   20.4650 H   0  0  0  0  0  0  0  0  0  0  0  0
  -26.2360  -15.6890   20.0580 H   0  0  0  0  0  0  0  0  0  0  0  0
  -28.6790  -19.7460   17.3950 C   0  0  0  0  0  3  0  0  0  0  0  0
  -27.9920  -19.2060   16.4730 N   0  0  0  0  0  0  0  0  0  0  0  0
  -27.7570  -18.2390   16.6770 H   0  0  0  0  0  0  0  0  0  0  0  0
  -28.1170  -24.9410   19.7340 C   0  0  0  0  0  2  0  0  0  0  0  0
  -28.2990  -26.3780   20.1930 O   0  0  0  0  0  0  0  0  0  0  0  0
  -24.5890  -31.8780   23.2810 C   0  0  0  0  0  0  0  0  0  0  0  0
  -27.1990  -27.2890   20.1530 C   0  0  0  0  0  0  0  0  0  0  0  0
  -23.3780  -30.4910   21.6400 C   0  0  0  0  0  3  0  0  0  0  0  0
  -24.8260  -28.9450   20.1950 C   0  0  0  0  0  0  0  0  0  0  0  0
  -25.9260  -30.7900   21.4550 C   0  0  0  0  0  2  0  0  0  0  0  0
  -26.0050  -29.4130   20.7940 C   0  0  0  0  0  0  0  0  0  0  0  0
  -27.1900  -28.5990   20.7620 C   0  0  0  0  0  3  0  0  0  0  0  0
  -26.0000  -26.9160   19.5020 C   0  0  0  0  0  3  0  0  0  0  0  0
  -24.8330  -27.7040   19.5390 C   0  0  0  0  0  3  0  0  0  0  0  0
  -23.5840  -29.8150   20.2600 C   0  0  0  0  0  2  0  0  0  0  0  0
  -24.6520  -31.0700   22.1810 N   0  0  0  0  0  0  0  0  0  0  0  0
  -23.5090  -32.1580   23.8200 O   0  0  0  0  0  0  0  0  0  0  0  0
  -22.7110  -29.4770   22.6000 C   0  0  0  0  0  0  0  0  0  0  0  0
  -21.3860  -29.2940   22.4690 N   0  0  0  0  0  0  0  0  0  0  0  0
  -23.3860  -28.8540   23.4250 O   0  0  0  0  0  0  0  0  0  0  0  0
  -20.8960  -29.8400   21.7750 H   0  0  0  0  0  0  0  0  0  0  0  0
  -18.0170  -28.0680   22.9610 C   0  0  0  0  0  0  0  0  0  0  0  0
  -20.5730  -28.3520   23.2410 C   0  0  0  0  0  3  0  0  0  0  0  0
  -20.6910  -26.9210   22.6720 C   0  0  0  0  0  2  0  0  0  0  0  0
  -19.5980  -26.5850   21.6520 C   0  0  0  0  0  2  0  0  0  0  0  0
  -18.2100  -26.7180   22.2870 C   0  0  0  0  0  2  0  0  0  0  0  0
  -19.1270  -28.8410   23.3950 C   0  0  0  0  0  0  0  0  0  0  0  0
  -18.8940  -30.1020   23.9860 C   0  0  0  0  0  3  0  0  0  0  0  0
  -17.5870  -30.5960   24.1360 C   0  0  0  0  0  3  0  0  0  0  0  0
  -16.4910  -29.8210   23.7210 C   0  0  0  0  0  3  0  0  0  0  0  0
  -16.7060  -28.5560   23.1430 C   0  0  0  0  0  3  0  0  0  0  0  0
  -25.8740  -32.5090   23.9000 C   0  0  0  0  0  3  0  0  0  0  0  0
  -26.3810  -31.7450   25.1840 C   0  0  1  0  0  0  0  0  0  0  0  0
  -25.2830  -31.5190   26.2490 C   0  0  0  0  0  1  0  0  0  0  0  0
  -26.9550  -30.3580   24.8100 C   0  0  0  0  0  1  0  0  0  0  0  0
  -27.5350  -32.5340   25.8450 C   0  0  0  0  0  1  0  0  0  0  0  0
  -25.5730  -33.9130   24.2200 N   0  0  0  0  0  0  0  0  0  0  0  0
  -25.9060  -34.9570   23.4510 C   0  0  0  0  0  0  0  0  0  0  0  0
  -26.5670  -34.8420   22.4150 O   0  0  0  0  0  0  0  0  0  0  0  0
  -24.9770  -34.0760   25.0190 H   0  0  0  0  0  0  0  0  0  0  0  0
  -24.1820  -36.7530   23.1010 C   0  0  0  0  0  1  0  0  0  0  0  0
  -25.4280  -36.3510   23.9030 C   0  0  0  0  0  3  0  0  0  0  0  0
  -27.5740  -37.2350   24.7020 C   0  0  0  0  0  1  0  0  0  0  0  0
  -26.4610  -37.4010   23.7720 N   0  0  0  0  0  0  0  0  0  0  0  0
  -26.0590  -38.3240   23.9180 H   0  0  0  0  0  0  0  0  0  0  0  0
  1  3  1  0
  2  1  2  0
  3  5  1  0
  4  2  1  0
  4  6  1  0
  6  5  1  0
  8  6  1  0
  8  7  1  0
  9  8  2  0
 10  7  2  0
 10 20  1  0
 11  9  1  0
 11 10  1  0
 12 20  1  0
 13 18  1  0
 14 15  1  0
 14 13  1  0
 16 15  1  0
 16 25  1  0
 16 17  1  0
 18 12  1  0
 18 17  1  0
 19 12  2  0
 20 21  1  0
 22 23  2  0
 23 42  1  0
 24 23  1  0
 24 27  1  0
 25 22  1  0
 25 26  1  0
 26 24  2  0
 27 28  1  0
 28 29  2  0
 30 33  1  0
 30 29  1  0
 31 30  2  0
 32 31  1  0
 32 27  2  0
 33 34  1  0
 34 35  1  0
 35 36  2  0
 37 36  1  0
 37 41  1  0
 38 37  2  0
 39 34  2  0
 39 38  1  0
 40 39  1  0
 42 43  1  0
 43 46  1  0
 43 45  1  0
 44 42  2  0
 47 48  1  0
 47 22  1  0
 49 47  1  0
 50  9  1  0
 51 52  1  0
 51 50  2  0
 53  2  1  0
 53 54  1  0
 55 66  2  0
 56 54  1  0
 56 61  1  0
 57 65  1  0
 57 67  1  0
 58 64  1  0
 58 60  1  0
 59 65  1  0
 60 59  1  0
 61 60  2  0
 62 63  1  0
 62 56  2  0
 63 58  2  0
 64 57  1  0
 65 55  1  0
 67 69  2  0
 68 67  1  0
 70 68  1  0
 71 80  2  0
 71 76  1  0
 72 68  1  0
 72 76  1  0
 73 72  1  0
 74 75  1  0
 74 73  1  0
 75 71  1  0
 76 77  2  0
 77 78  1  0
 79 78  2  0
 80 79  1  0
 81 55  1  0
 81 86  1  0
 81 82  1  0
 82 85  1  1
 82 83  1  0
 84 82  1  0
 86 89  1  0
 87 91  1  0
 87 86  1  0
 88 87  2  0
 91 90  1  0
 93 91  1  0
 93 94  1  0
 93 92  1  0
M  ISO  4  12 100  20 100  53 101  54 101
M  END
>  <TORSDO>  (22) 
F 19

>  <SCORE>  (22) 
-14.321

>  <name>  (22) 
21

>  <ligand_id>  (22) 
21

>  <original_smiles>  (22) 
[H]N=C([H])c1sc(N([H])C(=O)N2C([H])([H])C([H])([H])C([H])([H])C([H])(n3nc(-c4c([H])c([H])c(Oc5c([H])c([H])c(F)c([H])c5F)c([H])c4[H])c(C(=O)N([H])[H])c3N([H])[H])C2([H])[H])c([H])c1N1C([H])([H])C(C([H])([H])Oc2c([H])c([H])c3c(c2[H])C([H])([H])N(C(=O)C([H])(N([H])C(=O)C([H])(N([H])C([H])([H])[H])C([H])([H])[H])C(C([H])([H])[H])(C([H])([H])[H])C([H])([H])[H])C([H])(C(=O)N([H])C2([H])c4c([H])c([H])c([H])c([H])c4C([H])([H])C([H])([H])C2([H])[H])C3([H])[H])=C([H])C([H])([H])C1([H])[H]

>  <smiles>  (22) 
[H]N=C([H])c1sc(N([H])C(=O)N2C([H])([H])C([H])([H])C([H])([H])C([H])(n3nc(-c4c([H])c([H])c(Oc5c([H])c([H])c(F)c([H])c5F)c([H])c4[H])c(C(=O)N([H])[H])c3N([H])[H])C2([H])[H])c([H])c1N1C([H])([H])C(C([H])([H])Oc2c([H])c([H])c3c(c2[H])C([H])([H])N(C(=O)C([H])(N([H])C(=O)C([H])(N([H])C([H])([H])[H])C([H])([H])[H])C(C([H])([H])[H])(C([H])([H])[H])C([H])([H])[H])C([H])(C(=O)N([H])C2([H])c4c([H])c([H])c([H])c([H])c4C([H])([H])C([H])([H])C2([H])[H])C3([H])[H])=C([H])C([H])([H])C1([H])[H]

$$$$
22:0:0
     RDKit          3D

 93102  0  0  1  0  0  0  0  0999 V2000
  -30.9300  -21.3330   20.5740 C   0  0  0  0  0  2  0  0  0  0  0  0
  -28.5800  -22.0460   20.0960 C   0  0  0  0  0  2  0  0  0  0  0  0
  -31.1590  -22.7520   21.1530 C   0  0  0  0  0  2  0  0  0  0  0  0
  -28.8930  -23.5790   20.5840 C   0  0  0  0  0  3  0  0  0  0  0  0
  -29.5230  -20.9280   20.5400 N   0  0  0  0  0  0  0  0  0  0  0  0
  -30.3530  -23.7960   20.4690 N   0  0  0  0  0  4  0  0  0  0  0  0
  -30.6200  -23.8290   19.4980 H   0  0  0  0  0  0  0  0  0  0  0  0
  -30.5840  -24.6900   20.8750 H   0  0  0  0  0  0  0  0  0  0  0  0
  -28.2450  -18.9560   19.5980 C   0  0  0  0  0  3  0  0  0  0  0  0
  -28.3950  -17.5230   19.6200 C   0  0  0  0  0  3  0  0  0  0  0  0
  -29.2760  -19.4980   20.3170 C   0  0  0  0  0  0  0  0  0  0  0  0
  -29.5180  -17.1990   20.3430 C   0  0  0  0  0  0  0  0  0  0  0  0
  -30.0820  -18.4230   20.7980 O   0  0  0  0  0  0  0  0  0  0  0  0
  -30.5280  -14.8190   20.3570 C   0  0  0  0  0  0  0  0  0  0  0  0
  -30.3850  -12.5240   19.3460 C   0  0  0  0  0  2  0  0  0  0  0  0
  -29.4370  -12.5840   18.1250 C   0  0  0  0  0  2  0  0  0  0  0  0
  -27.9690  -12.3980   18.5550 C   0  0  0  0  0  2  0  0  0  0  0  0
  -27.5930  -13.2760   19.7770 C   0  0  0  0  0  3  0  0  0  0  0  0
  -28.6550  -13.1770   20.8960 C   0  0  0  0  0  2  0  0  0  0  0  0
  -29.9510  -13.5620   20.3130 N   0  0  0  0  0  0  0  0  0  0  0  0
  -31.6810  -14.9720   19.9360 O   0  0  0  0  0  0  0  0  0  0  0  0
  -29.7470  -15.8810   20.8030 N   0  0  0  0  0  0  0  0  0  0  0  0
  -28.9200  -15.5000   21.2400 H   0  0  0  0  0  0  0  0  0  0  0  0
  -25.2020  -13.8620   20.5070 C   0  0  0  0  0  0  0  0  0  0  0  0
  -24.1380  -13.0860   20.8780 C   0  0  0  0  0  0  0  0  0  0  0  0
  -24.6040  -11.7360   20.8460 C   0  0  0  0  0  0  0  0  0  0  0  0
  -26.2480  -12.9850   20.2670 N   0  0  0  0  0  0  0  0  0  0  0  0
  -25.8950  -11.7020   20.5330 N   0  0  0  0  0  0  0  0  0  0  0  0
  -23.8800  -10.4720   21.0390 C   0  0  0  0  0  0  0  0  0  0  0  0
  -24.3220   -9.5010   21.9660 C   0  0  0  0  0  3  0  0  0  0  0  0
  -23.5980   -8.3020   22.1470 C   0  0  0  0  0  3  0  0  0  0  0  0
  -22.4170   -8.0670   21.4030 C   0  0  0  0  0  0  0  0  0  0  0  0
  -21.9940   -9.0260   20.4660 C   0  0  0  0  0  3  0  0  0  0  0  0
  -22.7180  -10.2150   20.2840 C   0  0  0  0  0  3  0  0  0  0  0  0
  -21.6630   -6.9220   21.4930 O   0  0  0  0  0  0  0  0  0  0  0  0
  -21.6300   -6.1730   22.6420 C   0  0  0  0  0  0  0  0  0  0  0  0
  -21.2170   -6.7190   23.8760 C   0  0  0  0  0  3  0  0  0  0  0  0
  -21.1310   -5.8960   25.0170 C   0  0  0  0  0  3  0  0  0  0  0  0
  -21.4470   -4.5270   24.9240 C   0  0  0  0  0  0  0  0  0  0  0  0
  -21.8530   -3.9810   23.6940 C   0  0  0  0  0  3  0  0  0  0  0  0
  -21.9420   -4.8010   22.5560 C   0  0  0  0  0  0  0  0  0  0  0  0
  -22.3140   -4.2650   21.3680 F   0  0  0  0  0  0  0  0  0  0  0  0
  -21.3560   -3.7350   26.0170 F   0  0  0  0  0  0  0  0  0  0  0  0
  -22.7420  -13.5610   21.1540 C   0  0  0  0  0  0  0  0  0  0  0  0
  -22.0150  -12.8660   22.0200 N   0  0  0  0  0  0  0  0  0  0  0  0
  -22.3020  -14.5880   20.6370 O   0  0  0  0  0  0  0  0  0  0  0  0
  -22.3800  -12.0340   22.4610 H   0  0  0  0  0  0  0  0  0  0  0  0
  -21.0780  -13.1700   22.2470 H   0  0  0  0  0  0  0  0  0  0  0  0
  -25.3600  -15.2330   20.3310 N   0  0  0  0  0  0  0  0  0  0  0  0
  -24.5870  -15.8810   20.4470 H   0  0  0  0  0  0  0  0  0  0  0  0
  -26.2000  -15.6790   19.9940 H   0  0  0  0  0  0  0  0  0  0  0  0
  -28.0410  -24.8450   19.9710 C   0  0  0  0  0  2  0  0  0  0  0  0
  -28.2590  -26.3180   20.3040 O   0  0  0  0  0  0  0  0  0  0  0  0
  -24.6200  -31.9030   23.2480 C   0  0  0  0  0  0  0  0  0  0  0  0
  -27.1840  -27.2500   20.2080 C   0  0  0  0  0  0  0  0  0  0  0  0
  -23.4070  -30.5100   21.6150 C   0  0  0  0  0  3  0  0  0  0  0  0
  -24.8460  -28.9440   20.1820 C   0  0  0  0  0  0  0  0  0  0  0  0
  -25.9550  -30.7900   21.4330 C   0  0  0  0  0  2  0  0  0  0  0  0
  -26.0240  -29.4050   20.7860 C   0  0  0  0  0  0  0  0  0  0  0  0
  -27.1930  -28.5690   20.7890 C   0  0  0  0  0  3  0  0  0  0  0  0
  -25.9870  -26.8810   19.5490 C   0  0  0  0  0  3  0  0  0  0  0  0
  -24.8370  -27.6930   19.5500 C   0  0  0  0  0  3  0  0  0  0  0  0
  -23.6180  -29.8330   20.2340 C   0  0  0  0  0  2  0  0  0  0  0  0
  -24.6810  -31.0870   22.1550 N   0  0  0  0  0  0  0  0  0  0  0  0
  -23.5380  -32.1900   23.7820 O   0  0  0  0  0  0  0  0  0  0  0  0
  -22.7370  -29.5000   22.5790 C   0  0  0  0  0  0  0  0  0  0  0  0
  -21.4090  -29.3300   22.4550 N   0  0  0  0  0  0  0  0  0  0  0  0
  -23.4130  -28.8730   23.3990 O   0  0  0  0  0  0  0  0  0  0  0  0
  -20.9220  -29.8880   21.7690 H   0  0  0  0  0  0  0  0  0  0  0  0
  -18.0260  -28.1450   22.9680 C   0  0  0  0  0  0  0  0  0  0  0  0
  -20.5870  -28.3970   23.2310 C   0  0  0  0  0  3  0  0  0  0  0  0
  -20.6820  -26.9640   22.6610 C   0  0  0  0  0  2  0  0  0  0  0  0
  -19.5780  -26.6410   21.6490 C   0  0  0  0  0  2  0  0  0  0  0  0
  -18.1970  -26.7930   22.2960 C   0  0  0  0  0  2  0  0  0  0  0  0
  -19.1490  -28.9050   23.3930 C   0  0  0  0  0  0  0  0  0  0  0  0
  -18.9350  -30.1700   23.9820 C   0  0  0  0  0  3  0  0  0  0  0  0
  -17.6320  -30.6760   24.1500 C   0  0  0  0  0  3  0  0  0  0  0  0
  -16.5240  -29.9130   23.7410 C   0  0  0  0  0  3  0  0  0  0  0  0
  -16.7220  -28.6500   23.1550 C   0  0  0  0  0  3  0  0  0  0  0  0
  -25.9050  -32.5330   23.8660 C   0  0  0  0  0  3  0  0  0  0  0  0
  -25.6030  -33.9350   24.1920 N   0  0  0  0  0  0  0  0  0  0  0  0
  -25.9280  -34.9850   23.4250 C   0  0  0  0  0  0  0  0  0  0  0  0
  -26.5850  -34.8750   22.3870 O   0  0  0  0  0  0  0  0  0  0  0  0
  -25.0180  -34.0940   24.9990 H   0  0  0  0  0  0  0  0  0  0  0  0
  -24.2000  -36.7820   23.0900 C   0  0  0  0  0  1  0  0  0  0  0  0
  -25.4530  -36.3780   23.8830 C   0  0  0  0  0  3  0  0  0  0  0  0
  -27.6020  -37.2630   24.6740 C   0  0  0  0  0  1  0  0  0  0  0  0
  -26.4860  -37.4270   23.7460 N   0  0  0  0  0  0  0  0  0  0  0  0
  -26.0840  -38.3490   23.8930 H   0  0  0  0  0  0  0  0  0  0  0  0
  -26.4160  -31.7670   25.1480 C   0  0  1  0  0  0  0  0  0  0  0  0
  -25.3210  -31.5440   26.2170 C   0  0  0  0  0  1  0  0  0  0  0  0
  -26.9890  -30.3820   24.7690 C   0  0  0  0  0  1  0  0  0  0  0  0
  -27.5730  -32.5570   25.8050 C   0  0  0  0  0  1  0  0  0  0  0  0
  1  3  1  0
  2  5  1  0
  2  4  1  0
  4 52  1  0
  5  1  1  0
  6  4  1  0
  6  8  1  0
  6  3  1  0
  7  6  1  0
  9 10  1  0
  9 11  2  0
 10 12  2  0
 11  5  1  0
 11 13  1  0
 12 13  1  0
 12 22  1  0
 14 22  1  0
 15 20  1  0
 16 17  1  0
 16 15  1  0
 18 17  1  0
 18 27  1  0
 18 19  1  0
 20 14  1  0
 20 19  1  0
 21 14  2  0
 22 23  1  0
 24 25  2  0
 25 44  1  0
 26 25  1  0
 26 29  1  0
 27 24  1  0
 27 28  1  0
 28 26  2  0
 29 30  1  0
 30 31  2  0
 32 35  1  0
 32 31  1  0
 33 32  2  0
 34 33  1  0
 34 29  2  0
 35 36  1  0
 36 37  1  0
 37 38  2  0
 39 38  1  0
 39 43  1  0
 40 39  2  0
 41 36  2  0
 41 40  1  0
 42 41  1  0
 44 45  1  0
 45 48  1  0
 45 47  1  0
 46 44  2  0
 49 50  1  0
 49 24  1  0
 51 49  1  0
 52 53  1  0
 54 65  2  0
 55 53  1  0
 55 60  1  0
 56 64  1  0
 56 66  1  0
 57 63  1  0
 57 59  1  0
 58 64  1  0
 59 60  2  0
 59 58  1  0
 61 62  1  0
 61 55  2  0
 62 57  2  0
 63 56  1  0
 64 54  1  0
 66 68  2  0
 67 66  1  0
 69 67  1  0
 70 79  2  0
 70 75  1  0
 71 67  1  0
 71 75  1  0
 72 71  1  0
 73 74  1  0
 73 72  1  0
 74 70  1  0
 75 76  2  0
 76 77  1  0
 78 77  2  0
 79 78  1  0
 80 54  1  0
 80 81  1  0
 80 90  1  0
 81 84  1  0
 82 86  1  0
 82 81  1  0
 83 82  2  0
 86 85  1  0
 88 86  1  0
 88 89  1  0
 88 87  1  0
 90 93  1  1
 90 91  1  0
 92 90  1  0
M  ISO  4  14 100  22 100  52 101  53 101
M  END
>  <TORSDO>  (23) 
F 18

>  <SCORE>  (23) 
-14.905

>  <name>  (23) 
22

>  <ligand_id>  (23) 
22

>  <original_smiles>  (23) 
[H]c1c(N([H])C(=O)N2C([H])([H])C([H])([H])C([H])([H])C([H])(n3nc(-c4c([H])c([H])c(Oc5c([H])c([H])c(F)c([H])c5F)c([H])c4[H])c(C(=O)N([H])[H])c3N([H])[H])C2([H])[H])oc(N2C([H])([H])C([H])([H])[N+]([H])([H])C([H])(C([H])([H])Oc3c([H])c([H])c4c(c3[H])C([H])([H])N(C(=O)C([H])(N([H])C(=O)C([H])(N([H])C([H])([H])[H])C([H])([H])[H])C(C([H])([H])[H])(C([H])([H])[H])C([H])([H])[H])C([H])(C(=O)N([H])C3([H])c5c([H])c([H])c([H])c([H])c5C([H])([H])C([H])([H])C3([H])[H])C4([H])[H])C2([H])[H])c1[H]

>  <smiles>  (23) 
[H]c1c(N([H])C(=O)N2C([H])([H])C([H])([H])C([H])([H])C([H])(n3nc(-c4c([H])c([H])c(Oc5c([H])c([H])c(F)c([H])c5F)c([H])c4[H])c(C(=O)N([H])[H])c3N([H])[H])C2([H])[H])oc(N2C([H])([H])C([H])([H])[N+]([H])([H])C([H])(C([H])([H])Oc3c([H])c([H])c4c(c3[H])C([H])([H])N(C(=O)C([H])(N([H])C(=O)C([H])(N([H])C([H])([H])[H])C([H])([H])[H])C(C([H])([H])[H])(C([H])([H])[H])C([H])([H])[H])C([H])(C(=O)N([H])C3([H])c5c([H])c([H])c([H])c([H])c5C([H])([H])C([H])([H])C3([H])[H])C4([H])[H])C2([H])[H])c1[H]

$$$$
23:0:0
     RDKit          3D

 94103  0  0  1  0  0  0  0  0999 V2000
  -28.6180  -23.8200   20.9690 C   0  0  0  0  0  0  0  0  0  0  0  0
  -29.2730  -21.2740   21.0030 C   0  0  0  0  0  3  0  0  0  0  0  0
  -28.7790  -24.3000   18.6630 C   0  0  0  0  0  2  0  0  0  0  0  0
  -28.9910  -22.7650   18.9000 C   0  0  0  0  0  2  0  0  0  0  0  0
  -28.0920  -24.8750   19.9150 C   0  0  0  0  0  3  0  0  0  0  0  0
  -29.0030  -22.5090   20.3540 N   0  0  0  0  0  0  0  0  0  0  0  0
  -29.1660  -21.2490   22.3440 N   0  0  0  0  0  0  0  0  0  0  0  0
  -28.6230  -24.0170   22.1950 O   0  0  0  0  0  0  0  0  0  0  0  0
  -29.4130  -20.4250   22.8700 H   0  0  0  0  0  0  0  0  0  0  0  0
  -28.9260  -22.0920   22.8540 H   0  0  0  0  0  0  0  0  0  0  0  0
  -29.3460  -18.5980   20.8330 C   0  0  0  0  0  3  0  0  0  0  0  0
  -31.0670  -18.0010   19.3840 C   0  0  0  0  0  3  0  0  0  0  0  0
  -30.1290  -17.4880   20.2480 C   0  0  0  0  0  0  0  0  0  0  0  0
  -29.7040  -19.9150   20.4510 C   0  0  0  0  0  0  0  0  0  0  0  0
  -31.0050  -19.7700   19.2840 S   0  0  0  0  0  0  0  0  0  0  0  0
  -30.6780  -14.8900   20.1610 C   0  0  0  0  0  0  0  0  0  0  0  0
  -30.4650  -12.6050   19.1510 C   0  0  0  0  0  2  0  0  0  0  0  0
  -29.4990  -12.6710   17.9450 C   0  0  0  0  0  2  0  0  0  0  0  0
  -28.0420  -12.4830   18.4080 C   0  0  0  0  0  2  0  0  0  0  0  0
  -27.6910  -13.3690   19.6330 C   0  0  0  0  0  3  0  0  0  0  0  0
  -28.7740  -13.2870   20.7320 C   0  0  0  0  0  2  0  0  0  0  0  0
  -30.0570  -13.6560   20.1170 N   0  0  0  0  0  0  0  0  0  0  0  0
  -31.8470  -14.9850   19.7670 O   0  0  0  0  0  0  0  0  0  0  0  0
  -29.9270  -16.0210   20.4960 N   0  0  0  0  0  0  0  0  0  0  0  0
  -29.0360  -15.7860   20.9070 H   0  0  0  0  0  0  0  0  0  0  0  0
  -25.3190  -13.9480   20.4160 C   0  0  0  0  0  0  0  0  0  0  0  0
  -24.2630  -13.1690   20.8020 C   0  0  0  0  0  0  0  0  0  0  0  0
  -24.7280  -11.8200   20.7520 C   0  0  0  0  0  0  0  0  0  0  0  0
  -26.3590  -13.0720   20.1510 N   0  0  0  0  0  0  0  0  0  0  0  0
  -26.0120  -11.7860   20.4170 N   0  0  0  0  0  0  0  0  0  0  0  0
  -24.0070  -10.5540   20.9480 C   0  0  0  0  0  0  0  0  0  0  0  0
  -24.4340   -9.6000   21.8980 C   0  0  0  0  0  3  0  0  0  0  0  0
  -23.7120   -8.4000   22.0810 C   0  0  0  0  0  3  0  0  0  0  0  0
  -22.5520   -8.1460   21.3130 C   0  0  0  0  0  0  0  0  0  0  0  0
  -22.1450   -9.0870   20.3510 C   0  0  0  0  0  3  0  0  0  0  0  0
  -22.8660  -10.2790   20.1670 C   0  0  0  0  0  3  0  0  0  0  0  0
  -21.8030   -6.9980   21.4050 O   0  0  0  0  0  0  0  0  0  0  0  0
  -21.7060   -6.2930   22.5780 C   0  0  0  0  0  0  0  0  0  0  0  0
  -21.1840   -6.8720   23.7550 C   0  0  0  0  0  3  0  0  0  0  0  0
  -21.0400   -6.0910   24.9200 C   0  0  0  0  0  3  0  0  0  0  0  0
  -21.4060   -4.7330   24.9060 C   0  0  0  0  0  0  0  0  0  0  0  0
  -21.9200   -4.1510   23.7330 C   0  0  0  0  0  3  0  0  0  0  0  0
  -22.0660   -4.9290   22.5720 C   0  0  0  0  0  0  0  0  0  0  0  0
  -22.5420   -4.3610   21.4370 F   0  0  0  0  0  0  0  0  0  0  0  0
  -21.2590   -3.9800   26.0220 F   0  0  0  0  0  0  0  0  0  0  0  0
  -22.8700  -13.6400   21.1040 C   0  0  0  0  0  0  0  0  0  0  0  0
  -22.1620  -12.9370   21.9800 N   0  0  0  0  0  0  0  0  0  0  0  0
  -22.4210  -14.6690   20.6000 O   0  0  0  0  0  0  0  0  0  0  0  0
  -22.5420  -12.1050   22.4070 H   0  0  0  0  0  0  0  0  0  0  0  0
  -21.2280  -13.2320   22.2250 H   0  0  0  0  0  0  0  0  0  0  0  0
  -25.4770  -15.3200   20.2440 N   0  0  0  0  0  0  0  0  0  0  0  0
  -24.7090  -15.9700   20.3680 H   0  0  0  0  0  0  0  0  0  0  0  0
  -26.3070  -15.7580   19.8650 H   0  0  0  0  0  0  0  0  0  0  0  0
  -28.2570  -26.3760   20.1680 O   0  0  0  0  0  0  0  0  0  0  0  0
  -24.5710  -31.8980   23.1740 C   0  0  0  0  0  0  0  0  0  0  0  0
  -27.1650  -27.2880   20.0860 C   0  0  0  0  0  0  0  0  0  0  0  0
  -23.3670  -30.5110   21.5280 C   0  0  0  0  0  3  0  0  0  0  0  0
  -24.8160  -28.9690   20.0820 C   0  0  0  0  0  0  0  0  0  0  0  0
  -25.9140  -30.8080   21.3520 C   0  0  0  0  0  2  0  0  0  0  0  0
  -25.9900  -29.4300   20.6890 C   0  0  0  0  0  0  0  0  0  0  0  0
  -27.1640  -28.6020   20.6810 C   0  0  0  0  0  3  0  0  0  0  0  0
  -25.9690  -26.9220   19.4230 C   0  0  0  0  0  3  0  0  0  0  0  0
  -24.8130  -27.7240   19.4400 C   0  0  0  0  0  3  0  0  0  0  0  0
  -23.5820  -29.8500   20.1400 C   0  0  0  0  0  2  0  0  0  0  0  0
  -24.6370  -31.0910   22.0730 N   0  0  0  0  0  0  0  0  0  0  0  0
  -23.4870  -32.1730   23.7100 O   0  0  0  0  0  0  0  0  0  0  0  0
  -22.7040  -29.4880   22.4810 C   0  0  0  0  0  0  0  0  0  0  0  0
  -21.3770  -29.3080   22.3550 N   0  0  0  0  0  0  0  0  0  0  0  0
  -23.3830  -28.8600   23.2980 O   0  0  0  0  0  0  0  0  0  0  0  0
  -20.8870  -29.8660   21.6710 H   0  0  0  0  0  0  0  0  0  0  0  0
  -18.0010  -28.1090   22.8710 C   0  0  0  0  0  0  0  0  0  0  0  0
  -20.5630  -28.3630   23.1220 C   0  0  0  0  0  3  0  0  0  0  0  0
  -20.6570  -26.9380   22.5300 C   0  0  0  0  0  2  0  0  0  0  0  0
  -19.5470  -26.6280   21.5210 C   0  0  0  0  0  2  0  0  0  0  0  0
  -18.1700  -26.7670   22.1780 C   0  0  0  0  0  2  0  0  0  0  0  0
  -19.1240  -28.8640   23.3000 C   0  0  0  0  0  0  0  0  0  0  0  0
  -18.9110  -30.1200   23.9110 C   0  0  0  0  0  3  0  0  0  0  0  0
  -17.6080  -30.6200   24.0940 C   0  0  0  0  0  3  0  0  0  0  0  0
  -16.5010  -29.8610   23.6810 C   0  0  0  0  0  3  0  0  0  0  0  0
  -16.6980  -28.6070   23.0760 C   0  0  0  0  0  3  0  0  0  0  0  0
  -25.8520  -32.5320   23.7960 C   0  0  0  0  0  3  0  0  0  0  0  0
  -25.5390  -33.9260   24.1410 N   0  0  0  0  0  0  0  0  0  0  0  0
  -25.8600  -34.9890   23.3900 C   0  0  0  0  0  0  0  0  0  0  0  0
  -26.5220  -34.8980   22.3520 O   0  0  0  0  0  0  0  0  0  0  0  0
  -24.9490  -34.0720   24.9470 H   0  0  0  0  0  0  0  0  0  0  0  0
  -24.1290  -36.7830   23.0560 C   0  0  0  0  0  1  0  0  0  0  0  0
  -25.3690  -36.3700   23.8640 C   0  0  0  0  0  3  0  0  0  0  0  0
  -27.5070  -37.2390   24.7040 C   0  0  0  0  0  1  0  0  0  0  0  0
  -26.3960  -37.4320   23.7770 N   0  0  0  0  0  0  0  0  0  0  0  0
  -25.9830  -38.3420   23.9680 H   0  0  0  0  0  0  0  0  0  0  0  0
  -26.3720  -31.7540   25.0690 C   0  0  1  0  0  0  0  0  0  0  0  0
  -25.2800  -31.5020   26.1360 C   0  0  0  0  0  1  0  0  0  0  0  0
  -26.9620  -30.3810   24.6720 C   0  0  0  0  0  1  0  0  0  0  0  0
  -27.5190  -32.5480   25.7350 C   0  0  0  0  0  1  0  0  0  0  0  0
  1  8  2  0
  2  7  1  0
  3  4  1  0
  3  5  1  0
  4  6  1  0
  5 54  1  0
  5  1  1  0
  6  1  1  0
  6  2  1  0
  7 10  1  0
  7  9  1  0
 12 13  2  0
 13 24  1  0
 13 11  1  0
 14 11  2  0
 14  2  1  0
 15 12  1  0
 15 14  1  0
 16 24  1  0
 17 22  1  0
 18 19  1  0
 18 17  1  0
 20 19  1  0
 20 29  1  0
 20 21  1  0
 22 16  1  0
 22 21  1  0
 23 16  2  0
 24 25  1  0
 26 27  2  0
 27 46  1  0
 28 27  1  0
 28 31  1  0
 29 26  1  0
 29 30  1  0
 30 28  2  0
 31 32  1  0
 32 33  2  0
 34 37  1  0
 34 33  1  0
 35 34  2  0
 36 35  1  0
 36 31  2  0
 37 38  1  0
 38 39  1  0
 39 40  2  0
 41 40  1  0
 41 45  1  0
 42 41  2  0
 43 38  2  0
 43 42  1  0
 44 43  1  0
 46 47  1  0
 47 50  1  0
 47 49  1  0
 48 46  2  0
 51 52  1  0
 51 26  1  0
 53 51  1  0
 55 66  2  0
 56 54  1  0
 56 61  1  0
 57 65  1  0
 57 67  1  0
 58 64  1  0
 58 60  1  0
 59 65  1  0
 60 59  1  0
 61 60  2  0
 62 63  1  0
 62 56  2  0
 63 58  2  0
 64 57  1  0
 65 55  1  0
 67 69  2  0
 68 67  1  0
 70 68  1  0
 71 80  2  0
 71 76  1  0
 72 68  1  0
 72 76  1  0
 73 72  1  0
 74 75  1  0
 74 73  1  0
 75 71  1  0
 76 77  2  0
 77 78  1  0
 79 78  2  0
 80 79  1  0
 81 55  1  0
 81 82  1  0
 81 91  1  0
 82 85  1  0
 83 87  1  0
 83 82  1  0
 84 83  2  0
 87 86  1  0
 89 87  1  0
 89 90  1  0
 89 88  1  0
 91 94  1  1
 91 92  1  0
 93 91  1  0
M  ISO  4   5 101  16 100  24 100  54 101
M  END
>  <TORSDO>  (24) 
F 17

>  <SCORE>  (24) 
-15.310

>  <name>  (24) 
23

>  <ligand_id>  (24) 
23

>  <original_smiles>  (24) 
[H]c1sc(C(N2C(=O)C([H])(Oc3c([H])c([H])c4c(c3[H])C([H])([H])N(C(=O)C([H])(N([H])C(=O)C([H])(N([H])C([H])([H])[H])C([H])([H])[H])C(C([H])([H])[H])(C([H])([H])[H])C([H])([H])[H])C([H])(C(=O)N([H])C3([H])c5c([H])c([H])c([H])c([H])c5C([H])([H])C([H])([H])C3([H])[H])C4([H])[H])C([H])([H])C2([H])[H])=[N+]([H])[H])c([H])c1N([H])C(=O)N1C([H])([H])C([H])([H])C([H])([H])C([H])(n2nc(-c3c([H])c([H])c(Oc4c([H])c([H])c(F)c([H])c4F)c([H])c3[H])c(C(=O)N([H])[H])c2N([H])[H])C1([H])[H]

>  <smiles>  (24) 
[H]c1sc(C(N2C(=O)C([H])(Oc3c([H])c([H])c4c(c3[H])C([H])([H])N(C(=O)C([H])(N([H])C(=O)C([H])(N([H])C([H])([H])[H])C([H])([H])[H])C(C([H])([H])[H])(C([H])([H])[H])C([H])([H])[H])C([H])(C(=O)N([H])C3([H])c5c([H])c([H])c([H])c([H])c5C([H])([H])C([H])([H])C3([H])[H])C4([H])[H])C([H])([H])C2([H])[H])=[N+]([H])[H])c([H])c1N([H])C(=O)N1C([H])([H])C([H])([H])C([H])([H])C([H])(n2nc(-c3c([H])c([H])c(Oc4c([H])c([H])c(F)c([H])c4F)c([H])c3[H])c(C(=O)N([H])[H])c2N([H])[H])C1([H])[H]

$$$$
24:0:0
     RDKit          3D

 94102  0  0  1  0  0  0  0  0999 V2000
  -28.9580  -22.1310   19.9210 C   0  0  0  0  0  0  0  0  0  0  0  0
  -29.1370  -20.9390   20.6380 N   0  0  0  0  0  0  0  0  0  0  0  0
  -28.8720  -22.0950   18.6930 O   0  0  0  0  0  0  0  0  0  0  0  0
  -29.0320  -21.0420   21.6380 H   0  0  0  0  0  0  0  0  0  0  0  0
  -30.1430  -19.2580   19.0860 C   0  0  0  0  0  3  0  0  0  0  0  0
  -30.3840  -17.8330   19.1230 C   0  0  0  0  0  3  0  0  0  0  0  0
  -29.4660  -19.6190   20.2260 C   0  0  0  0  0  0  0  0  0  0  0  0
  -29.8370  -17.3250   20.2780 C   0  0  0  0  0  0  0  0  0  0  0  0
  -29.2570  -18.4240   20.9690 O   0  0  0  0  0  0  0  0  0  0  0  0
  -30.5210  -14.8330   20.3270 C   0  0  0  0  0  0  0  0  0  0  0  0
  -30.3650  -12.5300   19.3510 C   0  0  0  0  0  2  0  0  0  0  0  0
  -29.4320  -12.5910   18.1200 C   0  0  0  0  0  2  0  0  0  0  0  0
  -27.9590  -12.4180   18.5410 C   0  0  0  0  0  2  0  0  0  0  0  0
  -27.5810  -13.3020   19.7600 C   0  0  0  0  0  3  0  0  0  0  0  0
  -28.6330  -13.2140   20.8860 C   0  0  0  0  0  2  0  0  0  0  0  0
  -29.9270  -13.5850   20.3010 N   0  0  0  0  0  0  0  0  0  0  0  0
  -31.6980  -14.9410   19.9600 O   0  0  0  0  0  0  0  0  0  0  0  0
  -29.7400  -15.9560   20.6330 N   0  0  0  0  0  0  0  0  0  0  0  0
  -28.8770  -15.7210   21.1020 H   0  0  0  0  0  0  0  0  0  0  0  0
  -25.1940  -13.8990   20.4810 C   0  0  0  0  0  0  0  0  0  0  0  0
  -24.1260  -13.1300   20.8530 C   0  0  0  0  0  0  0  0  0  0  0  0
  -24.5830  -11.7770   20.8270 C   0  0  0  0  0  0  0  0  0  0  0  0
  -26.2350  -13.0160   20.2470 N   0  0  0  0  0  0  0  0  0  0  0  0
  -25.8740  -11.7350   20.5160 N   0  0  0  0  0  0  0  0  0  0  0  0
  -23.8520  -10.5190   21.0190 C   0  0  0  0  0  0  0  0  0  0  0  0
  -24.2750   -9.5540   21.9580 C   0  0  0  0  0  3  0  0  0  0  0  0
  -23.5430   -8.3600   22.1360 C   0  0  0  0  0  3  0  0  0  0  0  0
  -22.3730   -8.1220   21.3760 C   0  0  0  0  0  0  0  0  0  0  0  0
  -21.9700   -9.0770   20.4250 C   0  0  0  0  0  3  0  0  0  0  0  0
  -22.7030  -10.2610   20.2470 C   0  0  0  0  0  3  0  0  0  0  0  0
  -21.6120   -6.9810   21.4630 O   0  0  0  0  0  0  0  0  0  0  0  0
  -21.5460   -6.2480   22.6200 C   0  0  0  0  0  0  0  0  0  0  0  0
  -21.0940   -6.8100   23.8330 C   0  0  0  0  0  3  0  0  0  0  0  0
  -20.9760   -6.0020   24.9820 C   0  0  0  0  0  3  0  0  0  0  0  0
  -21.3010   -4.6330   24.9190 C   0  0  0  0  0  0  0  0  0  0  0  0
  -21.7520   -4.0730   23.7100 C   0  0  0  0  0  3  0  0  0  0  0  0
  -21.8690   -4.8780   22.5640 C   0  0  0  0  0  0  0  0  0  0  0  0
  -22.2810   -4.3280   21.3960 F   0  0  0  0  0  0  0  0  0  0  0  0
  -21.1810   -3.8550   26.0190 F   0  0  0  0  0  0  0  0  0  0  0  0
  -22.7290  -13.6160   21.1170 C   0  0  0  0  0  0  0  0  0  0  0  0
  -21.9900  -12.9250   21.9770 N   0  0  0  0  0  0  0  0  0  0  0  0
  -22.3010  -14.6480   20.5980 O   0  0  0  0  0  0  0  0  0  0  0  0
  -22.3480  -12.0960   22.4230 H   0  0  0  0  0  0  0  0  0  0  0  0
  -21.0530  -13.2340   22.1930 H   0  0  0  0  0  0  0  0  0  0  0  0
  -25.3650  -15.2670   20.3020 N   0  0  0  0  0  0  0  0  0  0  0  0
  -24.5990  -15.9240   20.4100 H   0  0  0  0  0  0  0  0  0  0  0  0
  -26.2080  -15.7000   19.9440 H   0  0  0  0  0  0  0  0  0  0  0  0
  -28.9150  -23.6020   20.6070 C   0  0  0  0  0  3  0  0  0  0  0  0
  -30.3160  -24.0390   20.7590 N   0  0  0  0  0  4  0  0  0  0  0  0
  -30.7320  -24.1590   19.8520 H   0  0  0  0  0  0  0  0  0  0  0  0
  -30.8490  -23.3500   21.2590 H   0  0  0  0  0  0  0  0  0  0  0  0
  -30.3640  -24.9090   21.2590 H   0  0  0  0  0  0  0  0  0  0  0  0
  -28.0780  -24.8350   19.9200 C   0  0  0  0  0  2  0  0  0  0  0  0
  -28.2640  -26.3100   20.2840 O   0  0  0  0  0  0  0  0  0  0  0  0
  -24.6100  -31.8910   23.2240 C   0  0  0  0  0  0  0  0  0  0  0  0
  -27.1900  -27.2430   20.1850 C   0  0  0  0  0  0  0  0  0  0  0  0
  -23.4060  -30.5000   21.5810 C   0  0  0  0  0  3  0  0  0  0  0  0
  -24.8530  -28.9390   20.1530 C   0  0  0  0  0  0  0  0  0  0  0  0
  -25.9560  -30.7820   21.4140 C   0  0  0  0  0  2  0  0  0  0  0  0
  -26.0270  -29.3970   20.7640 C   0  0  0  0  0  0  0  0  0  0  0  0
  -27.1960  -28.5620   20.7700 C   0  0  0  0  0  3  0  0  0  0  0  0
  -25.9980  -26.8790   19.5180 C   0  0  0  0  0  3  0  0  0  0  0  0
  -24.8460  -27.6900   19.5170 C   0  0  0  0  0  3  0  0  0  0  0  0
  -23.6250  -29.8280   20.2000 C   0  0  0  0  0  2  0  0  0  0  0  0
  -24.6770  -31.0770   22.1280 N   0  0  0  0  0  0  0  0  0  0  0  0
  -23.5250  -32.1710   23.7550 O   0  0  0  0  0  0  0  0  0  0  0  0
  -22.7340  -29.4850   22.5380 C   0  0  0  0  0  0  0  0  0  0  0  0
  -21.4050  -29.3130   22.4100 N   0  0  0  0  0  0  0  0  0  0  0  0
  -23.4060  -28.8550   23.3600 O   0  0  0  0  0  0  0  0  0  0  0  0
  -20.9210  -29.8750   21.7230 H   0  0  0  0  0  0  0  0  0  0  0  0
  -18.0210  -28.1330   22.9110 C   0  0  0  0  0  0  0  0  0  0  0  0
  -20.5800  -28.3790   23.1790 C   0  0  0  0  0  3  0  0  0  0  0  0
  -20.6740  -26.9470   22.6010 C   0  0  0  0  0  2  0  0  0  0  0  0
  -19.5700  -26.6320   21.5860 C   0  0  0  0  0  2  0  0  0  0  0  0
  -18.1890  -26.7840   22.2320 C   0  0  0  0  0  2  0  0  0  0  0  0
  -19.1430  -28.8890   23.3420 C   0  0  0  0  0  0  0  0  0  0  0  0
  -18.9320  -30.1510   23.9380 C   0  0  0  0  0  3  0  0  0  0  0  0
  -17.6290  -30.6570   24.1070 C   0  0  0  0  0  3  0  0  0  0  0  0
  -16.5200  -29.8980   23.6920 C   0  0  0  0  0  3  0  0  0  0  0  0
  -16.7180  -28.6380   23.1000 C   0  0  0  0  0  3  0  0  0  0  0  0
  -25.8900  -32.5220   23.8490 C   0  0  0  0  0  3  0  0  0  0  0  0
  -26.3960  -31.7520   25.1290 C   0  0  1  0  0  0  0  0  0  0  0  0
  -25.2960  -31.5210   26.1920 C   0  0  0  0  0  1  0  0  0  0  0  0
  -26.9770  -30.3730   24.7470 C   0  0  0  0  0  1  0  0  0  0  0  0
  -27.5450  -32.5450   25.7970 C   0  0  0  0  0  1  0  0  0  0  0  0
  -25.5800  -33.9210   24.1790 N   0  0  0  0  0  0  0  0  0  0  0  0
  -25.9130  -34.9750   23.4220 C   0  0  0  0  0  0  0  0  0  0  0  0
  -26.5820  -34.8710   22.3910 O   0  0  0  0  0  0  0  0  0  0  0  0
  -24.9860  -34.0730   24.9810 H   0  0  0  0  0  0  0  0  0  0  0  0
  -24.1930  -36.7790   23.0720 C   0  0  0  0  0  1  0  0  0  0  0  0
  -25.4320  -36.3660   23.8830 C   0  0  0  0  0  3  0  0  0  0  0  0
  -27.5670  -37.2430   24.7220 C   0  0  0  0  0  1  0  0  0  0  0  0
  -26.4690  -37.4150   23.7740 N   0  0  0  0  0  0  0  0  0  0  0  0
  -26.0660  -38.3370   23.9200 H   0  0  0  0  0  0  0  0  0  0  0  0
  1 48  1  0
  1  2  1  0
  2  4  1  0
  3  1  2  0
  5  6  1  0
  5  7  2  0
  6  8  2  0
  7  2  1  0
  7  9  1  0
  8 18  1  0
  8  9  1  0
 10 18  1  0
 11 16  1  0
 12 13  1  0
 12 11  1  0
 14 13  1  0
 14 23  1  0
 14 15  1  0
 16 10  1  0
 16 15  1  0
 17 10  2  0
 18 19  1  0
 20 21  2  0
 21 40  1  0
 22 21  1  0
 22 25  1  0
 23 20  1  0
 23 24  1  0
 24 22  2  0
 25 26  1  0
 26 27  2  0
 28 31  1  0
 28 27  1  0
 29 28  2  0
 30 29  1  0
 30 25  2  0
 31 32  1  0
 32 33  1  0
 33 34  2  0
 35 34  1  0
 35 39  1  0
 36 35  2  0
 37 32  2  0
 37 36  1  0
 38 37  1  0
 40 41  1  0
 41 44  1  0
 41 43  1  0
 42 40  2  0
 45 46  1  0
 45 20  1  0
 47 45  1  0
 48 53  1  0
 48 49  1  0
 49 51  1  0
 49 52  1  0
 50 49  1  0
 53 54  1  0
 55 66  2  0
 56 54  1  0
 56 61  1  0
 57 65  1  0
 57 67  1  0
 58 64  1  0
 58 60  1  0
 59 65  1  0
 60 61  2  0
 60 59  1  0
 62 56  2  0
 63 62  1  0
 63 58  2  0
 64 57  1  0
 65 55  1  0
 67 69  2  0
 68 67  1  0
 70 68  1  0
 71 80  2  0
 71 76  1  0
 72 68  1  0
 72 76  1  0
 73 72  1  0
 74 75  1  0
 74 73  1  0
 75 71  1  0
 76 77  2  0
 77 78  1  0
 79 78  2  0
 80 79  1  0
 81 55  1  0
 81 86  1  0
 81 82  1  0
 82 85  1  1
 82 83  1  0
 84 82  1  0
 86 89  1  0
 87 91  1  0
 87 86  1  0
 88 87  2  0
 91 90  1  0
 93 91  1  0
 93 94  1  0
 93 92  1  0
M  ISO  4  10 100  18 100  53 101  54 101
M  END
>  <TORSDO>  (25) 
F 20

>  <SCORE>  (25) 
-14.055

>  <name>  (25) 
24

>  <ligand_id>  (25) 
24

>  <original_smiles>  (25) 
[H]c1c(N([H])C(=O)N2C([H])([H])C([H])([H])C([H])([H])C([H])(n3nc(-c4c([H])c([H])c(Oc5c([H])c([H])c(F)c([H])c5F)c([H])c4[H])c(C(=O)N([H])[H])c3N([H])[H])C2([H])[H])oc(N([H])C(=O)C([H])(C([H])([H])Oc2c([H])c([H])c3c(c2[H])C([H])([H])N(C(=O)C([H])(N([H])C(=O)C([H])(N([H])C([H])([H])[H])C([H])([H])[H])C(C([H])([H])[H])(C([H])([H])[H])C([H])([H])[H])C([H])(C(=O)N([H])C2([H])c4c([H])c([H])c([H])c([H])c4C([H])([H])C([H])([H])C2([H])[H])C3([H])[H])[N+]([H])([H])[H])c1[H]

>  <smiles>  (25) 
[H]c1c(N([H])C(=O)N2C([H])([H])C([H])([H])C([H])([H])C([H])(n3nc(-c4c([H])c([H])c(Oc5c([H])c([H])c(F)c([H])c5F)c([H])c4[H])c(C(=O)N([H])[H])c3N([H])[H])C2([H])[H])oc(N([H])C(=O)C([H])(C([H])([H])Oc2c([H])c([H])c3c(c2[H])C([H])([H])N(C(=O)C([H])(N([H])C(=O)C([H])(N([H])C([H])([H])[H])C([H])([H])[H])C(C([H])([H])[H])(C([H])([H])[H])C([H])([H])[H])C([H])(C(=O)N([H])C2([H])c4c([H])c([H])c([H])c([H])c4C([H])([H])C([H])([H])C2([H])[H])C3([H])[H])[N+]([H])([H])[H])c1[H]

$$$$
25:0:0
     RDKit          3D

 92100  0  0  1  0  0  0  0  0999 V2000
  -29.0840  -23.8620   20.6430 C   0  0  0  0  0  0  0  0  0  0  0  0
  -28.4980  -22.6130   20.4960 N   0  0  0  0  0  0  0  0  0  0  0  0
  -30.3000  -23.9790   20.4740 O   0  0  0  0  0  0  0  0  0  0  0  0
  -27.4940  -22.6490   20.3810 H   0  0  0  0  0  0  0  0  0  0  0  0
  -28.5800  -20.0090   20.0030 C   0  0  0  0  0  3  0  0  0  0  0  0
  -30.1650  -20.8490   21.3320 C   0  0  0  0  0  3  0  0  0  0  0  0
  -29.0750  -21.2450   20.5890 C   0  0  0  0  0  0  0  0  0  0  0  0
  -29.4080  -18.9680   20.4240 C   0  0  0  0  0  0  0  0  0  0  0  0
  -30.3820  -19.4770   21.2420 O   0  0  0  0  0  0  0  0  0  0  0  0
  -31.1570  -17.5040   18.8950 C   0  0  0  0  0  1  0  0  0  0  0  0
  -29.9050  -15.9820   20.7810 N   0  0  0  0  0  2  0  0  0  0  0  0
  -29.4820  -17.1850   19.6360 S   0  0  0  0  0  3  0  0  0  0  0  0
  -30.6030  -14.7820   20.3990 C   0  0  0  0  0  0  0  0  0  0  0  0
  -30.3650  -12.5060   19.3880 C   0  0  0  0  0  2  0  0  0  0  0  0
  -29.4520  -12.6090   18.1470 C   0  0  0  0  0  2  0  0  0  0  0  0
  -27.9750  -12.4440   18.5520 C   0  0  0  0  0  2  0  0  0  0  0  0
  -27.5920  -13.3210   19.7730 C   0  0  0  0  0  3  0  0  0  0  0  0
  -28.6330  -13.2350   20.9070 C   0  0  0  0  0  2  0  0  0  0  0  0
  -29.9460  -13.5670   20.3400 N   0  0  0  0  0  0  0  0  0  0  0  0
  -31.7760  -14.8140   20.0260 O   0  0  0  0  0  0  0  0  0  0  0  0
  -25.1950  -13.9090   20.4640 C   0  0  0  0  0  0  0  0  0  0  0  0
  -24.1250  -13.1390   20.8270 C   0  0  0  0  0  0  0  0  0  0  0  0
  -24.5890  -11.7880   20.8200 C   0  0  0  0  0  0  0  0  0  0  0  0
  -26.2430  -13.0300   20.2500 N   0  0  0  0  0  0  0  0  0  0  0  0
  -25.8850  -11.7470   20.5270 N   0  0  0  0  0  0  0  0  0  0  0  0
  -23.8600  -10.5260   21.0170 C   0  0  0  0  0  0  0  0  0  0  0  0
  -24.2810   -9.5720   21.9690 C   0  0  0  0  0  3  0  0  0  0  0  0
  -23.5530   -8.3760   22.1540 C   0  0  0  0  0  3  0  0  0  0  0  0
  -22.3910   -8.1270   21.3840 C   0  0  0  0  0  0  0  0  0  0  0  0
  -21.9910   -9.0690   20.4210 C   0  0  0  0  0  3  0  0  0  0  0  0
  -22.7180  -10.2570   20.2360 C   0  0  0  0  0  3  0  0  0  0  0  0
  -21.6350   -6.9830   21.4760 O   0  0  0  0  0  0  0  0  0  0  0  0
  -21.5690   -6.2540   22.6370 C   0  0  0  0  0  0  0  0  0  0  0  0
  -21.1210   -6.8220   23.8500 C   0  0  0  0  0  3  0  0  0  0  0  0
  -21.0040   -6.0200   25.0020 C   0  0  0  0  0  3  0  0  0  0  0  0
  -21.3230   -4.6510   24.9430 C   0  0  0  0  0  0  0  0  0  0  0  0
  -21.7620   -4.0810   23.7350 C   0  0  0  0  0  3  0  0  0  0  0  0
  -21.8830   -4.8810   22.5850 C   0  0  0  0  0  0  0  0  0  0  0  0
  -22.2870   -4.3230   21.4170 F   0  0  0  0  0  0  0  0  0  0  0  0
  -21.2030   -3.8780   26.0480 F   0  0  0  0  0  0  0  0  0  0  0  0
  -22.7240  -13.6160   21.0730 C   0  0  0  0  0  0  0  0  0  0  0  0
  -21.9830  -12.9300   21.9340 N   0  0  0  0  0  0  0  0  0  0  0  0
  -22.2920  -14.6360   20.5350 O   0  0  0  0  0  0  0  0  0  0  0  0
  -22.3450  -12.1080   22.3960 H   0  0  0  0  0  0  0  0  0  0  0  0
  -21.0370  -13.2270   22.1310 H   0  0  0  0  0  0  0  0  0  0  0  0
  -25.3640  -15.2790   20.2750 N   0  0  0  0  0  0  0  0  0  0  0  0
  -24.6060  -15.9440   20.3750 H   0  0  0  0  0  0  0  0  0  0  0  0
  -26.2350  -15.7110   19.9900 H   0  0  0  0  0  0  0  0  0  0  0  0
  -28.9650  -25.7390   22.3410 C   0  0  0  0  0  1  0  0  0  0  0  0
  -26.8230  -24.7520   21.5170 C   0  0  0  0  0  1  0  0  0  0  0  0
  -28.2500  -25.1800   21.0910 C   0  0  2  0  0  0  0  0  0  0  0  0
  -28.3000  -26.3870   20.1850 O   0  0  0  0  0  0  0  0  0  0  0  0
  -24.6140  -31.8780   23.2300 C   0  0  0  0  0  0  0  0  0  0  0  0
  -27.2250  -27.3030   20.1750 C   0  0  0  0  0  0  0  0  0  0  0  0
  -23.4140  -30.4810   21.5850 C   0  0  0  0  0  3  0  0  0  0  0  0
  -24.8700  -28.9380   20.1490 C   0  0  0  0  0  0  0  0  0  0  0  0
  -25.9560  -30.7960   21.4090 C   0  0  0  0  0  2  0  0  0  0  0  0
  -26.0370  -29.4170   20.7620 C   0  0  0  0  0  0  0  0  0  0  0  0
  -27.2190  -28.6080   20.7700 C   0  0  0  0  0  3  0  0  0  0  0  0
  -26.0520  -26.9080   19.5020 C   0  0  0  0  0  3  0  0  0  0  0  0
  -24.8800  -27.6920   19.5080 C   0  0  0  0  0  3  0  0  0  0  0  0
  -23.6300  -29.8090   20.2030 C   0  0  0  0  0  2  0  0  0  0  0  0
  -24.6820  -31.0710   22.1310 N   0  0  0  0  0  0  0  0  0  0  0  0
  -23.5300  -32.1530   23.7650 O   0  0  0  0  0  0  0  0  0  0  0  0
  -22.7520  -29.4630   22.5440 C   0  0  0  0  0  0  0  0  0  0  0  0
  -21.4240  -29.2880   22.4240 N   0  0  0  0  0  0  0  0  0  0  0  0
  -23.4330  -28.8320   23.3580 O   0  0  0  0  0  0  0  0  0  0  0  0
  -20.9330  -29.8510   21.7430 H   0  0  0  0  0  0  0  0  0  0  0  0
  -18.0490  -28.0890   22.9300 C   0  0  0  0  0  0  0  0  0  0  0  0
  -20.6090  -28.3480   23.1940 C   0  0  0  0  0  3  0  0  0  0  0  0
  -20.7090  -26.9180   22.6130 C   0  0  0  0  0  2  0  0  0  0  0  0
  -19.6040  -26.5990   21.6020 C   0  0  0  0  0  2  0  0  0  0  0  0
  -18.2240  -26.7410   22.2500 C   0  0  0  0  0  2  0  0  0  0  0  0
  -19.1690  -28.8500   23.3590 C   0  0  0  0  0  0  0  0  0  0  0  0
  -18.9500  -30.1100   23.9570 C   0  0  0  0  0  3  0  0  0  0  0  0
  -17.6460  -30.6090   24.1300 C   0  0  0  0  0  3  0  0  0  0  0  0
  -16.5410  -29.8440   23.7170 C   0  0  0  0  0  3  0  0  0  0  0  0
  -16.7430  -28.5870   23.1230 C   0  0  0  0  0  3  0  0  0  0  0  0
  -25.8950  -32.5120   23.8520 C   0  0  0  0  0  3  0  0  0  0  0  0
  -26.4080  -31.7440   25.1330 C   0  0  1  0  0  0  0  0  0  0  0  0
  -25.3120  -31.5130   26.2000 C   0  0  0  0  0  1  0  0  0  0  0  0
  -26.9910  -30.3640   24.7500 C   0  0  0  0  0  1  0  0  0  0  0  0
  -27.5560  -32.5420   25.7950 C   0  0  0  0  0  1  0  0  0  0  0  0
  -25.5840  -33.9120   24.1800 N   0  0  0  0  0  0  0  0  0  0  0  0
  -25.9170  -34.9640   23.4200 C   0  0  0  0  0  0  0  0  0  0  0  0
  -26.5850  -34.8600   22.3870 O   0  0  0  0  0  0  0  0  0  0  0  0
  -24.9910  -34.0670   24.9810 H   0  0  0  0  0  0  0  0  0  0  0  0
  -24.1900  -36.7610   23.0670 C   0  0  0  0  0  1  0  0  0  0  0  0
  -25.4320  -36.3550   23.8760 C   0  0  0  0  0  3  0  0  0  0  0  0
  -27.5680  -37.2430   24.7020 C   0  0  0  0  0  1  0  0  0  0  0  0
  -26.4650  -37.4070   23.7580 N   0  0  0  0  0  0  0  0  0  0  0  0
  -26.0600  -38.3280   23.9010 H   0  0  0  0  0  0  0  0  0  0  0  0
  1 51  1  0
  2  7  1  0
  2  1  1  0
  3  1  2  0
  4  2  1  0
  5  8  2  0
  5  7  1  0
  7  6  2  0
  8  9  1  0
  9  6  1  0
 12 10  1  6
 12  8  1  0
 12 11  1  0
 13 11  1  0
 14 19  1  0
 15 16  1  0
 15 14  1  0
 17 16  1  0
 17 24  1  0
 17 18  1  0
 19 13  1  0
 19 18  1  0
 20 13  2  0
 21 22  2  0
 22 41  1  0
 23 22  1  0
 23 26  1  0
 24 21  1  0
 24 25  1  0
 25 23  2  0
 26 27  1  0
 27 28  2  0
 29 32  1  0
 29 28  1  0
 30 29  2  0
 31 30  1  0
 31 26  2  0
 32 33  1  0
 33 34  1  0
 34 35  2  0
 36 35  1  0
 36 40  1  0
 37 36  2  0
 38 33  2  0
 38 37  1  0
 39 38  1  0
 41 42  1  0
 42 45  1  0
 42 44  1  0
 43 41  2  0
 46 47  1  0
 46 21  1  0
 48 46  1  0
 51 50  1  1
 51 49  1  0
 52 51  1  0
 53 64  2  0
 54 52  1  0
 54 59  1  0
 55 63  1  0
 55 65  1  0
 56 62  1  0
 56 58  1  0
 57 63  1  0
 58 59  2  0
 58 57  1  0
 60 61  1  0
 60 54  2  0
 61 56  2  0
 62 55  1  0
 63 53  1  0
 65 67  2  0
 66 65  1  0
 68 66  1  0
 69 78  2  0
 69 74  1  0
 70 66  1  0
 70 74  1  0
 71 70  1  0
 72 73  1  0
 72 71  1  0
 73 69  1  0
 74 75  2  0
 75 76  1  0
 77 76  2  0
 78 77  1  0
 79 53  1  0
 79 84  1  0
 79 80  1  0
 80 83  1  1
 80 81  1  0
 82 80  1  0
 84 87  1  0
 85 89  1  0
 85 84  1  0
 86 85  2  0
 89 88  1  0
 91 89  1  0
 91 92  1  0
 91 90  1  0
M  ISO  4  11 100  13 100  51 101  52 101
M  END
>  <TORSDO>  (26) 
F 19

>  <SCORE>  (26) 
-14.501

>  <name>  (26) 
25

>  <ligand_id>  (26) 
25

>  <original_smiles>  (26) 
[H]c1oc(S(=NC(=O)N2C([H])([H])C([H])([H])C([H])([H])C([H])(n3nc(-c4c([H])c([H])c(Oc5c([H])c([H])c(F)c([H])c5F)c([H])c4[H])c(C(=O)N([H])[H])c3N([H])[H])C2([H])[H])C([H])([H])[H])c([H])c1N([H])C(=O)C(Oc1c([H])c([H])c2c(c1[H])C([H])([H])N(C(=O)C([H])(N([H])C(=O)C([H])(N([H])C([H])([H])[H])C([H])([H])[H])C(C([H])([H])[H])(C([H])([H])[H])C([H])([H])[H])C([H])(C(=O)N([H])C1([H])c3c([H])c([H])c([H])c([H])c3C([H])([H])C([H])([H])C1([H])[H])C2([H])[H])(C([H])([H])[H])C([H])([H])[H]

>  <smiles>  (26) 
[H]c1oc(S(=NC(=O)N2C([H])([H])C([H])([H])C([H])([H])C([H])(n3nc(-c4c([H])c([H])c(Oc5c([H])c([H])c(F)c([H])c5F)c([H])c4[H])c(C(=O)N([H])[H])c3N([H])[H])C2([H])[H])C([H])([H])[H])c([H])c1N([H])C(=O)C(Oc1c([H])c([H])c2c(c1[H])C([H])([H])N(C(=O)C([H])(N([H])C(=O)C([H])(N([H])C([H])([H])[H])C([H])([H])[H])C(C([H])([H])[H])(C([H])([H])[H])C([H])([H])[H])C([H])(C(=O)N([H])C1([H])c3c([H])c([H])c([H])c([H])c3C([H])([H])C([H])([H])C1([H])[H])C2([H])[H])(C([H])([H])[H])C([H])([H])[H]

$$$$
26:0:0
     RDKit          3D

100109  0  0  1  0  0  0  0  0999 V2000
  -30.8640  -20.0110   20.9790 C   0  0  0  0  0  3  0  0  0  0  0  0
  -31.5920  -17.6770   20.8090 C   0  0  0  0  0  3  0  0  0  0  0  0
  -29.2250  -18.2290   20.7080 C   0  0  0  0  0  3  0  0  0  0  0  0
  -31.8940  -19.0470   20.9640 C   0  0  0  0  0  0  0  0  0  0  0  0
  -29.5110  -19.6320   20.8630 C   0  0  0  0  0  0  0  0  0  0  0  0
  -30.2560  -17.2250   20.6780 C   0  0  0  0  0  0  0  0  0  0  0  0
  -30.6910  -14.7310   20.1830 C   0  0  0  0  0  0  0  0  0  0  0  0
  -30.4020  -12.5530   19.0310 C   0  0  0  0  0  2  0  0  0  0  0  0
  -29.4250  -12.7440   17.8530 C   0  0  0  0  0  2  0  0  0  0  0  0
  -27.9670  -12.5850   18.3270 C   0  0  0  0  0  2  0  0  0  0  0  0
  -27.6570  -13.4060   19.6060 C   0  0  0  0  0  3  0  0  0  0  0  0
  -28.7460  -13.1980   20.6810 C   0  0  0  0  0  2  0  0  0  0  0  0
  -30.0390  -13.5360   20.0710 N   0  0  0  0  0  0  0  0  0  0  0  0
  -31.8410  -14.8630   19.7560 O   0  0  0  0  0  0  0  0  0  0  0  0
  -29.9370  -15.8000   20.5940 N   0  0  0  0  0  0  0  0  0  0  0  0
  -28.9870  -15.5540   20.8230 H   0  0  0  0  0  0  0  0  0  0  0  0
  -25.2800  -13.9930   20.3860 C   0  0  0  0  0  0  0  0  0  0  0  0
  -24.2290  -13.2120   20.7870 C   0  0  0  0  0  0  0  0  0  0  0  0
  -24.7000  -11.8640   20.7440 C   0  0  0  0  0  0  0  0  0  0  0  0
  -26.3220  -13.1190   20.1250 N   0  0  0  0  0  0  0  0  0  0  0  0
  -25.9810  -11.8350   20.4010 N   0  0  0  0  0  0  0  0  0  0  0  0
  -23.9880  -10.5970   20.9530 C   0  0  0  0  0  0  0  0  0  0  0  0
  -24.4380   -9.6440   21.8930 C   0  0  0  0  0  3  0  0  0  0  0  0
  -23.7270   -8.4400   22.0880 C   0  0  0  0  0  3  0  0  0  0  0  0
  -22.5500   -8.1830   21.3450 C   0  0  0  0  0  0  0  0  0  0  0  0
  -22.1190   -9.1250   20.3940 C   0  0  0  0  0  3  0  0  0  0  0  0
  -22.8330  -10.3200   20.1960 C   0  0  0  0  0  3  0  0  0  0  0  0
  -21.8070   -7.0320   21.4520 O   0  0  0  0  0  0  0  0  0  0  0  0
  -21.7680   -6.3060   22.6150 C   0  0  0  0  0  0  0  0  0  0  0  0
  -21.3260   -6.8710   23.8310 C   0  0  0  0  0  3  0  0  0  0  0  0
  -21.2340   -6.0690   24.9870 C   0  0  0  0  0  3  0  0  0  0  0  0
  -21.5720   -4.7040   24.9260 C   0  0  0  0  0  0  0  0  0  0  0  0
  -22.0060   -4.1380   23.7150 C   0  0  0  0  0  3  0  0  0  0  0  0
  -22.1000   -4.9370   22.5610 C   0  0  0  0  0  0  0  0  0  0  0  0
  -22.4990   -4.3820   21.3910 F   0  0  0  0  0  0  0  0  0  0  0  0
  -21.4770   -3.9320   26.0340 F   0  0  0  0  0  0  0  0  0  0  0  0
  -22.8350  -13.6800   21.0910 C   0  0  0  0  0  0  0  0  0  0  0  0
  -22.1290  -12.9760   21.9690 N   0  0  0  0  0  0  0  0  0  0  0  0
  -22.3800  -14.7050   20.5850 O   0  0  0  0  0  0  0  0  0  0  0  0
  -22.5080  -12.1450   22.4010 H   0  0  0  0  0  0  0  0  0  0  0  0
  -21.1930  -13.2700   22.2110 H   0  0  0  0  0  0  0  0  0  0  0  0
  -25.4270  -15.3650   20.2020 N   0  0  0  0  0  0  0  0  0  0  0  0
  -24.6440  -15.9990   20.3100 H   0  0  0  0  0  0  0  0  0  0  0  0
  -26.2330  -15.8030   19.7760 H   0  0  0  0  0  0  0  0  0  0  0  0
  -33.2820  -19.4660   21.1660 C   0  0  0  0  0  0  0  0  0  0  0  0
  -33.5920  -20.3580   22.1050 N   0  0  0  0  0  0  0  0  0  0  0  0
  -34.2550  -18.9620   20.4090 N   0  0  0  0  0  4  0  0  0  0  0  0
  -32.8790  -20.6650   22.7520 H   0  0  0  0  0  0  0  0  0  0  0  0
  -34.5250  -20.7180   22.2330 H   0  0  0  0  0  0  0  0  0  0  0  0
  -34.0140  -18.3100   19.6780 H   0  0  0  0  0  0  0  0  0  0  0  0
  -35.2230  -19.2160   20.5260 H   0  0  0  0  0  0  0  0  0  0  0  0
  -28.4120  -20.7010   21.1760 C   0  0  0  0  0  2  0  0  0  0  0  0
  -28.4690  -24.3180   20.2410 C   0  0  0  0  0  3  0  0  0  0  0  0
  -28.9140  -25.5210   19.7620 C   0  0  0  0  0  2  0  0  0  0  0  0
  -27.3000  -24.0420   21.1360 C   0  0  0  0  0  2  0  0  0  0  0  0
  -29.1280  -22.9400   20.0120 C   0  0  0  0  0  2  0  0  0  0  0  0
  -26.8780  -22.6160   20.7060 C   0  0  0  0  0  2  0  0  0  0  0  0
  -28.0980  -21.8760   20.2620 N   0  0  2  0  0  4  0  0  0  0  0  0
  -27.8660  -21.4690   19.3680 H   0  0  0  0  0  0  0  0  0  0  0  0
  -28.6380  -26.8170   20.2130 O   0  0  0  0  0  0  0  0  0  0  0  0
  -24.6850  -31.9320   23.2260 C   0  0  0  0  0  0  0  0  0  0  0  0
  -27.4390  -27.5150   20.1360 C   0  0  0  0  0  0  0  0  0  0  0  0
  -23.5260  -30.5280   21.5510 C   0  0  0  0  0  3  0  0  0  0  0  0
  -25.0230  -29.0210   20.1200 C   0  0  0  0  0  0  0  0  0  0  0  0
  -26.0500  -30.9220   21.3870 C   0  0  0  0  0  2  0  0  0  0  0  0
  -26.1630  -29.5520   20.7340 C   0  0  0  0  0  0  0  0  0  0  0  0
  -27.3670  -28.8050   20.7320 C   0  0  0  0  0  3  0  0  0  0  0  0
  -26.2850  -27.0150   19.5020 C   0  0  0  0  0  3  0  0  0  0  0  0
  -25.0830  -27.7580   19.4960 C   0  0  0  0  0  3  0  0  0  0  0  0
  -23.7640  -29.8630   20.1660 C   0  0  0  0  0  2  0  0  0  0  0  0
  -24.7730  -31.1450   22.1130 N   0  0  0  0  0  0  0  0  0  0  0  0
  -23.5910  -32.1780   23.7550 O   0  0  0  0  0  0  0  0  0  0  0  0
  -22.8780  -29.4890   22.4950 C   0  0  0  0  0  0  0  0  0  0  0  0
  -21.5540  -29.3040   22.3650 N   0  0  0  0  0  0  0  0  0  0  0  0
  -23.5650  -28.8500   23.2960 O   0  0  0  0  0  0  0  0  0  0  0  0
  -21.0600  -29.8720   21.6900 H   0  0  0  0  0  0  0  0  0  0  0  0
  -18.1820  -28.0990   22.8630 C   0  0  0  0  0  0  0  0  0  0  0  0
  -20.7430  -28.3450   23.1150 C   0  0  0  0  0  3  0  0  0  0  0  0
  -20.8350  -26.9330   22.4920 C   0  0  0  0  0  2  0  0  0  0  0  0
  -19.7220  -26.6440   21.4800 C   0  0  0  0  0  2  0  0  0  0  0  0
  -18.3470  -26.7720   22.1430 C   0  0  0  0  0  2  0  0  0  0  0  0
  -19.3060  -28.8460   23.3050 C   0  0  0  0  0  0  0  0  0  0  0  0
  -19.0960  -30.0900   23.9400 C   0  0  0  0  0  3  0  0  0  0  0  0
  -17.7930  -30.5870   24.1350 C   0  0  0  0  0  3  0  0  0  0  0  0
  -16.6840  -29.8370   23.7050 C   0  0  0  0  0  3  0  0  0  0  0  0
  -16.8790  -28.5950   23.0780 C   0  0  0  0  0  3  0  0  0  0  0  0
  -25.9480  -32.5810   23.8740 C   0  0  0  0  0  3  0  0  0  0  0  0
  -26.4470  -31.8180   25.1610 C   0  0  1  0  0  0  0  0  0  0  0  0
  -25.3360  -31.5660   26.2070 C   0  0  0  0  0  1  0  0  0  0  0  0
  -27.0560  -30.4490   24.7780 C   0  0  0  0  0  1  0  0  0  0  0  0
  -27.5760  -32.6250   25.8450 C   0  0  0  0  0  1  0  0  0  0  0  0
  -25.6140  -33.9750   24.1960 N   0  0  0  0  0  0  0  0  0  0  0  0
  -25.9400  -35.0300   23.4380 C   0  0  0  0  0  0  0  0  0  0  0  0
  -26.6210  -34.9330   22.4140 O   0  0  0  0  0  0  0  0  0  0  0  0
  -25.0100  -34.1220   24.9920 H   0  0  0  0  0  0  0  0  0  0  0  0
  -24.1820  -36.7910   23.0690 C   0  0  0  0  0  1  0  0  0  0  0  0
  -25.4280  -36.4130   23.8870 C   0  0  0  0  0  3  0  0  0  0  0  0
  -27.5440  -37.3390   24.7220 C   0  0  0  0  0  1  0  0  0  0  0  0
  -26.4450  -37.4830   23.7720 N   0  0  0  0  0  0  0  0  0  0  0  0
  -26.0230  -38.3970   23.9110 H   0  0  0  0  0  0  0  0  0  0  0  0
  2  4  2  0
  3  5  1  0
  4  1  1  0
  4 45  1  0
  5  1  2  0
  5 52  1  0
  6  3  2  0
  6  2  1  0
  7 15  1  0
  8 13  1  0
  9 10  1  0
  9  8  1  0
 11 10  1  0
 11 20  1  0
 11 12  1  0
 13  7  1  0
 13 12  1  0
 14  7  2  0
 15  6  1  0
 15 16  1  0
 17 18  2  0
 18 37  1  0
 19 18  1  0
 19 22  1  0
 20 17  1  0
 20 21  1  0
 21 19  2  0
 22 23  1  0
 23 24  2  0
 25 28  1  0
 25 24  1  0
 26 25  2  0
 27 26  1  0
 27 22  2  0
 28 29  1  0
 29 30  1  0
 30 31  2  0
 32 31  1  0
 32 36  1  0
 33 32  2  0
 34 29  2  0
 34 33  1  0
 35 34  1  0
 37 38  1  0
 38 41  1  0
 38 40  1  0
 39 37  2  0
 42 43  1  0
 42 17  1  0
 44 42  1  0
 45 46  1  0
 46 49  1  0
 46 48  1  0
 47 51  1  0
 47 45  2  0
 50 47  1  0
 53 54  1  0
 53 55  1  0
 54 60  1  0
 56 53  1  0
 56 58  1  0
 57 55  1  0
 58 57  1  0
 58 52  1  0
 58 59  1  6
 61 72  2  0
 62 60  1  0
 62 67  1  0
 63 71  1  0
 63 73  1  0
 64 70  1  0
 64 66  1  0
 65 71  1  0
 66 65  1  0
 67 66  2  0
 68 62  2  0
 69 68  1  0
 69 64  2  0
 70 63  1  0
 71 61  1  0
 73 75  2  0
 74 73  1  0
 76 74  1  0
 77 86  2  0
 77 82  1  0
 78 74  1  0
 78 82  1  0
 79 78  1  0
 80 81  1  0
 80 79  1  0
 81 77  1  0
 82 83  2  0
 83 84  1  0
 85 84  2  0
 86 85  1  0
 87 61  1  0
 87 92  1  0
 87 88  1  0
 88 91  1  1
 88 89  1  0
 90 88  1  0
 92 95  1  0
 93 97  1  0
 93 92  1  0
 94 93  2  0
 97 96  1  0
 99 97  1  0
 99100  1  0
 99 98  1  0
M  ISO  4   7 100  15 100  54 101  60 101
M  END
>  <TORSDO>  (27) 
F 19

>  <SCORE>  (27) 
-14.467

>  <name>  (27) 
26

>  <ligand_id>  (27) 
26

>  <original_smiles>  (27) 
[H]C(Oc1c([H])c([H])c2c(c1[H])C([H])([H])N(C(=O)C([H])(N([H])C(=O)C([H])(N([H])C([H])([H])[H])C([H])([H])[H])C(C([H])([H])[H])(C([H])([H])[H])C([H])([H])[H])C([H])(C(=O)N([H])C1([H])c3c([H])c([H])c([H])c([H])c3C([H])([H])C([H])([H])C1([H])[H])C2([H])[H])=C1C([H])([H])C([H])([H])[N+]([H])(C([H])([H])c2c([H])c(C(N([H])[H])=[N+]([H])[H])c([H])c(N([H])C(=O)N3C([H])([H])C([H])([H])C([H])([H])C([H])(n4nc(-c5c([H])c([H])c(Oc6c([H])c([H])c(F)c([H])c6F)c([H])c5[H])c(C(=O)N([H])[H])c4N([H])[H])C3([H])[H])c2[H])C1([H])[H]

>  <smiles>  (27) 
[H]C(Oc1c([H])c([H])c2c(c1[H])C([H])([H])N(C(=O)C([H])(N([H])C(=O)C([H])(N([H])C([H])([H])[H])C([H])([H])[H])C(C([H])([H])[H])(C([H])([H])[H])C([H])([H])[H])C([H])(C(=O)N([H])C1([H])c3c([H])c([H])c([H])c([H])c3C([H])([H])C([H])([H])C1([H])[H])C2([H])[H])=C1C([H])([H])C([H])([H])[N+]([H])(C([H])([H])c2c([H])c(C(N([H])[H])=[N+]([H])[H])c([H])c(N([H])C(=O)N3C([H])([H])C([H])([H])C([H])([H])C([H])(n4nc(-c5c([H])c([H])c(Oc6c([H])c([H])c(F)c([H])c6F)c([H])c5[H])c(C(=O)N([H])[H])c4N([H])[H])C3([H])[H])c2[H])C1([H])[H]

$$$$
27:0:0
     RDKit          3D

 95104  0  0  1  0  0  0  0  0999 V2000
  -29.0100  -22.7080   20.0960 C   0  0  0  0  0  0  0  0  0  0  0  0
  -29.5550  -21.6310   20.8250 N   0  0  0  0  0  0  0  0  0  0  0  0
  -28.4890  -22.4910   18.9990 O   0  0  0  0  0  0  0  0  0  0  0  0
  -29.8120  -21.8820   21.7700 H   0  0  0  0  0  0  0  0  0  0  0  0
  -30.9160  -15.2930   21.0330 C   0  0  0  0  0  0  0  0  0  0  0  0
  -30.8880  -12.8950   20.2470 C   0  0  0  0  0  2  0  0  0  0  0  0
  -30.1060  -12.6980   18.9220 C   0  0  0  0  0  2  0  0  0  0  0  0
  -28.5840  -12.6300   19.1530 C   0  0  0  0  0  2  0  0  0  0  0  0
  -28.0480  -13.6240   20.2190 C   0  0  0  0  0  3  0  0  0  0  0  0
  -28.9600  -13.6980   21.4600 C   0  0  0  0  0  2  0  0  0  0  0  0
  -30.3030  -14.0460   20.9780 N   0  0  0  0  0  0  0  0  0  0  0  0
  -32.1430  -15.3250   21.1810 O   0  0  0  0  0  0  0  0  0  0  0  0
  -29.8940  -19.0190   21.1050 C   0  0  0  0  0  3  0  0  0  0  0  0
  -30.2680  -17.8450   20.2610 C   0  0  0  0  0  0  0  0  0  0  0  0
  -30.4980  -18.2740   19.0000 C   0  0  0  0  0  0  0  0  0  0  0  0
  -29.8520  -20.2910   20.4260 C   0  0  0  0  0  0  0  0  0  0  0  0
  -30.4850  -15.9820   18.8170 C   0  0  0  0  0  2  0  0  0  0  0  0
  -30.8070  -17.2510   18.0050 C   0  0  2  0  0  0  0  0  0  0  0  0
  -32.2920  -17.3070   17.6060 C   0  0  0  0  0  1  0  0  0  0  0  0
  -29.9180  -17.3440   16.7520 C   0  0  0  0  0  1  0  0  0  0  0  0
  -30.3210  -16.3230   20.2620 N   0  0  0  0  0  0  0  0  0  0  0  0
  -30.3610  -19.9930   18.7650 S   0  0  0  0  0  0  0  0  0  0  0  0
  -25.5900  -14.2360   20.6040 C   0  0  0  0  0  0  0  0  0  0  0  0
  -24.4820  -13.4720   20.8490 C   0  0  0  0  0  0  0  0  0  0  0  0
  -24.9440  -12.1240   20.9440 C   0  0  0  0  0  0  0  0  0  0  0  0
  -26.6550  -13.3530   20.5550 N   0  0  0  0  0  0  0  0  0  0  0  0
  -26.2650  -12.0820   20.8310 N   0  0  0  0  0  0  0  0  0  0  0  0
  -24.1990  -10.8660   21.0790 C   0  0  0  0  0  0  0  0  0  0  0  0
  -24.5370   -9.9100   22.0620 C   0  0  0  0  0  3  0  0  0  0  0  0
  -23.7930   -8.7170   22.1870 C   0  0  0  0  0  3  0  0  0  0  0  0
  -22.6970   -8.4720   21.3260 C   0  0  0  0  0  0  0  0  0  0  0  0
  -22.3810   -9.4150   20.3320 C   0  0  0  0  0  3  0  0  0  0  0  0
  -23.1250  -10.5990   20.2070 C   0  0  0  0  0  3  0  0  0  0  0  0
  -21.9320   -7.3300   21.3570 O   0  0  0  0  0  0  0  0  0  0  0  0
  -21.7730   -6.6030   22.5090 C   0  0  0  0  0  0  0  0  0  0  0  0
  -21.2260   -7.1700   23.6790 C   0  0  0  0  0  3  0  0  0  0  0  0
  -21.0140   -6.3690   24.8190 C   0  0  0  0  0  3  0  0  0  0  0  0
  -21.3400   -5.0000   24.7880 C   0  0  0  0  0  0  0  0  0  0  0  0
  -21.8810   -4.4310   23.6210 C   0  0  0  0  0  3  0  0  0  0  0  0
  -22.0930   -5.2300   22.4830 C   0  0  0  0  0  0  0  0  0  0  0  0
  -22.5940   -4.6720   21.3550 F   0  0  0  0  0  0  0  0  0  0  0  0
  -21.1310   -4.2280   25.8790 F   0  0  0  0  0  0  0  0  0  0  0  0
  -23.0590  -13.9510   20.8940 C   0  0  0  0  0  0  0  0  0  0  0  0
  -22.2250  -13.3140   21.7070 N   0  0  0  0  0  0  0  0  0  0  0  0
  -22.6930  -14.9280   20.2420 O   0  0  0  0  0  0  0  0  0  0  0  0
  -22.5310  -12.5260   22.2580 H   0  0  0  0  0  0  0  0  0  0  0  0
  -21.2650  -13.6190   21.7810 H   0  0  0  0  0  0  0  0  0  0  0  0
  -25.7790  -15.5980   20.3900 N   0  0  0  0  0  0  0  0  0  0  0  0
  -25.0080  -16.2570   20.3670 H   0  0  0  0  0  0  0  0  0  0  0  0
  -26.6740  -16.0270   20.1910 H   0  0  0  0  0  0  0  0  0  0  0  0
  -28.5770  -25.2560   19.9500 C   0  0  0  0  0  3  0  0  0  0  0  0
  -29.0270  -24.1310   20.6590 C   0  0  0  0  0  0  0  0  0  0  0  0
  -29.5200  -24.3080   21.8920 O   0  0  0  0  0  0  0  0  0  0  0  0
  -29.4650  -25.2370   22.0770 H   0  0  0  0  0  0  0  0  0  0  0  0
  -28.6030  -26.6560   20.3060 O   0  0  0  0  0  0  0  0  0  0  0  0
  -24.6460  -32.0120   23.2850 C   0  0  0  0  0  0  0  0  0  0  0  0
  -27.4810  -27.5340   20.2010 C   0  0  0  0  0  0  0  0  0  0  0  0
  -23.5340  -30.6120   21.5840 C   0  0  0  0  0  3  0  0  0  0  0  0
  -25.0730  -29.1350   20.1580 C   0  0  0  0  0  0  0  0  0  0  0  0
  -26.0730  -30.9950   21.4810 C   0  0  0  0  0  2  0  0  0  0  0  0
  -26.2140  -29.6270   20.8030 C   0  0  0  0  0  0  0  0  0  0  0  0
  -27.4160  -28.8390   20.8140 C   0  0  0  0  0  3  0  0  0  0  0  0
  -26.3090  -27.1190   19.5290 C   0  0  0  0  0  3  0  0  0  0  0  0
  -25.1280  -27.8910   19.5110 C   0  0  0  0  0  3  0  0  0  0  0  0
  -23.8090  -29.9760   20.1960 C   0  0  0  0  0  2  0  0  0  0  0  0
  -24.7680  -31.2260   22.1730 N   0  0  0  0  0  0  0  0  0  0  0  0
  -23.5390  -32.2430   23.7950 O   0  0  0  0  0  0  0  0  0  0  0  0
  -22.8760  -29.5570   22.5060 C   0  0  0  0  0  0  0  0  0  0  0  0
  -21.5500  -29.3720   22.3740 N   0  0  0  0  0  0  0  0  0  0  0  0
  -23.5580  -28.9070   23.3030 O   0  0  0  0  0  0  0  0  0  0  0  0
  -21.0560  -29.9500   21.7080 H   0  0  0  0  0  0  0  0  0  0  0  0
  -18.1810  -28.1360   22.8530 C   0  0  0  0  0  0  0  0  0  0  0  0
  -20.7410  -28.3980   23.1090 C   0  0  0  0  0  3  0  0  0  0  0  0
  -20.8440  -26.9940   22.4690 C   0  0  0  0  0  2  0  0  0  0  0  0
  -19.7340  -26.7110   21.4510 C   0  0  0  0  0  2  0  0  0  0  0  0
  -18.3570  -26.8200   22.1140 C   0  0  0  0  0  2  0  0  0  0  0  0
  -19.3000  -28.8840   23.3070 C   0  0  0  0  0  0  0  0  0  0  0  0
  -19.0810  -30.1150   23.9590 C   0  0  0  0  0  3  0  0  0  0  0  0
  -17.7760  -30.6010   24.1610 C   0  0  0  0  0  3  0  0  0  0  0  0
  -16.6700  -29.8510   23.7220 C   0  0  0  0  0  3  0  0  0  0  0  0
  -16.8750  -28.6190   23.0740 C   0  0  0  0  0  3  0  0  0  0  0  0
  -25.8870  -32.6760   23.9550 C   0  0  0  0  0  3  0  0  0  0  0  0
  -25.5240  -34.0600   24.2950 N   0  0  0  0  0  0  0  0  0  0  0  0
  -25.9170  -35.1420   23.6090 C   0  0  0  0  0  0  0  0  0  0  0  0
  -26.6880  -35.0800   22.6490 O   0  0  0  0  0  0  0  0  0  0  0  0
  -24.8500  -34.1820   25.0360 H   0  0  0  0  0  0  0  0  0  0  0  0
  -24.2160  -36.9350   23.1340 C   0  0  0  0  0  1  0  0  0  0  0  0
  -25.3680  -36.5110   24.0600 C   0  0  0  0  0  3  0  0  0  0  0  0
  -27.3980  -37.3770   25.1380 C   0  0  0  0  0  1  0  0  0  0  0  0
  -26.3950  -37.5740   24.0940 N   0  0  0  0  0  0  0  0  0  0  0  0
  -25.9670  -38.4860   24.2340 H   0  0  0  0  0  0  0  0  0  0  0  0
  -26.3830  -31.9050   25.2400 C   0  0  1  0  0  0  0  0  0  0  0  0
  -25.2590  -31.6080   26.2610 C   0  0  0  0  0  1  0  0  0  0  0  0
  -27.0360  -30.5570   24.8530 C   0  0  0  0  0  1  0  0  0  0  0  0
  -27.4740  -32.7320   25.9580 C   0  0  0  0  0  1  0  0  0  0  0  0
  1 52  1  0
  1  2  1  0
  2  4  1  0
  3  1  2  0
  5 12  2  0
  6 11  1  0
  7  8  1  0
  7  6  1  0
  9  8  1  0
  9 26  1  0
  9 10  1  0
 11  5  1  0
 11 10  1  0
 14 21  1  0
 14 13  1  0
 15 14  2  0
 16  2  1  0
 16 13  2  0
 17 21  1  0
 18 17  1  0
 18 15  1  0
 18 19  1  6
 20 18  1  0
 21  5  1  0
 22 15  1  0
 22 16  1  0
 23 24  2  0
 24 43  1  0
 24 25  1  0
 25 28  1  0
 26 23  1  0
 26 27  1  0
 27 25  2  0
 28 29  1  0
 29 30  2  0
 31 34  1  0
 31 30  1  0
 32 31  2  0
 33 32  1  0
 33 28  2  0
 34 35  1  0
 35 36  1  0
 36 37  2  0
 38 37  1  0
 38 42  1  0
 39 38  2  0
 40 35  2  0
 40 39  1  0
 41 40  1  0
 43 44  1  0
 44 47  1  0
 44 46  1  0
 45 43  2  0
 48 23  1  0
 49 48  1  0
 50 48  1  0
 51 55  1  0
 51 52  2  0
 52 53  1  0
 53 54  1  0
 56 67  2  0
 57 55  1  0
 57 62  1  0
 58 66  1  0
 58 68  1  0
 59 65  1  0
 59 61  1  0
 60 66  1  0
 61 62  2  0
 61 60  1  0
 63 57  2  0
 64 63  1  0
 64 59  2  0
 65 58  1  0
 66 56  1  0
 68 70  2  0
 69 68  1  0
 71 69  1  0
 72 81  2  0
 72 77  1  0
 73 69  1  0
 73 77  1  0
 74 73  1  0
 75 76  1  0
 75 74  1  0
 76 72  1  0
 77 78  2  0
 78 79  1  0
 80 79  2  0
 81 80  1  0
 82 56  1  0
 82 83  1  0
 82 92  1  0
 83 86  1  0
 84 88  1  0
 84 83  1  0
 85 84  2  0
 88 87  1  0
 88 90  1  0
 90 91  1  0
 90 89  1  0
 92 95  1  1
 92 93  1  0
 94 92  1  0
M  ISO  4   5 100  21 100  51 101  55 101
M  END
>  <TORSDO>  (28) 
F 18

>  <SCORE>  (28) 
-12.892

>  <name>  (28) 
27

>  <ligand_id>  (28) 
27

>  <original_smiles>  (28) 
[H]OC(C(=O)N([H])c1sc2c(c1[H])N(C(=O)N1C([H])([H])C([H])([H])C([H])([H])C([H])(n3nc(-c4c([H])c([H])c(Oc5c([H])c([H])c(F)c([H])c5F)c([H])c4[H])c(C(=O)N([H])[H])c3N([H])[H])C1([H])[H])C([H])([H])C2(C([H])([H])[H])C([H])([H])[H])=C([H])Oc1c([H])c([H])c2c(c1[H])C([H])([H])N(C(=O)C([H])(N([H])C(=O)C([H])(N([H])C([H])([H])[H])C([H])([H])[H])C(C([H])([H])[H])(C([H])([H])[H])C([H])([H])[H])C([H])(C(=O)N([H])C1([H])c3c([H])c([H])c([H])c([H])c3C([H])([H])C([H])([H])C1([H])[H])C2([H])[H]

>  <smiles>  (28) 
[H]OC(C(=O)N([H])c1sc2c(c1[H])N(C(=O)N1C([H])([H])C([H])([H])C([H])([H])C([H])(n3nc(-c4c([H])c([H])c(Oc5c([H])c([H])c(F)c([H])c5F)c([H])c4[H])c(C(=O)N([H])[H])c3N([H])[H])C1([H])[H])C([H])([H])C2(C([H])([H])[H])C([H])([H])[H])=C([H])Oc1c([H])c([H])c2c(c1[H])C([H])([H])N(C(=O)C([H])(N([H])C(=O)C([H])(N([H])C([H])([H])[H])C([H])([H])[H])C(C([H])([H])[H])(C([H])([H])[H])C([H])([H])[H])C([H])(C(=O)N([H])C1([H])c3c([H])c([H])c([H])c([H])c3C([H])([H])C([H])([H])C1([H])[H])C2([H])[H]

$$$$
28:0:0
     RDKit          3D

 93102  0  0  1  0  0  0  0  0999 V2000
  -30.1020  -21.7590   22.3690 C   0  0  0  0  0  2  0  0  0  0  0  0
  -29.5000  -22.4930   20.0000 C   0  0  0  0  0  2  0  0  0  0  0  0
  -29.6290  -23.1580   22.8180 C   0  0  0  0  0  2  0  0  0  0  0  0
  -29.4060  -21.3080   21.0740 C   0  0  0  0  0  3  0  0  0  0  0  0
  -29.4910  -24.0530   20.4640 C   0  0  0  0  0  3  0  0  0  0  0  0
  -30.0070  -24.2150   21.8510 N   0  0  0  0  0  4  0  0  0  0  0  0
  -31.0140  -24.2530   21.8150 H   0  0  0  0  0  0  0  0  0  0  0  0
  -29.7130  -25.1110   22.2110 H   0  0  0  0  0  0  0  0  0  0  0  0
  -31.1740  -17.9970   20.1950 C   0  0  0  0  0  3  0  0  0  0  0  0
  -30.0690  -17.2260   20.5210 C   0  0  0  0  0  0  0  0  0  0  0  0
  -29.8010  -19.8280   20.7000 C   0  0  0  0  0  0  0  0  0  0  0  0
  -31.0190  -19.4100   20.3090 N   0  0  0  0  0  0  0  0  0  0  0  0
  -28.7660  -18.3770   20.9440 S   0  0  0  0  0  0  0  0  0  0  0  0
  -30.6320  -14.7810   20.0710 C   0  0  0  0  0  0  0  0  0  0  0  0
  -30.3550  -12.5790   18.9240 C   0  0  0  0  0  2  0  0  0  0  0  0
  -29.3350  -12.7360   17.7730 C   0  0  0  0  0  2  0  0  0  0  0  0
  -27.8940  -12.5500   18.2890 C   0  0  0  0  0  2  0  0  0  0  0  0
  -27.6120  -13.3640   19.5780 C   0  0  0  0  0  3  0  0  0  0  0  0
  -28.7390  -13.1820   20.6210 C   0  0  0  0  0  2  0  0  0  0  0  0
  -30.0050  -13.5610   19.9740 N   0  0  0  0  0  0  0  0  0  0  0  0
  -31.7660  -14.9400   19.6120 O   0  0  0  0  0  0  0  0  0  0  0  0
  -29.8790  -15.8390   20.5420 N   0  0  0  0  0  0  0  0  0  0  0  0
  -28.9850  -15.5470   20.9050 H   0  0  0  0  0  0  0  0  0  0  0  0
  -25.2640  -13.9330   20.4520 C   0  0  0  0  0  0  0  0  0  0  0  0
  -24.2230  -13.1450   20.8650 C   0  0  0  0  0  0  0  0  0  0  0  0
  -24.6860  -11.7960   20.7710 C   0  0  0  0  0  0  0  0  0  0  0  0
  -26.2950  -13.0630   20.1340 N   0  0  0  0  0  0  0  0  0  0  0  0
  -25.9570  -11.7710   20.3850 N   0  0  0  0  0  0  0  0  0  0  0  0
  -23.9750  -10.5270   20.9710 C   0  0  0  0  0  0  0  0  0  0  0  0
  -24.4360   -9.5580   21.8890 C   0  0  0  0  0  3  0  0  0  0  0  0
  -23.7260   -8.3520   22.0750 C   0  0  0  0  0  3  0  0  0  0  0  0
  -22.5380   -8.1080   21.3450 C   0  0  0  0  0  0  0  0  0  0  0  0
  -22.0970   -9.0650   20.4130 C   0  0  0  0  0  3  0  0  0  0  0  0
  -22.8090  -10.2630   20.2260 C   0  0  0  0  0  3  0  0  0  0  0  0
  -21.7940   -6.9560   21.4450 O   0  0  0  0  0  0  0  0  0  0  0  0
  -21.7380   -6.2340   22.6090 C   0  0  0  0  0  0  0  0  0  0  0  0
  -21.2770   -6.8020   23.8180 C   0  0  0  0  0  3  0  0  0  0  0  0
  -21.1700   -6.0040   24.9750 C   0  0  0  0  0  3  0  0  0  0  0  0
  -21.5120   -4.6400   24.9240 C   0  0  0  0  0  0  0  0  0  0  0  0
  -21.9650   -4.0720   23.7200 C   0  0  0  0  0  3  0  0  0  0  0  0
  -22.0740   -4.8660   22.5660 C   0  0  0  0  0  0  0  0  0  0  0  0
  -22.4910   -4.3070   21.4040 F   0  0  0  0  0  0  0  0  0  0  0  0
  -21.4010   -3.8700   26.0330 F   0  0  0  0  0  0  0  0  0  0  0  0
  -22.8420  -13.6090   21.2310 C   0  0  0  0  0  0  0  0  0  0  0  0
  -22.1660  -12.8860   22.1180 N   0  0  0  0  0  0  0  0  0  0  0  0
  -22.3730  -14.6450   20.7630 O   0  0  0  0  0  0  0  0  0  0  0  0
  -22.5580  -12.0440   22.5140 H   0  0  0  0  0  0  0  0  0  0  0  0
  -21.2440  -13.1810   22.4050 H   0  0  0  0  0  0  0  0  0  0  0  0
  -25.4150  -15.3080   20.3000 N   0  0  0  0  0  0  0  0  0  0  0  0
  -24.6540  -15.9550   20.4670 H   0  0  0  0  0  0  0  0  0  0  0  0
  -26.2390  -15.7550   19.9220 H   0  0  0  0  0  0  0  0  0  0  0  0
  -28.2450  -25.0290   20.1610 C   0  0  0  0  0  2  0  0  0  0  0  0
  -28.4150  -26.5130   20.2570 O   0  0  0  0  0  0  0  0  0  0  0  0
  -24.6590  -31.8930   23.2780 C   0  0  0  0  0  0  0  0  0  0  0  0
  -27.2820  -27.3540   20.1940 C   0  0  0  0  0  0  0  0  0  0  0  0
  -23.4510  -30.5100   21.6210 C   0  0  0  0  0  3  0  0  0  0  0  0
  -24.9060  -28.9690   20.1800 C   0  0  0  0  0  0  0  0  0  0  0  0
  -25.9880  -30.8360   21.4340 C   0  0  0  0  0  2  0  0  0  0  0  0
  -26.0740  -29.4600   20.7760 C   0  0  0  0  0  0  0  0  0  0  0  0
  -27.2620  -28.6690   20.7660 C   0  0  0  0  0  3  0  0  0  0  0  0
  -26.0860  -26.9190   19.5760 C   0  0  0  0  0  3  0  0  0  0  0  0
  -24.9160  -27.7060   19.5660 C   0  0  0  0  0  3  0  0  0  0  0  0
  -23.6650  -29.8410   20.2360 C   0  0  0  0  0  2  0  0  0  0  0  0
  -24.7180  -31.0970   22.1680 N   0  0  0  0  0  0  0  0  0  0  0  0
  -23.5780  -32.1650   23.8190 O   0  0  0  0  0  0  0  0  0  0  0  0
  -22.7890  -29.4870   22.5750 C   0  0  0  0  0  0  0  0  0  0  0  0
  -21.4650  -29.3040   22.4420 N   0  0  0  0  0  0  0  0  0  0  0  0
  -23.4670  -28.8610   23.3940 O   0  0  0  0  0  0  0  0  0  0  0  0
  -20.9760  -29.8660   21.7590 H   0  0  0  0  0  0  0  0  0  0  0  0
  -18.0920  -28.0860   22.9160 C   0  0  0  0  0  0  0  0  0  0  0  0
  -20.6460  -28.3560   23.2020 C   0  0  0  0  0  3  0  0  0  0  0  0
  -20.7580  -26.9290   22.6160 C   0  0  0  0  0  2  0  0  0  0  0  0
  -19.6640  -26.6090   21.5920 C   0  0  0  0  0  2  0  0  0  0  0  0
  -18.2780  -26.7430   22.2310 C   0  0  0  0  0  2  0  0  0  0  0  0
  -19.2040  -28.8500   23.3570 C   0  0  0  0  0  0  0  0  0  0  0  0
  -18.9760  -30.1080   23.9560 C   0  0  0  0  0  3  0  0  0  0  0  0
  -17.6660  -30.6010   24.1190 C   0  0  0  0  0  3  0  0  0  0  0  0
  -16.5690  -29.8310   23.6960 C   0  0  0  0  0  3  0  0  0  0  0  0
  -16.7830  -28.5770   23.1010 C   0  0  0  0  0  3  0  0  0  0  0  0
  -25.9450  -32.5170   23.9040 C   0  0  0  0  0  3  0  0  0  0  0  0
  -25.6430  -33.9170   24.2400 N   0  0  0  0  0  0  0  0  0  0  0  0
  -25.9570  -34.9690   23.4720 C   0  0  0  0  0  0  0  0  0  0  0  0
  -26.6020  -34.8640   22.4240 O   0  0  0  0  0  0  0  0  0  0  0  0
  -25.0790  -34.0710   25.0610 H   0  0  0  0  0  0  0  0  0  0  0  0
  -24.2140  -36.7530   23.1630 C   0  0  0  0  0  1  0  0  0  0  0  0
  -25.4810  -36.3580   23.9380 C   0  0  0  0  0  3  0  0  0  0  0  0
  -27.6370  -37.2580   24.6950 C   0  0  0  0  0  1  0  0  0  0  0  0
  -26.5040  -37.4140   23.7840 N   0  0  0  0  0  0  0  0  0  0  0  0
  -26.1000  -38.3350   23.9380 H   0  0  0  0  0  0  0  0  0  0  0  0
  -26.4520  -31.7390   25.1800 C   0  0  1  0  0  0  0  0  0  0  0  0
  -25.3550  -31.5060   26.2450 C   0  0  0  0  0  1  0  0  0  0  0  0
  -27.0260  -30.3590   24.7840 C   0  0  0  0  0  1  0  0  0  0  0  0
  -27.6060  -32.5230   25.8480 C   0  0  0  0  0  1  0  0  0  0  0  0
  1  3  1  0
  2  5  1  0
  2  4  1  0
  4 11  1  0
  4  1  1  0
  5 52  1  0
  5  6  1  0
  6  8  1  0
  6  3  1  0
  7  6  1  0
  9 12  1  0
  9 10  2  0
 10 22  1  0
 10 13  1  0
 11 13  1  0
 12 11  2  0
 14 22  1  0
 15 20  1  0
 16 17  1  0
 16 15  1  0
 18 17  1  0
 18 27  1  0
 18 19  1  0
 20 14  1  0
 20 19  1  0
 21 14  2  0
 22 23  1  0
 24 25  2  0
 25 44  1  0
 26 25  1  0
 26 29  1  0
 27 28  1  0
 27 24  1  0
 28 26  2  0
 29 30  1  0
 30 31  2  0
 32 35  1  0
 32 31  1  0
 33 32  2  0
 34 33  1  0
 34 29  2  0
 35 36  1  0
 36 37  1  0
 37 38  2  0
 39 38  1  0
 39 43  1  0
 40 39  2  0
 41 36  2  0
 41 40  1  0
 42 41  1  0
 44 45  1  0
 45 48  1  0
 45 47  1  0
 46 44  2  0
 49 24  1  0
 49 50  1  0
 51 49  1  0
 52 53  1  0
 54 65  2  0
 55 53  1  0
 55 60  1  0
 56 64  1  0
 56 66  1  0
 57 63  1  0
 57 59  1  0
 58 64  1  0
 59 58  1  0
 60 59  2  0
 61 55  2  0
 62 61  1  0
 62 57  2  0
 63 56  1  0
 64 54  1  0
 66 68  2  0
 67 66  1  0
 69 67  1  0
 70 79  2  0
 70 75  1  0
 71 67  1  0
 71 75  1  0
 72 71  1  0
 73 74  1  0
 73 72  1  0
 74 70  1  0
 75 76  2  0
 76 77  1  0
 78 77  2  0
 79 78  1  0
 80 54  1  0
 80 81  1  0
 80 90  1  0
 81 84  1  0
 82 86  1  0
 82 81  1  0
 83 82  2  0
 86 85  1  0
 88 89  1  0
 88 86  1  0
 88 87  1  0
 90 93  1  1
 90 91  1  0
 92 90  1  0
M  ISO  4  14 100  22 100  52 101  53 101
M  END
>  <TORSDO>  (29) 
F 18

>  <SCORE>  (29) 
-14.428

>  <name>  (29) 
28

>  <ligand_id>  (29) 
28

>  <original_smiles>  (29) 
[H]c1nc(C2([H])C([H])([H])C([H])([H])[N+]([H])([H])C([H])(C([H])([H])Oc3c([H])c([H])c4c(c3[H])C([H])([H])N(C(=O)C([H])(N([H])C(=O)C([H])(N([H])C([H])([H])[H])C([H])([H])[H])C(C([H])([H])[H])(C([H])([H])[H])C([H])([H])[H])C([H])(C(=O)N([H])C3([H])c5c([H])c([H])c([H])c([H])c5C([H])([H])C([H])([H])C3([H])[H])C4([H])[H])C2([H])[H])sc1N([H])C(=O)N1C([H])([H])C([H])([H])C([H])([H])C([H])(n2nc(-c3c([H])c([H])c(Oc4c([H])c([H])c(F)c([H])c4F)c([H])c3[H])c(C(=O)N([H])[H])c2N([H])[H])C1([H])[H]

>  <smiles>  (29) 
[H]c1nc(C2([H])C([H])([H])C([H])([H])[N+]([H])([H])C([H])(C([H])([H])Oc3c([H])c([H])c4c(c3[H])C([H])([H])N(C(=O)C([H])(N([H])C(=O)C([H])(N([H])C([H])([H])[H])C([H])([H])[H])C(C([H])([H])[H])(C([H])([H])[H])C([H])([H])[H])C([H])(C(=O)N([H])C3([H])c5c([H])c([H])c([H])c([H])c5C([H])([H])C([H])([H])C3([H])[H])C4([H])[H])C2([H])[H])sc1N([H])C(=O)N1C([H])([H])C([H])([H])C([H])([H])C([H])(n2nc(-c3c([H])c([H])c(Oc4c([H])c([H])c(F)c([H])c4F)c([H])c3[H])c(C(=O)N([H])[H])c2N([H])[H])C1([H])[H]

$$$$
29:0:0
     RDKit          3D

 95103  0  0  1  0  0  0  0  0999 V2000
  -28.6590  -21.2110   19.9780 C   0  0  0  0  0  0  0  0  0  0  0  0
  -27.6310  -20.8730   19.2550 N   0  0  0  0  0  4  0  0  0  0  0  0
  -27.4680  -19.9060   18.9820 H   0  0  0  0  0  0  0  0  0  0  0  0
  -26.9950  -21.5140   18.7880 H   0  0  0  0  0  0  0  0  0  0  0  0
  -30.6070  -20.1660   21.3050 C   0  0  0  0  0  3  0  0  0  0  0  0
  -29.2090  -18.5650   20.1220 C   0  0  0  0  0  3  0  0  0  0  0  0
  -31.0220  -17.7360   21.4950 C   0  0  0  0  0  3  0  0  0  0  0  0
  -29.4930  -19.9620   20.4530 C   0  0  0  0  0  0  0  0  0  0  0  0
  -31.3550  -19.0710   21.8160 C   0  0  0  0  0  0  0  0  0  0  0  0
  -29.9750  -17.4210   20.6060 C   0  0  0  0  0  0  0  0  0  0  0  0
  -30.5440  -14.8620   20.2810 C   0  0  0  0  0  0  0  0  0  0  0  0
  -30.3940  -12.5900   19.2470 C   0  0  0  0  0  2  0  0  0  0  0  0
  -29.4330  -12.6240   18.0420 C   0  0  0  0  0  2  0  0  0  0  0  0
  -27.9570  -12.4580   18.4760 C   0  0  0  0  0  2  0  0  0  0  0  0
  -27.5840  -13.3410   19.6990 C   0  0  0  0  0  3  0  0  0  0  0  0
  -28.6600  -13.2670   20.8000 C   0  0  0  0  0  2  0  0  0  0  0  0
  -29.9360  -13.6400   20.1810 N   0  0  0  0  0  0  0  0  0  0  0  0
  -31.7580  -14.9710   20.0740 O   0  0  0  0  0  0  0  0  0  0  0  0
  -29.7160  -15.9830   20.2900 N   0  0  0  0  0  0  0  0  0  0  0  0
  -28.7680  -15.7530   20.0240 H   0  0  0  0  0  0  0  0  0  0  0  0
  -25.2120  -13.9240   20.4800 C   0  0  0  0  0  0  0  0  0  0  0  0
  -24.1570  -13.1400   20.8690 C   0  0  0  0  0  0  0  0  0  0  0  0
  -24.6270  -11.7930   20.8200 C   0  0  0  0  0  0  0  0  0  0  0  0
  -26.2520  -13.0450   20.2200 N   0  0  0  0  0  0  0  0  0  0  0  0
  -25.9140  -11.7600   20.4930 N   0  0  0  0  0  0  0  0  0  0  0  0
  -23.9060  -10.5250   21.0110 C   0  0  0  0  0  0  0  0  0  0  0  0
  -24.3430   -9.5540   21.9370 C   0  0  0  0  0  3  0  0  0  0  0  0
  -23.6230   -8.3530   22.1160 C   0  0  0  0  0  3  0  0  0  0  0  0
  -22.4450   -8.1130   21.3700 C   0  0  0  0  0  0  0  0  0  0  0  0
  -22.0270   -9.0700   20.4270 C   0  0  0  0  0  3  0  0  0  0  0  0
  -22.7520  -10.2610   20.2500 C   0  0  0  0  0  3  0  0  0  0  0  0
  -21.6990   -6.9620   21.4580 O   0  0  0  0  0  0  0  0  0  0  0  0
  -21.6450   -6.2270   22.6140 C   0  0  0  0  0  0  0  0  0  0  0  0
  -21.1960   -6.7800   23.8320 C   0  0  0  0  0  3  0  0  0  0  0  0
  -21.0920   -5.9670   24.9770 C   0  0  0  0  0  3  0  0  0  0  0  0
  -21.4310   -4.6030   24.9060 C   0  0  0  0  0  0  0  0  0  0  0  0
  -21.8740   -4.0480   23.6930 C   0  0  0  0  0  3  0  0  0  0  0  0
  -21.9790   -4.8590   22.5490 C   0  0  0  0  0  0  0  0  0  0  0  0
  -22.3860   -4.3170   21.3750 F   0  0  0  0  0  0  0  0  0  0  0  0
  -21.3220   -3.8190   26.0040 F   0  0  0  0  0  0  0  0  0  0  0  0
  -22.7640  -13.6050   21.1680 C   0  0  0  0  0  0  0  0  0  0  0  0
  -22.0530  -12.8930   22.0400 N   0  0  0  0  0  0  0  0  0  0  0  0
  -22.3120  -14.6330   20.6660 O   0  0  0  0  0  0  0  0  0  0  0  0
  -22.4210  -12.0510   22.4560 H   0  0  0  0  0  0  0  0  0  0  0  0
  -21.1260  -13.1910   22.2870 H   0  0  0  0  0  0  0  0  0  0  0  0
  -25.3590  -15.2940   20.2950 N   0  0  0  0  0  0  0  0  0  0  0  0
  -24.5680  -15.9260   20.3320 H   0  0  0  0  0  0  0  0  0  0  0  0
  -26.1750  -15.7270   19.8870 H   0  0  0  0  0  0  0  0  0  0  0  0
  -32.4630  -19.2720   22.6570 N   0  0  0  0  0  0  0  0  0  0  0  0
  -32.6060  -18.6030   23.4080 H   0  0  0  0  0  0  0  0  0  0  0  0
  -32.7150  -20.2100   22.9530 H   0  0  0  0  0  0  0  0  0  0  0  0
  -28.0990  -23.6460   19.9510 C   0  0  0  0  0  2  0  0  0  0  0  0
  -28.9060  -22.6030   20.1740 N   0  0  0  0  0  2  0  0  0  0  0  0
  -28.4670  -25.1660   19.5130 C   0  0  0  0  0  2  0  0  0  0  0  0
  -28.2190  -26.4230   20.3100 O   0  0  0  0  0  0  0  0  0  0  0  0
  -24.5680  -31.9390   23.2610 C   0  0  0  0  0  0  0  0  0  0  0  0
  -27.1230  -27.3160   20.1790 C   0  0  0  0  0  0  0  0  0  0  0  0
  -23.3430  -30.5530   21.6250 C   0  0  0  0  0  3  0  0  0  0  0  0
  -24.7710  -28.9910   20.1750 C   0  0  0  0  0  0  0  0  0  0  0  0
  -25.8790  -30.8400   21.4290 C   0  0  0  0  0  2  0  0  0  0  0  0
  -25.9480  -29.4590   20.7730 C   0  0  0  0  0  0  0  0  0  0  0  0
  -27.1200  -28.6320   20.7660 C   0  0  0  0  0  3  0  0  0  0  0  0
  -25.9180  -26.9020   19.5770 C   0  0  0  0  0  3  0  0  0  0  0  0
  -24.7610  -27.7210   19.5680 C   0  0  0  0  0  3  0  0  0  0  0  0
  -23.5370  -29.8740   20.2460 C   0  0  0  0  0  2  0  0  0  0  0  0
  -24.6160  -31.1290   22.1610 N   0  0  0  0  0  0  0  0  0  0  0  0
  -23.4910  -32.2190   23.8070 O   0  0  0  0  0  0  0  0  0  0  0  0
  -22.6850  -29.5440   22.5960 C   0  0  0  0  0  0  0  0  0  0  0  0
  -21.3580  -29.3620   22.4760 N   0  0  0  0  0  0  0  0  0  0  0  0
  -23.3690  -28.9300   23.4190 O   0  0  0  0  0  0  0  0  0  0  0  0
  -20.8620  -29.9080   21.7850 H   0  0  0  0  0  0  0  0  0  0  0  0
  -18.0010  -28.1190   22.9720 C   0  0  0  0  0  0  0  0  0  0  0  0
  -20.5500  -28.4230   23.2510 C   0  0  0  0  0  3  0  0  0  0  0  0
  -20.6720  -26.9820   22.6930 C   0  0  0  0  0  2  0  0  0  0  0  0
  -19.5850  -26.6340   21.6770 C   0  0  0  0  0  2  0  0  0  0  0  0
  -18.1970  -26.7650   22.3130 C   0  0  0  0  0  2  0  0  0  0  0  0
  -19.1040  -28.9050   23.4000 C   0  0  0  0  0  0  0  0  0  0  0  0
  -18.8610  -30.1730   23.9700 C   0  0  0  0  0  3  0  0  0  0  0  0
  -17.5440  -30.6470   24.1290 C   0  0  0  0  0  3  0  0  0  0  0  0
  -16.4530  -29.8570   23.7170 C   0  0  0  0  0  3  0  0  0  0  0  0
  -16.6840  -28.5960   23.1430 C   0  0  0  0  0  3  0  0  0  0  0  0
  -25.8580  -32.5740   23.8700 C   0  0  0  0  0  3  0  0  0  0  0  0
  -26.3710  -31.8200   25.1570 C   0  0  1  0  0  0  0  0  0  0  0  0
  -25.2880  -31.6040   26.2400 C   0  0  0  0  0  1  0  0  0  0  0  0
  -26.9430  -30.4330   24.7870 C   0  0  0  0  0  1  0  0  0  0  0  0
  -27.5230  -32.6210   25.8090 C   0  0  0  0  0  1  0  0  0  0  0  0
  -25.5540  -33.9790   24.1880 N   0  0  0  0  0  0  0  0  0  0  0  0
  -25.8910  -35.0260   23.4250 C   0  0  0  0  0  0  0  0  0  0  0  0
  -26.5570  -34.9100   22.3950 O   0  0  0  0  0  0  0  0  0  0  0  0
  -24.9580  -34.1410   24.9850 H   0  0  0  0  0  0  0  0  0  0  0  0
  -24.1830  -36.8430   23.0650 C   0  0  0  0  0  1  0  0  0  0  0  0
  -25.4180  -36.4230   23.8780 C   0  0  0  0  0  3  0  0  0  0  0  0
  -27.5580  -37.2980   24.7150 C   0  0  0  0  0  1  0  0  0  0  0  0
  -26.4640  -37.4640   23.7620 N   0  0  0  0  0  0  0  0  0  0  0  0
  -26.0670  -38.3900   23.8940 H   0  0  0  0  0  0  0  0  0  0  0  0
  1 53  1  0
  1  8  1  0
  2  1  2  0
  3  2  1  0
  4  2  1  0
  5  9  1  0
  6  8  1  0
  6 10  2  0
  7  9  2  0
  8  5  2  0
  9 49  1  0
 10  7  1  0
 11 19  1  0
 12 17  1  0
 13 14  1  0
 13 12  1  0
 15 14  1  0
 15 24  1  0
 15 16  1  0
 17 11  1  0
 17 16  1  0
 18 11  2  0
 19 10  1  0
 20 19  1  0
 21 22  2  0
 22 41  1  0
 23 22  1  0
 23 26  1  0
 24 21  1  0
 24 25  1  0
 25 23  2  0
 26 27  1  0
 27 28  2  0
 29 32  1  0
 29 28  1  0
 30 29  2  0
 31 30  1  0
 31 26  2  0
 32 33  1  0
 33 34  1  0
 34 35  2  0
 36 35  1  0
 36 40  1  0
 37 36  2  0
 38 33  2  0
 38 37  1  0
 39 38  1  0
 41 42  1  0
 42 45  1  0
 42 44  1  0
 43 41  2  0
 46 47  1  0
 46 21  1  0
 48 46  1  0
 49 51  1  0
 49 50  1  0
 52 53  1  0
 54 52  1  0
 54 55  1  0
 56 67  2  0
 57 55  1  0
 57 62  1  0
 58 66  1  0
 58 68  1  0
 59 65  1  0
 59 61  1  0
 60 66  1  0
 61 60  1  0
 62 61  2  0
 63 57  2  0
 64 63  1  0
 64 59  2  0
 65 58  1  0
 66 56  1  0
 68 70  2  0
 69 68  1  0
 71 69  1  0
 72 81  2  0
 72 77  1  0
 73 69  1  0
 73 77  1  0
 74 73  1  0
 75 76  1  0
 75 74  1  0
 76 72  1  0
 77 78  2  0
 78 79  1  0
 80 79  2  0
 81 80  1  0
 82 56  1  0
 82 87  1  0
 82 83  1  0
 83 86  1  1
 83 84  1  0
 85 83  1  0
 87 90  1  0
 88 92  1  0
 88 87  1  0
 89 88  2  0
 92 91  1  0
 94 92  1  0
 94 95  1  0
 94 93  1  0
M  ISO  4  11 100  19 100  54 101  55 101
M  END
>  <TORSDO>  (30) 
F 20

>  <SCORE>  (30) 
-14.205

>  <name>  (30) 
29

>  <ligand_id>  (30) 
29

>  <original_smiles>  (30) 
[H]C(=NC(c1c([H])c(N([H])[H])c([H])c(N([H])C(=O)N2C([H])([H])C([H])([H])C([H])([H])C([H])(n3nc(-c4c([H])c([H])c(Oc5c([H])c([H])c(F)c([H])c5F)c([H])c4[H])c(C(=O)N([H])[H])c3N([H])[H])C2([H])[H])c1[H])=[N+]([H])[H])C([H])([H])Oc1c([H])c([H])c2c(c1[H])C([H])([H])N(C(=O)C([H])(N([H])C(=O)C([H])(N([H])C([H])([H])[H])C([H])([H])[H])C(C([H])([H])[H])(C([H])([H])[H])C([H])([H])[H])C([H])(C(=O)N([H])C1([H])c3c([H])c([H])c([H])c([H])c3C([H])([H])C([H])([H])C1([H])[H])C2([H])[H]

>  <smiles>  (30) 
[H]C(=NC(c1c([H])c(N([H])[H])c([H])c(N([H])C(=O)N2C([H])([H])C([H])([H])C([H])([H])C([H])(n3nc(-c4c([H])c([H])c(Oc5c([H])c([H])c(F)c([H])c5F)c([H])c4[H])c(C(=O)N([H])[H])c3N([H])[H])C2([H])[H])c1[H])=[N+]([H])[H])C([H])([H])Oc1c([H])c([H])c2c(c1[H])C([H])([H])N(C(=O)C([H])(N([H])C(=O)C([H])(N([H])C([H])([H])[H])C([H])([H])[H])C(C([H])([H])[H])(C([H])([H])[H])C([H])([H])[H])C([H])(C(=O)N([H])C1([H])c3c([H])c([H])c([H])c([H])c3C([H])([H])C([H])([H])C1([H])[H])C2([H])[H]

$$$$
30:0:0
     RDKit          3D

 94103  0  0  1  0  0  0  0  0999 V2000
  -28.8140  -23.8750   21.0490 C   0  0  0  0  0  0  0  0  0  0  0  0
  -29.3870  -21.3260   21.0620 C   0  0  0  0  0  3  0  0  0  0  0  0
  -28.2500  -24.2030   18.7770 C   0  0  0  0  0  2  0  0  0  0  0  0
  -28.4960  -22.6790   19.0460 C   0  0  0  0  0  2  0  0  0  0  0  0
  -28.0080  -24.8750   20.1420 C   0  0  0  0  0  3  0  0  0  0  0  0
  -28.9590  -22.5210   20.4370 N   0  0  0  0  0  0  0  0  0  0  0  0
  -29.6750  -21.3860   22.3750 N   0  0  0  0  0  0  0  0  0  0  0  0
  -29.2100  -24.1480   22.1930 O   0  0  0  0  0  0  0  0  0  0  0  0
  -30.0000  -20.5700   22.8720 H   0  0  0  0  0  0  0  0  0  0  0  0
  -29.6260  -22.2680   22.8750 H   0  0  0  0  0  0  0  0  0  0  0  0
  -30.3180  -19.4770   19.4090 C   0  0  0  0  0  3  0  0  0  0  0  0
  -30.5150  -18.0320   19.3260 C   0  0  0  0  0  3  0  0  0  0  0  0
  -29.6020  -19.9290   20.4990 C   0  0  0  0  0  0  0  0  0  0  0  0
  -29.9340  -17.2680   20.3250 C   0  0  0  0  0  0  0  0  0  0  0  0
  -29.1070  -18.4500   21.3890 S   0  0  0  0  0  0  0  0  0  0  0  0
  -30.6160  -14.8070   20.0200 C   0  0  0  0  0  0  0  0  0  0  0  0
  -30.3810  -12.5580   18.9440 C   0  0  0  0  0  2  0  0  0  0  0  0
  -29.3700  -12.6730   17.7800 C   0  0  0  0  0  2  0  0  0  0  0  0
  -27.9260  -12.4900   18.2850 C   0  0  0  0  0  2  0  0  0  0  0  0
  -27.6290  -13.3340   19.5520 C   0  0  0  0  0  3  0  0  0  0  0  0
  -28.7480  -13.1830   20.6080 C   0  0  0  0  0  2  0  0  0  0  0  0
  -30.0150  -13.5660   19.9670 N   0  0  0  0  0  0  0  0  0  0  0  0
  -31.7450  -14.9600   19.5420 O   0  0  0  0  0  0  0  0  0  0  0  0
  -29.8720  -15.8710   20.5120 N   0  0  0  0  0  0  0  0  0  0  0  0
  -29.0680  -15.5640   21.0410 H   0  0  0  0  0  0  0  0  0  0  0  0
  -25.2840  -13.9150   20.4190 C   0  0  0  0  0  0  0  0  0  0  0  0
  -24.2380  -13.1350   20.8310 C   0  0  0  0  0  0  0  0  0  0  0  0
  -24.6950  -11.7830   20.7460 C   0  0  0  0  0  0  0  0  0  0  0  0
  -26.3110  -13.0380   20.1070 N   0  0  0  0  0  0  0  0  0  0  0  0
  -25.9670  -11.7510   20.3650 N   0  0  0  0  0  0  0  0  0  0  0  0
  -23.9760  -10.5180   20.9500 C   0  0  0  0  0  0  0  0  0  0  0  0
  -24.4360   -9.5480   21.8670 C   0  0  0  0  0  3  0  0  0  0  0  0
  -23.7180   -8.3490   22.0610 C   0  0  0  0  0  3  0  0  0  0  0  0
  -22.5250   -8.1110   21.3370 C   0  0  0  0  0  0  0  0  0  0  0  0
  -22.0850   -9.0700   20.4090 C   0  0  0  0  0  3  0  0  0  0  0  0
  -22.8030  -10.2610   20.2140 C   0  0  0  0  0  3  0  0  0  0  0  0
  -21.7770   -6.9640   21.4410 O   0  0  0  0  0  0  0  0  0  0  0  0
  -21.7270   -6.2380   22.6040 C   0  0  0  0  0  0  0  0  0  0  0  0
  -21.3000   -6.8120   23.8220 C   0  0  0  0  0  3  0  0  0  0  0  0
  -21.1980   -6.0140   24.9780 C   0  0  0  0  0  3  0  0  0  0  0  0
  -21.5120   -4.6420   24.9180 C   0  0  0  0  0  0  0  0  0  0  0  0
  -21.9310   -4.0680   23.7050 C   0  0  0  0  0  3  0  0  0  0  0  0
  -22.0350   -4.8640   22.5510 C   0  0  0  0  0  0  0  0  0  0  0  0
  -22.4200   -4.3020   21.3800 F   0  0  0  0  0  0  0  0  0  0  0  0
  -21.4060   -3.8730   26.0270 F   0  0  0  0  0  0  0  0  0  0  0  0
  -22.8590  -13.6090   21.1900 C   0  0  0  0  0  0  0  0  0  0  0  0
  -22.1800  -12.8980   22.0840 N   0  0  0  0  0  0  0  0  0  0  0  0
  -22.3940  -14.6430   20.7140 O   0  0  0  0  0  0  0  0  0  0  0  0
  -22.5710  -12.0610   22.4920 H   0  0  0  0  0  0  0  0  0  0  0  0
  -21.2580  -13.1960   22.3660 H   0  0  0  0  0  0  0  0  0  0  0  0
  -25.4430  -15.2880   20.2620 N   0  0  0  0  0  0  0  0  0  0  0  0
  -24.6840  -15.9420   20.4250 H   0  0  0  0  0  0  0  0  0  0  0  0
  -26.2680  -15.7310   19.8760 H   0  0  0  0  0  0  0  0  0  0  0  0
  -28.2690  -26.3670   20.2600 O   0  0  0  0  0  0  0  0  0  0  0  0
  -24.6060  -31.8820   23.2460 C   0  0  0  0  0  0  0  0  0  0  0  0
  -27.1830  -27.2780   20.1770 C   0  0  0  0  0  0  0  0  0  0  0  0
  -23.3930  -30.4880   21.6110 C   0  0  0  0  0  3  0  0  0  0  0  0
  -24.8350  -28.9400   20.1670 C   0  0  0  0  0  0  0  0  0  0  0  0
  -25.9360  -30.7920   21.4170 C   0  0  0  0  0  2  0  0  0  0  0  0
  -26.0100  -29.4120   20.7650 C   0  0  0  0  0  0  0  0  0  0  0  0
  -27.1870  -28.5930   20.7580 C   0  0  0  0  0  3  0  0  0  0  0  0
  -25.9900  -26.8900   19.5270 C   0  0  0  0  0  3  0  0  0  0  0  0
  -24.8310  -27.6890   19.5340 C   0  0  0  0  0  3  0  0  0  0  0  0
  -23.6000  -29.8190   20.2260 C   0  0  0  0  0  2  0  0  0  0  0  0
  -24.6640  -31.0730   22.1470 N   0  0  0  0  0  0  0  0  0  0  0  0
  -23.5250  -32.1590   23.7860 O   0  0  0  0  0  0  0  0  0  0  0  0
  -22.7340  -29.4700   22.5730 C   0  0  0  0  0  0  0  0  0  0  0  0
  -21.4080  -29.2890   22.4530 N   0  0  0  0  0  0  0  0  0  0  0  0
  -23.4170  -28.8470   23.3910 O   0  0  0  0  0  0  0  0  0  0  0  0
  -20.9160  -29.8420   21.7660 H   0  0  0  0  0  0  0  0  0  0  0  0
  -18.0380  -28.0680   22.9590 C   0  0  0  0  0  0  0  0  0  0  0  0
  -20.5950  -28.3480   23.2270 C   0  0  0  0  0  3  0  0  0  0  0  0
  -20.7080  -26.9150   22.6570 C   0  0  0  0  0  2  0  0  0  0  0  0
  -19.6080  -26.5800   21.6460 C   0  0  0  0  0  2  0  0  0  0  0  0
  -18.2240  -26.7180   22.2890 C   0  0  0  0  0  2  0  0  0  0  0  0
  -19.1510  -28.8400   23.3860 C   0  0  0  0  0  0  0  0  0  0  0  0
  -18.9220  -30.1030   23.9740 C   0  0  0  0  0  3  0  0  0  0  0  0
  -17.6150  -30.5950   24.1390 C   0  0  0  0  0  3  0  0  0  0  0  0
  -16.5150  -29.8210   23.7290 C   0  0  0  0  0  3  0  0  0  0  0  0
  -16.7280  -28.5590   23.1440 C   0  0  0  0  0  3  0  0  0  0  0  0
  -25.8910  -32.5180   23.8610 C   0  0  0  0  0  3  0  0  0  0  0  0
  -25.5780  -33.9130   24.2020 N   0  0  0  0  0  0  0  0  0  0  0  0
  -25.8890  -34.9710   23.4420 C   0  0  0  0  0  0  0  0  0  0  0  0
  -26.5390  -34.8760   22.3960 O   0  0  0  0  0  0  0  0  0  0  0  0
  -25.0010  -34.0610   25.0160 H   0  0  0  0  0  0  0  0  0  0  0  0
  -24.1380  -36.7510   23.1420 C   0  0  0  0  0  1  0  0  0  0  0  0
  -25.4050  -36.3560   23.9160 C   0  0  0  0  0  3  0  0  0  0  0  0
  -27.5560  -37.2550   24.6860 C   0  0  0  0  0  1  0  0  0  0  0  0
  -26.4260  -37.4170   23.7740 N   0  0  0  0  0  0  0  0  0  0  0  0
  -26.0180  -38.3330   23.9360 H   0  0  0  0  0  0  0  0  0  0  0  0
  -26.4170  -31.7430   25.1310 C   0  0  1  0  0  0  0  0  0  0  0  0
  -25.3320  -31.5010   26.2060 C   0  0  0  0  0  1  0  0  0  0  0  0
  -27.0000  -30.3680   24.7310 C   0  0  0  0  0  1  0  0  0  0  0  0
  -27.5710  -32.5370   25.7860 C   0  0  0  0  0  1  0  0  0  0  0  0
  1  8  2  0
  2  7  1  0
  3  4  1  0
  3  5  1  0
  4  6  1  0
  5 54  1  0
  5  1  1  0
  6  1  1  0
  6  2  1  0
  7  9  1  0
  7 10  1  0
 11 13  2  0
 12 11  1  0
 12 14  2  0
 13  2  1  0
 13 15  1  0
 14 24  1  0
 14 15  1  0
 16 24  1  0
 17 22  1  0
 18 19  1  0
 18 17  1  0
 20 19  1  0
 20 29  1  0
 20 21  1  0
 22 16  1  0
 22 21  1  0
 23 16  2  0
 24 25  1  0
 26 27  2  0
 27 46  1  0
 28 27  1  0
 28 31  1  0
 29 30  1  0
 29 26  1  0
 30 28  2  0
 31 32  1  0
 32 33  2  0
 34 37  1  0
 34 33  1  0
 35 34  2  0
 36 35  1  0
 36 31  2  0
 37 38  1  0
 38 39  1  0
 39 40  2  0
 41 40  1  0
 41 45  1  0
 42 41  2  0
 43 38  2  0
 43 42  1  0
 44 43  1  0
 46 47  1  0
 47 50  1  0
 47 49  1  0
 48 46  2  0
 51 26  1  0
 51 52  1  0
 53 51  1  0
 55 66  2  0
 56 54  1  0
 56 61  1  0
 57 65  1  0
 57 67  1  0
 58 64  1  0
 58 60  1  0
 59 65  1  0
 60 59  1  0
 61 60  2  0
 62 63  1  0
 62 56  2  0
 63 58  2  0
 64 57  1  0
 65 55  1  0
 67 69  2  0
 68 67  1  0
 70 68  1  0
 71 80  2  0
 71 76  1  0
 72 68  1  0
 72 76  1  0
 73 72  1  0
 74 75  1  0
 74 73  1  0
 75 71  1  0
 76 77  2  0
 77 78  1  0
 79 78  2  0
 80 79  1  0
 81 55  1  0
 81 82  1  0
 81 91  1  0
 82 85  1  0
 83 87  1  0
 83 82  1  0
 84 83  2  0
 87 86  1  0
 89 87  1  0
 89 90  1  0
 89 88  1  0
 91 94  1  1
 91 92  1  0
 93 91  1  0
M  ISO  4   5 101  16 100  24 100  54 101
M  END
>  <TORSDO>  (31) 
F 17

>  <SCORE>  (31) 
-14.552

>  <name>  (31) 
30

>  <ligand_id>  (31) 
30

>  <original_smiles>  (31) 
[H]c1c(C(N2C(=O)C([H])(Oc3c([H])c([H])c4c(c3[H])C([H])([H])N(C(=O)C([H])(N([H])C(=O)C([H])(N([H])C([H])([H])[H])C([H])([H])[H])C(C([H])([H])[H])(C([H])([H])[H])C([H])([H])[H])C([H])(C(=O)N([H])C3([H])c5c([H])c([H])c([H])c([H])c5C([H])([H])C([H])([H])C3([H])[H])C4([H])[H])C([H])([H])C2([H])[H])=[N+]([H])[H])sc(N([H])C(=O)N2C([H])([H])C([H])([H])C([H])([H])C([H])(n3nc(-c4c([H])c([H])c(Oc5c([H])c([H])c(F)c([H])c5F)c([H])c4[H])c(C(=O)N([H])[H])c3N([H])[H])C2([H])[H])c1[H]

>  <smiles>  (31) 
[H]c1c(C(N2C(=O)C([H])(Oc3c([H])c([H])c4c(c3[H])C([H])([H])N(C(=O)C([H])(N([H])C(=O)C([H])(N([H])C([H])([H])[H])C([H])([H])[H])C(C([H])([H])[H])(C([H])([H])[H])C([H])([H])[H])C([H])(C(=O)N([H])C3([H])c5c([H])c([H])c([H])c([H])c5C([H])([H])C([H])([H])C3([H])[H])C4([H])[H])C([H])([H])C2([H])[H])=[N+]([H])[H])sc(N([H])C(=O)N2C([H])([H])C([H])([H])C([H])([H])C([H])(n3nc(-c4c([H])c([H])c(Oc5c([H])c([H])c(F)c([H])c5F)c([H])c4[H])c(C(=O)N([H])[H])c3N([H])[H])C2([H])[H])c1[H]

$$$$
31:0:0
     RDKit          3D

 94102  0  0  1  0  0  0  0  0999 V2000
  -29.0480  -21.7330   19.6900 C   0  0  0  0  0  0  0  0  0  0  0  0
  -28.9210  -20.5180   20.2880 N   0  0  0  0  0  0  0  0  0  0  0  0
  -29.4620  -21.8640   18.5330 O   0  0  0  0  0  0  0  0  0  0  0  0
  -28.6860  -20.5340   21.2710 H   0  0  0  0  0  0  0  0  0  0  0  0
  -28.9940  -17.7110   17.7580 C   0  0  0  0  0  3  0  0  0  0  0  0
  -28.8170  -18.9810   18.3290 C   0  0  0  0  0  3  0  0  0  0  0  0
  -29.4320  -16.6320   18.5410 C   0  0  0  0  0  3  0  0  0  0  0  0
  -29.5070  -18.0910   20.4880 C   0  0  0  0  0  3  0  0  0  0  0  0
  -29.0950  -19.2070   19.6970 C   0  0  0  0  0  0  0  0  0  0  0  0
  -29.7000  -16.7870   19.9230 C   0  0  0  0  0  0  0  0  0  0  0  0
  -30.7970  -14.5840   20.1450 C   0  0  0  0  0  0  0  0  0  0  0  0
  -30.4260  -12.4420   18.9590 C   0  0  0  0  0  2  0  0  0  0  0  0
  -29.4180  -12.6290   17.8080 C   0  0  0  0  0  2  0  0  0  0  0  0
  -27.9680  -12.5030   18.3160 C   0  0  0  0  0  2  0  0  0  0  0  0
  -27.6980  -13.3180   19.6100 C   0  0  0  0  0  3  0  0  0  0  0  0
  -28.8150  -13.0950   20.6520 C   0  0  0  0  0  2  0  0  0  0  0  0
  -30.0970  -13.4210   20.0090 N   0  0  0  0  0  0  0  0  0  0  0  0
  -31.9100  -14.7450   19.6380 O   0  0  0  0  0  0  0  0  0  0  0  0
  -30.3360  -15.8170   22.1530 C   0  0  0  0  0  1  0  0  0  0  0  0
  -30.1470  -15.6450   20.7090 N   0  0  0  0  0  0  0  0  0  0  0  0
  -25.3460  -13.9000   20.4680 C   0  0  0  0  0  0  0  0  0  0  0  0
  -24.2980  -13.1160   20.8720 C   0  0  0  0  0  0  0  0  0  0  0  0
  -24.7560  -11.7650   20.7810 C   0  0  0  0  0  0  0  0  0  0  0  0
  -26.3750  -13.0260   20.1580 N   0  0  0  0  0  0  0  0  0  0  0  0
  -26.0290  -11.7370   20.4040 N   0  0  0  0  0  0  0  0  0  0  0  0
  -24.0410  -10.4980   20.9730 C   0  0  0  0  0  0  0  0  0  0  0  0
  -24.4910   -9.5280   21.8960 C   0  0  0  0  0  3  0  0  0  0  0  0
  -23.7760   -8.3250   22.0760 C   0  0  0  0  0  3  0  0  0  0  0  0
  -22.5930   -8.0830   21.3360 C   0  0  0  0  0  0  0  0  0  0  0  0
  -22.1620   -9.0420   20.4020 C   0  0  0  0  0  3  0  0  0  0  0  0
  -22.8790  -10.2370   20.2190 C   0  0  0  0  0  3  0  0  0  0  0  0
  -21.8470   -6.9330   21.4270 O   0  0  0  0  0  0  0  0  0  0  0  0
  -21.7730   -6.2150   22.5940 C   0  0  0  0  0  0  0  0  0  0  0  0
  -21.2980   -6.7880   23.7930 C   0  0  0  0  0  3  0  0  0  0  0  0
  -21.1730   -5.9940   24.9520 C   0  0  0  0  0  3  0  0  0  0  0  0
  -21.5130   -4.6290   24.9100 C   0  0  0  0  0  0  0  0  0  0  0  0
  -21.9810   -4.0560   23.7160 C   0  0  0  0  0  3  0  0  0  0  0  0
  -22.1090   -4.8460   22.5600 C   0  0  0  0  0  0  0  0  0  0  0  0
  -22.5400   -4.2830   21.4050 F   0  0  0  0  0  0  0  0  0  0  0  0
  -21.3870   -3.8650   26.0210 F   0  0  0  0  0  0  0  0  0  0  0  0
  -22.9170  -13.5830   21.2310 C   0  0  0  0  0  0  0  0  0  0  0  0
  -22.2370  -12.8630   22.1160 N   0  0  0  0  0  0  0  0  0  0  0  0
  -22.4520  -14.6220   20.7610 O   0  0  0  0  0  0  0  0  0  0  0  0
  -22.6270  -12.0210   22.5140 H   0  0  0  0  0  0  0  0  0  0  0  0
  -21.3120  -13.1570   22.3990 H   0  0  0  0  0  0  0  0  0  0  0  0
  -25.5040  -15.2730   20.3200 N   0  0  0  0  0  0  0  0  0  0  0  0
  -24.7550  -15.9330   20.4970 H   0  0  0  0  0  0  0  0  0  0  0  0
  -26.3480  -15.7160   19.9770 H   0  0  0  0  0  0  0  0  0  0  0  0
  -28.6910  -22.8830   20.5380 C   0  0  0  0  0  3  0  0  0  0  0  0
  -28.6780  -24.1800   20.1050 C   0  0  0  0  0  0  0  0  0  0  0  0
  -28.9760  -24.5580   18.8500 O   0  0  0  0  0  0  0  0  0  0  0  0
  -29.2020  -23.7690   18.3660 H   0  0  0  0  0  0  0  0  0  0  0  0
  -28.3310  -25.4100   20.9690 C   0  0  0  0  0  2  0  0  0  0  0  0
  -28.4550  -26.7040   20.3210 O   0  0  0  0  0  0  0  0  0  0  0  0
  -24.6180  -31.9680   23.2670 C   0  0  0  0  0  0  0  0  0  0  0  0
  -27.3030  -27.4650   20.2920 C   0  0  0  0  0  0  0  0  0  0  0  0
  -23.4310  -30.5280   21.6460 C   0  0  0  0  0  3  0  0  0  0  0  0
  -24.9030  -28.9720   20.2550 C   0  0  0  0  0  0  0  0  0  0  0  0
  -25.9570  -30.8970   21.4500 C   0  0  0  0  0  2  0  0  0  0  0  0
  -26.0570  -29.5120   20.8380 C   0  0  0  0  0  0  0  0  0  0  0  0
  -27.2620  -28.7690   20.8470 C   0  0  0  0  0  3  0  0  0  0  0  0
  -26.1340  -26.9460   19.6970 C   0  0  0  0  0  3  0  0  0  0  0  0
  -24.9380  -27.6900   19.6780 C   0  0  0  0  0  3  0  0  0  0  0  0
  -23.6520  -29.8230   20.2810 C   0  0  0  0  0  2  0  0  0  0  0  0
  -24.6860  -31.1480   22.1790 N   0  0  0  0  0  0  0  0  0  0  0  0
  -23.5310  -32.2410   23.7960 O   0  0  0  0  0  0  0  0  0  0  0  0
  -22.7810  -29.5200   22.6210 C   0  0  0  0  0  0  0  0  0  0  0  0
  -21.4600  -29.3200   22.4830 N   0  0  0  0  0  0  0  0  0  0  0  0
  -23.4620  -28.9180   23.4550 O   0  0  0  0  0  0  0  0  0  0  0  0
  -20.9700  -29.8550   21.7800 H   0  0  0  0  0  0  0  0  0  0  0  0
  -18.0970  -28.0930   22.9690 C   0  0  0  0  0  0  0  0  0  0  0  0
  -20.6470  -28.3890   23.2650 C   0  0  0  0  0  3  0  0  0  0  0  0
  -20.7740  -26.9480   22.7190 C   0  0  0  0  0  2  0  0  0  0  0  0
  -19.6880  -26.5900   21.7000 C   0  0  0  0  0  2  0  0  0  0  0  0
  -18.2970  -26.7320   22.3240 C   0  0  0  0  0  2  0  0  0  0  0  0
  -19.2000  -28.8770   23.3960 C   0  0  0  0  0  0  0  0  0  0  0  0
  -18.9580  -30.1510   23.9560 C   0  0  0  0  0  3  0  0  0  0  0  0
  -17.6440  -30.6380   24.0970 C   0  0  0  0  0  3  0  0  0  0  0  0
  -16.5550  -29.8510   23.6850 C   0  0  0  0  0  3  0  0  0  0  0  0
  -16.7820  -28.5800   23.1260 C   0  0  0  0  0  3  0  0  0  0  0  0
  -25.8960  -32.6170   23.8850 C   0  0  0  0  0  3  0  0  0  0  0  0
  -26.4190  -31.8640   25.1670 C   0  0  1  0  0  0  0  0  0  0  0  0
  -25.3260  -31.6220   26.2350 C   0  0  0  0  0  1  0  0  0  0  0  0
  -27.0210  -30.4920   24.7830 C   0  0  0  0  0  1  0  0  0  0  0  0
  -27.5600  -32.6780   25.8230 C   0  0  0  0  0  1  0  0  0  0  0  0
  -25.5740  -34.0150   24.2000 N   0  0  0  0  0  0  0  0  0  0  0  0
  -25.9010  -35.0620   23.4300 C   0  0  0  0  0  0  0  0  0  0  0  0
  -26.5740  -34.9520   22.4020 O   0  0  0  0  0  0  0  0  0  0  0  0
  -24.9780  -34.1760   24.9990 H   0  0  0  0  0  0  0  0  0  0  0  0
  -24.1610  -36.8330   23.0440 C   0  0  0  0  0  1  0  0  0  0  0  0
  -25.3990  -36.4510   23.8700 C   0  0  0  0  0  3  0  0  0  0  0  0
  -27.5180  -37.3630   24.7110 C   0  0  0  0  0  1  0  0  0  0  0  0
  -26.4260  -37.5090   23.7510 N   0  0  0  0  0  0  0  0  0  0  0  0
  -26.0130  -38.4290   23.8770 H   0  0  0  0  0  0  0  0  0  0  0  0
  1  2  1  0
  1 49  1  0
  2  4  1  0
  3  1  2  0
  5  6  2  0
  5  7  1  0
  6  9  1  0
  7 10  2  0
  9  2  1  0
  9  8  2  0
 10  8  1  0
 10 20  1  0
 11 20  1  0
 12 17  1  0
 13 14  1  0
 13 12  1  0
 15 14  1  0
 15 24  1  0
 15 16  1  0
 17 11  1  0
 17 16  1  0
 18 11  2  0
 20 19  1  0
 21 22  2  0
 22 41  1  0
 23 22  1  0
 23 26  1  0
 24 25  1  0
 24 21  1  0
 25 23  2  0
 26 27  1  0
 27 28  2  0
 29 32  1  0
 29 28  1  0
 30 29  2  0
 31 30  1  0
 31 26  2  0
 32 33  1  0
 33 34  1  0
 34 35  2  0
 36 35  1  0
 36 40  1  0
 37 36  2  0
 38 33  2  0
 38 37  1  0
 39 38  1  0
 41 42  1  0
 42 45  1  0
 42 44  1  0
 43 41  2  0
 46 21  1  0
 46 47  1  0
 48 46  1  0
 50 49  2  0
 50 53  1  0
 51 50  1  0
 52 51  1  0
 54 53  1  0
 55 66  2  0
 56 54  1  0
 56 61  1  0
 57 65  1  0
 57 67  1  0
 58 64  1  0
 58 60  1  0
 59 65  1  0
 60 61  2  0
 60 59  1  0
 62 56  2  0
 63 62  1  0
 63 58  2  0
 64 57  1  0
 65 55  1  0
 67 69  2  0
 68 67  1  0
 70 68  1  0
 71 80  2  0
 71 76  1  0
 72 68  1  0
 72 76  1  0
 73 72  1  0
 74 75  1  0
 74 73  1  0
 75 71  1  0
 76 77  2  0
 77 78  1  0
 79 78  2  0
 80 79  1  0
 81 55  1  0
 81 86  1  0
 81 82  1  0
 82 85  1  1
 82 83  1  0
 84 82  1  0
 86 89  1  0
 87 91  1  0
 87 86  1  0
 88 87  2  0
 91 90  1  0
 93 91  1  0
 93 94  1  0
 93 92  1  0
M  ISO  4  11 100  20 100  53 101  54 101
M  END
>  <TORSDO>  (32) 
F 20

>  <SCORE>  (32) 
-13.374

>  <name>  (32) 
31

>  <ligand_id>  (32) 
31

>  <original_smiles>  (32) 
[H]OC(=C([H])C(=O)N([H])c1c([H])c([H])c([H])c(N(C(=O)N2C([H])([H])C([H])([H])C([H])([H])C([H])(n3nc(-c4c([H])c([H])c(Oc5c([H])c([H])c(F)c([H])c5F)c([H])c4[H])c(C(=O)N([H])[H])c3N([H])[H])C2([H])[H])C([H])([H])[H])c1[H])C([H])([H])Oc1c([H])c([H])c2c(c1[H])C([H])([H])N(C(=O)C([H])(N([H])C(=O)C([H])(N([H])C([H])([H])[H])C([H])([H])[H])C(C([H])([H])[H])(C([H])([H])[H])C([H])([H])[H])C([H])(C(=O)N([H])C1([H])c3c([H])c([H])c([H])c([H])c3C([H])([H])C([H])([H])C1([H])[H])C2([H])[H]

>  <smiles>  (32) 
[H]OC(=C([H])C(=O)N([H])c1c([H])c([H])c([H])c(N(C(=O)N2C([H])([H])C([H])([H])C([H])([H])C([H])(n3nc(-c4c([H])c([H])c(Oc5c([H])c([H])c(F)c([H])c5F)c([H])c4[H])c(C(=O)N([H])[H])c3N([H])[H])C2([H])[H])C([H])([H])[H])c1[H])C([H])([H])Oc1c([H])c([H])c2c(c1[H])C([H])([H])N(C(=O)C([H])(N([H])C(=O)C([H])(N([H])C([H])([H])[H])C([H])([H])[H])C(C([H])([H])[H])(C([H])([H])[H])C([H])([H])[H])C([H])(C(=O)N([H])C1([H])c3c([H])c([H])c([H])c([H])c3C([H])([H])C([H])([H])C1([H])[H])C2([H])[H]

$$$$
32:0:0
     RDKit          3D

 93101  0  0  1  0  0  0  0  0999 V2000
  -29.9210  -20.7970   21.4660 C   0  0  0  0  0  3  0  0  0  0  0  0
  -30.3030  -19.3930   21.4910 C   0  0  0  0  0  0  0  0  0  0  0  0
  -29.9670  -18.6620   20.3680 C   0  0  0  0  0  0  0  0  0  0  0  0
  -29.2810  -21.2110   20.3170 C   0  0  0  0  0  0  0  0  0  0  0  0
  -29.1190  -19.7810   19.2710 S   0  0  0  0  0  0  0  0  0  0  0  0
  -31.0330  -18.8840   22.5740 N   0  0  0  0  0  0  0  0  0  0  0  0
  -31.5250  -19.5360   23.1780 H   0  0  0  0  0  0  0  0  0  0  0  0
  -31.5260  -18.0050   22.4500 H   0  0  0  0  0  0  0  0  0  0  0  0
  -28.7750  -22.4910   19.8850 N   0  0  0  0  0  0  0  0  0  0  0  0
  -28.3390  -22.5190   18.9660 H   0  0  0  0  0  0  0  0  0  0  0  0
  -29.0170  -23.8510   20.4910 C   0  0  0  0  0  2  0  0  0  0  0  0
  -28.6420  -25.1370   18.2860 C   0  0  0  0  0  1  0  0  0  0  0  0
  -28.2320  -25.0640   19.7680 C   0  0  0  0  0  3  0  0  0  0  0  0
  -28.3170  -26.4720   20.2680 O   0  0  0  0  0  0  0  0  0  0  0  0
  -24.6070  -31.9260   23.2530 C   0  0  0  0  0  0  0  0  0  0  0  0
  -27.2040  -27.3430   20.1860 C   0  0  0  0  0  0  0  0  0  0  0  0
  -23.4010  -30.5330   21.6140 C   0  0  0  0  0  3  0  0  0  0  0  0
  -24.8480  -28.9870   20.1810 C   0  0  0  0  0  0  0  0  0  0  0  0
  -25.9460  -30.8360   21.4370 C   0  0  0  0  0  2  0  0  0  0  0  0
  -26.0190  -29.4580   20.7870 C   0  0  0  0  0  0  0  0  0  0  0  0
  -27.1970  -28.6460   20.7840 C   0  0  0  0  0  3  0  0  0  0  0  0
  -26.0070  -26.9480   19.5360 C   0  0  0  0  0  3  0  0  0  0  0  0
  -24.8460  -27.7390   19.5460 C   0  0  0  0  0  3  0  0  0  0  0  0
  -23.6150  -29.8630   20.2320 C   0  0  0  0  0  2  0  0  0  0  0  0
  -24.6710  -31.1150   22.1580 N   0  0  0  0  0  0  0  0  0  0  0  0
  -23.5240  -32.2060   23.7860 O   0  0  0  0  0  0  0  0  0  0  0  0
  -22.7350  -29.5140   22.5710 C   0  0  0  0  0  0  0  0  0  0  0  0
  -21.4090  -29.3360   22.4410 N   0  0  0  0  0  0  0  0  0  0  0  0
  -23.4110  -28.8890   23.3910 O   0  0  0  0  0  0  0  0  0  0  0  0
  -20.9190  -29.8910   21.7530 H   0  0  0  0  0  0  0  0  0  0  0  0
  -18.0330  -28.1340   22.9370 C   0  0  0  0  0  0  0  0  0  0  0  0
  -20.5890  -28.4000   23.2140 C   0  0  0  0  0  3  0  0  0  0  0  0
  -20.6970  -26.9650   22.6460 C   0  0  0  0  0  2  0  0  0  0  0  0
  -19.5990  -26.6350   21.6300 C   0  0  0  0  0  2  0  0  0  0  0  0
  -18.2130  -26.7820   22.2670 C   0  0  0  0  0  2  0  0  0  0  0  0
  -19.1480  -28.9020   23.3680 C   0  0  0  0  0  0  0  0  0  0  0  0
  -18.9240  -30.1670   23.9530 C   0  0  0  0  0  3  0  0  0  0  0  0
  -17.6160  -30.6650   24.1090 C   0  0  0  0  0  3  0  0  0  0  0  0
  -16.5160  -29.8970   23.6930 C   0  0  0  0  0  3  0  0  0  0  0  0
  -16.7250  -28.6330   23.1140 C   0  0  0  0  0  3  0  0  0  0  0  0
  -25.8920  -32.5580   23.8720 C   0  0  0  0  0  3  0  0  0  0  0  0
  -25.5860  -33.9570   24.2010 N   0  0  0  0  0  0  0  0  0  0  0  0
  -25.9170  -35.0090   23.4370 C   0  0  0  0  0  0  0  0  0  0  0  0
  -26.5790  -34.9000   22.4020 O   0  0  0  0  0  0  0  0  0  0  0  0
  -25.0000  -34.1140   25.0070 H   0  0  0  0  0  0  0  0  0  0  0  0
  -24.1890  -36.8040   23.0860 C   0  0  0  0  0  1  0  0  0  0  0  0
  -25.4340  -36.4010   23.8930 C   0  0  0  0  0  3  0  0  0  0  0  0
  -27.5760  -37.2830   24.7090 C   0  0  0  0  0  1  0  0  0  0  0  0
  -26.4680  -37.4510   23.7710 N   0  0  0  0  0  0  0  0  0  0  0  0
  -26.0670  -38.3730   23.9160 H   0  0  0  0  0  0  0  0  0  0  0  0
  -26.4040  -31.7890   25.1510 C   0  0  1  0  0  0  0  0  0  0  0  0
  -25.3080  -31.5590   26.2160 C   0  0  0  0  0  1  0  0  0  0  0  0
  -26.9820  -30.4070   24.7670 C   0  0  0  0  0  1  0  0  0  0  0  0
  -27.5570  -32.5800   25.8110 C   0  0  0  0  0  1  0  0  0  0  0  0
  -30.4440  -17.2450   19.8870 C   0  0  0  0  0  2  0  0  0  0  0  0
  -30.6750  -14.7330   20.2900 C   0  0  0  0  0  0  0  0  0  0  0  0
  -30.3760  -12.4960   19.2600 C   0  0  0  0  0  2  0  0  0  0  0  0
  -29.4370  -12.6440   18.0460 C   0  0  0  0  0  2  0  0  0  0  0  0
  -27.9680  -12.4960   18.4780 C   0  0  0  0  0  2  0  0  0  0  0  0
  -27.6210  -13.3410   19.7340 C   0  0  0  0  0  3  0  0  0  0  0  0
  -28.6930  -13.2230   20.8400 C   0  0  0  0  0  2  0  0  0  0  0  0
  -29.9910  -13.5420   20.2340 N   0  0  0  0  0  0  0  0  0  0  0  0
  -31.8550  -14.7810   19.9380 O   0  0  0  0  0  0  0  0  0  0  0  0
  -29.9790  -15.9130   20.4560 N   0  0  0  0  0  0  0  0  0  0  0  0
  -29.0050  -15.8350   20.7110 H   0  0  0  0  0  0  0  0  0  0  0  0
  -25.2320  -13.9150   20.4660 C   0  0  0  0  0  0  0  0  0  0  0  0
  -24.1710  -13.1340   20.8390 C   0  0  0  0  0  0  0  0  0  0  0  0
  -24.6420  -11.7860   20.8100 C   0  0  0  0  0  0  0  0  0  0  0  0
  -26.2810  -13.0420   20.2330 N   0  0  0  0  0  0  0  0  0  0  0  0
  -25.9330  -11.7550   20.4990 N   0  0  0  0  0  0  0  0  0  0  0  0
  -23.9220  -10.5210   21.0080 C   0  0  0  0  0  0  0  0  0  0  0  0
  -24.3600   -9.5580   21.9430 C   0  0  0  0  0  3  0  0  0  0  0  0
  -23.6380   -8.3590   22.1310 C   0  0  0  0  0  3  0  0  0  0  0  0
  -22.4610   -8.1160   21.3820 C   0  0  0  0  0  0  0  0  0  0  0  0
  -22.0420   -9.0660   20.4340 C   0  0  0  0  0  3  0  0  0  0  0  0
  -22.7650  -10.2550   20.2470 C   0  0  0  0  0  3  0  0  0  0  0  0
  -21.7110   -6.9680   21.4760 O   0  0  0  0  0  0  0  0  0  0  0  0
  -21.6680   -6.2270   22.6290 C   0  0  0  0  0  0  0  0  0  0  0  0
  -21.2510   -6.7860   23.8570 C   0  0  0  0  0  3  0  0  0  0  0  0
  -21.1570   -5.9730   25.0050 C   0  0  0  0  0  3  0  0  0  0  0  0
  -21.4690   -4.6020   24.9240 C   0  0  0  0  0  0  0  0  0  0  0  0
  -21.8840   -4.0440   23.7000 C   0  0  0  0  0  3  0  0  0  0  0  0
  -21.9790   -4.8540   22.5560 C   0  0  0  0  0  0  0  0  0  0  0  0
  -22.3580   -4.3080   21.3750 F   0  0  0  0  0  0  0  0  0  0  0  0
  -21.3750   -3.8190   26.0240 F   0  0  0  0  0  0  0  0  0  0  0  0
  -22.7710  -13.6050   21.1090 C   0  0  0  0  0  0  0  0  0  0  0  0
  -22.0500  -12.9080   21.9820 N   0  0  0  0  0  0  0  0  0  0  0  0
  -22.3280  -14.6270   20.5860 O   0  0  0  0  0  0  0  0  0  0  0  0
  -22.4240  -12.0830   22.4250 H   0  0  0  0  0  0  0  0  0  0  0  0
  -21.1110  -13.2050   22.2100 H   0  0  0  0  0  0  0  0  0  0  0  0
  -25.3840  -15.2860   20.2850 N   0  0  0  0  0  0  0  0  0  0  0  0
  -24.6060  -15.9270   20.3840 H   0  0  0  0  0  0  0  0  0  0  0  0
  -26.2250  -15.7350   19.9420 H   0  0  0  0  0  0  0  0  0  0  0  0
  1  2  1  0
  2  6  1  0
  3  2  2  0
  4  1  2  0
  5  4  1  0
  5  3  1  0
  6  7  1  0
  8  6  1  0
  9  4  1  0
  9 11  1  0
 10  9  1  0
 13 12  1  0
 13 14  1  0
 13 11  1  0
 15 26  2  0
 16 14  1  0
 16 21  1  0
 17 25  1  0
 17 27  1  0
 18 24  1  0
 18 20  1  0
 19 25  1  0
 20 19  1  0
 21 20  2  0
 22 23  1  0
 22 16  2  0
 23 18  2  0
 24 17  1  0
 25 15  1  0
 27 29  2  0
 28 27  1  0
 30 28  1  0
 31 40  2  0
 31 36  1  0
 32 28  1  0
 32 36  1  0
 33 32  1  0
 34 35  1  0
 34 33  1  0
 35 31  1  0
 36 37  2  0
 37 38  1  0
 39 38  2  0
 40 39  1  0
 41 15  1  0
 41 42  1  0
 41 51  1  0
 42 45  1  0
 43 47  1  0
 43 42  1  0
 44 43  2  0
 47 46  1  0
 49 47  1  0
 49 50  1  0
 49 48  1  0
 51 54  1  1
 51 52  1  0
 53 51  1  0
 55  3  1  0
 55 64  1  0
 56 64  1  0
 57 62  1  0
 58 59  1  0
 58 57  1  0
 60 59  1  0
 60 69  1  0
 60 61  1  0
 62 56  1  0
 62 61  1  0
 63 56  2  0
 64 65  1  0
 66 67  2  0
 67 86  1  0
 68 67  1  0
 68 71  1  0
 69 66  1  0
 69 70  1  0
 70 68  2  0
 71 72  1  0
 72 73  2  0
 74 77  1  0
 74 73  1  0
 75 74  2  0
 76 75  1  0
 76 71  2  0
 77 78  1  0
 78 79  1  0
 79 80  2  0
 81 80  1  0
 81 85  1  0
 82 81  2  0
 83 78  2  0
 83 82  1  0
 84 83  1  0
 86 87  1  0
 87 90  1  0
 87 89  1  0
 88 86  2  0
 91 92  1  0
 91 66  1  0
 93 91  1  0
M  ISO  4  13 101  14 101  56 100  64 100
M  END
>  <TORSDO>  (33) 
F 21

>  <SCORE>  (33) 
-13.741

>  <name>  (33) 
32

>  <ligand_id>  (33) 
32

>  <original_smiles>  (33) 
[H]c1c([H])c([H])c2c(c1[H])C([H])([H])C([H])([H])C([H])([H])C2([H])N([H])C(=O)C1([H])N(C(=O)C([H])(N([H])C(=O)C([H])(N([H])C([H])([H])[H])C([H])([H])[H])C(C([H])([H])[H])(C([H])([H])[H])C([H])([H])[H])C([H])([H])c2c([H])c(OC([H])(C([H])([H])[H])C([H])([H])N([H])c3sc(C([H])([H])N([H])C(=O)N4C([H])([H])C([H])([H])C([H])([H])C([H])(n5nc(-c6c([H])c([H])c(Oc7c([H])c([H])c(F)c([H])c7F)c([H])c6[H])c(C(=O)N([H])[H])c5N([H])[H])C4([H])[H])c(N([H])[H])c3[H])c([H])c([H])c2C1([H])[H]

>  <smiles>  (33) 
[H]c1c([H])c([H])c2c(c1[H])C([H])([H])C([H])([H])C([H])([H])C2([H])N([H])C(=O)C1([H])N(C(=O)C([H])(N([H])C(=O)C([H])(N([H])C([H])([H])[H])C([H])([H])[H])C(C([H])([H])[H])(C([H])([H])[H])C([H])([H])[H])C([H])([H])c2c([H])c(OC([H])(C([H])([H])[H])C([H])([H])N([H])c3sc(C([H])([H])N([H])C(=O)N4C([H])([H])C([H])([H])C([H])([H])C([H])(n5nc(-c6c([H])c([H])c(Oc7c([H])c([H])c(F)c([H])c7F)c([H])c6[H])c(C(=O)N([H])[H])c5N([H])[H])C4([H])[H])c(N([H])[H])c3[H])c([H])c([H])c2C1([H])[H]

$$$$
33:0:0
     RDKit          3D

 93101  0  0  1  0  0  0  0  0999 V2000
  -29.9580  -21.3780   20.5710 N   0  0  0  0  0  0  0  0  0  0  0  0
  -30.8430  -21.8770   20.5530 H   0  0  0  0  0  0  0  0  0  0  0  0
  -30.5870  -14.7600   20.3830 C   0  0  0  0  0  0  0  0  0  0  0  0
  -30.3840  -12.4880   19.3630 C   0  0  0  0  0  2  0  0  0  0  0  0
  -29.4360  -12.5580   18.1460 C   0  0  0  0  0  2  0  0  0  0  0  0
  -27.9700  -12.3810   18.5870 C   0  0  0  0  0  2  0  0  0  0  0  0
  -27.6020  -13.2720   19.8020 C   0  0  0  0  0  3  0  0  0  0  0  0
  -28.6670  -13.1820   20.9180 C   0  0  0  0  0  2  0  0  0  0  0  0
  -29.9610  -13.5350   20.3200 N   0  0  0  0  0  0  0  0  0  0  0  0
  -31.7690  -14.8600   20.0400 O   0  0  0  0  0  0  0  0  0  0  0  0
  -31.2960  -19.2770   20.5680 C   0  0  0  0  0  0  0  0  0  0  0  0
  -30.0730  -19.9280   20.5520 C   0  0  0  0  0  0  0  0  0  0  0  0
  -30.0480  -17.3240   20.5740 C   0  0  0  0  0  0  0  0  0  0  0  0
  -31.2770  -17.8640   20.5650 N   0  0  0  0  0  0  0  0  0  0  0  0
  -29.7890  -15.8660   20.6270 N   0  0  0  0  0  0  0  0  0  0  0  0
  -28.8120  -18.6600   20.5590 S   0  0  0  0  0  0  0  0  0  0  0  0
  -28.8290  -15.6280   20.8150 H   0  0  0  0  0  0  0  0  0  0  0  0
  -25.2170  -13.8610   20.5460 C   0  0  0  0  0  0  0  0  0  0  0  0
  -24.1560  -13.0830   20.9210 C   0  0  0  0  0  0  0  0  0  0  0  0
  -24.6220  -11.7330   20.8850 C   0  0  0  0  0  0  0  0  0  0  0  0
  -26.2610  -12.9840   20.3000 N   0  0  0  0  0  0  0  0  0  0  0  0
  -25.9110  -11.6990   20.5690 N   0  0  0  0  0  0  0  0  0  0  0  0
  -23.9000  -10.4690   21.0740 C   0  0  0  0  0  0  0  0  0  0  0  0
  -24.3480   -9.4920   21.9920 C   0  0  0  0  0  3  0  0  0  0  0  0
  -23.6260   -8.2920   22.1700 C   0  0  0  0  0  3  0  0  0  0  0  0
  -22.4410   -8.0610   21.4310 C   0  0  0  0  0  0  0  0  0  0  0  0
  -22.0130   -9.0250   20.5020 C   0  0  0  0  0  3  0  0  0  0  0  0
  -22.7360  -10.2160   20.3220 C   0  0  0  0  0  3  0  0  0  0  0  0
  -21.6890   -6.9150   21.5210 O   0  0  0  0  0  0  0  0  0  0  0  0
  -21.6670   -6.1540   22.6620 C   0  0  0  0  0  0  0  0  0  0  0  0
  -21.2570   -6.6880   23.9040 C   0  0  0  0  0  3  0  0  0  0  0  0
  -21.1830   -5.8540   25.0380 C   0  0  0  0  0  3  0  0  0  0  0  0
  -21.5090   -4.4900   24.9320 C   0  0  0  0  0  0  0  0  0  0  0  0
  -21.9130   -3.9560   23.6950 C   0  0  0  0  0  3  0  0  0  0  0  0
  -21.9880   -4.7860   22.5640 C   0  0  0  0  0  0  0  0  0  0  0  0
  -22.3570   -4.2620   21.3700 F   0  0  0  0  0  0  0  0  0  0  0  0
  -21.4310   -3.6860   26.0180 F   0  0  0  0  0  0  0  0  0  0  0  0
  -22.7580  -13.5550   21.2010 C   0  0  0  0  0  0  0  0  0  0  0  0
  -22.0390  -12.8580   22.0720 N   0  0  0  0  0  0  0  0  0  0  0  0
  -22.3140  -14.5780   20.6820 O   0  0  0  0  0  0  0  0  0  0  0  0
  -22.4120  -12.0300   22.5130 H   0  0  0  0  0  0  0  0  0  0  0  0
  -21.1020  -13.1560   22.3040 H   0  0  0  0  0  0  0  0  0  0  0  0
  -25.3770  -15.2320   20.3680 N   0  0  0  0  0  0  0  0  0  0  0  0
  -24.6050  -15.8800   20.4770 H   0  0  0  0  0  0  0  0  0  0  0  0
  -26.2030  -15.6680   19.9800 H   0  0  0  0  0  0  0  0  0  0  0  0
  -32.5210  -19.9450   20.5950 N   0  0  0  0  0  0  0  0  0  0  0  0
  -32.5150  -20.8990   20.9310 H   0  0  0  0  0  0  0  0  0  0  0  0
  -33.3350  -19.4190   20.8900 H   0  0  0  0  0  0  0  0  0  0  0  0
  -28.7890  -22.3030   20.3350 C   0  0  0  0  0  2  0  0  0  0  0  0
  -29.0970  -23.8780   20.4190 C   0  0  0  0  0  0  0  0  0  0  0  0
  -30.2290  -24.2430   20.7600 O   0  0  0  0  0  0  0  0  0  0  0  0
  -27.9900  -24.9640   20.0560 C   0  0  0  0  0  2  0  0  0  0  0  0
  -28.2920  -26.4230   20.2510 O   0  0  0  0  0  0  0  0  0  0  0  0
  -24.6480  -31.9280   23.2600 C   0  0  0  0  0  0  0  0  0  0  0  0
  -27.2000  -27.3210   20.1900 C   0  0  0  0  0  0  0  0  0  0  0  0
  -23.4230  -30.5370   21.6300 C   0  0  0  0  0  3  0  0  0  0  0  0
  -24.8530  -28.9770   20.1920 C   0  0  0  0  0  0  0  0  0  0  0  0
  -25.9670  -30.8290   21.4320 C   0  0  0  0  0  2  0  0  0  0  0  0
  -26.0340  -29.4480   20.7810 C   0  0  0  0  0  0  0  0  0  0  0  0
  -27.2110  -28.6340   20.7680 C   0  0  0  0  0  3  0  0  0  0  0  0
  -25.9940  -26.9180   19.5680 C   0  0  0  0  0  3  0  0  0  0  0  0
  -24.8390  -27.7190   19.5740 C   0  0  0  0  0  3  0  0  0  0  0  0
  -23.6240  -29.8610   20.2480 C   0  0  0  0  0  2  0  0  0  0  0  0
  -24.6990  -31.1150   22.1630 N   0  0  0  0  0  0  0  0  0  0  0  0
  -23.5700  -32.2130   23.8020 O   0  0  0  0  0  0  0  0  0  0  0  0
  -22.7590  -29.5260   22.5950 C   0  0  0  0  0  0  0  0  0  0  0  0
  -21.4320  -29.3500   22.4710 N   0  0  0  0  0  0  0  0  0  0  0  0
  -23.4370  -28.9020   23.4160 O   0  0  0  0  0  0  0  0  0  0  0  0
  -20.9440  -29.9060   21.7830 H   0  0  0  0  0  0  0  0  0  0  0  0
  -18.0540  -28.1530   22.9730 C   0  0  0  0  0  0  0  0  0  0  0  0
  -20.6120  -28.4170   23.2460 C   0  0  0  0  0  3  0  0  0  0  0  0
  -20.7150  -26.9810   22.6830 C   0  0  0  0  0  2  0  0  0  0  0  0
  -19.6170  -26.6490   21.6690 C   0  0  0  0  0  2  0  0  0  0  0  0
  -18.2330  -26.7980   22.3090 C   0  0  0  0  0  2  0  0  0  0  0  0
  -19.1710  -28.9190   23.3990 C   0  0  0  0  0  0  0  0  0  0  0  0
  -18.9500  -30.1860   23.9820 C   0  0  0  0  0  3  0  0  0  0  0  0
  -17.6450  -30.6870   24.1430 C   0  0  0  0  0  3  0  0  0  0  0  0
  -16.5420  -29.9180   23.7320 C   0  0  0  0  0  3  0  0  0  0  0  0
  -16.7480  -28.6530   23.1540 C   0  0  0  0  0  3  0  0  0  0  0  0
  -25.9390  -32.5520   23.8730 C   0  0  0  0  0  3  0  0  0  0  0  0
  -26.4680  -31.7700   25.1380 C   0  0  1  0  0  0  0  0  0  0  0  0
  -25.3860  -31.5280   26.2160 C   0  0  0  0  0  1  0  0  0  0  0  0
  -27.0420  -30.3930   24.7300 C   0  0  0  0  0  1  0  0  0  0  0  0
  -27.6270  -32.5560   25.7910 C   0  0  0  0  0  1  0  0  0  0  0  0
  -25.6360  -33.9480   24.2190 N   0  0  0  0  0  0  0  0  0  0  0  0
  -25.9400  -35.0060   23.4560 C   0  0  0  0  0  0  0  0  0  0  0  0
  -26.5740  -34.9090   22.4010 O   0  0  0  0  0  0  0  0  0  0  0  0
  -25.0690  -34.0960   25.0410 H   0  0  0  0  0  0  0  0  0  0  0  0
  -24.1860  -36.7890   23.1840 C   0  0  0  0  0  1  0  0  0  0  0  0
  -25.4650  -36.3910   23.9380 C   0  0  0  0  0  3  0  0  0  0  0  0
  -27.6280  -37.2900   24.6740 C   0  0  0  0  0  1  0  0  0  0  0  0
  -26.4850  -37.4510   23.7800 N   0  0  0  0  0  0  0  0  0  0  0  0
  -26.0800  -38.3680   23.9450 H   0  0  0  0  0  0  0  0  0  0  0  0
  2  1  1  0
  3 15  1  0
  4  9  1  0
  5  6  1  0
  5  4  1  0
  7  6  1  0
  7 21  1  0
  7  8  1  0
  9  3  1  0
  9  8  1  0
 10  3  2  0
 11 46  1  0
 12 16  1  0
 12 11  2  0
 12  1  1  0
 13 15  1  0
 14 11  1  0
 14 13  2  0
 15 17  1  0
 16 13  1  0
 18 19  2  0
 19 38  1  0
 20 19  1  0
 20 23  1  0
 21 18  1  0
 21 22  1  0
 22 20  2  0
 23 24  1  0
 24 25  2  0
 26 29  1  0
 26 25  1  0
 27 26  2  0
 28 27  1  0
 28 23  2  0
 29 30  1  0
 30 31  1  0
 31 32  2  0
 33 32  1  0
 33 37  1  0
 34 33  2  0
 35 30  2  0
 35 34  1  0
 36 35  1  0
 38 39  1  0
 39 42  1  0
 39 41  1  0
 40 38  2  0
 43 44  1  0
 43 18  1  0
 45 43  1  0
 46 48  1  0
 46 47  1  0
 49 50  1  0
 49  1  1  0
 50 51  2  0
 52 53  1  0
 52 50  1  0
 54 65  2  0
 55 53  1  0
 55 60  1  0
 56 64  1  0
 56 66  1  0
 57 63  1  0
 57 59  1  0
 58 64  1  0
 59 58  1  0
 60 59  2  0
 61 62  1  0
 61 55  2  0
 62 57  2  0
 63 56  1  0
 64 54  1  0
 66 68  2  0
 67 66  1  0
 69 67  1  0
 70 79  2  0
 70 75  1  0
 71 67  1  0
 71 75  1  0
 72 71  1  0
 73 74  1  0
 73 72  1  0
 74 70  1  0
 75 76  2  0
 76 77  1  0
 78 77  2  0
 79 78  1  0
 80 54  1  0
 80 85  1  0
 80 81  1  0
 81 84  1  1
 81 82  1  0
 83 81  1  0
 85 88  1  0
 86 90  1  0
 86 85  1  0
 87 86  2  0
 90 89  1  0
 92 90  1  0
 92 93  1  0
 92 91  1  0
M  ISO  4   3 100  15 100  52 101  53 101
M  END
>  <TORSDO>  (34) 
F 20

>  <SCORE>  (34) 
-13.995

>  <name>  (34) 
33

>  <ligand_id>  (34) 
33

>  <original_smiles>  (34) 
[H]c1c([H])c([H])c2c(c1[H])C([H])([H])C([H])([H])C([H])([H])C2([H])N([H])C(=O)C1([H])N(C(=O)C([H])(N([H])C(=O)C([H])(N([H])C([H])([H])[H])C([H])([H])[H])C(C([H])([H])[H])(C([H])([H])[H])C([H])([H])[H])C([H])([H])c2c([H])c(OC([H])([H])C(=O)C([H])([H])N([H])c3sc(N([H])C(=O)N4C([H])([H])C([H])([H])C([H])([H])C([H])(n5nc(-c6c([H])c([H])c(Oc7c([H])c([H])c(F)c([H])c7F)c([H])c6[H])c(C(=O)N([H])[H])c5N([H])[H])C4([H])[H])nc3N([H])[H])c([H])c([H])c2C1([H])[H]

>  <smiles>  (34) 
[H]c1c([H])c([H])c2c(c1[H])C([H])([H])C([H])([H])C([H])([H])C2([H])N([H])C(=O)C1([H])N(C(=O)C([H])(N([H])C(=O)C([H])(N([H])C([H])([H])[H])C([H])([H])[H])C(C([H])([H])[H])(C([H])([H])[H])C([H])([H])[H])C([H])([H])c2c([H])c(OC([H])([H])C(=O)C([H])([H])N([H])c3sc(N([H])C(=O)N4C([H])([H])C([H])([H])C([H])([H])C([H])(n5nc(-c6c([H])c([H])c(Oc7c([H])c([H])c(F)c([H])c7F)c([H])c6[H])c(C(=O)N([H])[H])c5N([H])[H])C4([H])[H])nc3N([H])[H])c([H])c([H])c2C1([H])[H]

$$$$
34:0:0
     RDKit          3D

 99107  0  0  1  0  0  0  0  0999 V2000
  -31.4210  -17.4370   19.8380 C   0  0  0  0  0  3  0  0  0  0  0  0
  -30.6700  -19.7580   19.8870 C   0  0  0  0  0  3  0  0  0  0  0  0
  -29.2590  -17.9880   20.7970 C   0  0  0  0  0  3  0  0  0  0  0  0
  -31.6420  -18.7980   19.5540 C   0  0  0  0  0  0  0  0  0  0  0  0
  -30.2270  -16.9960   20.4690 C   0  0  0  0  0  0  0  0  0  0  0  0
  -29.4610  -19.3680   20.4980 C   0  0  0  0  0  0  0  0  0  0  0  0
  -30.6630  -14.5010   20.4130 C   0  0  0  0  0  0  0  0  0  0  0  0
  -30.3340  -12.3290   19.3120 C   0  0  0  0  0  2  0  0  0  0  0  0
  -29.4100  -12.5390   18.0950 C   0  0  0  0  0  2  0  0  0  0  0  0
  -27.9320  -12.4200   18.5140 C   0  0  0  0  0  2  0  0  0  0  0  0
  -27.5910  -13.2670   19.7710 C   0  0  0  0  0  3  0  0  0  0  0  0
  -28.6390  -13.0630   20.8890 C   0  0  0  0  0  2  0  0  0  0  0  0
  -29.9670  -13.3360   20.3200 N   0  0  0  0  0  0  0  0  0  0  0  0
  -31.8370  -14.5720   20.0450 O   0  0  0  0  0  0  0  0  0  0  0  0
  -29.9480  -15.6020   20.7530 N   0  0  0  0  0  0  0  0  0  0  0  0
  -29.0250  -15.4010   21.1050 H   0  0  0  0  0  0  0  0  0  0  0  0
  -25.1910  -13.8830   20.4560 C   0  0  0  0  0  0  0  0  0  0  0  0
  -24.1180  -13.1160   20.8240 C   0  0  0  0  0  0  0  0  0  0  0  0
  -24.5760  -11.7630   20.8120 C   0  0  0  0  0  0  0  0  0  0  0  0
  -26.2350  -12.9980   20.2440 N   0  0  0  0  0  0  0  0  0  0  0  0
  -25.8700  -11.7180   20.5180 N   0  0  0  0  0  0  0  0  0  0  0  0
  -23.8450  -10.5040   21.0060 C   0  0  0  0  0  0  0  0  0  0  0  0
  -24.2680   -9.5440   21.9520 C   0  0  0  0  0  3  0  0  0  0  0  0
  -23.5380   -8.3500   22.1340 C   0  0  0  0  0  3  0  0  0  0  0  0
  -22.3700   -8.1080   21.3720 C   0  0  0  0  0  0  0  0  0  0  0  0
  -21.9670   -9.0570   20.4150 C   0  0  0  0  0  3  0  0  0  0  0  0
  -22.6980  -10.2430   20.2310 C   0  0  0  0  0  3  0  0  0  0  0  0
  -21.6130   -6.9650   21.4620 O   0  0  0  0  0  0  0  0  0  0  0  0
  -21.5530   -6.2320   22.6200 C   0  0  0  0  0  0  0  0  0  0  0  0
  -21.1220   -6.7980   23.8390 C   0  0  0  0  0  3  0  0  0  0  0  0
  -21.0100   -5.9910   24.9900 C   0  0  0  0  0  3  0  0  0  0  0  0
  -21.3180   -4.6200   24.9200 C   0  0  0  0  0  0  0  0  0  0  0  0
  -21.7420   -4.0520   23.7050 C   0  0  0  0  0  3  0  0  0  0  0  0
  -21.8550   -4.8570   22.5580 C   0  0  0  0  0  0  0  0  0  0  0  0
  -22.2440   -4.3010   21.3840 F   0  0  0  0  0  0  0  0  0  0  0  0
  -21.2030   -3.8420   26.0220 F   0  0  0  0  0  0  0  0  0  0  0  0
  -22.7190  -13.6000   21.0760 C   0  0  0  0  0  0  0  0  0  0  0  0
  -21.9790  -12.9120   21.9400 N   0  0  0  0  0  0  0  0  0  0  0  0
  -22.2900  -14.6220   20.5430 O   0  0  0  0  0  0  0  0  0  0  0  0
  -22.3380  -12.0850   22.3930 H   0  0  0  0  0  0  0  0  0  0  0  0
  -21.0400  -13.2180   22.1520 H   0  0  0  0  0  0  0  0  0  0  0  0
  -25.3600  -15.2510   20.2620 N   0  0  0  0  0  0  0  0  0  0  0  0
  -24.5890  -15.9040   20.3420 H   0  0  0  0  0  0  0  0  0  0  0  0
  -26.2000  -15.6760   19.8920 H   0  0  0  0  0  0  0  0  0  0  0  0
  -32.8810  -19.2180   18.9070 C   0  0  0  0  0  0  0  0  0  0  0  0
  -33.3490  -18.5580   17.8500 N   0  0  0  0  0  4  0  0  0  0  0  0
  -33.5580  -20.2700   19.3610 N   0  0  0  0  0  0  0  0  0  0  0  0
  -32.8150  -17.7860   17.4760 H   0  0  0  0  0  0  0  0  0  0  0  0
  -34.1920  -18.8240   17.3660 H   0  0  0  0  0  0  0  0  0  0  0  0
  -33.2520  -20.7200   20.2110 H   0  0  0  0  0  0  0  0  0  0  0  0
  -34.4090  -20.5950   18.9300 H   0  0  0  0  0  0  0  0  0  0  0  0
  -28.4820  -20.3350   20.8150 N   0  0  0  0  0  0  0  0  0  0  0  0
  -27.6920  -20.0680   21.3970 H   0  0  0  0  0  0  0  0  0  0  0  0
  -28.3190  -21.5710   20.0200 C   0  0  0  0  0  2  0  0  0  0  0  0
  -28.4030  -22.8910   20.8210 C   0  0  0  0  0  0  0  0  0  0  0  0
  -28.5070  -22.8760   22.0530 O   0  0  0  0  0  0  0  0  0  0  0  0
  -28.3470  -24.2150   20.0260 C   0  0  0  0  0  2  0  0  0  0  0  0
  -28.3590  -25.4930   20.9050 C   0  0  0  0  0  2  0  0  0  0  0  0
  -28.4100  -26.7190   20.1530 O   0  0  0  0  0  0  0  0  0  0  0  0
  -24.5840  -31.8780   23.2410 C   0  0  0  0  0  0  0  0  0  0  0  0
  -27.2480  -27.4570   20.1550 C   0  0  0  0  0  0  0  0  0  0  0  0
  -23.3890  -30.4830   21.5850 C   0  0  0  0  0  3  0  0  0  0  0  0
  -24.8520  -28.9560   20.1570 C   0  0  0  0  0  0  0  0  0  0  0  0
  -25.9140  -30.8500   21.3990 C   0  0  0  0  0  2  0  0  0  0  0  0
  -26.0060  -29.4830   20.7520 C   0  0  0  0  0  0  0  0  0  0  0  0
  -27.2100  -28.7420   20.7430 C   0  0  0  0  0  3  0  0  0  0  0  0
  -26.0810  -26.9410   19.5570 C   0  0  0  0  0  3  0  0  0  0  0  0
  -24.8830  -27.6850   19.5550 C   0  0  0  0  0  3  0  0  0  0  0  0
  -23.6060  -29.8120   20.2020 C   0  0  0  0  0  2  0  0  0  0  0  0
  -24.6460  -31.0850   22.1330 N   0  0  0  0  0  0  0  0  0  0  0  0
  -23.4990  -32.1450   23.7770 O   0  0  0  0  0  0  0  0  0  0  0  0
  -22.7350  -29.4550   22.5360 C   0  0  0  0  0  0  0  0  0  0  0  0
  -21.4080  -29.2800   22.4070 N   0  0  0  0  0  0  0  0  0  0  0  0
  -23.4160  -28.8190   23.3430 O   0  0  0  0  0  0  0  0  0  0  0  0
  -20.9220  -29.8450   21.7250 H   0  0  0  0  0  0  0  0  0  0  0  0
  -18.0280  -28.1070   22.9010 C   0  0  0  0  0  0  0  0  0  0  0  0
  -20.5880  -28.3380   23.1670 C   0  0  0  0  0  3  0  0  0  0  0  0
  -20.6760  -26.9150   22.5680 C   0  0  0  0  0  2  0  0  0  0  0  0
  -19.5670  -26.6170   21.5530 C   0  0  0  0  0  2  0  0  0  0  0  0
  -18.1890  -26.7650   22.2050 C   0  0  0  0  0  2  0  0  0  0  0  0
  -19.1550  -28.8520   23.3370 C   0  0  0  0  0  0  0  0  0  0  0  0
  -18.9500  -30.1100   23.9460 C   0  0  0  0  0  3  0  0  0  0  0  0
  -17.6510  -30.6220   24.1230 C   0  0  0  0  0  3  0  0  0  0  0  0
  -16.5390  -29.8720   23.7040 C   0  0  0  0  0  3  0  0  0  0  0  0
  -16.7270  -28.6160   23.0980 C   0  0  0  0  0  3  0  0  0  0  0  0
  -25.8660  -32.5070   23.8720 C   0  0  0  0  0  3  0  0  0  0  0  0
  -25.5590  -33.9060   24.1940 N   0  0  0  0  0  0  0  0  0  0  0  0
  -25.9030  -34.9540   23.4330 C   0  0  0  0  0  0  0  0  0  0  0  0
  -26.5820  -34.8440   22.4090 O   0  0  0  0  0  0  0  0  0  0  0  0
  -24.9570  -34.0650   24.9880 H   0  0  0  0  0  0  0  0  0  0  0  0
  -24.1850  -36.7500   23.0500 C   0  0  0  0  0  1  0  0  0  0  0  0
  -25.4140  -36.3460   23.8790 C   0  0  0  0  0  3  0  0  0  0  0  0
  -27.5410  -37.2240   24.7340 C   0  0  0  0  0  1  0  0  0  0  0  0
  -26.4530  -37.3940   23.7750 N   0  0  0  0  0  0  0  0  0  0  0  0
  -26.0480  -38.3160   23.9150 H   0  0  0  0  0  0  0  0  0  0  0  0
  -26.3700  -31.7350   25.1530 C   0  0  1  0  0  0  0  0  0  0  0  0
  -25.2680  -31.5020   26.2120 C   0  0  0  0  0  1  0  0  0  0  0  0
  -26.9530  -30.3570   24.7650 C   0  0  0  0  0  1  0  0  0  0  0  0
  -27.5180  -32.5280   25.8230 C   0  0  0  0  0  1  0  0  0  0  0  0
  1  5  1  0
  2  6  2  0
  4  1  2  0
  4  2  1  0
  5 15  1  0
  5  3  2  0
  6  3  1  0
  6 52  1  0
  7 15  1  0
  8 13  1  0
  9 10  1  0
  9  8  1  0
 11 10  1  0
 11 20  1  0
 11 12  1  0
 13  7  1  0
 13 12  1  0
 14  7  2  0
 15 16  1  0
 17 18  2  0
 18 37  1  0
 19 18  1  0
 19 22  1  0
 20 17  1  0
 20 21  1  0
 21 19  2  0
 22 23  1  0
 23 24  2  0
 25 28  1  0
 25 24  1  0
 26 25  2  0
 27 26  1  0
 27 22  2  0
 28 29  1  0
 29 30  1  0
 30 31  2  0
 32 31  1  0
 32 36  1  0
 33 32  2  0
 34 29  2  0
 34 33  1  0
 35 34  1  0
 37 38  1  0
 38 41  1  0
 38 40  1  0
 39 37  2  0
 42 43  1  0
 42 17  1  0
 44 42  1  0
 45 47  1  0
 45  4  1  0
 46 45  2  0
 47 50  1  0
 48 46  1  0
 49 46  1  0
 51 47  1  0
 52 53  1  0
 54 52  1  0
 54 55  1  0
 55 56  2  0
 57 55  1  0
 57 58  1  0
 59 61  1  0
 59 58  1  0
 60 71  2  0
 61 66  1  0
 62 70  1  0
 62 72  1  0
 63 69  1  0
 63 65  1  0
 64 70  1  0
 65 64  1  0
 66 65  2  0
 67 61  2  0
 68 67  1  0
 68 63  2  0
 69 62  1  0
 70 60  1  0
 72 74  2  0
 73 72  1  0
 75 73  1  0
 76 85  2  0
 76 81  1  0
 77 73  1  0
 77 81  1  0
 78 77  1  0
 79 80  1  0
 79 78  1  0
 80 76  1  0
 81 82  2  0
 82 83  1  0
 84 83  2  0
 85 84  1  0
 86 60  1  0
 86 87  1  0
 86 96  1  0
 87 90  1  0
 88 92  1  0
 88 87  1  0
 89 88  2  0
 92 91  1  0
 94 92  1  0
 94 95  1  0
 94 93  1  0
 96 99  1  1
 96 97  1  0
 98 96  1  0
M  ISO  4   7 100  15 100  58 101  59 101
M  END
>  <TORSDO>  (35) 
F 22

>  <SCORE>  (35) 
-13.422

>  <name>  (35) 
34

>  <ligand_id>  (35) 
34

>  <original_smiles>  (35) 
[H]c1c([H])c([H])c2c(c1[H])C([H])([H])C([H])([H])C([H])([H])C2([H])N([H])C(=O)C1([H])N(C(=O)C([H])(N([H])C(=O)C([H])(N([H])C([H])([H])[H])C([H])([H])[H])C(C([H])([H])[H])(C([H])([H])[H])C([H])([H])[H])C([H])([H])c2c([H])c(OC([H])([H])C([H])([H])C(=O)C([H])([H])N([H])c3c([H])c(C(N([H])[H])=[N+]([H])[H])c([H])c(N([H])C(=O)N4C([H])([H])C([H])([H])C([H])([H])C([H])(n5nc(-c6c([H])c([H])c(Oc7c([H])c([H])c(F)c([H])c7F)c([H])c6[H])c(C(=O)N([H])[H])c5N([H])[H])C4([H])[H])c3[H])c([H])c([H])c2C1([H])[H]

>  <smiles>  (35) 
[H]c1c([H])c([H])c2c(c1[H])C([H])([H])C([H])([H])C([H])([H])C2([H])N([H])C(=O)C1([H])N(C(=O)C([H])(N([H])C(=O)C([H])(N([H])C([H])([H])[H])C([H])([H])[H])C(C([H])([H])[H])(C([H])([H])[H])C([H])([H])[H])C([H])([H])c2c([H])c(OC([H])([H])C([H])([H])C(=O)C([H])([H])N([H])c3c([H])c(C(N([H])[H])=[N+]([H])[H])c([H])c(N([H])C(=O)N4C([H])([H])C([H])([H])C([H])([H])C([H])(n5nc(-c6c([H])c([H])c(Oc7c([H])c([H])c(F)c([H])c7F)c([H])c6[H])c(C(=O)N([H])[H])c5N([H])[H])C4([H])[H])c3[H])c([H])c([H])c2C1([H])[H]

$$$$
35:0:0
     RDKit          3D

 91 93  0  0  1  0  0  0  0  0999 V2000
  -28.4990  -26.8640   22.7450 C   0  0  0  0  0  0  0  0  0  0  0  0
  -27.2410  -26.3950   22.5810 N   0  0  0  0  0  0  0  0  0  0  0  0
  -28.7980  -27.5190   23.7460 O   0  0  0  0  0  0  0  0  0  0  0  0
  -26.5250  -26.6500   23.2470 H   0  0  0  0  0  0  0  0  0  0  0  0
  -26.9710  -23.6590   21.5350 C   0  0  0  0  0  1  0  0  0  0  0  0
  -26.5550  -26.1650   18.9280 C   0  0  0  0  0  2  0  0  0  0  0  0
  -26.8550  -25.6870   21.3900 C   0  0  0  0  0  1  0  0  0  0  0  0
  -27.2180  -22.3100   20.4260 C   0  0  0  0  0  1  0  0  0  0  0  0
  -26.4140  -23.5050   18.4790 S   0  0  0  0  0 15  0  0  0  0  0  0
  -29.5650  -16.6570   20.8180 C   0  0  0  0  0  2  0  0  0  0  0  0
  -30.4700  -13.8100   20.2710 C   0  0  0  0  0  2  0  0  0  0  0  0
  -30.0250  -12.6940   19.2070 C   0  0  0  0  0  2  0  0  0  0  0  0
  -28.7320  -11.9770   19.5920 C   0  0  0  0  0  2  0  0  0  0  0  0
  -27.8730  -13.0110   20.3230 C   0  0  0  0  0  3  0  0  0  0  0  0
  -28.5770  -13.9080   21.4080 C   0  0  0  0  0  2  0  0  0  0  0  0
  -29.4280  -15.0050   20.7270 N   0  0  0  0  0  0  0  0  0  0  0  0
  -30.8420  -16.4750   20.9630 O   0  0  0  0  0  1  0  0  0  0  0  0
  -28.3170  -20.2080   20.6210 C   0  0  0  0  0  2  0  0  0  0  0  0
  -28.5830  -18.3080   20.6380 N   0  0  0  0  0  2  0  0  0  0  0  0
  -29.4490  -20.6090   20.9120 O   0  0  0  0  0  1  0  0  0  0  0  0
  -27.6540  -17.9770   20.4190 H   0  0  0  0  0  0  0  0  0  0  0  0
  -25.4580  -13.3680   20.7820 C   0  0  0  0  0  0  0  0  0  0  0  0
  -24.4040  -12.5510   21.0430 C   0  0  0  0  0  0  0  0  0  0  0  0
  -24.9330  -11.2240   21.1190 C   0  0  0  0  0  0  0  0  0  0  0  0
  -26.5610  -12.5490   20.7160 N   0  0  0  0  0  0  0  0  0  0  0  0
  -26.2600  -11.2440   20.9690 N   0  0  0  0  0  0  0  0  0  0  0  0
  -24.2250   -9.9430   21.2570 C   0  0  0  0  0  0  0  0  0  0  0  0
  -24.5350   -9.0280   22.2880 C   0  0  0  0  0  3  0  0  0  0  0  0
  -23.8110   -7.8230   22.4190 C   0  0  0  0  0  3  0  0  0  0  0  0
  -22.7600   -7.5240   21.5190 C   0  0  0  0  0  0  0  0  0  0  0  0
  -22.4700   -8.4260   20.4810 C   0  0  0  0  0  3  0  0  0  0  0  0
  -23.1960   -9.6220   20.3490 C   0  0  0  0  0  3  0  0  0  0  0  0
  -22.0210   -6.3660   21.5530 O   0  0  0  0  0  0  0  0  0  0  0  0
  -21.7910   -5.6920   22.7260 C   0  0  0  0  0  0  0  0  0  0  0  0
  -21.1460   -6.3030   23.8240 C   0  0  0  0  0  3  0  0  0  0  0  0
  -20.8690   -5.5530   24.9840 C   0  0  0  0  0  3  0  0  0  0  0  0
  -21.2270   -4.1940   25.0460 C   0  0  0  0  0  0  0  0  0  0  0  0
  -21.8640   -3.5820   23.9520 C   0  0  0  0  0  3  0  0  0  0  0  0
  -22.1430   -4.3290   22.7950 C   0  0  0  0  0  0  0  0  0  0  0  0
  -22.7390   -3.7300   21.7360 F   0  0  0  0  0  0  0  0  0  0  0  0
  -20.9540   -3.4710   26.1570 F   0  0  0  0  0  0  0  0  0  0  0  0
  -22.9730  -12.9870   21.1050 C   0  0  0  0  0  0  0  0  0  0  0  0
  -22.1630  -12.3040   21.9030 N   0  0  0  0  0  0  0  0  0  0  0  0
  -22.5830  -13.9750   20.4840 O   0  0  0  0  0  0  0  0  0  0  0  0
  -22.4950  -11.5090   22.4280 H   0  0  0  0  0  0  0  0  0  0  0  0
  -21.1950  -12.5800   21.9950 H   0  0  0  0  0  0  0  0  0  0  0  0
  -25.5760  -14.7390   20.5550 N   0  0  0  0  0  0  0  0  0  0  0  0
  -24.7720  -15.3570   20.5290 H   0  0  0  0  0  0  0  0  0  0  0  0
  -26.4430  -15.1910   20.3020 H   0  0  0  0  0  0  0  0  0  0  0  0
  -29.5800  -26.6090   21.6310 C   0  0  0  0  0  2  0  0  0  0  0  0
  -29.5560  -27.5130   20.4830 O   0  0  0  0  0  0  0  0  0  0  0  0
  -24.8520  -32.1380   23.6290 C   0  0  0  0  0  0  0  0  0  0  0  0
  -28.3750  -27.6610   19.9500 C   0  0  0  0  0  3  0  0  0  0  0  0
  -23.6160  -30.6570   21.9240 C   0  0  0  0  0  3  0  0  0  0  0  0
  -24.8210  -28.2570   20.7570 C   0  0  0  0  0  3  0  0  0  0  0  0
  -26.0350  -30.8010   21.6670 C   0  0  0  0  0  2  0  0  0  0  0  0
  -26.1050  -29.2970   20.9670 C   0  0  0  0  0  0  0  0  0  0  0  0
  -27.6190  -29.0030   20.5490 C   0  0  0  0  0  3  0  0  0  0  0  0
  -27.6320  -26.1540   19.5170 C   0  0  0  0  0  3  0  0  0  0  0  0
  -24.9750  -26.4000   20.1260 C   0  0  0  0  0  1  0  0  0  0  0  0
  -23.7290  -29.4980   20.7470 C   0  0  0  0  0  2  0  0  0  0  0  0
  -24.8700  -31.2700   22.4950 N   0  0  0  0  0  0  0  0  0  0  0  0
  -23.7820  -32.4830   24.1660 O   0  0  0  0  0  0  0  0  0  0  0  0
  -22.8210  -29.9570   22.9930 C   0  0  0  0  0  0  0  0  0  0  0  0
  -21.5150  -29.8130   22.7610 N   0  0  0  0  0  0  0  0  0  0  0  0
  -23.4240  -29.4240   23.9220 O   0  0  0  0  0  0  0  0  0  0  0  0
  -21.1010  -30.2910   21.9740 H   0  0  0  0  0  0  0  0  0  0  0  0
  -18.2130  -28.4020   22.9200 C   0  0  0  0  0  0  0  0  0  0  0  0
  -20.7010  -28.8120   23.4290 C   0  0  0  0  0  3  0  0  0  0  0  0
  -20.9570  -27.4150   22.8130 C   0  0  0  0  0  2  0  0  0  0  0  0
  -19.9790  -27.0690   21.6890 C   0  0  0  0  0  2  0  0  0  0  0  0
  -18.5400  -27.0960   22.2150 C   0  0  0  0  0  2  0  0  0  0  0  0
  -19.2330  -29.2230   23.4660 C   0  0  0  0  0  0  0  0  0  0  0  0
  -18.8870  -30.4500   24.0710 C   0  0  0  0  0  3  0  0  0  0  0  0
  -17.5420  -30.8560   24.1450 C   0  0  0  0  0  3  0  0  0  0  0  0
  -16.5300  -30.0280   23.6270 C   0  0  0  0  0  3  0  0  0  0  0  0
  -16.8660  -28.8050   23.0180 C   0  0  0  0  0  3  0  0  0  0  0  0
  -26.1240  -32.7420   24.3710 C   0  0  0  0  0  3  0  0  0  0  0  0
  -25.9050  -34.1800   24.7180 N   0  0  0  0  0  0  0  0  0  0  0  0
  -26.4340  -35.2470   24.0950 C   0  0  0  0  0  0  0  0  0  0  0  0
  -27.1850  -35.1280   23.1260 O   0  0  0  0  0  0  0  0  0  0  0  0
  -25.2450  -34.3520   25.4630 H   0  0  0  0  0  0  0  0  0  0  0  0
  -24.9090  -37.2370   23.7650 C   0  0  0  0  0  1  0  0  0  0  0  0
  -26.0700  -36.6690   24.5980 C   0  0  0  0  0  3  0  0  0  0  0  0
  -28.2370  -37.3520   25.5490 C   0  0  0  0  0  1  0  0  0  0  0  0
  -27.1980  -37.6310   24.5610 N   0  0  0  0  0  0  0  0  0  0  0  0
  -26.8680  -38.5800   24.7080 H   0  0  0  0  0  0  0  0  0  0  0  0
  -26.4960  -31.9880   25.7210 C   0  0  1  0  0  0  0  0  0  0  0  0
  -25.3220  -31.8790   26.7280 C   0  0  0  0  0  1  0  0  0  0  0  0
  -26.9790  -30.5620   25.3980 C   0  0  0  0  0  1  0  0  0  0  0  0
  -27.6660  -32.6960   26.4580 C   0  0  0  0  0  1  0  0  0  0  0  0
  1  3  2  0
  2  1  1  0
  2  4  1  0
  6 59  2  0
  7  2  1  0
  8  5  1  0
 10 17  1  0
 11 16  1  0
 12 13  1  0
 12 11  1  0
 14 13  1  0
 14 25  1  0
 14 15  1  0
 16 10  1  0
 16 15  1  0
 18 19  1  0
 18 20  1  0
 21 19  1  0
 22 23  2  0
 23 42  1  0
 23 24  1  0
 24 27  1  0
 25 22  1  0
 25 26  1  0
 26 24  2  0
 27 28  1  0
 28 29  2  0
 30 33  1  0
 30 29  1  0
 31 30  2  0
 32 31  1  0
 32 27  2  0
 33 34  1  0
 34 39  2  0
 34 35  1  0
 35 36  2  0
 36 37  1  0
 37 41  1  0
 38 37  2  0
 39 38  1  0
 40 39  1  0
 42 43  1  0
 43 46  1  0
 43 45  1  0
 44 42  2  0
 47 22  1  0
 48 47  1  0
 49 47  1  0
 50  1  1  0
 51 50  1  0
 52 63  2  0
 53 59  1  0
 53 51  1  0
 53 58  1  0
 54 62  1  0
 54 64  1  0
 55 60  1  0
 55 57  1  0
 56 62  1  0
 57 56  1  0
 58 57  2  0
 61 55  1  0
 61 54  1  0
 62 52  1  0
 64 66  2  0
 65 64  1  0
 67 65  1  0
 68 77  2  0
 68 73  1  0
 69 65  1  0
 69 73  1  0
 70 69  1  0
 71 72  1  0
 71 70  1  0
 72 68  1  0
 73 74  2  0
 74 75  1  0
 76 75  2  0
 77 76  1  0
 78 52  1  0
 78 79  1  0
 78 88  1  0
 79 82  1  0
 80 84  1  0
 80 79  1  0
 81 80  2  0
 84 83  1  0
 86 84  1  0
 86 87  1  0
 86 85  1  0
 88 91  1  1
 88 89  1  0
 90 88  1  0
M  ISO  4  10 100  19 100  50 101  51 101
M  END
>  <TORSDO>  (36) 
F 18

>  <SCORE>  (36) 
-12.038

>  <name>  (36) 
35

>  <ligand_id>  (36) 
35

>  <original_smiles>  (36) 
[H]c1sc(C(=O)N([H])C(=O)N2C([H])([H])C([H])([H])C([H])([H])C([H])(n3nc(-c4c([H])c([H])c(Oc5c([H])c([H])c(F)c([H])c5F)c([H])c4[H])c(C(=O)N([H])[H])c3N([H])[H])C2([H])[H])c([H])c1N([H])C(=O)C([H])([H])Oc1c([H])c([H])c2c(c1[H])C([H])([H])N(C(=O)C([H])(N([H])C(=O)C([H])(N([H])C([H])([H])[H])C([H])([H])[H])C(C([H])([H])[H])(C([H])([H])[H])C([H])([H])[H])C([H])(C(=O)N([H])C1([H])c3c([H])c([H])c([H])c([H])c3C([H])([H])C([H])([H])C1([H])[H])C2([H])[H]

>  <smiles>  (36) 
[H]c1sc(C(=O)N([H])C(=O)N2C([H])([H])C([H])([H])C([H])([H])C([H])(n3nc(-c4c([H])c([H])c(Oc5c([H])c([H])c(F)c([H])c5F)c([H])c4[H])c(C(=O)N([H])[H])c3N([H])[H])C2([H])[H])c([H])c1N([H])C(=O)C([H])([H])Oc1c([H])c([H])c2c(c1[H])C([H])([H])N(C(=O)C([H])(N([H])C(=O)C([H])(N([H])C([H])([H])[H])C([H])([H])[H])C(C([H])([H])[H])(C([H])([H])[H])C([H])([H])[H])C([H])(C(=O)N([H])C1([H])c3c([H])c([H])c([H])c([H])c3C([H])([H])C([H])([H])C1([H])[H])C2([H])[H]

$$$$
36:0:0
     RDKit          3D

100108  0  0  1  0  0  0  0  0999 V2000
  -30.9850  -20.2730   20.4240 C   0  0  0  0  0  3  0  0  0  0  0  0
  -31.4620  -17.8630   20.5740 C   0  0  0  0  0  3  0  0  0  0  0  0
  -29.1760  -18.6420   20.3070 C   0  0  0  0  0  3  0  0  0  0  0  0
  -31.8910  -19.2040   20.5620 C   0  0  0  0  0  0  0  0  0  0  0  0
  -29.5970  -20.0570   20.2890 C   0  0  0  0  0  0  0  0  0  0  0  0
  -30.1030  -17.4960   20.4300 C   0  0  0  0  0  0  0  0  0  0  0  0
  -30.5360  -14.8550   20.3220 C   0  0  0  0  0  0  0  0  0  0  0  0
  -30.3690  -12.5570   19.3370 C   0  0  0  0  0  2  0  0  0  0  0  0
  -29.4260  -12.5980   18.1160 C   0  0  0  0  0  2  0  0  0  0  0  0
  -27.9610  -12.4130   18.5540 C   0  0  0  0  0  2  0  0  0  0  0  0
  -27.5870  -13.2920   19.7790 C   0  0  0  0  0  3  0  0  0  0  0  0
  -28.6550  -13.2290   20.8910 C   0  0  0  0  0  2  0  0  0  0  0  0
  -29.9250  -13.6190   20.2730 N   0  0  0  0  0  0  0  0  0  0  0  0
  -31.7350  -14.9090   20.0290 O   0  0  0  0  0  0  0  0  0  0  0  0
  -29.7530  -16.0230   20.4660 N   0  0  0  0  0  0  0  0  0  0  0  0
  -28.7720  -15.8310   20.5930 H   0  0  0  0  0  0  0  0  0  0  0  0
  -25.2120  -13.8590   20.5430 C   0  0  0  0  0  0  0  0  0  0  0  0
  -24.1560  -13.0780   20.9210 C   0  0  0  0  0  0  0  0  0  0  0  0
  -24.6270  -11.7290   20.8750 C   0  0  0  0  0  0  0  0  0  0  0  0
  -26.2550  -12.9870   20.2880 N   0  0  0  0  0  0  0  0  0  0  0  0
  -25.9140  -11.7000   20.5550 N   0  0  0  0  0  0  0  0  0  0  0  0
  -23.9080  -10.4620   21.0610 C   0  0  0  0  0  0  0  0  0  0  0  0
  -24.3560   -9.4890   21.9830 C   0  0  0  0  0  3  0  0  0  0  0  0
  -23.6380   -8.2860   22.1560 C   0  0  0  0  0  3  0  0  0  0  0  0
  -22.4590   -8.0490   21.4100 C   0  0  0  0  0  0  0  0  0  0  0  0
  -22.0320   -9.0100   20.4780 C   0  0  0  0  0  3  0  0  0  0  0  0
  -22.7500  -10.2040   20.3020 C   0  0  0  0  0  3  0  0  0  0  0  0
  -21.7090   -6.9000   21.4980 O   0  0  0  0  0  0  0  0  0  0  0  0
  -21.6750   -6.1490   22.6440 C   0  0  0  0  0  0  0  0  0  0  0  0
  -21.2490   -6.6880   23.8780 C   0  0  0  0  0  3  0  0  0  0  0  0
  -21.1630   -5.8610   25.0160 C   0  0  0  0  0  3  0  0  0  0  0  0
  -21.4920   -4.4960   24.9220 C   0  0  0  0  0  0  0  0  0  0  0  0
  -21.9090   -3.9560   23.6920 C   0  0  0  0  0  3  0  0  0  0  0  0
  -21.9980   -4.7800   22.5570 C   0  0  0  0  0  0  0  0  0  0  0  0
  -22.3810   -4.2490   21.3700 F   0  0  0  0  0  0  0  0  0  0  0  0
  -21.4010   -3.6990   26.0120 F   0  0  0  0  0  0  0  0  0  0  0  0
  -22.7590  -13.5450   21.2020 C   0  0  0  0  0  0  0  0  0  0  0  0
  -22.0400  -12.8370   22.0650 N   0  0  0  0  0  0  0  0  0  0  0  0
  -22.3140  -14.5740   20.6950 O   0  0  0  0  0  0  0  0  0  0  0  0
  -22.4140  -12.0030   22.4950 H   0  0  0  0  0  0  0  0  0  0  0  0
  -21.1020  -13.1290   22.2980 H   0  0  0  0  0  0  0  0  0  0  0  0
  -25.3670  -15.2330   20.3710 N   0  0  0  0  0  0  0  0  0  0  0  0
  -24.5850  -15.8730   20.4610 H   0  0  0  0  0  0  0  0  0  0  0  0
  -26.1870  -15.6680   19.9660 H   0  0  0  0  0  0  0  0  0  0  0  0
  -33.3110  -19.4950   20.6750 C   0  0  0  0  0  0  0  0  0  0  0  0
  -33.7590  -20.2930   21.6360 N   0  0  0  0  0  0  0  0  0  0  0  0
  -34.1590  -18.9720   19.7900 N   0  0  0  0  0  4  0  0  0  0  0  0
  -33.1390  -20.5210   22.4040 H   0  0  0  0  0  0  0  0  0  0  0  0
  -34.7240  -20.5680   21.7210 H   0  0  0  0  0  0  0  0  0  0  0  0
  -33.7890  -18.3670   19.0710 H   0  0  0  0  0  0  0  0  0  0  0  0
  -35.1190  -19.2710   19.7040 H   0  0  0  0  0  0  0  0  0  0  0  0
  -28.9900  -22.5420   19.6790 C   0  0  0  0  0  0  0  0  0  0  0  0
  -28.7540  -21.3050   20.2920 N   0  0  0  0  0  0  0  0  0  0  0  0
  -29.5980  -22.5570   18.6040 O   0  0  0  0  0  0  0  0  0  0  0  0
  -27.9440  -21.2730   20.8940 H   0  0  0  0  0  0  0  0  0  0  0  0
  -28.4290  -25.0780   19.7190 C   0  0  0  0  0  3  0  0  0  0  0  0
  -28.5420  -23.8370   20.3550 C   0  0  0  0  0  0  0  0  0  0  0  0
  -28.3260  -23.7830   21.6780 O   0  0  0  0  0  0  0  0  0  0  0  0
  -28.5440  -22.9030   21.9570 H   0  0  0  0  0  0  0  0  0  0  0  0
  -28.3000  -26.3830   20.3100 O   0  0  0  0  0  0  0  0  0  0  0  0
  -24.5970  -31.8880   23.2510 C   0  0  0  0  0  0  0  0  0  0  0  0
  -27.2050  -27.2760   20.1860 C   0  0  0  0  0  0  0  0  0  0  0  0
  -23.3940  -30.4900   21.6080 C   0  0  0  0  0  3  0  0  0  0  0  0
  -24.8450  -28.9260   20.1820 C   0  0  0  0  0  0  0  0  0  0  0  0
  -25.9380  -30.7940   21.4310 C   0  0  0  0  0  2  0  0  0  0  0  0
  -26.0180  -29.4110   20.7760 C   0  0  0  0  0  0  0  0  0  0  0  0
  -27.1980  -28.5990   20.7630 C   0  0  0  0  0  3  0  0  0  0  0  0
  -26.0100  -26.8620   19.5630 C   0  0  0  0  0  3  0  0  0  0  0  0
  -24.8490  -27.6630   19.5640 C   0  0  0  0  0  3  0  0  0  0  0  0
  -23.6110  -29.8060   20.2310 C   0  0  0  0  0  2  0  0  0  0  0  0
  -24.6610  -31.0780   22.1510 N   0  0  0  0  0  0  0  0  0  0  0  0
  -23.5130  -32.1640   23.7850 O   0  0  0  0  0  0  0  0  0  0  0  0
  -22.7230  -29.4820   22.5730 C   0  0  0  0  0  0  0  0  0  0  0  0
  -21.3970  -29.3020   22.4400 N   0  0  0  0  0  0  0  0  0  0  0  0
  -23.3960  -28.8580   23.3980 O   0  0  0  0  0  0  0  0  0  0  0  0
  -20.9120  -29.8570   21.7490 H   0  0  0  0  0  0  0  0  0  0  0  0
  -18.0150  -28.0980   22.9210 C   0  0  0  0  0  0  0  0  0  0  0  0
  -20.5710  -28.3680   23.2070 C   0  0  0  0  0  3  0  0  0  0  0  0
  -20.6800  -26.9350   22.6350 C   0  0  0  0  0  2  0  0  0  0  0  0
  -19.5830  -26.6060   21.6150 C   0  0  0  0  0  2  0  0  0  0  0  0
  -18.2000  -26.7480   22.2490 C   0  0  0  0  0  2  0  0  0  0  0  0
  -19.1280  -28.8660   23.3550 C   0  0  0  0  0  0  0  0  0  0  0  0
  -18.9000  -30.1310   23.9400 C   0  0  0  0  0  3  0  0  0  0  0  0
  -17.5910  -30.6250   24.0980 C   0  0  0  0  0  3  0  0  0  0  0  0
  -16.4930  -29.8540   23.6770 C   0  0  0  0  0  3  0  0  0  0  0  0
  -16.7060  -28.5920   23.0940 C   0  0  0  0  0  3  0  0  0  0  0  0
  -25.8770  -32.5200   23.8820 C   0  0  0  0  0  3  0  0  0  0  0  0
  -26.3780  -31.7550   25.1690 C   0  0  1  0  0  0  0  0  0  0  0  0
  -25.2760  -31.5370   26.2310 C   0  0  0  0  0  1  0  0  0  0  0  0
  -26.9540  -30.3690   24.7940 C   0  0  0  0  0  1  0  0  0  0  0  0
  -27.5320  -32.5450   25.8300 C   0  0  0  0  0  1  0  0  0  0  0  0
  -25.5700  -33.9210   24.2040 N   0  0  0  0  0  0  0  0  0  0  0  0
  -25.9000  -34.9690   23.4370 C   0  0  0  0  0  0  0  0  0  0  0  0
  -26.5650  -34.8590   22.4050 O   0  0  0  0  0  0  0  0  0  0  0  0
  -24.9860  -34.0790   25.0110 H   0  0  0  0  0  0  0  0  0  0  0  0
  -24.1720  -36.7620   23.0920 C   0  0  0  0  0  1  0  0  0  0  0  0
  -25.4220  -36.3620   23.8940 C   0  0  0  0  0  3  0  0  0  0  0  0
  -27.5650  -37.2490   24.7010 C   0  0  0  0  0  1  0  0  0  0  0  0
  -26.4550  -37.4140   23.7670 N   0  0  0  0  0  0  0  0  0  0  0  0
  -26.0490  -38.3350   23.9060 H   0  0  0  0  0  0  0  0  0  0  0  0
  1  4  1  0
  3  6  2  0
  4  2  2  0
  4 45  1  0
  5 53  1  0
  5  3  1  0
  5  1  2  0
  6 15  1  0
  6  2  1  0
  7 15  1  0
  8 13  1  0
  9 10  1  0
  9  8  1  0
 11 10  1  0
 11 20  1  0
 11 12  1  0
 13  7  1  0
 13 12  1  0
 14  7  2  0
 15 16  1  0
 17 18  2  0
 18 37  1  0
 19 18  1  0
 19 22  1  0
 20 17  1  0
 20 21  1  0
 21 19  2  0
 22 23  1  0
 23 24  2  0
 25 28  1  0
 25 24  1  0
 26 25  2  0
 27 26  1  0
 27 22  2  0
 28 29  1  0
 29 30  1  0
 30 31  2  0
 32 31  1  0
 32 36  1  0
 33 32  2  0
 34 29  2  0
 34 33  1  0
 35 34  1  0
 37 38  1  0
 38 41  1  0
 38 40  1  0
 39 37  2  0
 42 43  1  0
 42 17  1  0
 44 42  1  0
 45 46  1  0
 46 49  1  0
 46 48  1  0
 47 45  2  0
 50 47  1  0
 51 47  1  0
 52 53  1  0
 52 57  1  0
 53 55  1  0
 54 52  2  0
 56 60  1  0
 56 57  2  0
 57 58  1  0
 58 59  1  0
 61 72  2  0
 62 60  1  0
 62 67  1  0
 63 71  1  0
 63 73  1  0
 64 70  1  0
 64 66  1  0
 65 71  1  0
 66 65  1  0
 67 66  2  0
 68 69  1  0
 68 62  2  0
 69 64  2  0
 70 63  1  0
 71 61  1  0
 73 75  2  0
 74 73  1  0
 76 74  1  0
 77 86  2  0
 77 82  1  0
 78 74  1  0
 78 82  1  0
 79 78  1  0
 80 81  1  0
 80 79  1  0
 81 77  1  0
 82 83  2  0
 83 84  1  0
 85 84  2  0
 86 85  1  0
 87 61  1  0
 87 92  1  0
 87 88  1  0
 88 91  1  1
 88 89  1  0
 90 88  1  0
 92 95  1  0
 93 97  1  0
 93 92  1  0
 94 93  2  0
 97 96  1  0
 99 97  1  0
 99100  1  0
 99 98  1  0
M  ISO  4   7 100  15 100  56 101  60 101
M  END
>  <TORSDO>  (37) 
F 20

>  <SCORE>  (37) 
-14.444

>  <name>  (37) 
36

>  <ligand_id>  (37) 
36

>  <original_smiles>  (37) 
[H]OC(C(=O)N([H])c1c([H])c(C(N([H])[H])=[N+]([H])[H])c([H])c(N([H])C(=O)N2C([H])([H])C([H])([H])C([H])([H])C([H])(n3nc(-c4c([H])c([H])c(Oc5c([H])c([H])c(F)c([H])c5F)c([H])c4[H])c(C(=O)N([H])[H])c3N([H])[H])C2([H])[H])c1[H])=C([H])Oc1c([H])c([H])c2c(c1[H])C([H])([H])N(C(=O)C([H])(N([H])C(=O)C([H])(N([H])C([H])([H])[H])C([H])([H])[H])C(C([H])([H])[H])(C([H])([H])[H])C([H])([H])[H])C([H])(C(=O)N([H])C1([H])c3c([H])c([H])c([H])c([H])c3C([H])([H])C([H])([H])C1([H])[H])C2([H])[H]

>  <smiles>  (37) 
[H]OC(C(=O)N([H])c1c([H])c(C(N([H])[H])=[N+]([H])[H])c([H])c(N([H])C(=O)N2C([H])([H])C([H])([H])C([H])([H])C([H])(n3nc(-c4c([H])c([H])c(Oc5c([H])c([H])c(F)c([H])c5F)c([H])c4[H])c(C(=O)N([H])[H])c3N([H])[H])C2([H])[H])c1[H])=C([H])Oc1c([H])c([H])c2c(c1[H])C([H])([H])N(C(=O)C([H])(N([H])C(=O)C([H])(N([H])C([H])([H])[H])C([H])([H])[H])C(C([H])([H])[H])(C([H])([H])[H])C([H])([H])[H])C([H])(C(=O)N([H])C1([H])c3c([H])c([H])c([H])c([H])c3C([H])([H])C([H])([H])C1([H])[H])C2([H])[H]

$$$$
37:0:0
     RDKit          3D

 93101  0  0  1  0  0  0  0  0999 V2000
  -30.3680  -19.2940   19.4450 C   0  0  0  0  0  3  0  0  0  0  0  0
  -29.9890  -20.6980   19.3740 C   0  0  0  0  0  0  0  0  0  0  0  0
  -30.0320  -18.6340   20.6060 C   0  0  0  0  0  0  0  0  0  0  0  0
  -29.3030  -21.2080   20.4700 C   0  0  0  0  0  0  0  0  0  0  0  0
  -29.1530  -19.8250   21.6080 S   0  0  0  0  0  0  0  0  0  0  0  0
  -28.9590  -23.7680   20.2410 C   0  0  0  0  0  0  0  0  0  0  0  0
  -28.7660  -22.4840   20.7510 N   0  0  0  0  0  0  0  0  0  0  0  0
  -29.7820  -23.9830   19.3480 O   0  0  0  0  0  0  0  0  0  0  0  0
  -28.1090  -22.4690   21.5200 H   0  0  0  0  0  0  0  0  0  0  0  0
  -28.1250  -25.0240   20.8140 C   0  0  0  0  0  2  0  0  0  0  0  0
  -28.3870  -26.4070   20.2620 O   0  0  0  0  0  0  0  0  0  0  0  0
  -24.6400  -31.8820   23.2200 C   0  0  0  0  0  0  0  0  0  0  0  0
  -27.2980  -27.3080   20.2010 C   0  0  0  0  0  0  0  0  0  0  0  0
  -23.4630  -30.4880   21.5590 C   0  0  0  0  0  3  0  0  0  0  0  0
  -24.9380  -28.9490   20.1310 C   0  0  0  0  0  0  0  0  0  0  0  0
  -26.0040  -30.8040   21.4140 C   0  0  0  0  0  2  0  0  0  0  0  0
  -26.0960  -29.4250   20.7630 C   0  0  0  0  0  0  0  0  0  0  0  0
  -27.2800  -28.6180   20.7870 C   0  0  0  0  0  3  0  0  0  0  0  0
  -26.1260  -26.9040   19.5260 C   0  0  0  0  0  3  0  0  0  0  0  0
  -24.9630  -27.6980   19.4920 C   0  0  0  0  0  3  0  0  0  0  0  0
  -23.6960  -29.8210   20.1750 C   0  0  0  0  0  2  0  0  0  0  0  0
  -24.7210  -31.0770   22.1200 N   0  0  0  0  0  0  0  0  0  0  0  0
  -23.5500  -32.1530   23.7440 O   0  0  0  0  0  0  0  0  0  0  0  0
  -22.7940  -29.4640   22.5070 C   0  0  0  0  0  0  0  0  0  0  0  0
  -21.4680  -29.2830   22.3680 N   0  0  0  0  0  0  0  0  0  0  0  0
  -23.4650  -28.8360   23.3300 O   0  0  0  0  0  0  0  0  0  0  0  0
  -20.9840  -29.8410   21.6790 H   0  0  0  0  0  0  0  0  0  0  0  0
  -18.0940  -28.0610   22.8340 C   0  0  0  0  0  0  0  0  0  0  0  0
  -20.6480  -28.3360   23.1270 C   0  0  0  0  0  3  0  0  0  0  0  0
  -20.7640  -26.9080   22.5440 C   0  0  0  0  0  2  0  0  0  0  0  0
  -19.6720  -26.5840   21.5190 C   0  0  0  0  0  2  0  0  0  0  0  0
  -18.2830  -26.7170   22.1530 C   0  0  0  0  0  2  0  0  0  0  0  0
  -19.2040  -28.8280   23.2780 C   0  0  0  0  0  0  0  0  0  0  0  0
  -18.9720  -30.0860   23.8740 C   0  0  0  0  0  3  0  0  0  0  0  0
  -17.6630  -30.5770   24.0340 C   0  0  0  0  0  3  0  0  0  0  0  0
  -16.5670  -29.8080   23.6060 C   0  0  0  0  0  3  0  0  0  0  0  0
  -16.7840  -28.5520   23.0110 C   0  0  0  0  0  3  0  0  0  0  0  0
  -25.9130  -32.5210   23.8590 C   0  0  0  0  0  3  0  0  0  0  0  0
  -26.4110  -31.7560   25.1470 C   0  0  1  0  0  0  0  0  0  0  0  0
  -25.3020  -31.5210   26.2000 C   0  0  0  0  0  1  0  0  0  0  0  0
  -27.0020  -30.3770   24.7710 C   0  0  0  0  0  1  0  0  0  0  0  0
  -27.5510  -32.5550   25.8230 C   0  0  0  0  0  1  0  0  0  0  0  0
  -25.5910  -33.9190   24.1840 N   0  0  0  0  0  0  0  0  0  0  0  0
  -25.9210  -34.9740   23.4280 C   0  0  0  0  0  0  0  0  0  0  0  0
  -26.5960  -34.8740   22.4010 O   0  0  0  0  0  0  0  0  0  0  0  0
  -24.9950  -34.0690   24.9840 H   0  0  0  0  0  0  0  0  0  0  0  0
  -24.1870  -36.7630   23.0640 C   0  0  0  0  0  1  0  0  0  0  0  0
  -25.4260  -36.3610   23.8820 C   0  0  0  0  0  3  0  0  0  0  0  0
  -27.5440  -37.2660   24.7340 C   0  0  0  0  0  1  0  0  0  0  0  0
  -26.4560  -37.4180   23.7710 N   0  0  0  0  0  0  0  0  0  0  0  0
  -26.0460  -38.3390   23.8960 H   0  0  0  0  0  0  0  0  0  0  0  0
  -30.3470  -21.4310   18.2420 N   0  0  0  0  0  0  0  0  0  0  0  0
  -31.1860  -21.1300   17.7570 H   0  0  0  0  0  0  0  0  0  0  0  0
  -30.3400  -22.4420   18.4010 H   0  0  0  0  0  0  0  0  0  0  0  0
  -30.5560  -17.2380   21.1180 C   0  0  0  0  0  2  0  0  0  0  0  0
  -30.7130  -14.7600   20.3310 C   0  0  0  0  0  0  0  0  0  0  0  0
  -30.4710  -12.5160   19.2560 C   0  0  0  0  0  2  0  0  0  0  0  0
  -29.5310  -12.6140   18.0360 C   0  0  0  0  0  2  0  0  0  0  0  0
  -28.0620  -12.4400   18.4690 C   0  0  0  0  0  2  0  0  0  0  0  0
  -27.6940  -13.3130   19.6980 C   0  0  0  0  0  3  0  0  0  0  0  0
  -28.7570  -13.2050   20.8150 C   0  0  0  0  0  2  0  0  0  0  0  0
  -30.0540  -13.5590   20.2200 N   0  0  0  0  0  0  0  0  0  0  0  0
  -31.8920  -14.8500   19.9770 O   0  0  0  0  0  0  0  0  0  0  0  0
  -30.0020  -15.8880   20.6900 N   0  0  0  0  0  0  0  0  0  0  0  0
  -29.0270  -15.7330   20.8930 H   0  0  0  0  0  0  0  0  0  0  0  0
  -25.2950  -13.8880   20.4070 C   0  0  0  0  0  0  0  0  0  0  0  0
  -24.2360  -13.1090   20.7820 C   0  0  0  0  0  0  0  0  0  0  0  0
  -24.7130  -11.7620   20.7720 C   0  0  0  0  0  0  0  0  0  0  0  0
  -26.3500  -13.0180   20.1890 N   0  0  0  0  0  0  0  0  0  0  0  0
  -26.0050  -11.7350   20.4710 N   0  0  0  0  0  0  0  0  0  0  0  0
  -24.0000  -10.4940   20.9740 C   0  0  0  0  0  0  0  0  0  0  0  0
  -24.4350   -9.5440   21.9210 C   0  0  0  0  0  3  0  0  0  0  0  0
  -23.7210   -8.3410   22.1110 C   0  0  0  0  0  3  0  0  0  0  0  0
  -22.5550   -8.0810   21.3530 C   0  0  0  0  0  0  0  0  0  0  0  0
  -22.1380   -9.0220   20.3930 C   0  0  0  0  0  3  0  0  0  0  0  0
  -22.8540  -10.2140   20.2030 C   0  0  0  0  0  3  0  0  0  0  0  0
  -21.8110   -6.9310   21.4520 O   0  0  0  0  0  0  0  0  0  0  0  0
  -21.7610   -6.2030   22.6140 C   0  0  0  0  0  0  0  0  0  0  0  0
  -21.3100   -6.7670   23.8280 C   0  0  0  0  0  3  0  0  0  0  0  0
  -21.2090   -5.9650   24.9810 C   0  0  0  0  0  3  0  0  0  0  0  0
  -21.5480   -4.6000   24.9240 C   0  0  0  0  0  0  0  0  0  0  0  0
  -21.9920   -4.0360   23.7150 C   0  0  0  0  0  3  0  0  0  0  0  0
  -22.0950   -4.8340   22.5620 C   0  0  0  0  0  0  0  0  0  0  0  0
  -22.5020   -4.2800   21.3950 F   0  0  0  0  0  0  0  0  0  0  0  0
  -21.4430   -3.8270   26.0300 F   0  0  0  0  0  0  0  0  0  0  0  0
  -22.8310  -13.5730   21.0410 C   0  0  0  0  0  0  0  0  0  0  0  0
  -22.1040  -12.8800   21.9080 N   0  0  0  0  0  0  0  0  0  0  0  0
  -22.3860  -14.5890   20.5050 O   0  0  0  0  0  0  0  0  0  0  0  0
  -22.4750  -12.0580   22.3620 H   0  0  0  0  0  0  0  0  0  0  0  0
  -21.1620  -13.1740   22.1240 H   0  0  0  0  0  0  0  0  0  0  0  0
  -25.4460  -15.2590   20.2110 N   0  0  0  0  0  0  0  0  0  0  0  0
  -24.6710  -15.9070   20.3050 H   0  0  0  0  0  0  0  0  0  0  0  0
  -26.2880  -15.6990   19.8610 H   0  0  0  0  0  0  0  0  0  0  0  0
  1  3  2  0
  2  1  1  0
  2  4  2  0
  3 55  1  0
  3  5  1  0
  4  7  1  0
  4  5  1  0
  6  7  1  0
  6 10  1  0
  7  9  1  0
  8  6  2  0
 11 10  1  0
 12 23  2  0
 13 11  1  0
 13 18  1  0
 14 22  1  0
 14 24  1  0
 15 21  1  0
 15 17  1  0
 16 22  1  0
 17 18  2  0
 17 16  1  0
 19 13  2  0
 20 19  1  0
 20 15  2  0
 21 14  1  0
 22 12  1  0
 24 26  2  0
 25 24  1  0
 27 25  1  0
 28 37  2  0
 28 33  1  0
 29 25  1  0
 29 33  1  0
 30 29  1  0
 31 32  1  0
 31 30  1  0
 32 28  1  0
 33 34  2  0
 34 35  1  0
 36 35  2  0
 37 36  1  0
 38 12  1  0
 38 43  1  0
 38 39  1  0
 39 42  1  1
 39 40  1  0
 41 39  1  0
 43 46  1  0
 44 48  1  0
 44 43  1  0
 45 44  2  0
 48 47  1  0
 50 48  1  0
 50 51  1  0
 50 49  1  0
 52 54  1  0
 52  2  1  0
 53 52  1  0
 56 64  1  0
 57 62  1  0
 58 59  1  0
 58 57  1  0
 60 59  1  0
 60 69  1  0
 60 61  1  0
 62 56  1  0
 62 61  1  0
 63 56  2  0
 64 65  1  0
 64 55  1  0
 66 67  2  0
 67 86  1  0
 68 67  1  0
 68 71  1  0
 69 66  1  0
 69 70  1  0
 70 68  2  0
 71 72  1  0
 72 73  2  0
 74 77  1  0
 74 73  1  0
 75 74  2  0
 76 75  1  0
 76 71  2  0
 77 78  1  0
 78 79  1  0
 79 80  2  0
 81 80  1  0
 81 85  1  0
 82 81  2  0
 83 78  2  0
 83 82  1  0
 84 83  1  0
 86 87  1  0
 87 90  1  0
 87 89  1  0
 88 86  2  0
 91 92  1  0
 91 66  1  0
 93 91  1  0
M  ISO  4  10 101  11 101  56 100  64 100
M  END
>  <TORSDO>  (38) 
F 20

>  <SCORE>  (38) 
-13.237

>  <name>  (38) 
37

>  <ligand_id>  (38) 
37

>  <original_smiles>  (38) 
[H]c1c([H])c([H])c2c(c1[H])C([H])([H])C([H])([H])C([H])([H])C2([H])N([H])C(=O)C1([H])N(C(=O)C([H])(N([H])C(=O)C([H])(N([H])C([H])([H])[H])C([H])([H])[H])C(C([H])([H])[H])(C([H])([H])[H])C([H])([H])[H])C([H])([H])c2c([H])c(OC([H])([H])C(=O)N([H])c3sc(C([H])([H])N([H])C(=O)N4C([H])([H])C([H])([H])C([H])([H])C([H])(n5nc(-c6c([H])c([H])c(Oc7c([H])c([H])c(F)c([H])c7F)c([H])c6[H])c(C(=O)N([H])[H])c5N([H])[H])C4([H])[H])c([H])c3N([H])[H])c([H])c([H])c2C1([H])[H]

>  <smiles>  (38) 
[H]c1c([H])c([H])c2c(c1[H])C([H])([H])C([H])([H])C([H])([H])C2([H])N([H])C(=O)C1([H])N(C(=O)C([H])(N([H])C(=O)C([H])(N([H])C([H])([H])[H])C([H])([H])[H])C(C([H])([H])[H])(C([H])([H])[H])C([H])([H])[H])C([H])([H])c2c([H])c(OC([H])([H])C(=O)N([H])c3sc(C([H])([H])N([H])C(=O)N4C([H])([H])C([H])([H])C([H])([H])C([H])(n5nc(-c6c([H])c([H])c(Oc7c([H])c([H])c(F)c([H])c7F)c([H])c6[H])c(C(=O)N([H])[H])c5N([H])[H])C4([H])[H])c([H])c3N([H])[H])c([H])c([H])c2C1([H])[H]

$$$$
38:0:0
     RDKit          3D

 96105  0  0  1  0  0  0  0  0999 V2000
  -28.0250  -23.0980   20.9870 C   0  0  0  0  0  2  0  0  0  0  0  0
  -29.9290  -23.9250   19.6390 C   0  0  0  0  0  2  0  0  0  0  0  0
  -28.9380  -22.0830   21.7080 C   0  0  0  0  0  2  0  0  0  0  0  0
  -30.8500  -22.8890   20.3350 C   0  0  0  0  0  2  0  0  0  0  0  0
  -28.7640  -24.3920   20.5380 C   0  0  2  0  0  0  0  0  0  0  0  0
  -30.1340  -21.7130   20.9140 N   0  0  2  0  0  4  0  0  0  0  0  0
  -30.7830  -21.3500   21.5970 H   0  0  0  0  0  0  0  0  0  0  0  0
  -28.4990  -25.5670   22.6780 C   0  0  0  0  0  1  0  0  0  0  0  0
  -29.3600  -25.0660   21.6560 O   0  0  0  0  0  0  0  0  0  0  0  0
  -29.9780  -20.5200   20.0340 C   0  0  0  0  0  2  0  0  0  0  0  0
  -32.1220  -18.1200   22.1440 C   0  0  0  0  0  3  0  0  0  0  0  0
  -31.6030  -19.2900   21.5610 C   0  0  0  0  0  3  0  0  0  0  0  0
  -31.5270  -16.8740   21.8790 C   0  0  0  0  0  3  0  0  0  0  0  0
  -29.8290  -17.9820   20.5140 C   0  0  0  0  0  3  0  0  0  0  0  0
  -30.4580  -19.2380   20.7330 C   0  0  0  0  0  0  0  0  0  0  0  0
  -30.3860  -16.7910   21.0520 C   0  0  0  0  0  0  0  0  0  0  0  0
  -30.4050  -14.5670   20.0080 C   0  0  0  0  0  0  0  0  0  0  0  0
  -30.0360  -12.4580   18.7830 C   0  0  0  0  0  2  0  0  0  0  0  0
  -28.9670  -12.6520   17.6890 C   0  0  0  0  0  2  0  0  0  0  0  0
  -27.5520  -12.4420   18.2590 C   0  0  0  0  0  2  0  0  0  0  0  0
  -27.3140  -13.2210   19.5800 C   0  0  0  0  0  3  0  0  0  0  0  0
  -28.4860  -13.0200   20.5690 C   0  0  0  0  0  2  0  0  0  0  0  0
  -29.7320  -13.3920   19.8790 N   0  0  0  0  0  0  0  0  0  0  0  0
  -31.4430  -14.8070   19.3840 O   0  0  0  0  0  0  0  0  0  0  0  0
  -29.8180  -15.5170   20.7670 N   0  0  0  0  0  0  0  0  0  0  0  0
  -28.8990  -15.3190   21.1320 H   0  0  0  0  0  0  0  0  0  0  0  0
  -24.9910  -13.7020   20.5760 C   0  0  0  0  0  0  0  0  0  0  0  0
  -23.9870  -12.8720   21.0020 C   0  0  0  0  0  0  0  0  0  0  0  0
  -24.4770  -11.5410   20.8340 C   0  0  0  0  0  0  0  0  0  0  0  0
  -26.0280  -12.8710   20.1800 N   0  0  0  0  0  0  0  0  0  0  0  0
  -25.7280  -11.5630   20.3890 N   0  0  0  0  0  0  0  0  0  0  0  0
  -23.8060  -10.2470   21.0150 C   0  0  0  0  0  0  0  0  0  0  0  0
  -24.3010   -9.2780   21.9170 C   0  0  0  0  0  3  0  0  0  0  0  0
  -23.6290   -8.0490   22.0880 C   0  0  0  0  0  3  0  0  0  0  0  0
  -22.4470   -7.7790   21.3570 C   0  0  0  0  0  0  0  0  0  0  0  0
  -21.9710   -8.7380   20.4450 C   0  0  0  0  0  3  0  0  0  0  0  0
  -22.6450   -9.9570   20.2710 C   0  0  0  0  0  3  0  0  0  0  0  0
  -21.7420   -6.6020   21.4380 O   0  0  0  0  0  0  0  0  0  0  0  0
  -21.6970   -5.8690   22.5970 C   0  0  0  0  0  0  0  0  0  0  0  0
  -21.1710   -6.3990   23.7950 C   0  0  0  0  0  3  0  0  0  0  0  0
  -21.0790   -5.5890   24.9430 C   0  0  0  0  0  3  0  0  0  0  0  0
  -21.5050   -4.2470   24.8960 C   0  0  0  0  0  0  0  0  0  0  0  0
  -22.0250   -3.7160   23.7020 C   0  0  0  0  0  3  0  0  0  0  0  0
  -22.1190   -4.5240   22.5550 C   0  0  0  0  0  0  0  0  0  0  0  0
  -22.6010   -4.0010   21.4020 F   0  0  0  0  0  0  0  0  0  0  0  0
  -21.4110   -3.4650   25.9960 F   0  0  0  0  0  0  0  0  0  0  0  0
  -22.6160  -13.2880   21.4520 C   0  0  0  0  0  0  0  0  0  0  0  0
  -22.0040  -12.5170   22.3460 N   0  0  0  0  0  0  0  0  0  0  0  0
  -22.0980  -14.3270   21.0500 O   0  0  0  0  0  0  0  0  0  0  0  0
  -22.4370  -11.6740   22.6940 H   0  0  0  0  0  0  0  0  0  0  0  0
  -21.0910  -12.7760   22.6870 H   0  0  0  0  0  0  0  0  0  0  0  0
  -25.1010  -15.0850   20.4740 N   0  0  0  0  0  0  0  0  0  0  0  0
  -24.3320  -15.7060   20.7020 H   0  0  0  0  0  0  0  0  0  0  0  0
  -25.9000  -15.5710   20.0860 H   0  0  0  0  0  0  0  0  0  0  0  0
  -27.7820  -25.3330   19.7700 C   0  0  0  0  0  2  0  0  0  0  0  0
  -27.9980  -26.7630   19.8720 O   0  0  0  0  0  0  0  0  0  0  0  0
  -24.4940  -31.9930   23.2370 C   0  0  0  0  0  0  0  0  0  0  0  0
  -26.8590  -27.5570   19.8970 C   0  0  0  0  0  0  0  0  0  0  0  0
  -23.1670  -30.6500   21.6450 C   0  0  0  0  0  3  0  0  0  0  0  0
  -24.5040  -29.1300   20.0900 C   0  0  0  0  0  0  0  0  0  0  0  0
  -25.6850  -30.9590   21.3040 C   0  0  0  0  0  2  0  0  0  0  0  0
  -25.7060  -29.6010   20.6330 C   0  0  0  0  0  0  0  0  0  0  0  0
  -26.8850  -28.8190   20.5400 C   0  0  0  0  0  3  0  0  0  0  0  0
  -25.6400  -27.1390   19.3080 C   0  0  0  0  0  3  0  0  0  0  0  0
  -24.4670  -27.8990   19.4240 C   0  0  0  0  0  3  0  0  0  0  0  0
  -23.2820  -30.0110   20.2370 C   0  0  0  0  0  2  0  0  0  0  0  0
  -24.4720  -31.2120   22.1210 N   0  0  0  0  0  0  0  0  0  0  0  0
  -23.4530  -32.2720   23.8460 O   0  0  0  0  0  0  0  0  0  0  0  0
  -22.5590  -29.6120   22.6150 C   0  0  0  0  0  0  0  0  0  0  0  0
  -21.2390  -29.3810   22.5010 N   0  0  0  0  0  0  0  0  0  0  0  0
  -23.2690  -29.0170   23.4300 O   0  0  0  0  0  0  0  0  0  0  0  0
  -20.7200  -29.9180   21.8200 H   0  0  0  0  0  0  0  0  0  0  0  0
  -17.9330  -28.0090   22.9810 C   0  0  0  0  0  0  0  0  0  0  0  0
  -20.4650  -28.4230   23.2880 C   0  0  0  0  0  3  0  0  0  0  0  0
  -20.6610  -26.9820   22.7630 C   0  0  0  0  0  2  0  0  0  0  0  0
  -19.6000  -26.5630   21.7400 C   0  0  0  0  0  2  0  0  0  0  0  0
  -18.1990  -26.6510   22.3540 C   0  0  0  0  0  2  0  0  0  0  0  0
  -18.9970  -28.8480   23.4050 C   0  0  0  0  0  0  0  0  0  0  0  0
  -18.6970  -30.1150   23.9480 C   0  0  0  0  0  3  0  0  0  0  0  0
  -17.3630  -30.5490   24.0700 C   0  0  0  0  0  3  0  0  0  0  0  0
  -16.3120  -29.7100   23.6590 C   0  0  0  0  0  3  0  0  0  0  0  0
  -16.5970  -28.4420   23.1230 C   0  0  0  0  0  3  0  0  0  0  0  0
  -25.8270  -32.5920   23.7850 C   0  0  0  0  0  3  0  0  0  0  0  0
  -26.4110  -31.7870   25.0100 C   0  0  1  0  0  0  0  0  0  0  0  0
  -25.3810  -31.5380   26.1370 C   0  0  0  0  0  1  0  0  0  0  0  0
  -26.9520  -30.4110   24.5540 C   0  0  0  0  0  1  0  0  0  0  0  0
  -27.6070  -32.5550   25.6200 C   0  0  0  0  0  1  0  0  0  0  0  0
  -25.5640  -33.9890   24.1550 N   0  0  0  0  0  0  0  0  0  0  0  0
  -25.8730  -35.0480   23.3950 C   0  0  0  0  0  0  0  0  0  0  0  0
  -26.4830  -34.9500   22.3260 O   0  0  0  0  0  0  0  0  0  0  0  0
  -25.0190  -34.1390   24.9910 H   0  0  0  0  0  0  0  0  0  0  0  0
  -24.1680  -36.8810   23.1540 C   0  0  0  0  0  1  0  0  0  0  0  0
  -25.4360  -36.4360   23.8990 C   0  0  0  0  0  3  0  0  0  0  0  0
  -27.6210  -37.2650   24.6550 C   0  0  0  0  0  1  0  0  0  0  0  0
  -26.4850  -37.4700   23.7600 N   0  0  0  0  0  0  0  0  0  0  0  0
  -26.1030  -38.3950   23.9420 H   0  0  0  0  0  0  0  0  0  0  0  0
  1  3  1  0
  2  4  1  0
  2  5  1  0
  4  6  1  0
  5 55  1  6
  5  1  1  0
  5  9  1  0
  6  7  1  1
  6  3  1  0
  9  8  1  0
 10 15  1  0
 10  6  1  0
 12 11  2  0
 13 11  1  0
 14 15  2  0
 14 16  1  0
 15 12  1  0
 16 13  2  0
 17 25  1  0
 18 23  1  0
 19 20  1  0
 19 18  1  0
 21 20  1  0
 21 30  1  0
 21 22  1  0
 23 17  1  0
 23 22  1  0
 24 17  2  0
 25 16  1  0
 25 26  1  0
 27 28  2  0
 28 47  1  0
 29 28  1  0
 29 32  1  0
 30 31  1  0
 30 27  1  0
 31 29  2  0
 32 33  1  0
 33 34  2  0
 35 38  1  0
 35 34  1  0
 36 35  2  0
 37 36  1  0
 37 32  2  0
 38 39  1  0
 39 40  1  0
 40 41  2  0
 42 41  1  0
 42 46  1  0
 43 42  2  0
 44 39  2  0
 44 43  1  0
 45 44  1  0
 47 48  1  0
 48 51  1  0
 48 50  1  0
 49 47  2  0
 52 27  1  0
 52 53  1  0
 54 52  1  0
 55 56  1  0
 56 58  1  0
 57 68  2  0
 58 63  1  0
 59 67  1  0
 59 69  1  0
 60 66  1  0
 60 62  1  0
 61 67  1  0
 62 61  1  0
 63 62  2  0
 64 65  1  0
 64 58  2  0
 65 60  2  0
 66 59  1  0
 67 57  1  0
 69 71  2  0
 70 69  1  0
 72 70  1  0
 73 82  2  0
 73 78  1  0
 74 70  1  0
 74 78  1  0
 75 74  1  0
 76 77  1  0
 76 75  1  0
 77 73  1  0
 78 79  2  0
 79 80  1  0
 81 80  2  0
 82 81  1  0
 83 57  1  0
 83 88  1  0
 83 84  1  0
 84 87  1  1
 84 85  1  0
 86 84  1  0
 88 91  1  0
 89 93  1  0
 89 88  1  0
 90 89  2  0
 93 92  1  0
 95 93  1  0
 95 96  1  0
 95 94  1  0
M  ISO  4  17 100  25 100  55 101  56 101
M  END
>  <TORSDO>  (39) 
F 20

>  <SCORE>  (39) 
-12.759

>  <name>  (39) 
38

>  <ligand_id>  (39) 
38

>  <original_smiles>  (39) 
[H]c1c([H])c([H])c2c(c1[H])C([H])([H])C([H])([H])C([H])([H])C2([H])N([H])C(=O)C1([H])N(C(=O)C([H])(N([H])C(=O)C([H])(N([H])C([H])([H])[H])C([H])([H])[H])C(C([H])([H])[H])(C([H])([H])[H])C([H])([H])[H])C([H])([H])c2c([H])c(OC([H])([H])C3(OC([H])([H])[H])C([H])([H])C([H])([H])[N+]([H])(C([H])([H])c4c([H])c([H])c([H])c(N([H])C(=O)N5C([H])([H])C([H])([H])C([H])([H])C([H])(n6nc(-c7c([H])c([H])c(Oc8c([H])c([H])c(F)c([H])c8F)c([H])c7[H])c(C(=O)N([H])[H])c6N([H])[H])C5([H])[H])c4[H])C([H])([H])C3([H])[H])c([H])c([H])c2C1([H])[H]

>  <smiles>  (39) 
[H]c1c([H])c([H])c2c(c1[H])C([H])([H])C([H])([H])C([H])([H])C2([H])N([H])C(=O)C1([H])N(C(=O)C([H])(N([H])C(=O)C([H])(N([H])C([H])([H])[H])C([H])([H])[H])C(C([H])([H])[H])(C([H])([H])[H])C([H])([H])[H])C([H])([H])c2c([H])c(OC([H])([H])C3(OC([H])([H])[H])C([H])([H])C([H])([H])[N+]([H])(C([H])([H])c4c([H])c([H])c([H])c(N([H])C(=O)N5C([H])([H])C([H])([H])C([H])([H])C([H])(n6nc(-c7c([H])c([H])c(Oc8c([H])c([H])c(F)c([H])c8F)c([H])c7[H])c(C(=O)N([H])[H])c6N([H])[H])C5([H])[H])c4[H])C([H])([H])C3([H])[H])c([H])c([H])c2C1([H])[H]

$$$$
39:0:0
     RDKit          3D

 97105  0  0  1  0  0  0  0  0999 V2000
  -30.3550  -20.5370   20.2610 C   0  0  0  0  0  0  0  0  0  0  0  0
  -29.4980  -21.6000   20.2640 N   0  0  0  0  0  0  0  0  0  0  0  0
  -31.6770  -20.7690   20.3220 N   0  0  0  0  0  4  0  0  0  0  0  0
  -28.5190  -21.3210   20.2020 H   0  0  0  0  0  0  0  0  0  0  0  0
  -32.3280  -20.0000   20.3220 H   0  0  0  0  0  0  0  0  0  0  0  0
  -32.0680  -21.6970   20.3460 H   0  0  0  0  0  0  0  0  0  0  0  0
  -30.6440  -17.9370   20.5240 C   0  0  0  0  0  3  0  0  0  0  0  0
  -29.8520  -19.1220   20.2220 C   0  0  0  0  0  0  0  0  0  0  0  0
  -29.9130  -16.7540   20.5230 C   0  0  0  0  0  0  0  0  0  0  0  0
  -28.5360  -18.8240   19.9530 C   0  0  0  0  0  0  0  0  0  0  0  0
  -28.2450  -17.1160   20.1380 S   0  0  0  0  0  0  0  0  0  0  0  0
  -30.8720  -14.4840   20.1600 C   0  0  0  0  0  0  0  0  0  0  0  0
  -30.5910  -12.2440   19.1230 C   0  0  0  0  0  2  0  0  0  0  0  0
  -29.6210  -12.3750   17.9270 C   0  0  0  0  0  2  0  0  0  0  0  0
  -28.1520  -12.2760   18.3840 C   0  0  0  0  0  2  0  0  0  0  0  0
  -27.8450  -13.1810   19.6060 C   0  0  0  0  0  3  0  0  0  0  0  0
  -28.9130  -12.9830   20.7070 C   0  0  0  0  0  2  0  0  0  0  0  0
  -30.2340  -13.2750   20.1160 N   0  0  0  0  0  0  0  0  0  0  0  0
  -31.9560  -14.6890   19.6060 O   0  0  0  0  0  0  0  0  0  0  0  0
  -30.2000  -15.4460   20.8410 N   0  0  0  0  0  0  0  0  0  0  0  0
  -29.4600  -15.0120   21.3740 H   0  0  0  0  0  0  0  0  0  0  0  0
  -25.4810  -13.8800   20.3560 C   0  0  0  0  0  0  0  0  0  0  0  0
  -24.3950  -13.1540   20.7580 C   0  0  0  0  0  0  0  0  0  0  0  0
  -24.8040  -11.7860   20.7240 C   0  0  0  0  0  0  0  0  0  0  0  0
  -26.4910  -12.9600   20.1140 N   0  0  0  0  0  0  0  0  0  0  0  0
  -26.0840  -11.6940   20.3870 N   0  0  0  0  0  0  0  0  0  0  0  0
  -24.0320  -10.5560   20.9360 C   0  0  0  0  0  0  0  0  0  0  0  0
  -24.4440   -9.5770   21.8670 C   0  0  0  0  0  3  0  0  0  0  0  0
  -23.6750   -8.4100   22.0660 C   0  0  0  0  0  3  0  0  0  0  0  0
  -22.4810   -8.2140   21.3320 C   0  0  0  0  0  0  0  0  0  0  0  0
  -22.0890   -9.1790   20.3890 C   0  0  0  0  0  3  0  0  0  0  0  0
  -22.8590  -10.3380   20.1880 C   0  0  0  0  0  3  0  0  0  0  0  0
  -21.6840   -7.1000   21.4410 O   0  0  0  0  0  0  0  0  0  0  0  0
  -21.6220   -6.3690   22.6010 C   0  0  0  0  0  0  0  0  0  0  0  0
  -21.2150   -6.9450   23.8250 C   0  0  0  0  0  3  0  0  0  0  0  0
  -21.0990   -6.1430   24.9770 C   0  0  0  0  0  3  0  0  0  0  0  0
  -21.3820   -4.7650   24.9070 C   0  0  0  0  0  0  0  0  0  0  0  0
  -21.7820   -4.1890   23.6890 C   0  0  0  0  0  3  0  0  0  0  0  0
  -21.8990   -4.9890   22.5390 C   0  0  0  0  0  0  0  0  0  0  0  0
  -22.2650   -4.4240   21.3630 F   0  0  0  0  0  0  0  0  0  0  0  0
  -21.2630   -3.9920   26.0120 F   0  0  0  0  0  0  0  0  0  0  0  0
  -23.0250  -13.6870   21.0630 C   0  0  0  0  0  0  0  0  0  0  0  0
  -22.2940  -13.0260   21.9550 N   0  0  0  0  0  0  0  0  0  0  0  0
  -22.6120  -14.7250   20.5460 O   0  0  0  0  0  0  0  0  0  0  0  0
  -22.6420  -12.1880   22.3970 H   0  0  0  0  0  0  0  0  0  0  0  0
  -21.3750  -13.3640   22.2010 H   0  0  0  0  0  0  0  0  0  0  0  0
  -25.6830  -15.2410   20.1550 N   0  0  0  0  0  0  0  0  0  0  0  0
  -24.9310  -15.9150   20.2560 H   0  0  0  0  0  0  0  0  0  0  0  0
  -26.5330  -15.6470   19.7870 H   0  0  0  0  0  0  0  0  0  0  0  0
  -27.4760  -19.6580   19.5990 N   0  0  0  0  0  0  0  0  0  0  0  0
  -27.3900  -19.7330   18.5880 H   0  0  0  0  0  0  0  0  0  0  0  0
  -26.5900  -19.2560   19.9000 H   0  0  0  0  0  0  0  0  0  0  0  0
  -29.7680  -23.0600   20.4820 C   0  0  0  0  0  2  0  0  0  0  0  0
  -28.6750  -24.0640   20.0060 C   0  0  0  0  0  0  0  0  0  0  0  0
  -28.0290  -23.8390   18.9780 O   0  0  0  0  0  0  0  0  0  0  0  0
  -28.3950  -25.3440   20.8580 C   0  0  0  0  0  2  0  0  0  0  0  0
  -28.3890  -26.5900   20.1060 O   0  0  0  0  0  0  0  0  0  0  0  0
  -24.5300  -31.8160   23.1720 C   0  0  0  0  0  0  0  0  0  0  0  0
  -27.2250  -27.3430   20.1400 C   0  0  0  0  0  0  0  0  0  0  0  0
  -23.3520  -30.4120   21.5130 C   0  0  0  0  0  3  0  0  0  0  0  0
  -24.8310  -28.8690   20.1130 C   0  0  0  0  0  0  0  0  0  0  0  0
  -25.8830  -30.7670   21.3520 C   0  0  0  0  0  2  0  0  0  0  0  0
  -25.9830  -29.3920   20.7140 C   0  0  0  0  0  0  0  0  0  0  0  0
  -27.1860  -28.6400   20.7170 C   0  0  0  0  0  3  0  0  0  0  0  0
  -26.0550  -26.8410   19.5360 C   0  0  0  0  0  3  0  0  0  0  0  0
  -24.8630  -27.5930   19.5200 C   0  0  0  0  0  3  0  0  0  0  0  0
  -23.5850  -29.7290   20.1380 C   0  0  0  0  0  2  0  0  0  0  0  0
  -24.6060  -31.0150   22.0710 N   0  0  0  0  0  0  0  0  0  0  0  0
  -23.4400  -32.0860   23.6960 O   0  0  0  0  0  0  0  0  0  0  0  0
  -22.6850  -29.3920   22.4650 C   0  0  0  0  0  0  0  0  0  0  0  0
  -21.3560  -29.2360   22.3440 N   0  0  0  0  0  0  0  0  0  0  0  0
  -23.3620  -28.7440   23.2680 O   0  0  0  0  0  0  0  0  0  0  0  0
  -20.8720  -29.8100   21.6670 H   0  0  0  0  0  0  0  0  0  0  0  0
  -17.9580  -28.1350   22.8920 C   0  0  0  0  0  0  0  0  0  0  0  0
  -20.5280  -28.3010   23.1060 C   0  0  0  0  0  3  0  0  0  0  0  0
  -20.5680  -26.8870   22.4840 C   0  0  0  0  0  2  0  0  0  0  0  0
  -19.4320  -26.6330   21.4890 C   0  0  0  0  0  2  0  0  0  0  0  0
  -18.0720  -26.8030   22.1720 C   0  0  0  0  0  2  0  0  0  0  0  0
  -19.1110  -28.8470   23.3170 C   0  0  0  0  0  0  0  0  0  0  0  0
  -18.9480  -30.0990   23.9500 C   0  0  0  0  0  3  0  0  0  0  0  0
  -17.6660  -30.6360   24.1650 C   0  0  0  0  0  3  0  0  0  0  0  0
  -16.5270  -29.9200   23.7560 C   0  0  0  0  0  3  0  0  0  0  0  0
  -16.6740  -28.6720   23.1250 C   0  0  0  0  0  3  0  0  0  0  0  0
  -25.8060  -32.4490   23.8100 C   0  0  0  0  0  3  0  0  0  0  0  0
  -25.4840  -33.8400   24.1580 N   0  0  0  0  0  0  0  0  0  0  0  0
  -25.8130  -34.9050   23.4140 C   0  0  0  0  0  0  0  0  0  0  0  0
  -26.4890  -34.8200   22.3850 O   0  0  0  0  0  0  0  0  0  0  0  0
  -24.8860  -33.9800   24.9580 H   0  0  0  0  0  0  0  0  0  0  0  0
  -24.0700  -36.6850   23.0760 C   0  0  0  0  0  1  0  0  0  0  0  0
  -25.3120  -36.2840   23.8860 C   0  0  0  0  0  3  0  0  0  0  0  0
  -27.4310  -37.1820   24.7400 C   0  0  0  0  0  1  0  0  0  0  0  0
  -26.3360  -37.3460   23.7890 N   0  0  0  0  0  0  0  0  0  0  0  0
  -25.9200  -38.2610   23.9400 H   0  0  0  0  0  0  0  0  0  0  0  0
  -26.3230  -31.6640   25.0780 C   0  0  1  0  0  0  0  0  0  0  0  0
  -25.2230  -31.3930   26.1320 C   0  0  0  0  0  1  0  0  0  0  0  0
  -26.9270  -30.3010   24.6670 C   0  0  0  0  0  1  0  0  0  0  0  0
  -27.4560  -32.4620   25.7640 C   0  0  0  0  0  1  0  0  0  0  0  0
  1  2  1  0
  1  3  2  0
  2 53  1  0
  3  5  1  0
  3  6  1  0
  4  2  1  0
  8  1  1  0
  8  7  1  0
  9  7  2  0
  9 20  1  0
 10 11  1  0
 10  8  2  0
 11  9  1  0
 12 20  1  0
 13 18  1  0
 14 15  1  0
 14 13  1  0
 16 15  1  0
 16 25  1  0
 16 17  1  0
 18 12  1  0
 18 17  1  0
 19 12  2  0
 20 21  1  0
 22 23  2  0
 23 42  1  0
 24 23  1  0
 24 27  1  0
 25 22  1  0
 25 26  1  0
 26 24  2  0
 27 28  1  0
 28 29  2  0
 30 33  1  0
 30 29  1  0
 31 30  2  0
 32 31  1  0
 32 27  2  0
 33 34  1  0
 34 35  1  0
 35 36  2  0
 37 36  1  0
 37 41  1  0
 38 37  2  0
 39 34  2  0
 39 38  1  0
 40 39  1  0
 42 43  1  0
 43 46  1  0
 43 45  1  0
 44 42  2  0
 47 48  1  0
 47 22  1  0
 49 47  1  0
 50 52  1  0
 50 10  1  0
 51 50  1  0
 54 53  1  0
 54 56  1  0
 55 54  2  0
 57 59  1  0
 57 56  1  0
 58 69  2  0
 59 64  1  0
 60 68  1  0
 60 70  1  0
 61 67  1  0
 61 63  1  0
 62 68  1  0
 63 64  2  0
 63 62  1  0
 65 59  2  0
 66 65  1  0
 66 61  2  0
 67 60  1  0
 68 58  1  0
 70 72  2  0
 71 70  1  0
 73 71  1  0
 74 83  2  0
 74 79  1  0
 75 71  1  0
 75 79  1  0
 76 75  1  0
 77 78  1  0
 77 76  1  0
 78 74  1  0
 79 80  2  0
 80 81  1  0
 82 81  2  0
 83 82  1  0
 84 58  1  0
 84 85  1  0
 84 94  1  0
 85 88  1  0
 86 90  1  0
 86 85  1  0
 87 86  2  0
 90 89  1  0
 92 90  1  0
 92 93  1  0
 92 91  1  0
 94 97  1  1
 94 95  1  0
 96 94  1  0
M  ISO  4  12 100  20 100  56 101  57 101
M  END
>  <TORSDO>  (40) 
F 21

>  <SCORE>  (40) 
-13.926

>  <name>  (40) 
39

>  <ligand_id>  (40) 
39

>  <original_smiles>  (40) 
[H]c1c([H])c([H])c2c(c1[H])C([H])([H])C([H])([H])C([H])([H])C2([H])N([H])C(=O)C1([H])N(C(=O)C([H])(N([H])C(=O)C([H])(N([H])C([H])([H])[H])C([H])([H])[H])C(C([H])([H])[H])(C([H])([H])[H])C([H])([H])[H])C([H])([H])c2c([H])c(OC([H])([H])C(=O)C([H])([H])N([H])C(c3c(N([H])[H])sc(N([H])C(=O)N4C([H])([H])C([H])([H])C([H])([H])C([H])(n5nc(-c6c([H])c([H])c(Oc7c([H])c([H])c(F)c([H])c7F)c([H])c6[H])c(C(=O)N([H])[H])c5N([H])[H])C4([H])[H])c3[H])=[N+]([H])[H])c([H])c([H])c2C1([H])[H]

>  <smiles>  (40) 
[H]c1c([H])c([H])c2c(c1[H])C([H])([H])C([H])([H])C([H])([H])C2([H])N([H])C(=O)C1([H])N(C(=O)C([H])(N([H])C(=O)C([H])(N([H])C([H])([H])[H])C([H])([H])[H])C(C([H])([H])[H])(C([H])([H])[H])C([H])([H])[H])C([H])([H])c2c([H])c(OC([H])([H])C(=O)C([H])([H])N([H])C(c3c(N([H])[H])sc(N([H])C(=O)N4C([H])([H])C([H])([H])C([H])([H])C([H])(n5nc(-c6c([H])c([H])c(Oc7c([H])c([H])c(F)c([H])c7F)c([H])c6[H])c(C(=O)N([H])[H])c5N([H])[H])C4([H])[H])c3[H])=[N+]([H])[H])c([H])c([H])c2C1([H])[H]

$$$$
40:0:0
     RDKit          3D

 93102  0  0  1  0  0  0  0  0999 V2000
  -30.2310  -19.5140   21.7710 C   0  0  0  0  0  0  0  0  0  0  0  0
  -29.8080  -20.9040   21.8190 C   0  0  0  0  0  0  0  0  0  0  0  0
  -29.8390  -18.7820   20.6960 C   0  0  0  0  0  0  0  0  0  0  0  0
  -29.1080  -21.3210   20.6860 C   0  0  0  0  0  0  0  0  0  0  0  0
  -31.1220  -18.6950   22.6430 C   0  0  0  0  0  2  0  0  0  0  0  0
  -31.5400  -17.4880   21.7570 C   0  0  0  0  0  2  0  0  0  0  0  0
  -30.5690  -17.4010   20.5410 C   0  0  0  0  0  3  0  0  0  0  0  0
  -30.1040  -21.7580   23.0220 C   0  0  0  0  0  1  0  0  0  0  0  0
  -28.9660  -19.8740   19.6050 S   0  0  0  0  0  0  0  0  0  0  0  0
  -30.6250  -14.8530   20.1480 C   0  0  0  0  0  0  0  0  0  0  0  0
  -30.3620  -12.6000   19.0970 C   0  0  0  0  0  2  0  0  0  0  0  0
  -29.3660  -12.6740   17.9160 C   0  0  0  0  0  2  0  0  0  0  0  0
  -27.9180  -12.5000   18.4100 C   0  0  0  0  0  2  0  0  0  0  0  0
  -27.5980  -13.3700   19.6540 C   0  0  0  0  0  3  0  0  0  0  0  0
  -28.7080  -13.2780   20.7270 C   0  0  0  0  0  2  0  0  0  0  0  0
  -29.9720  -13.6410   20.0800 N   0  0  0  0  0  0  0  0  0  0  0  0
  -31.7790  -14.9380   19.7260 O   0  0  0  0  0  0  0  0  0  0  0  0
  -29.9440  -16.0060   20.5220 N   0  0  0  0  0  0  0  0  0  0  0  0
  -28.9940  -15.9040   20.8350 H   0  0  0  0  0  0  0  0  0  0  0  0
  -25.2430  -13.9240   20.5050 C   0  0  0  0  0  0  0  0  0  0  0  0
  -24.2000  -13.1330   20.8980 C   0  0  0  0  0  0  0  0  0  0  0  0
  -24.6690  -11.7820   20.8100 C   0  0  0  0  0  0  0  0  0  0  0  0
  -26.2800  -13.0560   20.1980 N   0  0  0  0  0  0  0  0  0  0  0  0
  -25.9450  -11.7640   20.4460 N   0  0  0  0  0  0  0  0  0  0  0  0
  -23.9580  -10.5130   20.9990 C   0  0  0  0  0  0  0  0  0  0  0  0
  -24.3950   -9.5510   21.9360 C   0  0  0  0  0  3  0  0  0  0  0  0
  -23.6810   -8.3460   22.1100 C   0  0  0  0  0  3  0  0  0  0  0  0
  -22.5170   -8.0940   21.3470 C   0  0  0  0  0  0  0  0  0  0  0  0
  -22.0990   -9.0440   20.3980 C   0  0  0  0  0  3  0  0  0  0  0  0
  -22.8130  -10.2390   20.2230 C   0  0  0  0  0  3  0  0  0  0  0  0
  -21.7750   -6.9410   21.4300 O   0  0  0  0  0  0  0  0  0  0  0  0
  -21.6730   -6.2340   22.6020 C   0  0  0  0  0  0  0  0  0  0  0  0
  -21.1100   -6.8010   23.7660 C   0  0  0  0  0  3  0  0  0  0  0  0
  -20.9580   -6.0180   24.9280 C   0  0  0  0  0  3  0  0  0  0  0  0
  -21.3620   -4.6700   24.9280 C   0  0  0  0  0  0  0  0  0  0  0  0
  -21.9150   -4.1010   23.7660 C   0  0  0  0  0  3  0  0  0  0  0  0
  -22.0670   -4.8810   22.6080 C   0  0  0  0  0  0  0  0  0  0  0  0
  -22.5820   -4.3230   21.4860 F   0  0  0  0  0  0  0  0  0  0  0  0
  -21.2090   -3.9160   26.0410 F   0  0  0  0  0  0  0  0  0  0  0  0
  -22.8150  -13.5930   21.2490 C   0  0  0  0  0  0  0  0  0  0  0  0
  -22.1230  -12.8570   22.1120 N   0  0  0  0  0  0  0  0  0  0  0  0
  -22.3560  -14.6400   20.7950 O   0  0  0  0  0  0  0  0  0  0  0  0
  -22.5070  -12.0090   22.4980 H   0  0  0  0  0  0  0  0  0  0  0  0
  -21.1960  -13.1420   22.3910 H   0  0  0  0  0  0  0  0  0  0  0  0
  -25.3910  -15.3020   20.3560 N   0  0  0  0  0  0  0  0  0  0  0  0
  -24.6250  -15.9470   20.5210 H   0  0  0  0  0  0  0  0  0  0  0  0
  -26.2170  -15.7510   19.9820 H   0  0  0  0  0  0  0  0  0  0  0  0
  -28.8360  -23.8810   20.5370 C   0  0  0  0  0  0  0  0  0  0  0  0
  -28.4790  -22.5480   20.3940 N   0  0  0  0  0  0  0  0  0  0  0  0
  -29.9810  -24.2260   20.8370 O   0  0  0  0  0  0  0  0  0  0  0  0
  -27.5620  -22.4440   19.9700 H   0  0  0  0  0  0  0  0  0  0  0  0
  -27.7440  -25.0070   20.2590 C   0  0  0  0  0  2  0  0  0  0  0  0
  -28.1480  -26.4620   20.2090 O   0  0  0  0  0  0  0  0  0  0  0  0
  -24.5340  -31.9760   23.2220 C   0  0  0  0  0  0  0  0  0  0  0  0
  -27.0860  -27.3930   20.1260 C   0  0  0  0  0  0  0  0  0  0  0  0
  -23.3040  -30.5850   21.6010 C   0  0  0  0  0  3  0  0  0  0  0  0
  -24.7350  -29.0520   20.1350 C   0  0  0  0  0  0  0  0  0  0  0  0
  -25.8490  -30.8950   21.3850 C   0  0  0  0  0  2  0  0  0  0  0  0
  -25.9210  -29.5210   20.7190 C   0  0  0  0  0  0  0  0  0  0  0  0
  -27.1000  -28.7080   20.7020 C   0  0  0  0  0  3  0  0  0  0  0  0
  -25.8860  -27.0010   19.4890 C   0  0  0  0  0  3  0  0  0  0  0  0
  -24.7270  -27.8010   19.5030 C   0  0  0  0  0  3  0  0  0  0  0  0
  -23.4910  -29.9170   20.2160 C   0  0  0  0  0  2  0  0  0  0  0  0
  -24.5840  -31.1690   22.1230 N   0  0  0  0  0  0  0  0  0  0  0  0
  -23.4600  -32.2570   23.7740 O   0  0  0  0  0  0  0  0  0  0  0  0
  -22.6590  -29.5610   22.5650 C   0  0  0  0  0  0  0  0  0  0  0  0
  -21.3350  -29.3550   22.4350 N   0  0  0  0  0  0  0  0  0  0  0  0
  -23.3470  -28.9520   23.3890 O   0  0  0  0  0  0  0  0  0  0  0  0
  -20.8390  -29.8990   21.7420 H   0  0  0  0  0  0  0  0  0  0  0  0
  -17.9770  -28.1080   22.9440 C   0  0  0  0  0  0  0  0  0  0  0  0
  -20.5310  -28.4060   23.2090 C   0  0  0  0  0  3  0  0  0  0  0  0
  -20.6540  -26.9720   22.6410 C   0  0  0  0  0  2  0  0  0  0  0  0
  -19.5560  -26.6260   21.6320 C   0  0  0  0  0  2  0  0  0  0  0  0
  -18.1700  -26.7570   22.2730 C   0  0  0  0  0  2  0  0  0  0  0  0
  -19.0850  -28.8890   23.3650 C   0  0  0  0  0  0  0  0  0  0  0  0
  -18.8490  -30.1520   23.9510 C   0  0  0  0  0  3  0  0  0  0  0  0
  -17.5380  -30.6360   24.1170 C   0  0  0  0  0  3  0  0  0  0  0  0
  -16.4430  -29.8500   23.7150 C   0  0  0  0  0  3  0  0  0  0  0  0
  -16.6640  -28.5880   23.1360 C   0  0  0  0  0  3  0  0  0  0  0  0
  -25.8260  -32.6080   23.8260 C   0  0  0  0  0  3  0  0  0  0  0  0
  -25.5230  -34.0090   24.1490 N   0  0  0  0  0  0  0  0  0  0  0  0
  -25.8230  -35.0530   23.3640 C   0  0  0  0  0  0  0  0  0  0  0  0
  -26.4480  -34.9370   22.3080 O   0  0  0  0  0  0  0  0  0  0  0  0
  -24.9680  -34.1790   24.9750 H   0  0  0  0  0  0  0  0  0  0  0  0
  -24.0630  -36.8300   23.0790 C   0  0  0  0  0  1  0  0  0  0  0  0
  -25.3480  -36.4440   23.8280 C   0  0  0  0  0  3  0  0  0  0  0  0
  -27.5050  -37.3660   24.5530 C   0  0  0  0  0  1  0  0  0  0  0  0
  -26.3670  -37.5020   23.6480 N   0  0  0  0  0  0  0  0  0  0  0  0
  -25.9600  -38.4230   23.7920 H   0  0  0  0  0  0  0  0  0  0  0  0
  -26.3540  -31.8480   25.1060 C   0  0  1  0  0  0  0  0  0  0  0  0
  -25.2650  -31.5950   26.1760 C   0  0  0  0  0  1  0  0  0  0  0  0
  -26.9650  -30.4810   24.7210 C   0  0  0  0  0  1  0  0  0  0  0  0
  -27.4890  -32.6690   25.7670 C   0  0  0  0  0  1  0  0  0  0  0  0
  1  2  1  0
  1  5  1  0
  2  8  1  0
  3  1  2  0
  4  2  2  0
  6  5  1  0
  7 18  1  0
  7  3  1  0
  7  6  1  0
  9  4  1  0
  9  3  1  0
 10 18  1  0
 11 16  1  0
 12 13  1  0
 12 11  1  0
 14 13  1  0
 14 23  1  0
 14 15  1  0
 16 10  1  0
 16 15  1  0
 17 10  2  0
 18 19  1  0
 20 21  2  0
 21 40  1  0
 22 21  1  0
 22 25  1  0
 23 24  1  0
 23 20  1  0
 24 22  2  0
 25 26  1  0
 26 27  2  0
 28 31  1  0
 28 27  1  0
 29 28  2  0
 30 29  1  0
 30 25  2  0
 31 32  1  0
 32 37  2  0
 32 33  1  0
 33 34  2  0
 35 34  1  0
 35 39  1  0
 36 35  2  0
 37 36  1  0
 38 37  1  0
 40 41  1  0
 41 44  1  0
 41 43  1  0
 42 40  2  0
 45 20  1  0
 45 46  1  0
 47 45  1  0
 48 50  2  0
 49 48  1  0
 49  4  1  0
 51 49  1  0
 52 48  1  0
 53 52  1  0
 54 65  2  0
 55 53  1  0
 55 60  1  0
 56 64  1  0
 56 66  1  0
 57 63  1  0
 57 59  1  0
 58 64  1  0
 59 58  1  0
 60 59  2  0
 61 62  1  0
 61 55  2  0
 62 57  2  0
 63 56  1  0
 64 54  1  0
 66 68  2  0
 67 66  1  0
 69 67  1  0
 70 79  2  0
 70 75  1  0
 71 67  1  0
 71 75  1  0
 72 71  1  0
 73 74  1  0
 73 72  1  0
 74 70  1  0
 75 76  2  0
 76 77  1  0
 78 77  2  0
 79 78  1  0
 80 54  1  0
 80 81  1  0
 80 90  1  0
 81 84  1  0
 82 86  1  0
 82 81  1  0
 83 82  2  0
 86 85  1  0
 88 89  1  0
 88 86  1  0
 88 87  1  0
 90 93  1  1
 90 91  1  0
 92 90  1  0
M  ISO  4  10 100  18 100  52 101  53 101
M  END
>  <TORSDO>  (41) 
F 18

>  <SCORE>  (41) 
-14.364

>  <name>  (41) 
40

>  <ligand_id>  (41) 
40

>  <original_smiles>  (41) 
[H]c1c([H])c([H])c2c(c1[H])C([H])([H])C([H])([H])C([H])([H])C2([H])N([H])C(=O)C1([H])N(C(=O)C([H])(N([H])C(=O)C([H])(N([H])C([H])([H])[H])C([H])([H])[H])C(C([H])([H])[H])(C([H])([H])[H])C([H])([H])[H])C([H])([H])c2c([H])c(OC([H])([H])C(=O)N([H])c3sc4c(c3C([H])([H])[H])C([H])([H])C([H])([H])C4([H])N([H])C(=O)N3C([H])([H])C([H])([H])C([H])([H])C([H])(n4nc(-c5c([H])c([H])c(Oc6c([H])c([H])c(F)c([H])c6F)c([H])c5[H])c(C(=O)N([H])[H])c4N([H])[H])C3([H])[H])c([H])c([H])c2C1([H])[H]

>  <smiles>  (41) 
[H]c1c([H])c([H])c2c(c1[H])C([H])([H])C([H])([H])C([H])([H])C2([H])N([H])C(=O)C1([H])N(C(=O)C([H])(N([H])C(=O)C([H])(N([H])C([H])([H])[H])C([H])([H])[H])C(C([H])([H])[H])(C([H])([H])[H])C([H])([H])[H])C([H])([H])c2c([H])c(OC([H])([H])C(=O)N([H])c3sc4c(c3C([H])([H])[H])C([H])([H])C([H])([H])C4([H])N([H])C(=O)N3C([H])([H])C([H])([H])C([H])([H])C([H])(n4nc(-c5c([H])c([H])c(Oc6c([H])c([H])c(F)c([H])c6F)c([H])c5[H])c(C(=O)N([H])[H])c4N([H])[H])C3([H])[H])c([H])c([H])c2C1([H])[H]

$$$$
41:0:0
     RDKit          3D

 95104  0  0  1  0  0  0  0  0999 V2000
  -28.8430  -23.2520   20.3620 C   0  0  0  0  0  0  0  0  0  0  0  0
  -28.4990  -21.9290   20.4600 N   0  0  0  0  0  0  0  0  0  0  0  0
  -29.7700  -23.6420   19.6500 O   0  0  0  0  0  0  0  0  0  0  0  0
  -27.5990  -21.8330   20.9150 H   0  0  0  0  0  0  0  0  0  0  0  0
  -29.1850  -19.5220   20.0800 C   0  0  0  0  0  3  0  0  0  0  0  0
  -30.2000  -18.5910   20.5500 C   0  0  0  0  0  0  0  0  0  0  0  0
  -31.0040  -19.1950   21.4560 C   0  0  0  0  0  0  0  0  0  0  0  0
  -29.3090  -20.8200   20.6000 C   0  0  0  0  0  0  0  0  0  0  0  0
  -32.1340  -18.4000   21.9480 C   0  0  0  0  0  2  0  0  0  0  0  0
  -32.1550  -17.2260   20.9570 C   0  0  0  0  0  2  0  0  0  0  0  0
  -30.7850  -17.1990   20.1850 C   0  0  0  0  0  3  0  0  0  0  0  0
  -30.6540  -20.8730   21.7290 S   0  0  0  0  0  0  0  0  0  0  0  0
  -30.6380  -14.7000   19.9620 C   0  0  0  0  0  0  0  0  0  0  0  0
  -30.2170  -12.4960   18.9210 C   0  0  0  0  0  2  0  0  0  0  0  0
  -29.2150  -12.6580   17.7620 C   0  0  0  0  0  2  0  0  0  0  0  0
  -27.7790  -12.5050   18.2890 C   0  0  0  0  0  2  0  0  0  0  0  0
  -27.5070  -13.3640   19.5540 C   0  0  0  0  0  3  0  0  0  0  0  0
  -28.6420  -13.2480   20.6010 C   0  0  0  0  0  2  0  0  0  0  0  0
  -29.9080  -13.5420   19.9220 N   0  0  0  0  0  0  0  0  0  0  0  0
  -31.7550  -14.7310   19.4440 O   0  0  0  0  0  0  0  0  0  0  0  0
  -30.0820  -15.8800   20.3970 N   0  0  0  0  0  0  0  0  0  0  0  0
  -29.1460  -15.8790   20.7710 H   0  0  0  0  0  0  0  0  0  0  0  0
  -25.1780  -13.9350   20.4660 C   0  0  0  0  0  0  0  0  0  0  0  0
  -24.1380  -13.1510   20.8870 C   0  0  0  0  0  0  0  0  0  0  0  0
  -24.5940  -11.8000   20.7840 C   0  0  0  0  0  0  0  0  0  0  0  0
  -26.2000  -13.0630   20.1310 N   0  0  0  0  0  0  0  0  0  0  0  0
  -25.8600  -11.7720   20.3850 N   0  0  0  0  0  0  0  0  0  0  0  0
  -23.8790  -10.5330   20.9870 C   0  0  0  0  0  0  0  0  0  0  0  0
  -24.3520   -9.5540   21.8880 C   0  0  0  0  0  3  0  0  0  0  0  0
  -23.6360   -8.3520   22.0810 C   0  0  0  0  0  3  0  0  0  0  0  0
  -22.4320   -8.1220   21.3740 C   0  0  0  0  0  0  0  0  0  0  0  0
  -21.9770   -9.0900   20.4630 C   0  0  0  0  0  3  0  0  0  0  0  0
  -22.6940  -10.2820   20.2670 C   0  0  0  0  0  3  0  0  0  0  0  0
  -21.6830   -6.9750   21.4790 O   0  0  0  0  0  0  0  0  0  0  0  0
  -21.6750   -6.2230   22.6270 C   0  0  0  0  0  0  0  0  0  0  0  0
  -21.2700   -6.7620   23.8680 C   0  0  0  0  0  3  0  0  0  0  0  0
  -21.2100   -5.9360   25.0080 C   0  0  0  0  0  3  0  0  0  0  0  0
  -21.5430   -4.5720   24.9090 C   0  0  0  0  0  0  0  0  0  0  0  0
  -21.9400   -4.0320   23.6730 C   0  0  0  0  0  3  0  0  0  0  0  0
  -22.0030   -4.8550   22.5350 C   0  0  0  0  0  0  0  0  0  0  0  0
  -22.3650   -4.3250   21.3420 F   0  0  0  0  0  0  0  0  0  0  0  0
  -21.4780   -3.7760   26.0020 F   0  0  0  0  0  0  0  0  0  0  0  0
  -22.7650  -13.6200   21.2700 C   0  0  0  0  0  0  0  0  0  0  0  0
  -22.0930  -12.8930   22.1560 N   0  0  0  0  0  0  0  0  0  0  0  0
  -22.2990  -14.6660   20.8190 O   0  0  0  0  0  0  0  0  0  0  0  0
  -22.4840  -12.0460   22.5400 H   0  0  0  0  0  0  0  0  0  0  0  0
  -21.1740  -13.1860   22.4530 H   0  0  0  0  0  0  0  0  0  0  0  0
  -25.3330  -15.3090   20.3170 N   0  0  0  0  0  0  0  0  0  0  0  0
  -24.5800  -15.9640   20.4980 H   0  0  0  0  0  0  0  0  0  0  0  0
  -26.1600  -15.7540   19.9390 H   0  0  0  0  0  0  0  0  0  0  0  0
  -27.7950  -25.4850   21.1710 C   0  0  0  0  0  3  0  0  0  0  0  0
  -27.9710  -24.1220   21.1920 C   0  0  0  0  0  0  0  0  0  0  0  0
  -27.2520  -23.4750   22.1300 O   0  0  0  0  0  0  0  0  0  0  0  0
  -26.7480  -24.1240   22.6030 H   0  0  0  0  0  0  0  0  0  0  0  0
  -28.2330  -26.5410   20.3590 O   0  0  0  0  0  0  0  0  0  0  0  0
  -24.5890  -31.9690   23.2800 C   0  0  0  0  0  0  0  0  0  0  0  0
  -27.2140  -27.4760   20.1910 C   0  0  0  0  0  0  0  0  0  0  0  0
  -23.3870  -30.5710   21.6360 C   0  0  0  0  0  3  0  0  0  0  0  0
  -24.8460  -29.0480   20.1880 C   0  0  0  0  0  0  0  0  0  0  0  0
  -25.9220  -30.9160   21.4460 C   0  0  0  0  0  2  0  0  0  0  0  0
  -26.0110  -29.5490   20.7860 C   0  0  0  0  0  0  0  0  0  0  0  0
  -27.2050  -28.7710   20.7850 C   0  0  0  0  0  3  0  0  0  0  0  0
  -26.0400  -27.0280   19.5530 C   0  0  0  0  0  3  0  0  0  0  0  0
  -24.8610  -27.7920   19.5610 C   0  0  0  0  0  3  0  0  0  0  0  0
  -23.5990  -29.9060   20.2510 C   0  0  0  0  0  2  0  0  0  0  0  0
  -24.6510  -31.1680   22.1770 N   0  0  0  0  0  0  0  0  0  0  0  0
  -23.5080  -32.2350   23.8220 O   0  0  0  0  0  0  0  0  0  0  0  0
  -22.7340  -29.5440   22.5920 C   0  0  0  0  0  0  0  0  0  0  0  0
  -21.4110  -29.3520   22.4630 N   0  0  0  0  0  0  0  0  0  0  0  0
  -23.4170  -28.9220   23.4110 O   0  0  0  0  0  0  0  0  0  0  0  0
  -20.9160  -29.9020   21.7750 H   0  0  0  0  0  0  0  0  0  0  0  0
  -18.0460  -28.1210   22.9490 C   0  0  0  0  0  0  0  0  0  0  0  0
  -20.6000  -28.4100   23.2360 C   0  0  0  0  0  3  0  0  0  0  0  0
  -20.7220  -26.9760   22.6680 C   0  0  0  0  0  2  0  0  0  0  0  0
  -19.6300  -26.6370   21.6480 C   0  0  0  0  0  2  0  0  0  0  0  0
  -18.2420  -26.7710   22.2810 C   0  0  0  0  0  2  0  0  0  0  0  0
  -19.1520  -28.8980   23.3830 C   0  0  0  0  0  0  0  0  0  0  0  0
  -18.9140  -30.1620   23.9650 C   0  0  0  0  0  3  0  0  0  0  0  0
  -17.6030  -30.6480   24.1190 C   0  0  0  0  0  3  0  0  0  0  0  0
  -16.5100  -29.8690   23.7030 C   0  0  0  0  0  3  0  0  0  0  0  0
  -16.7320  -28.6070   23.1230 C   0  0  0  0  0  3  0  0  0  0  0  0
  -25.8720  -32.6050   23.8980 C   0  0  0  0  0  3  0  0  0  0  0  0
  -26.3840  -31.8480   25.1850 C   0  0  1  0  0  0  0  0  0  0  0  0
  -25.2860  -31.6240   26.2500 C   0  0  0  0  0  1  0  0  0  0  0  0
  -26.9670  -30.4650   24.8130 C   0  0  0  0  0  1  0  0  0  0  0  0
  -27.5310  -32.6490   25.8430 C   0  0  0  0  0  1  0  0  0  0  0  0
  -25.5660  -34.0080   24.2090 N   0  0  0  0  0  0  0  0  0  0  0  0
  -25.9070  -35.0500   23.4400 C   0  0  0  0  0  0  0  0  0  0  0  0
  -26.5830  -34.9320   22.4140 O   0  0  0  0  0  0  0  0  0  0  0  0
  -24.9720  -34.1730   25.0090 H   0  0  0  0  0  0  0  0  0  0  0  0
  -24.1940  -36.8470   23.0470 C   0  0  0  0  0  1  0  0  0  0  0  0
  -25.4220  -36.4460   23.8780 C   0  0  0  0  0  3  0  0  0  0  0  0
  -27.5500  -37.3290   24.7280 C   0  0  0  0  0  1  0  0  0  0  0  0
  -26.4620  -37.4920   23.7670 N   0  0  0  0  0  0  0  0  0  0  0  0
  -26.0580  -38.4150   23.9020 H   0  0  0  0  0  0  0  0  0  0  0  0
  1  2  1  0
  1 52  1  0
  2  8  1  0
  2  4  1  0
  3  1  2  0
  5  6  1  0
  5  8  2  0
  6  7  2  0
  7 12  1  0
  7  9  1  0
  8 12  1  0
 10  9  1  0
 11 21  1  0
 11  6  1  0
 11 10  1  0
 13 21  1  0
 14 19  1  0
 15 16  1  0
 15 14  1  0
 17 16  1  0
 17 26  1  0
 17 18  1  0
 19 13  1  0
 19 18  1  0
 20 13  2  0
 21 22  1  0
 23 24  2  0
 24 43  1  0
 25 24  1  0
 25 28  1  0
 26 27  1  0
 26 23  1  0
 27 25  2  0
 28 29  1  0
 29 30  2  0
 31 34  1  0
 31 30  1  0
 32 31  2  0
 33 32  1  0
 33 28  2  0
 34 35  1  0
 35 36  1  0
 36 37  2  0
 38 37  1  0
 38 42  1  0
 39 38  2  0
 40 35  2  0
 40 39  1  0
 41 40  1  0
 43 44  1  0
 44 47  1  0
 44 46  1  0
 45 43  2  0
 48 23  1  0
 48 49  1  0
 50 48  1  0
 51 52  2  0
 52 53  1  0
 53 54  1  0
 55 51  1  0
 56 67  2  0
 57 55  1  0
 57 62  1  0
 58 66  1  0
 58 68  1  0
 59 65  1  0
 59 61  1  0
 60 66  1  0
 61 60  1  0
 62 61  2  0
 63 64  1  0
 63 57  2  0
 64 59  2  0
 65 58  1  0
 66 56  1  0
 68 70  2  0
 69 68  1  0
 71 69  1  0
 72 81  2  0
 72 77  1  0
 73 69  1  0
 73 77  1  0
 74 73  1  0
 75 76  1  0
 75 74  1  0
 76 72  1  0
 77 78  2  0
 78 79  1  0
 80 79  2  0
 81 80  1  0
 82 56  1  0
 82 87  1  0
 82 83  1  0
 83 86  1  1
 83 84  1  0
 85 83  1  0
 87 90  1  0
 88 92  1  0
 88 87  1  0
 89 88  2  0
 92 91  1  0
 94 92  1  0
 94 95  1  0
 94 93  1  0
M  ISO  4  13 100  21 100  51 101  55 101
M  END
>  <TORSDO>  (42) 
F 19

>  <SCORE>  (42) 
-14.287

>  <name>  (42) 
41

>  <ligand_id>  (42) 
41

>  <original_smiles>  (42) 
[H]OC(C(=O)N([H])c1sc2c(c1[H])C([H])(N([H])C(=O)N1C([H])([H])C([H])([H])C([H])([H])C([H])(n3nc(-c4c([H])c([H])c(Oc5c([H])c([H])c(F)c([H])c5F)c([H])c4[H])c(C(=O)N([H])[H])c3N([H])[H])C1([H])[H])C([H])([H])C2([H])[H])=C([H])Oc1c([H])c([H])c2c(c1[H])C([H])([H])N(C(=O)C([H])(N([H])C(=O)C([H])(N([H])C([H])([H])[H])C([H])([H])[H])C(C([H])([H])[H])(C([H])([H])[H])C([H])([H])[H])C([H])(C(=O)N([H])C1([H])c3c([H])c([H])c([H])c([H])c3C([H])([H])C([H])([H])C1([H])[H])C2([H])[H]

>  <smiles>  (42) 
[H]OC(C(=O)N([H])c1sc2c(c1[H])C([H])(N([H])C(=O)N1C([H])([H])C([H])([H])C([H])([H])C([H])(n3nc(-c4c([H])c([H])c(Oc5c([H])c([H])c(F)c([H])c5F)c([H])c4[H])c(C(=O)N([H])[H])c3N([H])[H])C1([H])[H])C([H])([H])C2([H])[H])=C([H])Oc1c([H])c([H])c2c(c1[H])C([H])([H])N(C(=O)C([H])(N([H])C(=O)C([H])(N([H])C([H])([H])[H])C([H])([H])[H])C(C([H])([H])[H])(C([H])([H])[H])C([H])([H])[H])C([H])(C(=O)N([H])C1([H])c3c([H])c([H])c([H])c([H])c3C([H])([H])C([H])([H])C1([H])[H])C2([H])[H]

$$$$
42:0:0
     RDKit          3D

 93102  0  0  1  0  0  0  0  0999 V2000
  -30.6350  -14.7210   20.4240 C   0  0  0  0  0  0  0  0  0  0  0  0
  -30.3860  -12.4540   19.4330 C   0  0  0  0  0  2  0  0  0  0  0  0
  -29.4660  -12.5420   18.1980 C   0  0  0  0  0  2  0  0  0  0  0  0
  -27.9860  -12.4070   18.6150 C   0  0  0  0  0  2  0  0  0  0  0  0
  -27.6120  -13.2980   19.8290 C   0  0  0  0  0  3  0  0  0  0  0  0
  -28.6620  -13.2150   20.9570 C   0  0  0  0  0  2  0  0  0  0  0  0
  -29.9660  -13.5240   20.3610 N   0  0  0  0  0  0  0  0  0  0  0  0
  -31.8480  -14.7660   20.1980 O   0  0  0  0  0  0  0  0  0  0  0  0
  -28.6310  -20.1470   19.5800 C   0  0  0  0  0  3  0  0  0  0  0  0
  -29.9830  -20.9820   21.3880 C   0  0  0  0  0  3  0  0  0  0  0  0
  -28.9910  -18.7980   19.9150 C   0  0  0  0  0  0  0  0  0  0  0  0
  -29.8650  -18.5220   20.9850 C   0  0  0  0  0  0  0  0  0  0  0  0
  -29.1190  -21.2840   20.3010 C   0  0  0  0  0  0  0  0  0  0  0  0
  -30.3470  -19.6410   21.7190 C   0  0  0  0  0  0  0  0  0  0  0  0
  -28.4680  -17.5950   19.1470 C   0  0  0  0  0  2  0  0  0  0  0  0
  -30.2880  -17.0470   21.3390 C   0  0  0  0  0  2  0  0  0  0  0  0
  -29.4850  -16.4170   19.1130 C   0  0  0  0  0  2  0  0  0  0  0  0
  -29.8960  -15.8990   20.4410 N   0  0  0  0  0  0  0  0  0  0  0  0
  -31.1900  -19.4300   22.7580 F   0  0  0  0  0  0  0  0  0  0  0  0
  -25.2240  -13.9170   20.5270 C   0  0  0  0  0  0  0  0  0  0  0  0
  -24.1450  -13.1550   20.8830 C   0  0  0  0  0  0  0  0  0  0  0  0
  -24.5980  -11.8000   20.8700 C   0  0  0  0  0  0  0  0  0  0  0  0
  -26.2620  -13.0270   20.3110 N   0  0  0  0  0  0  0  0  0  0  0  0
  -25.8940  -11.7490   20.5820 N   0  0  0  0  0  0  0  0  0  0  0  0
  -23.8600  -10.5460   21.0600 C   0  0  0  0  0  0  0  0  0  0  0  0
  -24.2830   -9.5730   21.9910 C   0  0  0  0  0  3  0  0  0  0  0  0
  -23.5450   -8.3830   22.1690 C   0  0  0  0  0  3  0  0  0  0  0  0
  -22.3690   -8.1590   21.4150 C   0  0  0  0  0  0  0  0  0  0  0  0
  -21.9640   -9.1200   20.4720 C   0  0  0  0  0  3  0  0  0  0  0  0
  -22.7030  -10.3010   20.2930 C   0  0  0  0  0  3  0  0  0  0  0  0
  -21.6020   -7.0210   21.5020 O   0  0  0  0  0  0  0  0  0  0  0  0
  -21.5560   -6.2710   22.6500 C   0  0  0  0  0  0  0  0  0  0  0  0
  -21.1670   -6.8280   23.8880 C   0  0  0  0  0  3  0  0  0  0  0  0
  -21.0660   -6.0060   25.0290 C   0  0  0  0  0  3  0  0  0  0  0  0
  -21.3430   -4.6290   24.9320 C   0  0  0  0  0  0  0  0  0  0  0  0
  -21.7260   -4.0730   23.6980 C   0  0  0  0  0  3  0  0  0  0  0  0
  -21.8290   -4.8930   22.5610 C   0  0  0  0  0  0  0  0  0  0  0  0
  -22.1780   -4.3470   21.3700 F   0  0  0  0  0  0  0  0  0  0  0  0
  -21.2380   -3.8370   26.0240 F   0  0  0  0  0  0  0  0  0  0  0  0
  -22.7490  -13.6460   21.1280 C   0  0  0  0  0  0  0  0  0  0  0  0
  -22.0040  -12.9670   21.9940 N   0  0  0  0  0  0  0  0  0  0  0  0
  -22.3270  -14.6700   20.5910 O   0  0  0  0  0  0  0  0  0  0  0  0
  -22.3590  -12.1400   22.4500 H   0  0  0  0  0  0  0  0  0  0  0  0
  -21.0660  -13.2790   22.2030 H   0  0  0  0  0  0  0  0  0  0  0  0
  -25.4040  -15.2850   20.3440 N   0  0  0  0  0  0  0  0  0  0  0  0
  -24.6490  -15.9520   20.4570 H   0  0  0  0  0  0  0  0  0  0  0  0
  -26.2780  -15.7130   20.0730 H   0  0  0  0  0  0  0  0  0  0  0  0
  -28.8730  -23.8960   20.4460 C   0  0  0  0  0  0  0  0  0  0  0  0
  -28.7750  -22.6510   19.8600 N   0  0  0  0  0  0  0  0  0  0  0  0
  -29.1910  -24.0380   21.6300 O   0  0  0  0  0  0  0  0  0  0  0  0
  -28.4070  -22.6980   18.9180 H   0  0  0  0  0  0  0  0  0  0  0  0
  -28.5630  -25.1840   19.5640 C   0  0  0  0  0  2  0  0  0  0  0  0
  -28.4510  -26.5030   20.2580 O   0  0  0  0  0  0  0  0  0  0  0  0
  -24.6310  -31.8790   23.2200 C   0  0  0  0  0  0  0  0  0  0  0  0
  -27.3070  -27.3220   20.1820 C   0  0  0  0  0  0  0  0  0  0  0  0
  -23.4530  -30.4640   21.5760 C   0  0  0  0  0  3  0  0  0  0  0  0
  -24.9250  -28.9250   20.1640 C   0  0  0  0  0  0  0  0  0  0  0  0
  -25.9920  -30.8020   21.4110 C   0  0  0  0  0  2  0  0  0  0  0  0
  -26.0870  -29.4210   20.7670 C   0  0  0  0  0  0  0  0  0  0  0  0
  -27.2760  -28.6290   20.7700 C   0  0  0  0  0  3  0  0  0  0  0  0
  -26.1090  -26.8820   19.5690 C   0  0  0  0  0  3  0  0  0  0  0  0
  -24.9400  -27.6610   19.5620 C   0  0  0  0  0  3  0  0  0  0  0  0
  -23.6820  -29.7890   20.2000 C   0  0  0  0  0  2  0  0  0  0  0  0
  -24.7100  -31.0660   22.1260 N   0  0  0  0  0  0  0  0  0  0  0  0
  -23.5390  -32.1470   23.7440 O   0  0  0  0  0  0  0  0  0  0  0  0
  -22.7930  -29.4420   22.5330 C   0  0  0  0  0  0  0  0  0  0  0  0
  -21.4660  -29.2690   22.4130 N   0  0  0  0  0  0  0  0  0  0  0  0
  -23.4740  -28.8110   23.3450 O   0  0  0  0  0  0  0  0  0  0  0  0
  -20.9740  -29.8310   21.7320 H   0  0  0  0  0  0  0  0  0  0  0  0
  -18.0870  -28.0880   22.9340 C   0  0  0  0  0  0  0  0  0  0  0  0
  -20.6490  -28.3300   23.1830 C   0  0  0  0  0  3  0  0  0  0  0  0
  -20.7360  -26.9020   22.5970 C   0  0  0  0  0  2  0  0  0  0  0  0
  -19.6240  -26.5940   21.5900 C   0  0  0  0  0  2  0  0  0  0  0  0
  -18.2490  -26.7430   22.2470 C   0  0  0  0  0  2  0  0  0  0  0  0
  -19.2130  -28.8400   23.3600 C   0  0  0  0  0  0  0  0  0  0  0  0
  -19.0070  -30.1000   23.9630 C   0  0  0  0  0  3  0  0  0  0  0  0
  -17.7060  -30.6070   24.1450 C   0  0  0  0  0  3  0  0  0  0  0  0
  -16.5940  -29.8510   23.7350 C   0  0  0  0  0  3  0  0  0  0  0  0
  -16.7850  -28.5940   23.1350 C   0  0  0  0  0  3  0  0  0  0  0  0
  -25.9020  -32.5260   23.8490 C   0  0  0  0  0  3  0  0  0  0  0  0
  -25.5700  -33.9190   24.1830 N   0  0  0  0  0  0  0  0  0  0  0  0
  -25.8820  -34.9790   23.4250 C   0  0  0  0  0  0  0  0  0  0  0  0
  -26.5470  -34.8890   22.3910 O   0  0  0  0  0  0  0  0  0  0  0  0
  -24.9780  -34.0610   24.9880 H   0  0  0  0  0  0  0  0  0  0  0  0
  -24.1180  -36.7430   23.0930 C   0  0  0  0  0  1  0  0  0  0  0  0
  -25.3760  -36.3590   23.8890 C   0  0  0  0  0  3  0  0  0  0  0  0
  -27.5060  -37.2810   24.6910 C   0  0  0  0  0  1  0  0  0  0  0  0
  -26.3880  -37.4300   23.7630 N   0  0  0  0  0  0  0  0  0  0  0  0
  -25.9680  -38.3430   23.9160 H   0  0  0  0  0  0  0  0  0  0  0  0
  -26.4230  -31.7570   25.1270 C   0  0  1  0  0  0  0  0  0  0  0  0
  -25.3290  -31.5060   26.1910 C   0  0  0  0  0  1  0  0  0  0  0  0
  -27.0220  -30.3860   24.7350 C   0  0  0  0  0  1  0  0  0  0  0  0
  -27.5610  -32.5640   25.7940 C   0  0  0  0  0  1  0  0  0  0  0  0
  1 18  1  0
  2  7  1  0
  3  4  1  0
  3  2  1  0
  5  4  1  0
  5 23  1  0
  5  6  1  0
  7  1  1  0
  7  6  1  0
  8  1  2  0
  9 11  2  0
  9 13  1  0
 10 14  1  0
 11 12  1  0
 12 16  1  0
 12 14  2  0
 13 10  2  0
 14 19  1  0
 15 11  1  0
 17 15  1  0
 17 18  1  0
 18 16  1  0
 20 21  2  0
 21 40  1  0
 22 21  1  0
 22 25  1  0
 23 20  1  0
 23 24  1  0
 24 22  2  0
 25 26  1  0
 26 27  2  0
 28 31  1  0
 28 27  1  0
 29 28  2  0
 30 29  1  0
 30 25  2  0
 31 32  1  0
 32 33  1  0
 33 34  2  0
 35 34  1  0
 35 39  1  0
 36 35  2  0
 37 32  2  0
 37 36  1  0
 38 37  1  0
 40 41  1  0
 41 44  1  0
 41 43  1  0
 42 40  2  0
 45 46  1  0
 45 20  1  0
 47 45  1  0
 48 50  2  0
 49 13  1  0
 49 48  1  0
 51 49  1  0
 52 53  1  0
 52 48  1  0
 54 65  2  0
 55 53  1  0
 55 60  1  0
 56 64  1  0
 56 66  1  0
 57 63  1  0
 57 59  1  0
 58 64  1  0
 59 60  2  0
 59 58  1  0
 61 55  2  0
 62 61  1  0
 62 57  2  0
 63 56  1  0
 64 54  1  0
 66 68  2  0
 67 66  1  0
 69 67  1  0
 70 79  2  0
 70 75  1  0
 71 67  1  0
 71 75  1  0
 72 71  1  0
 73 74  1  0
 73 72  1  0
 74 70  1  0
 75 76  2  0
 76 77  1  0
 78 77  2  0
 79 78  1  0
 80 54  1  0
 80 81  1  0
 80 90  1  0
 81 84  1  0
 82 86  1  0
 82 81  1  0
 83 82  2  0
 86 85  1  0
 88 86  1  0
 88 89  1  0
 88 87  1  0
 90 93  1  1
 90 91  1  0
 92 90  1  0
M  ISO  4   1 100  18 100  52 101  53 101
M  END
>  <TORSDO>  (43) 
F 17

>  <SCORE>  (43) 
-15.379

>  <name>  (43) 
42

>  <ligand_id>  (43) 
42

>  <original_smiles>  (43) 
[H]c1c([H])c([H])c2c(c1[H])C([H])([H])C([H])([H])C([H])([H])C2([H])N([H])C(=O)C1([H])N(C(=O)C([H])(N([H])C(=O)C([H])(N([H])C([H])([H])[H])C([H])([H])[H])C(C([H])([H])[H])(C([H])([H])[H])C([H])([H])[H])C([H])([H])c2c([H])c(OC([H])([H])C(=O)N([H])c3c([H])c(F)c4c(c3[H])C([H])([H])C([H])([H])N(C(=O)N3C([H])([H])C([H])([H])C([H])([H])C([H])(n5nc(-c6c([H])c([H])c(Oc7c([H])c([H])c(F)c([H])c7F)c([H])c6[H])c(C(=O)N([H])[H])c5N([H])[H])C3([H])[H])C4([H])[H])c([H])c([H])c2C1([H])[H]

>  <smiles>  (43) 
[H]c1c([H])c([H])c2c(c1[H])C([H])([H])C([H])([H])C([H])([H])C2([H])N([H])C(=O)C1([H])N(C(=O)C([H])(N([H])C(=O)C([H])(N([H])C([H])([H])[H])C([H])([H])[H])C(C([H])([H])[H])(C([H])([H])[H])C([H])([H])[H])C([H])([H])c2c([H])c(OC([H])([H])C(=O)N([H])c3c([H])c(F)c4c(c3[H])C([H])([H])C([H])([H])N(C(=O)N3C([H])([H])C([H])([H])C([H])([H])C([H])(n5nc(-c6c([H])c([H])c(Oc7c([H])c([H])c(F)c([H])c7F)c([H])c6[H])c(C(=O)N([H])[H])c5N([H])[H])C3([H])[H])C4([H])[H])c([H])c([H])c2C1([H])[H]

$$$$
43:0:0
     RDKit          3D

 90 99  0  0  1  0  0  0  0  0999 V2000
  -29.0520  -23.1790   20.5550 C   0  0  0  0  0  0  0  0  0  0  0  0
  -27.0450  -23.6100   19.4490 C   0  0  0  0  0  2  0  0  0  0  0  0
  -27.2940  -22.0630   19.6930 C   0  0  0  0  0  2  0  0  0  0  0  0
  -27.9210  -24.4120   20.4350 C   0  0  0  0  0  3  0  0  0  0  0  0
  -28.6440  -21.8340   20.2410 N   0  0  0  0  0  0  0  0  0  0  0  0
  -30.1970  -23.4450   20.9320 O   0  0  0  0  0  0  0  0  0  0  0  0
  -30.4200  -15.2570   20.2570 C   0  0  0  0  0  0  0  0  0  0  0  0
  -30.3830  -12.8380   19.3580 C   0  0  0  0  0  2  0  0  0  0  0  0
  -29.4370  -12.6730   18.1430 C   0  0  0  0  0  2  0  0  0  0  0  0
  -27.9910  -12.4140   18.6040 C   0  0  0  0  0  2  0  0  0  0  0  0
  -27.5650  -13.3630   19.7520 C   0  0  0  0  0  3  0  0  0  0  0  0
  -28.6340  -13.4720   20.8600 C   0  0  0  0  0  2  0  0  0  0  0  0
  -29.8630  -13.9570   20.2140 N   0  0  0  0  0  0  0  0  0  0  0  0
  -31.6360  -15.2890   20.0150 O   0  0  0  0  0  0  0  0  0  0  0  0
  -28.6860  -19.1400   20.2100 C   0  0  0  0  0  3  0  0  0  0  0  0
  -29.7270  -18.0510   20.3470 C   0  0  0  0  0  0  0  0  0  0  0  0
  -29.2340  -20.4690   20.3250 C   0  0  0  0  0  0  0  0  0  0  0  0
  -30.8530  -18.7630   20.5260 N   0  0  0  0  0  0  0  0  0  0  0  0
  -29.5960  -16.4650   20.3410 N   0  0  0  0  0  0  0  0  0  0  0  0
  -30.5710  -20.1800   20.5260 O   0  0  0  0  0  0  0  0  0  0  0  0
  -28.6300  -16.1910   20.4060 H   0  0  0  0  0  0  0  0  0  0  0  0
  -25.2060  -13.9160   20.5570 C   0  0  0  0  0  0  0  0  0  0  0  0
  -24.1510  -13.1330   20.9340 C   0  0  0  0  0  0  0  0  0  0  0  0
  -24.6160  -11.7840   20.8700 C   0  0  0  0  0  0  0  0  0  0  0  0
  -26.2440  -13.0440   20.2780 N   0  0  0  0  0  0  0  0  0  0  0  0
  -25.9010  -11.7550   20.5350 N   0  0  0  0  0  0  0  0  0  0  0  0
  -23.8920  -10.5180   21.0490 C   0  0  0  0  0  0  0  0  0  0  0  0
  -24.3190   -9.5470   21.9810 C   0  0  0  0  0  3  0  0  0  0  0  0
  -23.5920   -8.3490   22.1500 C   0  0  0  0  0  3  0  0  0  0  0  0
  -22.4240   -8.1130   21.3870 C   0  0  0  0  0  0  0  0  0  0  0  0
  -22.0160   -9.0730   20.4440 C   0  0  0  0  0  3  0  0  0  0  0  0
  -22.7440  -10.2620   20.2730 C   0  0  0  0  0  3  0  0  0  0  0  0
  -21.6690   -6.9670   21.4650 O   0  0  0  0  0  0  0  0  0  0  0  0
  -21.5890   -6.2370   22.6230 C   0  0  0  0  0  0  0  0  0  0  0  0
  -21.0900   -6.7930   23.8210 C   0  0  0  0  0  3  0  0  0  0  0  0
  -20.9590   -5.9870   24.9700 C   0  0  0  0  0  3  0  0  0  0  0  0
  -21.3150   -4.6270   24.9220 C   0  0  0  0  0  0  0  0  0  0  0  0
  -21.8070   -4.0700   23.7280 C   0  0  0  0  0  3  0  0  0  0  0  0
  -21.9400   -4.8720   22.5810 C   0  0  0  0  0  0  0  0  0  0  0  0
  -22.3950   -4.3260   21.4280 F   0  0  0  0  0  0  0  0  0  0  0  0
  -21.1830   -3.8500   26.0230 F   0  0  0  0  0  0  0  0  0  0  0  0
  -22.7590  -13.6060   21.2330 C   0  0  0  0  0  0  0  0  0  0  0  0
  -22.0440  -12.8970   22.1000 N   0  0  0  0  0  0  0  0  0  0  0  0
  -22.3140  -14.6400   20.7350 O   0  0  0  0  0  0  0  0  0  0  0  0
  -22.4180  -12.0620   22.5250 H   0  0  0  0  0  0  0  0  0  0  0  0
  -21.1100  -13.1960   22.3430 H   0  0  0  0  0  0  0  0  0  0  0  0
  -25.3620  -15.2900   20.3970 N   0  0  0  0  0  0  0  0  0  0  0  0
  -24.5840  -15.9290   20.5200 H   0  0  0  0  0  0  0  0  0  0  0  0
  -26.1710  -15.7320   19.9840 H   0  0  0  0  0  0  0  0  0  0  0  0
  -28.1980  -26.0110   20.2770 O   0  0  0  0  0  0  0  0  0  0  0  0
  -24.6320  -31.9250   23.2560 C   0  0  0  0  0  0  0  0  0  0  0  0
  -27.1750  -27.0790   20.2490 C   0  0  0  0  0  0  0  0  0  0  0  0
  -23.4330  -30.5330   21.6180 C   0  0  0  0  0  3  0  0  0  0  0  0
  -24.8770  -28.9320   20.2000 C   0  0  0  0  0  0  0  0  0  0  0  0
  -25.9980  -30.7490   21.4720 C   0  0  0  0  0  2  0  0  0  0  0  0
  -26.0640  -29.3420   20.8200 C   0  0  0  0  0  0  0  0  0  0  0  0
  -27.2110  -28.4370   20.8210 C   0  0  0  0  0  3  0  0  0  0  0  0
  -25.9630  -26.8150   19.5760 C   0  0  0  0  0  3  0  0  0  0  0  0
  -24.8480  -27.6860   19.5590 C   0  0  0  0  0  3  0  0  0  0  0  0
  -23.6610  -29.8510   20.2420 C   0  0  0  0  0  2  0  0  0  0  0  0
  -24.7090  -31.0950   22.1690 N   0  0  0  0  0  0  0  0  0  0  0  0
  -23.5440  -32.2180   23.7770 O   0  0  0  0  0  0  0  0  0  0  0  0
  -22.7380  -29.5370   22.5810 C   0  0  0  0  0  0  0  0  0  0  0  0
  -21.4080  -29.3730   22.4500 N   0  0  0  0  0  0  0  0  0  0  0  0
  -23.4000  -28.9120   23.4130 O   0  0  0  0  0  0  0  0  0  0  0  0
  -20.9290  -29.9280   21.7550 H   0  0  0  0  0  0  0  0  0  0  0  0
  -18.0210  -28.1790   22.9510 C   0  0  0  0  0  0  0  0  0  0  0  0
  -20.5810  -28.4400   23.2200 C   0  0  0  0  0  3  0  0  0  0  0  0
  -20.6800  -27.0050   22.6490 C   0  0  0  0  0  2  0  0  0  0  0  0
  -19.5790  -26.6840   21.6330 C   0  0  0  0  0  2  0  0  0  0  0  0
  -18.1960  -26.8300   22.2740 C   0  0  0  0  0  2  0  0  0  0  0  0
  -19.1400  -28.9420   23.3810 C   0  0  0  0  0  0  0  0  0  0  0  0
  -18.9200  -30.2030   23.9770 C   0  0  0  0  0  3  0  0  0  0  0  0
  -17.6140  -30.7020   24.1450 C   0  0  0  0  0  3  0  0  0  0  0  0
  -16.5100  -29.9370   23.7290 C   0  0  0  0  0  3  0  0  0  0  0  0
  -16.7140  -28.6780   23.1380 C   0  0  0  0  0  3  0  0  0  0  0  0
  -25.9070  -32.5600   23.8890 C   0  0  0  0  0  3  0  0  0  0  0  0
  -25.5940  -33.9600   24.2270 N   0  0  0  0  0  0  0  0  0  0  0  0
  -25.8940  -35.0190   23.4630 C   0  0  0  0  0  0  0  0  0  0  0  0
  -26.5280  -34.9210   22.4090 O   0  0  0  0  0  0  0  0  0  0  0  0
  -25.0250  -34.1090   25.0460 H   0  0  0  0  0  0  0  0  0  0  0  0
  -24.1330  -36.7990   23.1970 C   0  0  0  0  0  1  0  0  0  0  0  0
  -25.4190  -36.4060   23.9410 C   0  0  0  0  0  3  0  0  0  0  0  0
  -27.5820  -37.3220   24.6600 C   0  0  0  0  0  1  0  0  0  0  0  0
  -26.4340  -37.4690   23.7700 N   0  0  0  0  0  0  0  0  0  0  0  0
  -26.0250  -38.3870   23.9280 H   0  0  0  0  0  0  0  0  0  0  0  0
  -26.4100  -31.7910   25.1720 C   0  0  1  0  0  0  0  0  0  0  0  0
  -25.3080  -31.5590   26.2330 C   0  0  0  0  0  1  0  0  0  0  0  0
  -26.9940  -30.4100   24.7950 C   0  0  0  0  0  1  0  0  0  0  0  0
  -27.5570  -32.5840   25.8420 C   0  0  0  0  0  1  0  0  0  0  0  0
  1  6  2  0
  2  3  1  0
  2  4  1  0
  3  5  1  0
  4 50  1  0
  4  1  1  0
  5 17  1  0
  5  1  1  0
  7 19  1  0
  8 13  1  0
  9 10  1  0
  9  8  1  0
 11 10  1  0
 11 25  1  0
 11 12  1  0
 13  7  1  0
 13 12  1  0
 14  7  2  0
 15 17  2  0
 15 16  1  0
 16 18  2  0
 17 20  1  0
 19 16  1  0
 19 21  1  0
 20 18  1  0
 22 23  2  0
 23 42  1  0
 24 23  1  0
 24 27  1  0
 25 26  1  0
 25 22  1  0
 26 24  2  0
 27 28  1  0
 28 29  2  0
 30 33  1  0
 30 29  1  0
 31 30  2  0
 32 31  1  0
 32 27  2  0
 33 34  1  0
 34 35  1  0
 35 36  2  0
 37 36  1  0
 37 41  1  0
 38 37  2  0
 39 34  2  0
 39 38  1  0
 40 39  1  0
 42 43  1  0
 43 46  1  0
 43 45  1  0
 44 42  2  0
 47 48  1  0
 47 22  1  0
 49 47  1  0
 51 62  2  0
 52 50  1  0
 52 57  1  0
 53 61  1  0
 53 63  1  0
 54 60  1  0
 54 56  1  0
 55 61  1  0
 56 57  2  0
 56 55  1  0
 58 52  2  0
 59 58  1  0
 59 54  2  0
 60 53  1  0
 61 51  1  0
 63 65  2  0
 64 63  1  0
 66 64  1  0
 67 76  2  0
 67 72  1  0
 68 64  1  0
 68 72  1  0
 69 68  1  0
 70 71  1  0
 70 69  1  0
 71 67  1  0
 72 73  2  0
 73 74  1  0
 75 74  2  0
 76 75  1  0
 77 51  1  0
 77 78  1  0
 77 87  1  0
 78 81  1  0
 79 83  1  0
 79 78  1  0
 80 79  2  0
 83 82  1  0
 85 86  1  0
 85 83  1  0
 85 84  1  0
 87 90  1  1
 87 88  1  0
 89 87  1  0
M  ISO  4   4 101   7 100  19 100  50 101
M  END
>  <TORSDO>  (44) 
F 16

>  <SCORE>  (44) 
-15.615

>  <name>  (44) 
43

>  <ligand_id>  (44) 
43

>  <original_smiles>  (44) 
[H]c1c(N([H])C(=O)N2C([H])([H])C([H])([H])C([H])([H])C([H])(n3nc(-c4c([H])c([H])c(Oc5c([H])c([H])c(F)c([H])c5F)c([H])c4[H])c(C(=O)N([H])[H])c3N([H])[H])C2([H])[H])noc1N1C(=O)C([H])(Oc2c([H])c([H])c3c(c2[H])C([H])([H])N(C(=O)C([H])(N([H])C(=O)C([H])(N([H])C([H])([H])[H])C([H])([H])[H])C(C([H])([H])[H])(C([H])([H])[H])C([H])([H])[H])C([H])(C(=O)N([H])C2([H])c4c([H])c([H])c([H])c([H])c4C([H])([H])C([H])([H])C2([H])[H])C3([H])[H])C([H])([H])C1([H])[H]

>  <smiles>  (44) 
[H]c1c(N([H])C(=O)N2C([H])([H])C([H])([H])C([H])([H])C([H])(n3nc(-c4c([H])c([H])c(Oc5c([H])c([H])c(F)c([H])c5F)c([H])c4[H])c(C(=O)N([H])[H])c3N([H])[H])C2([H])[H])noc1N1C(=O)C([H])(Oc2c([H])c([H])c3c(c2[H])C([H])([H])N(C(=O)C([H])(N([H])C(=O)C([H])(N([H])C([H])([H])[H])C([H])([H])[H])C(C([H])([H])[H])(C([H])([H])[H])C([H])([H])[H])C([H])(C(=O)N([H])C2([H])c4c([H])c([H])c([H])c([H])c4C([H])([H])C([H])([H])C2([H])[H])C3([H])[H])C([H])([H])C1([H])[H]

$$$$
44:0:0
     RDKit          3D

 96104  0  0  1  0  0  0  0  0999 V2000
  -28.7290  -21.1110   20.4280 C   0  0  0  0  0  0  0  0  0  0  0  0
  -27.6060  -20.9150   21.1380 N   0  0  0  0  0  4  0  0  0  0  0  0
  -29.0480  -22.4490   20.1680 N   0  0  0  0  0  0  0  0  0  0  0  0
  -27.2500  -19.9910   21.3290 H   0  0  0  0  0  0  0  0  0  0  0  0
  -27.0490  -21.6800   21.4850 H   0  0  0  0  0  0  0  0  0  0  0  0
  -29.9200  -22.5680   19.6640 H   0  0  0  0  0  0  0  0  0  0  0  0
  -29.3650  -18.5090   20.4980 C   0  0  0  0  0  3  0  0  0  0  0  0
  -31.0840  -17.6810   19.0380 C   0  0  0  0  0  3  0  0  0  0  0  0
  -29.5280  -19.8610   19.9700 C   0  0  0  0  0  0  0  0  0  0  0  0
  -30.1320  -17.3630   20.0320 C   0  0  0  0  0  0  0  0  0  0  0  0
  -30.5040  -19.9440   18.9460 C   0  0  0  0  0  0  0  0  0  0  0  0
  -31.2650  -18.9170   18.5230 N   0  0  0  0  0  0  0  0  0  0  0  0
  -30.7810  -21.1230   18.2660 N   0  0  0  0  0  0  0  0  0  0  0  0
  -29.9630  -21.5520   17.8510 H   0  0  0  0  0  0  0  0  0  0  0  0
  -31.4770  -20.9890   17.5420 H   0  0  0  0  0  0  0  0  0  0  0  0
  -30.6940  -14.8100   20.1850 C   0  0  0  0  0  0  0  0  0  0  0  0
  -30.4650  -12.5450   19.1690 C   0  0  0  0  0  2  0  0  0  0  0  0
  -29.5010  -12.6460   17.9650 C   0  0  0  0  0  2  0  0  0  0  0  0
  -28.0400  -12.4730   18.4260 C   0  0  0  0  0  2  0  0  0  0  0  0
  -27.6980  -13.3410   19.6670 C   0  0  0  0  0  3  0  0  0  0  0  0
  -28.7820  -13.2340   20.7620 C   0  0  0  0  0  2  0  0  0  0  0  0
  -30.0670  -13.5860   20.1460 N   0  0  0  0  0  0  0  0  0  0  0  0
  -31.8700  -14.9010   19.8260 O   0  0  0  0  0  0  0  0  0  0  0  0
  -29.9360  -15.9450   20.4610 N   0  0  0  0  0  0  0  0  0  0  0  0
  -29.0460  -15.7430   20.8920 H   0  0  0  0  0  0  0  0  0  0  0  0
  -25.3270  -13.9250   20.4500 C   0  0  0  0  0  0  0  0  0  0  0  0
  -24.2710  -13.1460   20.8400 C   0  0  0  0  0  0  0  0  0  0  0  0
  -24.7350  -11.7960   20.7910 C   0  0  0  0  0  0  0  0  0  0  0  0
  -26.3670  -13.0480   20.1850 N   0  0  0  0  0  0  0  0  0  0  0  0
  -26.0200  -11.7630   20.4530 N   0  0  0  0  0  0  0  0  0  0  0  0
  -24.0150  -10.5320   20.9880 C   0  0  0  0  0  0  0  0  0  0  0  0
  -24.4560   -9.5670   21.9210 C   0  0  0  0  0  3  0  0  0  0  0  0
  -23.7350   -8.3680   22.1070 C   0  0  0  0  0  3  0  0  0  0  0  0
  -22.5580   -8.1250   21.3600 C   0  0  0  0  0  0  0  0  0  0  0  0
  -22.1360   -9.0780   20.4150 C   0  0  0  0  0  3  0  0  0  0  0  0
  -22.8580  -10.2680   20.2280 C   0  0  0  0  0  3  0  0  0  0  0  0
  -21.8070   -6.9780   21.4540 O   0  0  0  0  0  0  0  0  0  0  0  0
  -21.7530   -6.2480   22.6140 C   0  0  0  0  0  0  0  0  0  0  0  0
  -21.2970   -6.8080   23.8270 C   0  0  0  0  0  3  0  0  0  0  0  0
  -21.1920   -6.0030   24.9790 C   0  0  0  0  0  3  0  0  0  0  0  0
  -21.5320   -4.6390   24.9180 C   0  0  0  0  0  0  0  0  0  0  0  0
  -21.9790   -4.0770   23.7100 C   0  0  0  0  0  3  0  0  0  0  0  0
  -22.0860   -4.8790   22.5600 C   0  0  0  0  0  0  0  0  0  0  0  0
  -22.4980   -4.3280   21.3930 F   0  0  0  0  0  0  0  0  0  0  0  0
  -21.4230   -3.8630   26.0220 F   0  0  0  0  0  0  0  0  0  0  0  0
  -22.8790  -13.6200   21.1440 C   0  0  0  0  0  0  0  0  0  0  0  0
  -22.1680  -12.9150   22.0150 N   0  0  0  0  0  0  0  0  0  0  0  0
  -22.4320  -14.6510   20.6430 O   0  0  0  0  0  0  0  0  0  0  0  0
  -22.5450  -12.0810   22.4420 H   0  0  0  0  0  0  0  0  0  0  0  0
  -21.2340  -13.2130   22.2600 H   0  0  0  0  0  0  0  0  0  0  0  0
  -25.4850  -15.2960   20.2760 N   0  0  0  0  0  0  0  0  0  0  0  0
  -24.7130  -15.9440   20.3980 H   0  0  0  0  0  0  0  0  0  0  0  0
  -26.3120  -15.7340   19.8920 H   0  0  0  0  0  0  0  0  0  0  0  0
  -28.4070  -23.7780   20.6370 C   0  0  0  0  0  2  0  0  0  0  0  0
  -28.5570  -25.1120   19.7300 C   0  0  0  0  0  2  0  0  0  0  0  0
  -28.4420  -26.5050   20.2870 O   0  0  0  0  0  0  0  0  0  0  0  0
  -24.6320  -31.9010   23.2490 C   0  0  0  0  0  0  0  0  0  0  0  0
  -27.3010  -27.3330   20.2060 C   0  0  0  0  0  0  0  0  0  0  0  0
  -23.4550  -30.5010   21.5910 C   0  0  0  0  0  3  0  0  0  0  0  0
  -24.9280  -28.9550   20.1750 C   0  0  0  0  0  0  0  0  0  0  0  0
  -25.9950  -30.8250   21.4370 C   0  0  0  0  0  2  0  0  0  0  0  0
  -26.0890  -29.4450   20.7860 C   0  0  0  0  0  0  0  0  0  0  0  0
  -27.2730  -28.6450   20.7890 C   0  0  0  0  0  3  0  0  0  0  0  0
  -26.1110  -26.9000   19.5800 C   0  0  0  0  0  3  0  0  0  0  0  0
  -24.9430  -27.6920   19.5630 C   0  0  0  0  0  3  0  0  0  0  0  0
  -23.6880  -29.8280   20.2120 C   0  0  0  0  0  2  0  0  0  0  0  0
  -24.7130  -31.0940   22.1480 N   0  0  0  0  0  0  0  0  0  0  0  0
  -23.5410  -32.1710   23.7720 O   0  0  0  0  0  0  0  0  0  0  0  0
  -22.7860  -29.4790   22.5430 C   0  0  0  0  0  0  0  0  0  0  0  0
  -21.4590  -29.3090   22.4160 N   0  0  0  0  0  0  0  0  0  0  0  0
  -23.4620  -28.8420   23.3560 O   0  0  0  0  0  0  0  0  0  0  0  0
  -20.9730  -29.8750   21.7340 H   0  0  0  0  0  0  0  0  0  0  0  0
  -18.0730  -28.1370   22.9210 C   0  0  0  0  0  0  0  0  0  0  0  0
  -20.6360  -28.3690   23.1770 C   0  0  0  0  0  3  0  0  0  0  0  0
  -20.7200  -26.9440   22.5800 C   0  0  0  0  0  2  0  0  0  0  0  0
  -19.6080  -26.6480   21.5690 C   0  0  0  0  0  2  0  0  0  0  0  0
  -18.2320  -26.7970   22.2240 C   0  0  0  0  0  2  0  0  0  0  0  0
  -19.2010  -28.8820   23.3560 C   0  0  0  0  0  0  0  0  0  0  0  0
  -18.9980  -30.1370   23.9690 C   0  0  0  0  0  3  0  0  0  0  0  0
  -17.6990  -30.6470   24.1510 C   0  0  0  0  0  3  0  0  0  0  0  0
  -16.5850  -29.9000   23.7330 C   0  0  0  0  0  3  0  0  0  0  0  0
  -16.7730  -28.6460   23.1240 C   0  0  0  0  0  3  0  0  0  0  0  0
  -25.9040  -32.5410   23.8860 C   0  0  0  0  0  3  0  0  0  0  0  0
  -26.4010  -31.7790   25.1760 C   0  0  1  0  0  0  0  0  0  0  0  0
  -25.2920  -31.5460   26.2290 C   0  0  0  0  0  1  0  0  0  0  0  0
  -26.9930  -30.4000   24.8040 C   0  0  0  0  0  1  0  0  0  0  0  0
  -27.5380  -32.5800   25.8530 C   0  0  0  0  0  1  0  0  0  0  0  0
  -25.5850  -33.9400   24.2060 N   0  0  0  0  0  0  0  0  0  0  0  0
  -25.9140  -34.9910   23.4430 C   0  0  0  0  0  0  0  0  0  0  0  0
  -26.5880  -34.8850   22.4150 O   0  0  0  0  0  0  0  0  0  0  0  0
  -24.9880  -34.0960   25.0040 H   0  0  0  0  0  0  0  0  0  0  0  0
  -24.1820  -36.7780   23.0730 C   0  0  0  0  0  1  0  0  0  0  0  0
  -25.4210  -36.3800   23.8920 C   0  0  0  0  0  3  0  0  0  0  0  0
  -27.5460  -37.2810   24.7330 C   0  0  0  0  0  1  0  0  0  0  0  0
  -26.4500  -37.4370   23.7800 N   0  0  0  0  0  0  0  0  0  0  0  0
  -26.0390  -38.3560   23.9170 H   0  0  0  0  0  0  0  0  0  0  0  0
  1  2  2  0
  2  4  1  0
  2  5  1  0
  3  1  1  0
  3 54  1  0
  6  3  1  0
  8 10  2  0
  9  1  1  0
  9  7  2  0
 10 24  1  0
 10  7  1  0
 11  9  1  0
 12 11  2  0
 12  8  1  0
 13 11  1  0
 14 13  1  0
 15 13  1  0
 16 24  1  0
 17 22  1  0
 18 19  1  0
 18 17  1  0
 20 19  1  0
 20 29  1  0
 20 21  1  0
 22 16  1  0
 22 21  1  0
 23 16  2  0
 24 25  1  0
 26 27  2  0
 27 46  1  0
 28 27  1  0
 28 31  1  0
 29 26  1  0
 29 30  1  0
 30 28  2  0
 31 32  1  0
 32 33  2  0
 34 37  1  0
 34 33  1  0
 35 34  2  0
 36 35  1  0
 36 31  2  0
 37 38  1  0
 38 39  1  0
 39 40  2  0
 41 40  1  0
 41 45  1  0
 42 41  2  0
 43 38  2  0
 43 42  1  0
 44 43  1  0
 46 47  1  0
 47 50  1  0
 47 49  1  0
 48 46  2  0
 51 52  1  0
 51 26  1  0
 53 51  1  0
 55 56  1  0
 55 54  1  0
 57 68  2  0
 58 56  1  0
 58 63  1  0
 59 67  1  0
 59 69  1  0
 60 66  1  0
 60 62  1  0
 61 67  1  0
 62 63  2  0
 62 61  1  0
 64 58  2  0
 65 64  1  0
 65 60  2  0
 66 59  1  0
 67 57  1  0
 69 71  2  0
 70 69  1  0
 72 70  1  0
 73 82  2  0
 73 78  1  0
 74 70  1  0
 74 78  1  0
 75 74  1  0
 76 77  1  0
 76 75  1  0
 77 73  1  0
 78 79  2  0
 79 80  1  0
 81 80  2  0
 82 81  1  0
 83 57  1  0
 83 88  1  0
 83 84  1  0
 84 87  1  1
 84 85  1  0
 86 84  1  0
 88 91  1  0
 89 93  1  0
 89 88  1  0
 90 89  2  0
 93 92  1  0
 95 93  1  0
 95 96  1  0
 95 94  1  0
M  ISO  4  16 100  24 100  55 101  56 101
M  END
>  <TORSDO>  (45) 
F 19

>  <SCORE>  (45) 
-14.242

>  <name>  (45) 
44

>  <ligand_id>  (45) 
44

>  <original_smiles>  (45) 
[H]c1nc(N([H])[H])c(C(N([H])[H])=[N+]([H])C([H])([H])C([H])([H])Oc2c([H])c([H])c3c(c2[H])C([H])([H])N(C(=O)C([H])(N([H])C(=O)C([H])(N([H])C([H])([H])[H])C([H])([H])[H])C(C([H])([H])[H])(C([H])([H])[H])C([H])([H])[H])C([H])(C(=O)N([H])C2([H])c4c([H])c([H])c([H])c([H])c4C([H])([H])C([H])([H])C2([H])[H])C3([H])[H])c([H])c1N([H])C(=O)N1C([H])([H])C([H])([H])C([H])([H])C([H])(n2nc(-c3c([H])c([H])c(Oc4c([H])c([H])c(F)c([H])c4F)c([H])c3[H])c(C(=O)N([H])[H])c2N([H])[H])C1([H])[H]

>  <smiles>  (45) 
[H]c1nc(N([H])[H])c(C(N([H])[H])=[N+]([H])C([H])([H])C([H])([H])Oc2c([H])c([H])c3c(c2[H])C([H])([H])N(C(=O)C([H])(N([H])C(=O)C([H])(N([H])C([H])([H])[H])C([H])([H])[H])C(C([H])([H])[H])(C([H])([H])[H])C([H])([H])[H])C([H])(C(=O)N([H])C2([H])c4c([H])c([H])c([H])c([H])c4C([H])([H])C([H])([H])C2([H])[H])C3([H])[H])c([H])c1N([H])C(=O)N1C([H])([H])C([H])([H])C([H])([H])C([H])(n2nc(-c3c([H])c([H])c(Oc4c([H])c([H])c(F)c([H])c4F)c([H])c3[H])c(C(=O)N([H])[H])c2N([H])[H])C1([H])[H]

$$$$
45:0:0
     RDKit          3D

 95104  0  0  1  0  0  0  0  0999 V2000
  -29.0490  -21.4120   20.6800 C   0  0  0  0  0  3  0  0  0  0  0  0
  -27.6120  -23.5470   20.4400 C   0  0  0  0  0  2  0  0  0  0  0  0
  -29.5260  -23.8340   19.9610 C   0  0  0  0  0  2  0  0  0  0  0  0
  -28.2840  -24.7980   19.7480 C   0  0  0  0  0  3  0  0  0  0  0  0
  -28.6920  -22.5850   19.9960 N   0  0  0  0  0  0  0  0  0  0  0  0
  -29.1420  -21.5730   22.0120 N   0  0  0  0  0  0  0  0  0  0  0  0
  -29.4560  -20.8090   22.5880 H   0  0  0  0  0  0  0  0  0  0  0  0
  -28.9610  -22.4530   22.4680 H   0  0  0  0  0  0  0  0  0  0  0  0
  -29.2620  -18.6490   20.9430 C   0  0  0  0  0  3  0  0  0  0  0  0
  -29.3880  -19.9280   20.2020 C   0  0  0  0  0  0  0  0  0  0  0  0
  -29.8090  -17.5530   20.2300 C   0  0  0  0  0  0  0  0  0  0  0  0
  -29.9760  -19.4690   19.0390 C   0  0  0  0  0  0  0  0  0  0  0  0
  -30.2460  -18.0900   19.0330 O   0  0  0  0  0  0  0  0  0  0  0  0
  -30.5450  -14.9960   20.2040 C   0  0  0  0  0  0  0  0  0  0  0  0
  -30.4000  -12.6490   19.2660 C   0  0  0  0  0  2  0  0  0  0  0  0
  -29.4410  -12.6530   18.0530 C   0  0  0  0  0  2  0  0  0  0  0  0
  -27.9870  -12.4380   18.5170 C   0  0  0  0  0  2  0  0  0  0  0  0
  -27.6140  -13.3460   19.7170 C   0  0  0  0  0  3  0  0  0  0  0  0
  -28.6950  -13.3260   20.8210 C   0  0  0  0  0  2  0  0  0  0  0  0
  -29.9640  -13.7300   20.1960 N   0  0  0  0  0  0  0  0  0  0  0  0
  -31.7160  -15.0790   19.8140 O   0  0  0  0  0  0  0  0  0  0  0  0
  -29.7780  -16.1440   20.5440 N   0  0  0  0  0  0  0  0  0  0  0  0
  -28.9510  -15.8780   21.0550 H   0  0  0  0  0  0  0  0  0  0  0  0
  -25.2530  -13.9210   20.5210 C   0  0  0  0  0  0  0  0  0  0  0  0
  -24.1930  -13.1430   20.9000 C   0  0  0  0  0  0  0  0  0  0  0  0
  -24.6500  -11.7910   20.8350 C   0  0  0  0  0  0  0  0  0  0  0  0
  -26.2860  -13.0430   20.2400 N   0  0  0  0  0  0  0  0  0  0  0  0
  -25.9340  -11.7560   20.4940 N   0  0  0  0  0  0  0  0  0  0  0  0
  -23.9210  -10.5290   21.0180 C   0  0  0  0  0  0  0  0  0  0  0  0
  -24.3490   -9.5560   21.9480 C   0  0  0  0  0  3  0  0  0  0  0  0
  -23.6200   -8.3580   22.1220 C   0  0  0  0  0  3  0  0  0  0  0  0
  -22.4480   -8.1280   21.3640 C   0  0  0  0  0  0  0  0  0  0  0  0
  -22.0390   -9.0900   20.4230 C   0  0  0  0  0  3  0  0  0  0  0  0
  -22.7690  -10.2780   20.2470 C   0  0  0  0  0  3  0  0  0  0  0  0
  -21.6900   -6.9860   21.4490 O   0  0  0  0  0  0  0  0  0  0  0  0
  -21.6090   -6.2580   22.6090 C   0  0  0  0  0  0  0  0  0  0  0  0
  -21.1140   -6.8190   23.8080 C   0  0  0  0  0  3  0  0  0  0  0  0
  -20.9820   -6.0160   24.9580 C   0  0  0  0  0  3  0  0  0  0  0  0
  -21.3350   -4.6540   24.9110 C   0  0  0  0  0  0  0  0  0  0  0  0
  -21.8230   -4.0940   23.7170 C   0  0  0  0  0  3  0  0  0  0  0  0
  -21.9570   -4.8930   22.5680 C   0  0  0  0  0  0  0  0  0  0  0  0
  -22.4080   -4.3420   21.4160 F   0  0  0  0  0  0  0  0  0  0  0  0
  -21.2010   -3.8800   26.0130 F   0  0  0  0  0  0  0  0  0  0  0  0
  -22.8050  -13.6220   21.2110 C   0  0  0  0  0  0  0  0  0  0  0  0
  -22.0880  -12.9110   22.0750 N   0  0  0  0  0  0  0  0  0  0  0  0
  -22.3670  -14.6640   20.7270 O   0  0  0  0  0  0  0  0  0  0  0  0
  -22.4540  -12.0660   22.4870 H   0  0  0  0  0  0  0  0  0  0  0  0
  -21.1570  -13.2170   22.3270 H   0  0  0  0  0  0  0  0  0  0  0  0
  -25.4140  -15.2940   20.3620 N   0  0  0  0  0  0  0  0  0  0  0  0
  -24.6390  -15.9380   20.4780 H   0  0  0  0  0  0  0  0  0  0  0  0
  -26.2380  -15.7400   19.9820 H   0  0  0  0  0  0  0  0  0  0  0  0
  -30.3040  -20.2180   17.9170 N   0  0  0  0  0  0  0  0  0  0  0  0
  -30.0510  -21.1910   17.7780 H   0  0  0  0  0  0  0  0  0  0  0  0
  -30.5690  -19.7710   17.0450 H   0  0  0  0  0  0  0  0  0  0  0  0
  -28.2930  -26.2660   20.2660 O   0  0  0  0  0  0  0  0  0  0  0  0
  -24.6100  -31.8900   23.2470 C   0  0  0  0  0  0  0  0  0  0  0  0
  -27.2060  -27.2020   20.1920 C   0  0  0  0  0  0  0  0  0  0  0  0
  -23.4150  -30.4990   21.6000 C   0  0  0  0  0  3  0  0  0  0  0  0
  -24.8660  -28.9240   20.1760 C   0  0  0  0  0  0  0  0  0  0  0  0
  -25.9670  -30.7660   21.4440 C   0  0  0  0  0  2  0  0  0  0  0  0
  -26.0410  -29.3760   20.7880 C   0  0  0  0  0  0  0  0  0  0  0  0
  -27.2080  -28.5290   20.7820 C   0  0  0  0  0  3  0  0  0  0  0  0
  -26.0020  -26.8370   19.5530 C   0  0  0  0  0  3  0  0  0  0  0  0
  -24.8580  -27.6670   19.5470 C   0  0  0  0  0  3  0  0  0  0  0  0
  -23.6380  -29.8210   20.2220 C   0  0  0  0  0  2  0  0  0  0  0  0
  -24.6840  -31.0730   22.1520 N   0  0  0  0  0  0  0  0  0  0  0  0
  -23.5210  -32.1750   23.7710 O   0  0  0  0  0  0  0  0  0  0  0  0
  -22.7320  -29.4920   22.5590 C   0  0  0  0  0  0  0  0  0  0  0  0
  -21.4030  -29.3250   22.4260 N   0  0  0  0  0  0  0  0  0  0  0  0
  -23.4000  -28.8620   23.3820 O   0  0  0  0  0  0  0  0  0  0  0  0
  -20.9220  -29.8840   21.7360 H   0  0  0  0  0  0  0  0  0  0  0  0
  -18.0140  -28.1540   22.9320 C   0  0  0  0  0  0  0  0  0  0  0  0
  -20.5770  -28.3890   23.1910 C   0  0  0  0  0  3  0  0  0  0  0  0
  -20.6620  -26.9600   22.6030 C   0  0  0  0  0  2  0  0  0  0  0  0
  -19.5540  -26.6560   21.5900 C   0  0  0  0  0  2  0  0  0  0  0  0
  -18.1760  -26.8090   22.2430 C   0  0  0  0  0  2  0  0  0  0  0  0
  -19.1420  -28.9010   23.3640 C   0  0  0  0  0  0  0  0  0  0  0  0
  -18.9370  -30.1590   23.9710 C   0  0  0  0  0  3  0  0  0  0  0  0
  -17.6370  -30.6680   24.1500 C   0  0  0  0  0  3  0  0  0  0  0  0
  -16.5240  -29.9180   23.7330 C   0  0  0  0  0  3  0  0  0  0  0  0
  -16.7140  -28.6620   23.1300 C   0  0  0  0  0  3  0  0  0  0  0  0
  -25.8850  -32.5240   23.8820 C   0  0  0  0  0  3  0  0  0  0  0  0
  -25.5780  -33.9270   24.2020 N   0  0  0  0  0  0  0  0  0  0  0  0
  -25.9130  -34.9760   23.4410 C   0  0  0  0  0  0  0  0  0  0  0  0
  -26.5830  -34.8640   22.4110 O   0  0  0  0  0  0  0  0  0  0  0  0
  -24.9800  -34.0890   25.0010 H   0  0  0  0  0  0  0  0  0  0  0  0
  -24.1960  -36.7830   23.0810 C   0  0  0  0  0  1  0  0  0  0  0  0
  -25.4350  -36.3710   23.8940 C   0  0  0  0  0  3  0  0  0  0  0  0
  -27.5690  -37.2570   24.7290 C   0  0  0  0  0  1  0  0  0  0  0  0
  -26.4740  -37.4180   23.7740 N   0  0  0  0  0  0  0  0  0  0  0  0
  -26.0720  -38.3420   23.9050 H   0  0  0  0  0  0  0  0  0  0  0  0
  -26.3780  -31.7640   25.1750 C   0  0  1  0  0  0  0  0  0  0  0  0
  -25.2680  -31.5410   26.2300 C   0  0  0  0  0  1  0  0  0  0  0  0
  -26.9610  -30.3810   24.8080 C   0  0  0  0  0  1  0  0  0  0  0  0
  -27.5190  -32.5610   25.8480 C   0  0  0  0  0  1  0  0  0  0  0  0
  1  6  1  0
  3  5  1  0
  4  3  1  0
  4 55  1  0
  4  2  1  0
  5  2  1  0
  5  1  1  0
  6  8  1  0
  6  7  1  0
 10  1  1  0
 10  9  1  0
 11 22  1  0
 11  9  2  0
 12 10  2  0
 13 12  1  0
 13 11  1  0
 14 22  1  0
 15 20  1  0
 16 17  1  0
 16 15  1  0
 18 17  1  0
 18 27  1  0
 18 19  1  0
 20 14  1  0
 20 19  1  0
 21 14  2  0
 22 23  1  0
 24 25  2  0
 25 44  1  0
 26 25  1  0
 26 29  1  0
 27 28  1  0
 27 24  1  0
 28 26  2  0
 29 30  1  0
 30 31  2  0
 32 35  1  0
 32 31  1  0
 33 32  2  0
 34 33  1  0
 34 29  2  0
 35 36  1  0
 36 37  1  0
 37 38  2  0
 39 38  1  0
 39 43  1  0
 40 39  2  0
 41 36  2  0
 41 40  1  0
 42 41  1  0
 44 45  1  0
 45 48  1  0
 45 47  1  0
 46 44  2  0
 49 50  1  0
 49 24  1  0
 51 49  1  0
 52 12  1  0
 53 52  1  0
 54 52  1  0
 56 67  2  0
 57 55  1  0
 57 62  1  0
 58 66  1  0
 58 68  1  0
 59 65  1  0
 59 61  1  0
 60 66  1  0
 61 60  1  0
 62 61  2  0
 63 57  2  0
 64 63  1  0
 64 59  2  0
 65 58  1  0
 66 56  1  0
 68 70  2  0
 69 68  1  0
 71 69  1  0
 72 81  2  0
 72 77  1  0
 73 69  1  0
 73 77  1  0
 74 73  1  0
 75 76  1  0
 75 74  1  0
 76 72  1  0
 77 78  2  0
 78 79  1  0
 80 79  2  0
 81 80  1  0
 82 56  1  0
 82 83  1  0
 82 92  1  0
 83 86  1  0
 84 88  1  0
 84 83  1  0
 85 84  2  0
 88 87  1  0
 90 88  1  0
 90 91  1  0
 90 89  1  0
 92 95  1  1
 92 93  1  0
 94 92  1  0
M  ISO  4   4 101  14 100  22 100  55 101
M  END
>  <TORSDO>  (46) 
F 18

>  <SCORE>  (46) 
-15.004

>  <name>  (46) 
45

>  <ligand_id>  (46) 
45

>  <original_smiles>  (46) 
[H]c1c([H])c([H])c2c(c1[H])C([H])([H])C([H])([H])C([H])([H])C2([H])N([H])C(=O)C1([H])N(C(=O)C([H])(N([H])C(=O)C([H])(N([H])C([H])([H])[H])C([H])([H])[H])C(C([H])([H])[H])(C([H])([H])[H])C([H])([H])[H])C([H])([H])c2c([H])c(OC3([H])C([H])([H])N(C(c4c(N([H])[H])oc(N([H])C(=O)N5C([H])([H])C([H])([H])C([H])([H])C([H])(n6nc(-c7c([H])c([H])c(Oc8c([H])c([H])c(F)c([H])c8F)c([H])c7[H])c(C(=O)N([H])[H])c6N([H])[H])C5([H])[H])c4[H])=[N+]([H])[H])C3([H])[H])c([H])c([H])c2C1([H])[H]

>  <smiles>  (46) 
[H]c1c([H])c([H])c2c(c1[H])C([H])([H])C([H])([H])C([H])([H])C2([H])N([H])C(=O)C1([H])N(C(=O)C([H])(N([H])C(=O)C([H])(N([H])C([H])([H])[H])C([H])([H])[H])C(C([H])([H])[H])(C([H])([H])[H])C([H])([H])[H])C([H])([H])c2c([H])c(OC3([H])C([H])([H])N(C(c4c(N([H])[H])oc(N([H])C(=O)N5C([H])([H])C([H])([H])C([H])([H])C([H])(n6nc(-c7c([H])c([H])c(Oc8c([H])c([H])c(F)c([H])c8F)c([H])c7[H])c(C(=O)N([H])[H])c6N([H])[H])C5([H])[H])c4[H])=[N+]([H])[H])C3([H])[H])c([H])c([H])c2C1([H])[H]

$$$$
46:0:0
     RDKit          3D

 92101  0  0  1  0  0  0  0  0999 V2000
  -29.5940  -21.1890   20.9610 N   0  0  0  0  0  0  0  0  0  0  0  0
  -30.3440  -21.5300   21.5590 H   0  0  0  0  0  0  0  0  0  0  0  0
  -30.8230  -15.0230   21.1370 C   0  0  0  0  0  0  0  0  0  0  0  0
  -30.8780  -12.5770   20.5630 C   0  0  0  0  0  2  0  0  0  0  0  0
  -30.1380  -12.2350   19.2460 C   0  0  0  0  0  2  0  0  0  0  0  0
  -28.5910  -12.2970   19.3680 C   0  0  0  0  0  2  0  0  0  0  0  0
  -28.0170  -13.3070   20.4130 C   0  0  0  0  0  3  0  0  0  0  0  0
  -28.9050  -13.4230   21.6640 C   0  0  0  0  0  2  0  0  0  0  0  0
  -30.2500  -13.7620   21.1860 N   0  0  0  0  0  0  0  0  0  0  0  0
  -32.0390  -15.1230   21.3320 O   0  0  0  0  0  0  0  0  0  0  0  0
  -30.0600  -18.5700   21.0970 C   0  0  0  0  0  3  0  0  0  0  0  0
  -29.6920  -17.3590   20.3330 C   0  0  0  0  0  0  0  0  0  0  0  0
  -28.7900  -17.7180   19.3520 C   0  0  0  0  0  0  0  0  0  0  0  0
  -29.4410  -19.7760   20.6530 C   0  0  0  0  0  0  0  0  0  0  0  0
  -28.4600  -16.9150   18.1590 C   0  0  0  0  0  2  0  0  0  0  0  0
  -29.7860  -16.3340   17.7020 C   0  0  0  0  0  2  0  0  0  0  0  0
  -30.3690  -15.4680   18.8340 C   0  0  0  0  0  2  0  0  0  0  0  0
  -30.2270  -15.9440   20.2450 N   0  0  0  0  0  0  0  0  0  0  0  0
  -28.2940  -19.3820   19.4040 S   0  0  0  0  0  0  0  0  0  0  0  0
  -25.5600  -13.9240   20.8370 C   0  0  0  0  0  0  0  0  0  0  0  0
  -24.4460  -13.1570   21.0460 C   0  0  0  0  0  0  0  0  0  0  0  0
  -24.8990  -11.8020   21.0760 C   0  0  0  0  0  0  0  0  0  0  0  0
  -26.6190  -13.0340   20.7360 N   0  0  0  0  0  0  0  0  0  0  0  0
  -26.2180  -11.7560   20.9530 N   0  0  0  0  0  0  0  0  0  0  0  0
  -24.1460  -10.5440   21.1540 C   0  0  0  0  0  0  0  0  0  0  0  0
  -24.4910   -9.5330   22.0790 C   0  0  0  0  0  3  0  0  0  0  0  0
  -23.7390   -8.3420   22.1500 C   0  0  0  0  0  3  0  0  0  0  0  0
  -22.6290   -8.1520   21.2920 C   0  0  0  0  0  0  0  0  0  0  0  0
  -22.3060   -9.1500   20.3560 C   0  0  0  0  0  3  0  0  0  0  0  0
  -23.0590  -10.3340   20.2830 C   0  0  0  0  0  3  0  0  0  0  0  0
  -21.8570   -7.0150   21.2720 O   0  0  0  0  0  0  0  0  0  0  0  0
  -21.7630   -6.1900   22.3620 C   0  0  0  0  0  0  0  0  0  0  0  0
  -21.3190   -6.6620   23.6180 C   0  0  0  0  0  3  0  0  0  0  0  0
  -21.1690   -5.7640   24.6940 C   0  0  0  0  0  3  0  0  0  0  0  0
  -21.4560   -4.3970   24.5170 C   0  0  0  0  0  0  0  0  0  0  0  0
  -21.8930   -3.9260   23.2660 C   0  0  0  0  0  3  0  0  0  0  0  0
  -22.0420   -4.8200   22.1920 C   0  0  0  0  0  0  0  0  0  0  0  0
  -22.4440   -4.3560   20.9840 F   0  0  0  0  0  0  0  0  0  0  0  0
  -21.3040   -3.5330   25.5480 F   0  0  0  0  0  0  0  0  0  0  0  0
  -23.0280  -13.6440   21.1180 C   0  0  0  0  0  0  0  0  0  0  0  0
  -22.1850  -12.9600   21.8840 N   0  0  0  0  0  0  0  0  0  0  0  0
  -22.6720  -14.6650   20.5310 O   0  0  0  0  0  0  0  0  0  0  0  0
  -22.4860  -12.1370   22.3820 H   0  0  0  0  0  0  0  0  0  0  0  0
  -21.2240  -13.2630   21.9650 H   0  0  0  0  0  0  0  0  0  0  0  0
  -25.7550  -15.2950   20.6990 N   0  0  0  0  0  0  0  0  0  0  0  0
  -24.9840  -15.9520   20.7490 H   0  0  0  0  0  0  0  0  0  0  0  0
  -26.6480  -15.7470   20.5670 H   0  0  0  0  0  0  0  0  0  0  0  0
  -28.7180  -22.2880   20.3570 C   0  0  0  0  0  2  0  0  0  0  0  0
  -29.0910  -23.8480   20.4660 C   0  0  0  0  0  0  0  0  0  0  0  0
  -30.1600  -24.1820   20.9870 O   0  0  0  0  0  0  0  0  0  0  0  0
  -28.0740  -24.9500   19.8930 C   0  0  0  0  0  2  0  0  0  0  0  0
  -28.3640  -26.4250   20.0250 O   0  0  0  0  0  0  0  0  0  0  0  0
  -24.6160  -31.8480   23.0800 C   0  0  0  0  0  0  0  0  0  0  0  0
  -27.2620  -27.3160   19.9630 C   0  0  0  0  0  0  0  0  0  0  0  0
  -23.4190  -30.4400   21.4480 C   0  0  0  0  0  3  0  0  0  0  0  0
  -24.8780  -28.9260   19.9890 C   0  0  0  0  0  0  0  0  0  0  0  0
  -25.9550  -30.7930   21.2360 C   0  0  0  0  0  2  0  0  0  0  0  0
  -26.0500  -29.4190   20.5760 C   0  0  0  0  0  0  0  0  0  0  0  0
  -27.2470  -28.6270   20.5510 C   0  0  0  0  0  3  0  0  0  0  0  0
  -26.0620  -26.9010   19.3370 C   0  0  0  0  0  3  0  0  0  0  0  0
  -24.8880  -27.6750   19.3600 C   0  0  0  0  0  3  0  0  0  0  0  0
  -23.6280  -29.7800   20.0600 C   0  0  0  0  0  2  0  0  0  0  0  0
  -24.6840  -31.0460   21.9770 N   0  0  0  0  0  0  0  0  0  0  0  0
  -23.5330  -32.1030   23.6290 O   0  0  0  0  0  0  0  0  0  0  0  0
  -22.7840  -29.4050   22.4080 C   0  0  0  0  0  0  0  0  0  0  0  0
  -21.4560  -29.2180   22.3090 N   0  0  0  0  0  0  0  0  0  0  0  0
  -23.4860  -28.7740   23.2010 O   0  0  0  0  0  0  0  0  0  0  0  0
  -20.9460  -29.7750   21.6370 H   0  0  0  0  0  0  0  0  0  0  0  0
  -18.1030  -27.9760   22.8640 C   0  0  0  0  0  0  0  0  0  0  0  0
  -20.6620  -28.2630   23.0860 C   0  0  0  0  0  3  0  0  0  0  0  0
  -20.7680  -26.8360   22.5000 C   0  0  0  0  0  2  0  0  0  0  0  0
  -19.6560  -26.5120   21.4970 C   0  0  0  0  0  2  0  0  0  0  0  0
  -18.2810  -26.6380   22.1630 C   0  0  0  0  0  2  0  0  0  0  0  0
  -19.2200  -28.7470   23.2810 C   0  0  0  0  0  0  0  0  0  0  0  0
  -18.9970  -29.9990   23.8940 C   0  0  0  0  0  3  0  0  0  0  0  0
  -17.6900  -30.4810   24.0930 C   0  0  0  0  0  3  0  0  0  0  0  0
  -16.5890  -29.7070   23.6920 C   0  0  0  0  0  3  0  0  0  0  0  0
  -16.7950  -28.4570   23.0830 C   0  0  0  0  0  3  0  0  0  0  0  0
  -25.8920  -32.5020   23.6900 C   0  0  0  0  0  3  0  0  0  0  0  0
  -26.4560  -31.7160   24.9370 C   0  0  1  0  0  0  0  0  0  0  0  0
  -25.3950  -31.4330   26.0260 C   0  0  0  0  0  1  0  0  0  0  0  0
  -27.0580  -30.3600   24.5040 C   0  0  0  0  0  1  0  0  0  0  0  0
  -27.6050  -32.5220   25.5890 C   0  0  0  0  0  1  0  0  0  0  0  0
  -25.5510  -33.8830   24.0640 N   0  0  0  0  0  0  0  0  0  0  0  0
  -25.8860  -34.9700   23.3570 C   0  0  0  0  0  0  0  0  0  0  0  0
  -26.5840  -34.9160   22.3400 O   0  0  0  0  0  0  0  0  0  0  0  0
  -24.9340  -33.9980   24.8550 H   0  0  0  0  0  0  0  0  0  0  0  0
  -24.1440  -36.7530   23.0260 C   0  0  0  0  0  1  0  0  0  0  0  0
  -25.3680  -36.3340   23.8550 C   0  0  0  0  0  3  0  0  0  0  0  0
  -27.4680  -37.2110   24.7780 C   0  0  0  0  0  1  0  0  0  0  0  0
  -26.3900  -37.4030   23.8110 N   0  0  0  0  0  0  0  0  0  0  0  0
  -25.9690  -38.3120   23.9830 H   0  0  0  0  0  0  0  0  0  0  0  0
  1  2  1  0
  3  9  1  0
  3 10  2  0
  4  9  1  0
  5  6  1  0
  5  4  1  0
  7  6  1  0
  7 23  1  0
  7  8  1  0
  9  8  1  0
 12 11  1  0
 13 19  1  0
 13 12  2  0
 14  1  1  0
 14 11  2  0
 15 13  1  0
 16 15  1  0
 16 17  1  0
 17 18  1  0
 18 12  1  0
 18  3  1  0
 19 14  1  0
 20 21  2  0
 21 22  1  0
 21 40  1  0
 22 25  1  0
 23 20  1  0
 23 24  1  0
 24 22  2  0
 25 26  1  0
 26 27  2  0
 28 27  1  0
 29 28  2  0
 30 29  1  0
 30 25  2  0
 31 28  1  0
 31 32  1  0
 32 33  1  0
 33 34  2  0
 35 34  1  0
 35 39  1  0
 36 35  2  0
 37 32  2  0
 37 36  1  0
 38 37  1  0
 40 41  1  0
 41 44  1  0
 41 43  1  0
 42 40  2  0
 45 46  1  0
 45 20  1  0
 47 45  1  0
 48 49  1  0
 48  1  1  0
 49 50  2  0
 51 52  1  0
 51 49  1  0
 53 64  2  0
 54 52  1  0
 54 59  1  0
 55 63  1  0
 55 65  1  0
 56 62  1  0
 56 58  1  0
 57 63  1  0
 58 57  1  0
 59 58  2  0
 60 61  1  0
 60 54  2  0
 61 56  2  0
 62 55  1  0
 63 53  1  0
 65 67  2  0
 66 65  1  0
 68 66  1  0
 69 78  2  0
 69 74  1  0
 70 66  1  0
 70 74  1  0
 71 70  1  0
 72 73  1  0
 72 71  1  0
 73 69  1  0
 74 75  2  0
 75 76  1  0
 77 76  2  0
 78 77  1  0
 79 53  1  0
 79 84  1  0
 79 80  1  0
 80 83  1  1
 80 81  1  0
 82 80  1  0
 84 87  1  0
 85 89  1  0
 85 84  1  0
 86 85  2  0
 89 88  1  0
 91 89  1  0
 91 92  1  0
 91 90  1  0
M  ISO  4   3 100  18 100  51 101  52 101
M  END
>  <TORSDO>  (47) 
F 19

>  <SCORE>  (47) 
-11.649

>  <name>  (47) 
46

>  <ligand_id>  (47) 
46

>  <original_smiles>  (47) 
[H]c1c([H])c([H])c2c(c1[H])C([H])([H])C([H])([H])C([H])([H])C2([H])N([H])C(=O)C1([H])N(C(=O)C([H])(N([H])C(=O)C([H])(N([H])C([H])([H])[H])C([H])([H])[H])C(C([H])([H])[H])(C([H])([H])[H])C([H])([H])[H])C([H])([H])c2c([H])c(OC([H])([H])C(=O)C([H])([H])N([H])c3sc4c(c3[H])N(C(=O)N3C([H])([H])C([H])([H])C([H])([H])C([H])(n5nc(-c6c([H])c([H])c(Oc7c([H])c([H])c(F)c([H])c7F)c([H])c6[H])c(C(=O)N([H])[H])c5N([H])[H])C3([H])[H])C([H])([H])C([H])([H])C4([H])[H])c([H])c([H])c2C1([H])[H]

>  <smiles>  (47) 
[H]c1c([H])c([H])c2c(c1[H])C([H])([H])C([H])([H])C([H])([H])C2([H])N([H])C(=O)C1([H])N(C(=O)C([H])(N([H])C(=O)C([H])(N([H])C([H])([H])[H])C([H])([H])[H])C(C([H])([H])[H])(C([H])([H])[H])C([H])([H])[H])C([H])([H])c2c([H])c(OC([H])([H])C(=O)C([H])([H])N([H])c3sc4c(c3[H])N(C(=O)N3C([H])([H])C([H])([H])C([H])([H])C([H])(n5nc(-c6c([H])c([H])c(Oc7c([H])c([H])c(F)c([H])c7F)c([H])c6[H])c(C(=O)N([H])[H])c5N([H])[H])C3([H])[H])C([H])([H])C([H])([H])C4([H])[H])c([H])c([H])c2C1([H])[H]

$$$$
47:0:0
     RDKit          3D

 92101  0  0  1  0  0  0  0  0999 V2000
  -31.3140  -18.2080   20.4760 C   0  0  0  0  0  3  0  0  0  0  0  0
  -30.1340  -17.5210   20.2760 C   0  0  0  0  0  0  0  0  0  0  0  0
  -29.8250  -19.8540   20.1560 C   0  0  0  0  0  0  0  0  0  0  0  0
  -28.1180  -22.1490   19.7420 C   0  0  0  0  0  3  0  0  0  0  0  0
  -30.0490  -22.5010   20.2400 C   0  0  0  0  0  2  0  0  0  0  0  0
  -28.9470  -23.4660   19.5770 C   0  0  0  0  0  3  0  0  0  0  0  0
  -26.1690  -20.5970   19.8050 C   0  0  0  0  0  1  0  0  0  0  0  0
  -31.1210  -19.6080   20.4060 N   0  0  0  0  0  0  0  0  0  0  0  0
  -29.2660  -21.2620   19.9590 N   0  0  0  0  0  0  0  0  0  0  0  0
  -26.7960  -21.9140   19.6500 N   0  0  0  0  0  0  0  0  0  0  0  0
  -29.1760  -18.5970   20.0720 O   0  0  0  0  0  0  0  0  0  0  0  0
  -26.1770  -22.6870   19.4540 H   0  0  0  0  0  0  0  0  0  0  0  0
  -30.6110  -14.9730   20.0080 C   0  0  0  0  0  0  0  0  0  0  0  0
  -30.3920  -12.7010   18.9270 C   0  0  0  0  0  2  0  0  0  0  0  0
  -29.3880  -12.7720   17.7530 C   0  0  0  0  0  2  0  0  0  0  0  0
  -27.9450  -12.5740   18.2540 C   0  0  0  0  0  2  0  0  0  0  0  0
  -27.6290  -13.4260   19.5110 C   0  0  0  0  0  3  0  0  0  0  0  0
  -28.7440  -13.3220   20.5730 C   0  0  0  0  0  2  0  0  0  0  0  0
  -29.9950  -13.7320   19.9240 N   0  0  0  0  0  0  0  0  0  0  0  0
  -31.7930  -15.0570   19.6560 O   0  0  0  0  0  0  0  0  0  0  0  0
  -29.8320  -16.1240   20.2710 N   0  0  0  0  0  0  0  0  0  0  0  0
  -28.8670  -15.9070   20.4620 H   0  0  0  0  0  0  0  0  0  0  0  0
  -25.2820  -14.0030   20.3560 C   0  0  0  0  0  0  0  0  0  0  0  0
  -24.2360  -13.2240   20.7680 C   0  0  0  0  0  0  0  0  0  0  0  0
  -24.6980  -11.8740   20.7060 C   0  0  0  0  0  0  0  0  0  0  0  0
  -26.3130  -13.1270   20.0620 N   0  0  0  0  0  0  0  0  0  0  0  0
  -25.9740  -11.8410   20.3390 N   0  0  0  0  0  0  0  0  0  0  0  0
  -23.9820  -10.6100   20.9180 C   0  0  0  0  0  0  0  0  0  0  0  0
  -24.4330   -9.6520   21.8530 C   0  0  0  0  0  3  0  0  0  0  0  0
  -23.7150   -8.4530   22.0530 C   0  0  0  0  0  3  0  0  0  0  0  0
  -22.5320   -8.2020   21.3180 C   0  0  0  0  0  0  0  0  0  0  0  0
  -22.1010   -9.1490   20.3720 C   0  0  0  0  0  3  0  0  0  0  0  0
  -22.8180  -10.3390   20.1700 C   0  0  0  0  0  3  0  0  0  0  0  0
  -21.7850   -7.0550   21.4270 O   0  0  0  0  0  0  0  0  0  0  0  0
  -21.7290   -6.3400   22.5970 C   0  0  0  0  0  0  0  0  0  0  0  0
  -21.2930   -6.9250   23.8060 C   0  0  0  0  0  3  0  0  0  0  0  0
  -21.1840   -6.1370   24.9700 C   0  0  0  0  0  3  0  0  0  0  0  0
  -21.5030   -4.7670   24.9250 C   0  0  0  0  0  0  0  0  0  0  0  0
  -21.9330   -4.1830   23.7210 C   0  0  0  0  0  3  0  0  0  0  0  0
  -22.0440   -4.9670   22.5600 C   0  0  0  0  0  0  0  0  0  0  0  0
  -22.4380   -4.3950   21.3970 F   0  0  0  0  0  0  0  0  0  0  0  0
  -21.3920   -4.0070   26.0410 F   0  0  0  0  0  0  0  0  0  0  0  0
  -22.8510  -13.6980   21.1010 C   0  0  0  0  0  0  0  0  0  0  0  0
  -22.1670  -13.0030   22.0030 N   0  0  0  0  0  0  0  0  0  0  0  0
  -22.3870  -14.7200   20.5980 O   0  0  0  0  0  0  0  0  0  0  0  0
  -22.5560  -12.1750   22.4300 H   0  0  0  0  0  0  0  0  0  0  0  0
  -21.2410  -13.3040   22.2720 H   0  0  0  0  0  0  0  0  0  0  0  0
  -25.4340  -15.3760   20.1800 N   0  0  0  0  0  0  0  0  0  0  0  0
  -24.6620  -16.0180   20.3180 H   0  0  0  0  0  0  0  0  0  0  0  0
  -26.2410  -15.8140   19.7580 H   0  0  0  0  0  0  0  0  0  0  0  0
  -28.2930  -24.8820   20.1640 C   0  0  0  0  0  2  0  0  0  0  0  0
  -28.4220  -26.3150   19.6000 O   0  0  0  0  0  0  0  0  0  0  0  0
  -24.6280  -31.6410   22.9560 C   0  0  0  0  0  0  0  0  0  0  0  0
  -27.3190  -27.2280   19.6450 C   0  0  0  0  0  0  0  0  0  0  0  0
  -23.4480  -30.2930   21.2600 C   0  0  0  0  0  3  0  0  0  0  0  0
  -24.9260  -28.8520   19.7340 C   0  0  0  0  0  0  0  0  0  0  0  0
  -25.9830  -30.6710   21.0680 C   0  0  0  0  0  2  0  0  0  0  0  0
  -26.0960  -29.3220   20.3460 C   0  0  0  0  0  0  0  0  0  0  0  0
  -27.2970  -28.5270   20.2810 C   0  0  0  0  0  3  0  0  0  0  0  0
  -26.1240  -26.8480   19.0010 C   0  0  0  0  0  3  0  0  0  0  0  0
  -24.9480  -27.6280   19.0480 C   0  0  0  0  0  3  0  0  0  0  0  0
  -23.6680  -29.6980   19.8450 C   0  0  0  0  0  2  0  0  0  0  0  0
  -24.7060  -30.8870   21.8180 N   0  0  0  0  0  0  0  0  0  0  0  0
  -23.5430  -31.8550   23.5180 O   0  0  0  0  0  0  0  0  0  0  0  0
  -22.8250  -29.2100   22.1770 C   0  0  0  0  0  0  0  0  0  0  0  0
  -21.4980  -29.0170   22.0780 N   0  0  0  0  0  0  0  0  0  0  0  0
  -23.5350  -28.5480   22.9380 O   0  0  0  0  0  0  0  0  0  0  0  0
  -20.9800  -29.6070   21.4420 H   0  0  0  0  0  0  0  0  0  0  0  0
  -18.1520  -27.7520   22.6480 C   0  0  0  0  0  0  0  0  0  0  0  0
  -20.7200  -28.0150   22.8110 C   0  0  0  0  0  3  0  0  0  0  0  0
  -20.8000  -26.6320   22.1230 C   0  0  0  0  0  2  0  0  0  0  0  0
  -19.6530  -26.3800   21.1400 C   0  0  0  0  0  2  0  0  0  0  0  0
  -18.3020  -26.4630   21.8600 C   0  0  0  0  0  2  0  0  0  0  0  0
  -19.2860  -28.4890   23.0810 C   0  0  0  0  0  0  0  0  0  0  0  0
  -19.0910  -29.6990   23.7820 C   0  0  0  0  0  3  0  0  0  0  0  0
  -17.7930  -30.1730   24.0520 C   0  0  0  0  0  3  0  0  0  0  0  0
  -16.6740  -29.4330   23.6330 C   0  0  0  0  0  3  0  0  0  0  0  0
  -16.8540  -28.2240   22.9380 C   0  0  0  0  0  3  0  0  0  0  0  0
  -25.8960  -32.2850   23.5960 C   0  0  0  0  0  3  0  0  0  0  0  0
  -25.5390  -33.6450   24.0250 N   0  0  0  0  0  0  0  0  0  0  0  0
  -25.8140  -34.7620   23.3360 C   0  0  0  0  0  0  0  0  0  0  0  0
  -26.4650  -34.7560   22.2890 O   0  0  0  0  0  0  0  0  0  0  0  0
  -24.9570  -33.7210   24.8470 H   0  0  0  0  0  0  0  0  0  0  0  0
  -24.0020  -36.4990   23.1540 C   0  0  0  0  0  1  0  0  0  0  0  0
  -25.2860  -36.0960   23.8990 C   0  0  0  0  0  3  0  0  0  0  0  0
  -27.4060  -37.0220   24.7220 C   0  0  0  0  0  1  0  0  0  0  0  0
  -26.2700  -37.1990   23.8210 N   0  0  0  0  0  0  0  0  0  0  0  0
  -25.8310  -38.0900   24.0370 H   0  0  0  0  0  0  0  0  0  0  0  0
  -26.4650  -31.4570   24.8140 C   0  0  1  0  0  0  0  0  0  0  0  0
  -25.4030  -31.1200   25.8870 C   0  0  0  0  0  1  0  0  0  0  0  0
  -27.0850  -30.1250   24.3310 C   0  0  0  0  0  1  0  0  0  0  0  0
  -27.6010  -32.2500   25.5010 C   0  0  0  0  0  1  0  0  0  0  0  0
  2  1  2  0
  3  8  2  0
  4 10  1  0
  4  9  1  0
  6  4  1  0
  6 51  1  0
  6  5  1  0
  8  1  1  0
  9  3  1  0
  9  5  1  0
 10  7  1  0
 11  3  1  0
 11  2  1  0
 12 10  1  0
 13 21  1  0
 14 19  1  0
 15 16  1  0
 15 14  1  0
 17 16  1  0
 17 26  1  0
 17 18  1  0
 19 13  1  0
 19 18  1  0
 20 13  2  0
 21  2  1  0
 21 22  1  0
 23 24  2  0
 24 43  1  0
 25 24  1  0
 25 28  1  0
 26 27  1  0
 26 23  1  0
 27 25  2  0
 28 29  1  0
 29 30  2  0
 31 34  1  0
 31 30  1  0
 32 31  2  0
 33 32  1  0
 33 28  2  0
 34 35  1  0
 35 36  1  0
 36 37  2  0
 38 37  1  0
 38 42  1  0
 39 38  2  0
 40 35  2  0
 40 39  1  0
 41 40  1  0
 43 44  1  0
 44 47  1  0
 44 46  1  0
 45 43  2  0
 48 49  1  0
 48 23  1  0
 50 48  1  0
 52 54  1  0
 52 51  1  0
 53 64  2  0
 54 59  1  0
 55 63  1  0
 55 65  1  0
 56 62  1  0
 56 58  1  0
 57 63  1  0
 58 57  1  0
 59 58  2  0
 60 61  1  0
 60 54  2  0
 61 56  2  0
 62 55  1  0
 63 53  1  0
 65 67  2  0
 66 65  1  0
 68 66  1  0
 69 78  2  0
 69 74  1  0
 70 66  1  0
 70 74  1  0
 71 70  1  0
 72 73  1  0
 72 71  1  0
 73 69  1  0
 74 75  2  0
 75 76  1  0
 77 76  2  0
 78 77  1  0
 79 53  1  0
 79 80  1  0
 79 89  1  0
 80 83  1  0
 81 85  1  0
 81 80  1  0
 82 81  2  0
 85 84  1  0
 87 85  1  0
 87 88  1  0
 87 86  1  0
 89 92  1  1
 89 90  1  0
 91 89  1  0
M  ISO  4  13 100  21 100  51 101  52 101
M  END
>  <TORSDO>  (48) 
F 17

>  <SCORE>  (48) 
-13.204

>  <name>  (48) 
47

>  <ligand_id>  (48) 
47

>  <original_smiles>  (48) 
[H]c1nc(N2C(=[N+]([H])C([H])([H])[H])C([H])(C([H])([H])Oc3c([H])c([H])c4c(c3[H])C([H])([H])N(C(=O)C([H])(N([H])C(=O)C([H])(N([H])C([H])([H])[H])C([H])([H])[H])C(C([H])([H])[H])(C([H])([H])[H])C([H])([H])[H])C([H])(C(=O)N([H])C3([H])c5c([H])c([H])c([H])c([H])c5C([H])([H])C([H])([H])C3([H])[H])C4([H])[H])C2([H])[H])oc1N([H])C(=O)N1C([H])([H])C([H])([H])C([H])([H])C([H])(n2nc(-c3c([H])c([H])c(Oc4c([H])c([H])c(F)c([H])c4F)c([H])c3[H])c(C(=O)N([H])[H])c2N([H])[H])C1([H])[H]

>  <smiles>  (48) 
[H]c1nc(N2C(=[N+]([H])C([H])([H])[H])C([H])(C([H])([H])Oc3c([H])c([H])c4c(c3[H])C([H])([H])N(C(=O)C([H])(N([H])C(=O)C([H])(N([H])C([H])([H])[H])C([H])([H])[H])C(C([H])([H])[H])(C([H])([H])[H])C([H])([H])[H])C([H])(C(=O)N([H])C3([H])c5c([H])c([H])c([H])c([H])c5C([H])([H])C([H])([H])C3([H])[H])C4([H])[H])C2([H])[H])oc1N([H])C(=O)N1C([H])([H])C([H])([H])C([H])([H])C([H])(n2nc(-c3c([H])c([H])c(Oc4c([H])c([H])c(F)c([H])c4F)c([H])c3[H])c(C(=O)N([H])[H])c2N([H])[H])C1([H])[H]

$$$$
48:0:0
     RDKit          3D

 93102  0  0  1  0  0  0  0  0999 V2000
  -28.2880  -21.6700   22.5860 C   0  0  0  0  0  2  0  0  0  0  0  0
  -27.6420  -22.1810   21.2960 C   0  0  0  0  0  2  0  0  0  0  0  0
  -29.5340  -22.4730   22.2020 C   0  0  0  0  0  2  0  0  0  0  0  0
  -29.0460  -22.5210   20.7340 C   0  0  2  0  0  0  0  0  0  0  0  0
  -29.1610  -23.9890   20.0690 C   0  0  0  0  0  0  0  0  0  0  0  0
  -29.8600  -24.2140   19.0770 O   0  0  0  0  0  0  0  0  0  0  0  0
  -28.3310  -25.2300   20.6750 C   0  0  0  0  0  2  0  0  0  0  0  0
  -28.5870  -26.6340   20.1850 O   0  0  0  0  0  0  0  0  0  0  0  0
  -24.6640  -31.9660   23.2070 C   0  0  0  0  0  0  0  0  0  0  0  0
  -27.4790  -27.5080   20.1440 C   0  0  0  0  0  0  0  0  0  0  0  0
  -23.5450  -30.5590   21.5150 C   0  0  0  0  0  3  0  0  0  0  0  0
  -25.0770  -29.0790   20.0940 C   0  0  0  0  0  0  0  0  0  0  0  0
  -26.0800  -30.9510   21.4010 C   0  0  0  0  0  2  0  0  0  0  0  0
  -26.2190  -29.5860   20.7290 C   0  0  0  0  0  0  0  0  0  0  0  0
  -27.4250  -28.8120   20.7430 C   0  0  0  0  0  3  0  0  0  0  0  0
  -26.3170  -27.0740   19.4720 C   0  0  0  0  0  3  0  0  0  0  0  0
  -25.1300  -27.8330   19.4530 C   0  0  0  0  0  3  0  0  0  0  0  0
  -23.8120  -29.9170   20.1290 C   0  0  0  0  0  2  0  0  0  0  0  0
  -24.7790  -31.1780   22.0970 N   0  0  0  0  0  0  0  0  0  0  0  0
  -23.5600  -32.1990   23.7210 O   0  0  0  0  0  0  0  0  0  0  0  0
  -22.8910  -29.5060   22.4420 C   0  0  0  0  0  0  0  0  0  0  0  0
  -21.5730  -29.2950   22.2870 N   0  0  0  0  0  0  0  0  0  0  0  0
  -23.5710  -28.8820   23.2610 O   0  0  0  0  0  0  0  0  0  0  0  0
  -21.0830  -29.8500   21.6000 H   0  0  0  0  0  0  0  0  0  0  0  0
  -18.2140  -28.0200   22.7290 C   0  0  0  0  0  0  0  0  0  0  0  0
  -20.7660  -28.3190   23.0240 C   0  0  0  0  0  3  0  0  0  0  0  0
  -20.8980  -26.9070   22.4060 C   0  0  0  0  0  2  0  0  0  0  0  0
  -19.8080  -26.5960   21.3760 C   0  0  0  0  0  2  0  0  0  0  0  0
  -18.4200  -26.6960   22.0140 C   0  0  0  0  0  2  0  0  0  0  0  0
  -19.3150  -28.7900   23.1880 C   0  0  0  0  0  0  0  0  0  0  0  0
  -19.0690  -30.0300   23.8170 C   0  0  0  0  0  3  0  0  0  0  0  0
  -17.7530  -30.5000   23.9910 C   0  0  0  0  0  3  0  0  0  0  0  0
  -16.6660  -29.7270   23.5470 C   0  0  0  0  0  3  0  0  0  0  0  0
  -16.8970  -28.4890   22.9220 C   0  0  0  0  0  3  0  0  0  0  0  0
  -25.9090  -32.6270   23.8710 C   0  0  0  0  0  3  0  0  0  0  0  0
  -26.3950  -31.8760   25.1710 C   0  0  1  0  0  0  0  0  0  0  0  0
  -25.2640  -31.6110   26.1940 C   0  0  0  0  0  1  0  0  0  0  0  0
  -27.0330  -30.5140   24.8130 C   0  0  0  0  0  1  0  0  0  0  0  0
  -27.4930  -32.7060   25.8760 C   0  0  0  0  0  1  0  0  0  0  0  0
  -25.5600  -34.0210   24.1820 N   0  0  0  0  0  0  0  0  0  0  0  0
  -25.8950  -35.0780   23.4300 C   0  0  0  0  0  0  0  0  0  0  0  0
  -26.6000  -34.9840   22.4210 O   0  0  0  0  0  0  0  0  0  0  0  0
  -24.9310  -34.1650   24.9580 H   0  0  0  0  0  0  0  0  0  0  0  0
  -24.1430  -36.8360   23.0120 C   0  0  0  0  0  1  0  0  0  0  0  0
  -25.3640  -36.4590   23.8650 C   0  0  0  0  0  3  0  0  0  0  0  0
  -27.4490  -37.3910   24.7660 C   0  0  0  0  0  1  0  0  0  0  0  0
  -26.3790  -37.5330   23.7830 N   0  0  0  0  0  0  0  0  0  0  0  0
  -25.9480  -38.4440   23.9130 H   0  0  0  0  0  0  0  0  0  0  0  0
  -29.5180  -21.3330   19.8850 N   0  0  0  0  0  0  0  0  0  0  0  0
  -29.0990  -21.3550   18.9600 H   0  0  0  0  0  0  0  0  0  0  0  0
  -30.9220  -15.0360   20.1480 C   0  0  0  0  0  0  0  0  0  0  0  0
  -30.6970  -12.7690   19.1090 C   0  0  0  0  0  2  0  0  0  0  0  0
  -29.7330  -12.8520   17.9050 C   0  0  0  0  0  2  0  0  0  0  0  0
  -28.2710  -12.6850   18.3640 C   0  0  0  0  0  2  0  0  0  0  0  0
  -27.9250  -13.5740   19.5870 C   0  0  0  0  0  3  0  0  0  0  0  0
  -29.0020  -13.4690   20.6880 C   0  0  0  0  0  2  0  0  0  0  0  0
  -30.2890  -13.8160   20.0720 N   0  0  0  0  0  0  0  0  0  0  0  0
  -32.1180  -15.1230   19.8440 O   0  0  0  0  0  0  0  0  0  0  0  0
  -29.5240  -18.7060   19.9930 C   0  0  0  0  0  3  0  0  0  0  0  0
  -30.4100  -17.6050   20.4310 C   0  0  0  0  0  0  0  0  0  0  0  0
  -29.9770  -20.0040   20.2850 C   0  0  0  0  0  0  0  0  0  0  0  0
  -31.4990  -18.0350   21.0360 N   0  0  0  0  0  0  0  0  0  0  0  0
  -30.1150  -16.1600   20.2870 N   0  0  0  0  0  0  0  0  0  0  0  0
  -31.5010  -19.7360   21.0970 S   0  0  0  0  0  0  0  0  0  0  0  0
  -29.1340  -15.9360   20.2950 H   0  0  0  0  0  0  0  0  0  0  0  0
  -25.5570  -14.1900   20.3610 C   0  0  0  0  0  0  0  0  0  0  0  0
  -24.4900  -13.4240   20.7440 C   0  0  0  0  0  0  0  0  0  0  0  0
  -24.9380  -12.0690   20.6950 C   0  0  0  0  0  0  0  0  0  0  0  0
  -26.5870  -13.3000   20.1000 N   0  0  0  0  0  0  0  0  0  0  0  0
  -26.2220  -12.0200   20.3650 N   0  0  0  0  0  0  0  0  0  0  0  0
  -24.2020  -10.8120   20.8850 C   0  0  0  0  0  0  0  0  0  0  0  0
  -24.6030   -9.8590   21.8470 C   0  0  0  0  0  3  0  0  0  0  0  0
  -23.8670   -8.6680   22.0230 C   0  0  0  0  0  3  0  0  0  0  0  0
  -22.7150   -8.4220   21.2390 C   0  0  0  0  0  0  0  0  0  0  0  0
  -22.3340   -9.3630   20.2670 C   0  0  0  0  0  3  0  0  0  0  0  0
  -23.0710  -10.5470   20.0890 C   0  0  0  0  0  3  0  0  0  0  0  0
  -21.9540   -7.2810   21.3230 O   0  0  0  0  0  0  0  0  0  0  0  0
  -21.8300   -6.5850   22.4990 C   0  0  0  0  0  0  0  0  0  0  0  0
  -21.3030   -7.1800   23.6660 C   0  0  0  0  0  3  0  0  0  0  0  0
  -21.1280   -6.4090   24.8330 C   0  0  0  0  0  3  0  0  0  0  0  0
  -21.4690   -5.0440   24.8320 C   0  0  0  0  0  0  0  0  0  0  0  0
  -21.9890   -4.4480   23.6690 C   0  0  0  0  0  3  0  0  0  0  0  0
  -22.1650   -5.2150   22.5050 C   0  0  0  0  0  0  0  0  0  0  0  0
  -22.6460   -4.6320   21.3810 F   0  0  0  0  0  0  0  0  0  0  0  0
  -21.2950   -4.3000   25.9490 F   0  0  0  0  0  0  0  0  0  0  0  0
  -23.1010  -13.9150   21.0380 C   0  0  0  0  0  0  0  0  0  0  0  0
  -22.3820  -13.2230   21.9150 N   0  0  0  0  0  0  0  0  0  0  0  0
  -22.6660  -14.9460   20.5280 O   0  0  0  0  0  0  0  0  0  0  0  0
  -22.7460  -12.3890   22.3490 H   0  0  0  0  0  0  0  0  0  0  0  0
  -21.4510  -13.5340   22.1570 H   0  0  0  0  0  0  0  0  0  0  0  0
  -25.7290  -15.5600   20.1870 N   0  0  0  0  0  0  0  0  0  0  0  0
  -24.9570  -16.2070   20.2920 H   0  0  0  0  0  0  0  0  0  0  0  0
  -26.5540  -15.9930   19.7940 H   0  0  0  0  0  0  0  0  0  0  0  0
  2  1  1  0
  3  1  1  0
  4  2  1  0
  4  3  1  0
  5  7  1  0
  5  4  1  0
  6  5  2  0
  8  7  1  0
  9 20  2  0
 10  8  1  0
 10 15  1  0
 11 19  1  0
 11 21  1  0
 12 18  1  0
 12 14  1  0
 13 19  1  0
 14 15  2  0
 14 13  1  0
 16 10  2  0
 17 16  1  0
 17 12  2  0
 18 11  1  0
 19  9  1  0
 21 23  2  0
 22 21  1  0
 24 22  1  0
 25 34  2  0
 25 30  1  0
 26 22  1  0
 26 30  1  0
 27 26  1  0
 28 29  1  0
 28 27  1  0
 29 25  1  0
 30 31  2  0
 31 32  1  0
 33 32  2  0
 34 33  1  0
 35  9  1  0
 35 40  1  0
 35 36  1  0
 36 39  1  1
 36 37  1  0
 38 36  1  0
 40 43  1  0
 41 45  1  0
 41 40  1  0
 42 41  2  0
 45 44  1  0
 47 45  1  0
 47 48  1  0
 47 46  1  0
 49 61  1  0
  4 49  1  6
 50 49  1  0
 51 63  1  0
 52 57  1  0
 53 54  1  0
 53 52  1  0
 55 54  1  0
 55 69  1  0
 55 56  1  0
 57 51  1  0
 57 56  1  0
 58 51  2  0
 59 61  2  0
 59 60  1  0
 60 62  2  0
 61 64  1  0
 62 64  1  0
 63 65  1  0
 63 60  1  0
 66 67  2  0
 67 86  1  0
 68 67  1  0
 68 71  1  0
 69 66  1  0
 69 70  1  0
 70 68  2  0
 71 72  1  0
 72 73  2  0
 74 77  1  0
 74 73  1  0
 75 74  2  0
 76 75  1  0
 76 71  2  0
 77 78  1  0
 78 83  2  0
 78 79  1  0
 79 80  2  0
 81 80  1  0
 81 85  1  0
 82 81  2  0
 83 82  1  0
 84 83  1  0
 86 87  1  0
 87 90  1  0
 87 89  1  0
 88 86  2  0
 91 92  1  0
 91 66  1  0
 93 91  1  0
M  ISO  4   7 101   8 101  51 100  63 100
M  END
>  <TORSDO>  (49) 
F 19

>  <SCORE>  (49) 
-13.231

>  <name>  (49) 
48

>  <ligand_id>  (49) 
48

>  <original_smiles>  (49) 
[H]c1c(N([H])C(=O)N2C([H])([H])C([H])([H])C([H])([H])C([H])(n3nc(-c4c([H])c([H])c(Oc5c([H])c([H])c(F)c([H])c5F)c([H])c4[H])c(C(=O)N([H])[H])c3N([H])[H])C2([H])[H])nsc1N([H])C1(C(=O)C([H])([H])Oc2c([H])c([H])c3c(c2[H])C([H])([H])N(C(=O)C([H])(N([H])C(=O)C([H])(N([H])C([H])([H])[H])C([H])([H])[H])C(C([H])([H])[H])(C([H])([H])[H])C([H])([H])[H])C([H])(C(=O)N([H])C2([H])c4c([H])c([H])c([H])c([H])c4C([H])([H])C([H])([H])C2([H])[H])C3([H])[H])C([H])([H])C([H])([H])C1([H])[H]

>  <smiles>  (49) 
[H]c1c(N([H])C(=O)N2C([H])([H])C([H])([H])C([H])([H])C([H])(n3nc(-c4c([H])c([H])c(Oc5c([H])c([H])c(F)c([H])c5F)c([H])c4[H])c(C(=O)N([H])[H])c3N([H])[H])C2([H])[H])nsc1N([H])C1(C(=O)C([H])([H])Oc2c([H])c([H])c3c(c2[H])C([H])([H])N(C(=O)C([H])(N([H])C(=O)C([H])(N([H])C([H])([H])[H])C([H])([H])[H])C(C([H])([H])[H])(C([H])([H])[H])C([H])([H])[H])C([H])(C(=O)N([H])C2([H])c4c([H])c([H])c([H])c([H])c4C([H])([H])C([H])([H])C2([H])[H])C3([H])[H])C([H])([H])C([H])([H])C1([H])[H]

$$$$
49:0:0
     RDKit          3D

 95104  0  0  1  0  0  0  0  0999 V2000
  -30.7400  -23.0750   22.7510 C   0  0  0  0  0  2  0  0  0  0  0  0
  -30.8980  -21.8120   21.8790 C   0  0  0  0  0  2  0  0  0  0  0  0
  -30.1070  -24.2410   21.9700 C   0  0  0  0  0  2  0  0  0  0  0  0
  -29.5900  -21.3190   21.1920 C   0  0  0  0  0  3  0  0  0  0  0  0
  -28.7610  -23.7930   21.3820 C   0  0  0  0  0  3  0  0  0  0  0  0
  -28.9090  -22.5270   20.5140 N   0  0  0  0  0  4  0  0  0  0  0  0
  -27.9900  -22.2330   20.2200 H   0  0  0  0  0  0  0  0  0  0  0  0
  -29.4170  -22.7740   19.6800 H   0  0  0  0  0  0  0  0  0  0  0  0
  -31.0700  -18.9680   18.4520 C   0  0  0  0  0  3  0  0  0  0  0  0
  -30.6350  -20.1040   19.1680 C   0  0  0  0  0  3  0  0  0  0  0  0
  -30.8160  -17.6550   18.9090 C   0  0  0  0  0  3  0  0  0  0  0  0
  -29.6350  -18.5990   20.8060 C   0  0  0  0  0  3  0  0  0  0  0  0
  -29.9040  -19.9720   20.3690 C   0  0  0  0  0  0  0  0  0  0  0  0
  -30.1020  -17.4050   20.1070 C   0  0  0  0  0  0  0  0  0  0  0  0
  -30.5380  -14.8080   20.2460 C   0  0  0  0  0  0  0  0  0  0  0  0
  -30.3080  -12.5210   19.2740 C   0  0  0  0  0  2  0  0  0  0  0  0
  -29.3720  -12.5760   18.0480 C   0  0  0  0  0  2  0  0  0  0  0  0
  -27.9100  -12.3890   18.4940 C   0  0  0  0  0  2  0  0  0  0  0  0
  -27.5330  -13.2860   19.7050 C   0  0  0  0  0  3  0  0  0  0  0  0
  -28.6000  -13.2390   20.8230 C   0  0  0  0  0  2  0  0  0  0  0  0
  -29.8910  -13.5900   20.2140 N   0  0  0  0  0  0  0  0  0  0  0  0
  -31.7200  -14.8540   19.8850 O   0  0  0  0  0  0  0  0  0  0  0  0
  -29.8330  -15.9820   20.5120 N   0  0  0  0  0  0  0  0  0  0  0  0
  -28.9340  -15.8290   20.9450 H   0  0  0  0  0  0  0  0  0  0  0  0
  -25.1510  -13.8630   20.4580 C   0  0  0  0  0  0  0  0  0  0  0  0
  -24.0910  -13.0870   20.8370 C   0  0  0  0  0  0  0  0  0  0  0  0
  -24.5590  -11.7400   20.8120 C   0  0  0  0  0  0  0  0  0  0  0  0
  -26.1940  -12.9890   20.2090 N   0  0  0  0  0  0  0  0  0  0  0  0
  -25.8460  -11.7040   20.4860 N   0  0  0  0  0  0  0  0  0  0  0  0
  -23.8380  -10.4740   21.0110 C   0  0  0  0  0  0  0  0  0  0  0  0
  -24.2840   -9.5120   21.9450 C   0  0  0  0  0  3  0  0  0  0  0  0
  -23.5690   -8.3090   22.1330 C   0  0  0  0  0  3  0  0  0  0  0  0
  -22.3910   -8.0610   21.3890 C   0  0  0  0  0  0  0  0  0  0  0  0
  -21.9600   -9.0120   20.4470 C   0  0  0  0  0  3  0  0  0  0  0  0
  -22.6760  -10.2070   20.2570 C   0  0  0  0  0  3  0  0  0  0  0  0
  -21.6410   -6.9130   21.4930 O   0  0  0  0  0  0  0  0  0  0  0  0
  -21.6160   -6.1690   22.6470 C   0  0  0  0  0  0  0  0  0  0  0  0
  -21.2190   -6.7220   23.8840 C   0  0  0  0  0  3  0  0  0  0  0  0
  -21.1430   -5.9010   25.0280 C   0  0  0  0  0  3  0  0  0  0  0  0
  -21.4500   -4.5330   24.9360 C   0  0  0  0  0  0  0  0  0  0  0  0
  -21.8400   -3.9780   23.7040 C   0  0  0  0  0  3  0  0  0  0  0  0
  -21.9230   -4.7950   22.5640 C   0  0  0  0  0  0  0  0  0  0  0  0
  -22.2770   -4.2510   21.3740 F   0  0  0  0  0  0  0  0  0  0  0  0
  -21.3680   -3.7460   26.0350 F   0  0  0  0  0  0  0  0  0  0  0  0
  -22.6910  -13.5590   21.1060 C   0  0  0  0  0  0  0  0  0  0  0  0
  -21.9620  -12.8730   21.9810 N   0  0  0  0  0  0  0  0  0  0  0  0
  -22.2530  -14.5820   20.5820 O   0  0  0  0  0  0  0  0  0  0  0  0
  -22.3170  -12.0470   22.4400 H   0  0  0  0  0  0  0  0  0  0  0  0
  -21.0220  -13.1780   22.1900 H   0  0  0  0  0  0  0  0  0  0  0  0
  -25.3120  -15.2330   20.2740 N   0  0  0  0  0  0  0  0  0  0  0  0
  -24.5550  -15.8940   20.4200 H   0  0  0  0  0  0  0  0  0  0  0  0
  -26.1620  -15.6770   19.9520 H   0  0  0  0  0  0  0  0  0  0  0  0
  -27.0210  -25.4100   22.3380 C   0  0  0  0  0  1  0  0  0  0  0  0
  -27.7440  -25.0190   21.0070 C   0  0  0  0  0  3  0  0  0  0  0  0
  -28.1700  -26.3400   20.3950 O   0  0  0  0  0  0  0  0  0  0  0  0
  -24.6160  -31.9210   23.2120 C   0  0  0  0  0  0  0  0  0  0  0  0
  -27.1490  -27.3010   20.2070 C   0  0  0  0  0  0  0  0  0  0  0  0
  -23.3910  -30.5290   21.5800 C   0  0  0  0  0  3  0  0  0  0  0  0
  -24.8220  -28.9750   20.1320 C   0  0  0  0  0  0  0  0  0  0  0  0
  -25.9260  -30.8270   21.3770 C   0  0  0  0  0  2  0  0  0  0  0  0
  -25.9930  -29.4430   20.7370 C   0  0  0  0  0  0  0  0  0  0  0  0
  -27.1660  -28.6190   20.7620 C   0  0  0  0  0  3  0  0  0  0  0  0
  -25.9760  -26.9130   19.5240 C   0  0  0  0  0  3  0  0  0  0  0  0
  -24.8200  -27.7190   19.4980 C   0  0  0  0  0  3  0  0  0  0  0  0
  -23.5900  -29.8630   20.1910 C   0  0  0  0  0  2  0  0  0  0  0  0
  -24.6630  -31.1080   22.1160 N   0  0  0  0  0  0  0  0  0  0  0  0
  -23.5370  -32.2050   23.7530 O   0  0  0  0  0  0  0  0  0  0  0  0
  -22.7280  -29.5190   22.5470 C   0  0  0  0  0  0  0  0  0  0  0  0
  -21.4000  -29.3560   22.4400 N   0  0  0  0  0  0  0  0  0  0  0  0
  -23.4130  -28.8870   23.3600 O   0  0  0  0  0  0  0  0  0  0  0  0
  -20.9060  -29.9290   21.7710 H   0  0  0  0  0  0  0  0  0  0  0  0
  -18.0130  -28.1850   22.9710 C   0  0  0  0  0  0  0  0  0  0  0  0
  -20.5780  -28.4270   23.2160 C   0  0  0  0  0  3  0  0  0  0  0  0
  -20.6640  -26.9920   22.6470 C   0  0  0  0  0  2  0  0  0  0  0  0
  -19.5470  -26.6750   21.6450 C   0  0  0  0  0  2  0  0  0  0  0  0
  -18.1730  -26.8310   22.3010 C   0  0  0  0  0  2  0  0  0  0  0  0
  -19.1430  -28.9400   23.3860 C   0  0  0  0  0  0  0  0  0  0  0  0
  -18.9350  -30.2020   23.9800 C   0  0  0  0  0  3  0  0  0  0  0  0
  -17.6380  -30.7180   24.1530 C   0  0  0  0  0  3  0  0  0  0  0  0
  -16.5240  -29.9640   23.7480 C   0  0  0  0  0  3  0  0  0  0  0  0
  -16.7130  -28.6970   23.1660 C   0  0  0  0  0  3  0  0  0  0  0  0
  -25.9090  -32.5470   23.8230 C   0  0  0  0  0  3  0  0  0  0  0  0
  -25.6130  -33.9450   24.1690 N   0  0  0  0  0  0  0  0  0  0  0  0
  -25.9310  -35.0020   23.4110 C   0  0  0  0  0  0  0  0  0  0  0  0
  -26.5810  -34.9040   22.3660 O   0  0  0  0  0  0  0  0  0  0  0  0
  -25.0520  -34.0910   24.9960 H   0  0  0  0  0  0  0  0  0  0  0  0
  -24.2030  -36.8010   23.0900 C   0  0  0  0  0  1  0  0  0  0  0  0
  -25.4530  -36.3900   23.8820 C   0  0  0  0  0  3  0  0  0  0  0  0
  -27.6070  -37.2560   24.6850 C   0  0  0  0  0  1  0  0  0  0  0  0
  -26.4880  -37.4400   23.7660 N   0  0  0  0  0  0  0  0  0  0  0  0
  -26.0870  -38.3580   23.9410 H   0  0  0  0  0  0  0  0  0  0  0  0
  -26.4380  -31.7640   25.0880 C   0  0  1  0  0  0  0  0  0  0  0  0
  -25.3580  -31.5250   26.1700 C   0  0  0  0  0  1  0  0  0  0  0  0
  -27.0090  -30.3850   24.6780 C   0  0  0  0  0  1  0  0  0  0  0  0
  -27.6040  -32.5480   25.7390 C   0  0  0  0  0  1  0  0  0  0  0  0
  2  1  1  0
  3  1  1  0
  4 13  1  0
  4  2  1  0
  5 54  1  0
  5  3  1  0
  6  4  1  0
  6  5  1  0
  7  6  1  0
  8  6  1  0
  9 11  2  0
  9 10  1  0
 10 13  2  0
 11 14  1  0
 13 12  1  0
 14 23  1  0
 14 12  2  0
 15 23  1  0
 16 21  1  0
 17 18  1  0
 17 16  1  0
 19 18  1  0
 19 28  1  0
 19 20  1  0
 21 15  1  0
 21 20  1  0
 22 15  2  0
 23 24  1  0
 25 26  2  0
 26 45  1  0
 27 26  1  0
 27 30  1  0
 28 25  1  0
 28 29  1  0
 29 27  2  0
 30 31  1  0
 31 32  2  0
 33 36  1  0
 33 32  1  0
 34 33  2  0
 35 34  1  0
 35 30  2  0
 36 37  1  0
 37 38  1  0
 38 39  2  0
 40 39  1  0
 40 44  1  0
 41 40  2  0
 42 37  2  0
 42 41  1  0
 43 42  1  0
 45 46  1  0
 46 49  1  0
 46 48  1  0
 47 45  2  0
 50 51  1  0
 50 25  1  0
 52 50  1  0
 54 53  1  0
 55 54  1  0
 56 67  2  0
 57 55  1  0
 57 62  1  0
 58 66  1  0
 58 68  1  0
 59 65  1  0
 59 61  1  0
 60 66  1  0
 61 62  2  0
 61 60  1  0
 63 57  2  0
 64 63  1  0
 64 59  2  0
 65 58  1  0
 66 56  1  0
 68 70  2  0
 69 68  1  0
 71 69  1  0
 72 81  2  0
 72 77  1  0
 73 69  1  0
 73 77  1  0
 74 73  1  0
 75 76  1  0
 75 74  1  0
 76 72  1  0
 77 78  2  0
 78 79  1  0
 80 79  2  0
 81 80  1  0
 82 56  1  0
 82 83  1  0
 82 92  1  0
 83 86  1  0
 84 88  1  0
 84 83  1  0
 85 84  2  0
 88 87  1  0
 90 88  1  0
 90 91  1  0
 90 89  1  0
 92 95  1  1
 92 93  1  0
 94 92  1  0
M  ISO  4  15 100  23 100  54 101  55 101
M  END
>  <TORSDO>  (50) 
F 18

>  <SCORE>  (50) 
-14.491

>  <name>  (50) 
49

>  <ligand_id>  (50) 
49

>  <original_smiles>  (50) 
[H]c1c([H])c([H])c2c(c1[H])C([H])([H])C([H])([H])C([H])([H])C2([H])N([H])C(=O)C1([H])N(C(=O)C([H])(N([H])C(=O)C([H])(N([H])C([H])([H])[H])C([H])([H])[H])C(C([H])([H])[H])(C([H])([H])[H])C([H])([H])[H])C([H])([H])c2c([H])c(OC([H])(C([H])([H])[H])C3([H])C([H])([H])C([H])([H])C([H])([H])C([H])(c4c([H])c([H])c([H])c(N([H])C(=O)N5C([H])([H])C([H])([H])C([H])([H])C([H])(n6nc(-c7c([H])c([H])c(Oc8c([H])c([H])c(F)c([H])c8F)c([H])c7[H])c(C(=O)N([H])[H])c6N([H])[H])C5([H])[H])c4[H])[N+]3([H])[H])c([H])c([H])c2C1([H])[H]

>  <smiles>  (50) 
[H]c1c([H])c([H])c2c(c1[H])C([H])([H])C([H])([H])C([H])([H])C2([H])N([H])C(=O)C1([H])N(C(=O)C([H])(N([H])C(=O)C([H])(N([H])C([H])([H])[H])C([H])([H])[H])C(C([H])([H])[H])(C([H])([H])[H])C([H])([H])[H])C([H])([H])c2c([H])c(OC([H])(C([H])([H])[H])C3([H])C([H])([H])C([H])([H])C([H])([H])C([H])(c4c([H])c([H])c([H])c(N([H])C(=O)N5C([H])([H])C([H])([H])C([H])([H])C([H])(n6nc(-c7c([H])c([H])c(Oc8c([H])c([H])c(F)c([H])c8F)c([H])c7[H])c(C(=O)N([H])[H])c6N([H])[H])C5([H])[H])c4[H])[N+]3([H])[H])c([H])c([H])c2C1([H])[H]

$$$$
50:0:0
     RDKit          3D

 95103  0  0  1  0  0  0  0  0999 V2000
  -29.1750  -22.4610   20.4340 C   0  0  0  0  0  0  0  0  0  0  0  0
  -28.7630  -21.1330   20.3680 N   0  0  0  0  0  0  0  0  0  0  0  0
  -30.3200  -22.7490   20.7700 O   0  0  0  0  0  0  0  0  0  0  0  0
  -27.7910  -21.0630   20.0980 H   0  0  0  0  0  0  0  0  0  0  0  0
  -30.8680  -17.9900   20.9040 C   0  0  0  0  0  3  0  0  0  0  0  0
  -30.6620  -19.4300   20.8990 C   0  0  0  0  0  0  0  0  0  0  0  0
  -29.7980  -17.2130   20.5310 C   0  0  0  0  0  0  0  0  0  0  0  0
  -29.3890  -19.8730   20.5250 C   0  0  0  0  0  0  0  0  0  0  0  0
  -28.4790  -18.3680   20.1800 S   0  0  0  0  0  0  0  0  0  0  0  0
  -30.5360  -14.7620   20.3180 C   0  0  0  0  0  0  0  0  0  0  0  0
  -30.3870  -12.4920   19.2820 C   0  0  0  0  0  2  0  0  0  0  0  0
  -29.4250  -12.5820   18.0750 C   0  0  0  0  0  2  0  0  0  0  0  0
  -27.9580  -12.4010   18.5220 C   0  0  0  0  0  2  0  0  0  0  0  0
  -27.5970  -13.2750   19.7550 C   0  0  0  0  0  3  0  0  0  0  0  0
  -28.6730  -13.1470   20.8580 C   0  0  0  0  0  2  0  0  0  0  0  0
  -29.9600  -13.5180   20.2560 N   0  0  0  0  0  0  0  0  0  0  0  0
  -31.7230  -14.9240   20.0140 O   0  0  0  0  0  0  0  0  0  0  0  0
  -29.6540  -15.8200   20.4780 N   0  0  0  0  0  0  0  0  0  0  0  0
  -28.6990  -15.5030   20.5130 H   0  0  0  0  0  0  0  0  0  0  0  0
  -25.2130  -13.8620   20.5070 C   0  0  0  0  0  0  0  0  0  0  0  0
  -24.1550  -13.0830   20.8830 C   0  0  0  0  0  0  0  0  0  0  0  0
  -24.6230  -11.7330   20.8450 C   0  0  0  0  0  0  0  0  0  0  0  0
  -26.2590  -12.9860   20.2590 N   0  0  0  0  0  0  0  0  0  0  0  0
  -25.9120  -11.7030   20.5290 N   0  0  0  0  0  0  0  0  0  0  0  0
  -23.9050  -10.4670   21.0410 C   0  0  0  0  0  0  0  0  0  0  0  0
  -24.3510   -9.4990   21.9670 C   0  0  0  0  0  3  0  0  0  0  0  0
  -23.6310   -8.2980   22.1520 C   0  0  0  0  0  3  0  0  0  0  0  0
  -22.4540   -8.0540   21.4070 C   0  0  0  0  0  0  0  0  0  0  0  0
  -22.0230   -9.0120   20.4710 C   0  0  0  0  0  3  0  0  0  0  0  0
  -22.7430  -10.2050   20.2850 C   0  0  0  0  0  3  0  0  0  0  0  0
  -21.7060   -6.9060   21.4970 O   0  0  0  0  0  0  0  0  0  0  0  0
  -21.6760   -6.1550   22.6450 C   0  0  0  0  0  0  0  0  0  0  0  0
  -21.2630   -6.7010   23.8800 C   0  0  0  0  0  3  0  0  0  0  0  0
  -21.1810   -5.8790   25.0200 C   0  0  0  0  0  3  0  0  0  0  0  0
  -21.5010   -4.5110   24.9270 C   0  0  0  0  0  0  0  0  0  0  0  0
  -21.9080   -3.9650   23.6990 C   0  0  0  0  0  3  0  0  0  0  0  0
  -21.9930   -4.7840   22.5600 C   0  0  0  0  0  0  0  0  0  0  0  0
  -22.3650   -4.2490   21.3720 F   0  0  0  0  0  0  0  0  0  0  0  0
  -21.4160   -3.7190   26.0230 F   0  0  0  0  0  0  0  0  0  0  0  0
  -22.7570  -13.5510   21.1650 C   0  0  0  0  0  0  0  0  0  0  0  0
  -22.0370  -12.8500   22.0320 N   0  0  0  0  0  0  0  0  0  0  0  0
  -22.3110  -14.5760   20.6480 O   0  0  0  0  0  0  0  0  0  0  0  0
  -22.4090  -12.0160   22.4650 H   0  0  0  0  0  0  0  0  0  0  0  0
  -21.1040  -13.1520   22.2710 H   0  0  0  0  0  0  0  0  0  0  0  0
  -25.3620  -15.2360   20.3340 N   0  0  0  0  0  0  0  0  0  0  0  0
  -24.5750  -15.8630   20.4580 H   0  0  0  0  0  0  0  0  0  0  0  0
  -26.1780  -15.7020   19.9650 H   0  0  0  0  0  0  0  0  0  0  0  0
  -31.7870  -20.2520   21.3110 C   0  0  0  0  0  0  0  0  0  0  0  0
  -32.8710  -20.4080   20.2540 C   0  0  0  0  0  1  0  0  0  0  0  0
  -31.9520  -20.7250   22.4400 O   0  0  0  0  0  0  0  0  0  0  0  0
  -26.7390  -23.2620   20.3240 C   0  0  0  0  0  1  0  0  0  0  0  0
  -28.3750  -23.8700   18.4980 C   0  0  0  0  0  1  0  0  0  0  0  0
  -28.2010  -23.6880   20.0260 C   0  0  2  0  0  0  0  0  0  0  0  0
  -28.4840  -25.1280   20.7460 C   0  0  0  0  0  2  0  0  0  0  0  0
  -28.3760  -26.4870   20.1190 O   0  0  0  0  0  0  0  0  0  0  0  0
  -24.6060  -31.8920   23.2420 C   0  0  0  0  0  0  0  0  0  0  0  0
  -27.2320  -27.2990   20.2120 C   0  0  0  0  0  0  0  0  0  0  0  0
  -23.4110  -30.4810   21.6010 C   0  0  0  0  0  3  0  0  0  0  0  0
  -24.8680  -28.9190   20.1940 C   0  0  0  0  0  0  0  0  0  0  0  0
  -25.9490  -30.8010   21.4190 C   0  0  0  0  0  2  0  0  0  0  0  0
  -26.0360  -29.4110   20.7910 C   0  0  0  0  0  0  0  0  0  0  0  0
  -27.2260  -28.6180   20.7780 C   0  0  0  0  0  3  0  0  0  0  0  0
  -26.0380  -26.8540   19.6170 C   0  0  0  0  0  3  0  0  0  0  0  0
  -24.8730  -27.6470   19.5970 C   0  0  0  0  0  3  0  0  0  0  0  0
  -23.6300  -29.7940   20.2260 C   0  0  0  0  0  2  0  0  0  0  0  0
  -24.6750  -31.0770   22.1450 N   0  0  0  0  0  0  0  0  0  0  0  0
  -23.5240  -32.1720   23.7730 O   0  0  0  0  0  0  0  0  0  0  0  0
  -22.7440  -29.4740   22.5720 C   0  0  0  0  0  0  0  0  0  0  0  0
  -21.4190  -29.2950   22.4460 N   0  0  0  0  0  0  0  0  0  0  0  0
  -23.4210  -28.8560   23.3960 O   0  0  0  0  0  0  0  0  0  0  0  0
  -20.9370  -29.8510   21.7530 H   0  0  0  0  0  0  0  0  0  0  0  0
  -18.0410  -28.0850   22.9270 C   0  0  0  0  0  0  0  0  0  0  0  0
  -20.5970  -28.3540   23.2110 C   0  0  0  0  0  3  0  0  0  0  0  0
  -20.7100  -26.9240   22.6340 C   0  0  0  0  0  2  0  0  0  0  0  0
  -19.6150  -26.5950   21.6160 C   0  0  0  0  0  2  0  0  0  0  0  0
  -18.2270  -26.7320   22.2540 C   0  0  0  0  0  2  0  0  0  0  0  0
  -19.1550  -28.8520   23.3600 C   0  0  0  0  0  0  0  0  0  0  0  0
  -18.9320  -30.1130   23.9530 C   0  0  0  0  0  3  0  0  0  0  0  0
  -17.6270  -30.6120   24.1180 C   0  0  0  0  0  3  0  0  0  0  0  0
  -16.5270  -29.8430   23.7030 C   0  0  0  0  0  3  0  0  0  0  0  0
  -16.7330  -28.5820   23.1150 C   0  0  0  0  0  3  0  0  0  0  0  0
  -25.8880  -32.5270   23.8660 C   0  0  0  0  0  3  0  0  0  0  0  0
  -26.4030  -31.7630   25.1470 C   0  0  1  0  0  0  0  0  0  0  0  0
  -25.3070  -31.5260   26.2130 C   0  0  0  0  0  1  0  0  0  0  0  0
  -26.9910  -30.3850   24.7630 C   0  0  0  0  0  1  0  0  0  0  0  0
  -27.5530  -32.5610   25.8040 C   0  0  0  0  0  1  0  0  0  0  0  0
  -25.5790  -33.9270   24.1930 N   0  0  0  0  0  0  0  0  0  0  0  0
  -25.9110  -34.9780   23.4310 C   0  0  0  0  0  0  0  0  0  0  0  0
  -26.5800  -34.8730   22.4010 O   0  0  0  0  0  0  0  0  0  0  0  0
  -24.9840  -34.0840   24.9920 H   0  0  0  0  0  0  0  0  0  0  0  0
  -24.1810  -36.7710   23.0700 C   0  0  0  0  0  1  0  0  0  0  0  0
  -25.4210  -36.3680   23.8850 C   0  0  0  0  0  3  0  0  0  0  0  0
  -27.5540  -37.2550   24.7150 C   0  0  0  0  0  1  0  0  0  0  0  0
  -26.4530  -37.4210   23.7710 N   0  0  0  0  0  0  0  0  0  0  0  0
  -26.0470  -38.3420   23.9170 H   0  0  0  0  0  0  0  0  0  0  0  0
  1  3  2  0
  2  1  1  0
  2  8  1  0
  4  2  1  0
  6  5  1  0
  6 48  1  0
  7  5  2  0
  8  6  2  0
  9  8  1  0
  9  7  1  0
 10 18  1  0
 11 16  1  0
 12 13  1  0
 12 11  1  0
 14 13  1  0
 14 23  1  0
 14 15  1  0
 16 10  1  0
 16 15  1  0
 17 10  2  0
 18 19  1  0
 18  7  1  0
 20 21  2  0
 21 40  1  0
 22 21  1  0
 22 25  1  0
 23 20  1  0
 23 24  1  0
 24 22  2  0
 25 26  1  0
 26 27  2  0
 28 31  1  0
 28 27  1  0
 29 28  2  0
 30 29  1  0
 30 25  2  0
 31 32  1  0
 32 33  1  0
 33 34  2  0
 35 34  1  0
 35 39  1  0
 36 35  2  0
 37 32  2  0
 37 36  1  0
 38 37  1  0
 40 41  1  0
 41 44  1  0
 41 43  1  0
 42 40  2  0
 45 46  1  0
 45 20  1  0
 47 45  1  0
 48 50  2  0
 49 48  1  0
 53 52  1  6
 53 51  1  0
 53  1  1  0
 53 54  1  0
 55 57  1  0
 55 54  1  0
 56 67  2  0
 57 62  1  0
 58 66  1  0
 58 68  1  0
 59 65  1  0
 59 61  1  0
 60 66  1  0
 61 60  1  0
 62 61  2  0
 63 57  2  0
 64 63  1  0
 64 59  2  0
 65 58  1  0
 66 56  1  0
 68 70  2  0
 69 68  1  0
 71 69  1  0
 72 81  2  0
 72 77  1  0
 73 69  1  0
 73 77  1  0
 74 73  1  0
 75 76  1  0
 75 74  1  0
 76 72  1  0
 77 78  2  0
 78 79  1  0
 80 79  2  0
 81 80  1  0
 82 56  1  0
 82 87  1  0
 82 83  1  0
 83 86  1  1
 83 84  1  0
 85 83  1  0
 87 90  1  0
 88 92  1  0
 88 87  1  0
 89 88  2  0
 92 91  1  0
 94 92  1  0
 94 95  1  0
 94 93  1  0
M  ISO  4  10 100  18 100  54 101  55 101
M  END
>  <TORSDO>  (51) 
F 20

>  <SCORE>  (51) 
-14.385

>  <name>  (51) 
50

>  <ligand_id>  (51) 
50

>  <original_smiles>  (51) 
[H]c1c([H])c([H])c2c(c1[H])C([H])([H])C([H])([H])C([H])([H])C2([H])N([H])C(=O)C1([H])N(C(=O)C([H])(N([H])C(=O)C([H])(N([H])C([H])([H])[H])C([H])([H])[H])C(C([H])([H])[H])(C([H])([H])[H])C([H])([H])[H])C([H])([H])c2c([H])c(OC([H])([H])C(C(=O)N([H])c3sc(N([H])C(=O)N4C([H])([H])C([H])([H])C([H])([H])C([H])(n5nc(-c6c([H])c([H])c(Oc7c([H])c([H])c(F)c([H])c7F)c([H])c6[H])c(C(=O)N([H])[H])c5N([H])[H])C4([H])[H])c([H])c3C(=O)C([H])([H])[H])(C([H])([H])[H])C([H])([H])[H])c([H])c([H])c2C1([H])[H]

>  <smiles>  (51) 
[H]c1c([H])c([H])c2c(c1[H])C([H])([H])C([H])([H])C([H])([H])C2([H])N([H])C(=O)C1([H])N(C(=O)C([H])(N([H])C(=O)C([H])(N([H])C([H])([H])[H])C([H])([H])[H])C(C([H])([H])[H])(C([H])([H])[H])C([H])([H])[H])C([H])([H])c2c([H])c(OC([H])([H])C(C(=O)N([H])c3sc(N([H])C(=O)N4C([H])([H])C([H])([H])C([H])([H])C([H])(n5nc(-c6c([H])c([H])c(Oc7c([H])c([H])c(F)c([H])c7F)c([H])c6[H])c(C(=O)N([H])[H])c5N([H])[H])C4([H])[H])c([H])c3C(=O)C([H])([H])[H])(C([H])([H])[H])C([H])([H])[H])c([H])c([H])c2C1([H])[H]

$$$$
51:0:0
     RDKit          3D

 92101  0  0  1  0  0  0  0  0999 V2000
  -28.5200  -23.8470   20.5500 C   0  0  0  0  0  0  0  0  0  0  0  0
  -28.6160  -22.8170   21.6990 C   0  0  0  0  0  2  0  0  0  0  0  0
  -28.6800  -21.3100   21.2840 C   0  0  0  0  0  2  0  0  0  0  0  0
  -28.9970  -22.0760   18.9500 C   0  0  0  0  0  2  0  0  0  0  0  0
  -29.5800  -21.1060   20.0550 C   0  0  0  0  0  3  0  0  0  0  0  0
  -28.7460  -23.4960   19.3360 N   0  0  0  0  0  0  0  0  0  0  0  0
  -30.9100  -18.2320   17.8260 C   0  0  0  0  0  3  0  0  0  0  0  0
  -30.5240  -19.4820   18.3360 C   0  0  0  0  0  3  0  0  0  0  0  0
  -30.7000  -17.0610   18.5680 C   0  0  0  0  0  3  0  0  0  0  0  0
  -29.6760  -18.3950   20.3400 C   0  0  0  0  0  3  0  0  0  0  0  0
  -29.8850  -19.6180   19.5890 C   0  0  0  0  0  0  0  0  0  0  0  0
  -30.1070  -17.0970   19.8530 C   0  0  0  0  0  0  0  0  0  0  0  0
  -30.6740  -14.6730   20.3880 C   0  0  0  0  0  0  0  0  0  0  0  0
  -30.4220  -12.4280   19.3850 C   0  0  0  0  0  2  0  0  0  0  0  0
  -29.5060  -12.5750   18.1500 C   0  0  0  0  0  2  0  0  0  0  0  0
  -28.0260  -12.4350   18.5560 C   0  0  0  0  0  2  0  0  0  0  0  0
  -27.6590  -13.3000   19.7920 C   0  0  0  0  0  3  0  0  0  0  0  0
  -28.7030  -13.1680   20.9240 C   0  0  0  0  0  2  0  0  0  0  0  0
  -30.0200  -13.4710   20.3510 N   0  0  0  0  0  0  0  0  0  0  0  0
  -31.8690  -14.7450   20.0850 O   0  0  0  0  0  0  0  0  0  0  0  0
  -29.9270  -15.8190   20.5570 N   0  0  0  0  0  0  0  0  0  0  0  0
  -29.0420  -15.6960   21.0260 H   0  0  0  0  0  0  0  0  0  0  0  0
  -25.2610  -13.9000   20.4830 C   0  0  0  0  0  0  0  0  0  0  0  0
  -24.1900  -13.1290   20.8450 C   0  0  0  0  0  0  0  0  0  0  0  0
  -24.6520  -11.7770   20.8300 C   0  0  0  0  0  0  0  0  0  0  0  0
  -26.3060  -13.0170   20.2660 N   0  0  0  0  0  0  0  0  0  0  0  0
  -25.9470  -11.7360   20.5370 N   0  0  0  0  0  0  0  0  0  0  0  0
  -23.9230  -10.5170   21.0200 C   0  0  0  0  0  0  0  0  0  0  0  0
  -24.3430   -9.5550   21.9650 C   0  0  0  0  0  3  0  0  0  0  0  0
  -23.6130   -8.3600   22.1430 C   0  0  0  0  0  3  0  0  0  0  0  0
  -22.4490   -8.1170   21.3750 C   0  0  0  0  0  0  0  0  0  0  0  0
  -22.0500   -9.0670   20.4170 C   0  0  0  0  0  3  0  0  0  0  0  0
  -22.7800  -10.2530   20.2390 C   0  0  0  0  0  3  0  0  0  0  0  0
  -21.6910   -6.9740   21.4610 O   0  0  0  0  0  0  0  0  0  0  0  0
  -21.6250   -6.2410   22.6180 C   0  0  0  0  0  0  0  0  0  0  0  0
  -21.1760   -6.8030   23.8340 C   0  0  0  0  0  3  0  0  0  0  0  0
  -21.0580   -5.9940   24.9820 C   0  0  0  0  0  3  0  0  0  0  0  0
  -21.3790   -4.6250   24.9160 C   0  0  0  0  0  0  0  0  0  0  0  0
  -21.8190   -4.0630   23.7060 C   0  0  0  0  0  3  0  0  0  0  0  0
  -21.9410   -4.8680   22.5600 C   0  0  0  0  0  0  0  0  0  0  0  0
  -22.3450   -4.3160   21.3910 F   0  0  0  0  0  0  0  0  0  0  0  0
  -21.2590   -3.8460   26.0170 F   0  0  0  0  0  0  0  0  0  0  0  0
  -22.7900  -13.6090   21.0960 C   0  0  0  0  0  0  0  0  0  0  0  0
  -22.0510  -12.9170   21.9550 N   0  0  0  0  0  0  0  0  0  0  0  0
  -22.3590  -14.6320   20.5640 O   0  0  0  0  0  0  0  0  0  0  0  0
  -22.4130  -12.0900   22.4060 H   0  0  0  0  0  0  0  0  0  0  0  0
  -21.1080  -13.2160   22.1630 H   0  0  0  0  0  0  0  0  0  0  0  0
  -25.4310  -15.2690   20.2970 N   0  0  0  0  0  0  0  0  0  0  0  0
  -24.6650  -15.9260   20.3900 H   0  0  0  0  0  0  0  0  0  0  0  0
  -26.2840  -15.7020   19.9660 H   0  0  0  0  0  0  0  0  0  0  0  0
  -28.1250  -25.3030   21.0340 C   0  0  0  0  0  2  0  0  0  0  0  0
  -28.3070  -26.4910   20.1770 O   0  0  0  0  0  0  0  0  0  0  0  0
  -24.5950  -31.8860   23.2080 C   0  0  0  0  0  0  0  0  0  0  0  0
  -27.2130  -27.3590   20.1490 C   0  0  0  0  0  0  0  0  0  0  0  0
  -23.3930  -30.4890   21.5640 C   0  0  0  0  0  3  0  0  0  0  0  0
  -24.8470  -28.9450   20.1350 C   0  0  0  0  0  0  0  0  0  0  0  0
  -25.9290  -30.8210   21.3770 C   0  0  0  0  0  2  0  0  0  0  0  0
  -26.0130  -29.4450   20.7310 C   0  0  0  0  0  0  0  0  0  0  0  0
  -27.2040  -28.6620   20.7290 C   0  0  0  0  0  3  0  0  0  0  0  0
  -26.0330  -26.9040   19.5310 C   0  0  0  0  0  3  0  0  0  0  0  0
  -24.8570  -27.6790   19.5270 C   0  0  0  0  0  3  0  0  0  0  0  0
  -23.6070  -29.8130   20.1840 C   0  0  0  0  0  2  0  0  0  0  0  0
  -24.6580  -31.0820   22.1070 N   0  0  0  0  0  0  0  0  0  0  0  0
  -23.5110  -32.1590   23.7440 O   0  0  0  0  0  0  0  0  0  0  0  0
  -22.7340  -29.4700   22.5240 C   0  0  0  0  0  0  0  0  0  0  0  0
  -21.4080  -29.2940   22.4010 N   0  0  0  0  0  0  0  0  0  0  0  0
  -23.4160  -28.8390   23.3350 O   0  0  0  0  0  0  0  0  0  0  0  0
  -20.9170  -29.8530   21.7140 H   0  0  0  0  0  0  0  0  0  0  0  0
  -18.0280  -28.1160   22.9170 C   0  0  0  0  0  0  0  0  0  0  0  0
  -20.5890  -28.3570   23.1710 C   0  0  0  0  0  3  0  0  0  0  0  0
  -20.6780  -26.9300   22.5860 C   0  0  0  0  0  2  0  0  0  0  0  0
  -19.5670  -26.6210   21.5770 C   0  0  0  0  0  2  0  0  0  0  0  0
  -18.1900  -26.7710   22.2310 C   0  0  0  0  0  2  0  0  0  0  0  0
  -19.1540  -28.8680   23.3450 C   0  0  0  0  0  0  0  0  0  0  0  0
  -18.9450  -30.1290   23.9460 C   0  0  0  0  0  3  0  0  0  0  0  0
  -17.6450  -30.6370   24.1260 C   0  0  0  0  0  3  0  0  0  0  0  0
  -16.5340  -29.8800   23.7150 C   0  0  0  0  0  3  0  0  0  0  0  0
  -16.7250  -28.6230   23.1160 C   0  0  0  0  0  3  0  0  0  0  0  0
  -25.8760  -32.5210   23.8300 C   0  0  0  0  0  3  0  0  0  0  0  0
  -25.5640  -33.9180   24.1630 N   0  0  0  0  0  0  0  0  0  0  0  0
  -25.8990  -34.9740   23.4090 C   0  0  0  0  0  0  0  0  0  0  0  0
  -26.5740  -34.8740   22.3790 O   0  0  0  0  0  0  0  0  0  0  0  0
  -24.9660  -34.0700   24.9620 H   0  0  0  0  0  0  0  0  0  0  0  0
  -24.1790  -36.7730   23.0440 C   0  0  0  0  0  1  0  0  0  0  0  0
  -25.4090  -36.3610   23.8670 C   0  0  0  0  0  3  0  0  0  0  0  0
  -27.5330  -37.2390   24.7320 C   0  0  0  0  0  1  0  0  0  0  0  0
  -26.4440  -37.4130   23.7750 N   0  0  0  0  0  0  0  0  0  0  0  0
  -26.0370  -38.3330   23.9220 H   0  0  0  0  0  0  0  0  0  0  0  0
  -26.3940  -31.7490   25.1060 C   0  0  1  0  0  0  0  0  0  0  0  0
  -25.3000  -31.5070   26.1720 C   0  0  0  0  0  1  0  0  0  0  0  0
  -26.9790  -30.3730   24.7130 C   0  0  0  0  0  1  0  0  0  0  0  0
  -27.5450  -32.5430   25.7690 C   0  0  0  0  0  1  0  0  0  0  0  0
  1 51  1  0
  1  2  1  0
  3  2  1  0
  4  6  1  0
  4  5  1  0
  5 11  1  0
  5  3  1  0
  6  1  2  0
  7  8  2  0
  7  9  1  0
  8 11  1  0
  9 12  2  0
 11 10  2  0
 12 10  1  0
 12 21  1  0
 13 21  1  0
 14 19  1  0
 15 16  1  0
 15 14  1  0
 17 16  1  0
 17 26  1  0
 17 18  1  0
 19 13  1  0
 19 18  1  0
 20 13  2  0
 21 22  1  0
 23 24  2  0
 24 43  1  0
 25 24  1  0
 25 28  1  0
 26 23  1  0
 26 27  1  0
 27 25  2  0
 28 29  1  0
 29 30  2  0
 31 34  1  0
 31 30  1  0
 32 31  2  0
 33 32  1  0
 33 28  2  0
 34 35  1  0
 35 36  1  0
 36 37  2  0
 38 37  1  0
 38 42  1  0
 39 38  2  0
 40 35  2  0
 40 39  1  0
 41 40  1  0
 43 44  1  0
 44 47  1  0
 44 46  1  0
 45 43  2  0
 48 49  1  0
 48 23  1  0
 50 48  1  0
 52 51  1  0
 53 64  2  0
 54 52  1  0
 54 59  1  0
 55 63  1  0
 55 65  1  0
 56 62  1  0
 56 58  1  0
 57 63  1  0
 58 57  1  0
 59 58  2  0
 60 54  2  0
 61 60  1  0
 61 56  2  0
 62 55  1  0
 63 53  1  0
 65 67  2  0
 66 65  1  0
 68 66  1  0
 69 78  2  0
 69 74  1  0
 70 66  1  0
 70 74  1  0
 71 70  1  0
 72 73  1  0
 72 71  1  0
 73 69  1  0
 74 75  2  0
 75 76  1  0
 77 76  2  0
 78 77  1  0
 79 53  1  0
 79 80  1  0
 79 89  1  0
 80 83  1  0
 81 85  1  0
 81 80  1  0
 82 81  2  0
 85 84  1  0
 87 85  1  0
 87 88  1  0
 87 86  1  0
 89 92  1  1
 89 90  1  0
 91 89  1  0
M  ISO  4  13 100  21 100  51 101  52 101
M  END
>  <TORSDO>  (52) 
F 18

>  <SCORE>  (52) 
-14.866

>  <name>  (52) 
51

>  <ligand_id>  (52) 
51

>  <original_smiles>  (52) 
[H]c1c([H])c([H])c2c(c1[H])C([H])([H])C([H])([H])C([H])([H])C2([H])N([H])C(=O)C1([H])N(C(=O)C([H])(N([H])C(=O)C([H])(N([H])C([H])([H])[H])C([H])([H])[H])C(C([H])([H])[H])(C([H])([H])[H])C([H])([H])[H])C([H])([H])c2c([H])c(OC([H])([H])C3=NC([H])([H])C([H])(c4c([H])c([H])c([H])c(N([H])C(=O)N5C([H])([H])C([H])([H])C([H])([H])C([H])(n6nc(-c7c([H])c([H])c(Oc8c([H])c([H])c(F)c([H])c8F)c([H])c7[H])c(C(=O)N([H])[H])c6N([H])[H])C5([H])[H])c4[H])C([H])([H])C3([H])[H])c([H])c([H])c2C1([H])[H]

>  <smiles>  (52) 
[H]c1c([H])c([H])c2c(c1[H])C([H])([H])C([H])([H])C([H])([H])C2([H])N([H])C(=O)C1([H])N(C(=O)C([H])(N([H])C(=O)C([H])(N([H])C([H])([H])[H])C([H])([H])[H])C(C([H])([H])[H])(C([H])([H])[H])C([H])([H])[H])C([H])([H])c2c([H])c(OC([H])([H])C3=NC([H])([H])C([H])(c4c([H])c([H])c([H])c(N([H])C(=O)N5C([H])([H])C([H])([H])C([H])([H])C([H])(n6nc(-c7c([H])c([H])c(Oc8c([H])c([H])c(F)c([H])c8F)c([H])c7[H])c(C(=O)N([H])[H])c6N([H])[H])C5([H])[H])c4[H])C([H])([H])C3([H])[H])c([H])c([H])c2C1([H])[H]

$$$$
52:0:0
     RDKit          3D

 93101  0  0  1  0  0  0  0  0999 V2000
  -29.5170  -21.0740   20.6960 C   0  0  0  0  0  0  0  0  0  0  0  0
  -28.9630  -23.6750   20.6220 C   0  0  0  0  0  0  0  0  0  0  0  0
  -28.9120  -22.2300   20.1450 N   0  0  0  0  0  0  0  0  0  0  0  0
  -30.1680  -21.1730   21.8650 N   0  0  0  0  0  4  0  0  0  0  0  0
  -29.7140  -23.9650   21.5650 O   0  0  0  0  0  0  0  0  0  0  0  0
  -28.3600  -21.9990   19.3370 H   0  0  0  0  0  0  0  0  0  0  0  0
  -30.2850  -22.0660   22.3250 H   0  0  0  0  0  0  0  0  0  0  0  0
  -30.6180  -20.3510   22.2440 H   0  0  0  0  0  0  0  0  0  0  0  0
  -29.7570  -19.1710   18.8270 C   0  0  0  0  0  3  0  0  0  0  0  0
  -29.9420  -17.7390   18.8760 C   0  0  0  0  0  3  0  0  0  0  0  0
  -29.5860  -19.6680   20.0990 C   0  0  0  0  0  0  0  0  0  0  0  0
  -29.8780  -17.3400   20.1870 C   0  0  0  0  0  0  0  0  0  0  0  0
  -29.6360  -18.5180   20.9490 O   0  0  0  0  0  0  0  0  0  0  0  0
  -30.5750  -14.8560   20.2770 C   0  0  0  0  0  0  0  0  0  0  0  0
  -30.3800  -12.5460   19.3200 C   0  0  0  0  0  2  0  0  0  0  0  0
  -29.4370  -12.6020   18.0950 C   0  0  0  0  0  2  0  0  0  0  0  0
  -27.9690  -12.4340   18.5290 C   0  0  0  0  0  2  0  0  0  0  0  0
  -27.6040  -13.3190   19.7530 C   0  0  0  0  0  3  0  0  0  0  0  0
  -28.6710  -13.2500   20.8670 C   0  0  0  0  0  2  0  0  0  0  0  0
  -29.9630  -13.6130   20.2670 N   0  0  0  0  0  0  0  0  0  0  0  0
  -31.7380  -14.9470   19.8720 O   0  0  0  0  0  0  0  0  0  0  0  0
  -29.8390  -15.9940   20.6360 N   0  0  0  0  0  0  0  0  0  0  0  0
  -29.0270  -15.7750   21.1900 H   0  0  0  0  0  0  0  0  0  0  0  0
  -25.2230  -13.8990   20.5040 C   0  0  0  0  0  0  0  0  0  0  0  0
  -24.1600  -13.1240   20.8830 C   0  0  0  0  0  0  0  0  0  0  0  0
  -24.6250  -11.7740   20.8460 C   0  0  0  0  0  0  0  0  0  0  0  0
  -26.2660  -13.0230   20.2570 N   0  0  0  0  0  0  0  0  0  0  0  0
  -25.9140  -11.7380   20.5260 N   0  0  0  0  0  0  0  0  0  0  0  0
  -23.9010  -10.5100   21.0410 C   0  0  0  0  0  0  0  0  0  0  0  0
  -24.3420   -9.5380   21.9660 C   0  0  0  0  0  3  0  0  0  0  0  0
  -23.6160   -8.3410   22.1490 C   0  0  0  0  0  3  0  0  0  0  0  0
  -22.4340   -8.1070   21.4060 C   0  0  0  0  0  0  0  0  0  0  0  0
  -22.0120   -9.0670   20.4690 C   0  0  0  0  0  3  0  0  0  0  0  0
  -22.7390  -10.2550   20.2850 C   0  0  0  0  0  3  0  0  0  0  0  0
  -21.6780   -6.9620   21.4960 O   0  0  0  0  0  0  0  0  0  0  0  0
  -21.6410   -6.2130   22.6450 C   0  0  0  0  0  0  0  0  0  0  0  0
  -21.2220   -6.7610   23.8780 C   0  0  0  0  0  3  0  0  0  0  0  0
  -21.1320   -5.9390   25.0190 C   0  0  0  0  0  3  0  0  0  0  0  0
  -21.4510   -4.5710   24.9300 C   0  0  0  0  0  0  0  0  0  0  0  0
  -21.8620   -4.0220   23.7020 C   0  0  0  0  0  3  0  0  0  0  0  0
  -21.9540   -4.8410   22.5620 C   0  0  0  0  0  0  0  0  0  0  0  0
  -22.3310   -4.3030   21.3770 F   0  0  0  0  0  0  0  0  0  0  0  0
  -21.3560   -3.7800   26.0230 F   0  0  0  0  0  0  0  0  0  0  0  0
  -22.7650  -13.6010   21.1630 C   0  0  0  0  0  0  0  0  0  0  0  0
  -22.0400  -12.9050   22.0320 N   0  0  0  0  0  0  0  0  0  0  0  0
  -22.3250  -14.6250   20.6440 O   0  0  0  0  0  0  0  0  0  0  0  0
  -22.4090  -12.0780   22.4760 H   0  0  0  0  0  0  0  0  0  0  0  0
  -21.1030  -13.2070   22.2560 H   0  0  0  0  0  0  0  0  0  0  0  0
  -25.3850  -15.2730   20.3310 N   0  0  0  0  0  0  0  0  0  0  0  0
  -24.6130  -15.9240   20.4280 H   0  0  0  0  0  0  0  0  0  0  0  0
  -26.2320  -15.7170   20.0000 H   0  0  0  0  0  0  0  0  0  0  0  0
  -28.0290  -24.8270   19.9670 C   0  0  0  0  0  2  0  0  0  0  0  0
  -28.2480  -26.3040   20.3130 O   0  0  0  0  0  0  0  0  0  0  0  0
  -24.6020  -31.9060   23.2460 C   0  0  0  0  0  0  0  0  0  0  0  0
  -27.1730  -27.2390   20.2210 C   0  0  0  0  0  0  0  0  0  0  0  0
  -23.3950  -30.5100   21.6120 C   0  0  0  0  0  3  0  0  0  0  0  0
  -24.8370  -28.9410   20.1890 C   0  0  0  0  0  0  0  0  0  0  0  0
  -25.9440  -30.7870   21.4400 C   0  0  0  0  0  2  0  0  0  0  0  0
  -26.0130  -29.4000   20.7950 C   0  0  0  0  0  0  0  0  0  0  0  0
  -27.1820  -28.5610   20.8010 C   0  0  0  0  0  3  0  0  0  0  0  0
  -25.9740  -26.8690   19.5690 C   0  0  0  0  0  3  0  0  0  0  0  0
  -24.8250  -27.6870   19.5640 C   0  0  0  0  0  3  0  0  0  0  0  0
  -23.6100  -29.8330   20.2330 C   0  0  0  0  0  2  0  0  0  0  0  0
  -24.6670  -31.0870   22.1550 N   0  0  0  0  0  0  0  0  0  0  0  0
  -23.5180  -32.1940   23.7760 O   0  0  0  0  0  0  0  0  0  0  0  0
  -22.7220  -29.5020   22.5760 C   0  0  0  0  0  0  0  0  0  0  0  0
  -21.3940  -29.3330   22.4550 N   0  0  0  0  0  0  0  0  0  0  0  0
  -23.3960  -28.8740   23.3970 O   0  0  0  0  0  0  0  0  0  0  0  0
  -20.9080  -29.8920   21.7670 H   0  0  0  0  0  0  0  0  0  0  0  0
  -18.0080  -28.1570   22.9720 C   0  0  0  0  0  0  0  0  0  0  0  0
  -20.5690  -28.4040   23.2320 C   0  0  0  0  0  3  0  0  0  0  0  0
  -20.6620  -26.9700   22.6630 C   0  0  0  0  0  2  0  0  0  0  0  0
  -19.5550  -26.6480   21.6530 C   0  0  0  0  0  2  0  0  0  0  0  0
  -18.1760  -26.8050   22.3000 C   0  0  0  0  0  2  0  0  0  0  0  0
  -19.1330  -28.9150   23.3940 C   0  0  0  0  0  0  0  0  0  0  0  0
  -18.9220  -30.1800   23.9860 C   0  0  0  0  0  3  0  0  0  0  0  0
  -17.6210  -30.6880   24.1570 C   0  0  0  0  0  3  0  0  0  0  0  0
  -16.5110  -29.9290   23.7470 C   0  0  0  0  0  3  0  0  0  0  0  0
  -16.7060  -28.6650   23.1610 C   0  0  0  0  0  3  0  0  0  0  0  0
  -25.8850  -32.5390   23.8660 C   0  0  0  0  0  3  0  0  0  0  0  0
  -25.5800  -33.9410   24.1890 N   0  0  0  0  0  0  0  0  0  0  0  0
  -25.9070  -34.9910   23.4220 C   0  0  0  0  0  0  0  0  0  0  0  0
  -26.5690  -34.8820   22.3850 O   0  0  0  0  0  0  0  0  0  0  0  0
  -25.0000  -34.1000   24.9990 H   0  0  0  0  0  0  0  0  0  0  0  0
  -24.1830  -36.7920   23.0760 C   0  0  0  0  0  1  0  0  0  0  0  0
  -25.4280  -36.3830   23.8790 C   0  0  0  0  0  3  0  0  0  0  0  0
  -27.5720  -37.2700   24.6920 C   0  0  0  0  0  1  0  0  0  0  0  0
  -26.4630  -37.4340   23.7540 N   0  0  0  0  0  0  0  0  0  0  0  0
  -26.0590  -38.3540   23.8990 H   0  0  0  0  0  0  0  0  0  0  0  0
  -26.3960  -31.7760   25.1490 C   0  0  1  0  0  0  0  0  0  0  0  0
  -25.3000  -31.5550   26.2180 C   0  0  0  0  0  1  0  0  0  0  0  0
  -26.9760  -30.3930   24.7740 C   0  0  0  0  0  1  0  0  0  0  0  0
  -27.5450  -32.5740   25.8110 C   0  0  0  0  0  1  0  0  0  0  0  0
  1  4  2  0
  2  5  2  0
  3  2  1  0
  3  1  1  0
  4  8  1  0
  4  7  1  0
  6  3  1  0
  9 10  1  0
  9 11  2  0
 10 12  2  0
 11  1  1  0
 11 13  1  0
 12 22  1  0
 12 13  1  0
 14 22  1  0
 15 20  1  0
 16 17  1  0
 16 15  1  0
 18 17  1  0
 18 27  1  0
 18 19  1  0
 20 14  1  0
 20 19  1  0
 21 14  2  0
 22 23  1  0
 24 25  2  0
 25 44  1  0
 26 25  1  0
 26 29  1  0
 27 24  1  0
 27 28  1  0
 28 26  2  0
 29 30  1  0
 30 31  2  0
 32 35  1  0
 32 31  1  0
 33 32  2  0
 34 33  1  0
 34 29  2  0
 35 36  1  0
 36 37  1  0
 37 38  2  0
 39 38  1  0
 39 43  1  0
 40 39  2  0
 41 36  2  0
 41 40  1  0
 42 41  1  0
 44 45  1  0
 45 48  1  0
 45 47  1  0
 46 44  2  0
 49 50  1  0
 49 24  1  0
 51 49  1  0
 52 53  1  0
 52  2  1  0
 54 65  2  0
 55 53  1  0
 55 60  1  0
 56 64  1  0
 56 66  1  0
 57 63  1  0
 57 59  1  0
 58 64  1  0
 59 60  2  0
 59 58  1  0
 61 55  2  0
 62 61  1  0
 62 57  2  0
 63 56  1  0
 64 54  1  0
 66 68  2  0
 67 66  1  0
 69 67  1  0
 70 79  2  0
 70 75  1  0
 71 67  1  0
 71 75  1  0
 72 71  1  0
 73 74  1  0
 73 72  1  0
 74 70  1  0
 75 76  2  0
 76 77  1  0
 78 77  2  0
 79 78  1  0
 80 54  1  0
 80 81  1  0
 80 90  1  0
 81 84  1  0
 82 86  1  0
 82 81  1  0
 83 82  2  0
 86 85  1  0
 88 86  1  0
 88 89  1  0
 88 87  1  0
 90 93  1  1
 90 91  1  0
 92 90  1  0
M  ISO  4  14 100  22 100  52 101  53 101
M  END
>  <TORSDO>  (53) 
F 18

>  <SCORE>  (53) 
-14.756

>  <name>  (53) 
52

>  <ligand_id>  (53) 
52

>  <original_smiles>  (53) 
[H]c1c(C(N([H])C(=O)C([H])([H])Oc2c([H])c([H])c3c(c2[H])C([H])([H])N(C(=O)C([H])(N([H])C(=O)C([H])(N([H])C([H])([H])[H])C([H])([H])[H])C(C([H])([H])[H])(C([H])([H])[H])C([H])([H])[H])C([H])(C(=O)N([H])C2([H])c4c([H])c([H])c([H])c([H])c4C([H])([H])C([H])([H])C2([H])[H])C3([H])[H])=[N+]([H])[H])oc(N([H])C(=O)N2C([H])([H])C([H])([H])C([H])([H])C([H])(n3nc(-c4c([H])c([H])c(Oc5c([H])c([H])c(F)c([H])c5F)c([H])c4[H])c(C(=O)N([H])[H])c3N([H])[H])C2([H])[H])c1[H]

>  <smiles>  (53) 
[H]c1c(C(N([H])C(=O)C([H])([H])Oc2c([H])c([H])c3c(c2[H])C([H])([H])N(C(=O)C([H])(N([H])C(=O)C([H])(N([H])C([H])([H])[H])C([H])([H])[H])C(C([H])([H])[H])(C([H])([H])[H])C([H])([H])[H])C([H])(C(=O)N([H])C2([H])c4c([H])c([H])c([H])c([H])c4C([H])([H])C([H])([H])C2([H])[H])C3([H])[H])=[N+]([H])[H])oc(N([H])C(=O)N2C([H])([H])C([H])([H])C([H])([H])C([H])(n3nc(-c4c([H])c([H])c(Oc5c([H])c([H])c(F)c([H])c5F)c([H])c4[H])c(C(=O)N([H])[H])c3N([H])[H])C2([H])[H])c1[H]

$$$$
53:0:0
     RDKit          3D

 90 99  0  0  1  0  0  0  0  0999 V2000
  -30.1790  -23.4100   20.4710 C   0  0  0  0  0  3  0  0  0  0  0  0
  -28.9090  -23.5580   20.0710 C   0  0  0  0  0  0  0  0  0  0  0  0
  -30.6380  -21.9320   20.5270 C   0  0  0  0  0  3  0  0  0  0  0  0
  -28.3780  -22.1110   19.8280 C   0  0  0  0  0  3  0  0  0  0  0  0
  -29.4870  -21.1260   20.0850 N   0  0  0  0  0  0  0  0  0  0  0  0
  -30.2000  -18.5290   20.3240 C   0  0  0  0  0  3  0  0  0  0  0  0
  -28.1580  -17.4030   20.2850 C   0  0  0  0  0  3  0  0  0  0  0  0
  -29.5110  -17.2100   20.3720 C   0  0  0  0  0  0  0  0  0  0  0  0
  -29.3450  -19.6630   20.1600 C   0  0  0  0  0  0  0  0  0  0  0  0
  -27.7040  -19.0690   20.0280 S   0  0  0  0  0  0  0  0  0  0  0  0
  -30.6270  -14.7690   20.0740 C   0  0  0  0  0  0  0  0  0  0  0  0
  -30.4040  -12.4710   19.0720 C   0  0  0  0  0  2  0  0  0  0  0  0
  -29.4130  -12.5390   17.8850 C   0  0  0  0  0  2  0  0  0  0  0  0
  -27.9570  -12.3860   18.3650 C   0  0  0  0  0  2  0  0  0  0  0  0
  -27.6400  -13.2800   19.5910 C   0  0  0  0  0  3  0  0  0  0  0  0
  -28.7390  -13.1640   20.6740 C   0  0  0  0  0  2  0  0  0  0  0  0
  -30.0270  -13.5220   20.0510 N   0  0  0  0  0  0  0  0  0  0  0  0
  -31.7400  -14.9260   19.5590 O   0  0  0  0  0  0  0  0  0  0  0  0
  -29.9180  -15.7980   20.6780 N   0  0  0  0  0  0  0  0  0  0  0  0
  -29.1960  -15.3400   21.2130 H   0  0  0  0  0  0  0  0  0  0  0  0
  -25.2860  -13.9180   20.4030 C   0  0  0  0  0  0  0  0  0  0  0  0
  -24.2210  -13.1700   20.8210 C   0  0  0  0  0  0  0  0  0  0  0  0
  -24.6490  -11.8090   20.7560 C   0  0  0  0  0  0  0  0  0  0  0  0
  -26.3030  -13.0200   20.1240 N   0  0  0  0  0  0  0  0  0  0  0  0
  -25.9260  -11.7430   20.3940 N   0  0  0  0  0  0  0  0  0  0  0  0
  -23.8980  -10.5650   20.9630 C   0  0  0  0  0  0  0  0  0  0  0  0
  -24.3310   -9.5840   21.8810 C   0  0  0  0  0  3  0  0  0  0  0  0
  -23.5810   -8.4050   22.0770 C   0  0  0  0  0  3  0  0  0  0  0  0
  -22.3830   -8.1980   21.3540 C   0  0  0  0  0  0  0  0  0  0  0  0
  -21.9680   -9.1660   20.4240 C   0  0  0  0  0  3  0  0  0  0  0  0
  -22.7190  -10.3360   20.2260 C   0  0  0  0  0  3  0  0  0  0  0  0
  -21.6040   -7.0700   21.4570 O   0  0  0  0  0  0  0  0  0  0  0  0
  -21.5550   -6.3330   22.6130 C   0  0  0  0  0  0  0  0  0  0  0  0
  -21.1580   -6.9020   23.8420 C   0  0  0  0  0  3  0  0  0  0  0  0
  -21.0550   -6.0940   24.9920 C   0  0  0  0  0  3  0  0  0  0  0  0
  -21.3390   -4.7180   24.9140 C   0  0  0  0  0  0  0  0  0  0  0  0
  -21.7300   -4.1490   23.6890 C   0  0  0  0  0  3  0  0  0  0  0  0
  -21.8340   -4.9550   22.5410 C   0  0  0  0  0  0  0  0  0  0  0  0
  -22.1910   -4.3970   21.3590 F   0  0  0  0  0  0  0  0  0  0  0  0
  -21.2330   -3.9400   26.0160 F   0  0  0  0  0  0  0  0  0  0  0  0
  -22.8480  -13.6820   21.1530 C   0  0  0  0  0  0  0  0  0  0  0  0
  -22.1390  -12.9990   22.0450 N   0  0  0  0  0  0  0  0  0  0  0  0
  -22.4180  -14.7230   20.6590 O   0  0  0  0  0  0  0  0  0  0  0  0
  -22.5040  -12.1580   22.4690 H   0  0  0  0  0  0  0  0  0  0  0  0
  -21.2210  -13.3250   22.3110 H   0  0  0  0  0  0  0  0  0  0  0  0
  -25.4590  -15.2820   20.2050 N   0  0  0  0  0  0  0  0  0  0  0  0
  -24.6550  -15.8970   20.2650 H   0  0  0  0  0  0  0  0  0  0  0  0
  -26.1700  -15.6290   19.5750 H   0  0  0  0  0  0  0  0  0  0  0  0
  -28.0010  -24.8560   19.7830 C   0  0  0  0  0  2  0  0  0  0  0  0
  -28.3150  -26.3020   20.1340 O   0  0  0  0  0  0  0  0  0  0  0  0
  -24.6060  -31.8300   23.1670 C   0  0  0  0  0  0  0  0  0  0  0  0
  -27.2350  -27.2380   20.0740 C   0  0  0  0  0  0  0  0  0  0  0  0
  -23.4140  -30.4420   21.5150 C   0  0  0  0  0  3  0  0  0  0  0  0
  -24.8750  -28.9100   20.0730 C   0  0  0  0  0  0  0  0  0  0  0  0
  -25.9620  -30.7480   21.3490 C   0  0  0  0  0  2  0  0  0  0  0  0
  -26.0480  -29.3710   20.6850 C   0  0  0  0  0  0  0  0  0  0  0  0
  -27.2280  -28.5490   20.6780 C   0  0  0  0  0  3  0  0  0  0  0  0
  -26.0320  -26.8690   19.4200 C   0  0  0  0  0  3  0  0  0  0  0  0
  -24.8750  -27.6680   19.4290 C   0  0  0  0  0  3  0  0  0  0  0  0
  -23.6370  -29.7850   20.1290 C   0  0  0  0  0  2  0  0  0  0  0  0
  -24.6790  -31.0250   22.0650 N   0  0  0  0  0  0  0  0  0  0  0  0
  -23.5180  -32.0990   23.6980 O   0  0  0  0  0  0  0  0  0  0  0  0
  -22.7480  -29.4140   22.4640 C   0  0  0  0  0  0  0  0  0  0  0  0
  -21.4180  -29.2510   22.3510 N   0  0  0  0  0  0  0  0  0  0  0  0
  -23.4290  -28.7680   23.2650 O   0  0  0  0  0  0  0  0  0  0  0  0
  -20.9260  -29.8230   21.6790 H   0  0  0  0  0  0  0  0  0  0  0  0
  -18.0340  -28.0860   22.8910 C   0  0  0  0  0  0  0  0  0  0  0  0
  -20.6010  -28.3070   23.1170 C   0  0  0  0  0  3  0  0  0  0  0  0
  -20.6710  -26.8870   22.5080 C   0  0  0  0  0  2  0  0  0  0  0  0
  -19.5460  -26.6010   21.5090 C   0  0  0  0  0  2  0  0  0  0  0  0
  -18.1790  -26.7500   22.1830 C   0  0  0  0  0  2  0  0  0  0  0  0
  -19.1700  -28.8240   23.3170 C   0  0  0  0  0  0  0  0  0  0  0  0
  -18.9790  -30.0740   23.9420 C   0  0  0  0  0  3  0  0  0  0  0  0
  -17.6850  -30.5870   24.1460 C   0  0  0  0  0  3  0  0  0  0  0  0
  -16.5630  -29.8470   23.7360 C   0  0  0  0  0  3  0  0  0  0  0  0
  -16.7370  -28.5970   23.1140 C   0  0  0  0  0  3  0  0  0  0  0  0
  -25.8810  -32.4660   23.7970 C   0  0  0  0  0  3  0  0  0  0  0  0
  -25.5580  -33.8570   24.1470 N   0  0  0  0  0  0  0  0  0  0  0  0
  -25.8740  -34.9240   23.4000 C   0  0  0  0  0  0  0  0  0  0  0  0
  -26.5350  -34.8400   22.3620 O   0  0  0  0  0  0  0  0  0  0  0  0
  -24.9660  -33.9940   24.9530 H   0  0  0  0  0  0  0  0  0  0  0  0
  -24.1230  -36.7040   23.0920 C   0  0  0  0  0  1  0  0  0  0  0  0
  -25.3790  -36.3020   23.8820 C   0  0  0  0  0  3  0  0  0  0  0  0
  -27.5140  -37.2010   24.6960 C   0  0  0  0  0  1  0  0  0  0  0  0
  -26.3980  -37.3680   23.7680 N   0  0  0  0  0  0  0  0  0  0  0  0
  -25.9840  -38.2810   23.9320 H   0  0  0  0  0  0  0  0  0  0  0  0
  -26.4020  -31.6840   25.0660 C   0  0  1  0  0  0  0  0  0  0  0  0
  -25.3110  -31.4270   26.1310 C   0  0  0  0  0  1  0  0  0  0  0  0
  -26.9950  -30.3140   24.6620 C   0  0  0  0  0  1  0  0  0  0  0  0
  -27.5480  -32.4780   25.7350 C   0  0  0  0  0  1  0  0  0  0  0  0
  1  3  2  0
  2  1  1  0
  4  2  2  0
  4  5  1  0
  5  9  1  0
  5  3  1  0
  6  8  1  0
  7  8  2  0
  8 19  1  0
  9  6  2  0
 10  9  1  0
 10  7  1  0
 11 19  1  0
 12 17  1  0
 13 14  1  0
 13 12  1  0
 15 14  1  0
 15 24  1  0
 15 16  1  0
 17 11  1  0
 17 16  1  0
 18 11  2  0
 19 20  1  0
 21 22  2  0
 22 41  1  0
 23 22  1  0
 23 26  1  0
 24 25  1  0
 24 21  1  0
 25 23  2  0
 26 27  1  0
 27 28  2  0
 29 32  1  0
 29 28  1  0
 30 29  2  0
 31 30  1  0
 31 26  2  0
 32 33  1  0
 33 34  1  0
 34 35  2  0
 36 35  1  0
 36 40  1  0
 37 36  2  0
 38 33  2  0
 38 37  1  0
 39 38  1  0
 41 42  1  0
 42 45  1  0
 42 44  1  0
 43 41  2  0
 46 47  1  0
 46 21  1  0
 48 46  1  0
 49  2  1  0
 49 50  1  0
 51 62  2  0
 52 50  1  0
 52 57  1  0
 53 61  1  0
 53 63  1  0
 54 60  1  0
 54 56  1  0
 55 61  1  0
 56 55  1  0
 57 56  2  0
 58 59  1  0
 58 52  2  0
 59 54  2  0
 60 53  1  0
 61 51  1  0
 63 65  2  0
 64 63  1  0
 66 64  1  0
 67 76  2  0
 67 72  1  0
 68 64  1  0
 68 72  1  0
 69 68  1  0
 70 71  1  0
 70 69  1  0
 71 67  1  0
 72 73  2  0
 73 74  1  0
 75 74  2  0
 76 75  1  0
 77 51  1  0
 77 78  1  0
 77 87  1  0
 78 81  1  0
 79 83  1  0
 79 78  1  0
 80 79  2  0
 83 82  1  0
 85 83  1  0
 85 86  1  0
 85 84  1  0
 87 90  1  1
 87 88  1  0
 89 87  1  0
M  ISO  4  11 100  19 100  49 101  50 101
M  END
>  <TORSDO>  (54) 
F 18

>  <SCORE>  (54) 
-14.616

>  <name>  (54) 
53

>  <ligand_id>  (54) 
53

>  <original_smiles>  (54) 
[H]C1=C(C([H])([H])Oc2c([H])c([H])c3c(c2[H])C([H])([H])N(C(=O)C([H])(N([H])C(=O)C([H])(N([H])C([H])([H])[H])C([H])([H])[H])C(C([H])([H])[H])(C([H])([H])[H])C([H])([H])[H])C([H])(C(=O)N([H])C2([H])c4c([H])c([H])c([H])c([H])c4C([H])([H])C([H])([H])C2([H])[H])C3([H])[H])C([H])([H])N(c2sc([H])c(N([H])C(=O)N3C([H])([H])C([H])([H])C([H])([H])C([H])(n4nc(-c5c([H])c([H])c(Oc6c([H])c([H])c(F)c([H])c6F)c([H])c5[H])c(C(=O)N([H])[H])c4N([H])[H])C3([H])[H])c2[H])C1([H])[H]

>  <smiles>  (54) 
[H]C1=C(C([H])([H])Oc2c([H])c([H])c3c(c2[H])C([H])([H])N(C(=O)C([H])(N([H])C(=O)C([H])(N([H])C([H])([H])[H])C([H])([H])[H])C(C([H])([H])[H])(C([H])([H])[H])C([H])([H])[H])C([H])(C(=O)N([H])C2([H])c4c([H])c([H])c([H])c([H])c4C([H])([H])C([H])([H])C2([H])[H])C3([H])[H])C([H])([H])N(c2sc([H])c(N([H])C(=O)N3C([H])([H])C([H])([H])C([H])([H])C([H])(n4nc(-c5c([H])c([H])c(Oc6c([H])c([H])c(F)c([H])c6F)c([H])c5[H])c(C(=O)N([H])[H])c4N([H])[H])C3([H])[H])c2[H])C1([H])[H]

$$$$
54:0:0
     RDKit          3D

 94103  0  0  1  0  0  0  0  0999 V2000
  -29.1590  -22.7850   17.3140 C   0  0  0  0  0  2  0  0  0  0  0  0
  -27.7420  -22.2690   17.5590 C   0  0  0  0  0  2  0  0  0  0  0  0
  -29.9830  -22.2480   18.4850 C   0  0  0  0  0  2  0  0  0  0  0  0
  -27.6580  -21.8770   19.0440 C   0  0  0  0  0  2  0  0  0  0  0  0
  -29.0430  -22.1290   19.7120 C   0  0  2  0  0  0  0  0  0  0  0  0
  -29.0100  -23.6060   20.4400 C   0  0  0  0  0  0  0  0  0  0  0  0
  -29.7010  -23.7600   21.4520 O   0  0  0  0  0  0  0  0  0  0  0  0
  -28.0860  -24.8420   19.9140 C   0  0  0  0  0  2  0  0  0  0  0  0
  -28.3220  -26.2890   20.3230 O   0  0  0  0  0  0  0  0  0  0  0  0
  -24.6200  -31.8770   23.2110 C   0  0  0  0  0  0  0  0  0  0  0  0
  -27.2520  -27.2270   20.2110 C   0  0  0  0  0  0  0  0  0  0  0  0
  -23.4360  -30.4720   21.5680 C   0  0  0  0  0  3  0  0  0  0  0  0
  -24.9010  -28.9140   20.1550 C   0  0  0  0  0  0  0  0  0  0  0  0
  -25.9870  -30.7650   21.4190 C   0  0  0  0  0  2  0  0  0  0  0  0
  -26.0720  -29.3790   20.7700 C   0  0  0  0  0  0  0  0  0  0  0  0
  -27.2460  -28.5510   20.7850 C   0  0  0  0  0  3  0  0  0  0  0  0
  -26.0620  -26.8530   19.5380 C   0  0  0  0  0  3  0  0  0  0  0  0
  -24.9070  -27.6620   19.5220 C   0  0  0  0  0  3  0  0  0  0  0  0
  -23.6650  -29.7950   20.1920 C   0  0  0  0  0  2  0  0  0  0  0  0
  -24.7000  -31.0560   22.1210 N   0  0  0  0  0  0  0  0  0  0  0  0
  -23.5300  -32.1640   23.7260 O   0  0  0  0  0  0  0  0  0  0  0  0
  -22.7530  -29.4650   22.5250 C   0  0  0  0  0  0  0  0  0  0  0  0
  -21.4240  -29.3070   22.3960 N   0  0  0  0  0  0  0  0  0  0  0  0
  -23.4180  -28.8290   23.3450 O   0  0  0  0  0  0  0  0  0  0  0  0
  -20.9470  -29.8700   21.7070 H   0  0  0  0  0  0  0  0  0  0  0  0
  -18.0220  -28.1720   22.9180 C   0  0  0  0  0  0  0  0  0  0  0  0
  -20.5900  -28.3760   23.1600 C   0  0  0  0  0  3  0  0  0  0  0  0
  -20.6540  -26.9510   22.5650 C   0  0  0  0  0  2  0  0  0  0  0  0
  -19.5320  -26.6640   21.5610 C   0  0  0  0  0  2  0  0  0  0  0  0
  -18.1600  -26.8300   22.2220 C   0  0  0  0  0  2  0  0  0  0  0  0
  -19.1620  -28.9060   23.3440 C   0  0  0  0  0  0  0  0  0  0  0  0
  -18.9750  -30.1620   23.9580 C   0  0  0  0  0  3  0  0  0  0  0  0
  -17.6830  -30.6880   24.1480 C   0  0  0  0  0  3  0  0  0  0  0  0
  -16.5580  -29.9520   23.7370 C   0  0  0  0  0  3  0  0  0  0  0  0
  -16.7280  -28.6970   23.1280 C   0  0  0  0  0  3  0  0  0  0  0  0
  -25.8950  -32.5090   23.8510 C   0  0  0  0  0  3  0  0  0  0  0  0
  -26.4030  -31.7250   25.1230 C   0  0  1  0  0  0  0  0  0  0  0  0
  -25.2970  -31.4700   26.1750 C   0  0  0  0  0  1  0  0  0  0  0  0
  -26.9990  -30.3560   24.7240 C   0  0  0  0  0  1  0  0  0  0  0  0
  -27.5490  -32.5150   25.7970 C   0  0  0  0  0  1  0  0  0  0  0  0
  -25.5790  -33.9030   24.1970 N   0  0  0  0  0  0  0  0  0  0  0  0
  -25.8880  -34.9630   23.4380 C   0  0  0  0  0  0  0  0  0  0  0  0
  -26.5380  -34.8700   22.3940 O   0  0  0  0  0  0  0  0  0  0  0  0
  -25.0000  -34.0520   25.0110 H   0  0  0  0  0  0  0  0  0  0  0  0
  -24.1330  -36.7360   23.1340 C   0  0  0  0  0  1  0  0  0  0  0  0
  -25.4000  -36.3470   23.9130 C   0  0  0  0  0  3  0  0  0  0  0  0
  -27.5410  -37.2490   24.6980 C   0  0  0  0  0  1  0  0  0  0  0  0
  -26.4200  -37.4100   23.7740 N   0  0  0  0  0  0  0  0  0  0  0  0
  -26.0100  -38.3280   23.9260 H   0  0  0  0  0  0  0  0  0  0  0  0
  -29.5550  -20.9260   20.5470 N   0  0  0  0  0  0  0  0  0  0  0  0
  -29.7230  -21.1940   21.5170 H   0  0  0  0  0  0  0  0  0  0  0  0
  -28.2930  -17.4610   20.3710 C   0  0  0  0  0  3  0  0  0  0  0  0
  -28.1120  -18.8830   20.3180 C   0  0  0  0  0  3  0  0  0  0  0  0
  -29.6270  -17.1670   20.4630 C   0  0  0  0  0  0  0  0  0  0  0  0
  -29.3470  -19.4790   20.3460 C   0  0  0  0  0  0  0  0  0  0  0  0
  -30.3170  -18.4260   20.4990 O   0  0  0  0  0  0  0  0  0  0  0  0
  -30.7300  -14.7880   20.2720 C   0  0  0  0  0  0  0  0  0  0  0  0
  -30.5360  -12.4650   19.3080 C   0  0  0  0  0  2  0  0  0  0  0  0
  -29.5920  -12.5440   18.0860 C   0  0  0  0  0  2  0  0  0  0  0  0
  -28.1220  -12.3820   18.5230 C   0  0  0  0  0  2  0  0  0  0  0  0
  -27.7740  -13.2590   19.7570 C   0  0  0  0  0  3  0  0  0  0  0  0
  -28.8500  -13.1600   20.8650 C   0  0  0  0  0  2  0  0  0  0  0  0
  -30.1410  -13.5320   20.2630 N   0  0  0  0  0  0  0  0  0  0  0  0
  -31.8560  -14.9350   19.7870 O   0  0  0  0  0  0  0  0  0  0  0  0
  -29.9920  -15.8410   20.8090 N   0  0  0  0  0  0  0  0  0  0  0  0
  -29.2480  -15.4100   21.3370 H   0  0  0  0  0  0  0  0  0  0  0  0
  -25.4020  -13.8730   20.5160 C   0  0  0  0  0  0  0  0  0  0  0  0
  -24.3350  -13.1180   20.9140 C   0  0  0  0  0  0  0  0  0  0  0  0
  -24.7720  -11.7600   20.8560 C   0  0  0  0  0  0  0  0  0  0  0  0
  -26.4310  -12.9820   20.2620 N   0  0  0  0  0  0  0  0  0  0  0  0
  -26.0560  -11.7020   20.5230 N   0  0  0  0  0  0  0  0  0  0  0  0
  -24.0240  -10.5110   21.0420 C   0  0  0  0  0  0  0  0  0  0  0  0
  -24.4500   -9.5290   21.9640 C   0  0  0  0  0  3  0  0  0  0  0  0
  -23.7040   -8.3430   22.1410 C   0  0  0  0  0  3  0  0  0  0  0  0
  -22.5180   -8.1300   21.3990 C   0  0  0  0  0  0  0  0  0  0  0  0
  -22.1110   -9.1010   20.4660 C   0  0  0  0  0  3  0  0  0  0  0  0
  -22.8570  -10.2780   20.2850 C   0  0  0  0  0  3  0  0  0  0  0  0
  -21.7440   -6.9980   21.4850 O   0  0  0  0  0  0  0  0  0  0  0  0
  -21.6840   -6.2550   22.6360 C   0  0  0  0  0  0  0  0  0  0  0  0
  -21.2440   -6.8070   23.8610 C   0  0  0  0  0  3  0  0  0  0  0  0
  -21.1390   -5.9890   25.0030 C   0  0  0  0  0  3  0  0  0  0  0  0
  -21.4550   -4.6220   24.9250 C   0  0  0  0  0  0  0  0  0  0  0  0
  -21.8900   -4.0690   23.7070 C   0  0  0  0  0  3  0  0  0  0  0  0
  -22.0020   -4.8820   22.5650 C   0  0  0  0  0  0  0  0  0  0  0  0
  -22.3990   -4.3400   21.3890 F   0  0  0  0  0  0  0  0  0  0  0  0
  -21.3460   -3.8350   26.0200 F   0  0  0  0  0  0  0  0  0  0  0  0
  -22.9540  -13.6200   21.2170 C   0  0  0  0  0  0  0  0  0  0  0  0
  -22.2280  -12.9320   22.0930 N   0  0  0  0  0  0  0  0  0  0  0  0
  -22.5260  -14.6570   20.7130 O   0  0  0  0  0  0  0  0  0  0  0  0
  -22.5900  -12.0970   22.5280 H   0  0  0  0  0  0  0  0  0  0  0  0
  -21.2980  -13.2480   22.3320 H   0  0  0  0  0  0  0  0  0  0  0  0
  -25.5680  -15.2380   20.3170 N   0  0  0  0  0  0  0  0  0  0  0  0
  -24.7560  -15.8450   20.3270 H   0  0  0  0  0  0  0  0  0  0  0  0
  -26.3220  -15.6000   19.7480 H   0  0  0  0  0  0  0  0  0  0  0  0
  1  2  1  0
  1  3  1  0
  2  4  1  0
  3  5  1  0
  4  5  1  0
  5  6  1  0
  5 50  1  1
  6  7  2  0
  8  9  1  0
  8  6  1  0
 10 21  2  0
 11  9  1  0
 11 16  1  0
 12 20  1  0
 12 22  1  0
 13 19  1  0
 13 15  1  0
 14 20  1  0
 15 16  2  0
 15 14  1  0
 17 11  2  0
 18 17  1  0
 18 13  2  0
 19 12  1  0
 20 10  1  0
 22 24  2  0
 23 22  1  0
 25 23  1  0
 26 35  2  0
 26 31  1  0
 27 23  1  0
 27 31  1  0
 28 27  1  0
 29 30  1  0
 29 28  1  0
 30 26  1  0
 31 32  2  0
 32 33  1  0
 34 33  2  0
 35 34  1  0
 36 10  1  0
 36 41  1  0
 36 37  1  0
 37 40  1  1
 37 38  1  0
 39 37  1  0
 41 44  1  0
 42 46  1  0
 42 41  1  0
 43 42  2  0
 46 45  1  0
 48 46  1  0
 48 49  1  0
 48 47  1  0
 50 51  1  0
 52 54  2  0
 53 55  2  0
 53 52  1  0
 54 56  1  0
 54 65  1  0
 55 56  1  0
 55 50  1  0
 57 65  1  0
 58 63  1  0
 59 60  1  0
 59 58  1  0
 61 60  1  0
 61 70  1  0
 61 62  1  0
 63 57  1  0
 63 62  1  0
 64 57  2  0
 65 66  1  0
 67 68  2  0
 68 87  1  0
 69 68  1  0
 69 72  1  0
 70 67  1  0
 70 71  1  0
 71 69  2  0
 72 73  1  0
 73 74  2  0
 75 78  1  0
 75 74  1  0
 76 75  2  0
 77 76  1  0
 77 72  2  0
 78 79  1  0
 79 80  1  0
 80 81  2  0
 82 81  1  0
 82 86  1  0
 83 82  2  0
 84 79  2  0
 84 83  1  0
 85 84  1  0
 87 88  1  0
 88 91  1  0
 88 90  1  0
 89 87  2  0
 92 93  1  0
 92 67  1  0
 94 92  1  0
M  ISO  4   8 101   9 101  57 100  65 100
M  END
>  <TORSDO>  (55) 
F 20

>  <SCORE>  (55) 
-13.973

>  <name>  (55) 
54

>  <ligand_id>  (55) 
54

>  <original_smiles>  (55) 
[H]c1c(N([H])C(=O)N2C([H])([H])C([H])([H])C([H])([H])C([H])(n3nc(-c4c([H])c([H])c(Oc5c([H])c([H])c(F)c([H])c5F)c([H])c4[H])c(C(=O)N([H])[H])c3N([H])[H])C2([H])[H])oc(N([H])C2(C(=O)C([H])([H])Oc3c([H])c([H])c4c(c3[H])C([H])([H])N(C(=O)C([H])(N([H])C(=O)C([H])(N([H])C([H])([H])[H])C([H])([H])[H])C(C([H])([H])[H])(C([H])([H])[H])C([H])([H])[H])C([H])(C(=O)N([H])C3([H])c5c([H])c([H])c([H])c([H])c5C([H])([H])C([H])([H])C3([H])[H])C4([H])[H])C([H])([H])C([H])([H])C([H])([H])C2([H])[H])c1[H]

>  <smiles>  (55) 
[H]c1c(N([H])C(=O)N2C([H])([H])C([H])([H])C([H])([H])C([H])(n3nc(-c4c([H])c([H])c(Oc5c([H])c([H])c(F)c([H])c5F)c([H])c4[H])c(C(=O)N([H])[H])c3N([H])[H])C2([H])[H])oc(N([H])C2(C(=O)C([H])([H])Oc3c([H])c([H])c4c(c3[H])C([H])([H])N(C(=O)C([H])(N([H])C(=O)C([H])(N([H])C([H])([H])[H])C([H])([H])[H])C(C([H])([H])[H])(C([H])([H])[H])C([H])([H])[H])C([H])(C(=O)N([H])C3([H])c5c([H])c([H])c([H])c([H])c5C([H])([H])C([H])([H])C3([H])[H])C4([H])[H])C([H])([H])C([H])([H])C([H])([H])C2([H])[H])c1[H]

$$$$
55:0:0
     RDKit          3D

 91 99  0  0  1  0  0  0  0  0999 V2000
  -30.9230  -17.8900   19.3960 C   0  0  0  0  0  0  0  0  0  0  0  0
  -30.0200  -17.3660   20.3040 C   0  0  0  0  0  0  0  0  0  0  0  0
  -29.7960  -19.6290   20.1800 C   0  0  0  0  0  0  0  0  0  0  0  0
  -31.9310  -17.3010   18.4630 C   0  0  0  0  0  1  0  0  0  0  0  0
  -29.2810  -18.5130   20.7820 N   0  0  0  0  0  0  0  0  0  0  0  0
  -29.5520  -21.0560   20.1810 N   0  0  0  0  0  0  0  0  0  0  0  0
  -30.7990  -19.2710   19.3350 O   0  0  0  0  0  0  0  0  0  0  0  0
  -30.2300  -21.4890   19.5600 H   0  0  0  0  0  0  0  0  0  0  0  0
  -30.5700  -14.7730   20.3820 C   0  0  0  0  0  0  0  0  0  0  0  0
  -30.3620  -12.4930   19.3770 C   0  0  0  0  0  2  0  0  0  0  0  0
  -29.4300  -12.5740   18.1480 C   0  0  0  0  0  2  0  0  0  0  0  0
  -27.9580  -12.4070   18.5700 C   0  0  0  0  0  2  0  0  0  0  0  0
  -27.5840  -13.2890   19.7910 C   0  0  0  0  0  3  0  0  0  0  0  0
  -28.6380  -13.1950   20.9160 C   0  0  0  0  0  2  0  0  0  0  0  0
  -29.9370  -13.5480   20.3290 N   0  0  0  0  0  0  0  0  0  0  0  0
  -31.7640  -14.8330   20.0800 O   0  0  0  0  0  0  0  0  0  0  0  0
  -29.8060  -15.9180   20.6150 N   0  0  0  0  0  0  0  0  0  0  0  0
  -28.8920  -15.7090   20.9850 H   0  0  0  0  0  0  0  0  0  0  0  0
  -25.1910  -13.8830   20.5000 C   0  0  0  0  0  0  0  0  0  0  0  0
  -24.1240  -13.1120   20.8690 C   0  0  0  0  0  0  0  0  0  0  0  0
  -24.5860  -11.7600   20.8500 C   0  0  0  0  0  0  0  0  0  0  0  0
  -26.2370  -13.0020   20.2760 N   0  0  0  0  0  0  0  0  0  0  0  0
  -25.8790  -11.7200   20.5500 N   0  0  0  0  0  0  0  0  0  0  0  0
  -23.8560  -10.5000   21.0430 C   0  0  0  0  0  0  0  0  0  0  0  0
  -24.2910   -9.5290   21.9730 C   0  0  0  0  0  3  0  0  0  0  0  0
  -23.5630   -8.3340   22.1550 C   0  0  0  0  0  3  0  0  0  0  0  0
  -22.3840   -8.1010   21.4070 C   0  0  0  0  0  0  0  0  0  0  0  0
  -21.9670   -9.0600   20.4660 C   0  0  0  0  0  3  0  0  0  0  0  0
  -22.6970  -10.2460   20.2820 C   0  0  0  0  0  3  0  0  0  0  0  0
  -21.6260   -6.9580   21.4980 O   0  0  0  0  0  0  0  0  0  0  0  0
  -21.5920   -6.2070   22.6460 C   0  0  0  0  0  0  0  0  0  0  0  0
  -21.2020   -6.7590   23.8870 C   0  0  0  0  0  3  0  0  0  0  0  0
  -21.1140   -5.9350   25.0260 C   0  0  0  0  0  3  0  0  0  0  0  0
  -21.4050   -4.5610   24.9270 C   0  0  0  0  0  0  0  0  0  0  0  0
  -21.7870   -4.0090   23.6920 C   0  0  0  0  0  3  0  0  0  0  0  0
  -21.8770   -4.8300   22.5530 C   0  0  0  0  0  0  0  0  0  0  0  0
  -22.2260   -4.2890   21.3610 F   0  0  0  0  0  0  0  0  0  0  0  0
  -21.3130   -3.7680   26.0190 F   0  0  0  0  0  0  0  0  0  0  0  0
  -22.7240  -13.5920   21.1260 C   0  0  0  0  0  0  0  0  0  0  0  0
  -21.9890  -12.9050   21.9930 N   0  0  0  0  0  0  0  0  0  0  0  0
  -22.2910  -14.6120   20.5930 O   0  0  0  0  0  0  0  0  0  0  0  0
  -22.3510  -12.0790   22.4470 H   0  0  0  0  0  0  0  0  0  0  0  0
  -21.0500  -13.2090   22.2060 H   0  0  0  0  0  0  0  0  0  0  0  0
  -25.3560  -15.2530   20.3120 N   0  0  0  0  0  0  0  0  0  0  0  0
  -24.5830  -15.9030   20.4140 H   0  0  0  0  0  0  0  0  0  0  0  0
  -26.1980  -15.6910   19.9620 H   0  0  0  0  0  0  0  0  0  0  0  0
  -28.6730  -22.1770   20.7150 C   0  0  0  0  0  2  0  0  0  0  0  0
  -28.9640  -23.6960   20.2550 C   0  0  0  0  0  0  0  0  0  0  0  0
  -29.9550  -23.9110   19.5480 O   0  0  0  0  0  0  0  0  0  0  0  0
  -27.9980  -24.9120   20.6800 C   0  0  0  0  0  2  0  0  0  0  0  0
  -28.3220  -26.3390   20.2760 O   0  0  0  0  0  0  0  0  0  0  0  0
  -24.6340  -31.8850   23.2380 C   0  0  0  0  0  0  0  0  0  0  0  0
  -27.2440  -27.2570   20.2280 C   0  0  0  0  0  0  0  0  0  0  0  0
  -23.4370  -30.4730   21.6070 C   0  0  0  0  0  3  0  0  0  0  0  0
  -24.8930  -28.9140   20.1900 C   0  0  0  0  0  0  0  0  0  0  0  0
  -25.9820  -30.7800   21.4310 C   0  0  0  0  0  2  0  0  0  0  0  0
  -26.0640  -29.3930   20.7920 C   0  0  0  0  0  0  0  0  0  0  0  0
  -27.2460  -28.5780   20.7960 C   0  0  0  0  0  3  0  0  0  0  0  0
  -26.0540  -26.8570   19.5820 C   0  0  0  0  0  3  0  0  0  0  0  0
  -24.8940  -27.6550   19.5730 C   0  0  0  0  0  3  0  0  0  0  0  0
  -23.6570  -29.7910   20.2310 C   0  0  0  0  0  2  0  0  0  0  0  0
  -24.7040  -31.0650   22.1480 N   0  0  0  0  0  0  0  0  0  0  0  0
  -23.5490  -32.1660   23.7670 O   0  0  0  0  0  0  0  0  0  0  0  0
  -22.7730  -29.4630   22.5730 C   0  0  0  0  0  0  0  0  0  0  0  0
  -21.4450  -29.2860   22.4500 N   0  0  0  0  0  0  0  0  0  0  0  0
  -23.4510  -28.8400   23.3940 O   0  0  0  0  0  0  0  0  0  0  0  0
  -20.9560  -29.8390   21.7600 H   0  0  0  0  0  0  0  0  0  0  0  0
  -18.0680  -28.0900   22.9640 C   0  0  0  0  0  0  0  0  0  0  0  0
  -20.6270  -28.3530   23.2270 C   0  0  0  0  0  3  0  0  0  0  0  0
  -20.7270  -26.9180   22.6610 C   0  0  0  0  0  2  0  0  0  0  0  0
  -19.6230  -26.5890   21.6500 C   0  0  0  0  0  2  0  0  0  0  0  0
  -18.2440  -26.7370   22.2960 C   0  0  0  0  0  2  0  0  0  0  0  0
  -19.1870  -28.8550   23.3880 C   0  0  0  0  0  0  0  0  0  0  0  0
  -18.9680  -30.1210   23.9740 C   0  0  0  0  0  3  0  0  0  0  0  0
  -17.6630  -30.6220   24.1410 C   0  0  0  0  0  3  0  0  0  0  0  0
  -16.5590  -29.8530   23.7330 C   0  0  0  0  0  3  0  0  0  0  0  0
  -16.7610  -28.5900   23.1500 C   0  0  0  0  0  3  0  0  0  0  0  0
  -25.9130  -32.5270   23.8580 C   0  0  0  0  0  3  0  0  0  0  0  0
  -26.4350  -31.7600   25.1340 C   0  0  1  0  0  0  0  0  0  0  0  0
  -25.3460  -31.5210   26.2060 C   0  0  0  0  0  1  0  0  0  0  0  0
  -27.0220  -30.3830   24.7470 C   0  0  0  0  0  1  0  0  0  0  0  0
  -27.5860  -32.5590   25.7910 C   0  0  0  0  0  1  0  0  0  0  0  0
  -25.5940  -33.9230   24.1910 N   0  0  0  0  0  0  0  0  0  0  0  0
  -25.9150  -34.9810   23.4330 C   0  0  0  0  0  0  0  0  0  0  0  0
  -26.5800  -34.8830   22.3980 O   0  0  0  0  0  0  0  0  0  0  0  0
  -25.0010  -34.0720   24.9940 H   0  0  0  0  0  0  0  0  0  0  0  0
  -24.1710  -36.7630   23.0950 C   0  0  0  0  0  1  0  0  0  0  0  0
  -25.4220  -36.3660   23.8960 C   0  0  0  0  0  3  0  0  0  0  0  0
  -27.5580  -37.2620   24.7080 C   0  0  0  0  0  1  0  0  0  0  0  0
  -26.4460  -37.4260   23.7760 N   0  0  0  0  0  0  0  0  0  0  0  0
  -26.0350  -38.3430   23.9300 H   0  0  0  0  0  0  0  0  0  0  0  0
  1  2  2  0
  2 17  1  0
  2  5  1  0
  3  6  1  0
  3  5  2  0
  4  1  1  0
  6 47  1  0
  7  1  1  0
  7  3  1  0
  8  6  1  0
  9 17  1  0
 10 15  1  0
 11 12  1  0
 11 10  1  0
 13 12  1  0
 13 22  1  0
 13 14  1  0
 15  9  1  0
 15 14  1  0
 16  9  2  0
 17 18  1  0
 19 20  2  0
 20 39  1  0
 21 20  1  0
 21 24  1  0
 22 19  1  0
 22 23  1  0
 23 21  2  0
 24 25  1  0
 25 26  2  0
 27 30  1  0
 27 26  1  0
 28 27  2  0
 29 28  1  0
 29 24  2  0
 30 31  1  0
 31 32  1  0
 32 33  2  0
 34 33  1  0
 34 38  1  0
 35 34  2  0
 36 31  2  0
 36 35  1  0
 37 36  1  0
 39 40  1  0
 40 43  1  0
 40 42  1  0
 41 39  2  0
 44 45  1  0
 44 19  1  0
 46 44  1  0
 48 50  1  0
 48 47  1  0
 49 48  2  0
 51 50  1  0
 52 63  2  0
 53 51  1  0
 53 58  1  0
 54 62  1  0
 54 64  1  0
 55 61  1  0
 55 57  1  0
 56 62  1  0
 57 58  2  0
 57 56  1  0
 59 53  2  0
 60 59  1  0
 60 55  2  0
 61 54  1  0
 62 52  1  0
 64 66  2  0
 65 64  1  0
 67 65  1  0
 68 77  2  0
 68 73  1  0
 69 65  1  0
 69 73  1  0
 70 69  1  0
 71 72  1  0
 71 70  1  0
 72 68  1  0
 73 74  2  0
 74 75  1  0
 76 75  2  0
 77 76  1  0
 78 52  1  0
 78 83  1  0
 78 79  1  0
 79 82  1  1
 79 80  1  0
 81 79  1  0
 83 86  1  0
 84 88  1  0
 84 83  1  0
 85 84  2  0
 88 87  1  0
 90 88  1  0
 90 91  1  0
 90 89  1  0
M  ISO  4   9 100  17 100  50 101  51 101
M  END
>  <TORSDO>  (56) 
F 19

>  <SCORE>  (56) 
-14.209

>  <name>  (56) 
55

>  <ligand_id>  (56) 
55

>  <original_smiles>  (56) 
[H]c1c([H])c([H])c2c(c1[H])C([H])([H])C([H])([H])C([H])([H])C2([H])N([H])C(=O)C1([H])N(C(=O)C([H])(N([H])C(=O)C([H])(N([H])C([H])([H])[H])C([H])([H])[H])C(C([H])([H])[H])(C([H])([H])[H])C([H])([H])[H])C([H])([H])c2c([H])c(OC([H])([H])C(=O)C([H])([H])N([H])c3nc(N([H])C(=O)N4C([H])([H])C([H])([H])C([H])([H])C([H])(n5nc(-c6c([H])c([H])c(Oc7c([H])c([H])c(F)c([H])c7F)c([H])c6[H])c(C(=O)N([H])[H])c5N([H])[H])C4([H])[H])c(C([H])([H])[H])o3)c([H])c([H])c2C1([H])[H]

>  <smiles>  (56) 
[H]c1c([H])c([H])c2c(c1[H])C([H])([H])C([H])([H])C([H])([H])C2([H])N([H])C(=O)C1([H])N(C(=O)C([H])(N([H])C(=O)C([H])(N([H])C([H])([H])[H])C([H])([H])[H])C(C([H])([H])[H])(C([H])([H])[H])C([H])([H])[H])C([H])([H])c2c([H])c(OC([H])([H])C(=O)C([H])([H])N([H])c3nc(N([H])C(=O)N4C([H])([H])C([H])([H])C([H])([H])C([H])(n5nc(-c6c([H])c([H])c(Oc7c([H])c([H])c(F)c([H])c7F)c([H])c6[H])c(C(=O)N([H])[H])c5N([H])[H])C4([H])[H])c(C([H])([H])[H])o3)c([H])c([H])c2C1([H])[H]

$$$$
56:0:0
     RDKit          3D

 90 99  0  0  1  0  0  0  0  0999 V2000
  -30.6240  -14.7660   20.4030 C   0  0  0  0  0  0  0  0  0  0  0  0
  -30.3960  -12.4800   19.4340 C   0  0  0  0  0  2  0  0  0  0  0  0
  -29.4720  -12.5350   18.2010 C   0  0  0  0  0  2  0  0  0  0  0  0
  -27.9950  -12.4080   18.6220 C   0  0  0  0  0  2  0  0  0  0  0  0
  -27.6200  -13.3200   19.8210 C   0  0  0  0  0  3  0  0  0  0  0  0
  -28.6690  -13.2410   20.9470 C   0  0  0  0  0  2  0  0  0  0  0  0
  -29.9650  -13.5610   20.3450 N   0  0  0  0  0  0  0  0  0  0  0  0
  -31.8420  -14.8050   20.1860 O   0  0  0  0  0  0  0  0  0  0  0  0
  -29.1220  -18.8560   19.7140 C   0  0  0  0  0  0  0  0  0  0  0  0
  -29.6350  -18.5070   20.9280 C   0  0  0  0  0  0  0  0  0  0  0  0
  -29.1450  -21.0200   20.5940 C   0  0  0  0  0  0  0  0  0  0  0  0
  -28.8450  -17.7670   18.7180 C   0  0  0  0  0  2  0  0  0  0  0  0
  -29.9940  -17.0520   21.3520 C   0  0  0  0  0  2  0  0  0  0  0  0
  -29.7400  -16.4950   18.9310 C   0  0  0  0  0  2  0  0  0  0  0  0
  -28.8730  -20.2550   19.5150 N   0  0  0  0  0  0  0  0  0  0  0  0
  -29.8760  -15.9440   20.3180 N   0  0  0  0  0  0  0  0  0  0  0  0
  -28.9860  -22.4500   20.7420 N   0  0  0  0  0  0  0  0  0  0  0  0
  -29.7780  -19.9740   21.9170 S   0  0  0  0  0  0  0  0  0  0  0  0
  -29.1590  -22.6960   21.7140 H   0  0  0  0  0  0  0  0  0  0  0  0
  -25.2390  -13.9510   20.5270 C   0  0  0  0  0  0  0  0  0  0  0  0
  -24.1570  -13.1950   20.8910 C   0  0  0  0  0  0  0  0  0  0  0  0
  -24.6000  -11.8380   20.8740 C   0  0  0  0  0  0  0  0  0  0  0  0
  -26.2710  -13.0530   20.3070 N   0  0  0  0  0  0  0  0  0  0  0  0
  -25.8930  -11.7770   20.5800 N   0  0  0  0  0  0  0  0  0  0  0  0
  -23.8550  -10.5880   21.0640 C   0  0  0  0  0  0  0  0  0  0  0  0
  -24.2760   -9.6090   21.9910 C   0  0  0  0  0  3  0  0  0  0  0  0
  -23.5310   -8.4240   22.1720 C   0  0  0  0  0  3  0  0  0  0  0  0
  -22.3490   -8.2080   21.4250 C   0  0  0  0  0  0  0  0  0  0  0  0
  -21.9450   -9.1750   20.4890 C   0  0  0  0  0  3  0  0  0  0  0  0
  -22.6900  -10.3530   20.3060 C   0  0  0  0  0  3  0  0  0  0  0  0
  -21.5770   -7.0750   21.5130 O   0  0  0  0  0  0  0  0  0  0  0  0
  -21.5350   -6.3200   22.6580 C   0  0  0  0  0  0  0  0  0  0  0  0
  -21.1660   -6.8740   23.9040 C   0  0  0  0  0  3  0  0  0  0  0  0
  -21.0710   -6.0470   25.0400 C   0  0  0  0  0  3  0  0  0  0  0  0
  -21.3320   -4.6680   24.9330 C   0  0  0  0  0  0  0  0  0  0  0  0
  -21.6930   -4.1150   23.6920 C   0  0  0  0  0  3  0  0  0  0  0  0
  -21.7920   -4.9390   22.5580 C   0  0  0  0  0  0  0  0  0  0  0  0
  -22.1210   -4.3970   21.3610 F   0  0  0  0  0  0  0  0  0  0  0  0
  -21.2330   -3.8730   26.0240 F   0  0  0  0  0  0  0  0  0  0  0  0
  -22.7650  -13.6960   21.1430 C   0  0  0  0  0  0  0  0  0  0  0  0
  -22.0170  -13.0170   22.0060 N   0  0  0  0  0  0  0  0  0  0  0  0
  -22.3510  -14.7250   20.6120 O   0  0  0  0  0  0  0  0  0  0  0  0
  -22.3670  -12.1890   22.4650 H   0  0  0  0  0  0  0  0  0  0  0  0
  -21.0840  -13.3410   22.2210 H   0  0  0  0  0  0  0  0  0  0  0  0
  -25.4330  -15.3150   20.3410 N   0  0  0  0  0  0  0  0  0  0  0  0
  -24.6910  -15.9950   20.4630 H   0  0  0  0  0  0  0  0  0  0  0  0
  -26.3090  -15.7360   20.0560 H   0  0  0  0  0  0  0  0  0  0  0  0
  -28.8380  -23.7240   19.9310 C   0  0  0  0  0  3  0  0  0  0  0  0
  -28.2920  -25.0530   20.6880 C   0  0  0  0  0  3  0  0  0  0  0  0
  -28.4640  -26.4430   20.1480 O   0  0  0  0  0  0  0  0  0  0  0  0
  -24.7100  -31.8810   23.1830 C   0  0  0  0  0  0  0  0  0  0  0  0
  -27.3560  -27.3120   20.1420 C   0  0  0  0  0  0  0  0  0  0  0  0
  -23.5230  -30.4670   21.5480 C   0  0  0  0  0  3  0  0  0  0  0  0
  -24.9840  -28.9250   20.1240 C   0  0  0  0  0  0  0  0  0  0  0  0
  -26.0610  -30.8040   21.3610 C   0  0  0  0  0  2  0  0  0  0  0  0
  -26.1520  -29.4210   20.7160 C   0  0  0  0  0  0  0  0  0  0  0  0
  -27.3450  -28.6300   20.7080 C   0  0  0  0  0  3  0  0  0  0  0  0
  -26.1690  -26.8770   19.5200 C   0  0  0  0  0  3  0  0  0  0  0  0
  -24.9980  -27.6600   19.5100 C   0  0  0  0  0  3  0  0  0  0  0  0
  -23.7420  -29.7920   20.1690 C   0  0  0  0  0  2  0  0  0  0  0  0
  -24.7850  -31.0700   22.0860 N   0  0  0  0  0  0  0  0  0  0  0  0
  -23.6250  -32.1490   23.7170 O   0  0  0  0  0  0  0  0  0  0  0  0
  -22.8680  -29.4460   22.5110 C   0  0  0  0  0  0  0  0  0  0  0  0
  -21.5390  -29.2710   22.3980 N   0  0  0  0  0  0  0  0  0  0  0  0
  -23.5540  -28.8120   23.3170 O   0  0  0  0  0  0  0  0  0  0  0  0
  -21.0400  -29.8360   21.7240 H   0  0  0  0  0  0  0  0  0  0  0  0
  -18.1650  -28.0790   22.9400 C   0  0  0  0  0  0  0  0  0  0  0  0
  -20.7290  -28.3310   23.1750 C   0  0  0  0  0  3  0  0  0  0  0  0
  -20.8180  -26.9030   22.5890 C   0  0  0  0  0  2  0  0  0  0  0  0
  -19.7010  -26.5910   21.5880 C   0  0  0  0  0  2  0  0  0  0  0  0
  -18.3280  -26.7340   22.2520 C   0  0  0  0  0  2  0  0  0  0  0  0
  -19.2920  -28.8360   23.3590 C   0  0  0  0  0  0  0  0  0  0  0  0
  -19.0840  -30.0940   23.9650 C   0  0  0  0  0  3  0  0  0  0  0  0
  -17.7840  -30.5970   24.1520 C   0  0  0  0  0  3  0  0  0  0  0  0
  -16.6710  -29.8380   23.7500 C   0  0  0  0  0  3  0  0  0  0  0  0
  -16.8620  -28.5800   23.1480 C   0  0  0  0  0  3  0  0  0  0  0  0
  -25.9850  -32.5290   23.8030 C   0  0  0  0  0  3  0  0  0  0  0  0
  -25.6530  -33.9160   24.1590 N   0  0  0  0  0  0  0  0  0  0  0  0
  -25.9530  -34.9870   23.4110 C   0  0  0  0  0  0  0  0  0  0  0  0
  -26.6080  -34.9120   22.3690 O   0  0  0  0  0  0  0  0  0  0  0  0
  -25.0710  -34.0470   24.9720 H   0  0  0  0  0  0  0  0  0  0  0  0
  -24.1790  -36.7480   23.1190 C   0  0  0  0  0  1  0  0  0  0  0  0
  -25.4450  -36.3590   23.8970 C   0  0  0  0  0  3  0  0  0  0  0  0
  -27.5800  -37.2780   24.6890 C   0  0  0  0  0  1  0  0  0  0  0  0
  -26.4520  -37.4360   23.7750 N   0  0  0  0  0  0  0  0  0  0  0  0
  -26.0320  -38.3450   23.9470 H   0  0  0  0  0  0  0  0  0  0  0  0
  -26.5260  -31.7500   25.0660 C   0  0  1  0  0  0  0  0  0  0  0  0
  -25.4480  -31.4820   26.1440 C   0  0  0  0  0  1  0  0  0  0  0  0
  -27.1260  -30.3860   24.6520 C   0  0  0  0  0  1  0  0  0  0  0  0
  -27.6710  -32.5550   25.7270 C   0  0  0  0  0  1  0  0  0  0  0  0
  2  7  1  0
  3  4  1  0
  3  2  1  0
  5  4  1  0
  5 23  1  0
  5  6  1  0
  7  1  1  0
  7  6  1  0
  8  1  2  0
  9 10  2  0
 10 13  1  0
 10 18  1  0
 11 17  1  0
 11 18  1  0
 12 14  1  0
 12  9  1  0
 14 16  1  0
 15  9  1  0
 15 11  2  0
 16  1  1  0
 16 13  1  0
 17 19  1  0
 20 21  2  0
 21 40  1  0
 22 21  1  0
 22 25  1  0
 23 20  1  0
 23 24  1  0
 24 22  2  0
 25 26  1  0
 26 27  2  0
 28 31  1  0
 28 27  1  0
 29 28  2  0
 30 29  1  0
 30 25  2  0
 31 32  1  0
 32 33  1  0
 33 34  2  0
 35 34  1  0
 35 39  1  0
 36 35  2  0
 37 32  2  0
 37 36  1  0
 38 37  1  0
 40 41  1  0
 41 44  1  0
 41 43  1  0
 42 40  2  0
 45 46  1  0
 45 20  1  0
 47 45  1  0
 48 49  2  0
 48 17  1  0
 50 49  1  0
 51 62  2  0
 52 50  1  0
 52 57  1  0
 53 61  1  0
 53 63  1  0
 54 60  1  0
 54 56  1  0
 55 61  1  0
 56 55  1  0
 57 56  2  0
 58 52  2  0
 59 58  1  0
 59 54  2  0
 60 53  1  0
 61 51  1  0
 63 65  2  0
 64 63  1  0
 66 64  1  0
 67 76  2  0
 67 72  1  0
 68 64  1  0
 68 72  1  0
 69 68  1  0
 70 71  1  0
 70 69  1  0
 71 67  1  0
 72 73  2  0
 73 74  1  0
 75 74  2  0
 76 75  1  0
 77 51  1  0
 77 78  1  0
 77 87  1  0
 78 81  1  0
 79 83  1  0
 79 78  1  0
 80 79  2  0
 83 82  1  0
 85 83  1  0
 85 86  1  0
 85 84  1  0
 87 90  1  1
 87 88  1  0
 89 87  1  0
M  ISO  4   1 100  16 100  49 101  50 101
M  END
>  <TORSDO>  (57) 
F 17

>  <SCORE>  (57) 
-14.429

>  <name>  (57) 
56

>  <ligand_id>  (57) 
56

>  <original_smiles>  (57) 
[H]c1c([H])c([H])c2c(c1[H])C([H])([H])C([H])([H])C([H])([H])C2([H])N([H])C(=O)C1([H])N(C(=O)C([H])(N([H])C(=O)C([H])(N([H])C([H])([H])[H])C([H])([H])[H])C(C([H])([H])[H])(C([H])([H])[H])C([H])([H])[H])C([H])([H])c2c([H])c(OC([H])([H])C([H])([H])N([H])c3nc4c(s3)C([H])([H])N(C(=O)N3C([H])([H])C([H])([H])C([H])([H])C([H])(n5nc(-c6c([H])c([H])c(Oc7c([H])c([H])c(F)c([H])c7F)c([H])c6[H])c(C(=O)N([H])[H])c5N([H])[H])C3([H])[H])C([H])([H])C4([H])[H])c([H])c([H])c2C1([H])[H]

>  <smiles>  (57) 
[H]c1c([H])c([H])c2c(c1[H])C([H])([H])C([H])([H])C([H])([H])C2([H])N([H])C(=O)C1([H])N(C(=O)C([H])(N([H])C(=O)C([H])(N([H])C([H])([H])[H])C([H])([H])[H])C(C([H])([H])[H])(C([H])([H])[H])C([H])([H])[H])C([H])([H])c2c([H])c(OC([H])([H])C([H])([H])N([H])c3nc4c(s3)C([H])([H])N(C(=O)N3C([H])([H])C([H])([H])C([H])([H])C([H])(n5nc(-c6c([H])c([H])c(Oc7c([H])c([H])c(F)c([H])c7F)c([H])c6[H])c(C(=O)N([H])[H])c5N([H])[H])C3([H])[H])C([H])([H])C4([H])[H])c([H])c([H])c2C1([H])[H]

$$$$
57:0:0
     RDKit          3D

 91100  0  0  1  0  0  0  0  0999 V2000
  -28.8990  -23.5460   20.1100 C   0  0  0  0  0  0  0  0  0  0  0  0
  -28.4520  -22.2510   20.4250 N   0  0  0  0  0  0  0  0  0  0  0  0
  -29.9660  -23.7220   19.5160 O   0  0  0  0  0  0  0  0  0  0  0  0
  -27.5590  -22.3140   20.8950 H   0  0  0  0  0  0  0  0  0  0  0  0
  -30.7500  -14.9370   19.9360 C   0  0  0  0  0  0  0  0  0  0  0  0
  -30.4580  -12.6380   18.9560 C   0  0  0  0  0  2  0  0  0  0  0  0
  -29.4560  -12.6350   17.7840 C   0  0  0  0  0  2  0  0  0  0  0  0
  -28.0250  -12.4240   18.3100 C   0  0  0  0  0  2  0  0  0  0  0  0
  -27.6990  -13.3330   19.5250 C   0  0  0  0  0  3  0  0  0  0  0  0
  -28.8270  -13.3390   20.5800 C   0  0  0  0  0  2  0  0  0  0  0  0
  -30.0570  -13.7350   19.8830 N   0  0  0  0  0  0  0  0  0  0  0  0
  -31.9330  -14.9080   19.5810 O   0  0  0  0  0  0  0  0  0  0  0  0
  -29.9580  -20.2120   19.6930 C   0  0  0  0  0  3  0  0  0  0  0  0
  -29.9670  -18.7360   19.8530 C   0  0  0  0  0  0  0  0  0  0  0  0
  -28.9450  -18.2700   20.5760 C   0  0  0  0  0  0  0  0  0  0  0  0
  -28.8850  -20.8960   20.3080 C   0  0  0  0  0  0  0  0  0  0  0  0
  -30.7890  -17.4870   19.4570 C   0  0  0  0  0  3  0  0  0  0  0  0
  -28.9420  -16.7440   20.7460 C   0  0  0  0  0  3  0  0  0  0  0  0
  -30.1260  -16.2130   19.9880 N   0  0  0  0  0  0  0  0  0  0  0  0
  -27.9070  -19.6060   21.0960 S   0  0  0  0  0  0  0  0  0  0  0  0
  -25.3770  -13.8850   20.4510 C   0  0  0  0  0  0  0  0  0  0  0  0
  -24.3410  -13.0970   20.8670 C   0  0  0  0  0  0  0  0  0  0  0  0
  -24.7980  -11.7490   20.7540 C   0  0  0  0  0  0  0  0  0  0  0  0
  -26.4000  -13.0180   20.1080 N   0  0  0  0  0  0  0  0  0  0  0  0
  -26.0660  -11.7250   20.3560 N   0  0  0  0  0  0  0  0  0  0  0  0
  -24.0830  -10.4810   20.9450 C   0  0  0  0  0  0  0  0  0  0  0  0
  -24.5170   -9.5200   21.8840 C   0  0  0  0  0  3  0  0  0  0  0  0
  -23.7980   -8.3180   22.0620 C   0  0  0  0  0  3  0  0  0  0  0  0
  -22.6310   -8.0690   21.3020 C   0  0  0  0  0  0  0  0  0  0  0  0
  -22.2160   -9.0190   20.3510 C   0  0  0  0  0  3  0  0  0  0  0  0
  -22.9370  -10.2110   20.1710 C   0  0  0  0  0  3  0  0  0  0  0  0
  -21.8840   -6.9200   21.3900 O   0  0  0  0  0  0  0  0  0  0  0  0
  -21.7500   -6.2370   22.5730 C   0  0  0  0  0  0  0  0  0  0  0  0
  -21.2170   -6.8470   23.7300 C   0  0  0  0  0  3  0  0  0  0  0  0
  -21.0320   -6.0890   24.9040 C   0  0  0  0  0  3  0  0  0  0  0  0
  -21.3720   -4.7240   24.9220 C   0  0  0  0  0  0  0  0  0  0  0  0
  -21.8980   -4.1130   23.7690 C   0  0  0  0  0  3  0  0  0  0  0  0
  -22.0840   -4.8680   22.5970 C   0  0  0  0  0  0  0  0  0  0  0  0
  -22.5710   -4.2700   21.4840 F   0  0  0  0  0  0  0  0  0  0  0  0
  -21.1890   -3.9930   26.0460 F   0  0  0  0  0  0  0  0  0  0  0  0
  -22.9670  -13.5650   21.2480 C   0  0  0  0  0  0  0  0  0  0  0  0
  -22.2940  -12.8400   22.1350 N   0  0  0  0  0  0  0  0  0  0  0  0
  -22.5000  -14.6100   20.7950 O   0  0  0  0  0  0  0  0  0  0  0  0
  -22.6850  -11.9940   22.5220 H   0  0  0  0  0  0  0  0  0  0  0  0
  -21.3750  -13.1360   22.4310 H   0  0  0  0  0  0  0  0  0  0  0  0
  -25.5240  -15.2600   20.3080 N   0  0  0  0  0  0  0  0  0  0  0  0
  -24.7570  -15.9000   20.4860 H   0  0  0  0  0  0  0  0  0  0  0  0
  -26.3240  -15.7110   19.8860 H   0  0  0  0  0  0  0  0  0  0  0  0
  -27.8770  -24.9030   22.0620 C   0  0  0  0  0  1  0  0  0  0  0  0
  -27.9900  -24.8480   20.5290 C   0  0  0  0  0  3  0  0  0  0  0  0
  -28.3290  -26.2890   20.1010 O   0  0  0  0  0  0  0  0  0  0  0  0
  -24.6170  -31.8450   23.1390 C   0  0  0  0  0  0  0  0  0  0  0  0
  -27.2680  -27.2480   20.0600 C   0  0  0  0  0  0  0  0  0  0  0  0
  -23.4390  -30.4490   21.4850 C   0  0  0  0  0  3  0  0  0  0  0  0
  -24.9110  -28.9230   20.0440 C   0  0  0  0  0  0  0  0  0  0  0  0
  -25.9840  -30.7700   21.3200 C   0  0  0  0  0  2  0  0  0  0  0  0
  -26.0820  -29.3900   20.6570 C   0  0  0  0  0  0  0  0  0  0  0  0
  -27.2650  -28.5670   20.6520 C   0  0  0  0  0  3  0  0  0  0  0  0
  -26.0800  -26.8810   19.3930 C   0  0  0  0  0  3  0  0  0  0  0  0
  -24.9200  -27.6800   19.3950 C   0  0  0  0  0  3  0  0  0  0  0  0
  -23.6680  -29.7920   20.0980 C   0  0  0  0  0  2  0  0  0  0  0  0
  -24.6990  -31.0410   22.0360 N   0  0  0  0  0  0  0  0  0  0  0  0
  -23.5270  -32.1060   23.6690 O   0  0  0  0  0  0  0  0  0  0  0  0
  -22.7790  -29.4170   22.4340 C   0  0  0  0  0  0  0  0  0  0  0  0
  -21.4520  -29.2360   22.3110 N   0  0  0  0  0  0  0  0  0  0  0  0
  -23.4620  -28.7850   23.2430 O   0  0  0  0  0  0  0  0  0  0  0  0
  -20.9580  -29.7980   21.6330 H   0  0  0  0  0  0  0  0  0  0  0  0
  -18.0810  -28.0170   22.8240 C   0  0  0  0  0  0  0  0  0  0  0  0
  -20.6420  -28.2820   23.0720 C   0  0  0  0  0  3  0  0  0  0  0  0
  -20.7420  -26.8620   22.4710 C   0  0  0  0  0  2  0  0  0  0  0  0
  -19.6320  -26.5530   21.4620 C   0  0  0  0  0  2  0  0  0  0  0  0
  -18.2560  -26.6810   22.1210 C   0  0  0  0  0  2  0  0  0  0  0  0
  -19.2010  -28.7750   23.2560 C   0  0  0  0  0  0  0  0  0  0  0  0
  -18.9820  -30.0260   23.8740 C   0  0  0  0  0  3  0  0  0  0  0  0
  -17.6770  -30.5170   24.0640 C   0  0  0  0  0  3  0  0  0  0  0  0
  -16.5720  -29.7550   23.6470 C   0  0  0  0  0  3  0  0  0  0  0  0
  -16.7750  -28.5060   23.0330 C   0  0  0  0  0  3  0  0  0  0  0  0
  -25.8860  -32.4920   23.7730 C   0  0  0  0  0  3  0  0  0  0  0  0
  -25.5470  -33.8760   24.1370 N   0  0  0  0  0  0  0  0  0  0  0  0
  -25.8500  -34.9550   23.4040 C   0  0  0  0  0  0  0  0  0  0  0  0
  -26.5120  -34.8910   22.3640 O   0  0  0  0  0  0  0  0  0  0  0  0
  -24.9570  -33.9970   24.9470 H   0  0  0  0  0  0  0  0  0  0  0  0
  -24.0800  -36.7200   23.1140 C   0  0  0  0  0  1  0  0  0  0  0  0
  -25.3390  -36.3220   23.9000 C   0  0  0  0  0  3  0  0  0  0  0  0
  -27.4630  -37.2350   24.7300 C   0  0  0  0  0  1  0  0  0  0  0  0
  -26.3470  -37.3990   23.8020 N   0  0  0  0  0  0  0  0  0  0  0  0
  -25.9240  -38.3070   23.9730 H   0  0  0  0  0  0  0  0  0  0  0  0
  -26.4190  -31.7040   25.0320 C   0  0  1  0  0  0  0  0  0  0  0  0
  -25.3300  -31.4130   26.0910 C   0  0  0  0  0  1  0  0  0  0  0  0
  -27.0370  -30.3500   24.6120 C   0  0  0  0  0  1  0  0  0  0  0  0
  -27.5480  -32.5110   25.7150 C   0  0  0  0  0  1  0  0  0  0  0  0
  1  2  1  0
  1 50  1  0
  2  4  1  0
  3  1  2  0
  5 19  1  0
  6 11  1  0
  7  8  1  0
  7  6  1  0
  9  8  1  0
  9 24  1  0
  9 10  1  0
 11  5  1  0
 11 10  1  0
 12  5  2  0
 13 14  1  0
 13 16  2  0
 14 15  1  0
 15 18  2  0
 15 20  1  0
 16  2  1  0
 16 20  1  0
 17 14  2  0
 17 19  1  0
 19 18  1  0
 21 22  2  0
 22 41  1  0
 23 22  1  0
 23 26  1  0
 24 25  1  0
 24 21  1  0
 25 23  2  0
 26 27  1  0
 27 28  2  0
 29 32  1  0
 29 28  1  0
 30 29  2  0
 31 30  1  0
 31 26  2  0
 32 33  1  0
 33 38  2  0
 33 34  1  0
 34 35  2  0
 35 36  1  0
 36 40  1  0
 37 36  2  0
 38 37  1  0
 39 38  1  0
 41 42  1  0
 42 45  1  0
 42 44  1  0
 43 41  2  0
 46 21  1  0
 46 47  1  0
 48 46  1  0
 50 49  1  0
 51 50  1  0
 52 63  2  0
 53 51  1  0
 53 58  1  0
 54 62  1  0
 54 64  1  0
 55 61  1  0
 55 57  1  0
 56 62  1  0
 57 56  1  0
 58 57  2  0
 59 60  1  0
 59 53  2  0
 60 55  2  0
 61 54  1  0
 62 52  1  0
 64 66  2  0
 65 64  1  0
 67 65  1  0
 68 77  2  0
 68 73  1  0
 69 65  1  0
 69 73  1  0
 70 69  1  0
 71 72  1  0
 71 70  1  0
 72 68  1  0
 73 74  2  0
 74 75  1  0
 76 75  2  0
 77 76  1  0
 78 52  1  0
 78 79  1  0
 78 88  1  0
 79 82  1  0
 80 84  1  0
 80 79  1  0
 81 80  2  0
 84 83  1  0
 86 84  1  0
 86 87  1  0
 86 85  1  0
 88 91  1  1
 88 89  1  0
 90 88  1  0
M  ISO  4   5 100  19 100  50 101  51 101
M  END
>  <TORSDO>  (58) 
F 17

>  <SCORE>  (58) 
-13.754

>  <name>  (58) 
57

>  <ligand_id>  (58) 
57

>  <original_smiles>  (58) 
[H]c1c([H])c([H])c2c(c1[H])C([H])([H])C([H])([H])C([H])([H])C2([H])N([H])C(=O)C1([H])N(C(=O)C([H])(N([H])C(=O)C([H])(N([H])C([H])([H])[H])C([H])([H])[H])C(C([H])([H])[H])(C([H])([H])[H])C([H])([H])[H])C([H])([H])c2c([H])c(OC([H])(C(=O)N([H])c3sc4c(c3[H])C([H])([H])N(C(=O)N3C([H])([H])C([H])([H])C([H])([H])C([H])(n5nc(-c6c([H])c([H])c(Oc7c([H])c([H])c(F)c([H])c7F)c([H])c6[H])c(C(=O)N([H])[H])c5N([H])[H])C3([H])[H])C4([H])[H])C([H])([H])[H])c([H])c([H])c2C1([H])[H]

>  <smiles>  (58) 
[H]c1c([H])c([H])c2c(c1[H])C([H])([H])C([H])([H])C([H])([H])C2([H])N([H])C(=O)C1([H])N(C(=O)C([H])(N([H])C(=O)C([H])(N([H])C([H])([H])[H])C([H])([H])[H])C(C([H])([H])[H])(C([H])([H])[H])C([H])([H])[H])C([H])([H])c2c([H])c(OC([H])(C(=O)N([H])c3sc4c(c3[H])C([H])([H])N(C(=O)N3C([H])([H])C([H])([H])C([H])([H])C([H])(n5nc(-c6c([H])c([H])c(Oc7c([H])c([H])c(F)c([H])c7F)c([H])c6[H])c(C(=O)N([H])[H])c5N([H])[H])C3([H])[H])C4([H])[H])C([H])([H])[H])c([H])c([H])c2C1([H])[H]

$$$$
58:0:0
     RDKit          3D

 91 99  0  0  1  0  0  0  0  0999 V2000
  -28.3740  -23.7590   20.0060 C   0  0  0  0  0  0  0  0  0  0  0  0
  -29.0090  -22.6260   20.5120 N   0  0  0  0  0  0  0  0  0  0  0  0
  -27.9310  -23.7530   18.8550 O   0  0  0  0  0  0  0  0  0  0  0  0
  -29.5380  -22.7890   21.3590 H   0  0  0  0  0  0  0  0  0  0  0  0
  -29.7250  -20.0890   20.5030 C   0  0  0  0  0  3  0  0  0  0  0  0
  -28.1730  -18.5200   19.5350 C   0  0  0  0  0  3  0  0  0  0  0  0
  -27.6830  -20.8030   19.4420 C   0  0  0  0  0  3  0  0  0  0  0  0
  -29.4070  -18.7010   20.1990 C   0  0  0  0  0  0  0  0  0  0  0  0
  -28.8500  -21.1940   20.1300 C   0  0  0  0  0  0  0  0  0  0  0  0
  -27.3500  -19.5220   19.1660 N   0  0  0  0  0  0  0  0  0  0  0  0
  -30.3310  -17.4300   20.5450 C   0  0  0  0  0  2  0  0  0  0  0  0
  -30.7860  -14.8180   20.3800 C   0  0  0  0  0  0  0  0  0  0  0  0
  -30.5860  -12.5420   19.3720 C   0  0  0  0  0  2  0  0  0  0  0  0
  -29.6450  -12.6280   18.1480 C   0  0  0  0  0  2  0  0  0  0  0  0
  -28.1740  -12.4700   18.5780 C   0  0  0  0  0  2  0  0  0  0  0  0
  -27.8110  -13.3540   19.8010 C   0  0  0  0  0  3  0  0  0  0  0  0
  -28.8680  -13.2460   20.9230 C   0  0  0  0  0  2  0  0  0  0  0  0
  -30.1660  -13.5900   20.3270 N   0  0  0  0  0  0  0  0  0  0  0  0
  -31.9630  -14.9360   20.0340 O   0  0  0  0  0  0  0  0  0  0  0  0
  -29.9970  -15.9340   20.6160 N   0  0  0  0  0  0  0  0  0  0  0  0
  -29.0450  -15.7100   20.8710 H   0  0  0  0  0  0  0  0  0  0  0  0
  -25.4300  -13.9680   20.5420 C   0  0  0  0  0  0  0  0  0  0  0  0
  -24.3560  -13.2040   20.9090 C   0  0  0  0  0  0  0  0  0  0  0  0
  -24.8010  -11.8480   20.8520 C   0  0  0  0  0  0  0  0  0  0  0  0
  -26.4620  -13.0790   20.2900 N   0  0  0  0  0  0  0  0  0  0  0  0
  -26.0900  -11.7960   20.5380 N   0  0  0  0  0  0  0  0  0  0  0  0
  -24.0570  -10.5940   21.0240 C   0  0  0  0  0  0  0  0  0  0  0  0
  -24.4610   -9.6170   21.9600 C   0  0  0  0  0  3  0  0  0  0  0  0
  -23.7150   -8.4300   22.1220 C   0  0  0  0  0  3  0  0  0  0  0  0
  -22.5510   -8.2100   21.3460 C   0  0  0  0  0  0  0  0  0  0  0  0
  -22.1680   -9.1740   20.3980 C   0  0  0  0  0  3  0  0  0  0  0  0
  -22.9150  -10.3540   20.2350 C   0  0  0  0  0  3  0  0  0  0  0  0
  -21.7800   -7.0750   21.4160 O   0  0  0  0  0  0  0  0  0  0  0  0
  -21.6770   -6.3450   22.5730 C   0  0  0  0  0  0  0  0  0  0  0  0
  -21.1540   -6.9020   23.7610 C   0  0  0  0  0  3  0  0  0  0  0  0
  -21.0030   -6.0980   24.9070 C   0  0  0  0  0  3  0  0  0  0  0  0
  -21.3640   -4.7380   24.8660 C   0  0  0  0  0  0  0  0  0  0  0  0
  -21.8790   -4.1810   23.6830 C   0  0  0  0  0  3  0  0  0  0  0  0
  -22.0340   -4.9830   22.5390 C   0  0  0  0  0  0  0  0  0  0  0  0
  -22.5120   -4.4360   21.3940 F   0  0  0  0  0  0  0  0  0  0  0  0
  -21.2100   -3.9630   25.9650 F   0  0  0  0  0  0  0  0  0  0  0  0
  -22.9680  -13.6990   21.1910 C   0  0  0  0  0  0  0  0  0  0  0  0
  -22.2310  -13.0020   22.0490 N   0  0  0  0  0  0  0  0  0  0  0  0
  -22.5460  -14.7370   20.6840 O   0  0  0  0  0  0  0  0  0  0  0  0
  -22.5840  -12.1640   22.4860 H   0  0  0  0  0  0  0  0  0  0  0  0
  -21.2980  -13.3160   22.2760 H   0  0  0  0  0  0  0  0  0  0  0  0
  -25.6030  -15.3370   20.3710 N   0  0  0  0  0  0  0  0  0  0  0  0
  -24.8010  -15.9580   20.4190 H   0  0  0  0  0  0  0  0  0  0  0  0
  -26.3930  -15.7500   19.8960 H   0  0  0  0  0  0  0  0  0  0  0  0
  -28.1470  -25.0820   20.8880 C   0  0  0  0  0  2  0  0  0  0  0  0
  -28.3600  -26.4470   20.2910 O   0  0  0  0  0  0  0  0  0  0  0  0
  -24.5750  -31.9150   23.2330 C   0  0  0  0  0  0  0  0  0  0  0  0
  -27.2690  -27.3370   20.2570 C   0  0  0  0  0  0  0  0  0  0  0  0
  -23.4190  -30.5160   21.5560 C   0  0  0  0  0  3  0  0  0  0  0  0
  -24.9110  -28.9640   20.1700 C   0  0  0  0  0  0  0  0  0  0  0  0
  -25.9620  -30.8390   21.4410 C   0  0  0  0  0  2  0  0  0  0  0  0
  -26.0650  -29.4570   20.7950 C   0  0  0  0  0  0  0  0  0  0  0  0
  -27.2550  -28.6590   20.8170 C   0  0  0  0  0  3  0  0  0  0  0  0
  -26.0940  -26.9010   19.6150 C   0  0  0  0  0  3  0  0  0  0  0  0
  -24.9310  -27.6970   19.5640 C   0  0  0  0  0  3  0  0  0  0  0  0
  -23.6760  -29.8420   20.1820 C   0  0  0  0  0  2  0  0  0  0  0  0
  -24.6680  -31.1090   22.1340 N   0  0  0  0  0  0  0  0  0  0  0  0
  -23.4780  -32.1890   23.7400 O   0  0  0  0  0  0  0  0  0  0  0  0
  -22.7280  -29.5030   22.5010 C   0  0  0  0  0  0  0  0  0  0  0  0
  -21.3990  -29.3460   22.3610 N   0  0  0  0  0  0  0  0  0  0  0  0
  -23.3890  -28.8600   23.3230 O   0  0  0  0  0  0  0  0  0  0  0  0
  -20.9280  -29.9060   21.6640 H   0  0  0  0  0  0  0  0  0  0  0  0
  -17.9910  -28.2410   22.8790 C   0  0  0  0  0  0  0  0  0  0  0  0
  -20.5600  -28.4140   23.1170 C   0  0  0  0  0  3  0  0  0  0  0  0
  -20.6120  -26.9960   22.5050 C   0  0  0  0  0  2  0  0  0  0  0  0
  -19.4810  -26.7180   21.5070 C   0  0  0  0  0  2  0  0  0  0  0  0
  -18.1130  -26.9030   22.1680 C   0  0  0  0  0  2  0  0  0  0  0  0
  -19.1390  -28.9550   23.3120 C   0  0  0  0  0  0  0  0  0  0  0  0
  -18.9640  -30.2020   23.9530 C   0  0  0  0  0  3  0  0  0  0  0  0
  -17.6780  -30.7360   24.1540 C   0  0  0  0  0  3  0  0  0  0  0  0
  -16.5460  -30.0190   23.7330 C   0  0  0  0  0  3  0  0  0  0  0  0
  -16.7030  -28.7710   23.1060 C   0  0  0  0  0  3  0  0  0  0  0  0
  -25.8400  -32.5490   23.8910 C   0  0  0  0  0  3  0  0  0  0  0  0
  -26.3080  -31.7910   25.1950 C   0  0  1  0  0  0  0  0  0  0  0  0
  -25.1750  -31.5680   26.2230 C   0  0  0  0  0  1  0  0  0  0  0  0
  -26.9050  -30.4090   24.8440 C   0  0  0  0  0  1  0  0  0  0  0  0
  -27.4320  -32.5940   25.8910 C   0  0  0  0  0  1  0  0  0  0  0  0
  -25.5270  -33.9520   24.1940 N   0  0  0  0  0  0  0  0  0  0  0  0
  -25.8860  -34.9940   23.4310 C   0  0  0  0  0  0  0  0  0  0  0  0
  -26.5840  -34.8740   22.4210 O   0  0  0  0  0  0  0  0  0  0  0  0
  -24.9080  -34.1210   24.9740 H   0  0  0  0  0  0  0  0  0  0  0  0
  -24.1910  -36.8010   22.9970 C   0  0  0  0  0  1  0  0  0  0  0  0
  -25.3950  -36.3910   23.8590 C   0  0  0  0  0  3  0  0  0  0  0  0
  -27.4940  -37.2730   24.7780 C   0  0  0  0  0  1  0  0  0  0  0  0
  -26.4420  -37.4330   23.7780 N   0  0  0  0  0  0  0  0  0  0  0  0
  -26.0360  -38.3590   23.8920 H   0  0  0  0  0  0  0  0  0  0  0  0
  1  2  1  0
  1 50  1  0
  2  4  1  0
  3  1  2  0
  6  8  2  0
  7  9  1  0
  8  5  1  0
  8 11  1  0
  9  5  2  0
  9  2  1  0
 10  7  2  0
 10  6  1  0
 11 20  1  0
 12 20  1  0
 13 18  1  0
 14 15  1  0
 14 13  1  0
 16 15  1  0
 16 25  1  0
 16 17  1  0
 18 12  1  0
 18 17  1  0
 19 12  2  0
 20 21  1  0
 22 23  2  0
 23 42  1  0
 24 23  1  0
 24 27  1  0
 25 26  1  0
 25 22  1  0
 26 24  2  0
 27 28  1  0
 28 29  2  0
 30 33  1  0
 30 29  1  0
 31 30  2  0
 32 31  1  0
 32 27  2  0
 33 34  1  0
 34 35  1  0
 35 36  2  0
 37 36  1  0
 37 41  1  0
 38 37  2  0
 39 34  2  0
 39 38  1  0
 40 39  1  0
 42 43  1  0
 43 46  1  0
 43 45  1  0
 44 42  2  0
 47 48  1  0
 47 22  1  0
 49 47  1  0
 51 50  1  0
 52 63  2  0
 53 51  1  0
 53 58  1  0
 54 62  1  0
 54 64  1  0
 55 61  1  0
 55 57  1  0
 56 62  1  0
 57 58  2  0
 57 56  1  0
 59 53  2  0
 60 59  1  0
 60 55  2  0
 61 54  1  0
 62 52  1  0
 64 66  2  0
 65 64  1  0
 67 65  1  0
 68 77  2  0
 68 73  1  0
 69 65  1  0
 69 73  1  0
 70 69  1  0
 71 72  1  0
 71 70  1  0
 72 68  1  0
 73 74  2  0
 74 75  1  0
 76 75  2  0
 77 76  1  0
 78 52  1  0
 78 83  1  0
 78 79  1  0
 79 82  1  1
 79 80  1  0
 81 79  1  0
 83 86  1  0
 84 88  1  0
 84 83  1  0
 85 84  2  0
 88 87  1  0
 90 88  1  0
 90 91  1  0
 90 89  1  0
M  ISO  4  12 100  20 100  50 101  51 101
M  END
>  <TORSDO>  (59) 
F 19

>  <SCORE>  (59) 
-14.206

>  <name>  (59) 
58

>  <ligand_id>  (59) 
58

>  <original_smiles>  (59) 
[H]c1nc([H])c(C([H])([H])N([H])C(=O)N2C([H])([H])C([H])([H])C([H])([H])C([H])(n3nc(-c4c([H])c([H])c(Oc5c([H])c([H])c(F)c([H])c5F)c([H])c4[H])c(C(=O)N([H])[H])c3N([H])[H])C2([H])[H])c([H])c1N([H])C(=O)C([H])([H])Oc1c([H])c([H])c2c(c1[H])C([H])([H])N(C(=O)C([H])(N([H])C(=O)C([H])(N([H])C([H])([H])[H])C([H])([H])[H])C(C([H])([H])[H])(C([H])([H])[H])C([H])([H])[H])C([H])(C(=O)N([H])C1([H])c3c([H])c([H])c([H])c([H])c3C([H])([H])C([H])([H])C1([H])[H])C2([H])[H]

>  <smiles>  (59) 
[H]c1nc([H])c(C([H])([H])N([H])C(=O)N2C([H])([H])C([H])([H])C([H])([H])C([H])(n3nc(-c4c([H])c([H])c(Oc5c([H])c([H])c(F)c([H])c5F)c([H])c4[H])c(C(=O)N([H])[H])c3N([H])[H])C2([H])[H])c([H])c1N([H])C(=O)C([H])([H])Oc1c([H])c([H])c2c(c1[H])C([H])([H])N(C(=O)C([H])(N([H])C(=O)C([H])(N([H])C([H])([H])[H])C([H])([H])[H])C(C([H])([H])[H])(C([H])([H])[H])C([H])([H])[H])C([H])(C(=O)N([H])C1([H])c3c([H])c([H])c([H])c([H])c3C([H])([H])C([H])([H])C1([H])[H])C2([H])[H]

$$$$
59:0:0
     RDKit          3D

 93101  0  0  1  0  0  0  0  0999 V2000
  -28.6170  -21.1280   20.4580 N   0  0  0  0  0  0  0  0  0  0  0  0
  -27.6430  -21.1220   20.7570 H   0  0  0  0  0  0  0  0  0  0  0  0
  -30.5950  -19.5430   20.0130 C   0  0  0  0  0  3  0  0  0  0  0  0
  -30.9450  -18.1270   20.0470 C   0  0  0  0  0  0  0  0  0  0  0  0
  -29.2860  -19.8510   20.2990 C   0  0  0  0  0  0  0  0  0  0  0  0
  -29.8920  -17.2430   20.2990 C   0  0  0  0  0  0  0  0  0  0  0  0
  -28.4600  -18.2930   20.5600 S   0  0  0  0  0  0  0  0  0  0  0  0
  -30.5330  -14.7510   20.0070 C   0  0  0  0  0  0  0  0  0  0  0  0
  -30.2780  -12.5020   18.9520 C   0  0  0  0  0  2  0  0  0  0  0  0
  -29.2750  -12.6200   17.7830 C   0  0  0  0  0  2  0  0  0  0  0  0
  -27.8300  -12.4430   18.2860 C   0  0  0  0  0  2  0  0  0  0  0  0
  -27.5280  -13.2950   19.5470 C   0  0  0  0  0  3  0  0  0  0  0  0
  -28.6440  -13.1600   20.6070 C   0  0  0  0  0  2  0  0  0  0  0  0
  -29.9130  -13.5230   19.9610 N   0  0  0  0  0  0  0  0  0  0  0  0
  -31.6700  -14.8720   19.5450 O   0  0  0  0  0  0  0  0  0  0  0  0
  -29.7700  -15.8390   20.4070 N   0  0  0  0  0  0  0  0  0  0  0  0
  -28.8650  -15.5390   20.7380 H   0  0  0  0  0  0  0  0  0  0  0  0
  -25.1750  -13.8700   20.3970 C   0  0  0  0  0  0  0  0  0  0  0  0
  -24.1340  -13.0880   20.8130 C   0  0  0  0  0  0  0  0  0  0  0  0
  -24.6000  -11.7390   20.7470 C   0  0  0  0  0  0  0  0  0  0  0  0
  -26.2100  -12.9970   20.1000 N   0  0  0  0  0  0  0  0  0  0  0  0
  -25.8730  -11.7100   20.3720 N   0  0  0  0  0  0  0  0  0  0  0  0
  -23.8900  -10.4720   20.9610 C   0  0  0  0  0  0  0  0  0  0  0  0
  -24.3620   -9.5050   21.8760 C   0  0  0  0  0  3  0  0  0  0  0  0
  -23.6500   -8.3030   22.0800 C   0  0  0  0  0  3  0  0  0  0  0  0
  -22.4520   -8.0590   21.3670 C   0  0  0  0  0  0  0  0  0  0  0  0
  -21.9980   -9.0140   20.4410 C   0  0  0  0  0  3  0  0  0  0  0  0
  -22.7100  -10.2070   20.2370 C   0  0  0  0  0  3  0  0  0  0  0  0
  -21.7080   -6.9090   21.4810 O   0  0  0  0  0  0  0  0  0  0  0  0
  -21.6950   -6.1720   22.6380 C   0  0  0  0  0  0  0  0  0  0  0  0
  -21.3090   -6.7320   23.8750 C   0  0  0  0  0  3  0  0  0  0  0  0
  -21.2440   -5.9200   25.0250 C   0  0  0  0  0  3  0  0  0  0  0  0
  -21.5550   -4.5510   24.9400 C   0  0  0  0  0  0  0  0  0  0  0  0
  -21.9330   -3.9900   23.7070 C   0  0  0  0  0  3  0  0  0  0  0  0
  -22.0010   -4.7970   22.5590 C   0  0  0  0  0  0  0  0  0  0  0  0
  -22.3460   -4.2480   21.3700 F   0  0  0  0  0  0  0  0  0  0  0  0
  -21.4840   -3.7690   26.0420 F   0  0  0  0  0  0  0  0  0  0  0  0
  -22.7500  -13.5560   21.1600 C   0  0  0  0  0  0  0  0  0  0  0  0
  -22.0700  -12.8500   22.0560 N   0  0  0  0  0  0  0  0  0  0  0  0
  -22.2820  -14.5840   20.6710 O   0  0  0  0  0  0  0  0  0  0  0  0
  -22.4620  -12.0190   22.4720 H   0  0  0  0  0  0  0  0  0  0  0  0
  -21.1440  -13.1460   22.3310 H   0  0  0  0  0  0  0  0  0  0  0  0
  -25.3240  -15.2430   20.2220 N   0  0  0  0  0  0  0  0  0  0  0  0
  -24.5550  -15.8870   20.3710 H   0  0  0  0  0  0  0  0  0  0  0  0
  -26.1390  -15.6890   19.8210 H   0  0  0  0  0  0  0  0  0  0  0  0
  -32.3500  -17.7610   19.9220 C   0  0  0  0  0  0  0  0  0  0  0  0
  -33.0360  -18.2200   18.6410 C   0  0  0  0  0  1  0  0  0  0  0  0
  -33.0100  -17.1530   20.7710 O   0  0  0  0  0  0  0  0  0  0  0  0
  -29.0710  -22.4730   19.9220 C   0  0  0  0  0  2  0  0  0  0  0  0
  -28.3560  -23.8160   20.4370 C   0  0  0  0  0  0  0  0  0  0  0  0
  -27.7530  -23.7930   21.5160 O   0  0  0  0  0  0  0  0  0  0  0  0
  -28.3880  -25.1610   19.5730 C   0  0  0  0  0  2  0  0  0  0  0  0
  -28.2640  -26.4820   20.2700 O   0  0  0  0  0  0  0  0  0  0  0  0
  -24.5880  -31.9380   23.2580 C   0  0  0  0  0  0  0  0  0  0  0  0
  -27.1380  -27.3260   20.1920 C   0  0  0  0  0  0  0  0  0  0  0  0
  -23.3590  -30.5470   21.6280 C   0  0  0  0  0  3  0  0  0  0  0  0
  -24.7850  -28.9740   20.1930 C   0  0  0  0  0  0  0  0  0  0  0  0
  -25.9010  -30.8350   21.4280 C   0  0  0  0  0  2  0  0  0  0  0  0
  -25.9620  -29.4510   20.7830 C   0  0  0  0  0  0  0  0  0  0  0  0
  -27.1350  -28.6360   20.7740 C   0  0  0  0  0  3  0  0  0  0  0  0
  -25.9330  -26.9040   19.5840 C   0  0  0  0  0  3  0  0  0  0  0  0
  -24.7750  -27.7080   19.5850 C   0  0  0  0  0  3  0  0  0  0  0  0
  -23.5570  -29.8640   20.2480 C   0  0  0  0  0  2  0  0  0  0  0  0
  -24.6350  -31.1250   22.1610 N   0  0  0  0  0  0  0  0  0  0  0  0
  -23.5110  -32.2260   23.7990 O   0  0  0  0  0  0  0  0  0  0  0  0
  -22.6930  -29.5410   22.5970 C   0  0  0  0  0  0  0  0  0  0  0  0
  -21.3650  -29.3710   22.4740 N   0  0  0  0  0  0  0  0  0  0  0  0
  -23.3680  -28.9160   23.4180 O   0  0  0  0  0  0  0  0  0  0  0  0
  -20.8780  -29.9260   21.7850 H   0  0  0  0  0  0  0  0  0  0  0  0
  -17.9850  -28.1820   22.9760 C   0  0  0  0  0  0  0  0  0  0  0  0
  -20.5420  -28.4430   23.2520 C   0  0  0  0  0  3  0  0  0  0  0  0
  -20.6450  -27.0060   22.6930 C   0  0  0  0  0  2  0  0  0  0  0  0
  -19.5470  -26.6720   21.6780 C   0  0  0  0  0  2  0  0  0  0  0  0
  -18.1630  -26.8250   22.3140 C   0  0  0  0  0  2  0  0  0  0  0  0
  -19.1020  -28.9480   23.4010 C   0  0  0  0  0  0  0  0  0  0  0  0
  -18.8810  -30.2170   23.9790 C   0  0  0  0  0  3  0  0  0  0  0  0
  -17.5760  -30.7200   24.1350 C   0  0  0  0  0  3  0  0  0  0  0  0
  -16.4730  -29.9510   23.7260 C   0  0  0  0  0  3  0  0  0  0  0  0
  -16.6780  -28.6840   23.1510 C   0  0  0  0  0  3  0  0  0  0  0  0
  -25.8800  -32.5610   23.8710 C   0  0  0  0  0  3  0  0  0  0  0  0
  -25.5840  -33.9610   24.2040 N   0  0  0  0  0  0  0  0  0  0  0  0
  -25.9170  -35.0140   23.4440 C   0  0  0  0  0  0  0  0  0  0  0  0
  -26.5740  -34.9070   22.4060 O   0  0  0  0  0  0  0  0  0  0  0  0
  -25.0020  -34.1190   25.0130 H   0  0  0  0  0  0  0  0  0  0  0  0
  -24.1960  -36.8200   23.1150 C   0  0  0  0  0  1  0  0  0  0  0  0
  -25.4450  -36.4060   23.9090 C   0  0  0  0  0  3  0  0  0  0  0  0
  -27.5980  -37.2730   24.7090 C   0  0  0  0  0  1  0  0  0  0  0  0
  -26.4840  -37.4520   23.7820 N   0  0  0  0  0  0  0  0  0  0  0  0
  -26.0860  -38.3740   23.9380 H   0  0  0  0  0  0  0  0  0  0  0  0
  -26.3990  -31.7860   25.1430 C   0  0  1  0  0  0  0  0  0  0  0  0
  -25.3130  -31.5590   26.2210 C   0  0  0  0  0  1  0  0  0  0  0  0
  -26.9670  -30.4030   24.7510 C   0  0  0  0  0  1  0  0  0  0  0  0
  -27.5620  -32.5700   25.7960 C   0  0  0  0  0  1  0  0  0  0  0  0
  1  2  1  0
  3  4  1  0
  3  5  2  0
  4  6  2  0
  5  1  1  0
  5  7  1  0
  6 16  1  0
  6  7  1  0
  8 16  1  0
  9 14  1  0
 10 11  1  0
 10  9  1  0
 12 11  1  0
 12 21  1  0
 12 13  1  0
 14  8  1  0
 14 13  1  0
 15  8  2  0
 16 17  1  0
 18 19  2  0
 19 38  1  0
 20 19  1  0
 20 23  1  0
 21 22  1  0
 21 18  1  0
 22 20  2  0
 23 24  1  0
 24 25  2  0
 26 29  1  0
 26 25  1  0
 27 26  2  0
 28 27  1  0
 28 23  2  0
 29 30  1  0
 30 31  1  0
 31 32  2  0
 33 32  1  0
 33 37  1  0
 34 33  2  0
 35 30  2  0
 35 34  1  0
 36 35  1  0
 38 39  1  0
 39 42  1  0
 39 41  1  0
 40 38  2  0
 43 44  1  0
 43 18  1  0
 45 43  1  0
 46  4  1  0
 46 48  2  0
 47 46  1  0
 49 50  1  0
 49  1  1  0
 50 51  2  0
 52 53  1  0
 52 50  1  0
 54 65  2  0
 55 53  1  0
 55 60  1  0
 56 64  1  0
 56 66  1  0
 57 63  1  0
 57 59  1  0
 58 64  1  0
 59 58  1  0
 60 59  2  0
 61 62  1  0
 61 55  2  0
 62 57  2  0
 63 56  1  0
 64 54  1  0
 66 68  2  0
 67 66  1  0
 69 67  1  0
 70 79  2  0
 70 75  1  0
 71 67  1  0
 71 75  1  0
 72 71  1  0
 73 74  1  0
 73 72  1  0
 74 70  1  0
 75 76  2  0
 76 77  1  0
 78 77  2  0
 79 78  1  0
 80 54  1  0
 80 81  1  0
 80 90  1  0
 81 84  1  0
 82 86  1  0
 82 81  1  0
 83 82  2  0
 86 85  1  0
 88 86  1  0
 88 89  1  0
 88 87  1  0
 90 93  1  1
 90 91  1  0
 92 90  1  0
M  ISO  4   8 100  16 100  52 101  53 101
M  END
>  <TORSDO>  (60) 
F 21

>  <SCORE>  (60) 
-13.296

>  <name>  (60) 
59

>  <ligand_id>  (60) 
59

>  <original_smiles>  (60) 
[H]c1c([H])c([H])c2c(c1[H])C([H])([H])C([H])([H])C([H])([H])C2([H])N([H])C(=O)C1([H])N(C(=O)C([H])(N([H])C(=O)C([H])(N([H])C([H])([H])[H])C([H])([H])[H])C(C([H])([H])[H])(C([H])([H])[H])C([H])([H])[H])C([H])([H])c2c([H])c(OC([H])([H])C(=O)C([H])([H])N([H])c3sc(N([H])C(=O)N4C([H])([H])C([H])([H])C([H])([H])C([H])(n5nc(-c6c([H])c([H])c(Oc7c([H])c([H])c(F)c([H])c7F)c([H])c6[H])c(C(=O)N([H])[H])c5N([H])[H])C4([H])[H])c(C(=O)C([H])([H])[H])c3[H])c([H])c([H])c2C1([H])[H]

>  <smiles>  (60) 
[H]c1c([H])c([H])c2c(c1[H])C([H])([H])C([H])([H])C([H])([H])C2([H])N([H])C(=O)C1([H])N(C(=O)C([H])(N([H])C(=O)C([H])(N([H])C([H])([H])[H])C([H])([H])[H])C(C([H])([H])[H])(C([H])([H])[H])C([H])([H])[H])C([H])([H])c2c([H])c(OC([H])([H])C(=O)C([H])([H])N([H])c3sc(N([H])C(=O)N4C([H])([H])C([H])([H])C([H])([H])C([H])(n5nc(-c6c([H])c([H])c(Oc7c([H])c([H])c(F)c([H])c7F)c([H])c6[H])c(C(=O)N([H])[H])c5N([H])[H])C4([H])[H])c(C(=O)C([H])([H])[H])c3[H])c([H])c([H])c2C1([H])[H]

$$$$
60:0:0
     RDKit          3D

 95104  0  0  1  0  0  0  0  0999 V2000
  -29.7290  -23.3850   18.3610 C   0  0  0  0  0  2  0  0  0  0  0  0
  -30.2940  -22.0730   18.9400 C   0  0  0  0  0  2  0  0  0  0  0  0
  -29.5070  -23.4690   20.7040 C   0  0  0  0  0  2  0  0  0  0  0  0
  -29.7050  -24.4240   19.4970 C   0  0  1  0  0  0  0  0  0  0  0  0
  -30.2250  -22.1770   20.4160 N   0  0  1  0  0  4  0  0  0  0  0  0
  -31.1830  -22.3110   20.7070 H   0  0  0  0  0  0  0  0  0  0  0  0
  -29.6480  -21.1890   22.6600 C   0  0  0  0  0  1  0  0  0  0  0  0
  -29.7090  -20.9510   21.1390 C   0  0  0  0  0  3  0  0  0  0  0  0
  -29.8370  -18.3750   20.6980 C   0  0  0  0  0  3  0  0  0  0  0  0
  -32.0500  -17.6760   20.9500 C   0  0  0  0  0  3  0  0  0  0  0  0
  -30.7540  -17.2650   20.7470 C   0  0  0  0  0  0  0  0  0  0  0  0
  -30.4240  -19.6160   20.8990 C   0  0  0  0  0  0  0  0  0  0  0  0
  -32.1540  -19.4220   21.0890 S   0  0  0  0  0  0  0  0  0  0  0  0
  -31.0280  -14.7770   20.3090 C   0  0  0  0  0  0  0  0  0  0  0  0
  -30.7010  -12.5850   19.2060 C   0  0  0  0  0  2  0  0  0  0  0  0
  -29.7650  -12.7630   17.9930 C   0  0  0  0  0  2  0  0  0  0  0  0
  -28.2840  -12.6610   18.4120 C   0  0  0  0  0  2  0  0  0  0  0  0
  -27.9480  -13.5080   19.6660 C   0  0  0  0  0  3  0  0  0  0  0  0
  -29.0070  -13.3170   20.7790 C   0  0  0  0  0  2  0  0  0  0  0  0
  -30.3300  -13.6060   20.2010 N   0  0  0  0  0  0  0  0  0  0  0  0
  -32.1920  -14.8720   19.9090 O   0  0  0  0  0  0  0  0  0  0  0  0
  -30.3230  -15.8810   20.6700 N   0  0  0  0  0  0  0  0  0  0  0  0
  -29.3390  -15.7120   20.8190 H   0  0  0  0  0  0  0  0  0  0  0  0
  -25.5510  -14.1340   20.3660 C   0  0  0  0  0  0  0  0  0  0  0  0
  -24.4730  -13.3740   20.7370 C   0  0  0  0  0  0  0  0  0  0  0  0
  -24.9220  -12.0180   20.7180 C   0  0  0  0  0  0  0  0  0  0  0  0
  -26.5910  -13.2450   20.1460 N   0  0  0  0  0  0  0  0  0  0  0  0
  -26.2150  -11.9670   20.4170 N   0  0  0  0  0  0  0  0  0  0  0  0
  -24.1840  -10.7640   20.9190 C   0  0  0  0  0  0  0  0  0  0  0  0
  -24.5850   -9.8190   21.8890 C   0  0  0  0  0  3  0  0  0  0  0  0
  -23.8490   -8.6300   22.0810 C   0  0  0  0  0  3  0  0  0  0  0  0
  -22.6990   -8.3720   21.2970 C   0  0  0  0  0  0  0  0  0  0  0  0
  -22.3140   -9.3070   20.3200 C   0  0  0  0  0  3  0  0  0  0  0  0
  -23.0490  -10.4890   20.1290 C   0  0  0  0  0  3  0  0  0  0  0  0
  -21.9420   -7.2290   21.3880 O   0  0  0  0  0  0  0  0  0  0  0  0
  -21.8380   -6.5310   22.5650 C   0  0  0  0  0  0  0  0  0  0  0  0
  -21.3360   -7.1290   23.7410 C   0  0  0  0  0  3  0  0  0  0  0  0
  -21.1790   -6.3570   24.9090 C   0  0  0  0  0  3  0  0  0  0  0  0
  -21.5040   -4.9870   24.8990 C   0  0  0  0  0  0  0  0  0  0  0  0
  -21.9990   -4.3890   23.7260 C   0  0  0  0  0  3  0  0  0  0  0  0
  -22.1610   -5.1590   22.5600 C   0  0  0  0  0  0  0  0  0  0  0  0
  -22.6140   -4.5720   21.4260 F   0  0  0  0  0  0  0  0  0  0  0  0
  -21.3460   -4.2430   26.0180 F   0  0  0  0  0  0  0  0  0  0  0  0
  -23.0780  -13.8700   20.9930 C   0  0  0  0  0  0  0  0  0  0  0  0
  -22.3350  -13.2000   21.8650 N   0  0  0  0  0  0  0  0  0  0  0  0
  -22.6520  -14.8900   20.4490 O   0  0  0  0  0  0  0  0  0  0  0  0
  -22.6860  -12.3740   22.3260 H   0  0  0  0  0  0  0  0  0  0  0  0
  -21.4000  -13.5200   22.0810 H   0  0  0  0  0  0  0  0  0  0  0  0
  -25.7260  -15.5030   20.1760 N   0  0  0  0  0  0  0  0  0  0  0  0
  -24.9560  -16.1560   20.2730 H   0  0  0  0  0  0  0  0  0  0  0  0
  -26.5490  -15.9190   19.7570 H   0  0  0  0  0  0  0  0  0  0  0  0
  -31.2400  -26.1040   20.3650 C   0  0  0  0  0  1  0  0  0  0  0  0
  -31.0320  -24.9640   19.5330 O   0  0  0  0  0  0  0  0  0  0  0  0
  -28.5650  -25.4920   19.2250 C   0  0  0  0  0  2  0  0  0  0  0  0
  -28.4500  -26.6970   20.0430 O   0  0  0  0  0  0  0  0  0  0  0  0
  -24.6350  -31.8820   23.2170 C   0  0  0  0  0  0  0  0  0  0  0  0
  -27.2790  -27.4570   20.0280 C   0  0  0  0  0  0  0  0  0  0  0  0
  -23.4290  -30.5030   21.5600 C   0  0  0  0  0  3  0  0  0  0  0  0
  -24.8840  -29.0010   20.0980 C   0  0  0  0  0  0  0  0  0  0  0  0
  -25.9600  -30.8590   21.3630 C   0  0  0  0  0  2  0  0  0  0  0  0
  -26.0470  -29.4960   20.6970 C   0  0  0  0  0  0  0  0  0  0  0  0
  -27.2410  -28.7270   20.6680 C   0  0  0  0  0  3  0  0  0  0  0  0
  -26.0840  -27.0010   19.4190 C   0  0  0  0  0  3  0  0  0  0  0  0
  -24.8980  -27.7530   19.4620 C   0  0  0  0  0  3  0  0  0  0  0  0
  -23.6380  -29.8580   20.1660 C   0  0  0  0  0  2  0  0  0  0  0  0
  -24.6940  -31.0960   22.1040 N   0  0  0  0  0  0  0  0  0  0  0  0
  -23.5520  -32.1390   23.7630 O   0  0  0  0  0  0  0  0  0  0  0  0
  -22.7900  -29.4580   22.5030 C   0  0  0  0  0  0  0  0  0  0  0  0
  -21.4680  -29.2590   22.3700 N   0  0  0  0  0  0  0  0  0  0  0  0
  -23.4810  -28.8320   23.3110 O   0  0  0  0  0  0  0  0  0  0  0  0
  -20.9710  -29.8230   21.6940 H   0  0  0  0  0  0  0  0  0  0  0  0
  -18.1110  -27.9970   22.8350 C   0  0  0  0  0  0  0  0  0  0  0  0
  -20.6610  -28.3010   23.1280 C   0  0  0  0  0  3  0  0  0  0  0  0
  -20.7940  -26.8760   22.5420 C   0  0  0  0  0  2  0  0  0  0  0  0
  -19.7050  -26.5400   21.5180 C   0  0  0  0  0  2  0  0  0  0  0  0
  -18.3160  -26.6560   22.1520 C   0  0  0  0  0  2  0  0  0  0  0  0
  -19.2110  -28.7770   23.2800 C   0  0  0  0  0  0  0  0  0  0  0  0
  -18.9660  -30.0300   23.8780 C   0  0  0  0  0  3  0  0  0  0  0  0
  -17.6510  -30.5070   24.0370 C   0  0  0  0  0  3  0  0  0  0  0  0
  -16.5640  -29.7250   23.6080 C   0  0  0  0  0  3  0  0  0  0  0  0
  -16.7940  -28.4710   23.0140 C   0  0  0  0  0  3  0  0  0  0  0  0
  -25.9170  -32.5140   23.8420 C   0  0  0  0  0  3  0  0  0  0  0  0
  -26.4430  -31.7320   25.1070 C   0  0  1  0  0  0  0  0  0  0  0  0
  -25.3580  -31.4780   26.1780 C   0  0  0  0  0  1  0  0  0  0  0  0
  -27.0320  -30.3610   24.6980 C   0  0  0  0  0  1  0  0  0  0  0  0
  -27.5910  -32.5270   25.7750 C   0  0  0  0  0  1  0  0  0  0  0  0
  -25.6000  -33.9060   24.1860 N   0  0  0  0  0  0  0  0  0  0  0  0
  -25.9200  -34.9680   23.4340 C   0  0  0  0  0  0  0  0  0  0  0  0
  -26.5850  -34.8780   22.3980 O   0  0  0  0  0  0  0  0  0  0  0  0
  -25.0150  -34.0500   24.9960 H   0  0  0  0  0  0  0  0  0  0  0  0
  -24.1810  -36.7560   23.0990 C   0  0  0  0  0  1  0  0  0  0  0  0
  -25.4240  -36.3480   23.9060 C   0  0  0  0  0  3  0  0  0  0  0  0
  -27.5530  -37.2370   24.7490 C   0  0  0  0  0  1  0  0  0  0  0  0
  -26.4520  -37.4080   23.8060 N   0  0  0  0  0  0  0  0  0  0  0  0
  -26.0390  -38.3240   23.9570 H   0  0  0  0  0  0  0  0  0  0  0  0
  1  2  1  0
  1  4  1  0
  2  5  1  0
  4 54  1  6
  4 53  1  0
  4  3  1  0
  5  3  1  0
  5  6  1  1
  5  8  1  0
  8  7  1  0
  9 11  1  0
  9 12  2  0
 10 13  1  0
 11 10  2  0
 12 13  1  0
 12  8  1  0
 14 22  1  0
 15 20  1  0
 16 17  1  0
 16 15  1  0
 18 17  1  0
 18 27  1  0
 18 19  1  0
 20 14  1  0
 20 19  1  0
 21 14  2  0
 22 11  1  0
 22 23  1  0
 24 25  2  0
 25 44  1  0
 26 25  1  0
 26 29  1  0
 27 24  1  0
 27 28  1  0
 28 26  2  0
 29 30  1  0
 30 31  2  0
 32 35  1  0
 32 31  1  0
 33 32  2  0
 34 33  1  0
 34 29  2  0
 35 36  1  0
 36 37  1  0
 37 38  2  0
 39 38  1  0
 39 43  1  0
 40 39  2  0
 41 36  2  0
 41 40  1  0
 42 41  1  0
 44 45  1  0
 45 48  1  0
 45 47  1  0
 46 44  2  0
 49 50  1  0
 49 24  1  0
 51 49  1  0
 53 52  1  0
 54 55  1  0
 56 67  2  0
 57 55  1  0
 57 62  1  0
 58 66  1  0
 58 68  1  0
 59 65  1  0
 59 61  1  0
 60 66  1  0
 61 60  1  0
 62 61  2  0
 63 64  1  0
 63 57  2  0
 64 59  2  0
 65 58  1  0
 66 56  1  0
 68 70  2  0
 69 68  1  0
 71 69  1  0
 72 81  2  0
 72 77  1  0
 73 69  1  0
 73 77  1  0
 74 73  1  0
 75 76  1  0
 75 74  1  0
 76 72  1  0
 77 78  2  0
 78 79  1  0
 80 79  2  0
 81 80  1  0
 82 56  1  0
 82 87  1  0
 82 83  1  0
 83 86  1  1
 83 84  1  0
 85 83  1  0
 87 90  1  0
 88 92  1  0
 88 87  1  0
 89 88  2  0
 92 91  1  0
 94 92  1  0
 94 95  1  0
 94 93  1  0
M  ISO  4  14 100  22 100  54 101  55 101
M  END
>  <TORSDO>  (61) 
F 20

>  <SCORE>  (61) 
-13.703

>  <name>  (61) 
60

>  <ligand_id>  (61) 
60

>  <original_smiles>  (61) 
[H]c1sc(C([H])(C([H])([H])[H])[N+]2([H])C([H])([H])C([H])([H])C(OC([H])([H])[H])(C([H])([H])Oc3c([H])c([H])c4c(c3[H])C([H])([H])N(C(=O)C([H])(N([H])C(=O)C([H])(N([H])C([H])([H])[H])C([H])([H])[H])C(C([H])([H])[H])(C([H])([H])[H])C([H])([H])[H])C([H])(C(=O)N([H])C3([H])c5c([H])c([H])c([H])c([H])c5C([H])([H])C([H])([H])C3([H])[H])C4([H])[H])C2([H])[H])c([H])c1N([H])C(=O)N1C([H])([H])C([H])([H])C([H])([H])C([H])(n2nc(-c3c([H])c([H])c(Oc4c([H])c([H])c(F)c([H])c4F)c([H])c3[H])c(C(=O)N([H])[H])c2N([H])[H])C1([H])[H]

>  <smiles>  (61) 
[H]c1sc(C([H])(C([H])([H])[H])[N+]2([H])C([H])([H])C([H])([H])C(OC([H])([H])[H])(C([H])([H])Oc3c([H])c([H])c4c(c3[H])C([H])([H])N(C(=O)C([H])(N([H])C(=O)C([H])(N([H])C([H])([H])[H])C([H])([H])[H])C(C([H])([H])[H])(C([H])([H])[H])C([H])([H])[H])C([H])(C(=O)N([H])C3([H])c5c([H])c([H])c([H])c([H])c5C([H])([H])C([H])([H])C3([H])[H])C4([H])[H])C2([H])[H])c([H])c1N([H])C(=O)N1C([H])([H])C([H])([H])C([H])([H])C([H])(n2nc(-c3c([H])c([H])c(Oc4c([H])c([H])c(F)c([H])c4F)c([H])c3[H])c(C(=O)N([H])[H])c2N([H])[H])C1([H])[H]

$$$$
61:0:0
     RDKit          3D

 91 99  0  0  1  0  0  0  0  0999 V2000
  -28.7200  -23.1920   20.6690 C   0  0  0  0  0  3  0  0  0  0  0  0
  -28.1960  -23.3990   19.2580 C   0  0  0  0  0  1  0  0  0  0  0  0
  -29.2110  -22.0640   21.0980 N   0  0  0  0  0  2  0  0  0  0  0  0
  -27.1380  -19.2440   19.7920 C   0  0  0  0  0  3  0  0  0  0  0  0
  -28.0370  -18.1640   19.8000 C   0  0  0  0  0  3  0  0  0  0  0  0
  -27.5640  -20.5300   20.1590 C   0  0  0  0  0  3  0  0  0  0  0  0
  -29.8040  -19.6580   20.5430 C   0  0  0  0  0  3  0  0  0  0  0  0
  -29.3970  -18.3310   20.1570 C   0  0  0  0  0  0  0  0  0  0  0  0
  -28.9010  -20.7790   20.5480 C   0  0  0  0  0  0  0  0  0  0  0  0
  -30.3200  -17.1260   20.1040 C   0  0  0  0  0  3  0  0  0  0  0  0
  -29.9560  -15.8040   20.2000 C   0  0  0  0  0  3  0  0  0  0  0  0
  -30.8570  -14.6350   19.9910 C   0  0  0  0  0  0  0  0  0  0  0  0
  -30.6930  -12.2970   19.1580 C   0  0  0  0  0  2  0  0  0  0  0  0
  -29.7440  -12.2870   17.9370 C   0  0  0  0  0  2  0  0  0  0  0  0
  -28.2700  -12.1490   18.3760 C   0  0  0  0  0  2  0  0  0  0  0  0
  -27.9000  -13.1260   19.5240 C   0  0  0  0  0  3  0  0  0  0  0  0
  -28.9610  -13.0730   20.6460 C   0  0  0  0  0  2  0  0  0  0  0  0
  -30.2660  -13.3960   20.0480 N   0  0  0  0  0  0  0  0  0  0  0  0
  -32.0220  -14.7540   19.5960 O   0  0  0  0  0  0  0  0  0  0  0  0
  -25.5300  -13.7900   20.2740 C   0  0  0  0  0  0  0  0  0  0  0  0
  -24.4550  -13.0450   20.6780 C   0  0  0  0  0  0  0  0  0  0  0  0
  -24.8870  -11.6840   20.6520 C   0  0  0  0  0  0  0  0  0  0  0  0
  -26.5520  -12.8840   20.0340 N   0  0  0  0  0  0  0  0  0  0  0  0
  -26.1700  -11.6140   20.3170 N   0  0  0  0  0  0  0  0  0  0  0  0
  -24.1390  -10.4390   20.8660 C   0  0  0  0  0  0  0  0  0  0  0  0
  -24.5660   -9.4720   21.8030 C   0  0  0  0  0  3  0  0  0  0  0  0
  -23.8190   -8.2920   22.0060 C   0  0  0  0  0  3  0  0  0  0  0  0
  -22.6300   -8.0700   21.2710 C   0  0  0  0  0  0  0  0  0  0  0  0
  -22.2200   -9.0260   20.3260 C   0  0  0  0  0  3  0  0  0  0  0  0
  -22.9680  -10.1970   20.1210 C   0  0  0  0  0  3  0  0  0  0  0  0
  -21.8540   -6.9410   21.3840 O   0  0  0  0  0  0  0  0  0  0  0  0
  -21.7980   -6.2190   22.5490 C   0  0  0  0  0  0  0  0  0  0  0  0
  -21.4000   -6.8060   23.7700 C   0  0  0  0  0  3  0  0  0  0  0  0
  -21.2910   -6.0110   24.9280 C   0  0  0  0  0  3  0  0  0  0  0  0
  -21.5690   -4.6330   24.8660 C   0  0  0  0  0  0  0  0  0  0  0  0
  -21.9590   -4.0470   23.6490 C   0  0  0  0  0  3  0  0  0  0  0  0
  -22.0710   -4.8380   22.4940 C   0  0  0  0  0  0  0  0  0  0  0  0
  -22.4280   -4.2640   21.3190 F   0  0  0  0  0  0  0  0  0  0  0  0
  -21.4540   -3.8680   25.9780 F   0  0  0  0  0  0  0  0  0  0  0  0
  -23.0730  -13.5560   20.9730 C   0  0  0  0  0  0  0  0  0  0  0  0
  -22.3530  -12.8910   21.8690 N   0  0  0  0  0  0  0  0  0  0  0  0
  -22.6430  -14.5790   20.4430 O   0  0  0  0  0  0  0  0  0  0  0  0
  -22.7130  -12.0620   22.3190 H   0  0  0  0  0  0  0  0  0  0  0  0
  -21.4280  -13.2170   22.1100 H   0  0  0  0  0  0  0  0  0  0  0  0
  -25.7150  -15.1520   20.0660 N   0  0  0  0  0  0  0  0  0  0  0  0
  -24.9460  -15.8100   20.1380 H   0  0  0  0  0  0  0  0  0  0  0  0
  -26.5360  -15.5460   19.6310 H   0  0  0  0  0  0  0  0  0  0  0  0
  -26.9350  -24.4080   22.0130 C   0  0  0  0  0  1  0  0  0  0  0  0
  -28.4280  -24.3870   21.6450 C   0  0  0  0  0  3  0  0  0  0  0  0
  -28.9680  -25.8530   21.3790 C   0  0  0  0  0  2  0  0  0  0  0  0
  -28.4930  -26.6550   20.2700 O   0  0  0  0  0  0  0  0  0  0  0  0
  -24.6050  -31.9340   23.3430 C   0  0  0  0  0  0  0  0  0  0  0  0
  -27.3550  -27.4450   20.3740 C   0  0  0  0  0  0  0  0  0  0  0  0
  -23.4540  -30.5210   21.6710 C   0  0  0  0  0  3  0  0  0  0  0  0
  -24.9610  -28.9770   20.3010 C   0  0  0  0  0  0  0  0  0  0  0  0
  -25.9890  -30.8770   21.5520 C   0  0  0  0  0  2  0  0  0  0  0  0
  -26.1020  -29.4940   20.9320 C   0  0  0  0  0  0  0  0  0  0  0  0
  -27.3050  -28.7330   20.9720 C   0  0  0  0  0  3  0  0  0  0  0  0
  -26.2030  -26.9670   19.7210 C   0  0  0  0  0  3  0  0  0  0  0  0
  -25.0090  -27.7130   19.6910 C   0  0  0  0  0  3  0  0  0  0  0  0
  -23.7130  -29.8360   20.3030 C   0  0  0  0  0  2  0  0  0  0  0  0
  -24.6980  -31.1290   22.2450 N   0  0  0  0  0  0  0  0  0  0  0  0
  -23.5070  -32.2000   23.8530 O   0  0  0  0  0  0  0  0  0  0  0  0
  -22.7770  -29.5010   22.6190 C   0  0  0  0  0  0  0  0  0  0  0  0
  -21.4520  -29.3300   22.4710 N   0  0  0  0  0  0  0  0  0  0  0  0
  -23.4420  -28.8700   23.4420 O   0  0  0  0  0  0  0  0  0  0  0  0
  -20.9750  -29.8990   21.7850 H   0  0  0  0  0  0  0  0  0  0  0  0
  -18.0630  -28.1650   22.9370 C   0  0  0  0  0  0  0  0  0  0  0  0
  -20.6210  -28.3910   23.2240 C   0  0  0  0  0  3  0  0  0  0  0  0
  -20.7080  -26.9670   22.6280 C   0  0  0  0  0  2  0  0  0  0  0  0
  -19.6110  -26.6720   21.6000 C   0  0  0  0  0  2  0  0  0  0  0  0
  -18.2300  -26.8220   22.2430 C   0  0  0  0  0  2  0  0  0  0  0  0
  -19.1870  -28.9100   23.3830 C   0  0  0  0  0  0  0  0  0  0  0  0
  -18.9810  -30.1680   23.9890 C   0  0  0  0  0  3  0  0  0  0  0  0
  -17.6810  -30.6830   24.1490 C   0  0  0  0  0  3  0  0  0  0  0  0
  -16.5710  -29.9350   23.7220 C   0  0  0  0  0  3  0  0  0  0  0  0
  -16.7630  -28.6780   23.1210 C   0  0  0  0  0  3  0  0  0  0  0  0
  -25.8680  -32.5750   23.9960 C   0  0  0  0  0  3  0  0  0  0  0  0
  -26.3340  -31.8320   25.3080 C   0  0  1  0  0  0  0  0  0  0  0  0
  -25.2010  -31.6170   26.3370 C   0  0  0  0  0  1  0  0  0  0  0  0
  -26.9330  -30.4480   24.9670 C   0  0  0  0  0  1  0  0  0  0  0  0
  -27.4590  -32.6400   25.9970 C   0  0  0  0  0  1  0  0  0  0  0  0
  -25.5550  -33.9810   24.2820 N   0  0  0  0  0  0  0  0  0  0  0  0
  -25.9180  -35.0140   23.5080 C   0  0  0  0  0  0  0  0  0  0  0  0
  -26.6220  -34.8810   22.5030 O   0  0  0  0  0  0  0  0  0  0  0  0
  -24.9320  -34.1570   25.0560 H   0  0  0  0  0  0  0  0  0  0  0  0
  -24.2110  -36.8030   23.0510 C   0  0  0  0  0  1  0  0  0  0  0  0
  -25.4230  -36.4160   23.9130 C   0  0  0  0  0  3  0  0  0  0  0  0
  -27.5360  -37.3120   24.7880 C   0  0  0  0  0  1  0  0  0  0  0  0
  -26.4640  -37.4610   23.8060 N   0  0  0  0  0  0  0  0  0  0  0  0
  -26.0590  -38.3870   23.9130 H   0  0  0  0  0  0  0  0  0  0  0  0
  1  2  1  0
  1  3  1  0
  1 49  1  0
  4  5  2  0
  4  6  1  0
  5  8  1  0
  6  9  2  0
  7  9  1  0
  8  7  2  0
  9  3  1  0
 10  8  1  0
 10 11  2  0
 12 18  1  0
 12 11  1  0
 13 18  1  0
 14 15  1  0
 14 13  1  0
 16 15  1  0
 16 23  1  0
 16 17  1  0
 18 17  1  0
 19 12  2  0
 20 21  2  0
 21 40  1  0
 22 21  1  0
 22 25  1  0
 23 20  1  0
 23 24  1  0
 24 22  2  0
 25 26  1  0
 26 27  2  0
 28 31  1  0
 28 27  1  0
 29 28  2  0
 30 29  1  0
 30 25  2  0
 31 32  1  0
 32 33  1  0
 33 34  2  0
 35 34  1  0
 35 39  1  0
 36 35  2  0
 37 32  2  0
 37 36  1  0
 38 37  1  0
 40 41  1  0
 41 44  1  0
 41 43  1  0
 42 40  2  0
 45 46  1  0
 45 20  1  0
 47 45  1  0
 49 48  1  0
 50 49  1  0
 51 53  1  0
 51 50  1  0
 52 63  2  0
 53 58  1  0
 54 62  1  0
 54 64  1  0
 55 61  1  0
 55 57  1  0
 56 62  1  0
 57 58  2  0
 57 56  1  0
 59 53  2  0
 60 59  1  0
 60 55  2  0
 61 54  1  0
 62 52  1  0
 64 66  2  0
 65 64  1  0
 67 65  1  0
 68 77  2  0
 68 73  1  0
 69 65  1  0
 69 73  1  0
 70 69  1  0
 71 72  1  0
 71 70  1  0
 72 68  1  0
 73 74  2  0
 74 75  1  0
 76 75  2  0
 77 76  1  0
 78 52  1  0
 78 83  1  0
 78 79  1  0
 79 82  1  1
 79 80  1  0
 81 79  1  0
 83 86  1  0
 84 88  1  0
 84 83  1  0
 85 84  2  0
 88 87  1  0
 90 91  1  0
 90 88  1  0
 90 89  1  0
M  ISO  4  11 100  12 100  50 101  51 101
M  END
>  <TORSDO>  (62) 
F 20

>  <SCORE>  (62) 
-13.359

>  <name>  (62) 
61

>  <ligand_id>  (62) 
61

>  <original_smiles>  (62) 
[H]C(C(=O)N1C([H])([H])C([H])([H])C([H])([H])C([H])(n2nc(-c3c([H])c([H])c(Oc4c([H])c([H])c(F)c([H])c4F)c([H])c3[H])c(C(=O)N([H])[H])c2N([H])[H])C1([H])[H])=C([H])c1c([H])c([H])c([H])c(N=C(C([H])([H])[H])C([H])(C([H])([H])[H])C([H])([H])Oc2c([H])c([H])c3c(c2[H])C([H])([H])N(C(=O)C([H])(N([H])C(=O)C([H])(N([H])C([H])([H])[H])C([H])([H])[H])C(C([H])([H])[H])(C([H])([H])[H])C([H])([H])[H])C([H])(C(=O)N([H])C2([H])c4c([H])c([H])c([H])c([H])c4C([H])([H])C([H])([H])C2([H])[H])C3([H])[H])c1[H]

>  <smiles>  (62) 
[H]C(C(=O)N1C([H])([H])C([H])([H])C([H])([H])C([H])(n2nc(-c3c([H])c([H])c(Oc4c([H])c([H])c(F)c([H])c4F)c([H])c3[H])c(C(=O)N([H])[H])c2N([H])[H])C1([H])[H])=C([H])c1c([H])c([H])c([H])c(N=C(C([H])([H])[H])C([H])(C([H])([H])[H])C([H])([H])Oc2c([H])c([H])c3c(c2[H])C([H])([H])N(C(=O)C([H])(N([H])C(=O)C([H])(N([H])C([H])([H])[H])C([H])([H])[H])C(C([H])([H])[H])(C([H])([H])[H])C([H])([H])[H])C([H])(C(=O)N([H])C2([H])c4c([H])c([H])c([H])c([H])c4C([H])([H])C([H])([H])C2([H])[H])C3([H])[H])c1[H]

$$$$
62:0:0
     RDKit          3D

 98106  0  0  1  0  0  0  0  0999 V2000
  -29.1050  -22.6470   19.3510 C   0  0  0  0  0  0  0  0  0  0  0  0
  -29.3080  -21.2720   19.3230 N   0  0  0  0  0  0  0  0  0  0  0  0
  -28.8460  -23.1260   18.2470 O   0  0  0  0  0  0  0  0  0  0  0  0
  -29.0390  -20.9660   18.3980 H   0  0  0  0  0  0  0  0  0  0  0  0
  -30.2950  -19.9400   21.3060 C   0  0  0  0  0  3  0  0  0  0  0  0
  -29.7980  -20.0800   20.0370 C   0  0  0  0  0  0  0  0  0  0  0  0
  -29.7360  -18.7870   19.3540 C   0  0  0  0  0  0  0  0  0  0  0  0
  -30.0720  -17.6410   20.1060 C   0  0  0  0  0  0  0  0  0  0  0  0
  -30.6160  -18.2210   21.6790 S   0  0  0  0  0  0  0  0  0  0  0  0
  -29.8080  -16.1640   19.7600 C   0  0  0  0  0  0  0  0  0  0  0  0
  -28.9020  -15.9960   18.8950 N   0  0  0  0  0  0  0  0  0  0  0  0
  -28.5040  -16.8950   18.6410 H   0  0  0  0  0  0  0  0  0  0  0  0
  -30.6450  -14.8620   20.2290 C   0  0  0  0  0  0  0  0  0  0  0  0
  -30.4300  -12.5480   19.2930 C   0  0  0  0  0  2  0  0  0  0  0  0
  -29.4710  -12.5760   18.0810 C   0  0  0  0  0  2  0  0  0  0  0  0
  -28.0080  -12.3860   18.5320 C   0  0  0  0  0  2  0  0  0  0  0  0
  -27.6300  -13.2780   19.7410 C   0  0  0  0  0  3  0  0  0  0  0  0
  -28.7180  -13.2870   20.8360 C   0  0  0  0  0  2  0  0  0  0  0  0
  -30.0050  -13.6310   20.2070 N   0  0  0  0  0  0  0  0  0  0  0  0
  -31.8750  -14.9120   20.1300 O   0  0  0  0  0  0  0  0  0  0  0  0
  -25.2720  -13.9030   20.5160 C   0  0  0  0  0  0  0  0  0  0  0  0
  -24.2010  -13.1400   20.8890 C   0  0  0  0  0  0  0  0  0  0  0  0
  -24.6530  -11.7840   20.8470 C   0  0  0  0  0  0  0  0  0  0  0  0
  -26.3010  -13.0080   20.2630 N   0  0  0  0  0  0  0  0  0  0  0  0
  -25.9390  -11.7320   20.5310 N   0  0  0  0  0  0  0  0  0  0  0  0
  -23.9230  -10.5280   21.0330 C   0  0  0  0  0  0  0  0  0  0  0  0
  -24.3460   -9.5630   21.9730 C   0  0  0  0  0  3  0  0  0  0  0  0
  -23.6200   -8.3660   22.1440 C   0  0  0  0  0  3  0  0  0  0  0  0
  -22.4550   -8.1280   21.3770 C   0  0  0  0  0  0  0  0  0  0  0  0
  -22.0500   -9.0830   20.4250 C   0  0  0  0  0  3  0  0  0  0  0  0
  -22.7790  -10.2710   20.2510 C   0  0  0  0  0  3  0  0  0  0  0  0
  -21.6990   -6.9850   21.4590 O   0  0  0  0  0  0  0  0  0  0  0  0
  -21.6190   -6.2580   22.6210 C   0  0  0  0  0  0  0  0  0  0  0  0
  -21.1220   -6.8190   23.8170 C   0  0  0  0  0  3  0  0  0  0  0  0
  -20.9920   -6.0190   24.9690 C   0  0  0  0  0  3  0  0  0  0  0  0
  -21.3520   -4.6570   24.9230 C   0  0  0  0  0  0  0  0  0  0  0  0
  -21.8400   -4.0960   23.7310 C   0  0  0  0  0  3  0  0  0  0  0  0
  -21.9710   -4.8940   22.5820 C   0  0  0  0  0  0  0  0  0  0  0  0
  -22.4250   -4.3460   21.4290 F   0  0  0  0  0  0  0  0  0  0  0  0
  -21.2200   -3.8850   26.0260 F   0  0  0  0  0  0  0  0  0  0  0  0
  -22.8100  -13.6240   21.1710 C   0  0  0  0  0  0  0  0  0  0  0  0
  -22.0820  -12.9250   22.0340 N   0  0  0  0  0  0  0  0  0  0  0  0
  -22.3770  -14.6590   20.6640 O   0  0  0  0  0  0  0  0  0  0  0  0
  -22.4420  -12.0850   22.4650 H   0  0  0  0  0  0  0  0  0  0  0  0
  -21.1500  -13.2370   22.2680 H   0  0  0  0  0  0  0  0  0  0  0  0
  -25.4470  -15.2750   20.3420 N   0  0  0  0  0  0  0  0  0  0  0  0
  -24.6950  -15.9440   20.4640 H   0  0  0  0  0  0  0  0  0  0  0  0
  -26.2950  -15.6940   19.9810 H   0  0  0  0  0  0  0  0  0  0  0  0
  -29.3060  -18.7990   18.0120 N   0  0  0  0  0  0  0  0  0  0  0  0
  -29.6480  -19.5770   17.4590 H   0  0  0  0  0  0  0  0  0  0  0  0
  -29.4620  -17.9310   17.5090 H   0  0  0  0  0  0  0  0  0  0  0  0
  -29.1970  -23.7400   20.4960 C   0  0  0  0  0  3  0  0  0  0  0  0
  -30.5360  -24.3580   20.4290 N   0  0  0  0  0  4  0  0  0  0  0  0
  -30.6500  -24.8100   19.5370 H   0  0  0  0  0  0  0  0  0  0  0  0
  -31.2530  -23.6600   20.5200 H   0  0  0  0  0  0  0  0  0  0  0  0
  -30.6510  -25.0450   21.1510 H   0  0  0  0  0  0  0  0  0  0  0  0
  -28.0760  -24.9250   20.4420 C   0  0  0  0  0  2  0  0  0  0  0  0
  -28.3650  -26.4030   20.2990 O   0  0  0  0  0  0  0  0  0  0  0  0
  -24.5530  -31.8740   23.2050 C   0  0  0  0  0  0  0  0  0  0  0  0
  -27.2610  -27.2920   20.2150 C   0  0  0  0  0  0  0  0  0  0  0  0
  -23.3940  -30.4620   21.5470 C   0  0  0  0  0  3  0  0  0  0  0  0
  -24.8870  -28.9230   20.1510 C   0  0  0  0  0  0  0  0  0  0  0  0
  -25.9410  -30.7920   21.4160 C   0  0  0  0  0  2  0  0  0  0  0  0
  -26.0460  -29.4100   20.7710 C   0  0  0  0  0  0  0  0  0  0  0  0
  -27.2370  -28.6110   20.7860 C   0  0  0  0  0  3  0  0  0  0  0  0
  -26.0780  -26.8850   19.5520 C   0  0  0  0  0  3  0  0  0  0  0  0
  -24.9100  -27.6700   19.5270 C   0  0  0  0  0  3  0  0  0  0  0  0
  -23.6440  -29.7900   20.1720 C   0  0  0  0  0  2  0  0  0  0  0  0
  -24.6470  -31.0630   22.1110 N   0  0  0  0  0  0  0  0  0  0  0  0
  -23.4560  -32.1430   23.7170 O   0  0  0  0  0  0  0  0  0  0  0  0
  -22.7190  -29.4440   22.4950 C   0  0  0  0  0  0  0  0  0  0  0  0
  -21.3950  -29.2650   22.3500 N   0  0  0  0  0  0  0  0  0  0  0  0
  -23.3890  -28.8150   23.3190 O   0  0  0  0  0  0  0  0  0  0  0  0
  -20.9120  -29.8260   21.6620 H   0  0  0  0  0  0  0  0  0  0  0  0
  -18.0080  -28.0830   22.8350 C   0  0  0  0  0  0  0  0  0  0  0  0
  -20.5680  -28.3250   23.1090 C   0  0  0  0  0  3  0  0  0  0  0  0
  -20.6600  -26.8980   22.5190 C   0  0  0  0  0  2  0  0  0  0  0  0
  -19.5580  -26.5950   21.4980 C   0  0  0  0  0  2  0  0  0  0  0  0
  -18.1760  -26.7410   22.1420 C   0  0  0  0  0  2  0  0  0  0  0  0
  -19.1320  -28.8340   23.2750 C   0  0  0  0  0  0  0  0  0  0  0  0
  -18.9190  -30.0910   23.8810 C   0  0  0  0  0  3  0  0  0  0  0  0
  -17.6170  -30.5990   24.0510 C   0  0  0  0  0  3  0  0  0  0  0  0
  -16.5080  -29.8460   23.6260 C   0  0  0  0  0  3  0  0  0  0  0  0
  -16.7050  -28.5900   23.0250 C   0  0  0  0  0  3  0  0  0  0  0  0
  -25.8160  -32.5200   23.8530 C   0  0  0  0  0  3  0  0  0  0  0  0
  -25.4880  -33.9180   24.1720 N   0  0  0  0  0  0  0  0  0  0  0  0
  -25.8250  -34.9710   23.4150 C   0  0  0  0  0  0  0  0  0  0  0  0
  -26.5110  -34.8670   22.3950 O   0  0  0  0  0  0  0  0  0  0  0  0
  -24.8810  -34.0730   24.9630 H   0  0  0  0  0  0  0  0  0  0  0  0
  -24.0940  -36.7520   23.0220 C   0  0  0  0  0  1  0  0  0  0  0  0
  -25.3180  -36.3550   23.8600 C   0  0  0  0  0  3  0  0  0  0  0  0
  -27.4230  -37.2580   24.7450 C   0  0  0  0  0  1  0  0  0  0  0  0
  -26.3480  -37.4140   23.7700 N   0  0  0  0  0  0  0  0  0  0  0  0
  -25.9320  -38.3330   23.9000 H   0  0  0  0  0  0  0  0  0  0  0  0
  -26.3120  -31.7580   25.1440 C   0  0  1  0  0  0  0  0  0  0  0  0
  -25.1980  -31.5140   26.1860 C   0  0  0  0  0  1  0  0  0  0  0  0
  -26.9140  -30.3830   24.7730 C   0  0  0  0  0  1  0  0  0  0  0  0
  -27.4400  -32.5650   25.8290 C   0  0  0  0  0  1  0  0  0  0  0  0
  1 52  1  0
  2  1  1  0
  2  6  1  0
  3  1  2  0
  4  2  1  0
  5  9  1  0
  6  5  2  0
  7  6  1  0
  7  8  2  0
  8  9  1  0
 10  8  1  0
 10 13  1  0
 11 10  2  0
 12 11  1  0
 14 19  1  0
 15 16  1  0
 15 14  1  0
 17 16  1  0
 17 24  1  0
 17 18  1  0
 19 13  1  0
 19 18  1  0
 20 13  2  0
 21 22  2  0
 22 41  1  0
 23 22  1  0
 23 26  1  0
 24 21  1  0
 24 25  1  0
 25 23  2  0
 26 27  1  0
 27 28  2  0
 29 32  1  0
 29 28  1  0
 30 29  2  0
 31 30  1  0
 31 26  2  0
 32 33  1  0
 33 34  1  0
 34 35  2  0
 36 35  1  0
 36 40  1  0
 37 36  2  0
 38 33  2  0
 38 37  1  0
 39 38  1  0
 41 42  1  0
 42 45  1  0
 42 44  1  0
 43 41  2  0
 46 47  1  0
 46 21  1  0
 48 46  1  0
 49  7  1  0
 50 49  1  0
 51 49  1  0
 52 57  1  0
 53 52  1  0
 53 55  1  0
 53 56  1  0
 54 53  1  0
 58 57  1  0
 59 70  2  0
 60 58  1  0
 60 65  1  0
 61 69  1  0
 61 71  1  0
 62 68  1  0
 62 64  1  0
 63 69  1  0
 64 65  2  0
 64 63  1  0
 66 60  2  0
 67 66  1  0
 67 62  2  0
 68 61  1  0
 69 59  1  0
 71 73  2  0
 72 71  1  0
 74 72  1  0
 75 84  2  0
 75 80  1  0
 76 72  1  0
 76 80  1  0
 77 76  1  0
 78 79  1  0
 78 77  1  0
 79 75  1  0
 80 81  2  0
 81 82  1  0
 83 82  2  0
 84 83  1  0
 85 59  1  0
 85 86  1  0
 85 95  1  0
 86 89  1  0
 87 91  1  0
 87 86  1  0
 88 87  2  0
 91 90  1  0
 93 91  1  0
 93 94  1  0
 93 92  1  0
 95 98  1  1
 95 96  1  0
 97 95  1  0
M  ISO  4  10 100  13 100  57 101  58 101
M  END
>  <TORSDO>  (63) 
F 22

>  <SCORE>  (63) 
-13.688

>  <name>  (63) 
62

>  <ligand_id>  (63) 
62

>  <original_smiles>  (63) 
[H]N=C(C(=O)N1C([H])([H])C([H])([H])C([H])([H])C([H])(n2nc(-c3c([H])c([H])c(Oc4c([H])c([H])c(F)c([H])c4F)c([H])c3[H])c(C(=O)N([H])[H])c2N([H])[H])C1([H])[H])c1sc([H])c(N([H])C(=O)C([H])(C([H])([H])Oc2c([H])c([H])c3c(c2[H])C([H])([H])N(C(=O)C([H])(N([H])C(=O)C([H])(N([H])C([H])([H])[H])C([H])([H])[H])C(C([H])([H])[H])(C([H])([H])[H])C([H])([H])[H])C([H])(C(=O)N([H])C2([H])c4c([H])c([H])c([H])c([H])c4C([H])([H])C([H])([H])C2([H])[H])C3([H])[H])[N+]([H])([H])[H])c1N([H])[H]

>  <smiles>  (63) 
[H]N=C(C(=O)N1C([H])([H])C([H])([H])C([H])([H])C([H])(n2nc(-c3c([H])c([H])c(Oc4c([H])c([H])c(F)c([H])c4F)c([H])c3[H])c(C(=O)N([H])[H])c2N([H])[H])C1([H])[H])c1sc([H])c(N([H])C(=O)C([H])(C([H])([H])Oc2c([H])c([H])c3c(c2[H])C([H])([H])N(C(=O)C([H])(N([H])C(=O)C([H])(N([H])C([H])([H])[H])C([H])([H])[H])C(C([H])([H])[H])(C([H])([H])[H])C([H])([H])[H])C([H])(C(=O)N([H])C2([H])c4c([H])c([H])c([H])c([H])c4C([H])([H])C([H])([H])C2([H])[H])C3([H])[H])[N+]([H])([H])[H])c1N([H])[H]

$$$$
63:0:0
     RDKit          3D

 97106  0  0  1  0  0  0  0  0999 V2000
  -28.3030  -23.5450   20.4100 C   0  0  0  0  0  0  0  0  0  0  0  0
  -30.1190  -21.6440   17.9790 C   0  0  0  0  0  2  0  0  0  0  0  0
  -30.6870  -23.0460   17.7730 C   0  0  0  0  0  2  0  0  0  0  0  0
  -29.9680  -21.5440   19.4920 C   0  0  0  0  0  3  0  0  0  0  0  0
  -30.2130  -23.8850   18.9790 C   0  0  0  0  0  3  0  0  0  0  0  0
  -29.4470  -22.9760   19.8640 N   0  0  0  0  0  0  0  0  0  0  0  0
  -27.3410  -22.8000   20.6130 O   0  0  0  0  0  0  0  0  0  0  0  0
  -28.3660  -18.1120   20.4410 C   0  0  0  0  0  3  0  0  0  0  0  0
  -29.5300  -17.3840   20.2080 C   0  0  0  0  0  0  0  0  0  0  0  0
  -29.5720  -20.0550   19.9320 C   0  0  0  0  0  0  0  0  0  0  0  0
  -28.3820  -19.5360   20.2660 N   0  0  0  0  0  0  0  0  0  0  0  0
  -30.7440  -18.6400   19.8030 S   0  0  0  0  0  0  0  0  0  0  0  0
  -30.4720  -14.9190   19.9450 C   0  0  0  0  0  0  0  0  0  0  0  0
  -30.3170  -12.6190   18.9270 C   0  0  0  0  0  2  0  0  0  0  0  0
  -29.2930  -12.6610   17.7680 C   0  0  0  0  0  2  0  0  0  0  0  0
  -27.8570  -12.4450   18.2870 C   0  0  0  0  0  2  0  0  0  0  0  0
  -27.5430  -13.3190   19.5280 C   0  0  0  0  0  3  0  0  0  0  0  0
  -28.6730  -13.2340   20.5800 C   0  0  0  0  0  2  0  0  0  0  0  0
  -29.9190  -13.6490   19.9200 N   0  0  0  0  0  0  0  0  0  0  0  0
  -31.6180  -15.0900   19.5180 O   0  0  0  0  0  0  0  0  0  0  0  0
  -29.6170  -15.9650   20.3120 N   0  0  0  0  0  0  0  0  0  0  0  0
  -28.7610  -15.5650   20.6650 H   0  0  0  0  0  0  0  0  0  0  0  0
  -25.2110  -13.8840   20.4350 C   0  0  0  0  0  0  0  0  0  0  0  0
  -24.1710  -13.0990   20.8550 C   0  0  0  0  0  0  0  0  0  0  0  0
  -24.6300  -11.7490   20.7520 C   0  0  0  0  0  0  0  0  0  0  0  0
  -26.2350  -13.0130   20.1000 N   0  0  0  0  0  0  0  0  0  0  0  0
  -25.8970  -11.7220   20.3530 N   0  0  0  0  0  0  0  0  0  0  0  0
  -23.9160  -10.4810   20.9510 C   0  0  0  0  0  0  0  0  0  0  0  0
  -24.3740   -9.5140   21.8720 C   0  0  0  0  0  3  0  0  0  0  0  0
  -23.6610   -8.3110   22.0610 C   0  0  0  0  0  3  0  0  0  0  0  0
  -22.4740   -8.0670   21.3290 C   0  0  0  0  0  0  0  0  0  0  0  0
  -22.0350   -9.0230   20.3960 C   0  0  0  0  0  3  0  0  0  0  0  0
  -22.7490  -10.2180   20.2060 C   0  0  0  0  0  3  0  0  0  0  0  0
  -21.7300   -6.9160   21.4280 O   0  0  0  0  0  0  0  0  0  0  0  0
  -21.6670   -6.1970   22.5950 C   0  0  0  0  0  0  0  0  0  0  0  0
  -21.1700   -6.7610   23.7910 C   0  0  0  0  0  3  0  0  0  0  0  0
  -21.0590   -5.9650   24.9500 C   0  0  0  0  0  3  0  0  0  0  0  0
  -21.4340   -4.6090   24.9120 C   0  0  0  0  0  0  0  0  0  0  0  0
  -21.9230   -4.0460   23.7210 C   0  0  0  0  0  3  0  0  0  0  0  0
  -22.0370   -4.8380   22.5650 C   0  0  0  0  0  0  0  0  0  0  0  0
  -22.4880   -4.2850   21.4140 F   0  0  0  0  0  0  0  0  0  0  0  0
  -21.3200   -3.8420   26.0220 F   0  0  0  0  0  0  0  0  0  0  0  0
  -22.7960  -13.5670   21.2330 C   0  0  0  0  0  0  0  0  0  0  0  0
  -22.1230  -12.8430   22.1190 N   0  0  0  0  0  0  0  0  0  0  0  0
  -22.3270  -14.6080   20.7750 O   0  0  0  0  0  0  0  0  0  0  0  0
  -22.5160  -12.0000   22.5120 H   0  0  0  0  0  0  0  0  0  0  0  0
  -21.2020  -13.1350   22.4090 H   0  0  0  0  0  0  0  0  0  0  0  0
  -25.3600  -15.2590   20.2810 N   0  0  0  0  0  0  0  0  0  0  0  0
  -24.5830  -15.8940   20.4280 H   0  0  0  0  0  0  0  0  0  0  0  0
  -26.1360  -15.6910   19.7960 H   0  0  0  0  0  0  0  0  0  0  0  0
  -31.3670  -24.6060   19.6810 C   0  0  0  0  0  0  0  0  0  0  0  0
  -31.6470  -26.0110   19.1950 C   0  0  0  0  0  1  0  0  0  0  0  0
  -32.0570  -24.0800   20.6010 N   0  0  0  0  0  0  0  0  0  0  0  0
  -31.7570  -23.1360   20.8190 H   0  0  0  0  0  0  0  0  0  0  0  0
  -28.8810  -25.2720   22.3030 C   0  0  0  0  0  1  0  0  0  0  0  0
  -28.1390  -25.0880   20.9710 C   0  0  0  0  0  3  0  0  0  0  0  0
  -28.3130  -26.3630   20.1650 O   0  0  0  0  0  0  0  0  0  0  0  0
  -24.6140  -31.9080   23.2270 C   0  0  0  0  0  0  0  0  0  0  0  0
  -27.2430  -27.3020   20.1690 C   0  0  0  0  0  0  0  0  0  0  0  0
  -23.4250  -30.5120   21.5780 C   0  0  0  0  0  3  0  0  0  0  0  0
  -24.8880  -28.9630   20.1490 C   0  0  0  0  0  0  0  0  0  0  0  0
  -25.9690  -30.8240   21.4060 C   0  0  0  0  0  2  0  0  0  0  0  0
  -26.0590  -29.4390   20.7540 C   0  0  0  0  0  0  0  0  0  0  0  0
  -27.2440  -28.6240   20.7480 C   0  0  0  0  0  3  0  0  0  0  0  0
  -26.0500  -26.9040   19.5350 C   0  0  0  0  0  3  0  0  0  0  0  0
  -24.8900  -27.7050   19.5270 C   0  0  0  0  0  3  0  0  0  0  0  0
  -23.6500  -29.8400   20.1970 C   0  0  0  0  0  2  0  0  0  0  0  0
  -24.6890  -31.1010   22.1260 N   0  0  0  0  0  0  0  0  0  0  0  0
  -23.5270  -32.1790   23.7580 O   0  0  0  0  0  0  0  0  0  0  0  0
  -22.7590  -29.4910   22.5340 C   0  0  0  0  0  0  0  0  0  0  0  0
  -21.4320  -29.3130   22.4070 N   0  0  0  0  0  0  0  0  0  0  0  0
  -23.4370  -28.8630   23.3510 O   0  0  0  0  0  0  0  0  0  0  0  0
  -20.9430  -29.8720   21.7220 H   0  0  0  0  0  0  0  0  0  0  0  0
  -18.0550  -28.1100   22.9130 C   0  0  0  0  0  0  0  0  0  0  0  0
  -20.6150  -28.3690   23.1730 C   0  0  0  0  0  3  0  0  0  0  0  0
  -20.7140  -26.9430   22.5820 C   0  0  0  0  0  2  0  0  0  0  0  0
  -19.6070  -26.6300   21.5710 C   0  0  0  0  0  2  0  0  0  0  0  0
  -18.2280  -26.7680   22.2230 C   0  0  0  0  0  2  0  0  0  0  0  0
  -19.1750  -28.8680   23.3450 C   0  0  0  0  0  0  0  0  0  0  0  0
  -18.9580  -30.1230   23.9530 C   0  0  0  0  0  3  0  0  0  0  0  0
  -17.6530  -30.6220   24.1310 C   0  0  0  0  0  3  0  0  0  0  0  0
  -16.5480  -29.8600   23.7140 C   0  0  0  0  0  3  0  0  0  0  0  0
  -16.7490  -28.6060   23.1120 C   0  0  0  0  0  3  0  0  0  0  0  0
  -25.8890  -32.5470   23.8580 C   0  0  0  0  0  3  0  0  0  0  0  0
  -26.3950  -31.7790   25.1420 C   0  0  1  0  0  0  0  0  0  0  0  0
  -25.2930  -31.5410   26.2010 C   0  0  0  0  0  1  0  0  0  0  0  0
  -26.9840  -30.4010   24.7620 C   0  0  0  0  0  1  0  0  0  0  0  0
  -27.5370  -32.5780   25.8130 C   0  0  0  0  0  1  0  0  0  0  0  0
  -25.5750  -33.9460   24.1840 N   0  0  0  0  0  0  0  0  0  0  0  0
  -25.9070  -34.9980   23.4240 C   0  0  0  0  0  0  0  0  0  0  0  0
  -26.5780  -34.8920   22.3940 O   0  0  0  0  0  0  0  0  0  0  0  0
  -24.9730  -34.1000   24.9800 H   0  0  0  0  0  0  0  0  0  0  0  0
  -24.1810  -36.7930   23.0630 C   0  0  0  0  0  1  0  0  0  0  0  0
  -25.4200  -36.3890   23.8790 C   0  0  0  0  0  3  0  0  0  0  0  0
  -27.5480  -37.2800   24.7200 C   0  0  0  0  0  1  0  0  0  0  0  0
  -26.4540  -37.4400   23.7670 N   0  0  0  0  0  0  0  0  0  0  0  0
  -26.0470  -38.3620   23.9030 H   0  0  0  0  0  0  0  0  0  0  0  0
  1  7  2  0
  1 56  1  0
  2  4  1  0
  3  2  1  0
  3  5  1  0
  4  6  1  0
  4 10  1  0
  5 51  1  0
  5  6  1  0
  6  1  1  0
  9 21  1  0
  9  8  2  0
 10 11  2  0
 11  8  1  0
 12 10  1  0
 12  9  1  0
 13 21  1  0
 14 19  1  0
 15 16  1  0
 15 14  1  0
 17 16  1  0
 17 26  1  0
 17 18  1  0
 19 13  1  0
 19 18  1  0
 20 13  2  0
 21 22  1  0
 23 24  2  0
 24 43  1  0
 25 24  1  0
 25 28  1  0
 26 27  1  0
 26 23  1  0
 27 25  2  0
 28 29  1  0
 29 30  2  0
 31 34  1  0
 31 30  1  0
 32 31  2  0
 33 32  1  0
 33 28  2  0
 34 35  1  0
 35 36  1  0
 36 37  2  0
 38 37  1  0
 38 42  1  0
 39 38  2  0
 40 35  2  0
 40 39  1  0
 41 40  1  0
 43 44  1  0
 44 47  1  0
 44 46  1  0
 45 43  2  0
 48 49  1  0
 48 23  1  0
 50 48  1  0
 51 53  2  0
 52 51  1  0
 53 54  1  0
 56 55  1  0
 57 59  1  0
 57 56  1  0
 58 69  2  0
 59 64  1  0
 60 68  1  0
 60 70  1  0
 61 67  1  0
 61 63  1  0
 62 68  1  0
 63 62  1  0
 64 63  2  0
 65 59  2  0
 66 65  1  0
 66 61  2  0
 67 60  1  0
 68 58  1  0
 70 72  2  0
 71 70  1  0
 73 71  1  0
 74 83  2  0
 74 79  1  0
 75 71  1  0
 75 79  1  0
 76 75  1  0
 77 78  1  0
 77 76  1  0
 78 74  1  0
 79 80  2  0
 80 81  1  0
 82 81  2  0
 83 82  1  0
 84 58  1  0
 84 89  1  0
 84 85  1  0
 85 88  1  1
 85 86  1  0
 87 85  1  0
 89 92  1  0
 90 94  1  0
 90 89  1  0
 91 90  2  0
 94 93  1  0
 96 94  1  0
 96 97  1  0
 96 95  1  0
M  ISO  4  13 100  21 100  56 101  57 101
M  END
>  <TORSDO>  (64) 
F 19

>  <SCORE>  (64) 
-14.608

>  <name>  (64) 
63

>  <ligand_id>  (64) 
63

>  <original_smiles>  (64) 
[H]N=C(C([H])([H])[H])C1([H])N(C(=O)C([H])(Oc2c([H])c([H])c3c(c2[H])C([H])([H])N(C(=O)C([H])(N([H])C(=O)C([H])(N([H])C([H])([H])[H])C([H])([H])[H])C(C([H])([H])[H])(C([H])([H])[H])C([H])([H])[H])C([H])(C(=O)N([H])C2([H])c4c([H])c([H])c([H])c([H])c4C([H])([H])C([H])([H])C2([H])[H])C3([H])[H])C([H])([H])[H])C([H])(c2nc([H])c(N([H])C(=O)N3C([H])([H])C([H])([H])C([H])([H])C([H])(n4nc(-c5c([H])c([H])c(Oc6c([H])c([H])c(F)c([H])c6F)c([H])c5[H])c(C(=O)N([H])[H])c4N([H])[H])C3([H])[H])s2)C([H])([H])C1([H])[H]

>  <smiles>  (64) 
[H]N=C(C([H])([H])[H])C1([H])N(C(=O)C([H])(Oc2c([H])c([H])c3c(c2[H])C([H])([H])N(C(=O)C([H])(N([H])C(=O)C([H])(N([H])C([H])([H])[H])C([H])([H])[H])C(C([H])([H])[H])(C([H])([H])[H])C([H])([H])[H])C([H])(C(=O)N([H])C2([H])c4c([H])c([H])c([H])c([H])c4C([H])([H])C([H])([H])C2([H])[H])C3([H])[H])C([H])([H])[H])C([H])(c2nc([H])c(N([H])C(=O)N3C([H])([H])C([H])([H])C([H])([H])C([H])(n4nc(-c5c([H])c([H])c(Oc6c([H])c([H])c(F)c([H])c6F)c([H])c5[H])c(C(=O)N([H])[H])c4N([H])[H])C3([H])[H])s2)C([H])([H])C1([H])[H]

$$$$
64:0:0
     RDKit          3D

 94103  0  0  1  0  0  0  0  0999 V2000
  -28.7330  -24.1950   19.3060 C   0  0  0  0  0  0  0  0  0  0  0  0
  -28.4840  -25.5420   19.1680 C   0  0  0  0  0  3  0  0  0  0  0  0
  -29.4660  -20.7440   20.7530 C   0  0  0  0  0  3  0  0  0  0  0  0
  -28.9060  -23.3160   18.0840 C   0  0  0  0  0  2  0  0  0  0  0  0
  -28.8890  -23.2730   20.5360 C   0  0  0  0  0  2  0  0  0  0  0  0
  -29.4440  -21.9550   18.5620 C   0  0  0  0  0  2  0  0  0  0  0  0
  -29.2750  -21.9050   20.0180 N   0  0  0  0  0  0  0  0  0  0  0  0
  -29.2020  -20.7800   22.0670 N   0  0  0  0  0  0  0  0  0  0  0  0
  -29.3360  -19.9430   22.6130 H   0  0  0  0  0  0  0  0  0  0  0  0
  -28.8590  -21.6060   22.5300 H   0  0  0  0  0  0  0  0  0  0  0  0
  -30.9250  -19.0840   19.3000 C   0  0  0  0  0  3  0  0  0  0  0  0
  -31.0860  -17.6610   19.3320 C   0  0  0  0  0  3  0  0  0  0  0  0
  -29.9830  -19.4440   20.2320 C   0  0  0  0  0  0  0  0  0  0  0  0
  -30.2360  -17.1850   20.2940 C   0  0  0  0  0  0  0  0  0  0  0  0
  -29.5390  -18.2610   20.8460 O   0  0  0  0  0  0  0  0  0  0  0  0
  -30.7730  -14.7410   20.3010 C   0  0  0  0  0  0  0  0  0  0  0  0
  -30.5120  -12.5130   19.2470 C   0  0  0  0  0  2  0  0  0  0  0  0
  -29.5750  -12.6690   18.0290 C   0  0  0  0  0  2  0  0  0  0  0  0
  -28.1010  -12.5230   18.4580 C   0  0  0  0  0  2  0  0  0  0  0  0
  -27.7520  -13.3780   19.7060 C   0  0  0  0  0  3  0  0  0  0  0  0
  -28.8110  -13.2190   20.8210 C   0  0  0  0  0  2  0  0  0  0  0  0
  -30.1220  -13.5360   20.2390 N   0  0  0  0  0  0  0  0  0  0  0  0
  -31.9460  -14.8380   19.9270 O   0  0  0  0  0  0  0  0  0  0  0  0
  -30.0290  -15.8500   20.6280 N   0  0  0  0  0  0  0  0  0  0  0  0
  -29.1430  -15.6470   21.0630 H   0  0  0  0  0  0  0  0  0  0  0  0
  -25.3580  -13.9800   20.4110 C   0  0  0  0  0  0  0  0  0  0  0  0
  -24.2900  -13.2100   20.7840 C   0  0  0  0  0  0  0  0  0  0  0  0
  -24.7530  -11.8580   20.7680 C   0  0  0  0  0  0  0  0  0  0  0  0
  -26.4030  -13.0980   20.1900 N   0  0  0  0  0  0  0  0  0  0  0  0
  -26.0450  -11.8180   20.4660 N   0  0  0  0  0  0  0  0  0  0  0  0
  -24.0270  -10.5970   20.9670 C   0  0  0  0  0  0  0  0  0  0  0  0
  -24.4540   -9.6390   21.9120 C   0  0  0  0  0  3  0  0  0  0  0  0
  -23.7280   -8.4430   22.0990 C   0  0  0  0  0  3  0  0  0  0  0  0
  -22.5580   -8.1980   21.3390 C   0  0  0  0  0  0  0  0  0  0  0  0
  -22.1500   -9.1440   20.3830 C   0  0  0  0  0  3  0  0  0  0  0  0
  -22.8790  -10.3310   20.1950 C   0  0  0  0  0  3  0  0  0  0  0  0
  -21.8030   -7.0540   21.4350 O   0  0  0  0  0  0  0  0  0  0  0  0
  -21.7430   -6.3260   22.5960 C   0  0  0  0  0  0  0  0  0  0  0  0
  -21.2940   -6.8940   23.8090 C   0  0  0  0  0  3  0  0  0  0  0  0
  -21.1810   -6.0920   24.9630 C   0  0  0  0  0  3  0  0  0  0  0  0
  -21.5070   -4.7230   24.9030 C   0  0  0  0  0  0  0  0  0  0  0  0
  -21.9500   -4.1570   23.6960 C   0  0  0  0  0  3  0  0  0  0  0  0
  -22.0640   -4.9550   22.5450 C   0  0  0  0  0  0  0  0  0  0  0  0
  -22.4710   -4.3990   21.3790 F   0  0  0  0  0  0  0  0  0  0  0  0
  -21.3930   -3.9510   26.0090 F   0  0  0  0  0  0  0  0  0  0  0  0
  -22.8910  -13.6870   21.0460 C   0  0  0  0  0  0  0  0  0  0  0  0
  -22.1610  -13.0010   21.9180 N   0  0  0  0  0  0  0  0  0  0  0  0
  -22.4540  -14.7080   20.5130 O   0  0  0  0  0  0  0  0  0  0  0  0
  -22.5300  -12.1750   22.3690 H   0  0  0  0  0  0  0  0  0  0  0  0
  -21.2230  -13.3030   22.1370 H   0  0  0  0  0  0  0  0  0  0  0  0
  -25.5230  -15.3490   20.2200 N   0  0  0  0  0  0  0  0  0  0  0  0
  -24.7540  -16.0030   20.3150 H   0  0  0  0  0  0  0  0  0  0  0  0
  -26.3690  -15.7830   19.8750 H   0  0  0  0  0  0  0  0  0  0  0  0
  -28.3310  -26.5550   20.1160 O   0  0  0  0  0  0  0  0  0  0  0  0
  -24.6410  -31.9030   23.2100 C   0  0  0  0  0  0  0  0  0  0  0  0
  -27.2220  -27.4080   20.0530 C   0  0  0  0  0  0  0  0  0  0  0  0
  -23.4160  -30.5240   21.5690 C   0  0  0  0  0  3  0  0  0  0  0  0
  -24.8480  -28.9970   20.1010 C   0  0  0  0  0  0  0  0  0  0  0  0
  -25.9500  -30.8540   21.3530 C   0  0  0  0  0  2  0  0  0  0  0  0
  -26.0240  -29.4870   20.6860 C   0  0  0  0  0  0  0  0  0  0  0  0
  -27.2130  -28.7010   20.6570 C   0  0  0  0  0  3  0  0  0  0  0  0
  -26.0200  -26.9590   19.4610 C   0  0  0  0  0  3  0  0  0  0  0  0
  -24.8460  -27.7360   19.4830 C   0  0  0  0  0  3  0  0  0  0  0  0
  -23.6100  -29.8640   20.1780 C   0  0  0  0  0  2  0  0  0  0  0  0
  -24.6890  -31.1100   22.1010 N   0  0  0  0  0  0  0  0  0  0  0  0
  -23.5660  -32.1740   23.7630 O   0  0  0  0  0  0  0  0  0  0  0  0
  -22.7680  -29.4960   22.5260 C   0  0  0  0  0  0  0  0  0  0  0  0
  -21.4430  -29.3080   22.4040 N   0  0  0  0  0  0  0  0  0  0  0  0
  -23.4560  -28.8700   23.3360 O   0  0  0  0  0  0  0  0  0  0  0  0
  -20.9470  -29.8630   21.7200 H   0  0  0  0  0  0  0  0  0  0  0  0
  -18.0790  -28.0740   22.9020 C   0  0  0  0  0  0  0  0  0  0  0  0
  -20.6340  -28.3610   23.1730 C   0  0  0  0  0  3  0  0  0  0  0  0
  -20.7520  -26.9320   22.5960 C   0  0  0  0  0  2  0  0  0  0  0  0
  -19.6550  -26.5980   21.5810 C   0  0  0  0  0  2  0  0  0  0  0  0
  -18.2700  -26.7280   22.2250 C   0  0  0  0  0  2  0  0  0  0  0  0
  -19.1890  -28.8480   23.3340 C   0  0  0  0  0  0  0  0  0  0  0  0
  -18.9560  -30.1060   23.9290 C   0  0  0  0  0  3  0  0  0  0  0  0
  -17.6470  -30.5940   24.0940 C   0  0  0  0  0  3  0  0  0  0  0  0
  -16.5510  -29.8170   23.6790 C   0  0  0  0  0  3  0  0  0  0  0  0
  -16.7680  -28.5590   23.0900 C   0  0  0  0  0  3  0  0  0  0  0  0
  -25.9330  -32.5290   23.8230 C   0  0  0  0  0  3  0  0  0  0  0  0
  -25.6270  -33.9230   24.1730 N   0  0  0  0  0  0  0  0  0  0  0  0
  -25.9360  -34.9840   23.4170 C   0  0  0  0  0  0  0  0  0  0  0  0
  -26.5810  -34.8930   22.3690 O   0  0  0  0  0  0  0  0  0  0  0  0
  -25.0520  -34.0680   24.9910 H   0  0  0  0  0  0  0  0  0  0  0  0
  -24.1910  -36.7730   23.1270 C   0  0  0  0  0  1  0  0  0  0  0  0
  -25.4550  -36.3660   23.9010 C   0  0  0  0  0  3  0  0  0  0  0  0
  -27.6090  -37.2510   24.6810 C   0  0  0  0  0  1  0  0  0  0  0  0
  -26.4800  -37.4260   23.7710 N   0  0  0  0  0  0  0  0  0  0  0  0
  -26.0720  -38.3410   23.9440 H   0  0  0  0  0  0  0  0  0  0  0  0
  -26.4660  -31.7440   25.0830 C   0  0  1  0  0  0  0  0  0  0  0  0
  -25.3870  -31.4950   26.1640 C   0  0  0  0  0  1  0  0  0  0  0  0
  -27.0450  -30.3710   24.6700 C   0  0  0  0  0  1  0  0  0  0  0  0
  -27.6260  -32.5310   25.7380 C   0  0  0  0  0  1  0  0  0  0  0  0
  1  5  1  0
  2  1  2  0
  2 54  1  0
  3  8  1  0
  4  6  1  0
  4  1  1  0
  6  7  1  0
  7  5  1  0
  7  3  1  0
  8 10  1  0
  8  9  1  0
 11 12  1  0
 11 13  2  0
 12 14  2  0
 13  3  1  0
 13 15  1  0
 14 24  1  0
 14 15  1  0
 16 24  1  0
 17 22  1  0
 18 19  1  0
 18 17  1  0
 20 19  1  0
 20 29  1  0
 20 21  1  0
 22 16  1  0
 22 21  1  0
 23 16  2  0
 24 25  1  0
 26 27  2  0
 27 46  1  0
 28 27  1  0
 28 31  1  0
 29 26  1  0
 29 30  1  0
 30 28  2  0
 31 32  1  0
 32 33  2  0
 34 37  1  0
 34 33  1  0
 35 34  2  0
 36 35  1  0
 36 31  2  0
 37 38  1  0
 38 39  1  0
 39 40  2  0
 41 40  1  0
 41 45  1  0
 42 41  2  0
 43 38  2  0
 43 42  1  0
 44 43  1  0
 46 47  1  0
 47 50  1  0
 47 49  1  0
 48 46  2  0
 51 52  1  0
 51 26  1  0
 53 51  1  0
 55 66  2  0
 56 54  1  0
 56 61  1  0
 57 65  1  0
 57 67  1  0
 58 64  1  0
 58 60  1  0
 59 65  1  0
 60 59  1  0
 61 60  2  0
 62 63  1  0
 62 56  2  0
 63 58  2  0
 64 57  1  0
 65 55  1  0
 67 69  2  0
 68 67  1  0
 70 68  1  0
 71 80  2  0
 71 76  1  0
 72 68  1  0
 72 76  1  0
 73 72  1  0
 74 75  1  0
 74 73  1  0
 75 71  1  0
 76 77  2  0
 77 78  1  0
 79 78  2  0
 80 79  1  0
 81 55  1  0
 81 82  1  0
 81 91  1  0
 82 85  1  0
 83 87  1  0
 83 82  1  0
 84 83  2  0
 87 86  1  0
 89 87  1  0
 89 90  1  0
 89 88  1  0
 91 94  1  1
 91 92  1  0
 93 91  1  0
M  ISO  4   2 101  16 100  24 100  54 101
M  END
>  <TORSDO>  (65) 
F 17

>  <SCORE>  (65) 
-15.203

>  <name>  (65) 
64

>  <ligand_id>  (65) 
64

>  <original_smiles>  (65) 
[H]C(Oc1c([H])c([H])c2c(c1[H])C([H])([H])N(C(=O)C([H])(N([H])C(=O)C([H])(N([H])C([H])([H])[H])C([H])([H])[H])C(C([H])([H])[H])(C([H])([H])[H])C([H])([H])[H])C([H])(C(=O)N([H])C1([H])c3c([H])c([H])c([H])c([H])c3C([H])([H])C([H])([H])C1([H])[H])C2([H])[H])=C1C([H])([H])N(C(c2oc(N([H])C(=O)N3C([H])([H])C([H])([H])C([H])([H])C([H])(n4nc(-c5c([H])c([H])c(Oc6c([H])c([H])c(F)c([H])c6F)c([H])c5[H])c(C(=O)N([H])[H])c4N([H])[H])C3([H])[H])c([H])c2[H])=[N+]([H])[H])C([H])([H])C1([H])[H]

>  <smiles>  (65) 
[H]C(Oc1c([H])c([H])c2c(c1[H])C([H])([H])N(C(=O)C([H])(N([H])C(=O)C([H])(N([H])C([H])([H])[H])C([H])([H])[H])C(C([H])([H])[H])(C([H])([H])[H])C([H])([H])[H])C([H])(C(=O)N([H])C1([H])c3c([H])c([H])c([H])c([H])c3C([H])([H])C([H])([H])C1([H])[H])C2([H])[H])=C1C([H])([H])N(C(c2oc(N([H])C(=O)N3C([H])([H])C([H])([H])C([H])([H])C([H])(n4nc(-c5c([H])c([H])c(Oc6c([H])c([H])c(F)c([H])c6F)c([H])c5[H])c(C(=O)N([H])[H])c4N([H])[H])C3([H])[H])c([H])c2[H])=[N+]([H])[H])C([H])([H])C1([H])[H]

$$$$
65:0:0
     RDKit          3D

 95104  0  0  1  0  0  0  0  0999 V2000
  -28.6690  -23.7650   19.7150 C   0  0  0  0  0  0  0  0  0  0  0  0
  -29.3800  -21.2520   19.9670 C   0  0  0  0  0  3  0  0  0  0  0  0
  -28.4220  -24.3900   21.9820 C   0  0  0  0  0  2  0  0  0  0  0  0
  -28.6460  -22.8430   21.8770 C   0  0  0  0  0  2  0  0  0  0  0  0
  -27.9990  -24.8910   20.5900 C   0  0  0  0  0  3  0  0  0  0  0  0
  -28.9530  -22.5030   20.4670 N   0  0  0  0  0  0  0  0  0  0  0  0
  -29.4470  -21.1210   18.6420 N   0  0  0  0  0  0  0  0  0  0  0  0
  -28.8900  -23.8850   18.5050 O   0  0  0  0  0  0  0  0  0  0  0  0
  -29.8970  -20.3140   18.2420 H   0  0  0  0  0  0  0  0  0  0  0  0
  -29.2390  -21.9190   18.0560 H   0  0  0  0  0  0  0  0  0  0  0  0
  -31.5370  -18.9860   22.2100 C   0  0  0  0  0  3  0  0  0  0  0  0
  -30.8800  -20.1200   21.6730 C   0  0  0  0  0  3  0  0  0  0  0  0
  -31.2190  -17.6690   21.8000 C   0  0  0  0  0  3  0  0  0  0  0  0
  -29.5340  -18.6060   20.3190 C   0  0  0  0  0  3  0  0  0  0  0  0
  -29.8670  -19.9810   20.6960 C   0  0  0  0  0  0  0  0  0  0  0  0
  -30.2070  -17.4170   20.8430 C   0  0  0  0  0  0  0  0  0  0  0  0
  -30.6250  -14.8430   20.3750 C   0  0  0  0  0  0  0  0  0  0  0  0
  -30.4180  -12.5470   19.3620 C   0  0  0  0  0  2  0  0  0  0  0  0
  -29.4700  -12.5540   18.1410 C   0  0  0  0  0  2  0  0  0  0  0  0
  -28.0120  -12.3700   18.5960 C   0  0  0  0  0  2  0  0  0  0  0  0
  -27.6280  -13.3030   19.7720 C   0  0  0  0  0  3  0  0  0  0  0  0
  -28.6920  -13.2810   20.8920 C   0  0  0  0  0  2  0  0  0  0  0  0
  -29.9780  -13.6290   20.2770 N   0  0  0  0  0  0  0  0  0  0  0  0
  -31.8280  -14.9130   20.0950 O   0  0  0  0  0  0  0  0  0  0  0  0
  -29.8560  -16.0020   20.5030 N   0  0  0  0  0  0  0  0  0  0  0  0
  -28.8700  -15.8370   20.3750 H   0  0  0  0  0  0  0  0  0  0  0  0
  -25.2600  -13.9090   20.5320 C   0  0  0  0  0  0  0  0  0  0  0  0
  -24.1850  -13.1420   20.8900 C   0  0  0  0  0  0  0  0  0  0  0  0
  -24.6340  -11.7880   20.8470 C   0  0  0  0  0  0  0  0  0  0  0  0
  -26.2890  -13.0200   20.2770 N   0  0  0  0  0  0  0  0  0  0  0  0
  -25.9240  -11.7380   20.5370 N   0  0  0  0  0  0  0  0  0  0  0  0
  -23.9000  -10.5320   21.0350 C   0  0  0  0  0  0  0  0  0  0  0  0
  -24.3190   -9.5630   21.9730 C   0  0  0  0  0  3  0  0  0  0  0  0
  -23.5830   -8.3710   22.1480 C   0  0  0  0  0  3  0  0  0  0  0  0
  -22.4170   -8.1380   21.3830 C   0  0  0  0  0  0  0  0  0  0  0  0
  -22.0160   -9.0980   20.4370 C   0  0  0  0  0  3  0  0  0  0  0  0
  -22.7510  -10.2820   20.2610 C   0  0  0  0  0  3  0  0  0  0  0  0
  -21.6530   -7.0000   21.4670 O   0  0  0  0  0  0  0  0  0  0  0  0
  -21.5790   -6.2650   22.6210 C   0  0  0  0  0  0  0  0  0  0  0  0
  -21.1160   -6.8270   23.8310 C   0  0  0  0  0  3  0  0  0  0  0  0
  -20.9890   -6.0200   24.9790 C   0  0  0  0  0  3  0  0  0  0  0  0
  -21.3130   -4.6520   24.9200 C   0  0  0  0  0  0  0  0  0  0  0  0
  -21.7650   -4.0900   23.7140 C   0  0  0  0  0  3  0  0  0  0  0  0
  -21.8960   -4.8920   22.5680 C   0  0  0  0  0  0  0  0  0  0  0  0
  -22.3140   -4.3410   21.4040 F   0  0  0  0  0  0  0  0  0  0  0  0
  -21.1840   -3.8740   26.0200 F   0  0  0  0  0  0  0  0  0  0  0  0
  -22.7960  -13.6320   21.1700 C   0  0  0  0  0  0  0  0  0  0  0  0
  -22.0600  -12.9340   22.0280 N   0  0  0  0  0  0  0  0  0  0  0  0
  -22.3700  -14.6700   20.6640 O   0  0  0  0  0  0  0  0  0  0  0  0
  -22.4120  -12.0870   22.4510 H   0  0  0  0  0  0  0  0  0  0  0  0
  -21.1310  -13.2520   22.2620 H   0  0  0  0  0  0  0  0  0  0  0  0
  -25.4520  -15.2810   20.3900 N   0  0  0  0  0  0  0  0  0  0  0  0
  -24.7250  -15.9620   20.5810 H   0  0  0  0  0  0  0  0  0  0  0  0
  -26.3550  -15.7090   20.2300 H   0  0  0  0  0  0  0  0  0  0  0  0
  -28.2780  -26.3530   20.2600 O   0  0  0  0  0  0  0  0  0  0  0  0
  -24.6150  -31.8830   23.2220 C   0  0  0  0  0  0  0  0  0  0  0  0
  -27.1990  -27.2700   20.1870 C   0  0  0  0  0  0  0  0  0  0  0  0
  -23.4060  -30.4870   21.5860 C   0  0  0  0  0  3  0  0  0  0  0  0
  -24.8530  -28.9320   20.1500 C   0  0  0  0  0  0  0  0  0  0  0  0
  -25.9500  -30.7940   21.3920 C   0  0  0  0  0  2  0  0  0  0  0  0
  -26.0270  -29.4100   20.7480 C   0  0  0  0  0  0  0  0  0  0  0  0
  -27.2080  -28.5940   20.7480 C   0  0  0  0  0  3  0  0  0  0  0  0
  -26.0090  -26.8760   19.5370 C   0  0  0  0  0  3  0  0  0  0  0  0
  -24.8500  -27.6760   19.5260 C   0  0  0  0  0  3  0  0  0  0  0  0
  -23.6160  -29.8090   20.2060 C   0  0  0  0  0  2  0  0  0  0  0  0
  -24.6770  -31.0750   22.1220 N   0  0  0  0  0  0  0  0  0  0  0  0
  -23.5340  -32.1600   23.7640 O   0  0  0  0  0  0  0  0  0  0  0  0
  -22.7470  -29.4710   22.5510 C   0  0  0  0  0  0  0  0  0  0  0  0
  -21.4210  -29.2900   22.4270 N   0  0  0  0  0  0  0  0  0  0  0  0
  -23.4290  -28.8500   23.3710 O   0  0  0  0  0  0  0  0  0  0  0  0
  -20.9280  -29.8410   21.7380 H   0  0  0  0  0  0  0  0  0  0  0  0
  -18.0490  -28.0730   22.9450 C   0  0  0  0  0  0  0  0  0  0  0  0
  -20.6070  -28.3490   23.2010 C   0  0  0  0  0  3  0  0  0  0  0  0
  -20.7160  -26.9160   22.6310 C   0  0  0  0  0  2  0  0  0  0  0  0
  -19.6120  -26.5830   21.6240 C   0  0  0  0  0  2  0  0  0  0  0  0
  -18.2320  -26.7230   22.2700 C   0  0  0  0  0  2  0  0  0  0  0  0
  -19.1640  -28.8420   23.3680 C   0  0  0  0  0  0  0  0  0  0  0  0
  -18.9400  -30.1030   23.9630 C   0  0  0  0  0  3  0  0  0  0  0  0
  -17.6320  -30.5960   24.1340 C   0  0  0  0  0  3  0  0  0  0  0  0
  -16.5320  -29.8230   23.7230 C   0  0  0  0  0  3  0  0  0  0  0  0
  -16.7420  -28.5640   23.1350 C   0  0  0  0  0  3  0  0  0  0  0  0
  -25.8970  -32.5200   23.8380 C   0  0  0  0  0  3  0  0  0  0  0  0
  -25.5870  -33.9180   24.1760 N   0  0  0  0  0  0  0  0  0  0  0  0
  -25.9050  -34.9760   23.4160 C   0  0  0  0  0  0  0  0  0  0  0  0
  -26.5620  -34.8770   22.3760 O   0  0  0  0  0  0  0  0  0  0  0  0
  -25.0060  -34.0680   24.9880 H   0  0  0  0  0  0  0  0  0  0  0  0
  -24.1720  -36.7680   23.0820 C   0  0  0  0  0  1  0  0  0  0  0  0
  -25.4170  -36.3610   23.8850 C   0  0  0  0  0  3  0  0  0  0  0  0
  -27.5560  -37.2470   24.7040 C   0  0  0  0  0  1  0  0  0  0  0  0
  -26.4480  -37.4170   23.7680 N   0  0  0  0  0  0  0  0  0  0  0  0
  -26.0410  -38.3370   23.9210 H   0  0  0  0  0  0  0  0  0  0  0  0
  -26.4200  -31.7490   25.1140 C   0  0  1  0  0  0  0  0  0  0  0  0
  -25.3360  -31.5090   26.1890 C   0  0  0  0  0  1  0  0  0  0  0  0
  -27.0080  -30.3760   24.7190 C   0  0  0  0  0  1  0  0  0  0  0  0
  -27.5740  -32.5490   25.7690 C   0  0  0  0  0  1  0  0  0  0  0  0
  1  6  1  0
  1  5  1  0
  2  7  1  0
  2  6  1  0
  2 15  1  0
  4  3  1  0
  5 55  1  0
  5  3  1  0
  6  4  1  0
  8  1  2  0
  9  7  1  0
 10  7  1  0
 12 11  2  0
 13 11  1  0
 14 15  2  0
 14 16  1  0
 15 12  1  0
 16 13  2  0
 17 25  1  0
 18 23  1  0
 19 20  1  0
 19 18  1  0
 21 20  1  0
 21 30  1  0
 21 22  1  0
 23 17  1  0
 23 22  1  0
 24 17  2  0
 25 16  1  0
 26 25  1  0
 27 28  2  0
 28 47  1  0
 29 28  1  0
 29 32  1  0
 30 27  1  0
 30 31  1  0
 31 29  2  0
 32 33  1  0
 33 34  2  0
 35 38  1  0
 35 34  1  0
 36 35  2  0
 37 36  1  0
 37 32  2  0
 38 39  1  0
 39 40  1  0
 40 41  2  0
 42 41  1  0
 42 46  1  0
 43 42  2  0
 44 39  2  0
 44 43  1  0
 45 44  1  0
 47 48  1  0
 48 51  1  0
 48 50  1  0
 49 47  2  0
 52 27  1  0
 52 53  1  0
 54 52  1  0
 56 67  2  0
 57 55  1  0
 57 62  1  0
 58 66  1  0
 58 68  1  0
 59 65  1  0
 59 61  1  0
 60 66  1  0
 61 62  2  0
 61 60  1  0
 63 57  2  0
 64 63  1  0
 64 59  2  0
 65 58  1  0
 66 56  1  0
 68 70  2  0
 69 68  1  0
 71 69  1  0
 72 81  2  0
 72 77  1  0
 73 69  1  0
 73 77  1  0
 74 73  1  0
 75 76  1  0
 75 74  1  0
 76 72  1  0
 77 78  2  0
 78 79  1  0
 80 79  2  0
 81 80  1  0
 82 56  1  0
 82 83  1  0
 82 92  1  0
 83 86  1  0
 84 88  1  0
 84 83  1  0
 85 84  2  0
 88 87  1  0
 90 88  1  0
 90 91  1  0
 90 89  1  0
 92 95  1  1
 92 93  1  0
 94 92  1  0
M  ISO  4   5 101  17 100  25 100  55 101
M  END
>  <TORSDO>  (66) 
F 17

>  <SCORE>  (66) 
-15.351

>  <name>  (66) 
65

>  <ligand_id>  (66) 
65

>  <original_smiles>  (66) 
[H]c1c([H])c(C(N2C(=O)C([H])(Oc3c([H])c([H])c4c(c3[H])C([H])([H])N(C(=O)C([H])(N([H])C(=O)C([H])(N([H])C([H])([H])[H])C([H])([H])[H])C(C([H])([H])[H])(C([H])([H])[H])C([H])([H])[H])C([H])(C(=O)N([H])C3([H])c5c([H])c([H])c([H])c([H])c5C([H])([H])C([H])([H])C3([H])[H])C4([H])[H])C([H])([H])C2([H])[H])=[N+]([H])[H])c([H])c(N([H])C(=O)N2C([H])([H])C([H])([H])C([H])([H])C([H])(n3nc(-c4c([H])c([H])c(Oc5c([H])c([H])c(F)c([H])c5F)c([H])c4[H])c(C(=O)N([H])[H])c3N([H])[H])C2([H])[H])c1[H]

>  <smiles>  (66) 
[H]c1c([H])c(C(N2C(=O)C([H])(Oc3c([H])c([H])c4c(c3[H])C([H])([H])N(C(=O)C([H])(N([H])C(=O)C([H])(N([H])C([H])([H])[H])C([H])([H])[H])C(C([H])([H])[H])(C([H])([H])[H])C([H])([H])[H])C([H])(C(=O)N([H])C3([H])c5c([H])c([H])c([H])c([H])c5C([H])([H])C([H])([H])C3([H])[H])C4([H])[H])C([H])([H])C2([H])[H])=[N+]([H])[H])c([H])c(N([H])C(=O)N2C([H])([H])C([H])([H])C([H])([H])C([H])(n3nc(-c4c([H])c([H])c(Oc5c([H])c([H])c(F)c([H])c5F)c([H])c4[H])c(C(=O)N([H])[H])c3N([H])[H])C2([H])[H])c1[H]

$$$$
66:0:0
     RDKit          3D

 85 92  0  0  1  0  0  0  0  0999 V2000
  -30.2410  -15.9230   20.2990 C   0  0  0  0  0  0  0  0  0  0  0  0
  -30.3740  -13.3350   19.4850 C   0  0  0  0  0  2  0  0  0  0  0  0
  -29.5350  -12.7940   18.2860 C   0  0  0  0  0  2  0  0  0  0  0  0
  -28.1290  -12.3890   18.7400 C   0  0  0  0  0  2  0  0  0  0  0  0
  -27.5630  -13.4090   19.7490 C   0  0  0  0  0  3  0  0  0  0  0  0
  -28.5590  -13.8470   20.8560 C   0  0  0  0  0  2  0  0  0  0  0  0
  -29.6890  -14.5430   20.1780 N   0  0  0  0  0  0  0  0  0  0  0  0
  -31.4790  -15.7410   20.2180 O   0  0  0  0  0  0  0  0  0  0  0  0
  -29.9010  -20.5310   20.7660 C   0  0  0  0  0  2  0  0  0  0  0  0
  -27.9040  -20.0540   20.0220 C   0  0  0  0  0  2  0  0  0  0  0  0
  -30.4090  -18.8840   20.2630 C   0  0  0  0  0  2  0  0  0  0  0  0
  -28.3050  -18.3150   20.3720 C   0  0  0  0  0  2  0  0  0  0  0  0
  -28.7260  -21.5930   20.0920 C   0  0  0  0  0  3  0  0  0  0  0  0
  -29.6640  -17.4450   20.3020 N   0  0  0  0  0  0  0  0  0  0  0  0
  -29.1800  -21.7340   18.8460 F   0  0  0  0  0  0  0  0  0  0  0  0
  -25.1880  -13.8960   20.4730 C   0  0  0  0  0  0  0  0  0  0  0  0
  -24.1360  -13.1030   20.8230 C   0  0  0  0  0  0  0  0  0  0  0  0
  -24.6280  -11.7600   20.8150 C   0  0  0  0  0  0  0  0  0  0  0  0
  -26.2520  -13.0420   20.2600 N   0  0  0  0  0  0  0  0  0  0  0  0
  -25.9290  -11.7490   20.5330 N   0  0  0  0  0  0  0  0  0  0  0  0
  -23.9150  -10.4880   21.0010 C   0  0  0  0  0  0  0  0  0  0  0  0
  -24.3320   -9.5350   21.9570 C   0  0  0  0  0  3  0  0  0  0  0  0
  -23.6110   -8.3340   22.1340 C   0  0  0  0  0  3  0  0  0  0  0  0
  -22.4580   -8.0750   21.3540 C   0  0  0  0  0  0  0  0  0  0  0  0
  -22.0600   -9.0160   20.3880 C   0  0  0  0  0  3  0  0  0  0  0  0
  -22.7800  -10.2090   20.2090 C   0  0  0  0  0  3  0  0  0  0  0  0
  -21.7110   -6.9240   21.4390 O   0  0  0  0  0  0  0  0  0  0  0  0
  -21.6370   -6.1990   22.6010 C   0  0  0  0  0  0  0  0  0  0  0  0
  -21.1650   -6.7660   23.8040 C   0  0  0  0  0  3  0  0  0  0  0  0
  -21.0370   -5.9660   24.9580 C   0  0  0  0  0  3  0  0  0  0  0  0
  -21.3730   -4.6000   24.9090 C   0  0  0  0  0  0  0  0  0  0  0  0
  -21.8410   -4.0330   23.7110 C   0  0  0  0  0  3  0  0  0  0  0  0
  -21.9700   -4.8300   22.5600 C   0  0  0  0  0  0  0  0  0  0  0  0
  -22.3990   -4.2740   21.4010 F   0  0  0  0  0  0  0  0  0  0  0  0
  -21.2460   -3.8280   26.0130 F   0  0  0  0  0  0  0  0  0  0  0  0
  -22.7250  -13.5590   21.0470 C   0  0  0  0  0  0  0  0  0  0  0  0
  -21.9880  -12.8720   21.9110 N   0  0  0  0  0  0  0  0  0  0  0  0
  -22.2860  -14.5670   20.4910 O   0  0  0  0  0  0  0  0  0  0  0  0
  -22.3590  -12.0580   22.3810 H   0  0  0  0  0  0  0  0  0  0  0  0
  -21.0400  -13.1620   22.1060 H   0  0  0  0  0  0  0  0  0  0  0  0
  -25.3310  -15.2680   20.2830 N   0  0  0  0  0  0  0  0  0  0  0  0
  -24.5500  -15.9070   20.3720 H   0  0  0  0  0  0  0  0  0  0  0  0
  -26.1820  -15.7160   19.9730 H   0  0  0  0  0  0  0  0  0  0  0  0
  -27.9890  -23.4900   20.3880 C   0  0  0  0  0  1  0  0  0  0  0  0
  -28.1480  -25.3240   20.2930 O   0  0  0  0  0  0  0  0  0  0  0  0
  -24.6660  -31.8430   23.1840 C   0  0  0  0  0  0  0  0  0  0  0  0
  -27.1890  -26.6030   20.2700 C   0  0  0  0  0  0  0  0  0  0  0  0
  -23.4900  -30.4280   21.5580 C   0  0  0  0  0  3  0  0  0  0  0  0
  -24.9400  -28.7370   20.1770 C   0  0  0  0  0  0  0  0  0  0  0  0
  -26.0780  -30.5220   21.4640 C   0  0  0  0  0  2  0  0  0  0  0  0
  -26.1400  -29.0670   20.8210 C   0  0  0  0  0  0  0  0  0  0  0  0
  -27.2420  -28.0350   20.8240 C   0  0  0  0  0  3  0  0  0  0  0  0
  -25.9530  -26.5200   19.5690 C   0  0  0  0  0  3  0  0  0  0  0  0
  -24.8960  -27.4900   19.5260 C   0  0  0  0  0  3  0  0  0  0  0  0
  -23.7430  -29.7100   20.2000 C   0  0  0  0  0  2  0  0  0  0  0  0
  -24.7700  -30.9670   22.1210 N   0  0  0  0  0  0  0  0  0  0  0  0
  -23.5670  -32.1530   23.6780 O   0  0  0  0  0  0  0  0  0  0  0  0
  -22.7560  -29.4700   22.5390 C   0  0  0  0  0  0  0  0  0  0  0  0
  -21.4210  -29.3280   22.4130 N   0  0  0  0  0  0  0  0  0  0  0  0
  -23.4030  -28.8520   23.3880 O   0  0  0  0  0  0  0  0  0  0  0  0
  -20.9460  -29.8760   21.7090 H   0  0  0  0  0  0  0  0  0  0  0  0
  -18.0260  -28.1320   22.9390 C   0  0  0  0  0  0  0  0  0  0  0  0
  -20.5880  -28.4010   23.1930 C   0  0  0  0  0  3  0  0  0  0  0  0
  -20.6850  -26.9620   22.6320 C   0  0  0  0  0  2  0  0  0  0  0  0
  -19.5820  -26.6340   21.6200 C   0  0  0  0  0  2  0  0  0  0  0  0
  -18.2010  -26.7810   22.2650 C   0  0  0  0  0  2  0  0  0  0  0  0
  -19.1460  -28.8990   23.3600 C   0  0  0  0  0  0  0  0  0  0  0  0
  -18.9240  -30.1590   23.9570 C   0  0  0  0  0  3  0  0  0  0  0  0
  -17.6180  -30.6540   24.1330 C   0  0  0  0  0  3  0  0  0  0  0  0
  -16.5140  -29.8860   23.7240 C   0  0  0  0  0  3  0  0  0  0  0  0
  -16.7190  -28.6260   23.1330 C   0  0  0  0  0  3  0  0  0  0  0  0
  -25.9200  -32.5070   23.8290 C   0  0  0  0  0  3  0  0  0  0  0  0
  -25.5840  -33.9090   24.1610 N   0  0  0  0  0  0  0  0  0  0  0  0
  -25.9060  -34.9790   23.4210 C   0  0  0  0  0  0  0  0  0  0  0  0
  -26.5680  -34.8900   22.3850 O   0  0  0  0  0  0  0  0  0  0  0  0
  -24.9920  -34.0480   24.9650 H   0  0  0  0  0  0  0  0  0  0  0  0
  -24.1620  -36.7770   23.1230 C   0  0  0  0  0  1  0  0  0  0  0  0
  -25.4230  -36.3650   23.9020 C   0  0  0  0  0  3  0  0  0  0  0  0
  -27.5630  -37.2710   24.7010 C   0  0  0  0  0  1  0  0  0  0  0  0
  -26.4470  -37.4260   23.7720 N   0  0  0  0  0  0  0  0  0  0  0  0
  -26.0380  -38.3450   23.9180 H   0  0  0  0  0  0  0  0  0  0  0  0
  -26.4100  -31.7610   25.1330 C   0  0  1  0  0  0  0  0  0  0  0  0
  -25.2980  -31.5460   26.1880 C   0  0  0  0  0  1  0  0  0  0  0  0
  -26.9980  -30.3750   24.7930 C   0  0  0  0  0  1  0  0  0  0  0  0
  -27.5490  -32.5670   25.8000 C   0  0  0  0  0  1  0  0  0  0  0  0
  1 14  1  0
  2  7  1  0
  3  4  1  0
  3  2  1  0
  5  4  1  0
  5 19  1  0
  5  6  1  0
  7  1  1  0
  7  6  1  0
  8  1  2  0
 10 13  1  0
 10 12  1  0
 11 14  1  0
 11  9  1  0
 13 15  1  0
 13  9  1  0
 14 12  1  0
 16 17  2  0
 17 36  1  0
 18 17  1  0
 18 21  1  0
 19 16  1  0
 19 20  1  0
 20 18  2  0
 21 22  1  0
 22 23  2  0
 24 27  1  0
 24 23  1  0
 25 24  2  0
 26 25  1  0
 26 21  2  0
 27 28  1  0
 28 29  1  0
 29 30  2  0
 31 30  1  0
 31 35  1  0
 32 31  2  0
 33 28  2  0
 33 32  1  0
 34 33  1  0
 36 37  1  0
 37 40  1  0
 37 39  1  0
 38 36  2  0
 41 42  1  0
 41 16  1  0
 43 41  1  0
 45 44  1  0
 46 57  2  0
 47 45  1  0
 47 52  1  0
 48 56  1  0
 48 58  1  0
 49 55  1  0
 49 51  1  0
 50 56  1  0
 51 52  2  0
 51 50  1  0
 53 47  2  0
 54 53  1  0
 54 49  2  0
 55 48  1  0
 56 46  1  0
 58 60  2  0
 59 58  1  0
 61 59  1  0
 62 71  2  0
 62 67  1  0
 63 59  1  0
 63 67  1  0
 64 63  1  0
 65 66  1  0
 65 64  1  0
 66 62  1  0
 67 68  2  0
 68 69  1  0
 70 69  2  0
 71 70  1  0
 72 46  1  0
 72 73  1  0
 72 82  1  0
 73 76  1  0
 74 78  1  0
 74 73  1  0
 75 74  2  0
 78 77  1  0
 80 78  1  0
 80 81  1  0
 80 79  1  0
 82 85  1  1
 82 83  1  0
 84 82  1  0
M  ISO  4   1 100  14 100  44 101  45 101
M  END
>  <TORSDO>  (67) 
F 16

>  <SCORE>  (67) 
-16.386

>  <name>  (67) 
66

>  <ligand_id>  (67) 
66

>  <original_smiles>  (67) 
[H]c1c([H])c([H])c2c(c1[H])C([H])([H])C([H])([H])C([H])([H])C2([H])N([H])C(=O)C1([H])N(C(=O)C([H])(N([H])C(=O)C([H])(N([H])C([H])([H])[H])C([H])([H])[H])C(C([H])([H])[H])(C([H])([H])[H])C([H])([H])[H])C([H])([H])c2c([H])c(OC([H])([H])C3(F)C([H])([H])C([H])([H])N(C(=O)N4C([H])([H])C([H])([H])C([H])([H])C([H])(n5nc(-c6c([H])c([H])c(Oc7c([H])c([H])c(F)c([H])c7F)c([H])c6[H])c(C(=O)N([H])[H])c5N([H])[H])C4([H])[H])C([H])([H])C3([H])[H])c([H])c([H])c2C1([H])[H]

>  <smiles>  (67) 
[H]c1c([H])c([H])c2c(c1[H])C([H])([H])C([H])([H])C([H])([H])C2([H])N([H])C(=O)C1([H])N(C(=O)C([H])(N([H])C(=O)C([H])(N([H])C([H])([H])[H])C([H])([H])[H])C(C([H])([H])[H])(C([H])([H])[H])C([H])([H])[H])C([H])([H])c2c([H])c(OC([H])([H])C3(F)C([H])([H])C([H])([H])N(C(=O)N4C([H])([H])C([H])([H])C([H])([H])C([H])(n5nc(-c6c([H])c([H])c(Oc7c([H])c([H])c(F)c([H])c7F)c([H])c6[H])c(C(=O)N([H])[H])c5N([H])[H])C4([H])[H])C([H])([H])C3([H])[H])c([H])c([H])c2C1([H])[H]

$$$$
67:0:0
     RDKit          3D

 96105  0  0  1  0  0  0  0  0999 V2000
  -28.9990  -23.7390   20.5890 C   0  0  0  0  0  0  0  0  0  0  0  0
  -31.0430  -21.9950   18.2000 C   0  0  0  0  0  2  0  0  0  0  0  0
  -29.7240  -21.2110   18.2330 C   0  0  0  0  0  2  0  0  0  0  0  0
  -31.0280  -22.8640   19.4640 C   0  0  0  0  0  2  0  0  0  0  0  0
  -29.3080  -21.1970   19.7130 C   0  0  0  0  0  3  0  0  0  0  0  0
  -29.7170  -22.6430   20.0760 N   0  0  0  0  0  0  0  0  0  0  0  0
  -28.8560  -23.7890   21.8150 O   0  0  0  0  0  0  0  0  0  0  0  0
  -30.6520  -14.8480   20.3220 C   0  0  0  0  0  0  0  0  0  0  0  0
  -30.4520  -12.5510   19.3290 C   0  0  0  0  0  2  0  0  0  0  0  0
  -29.5050  -12.6000   18.1080 C   0  0  0  0  0  2  0  0  0  0  0  0
  -28.0400  -12.4050   18.5410 C   0  0  0  0  0  2  0  0  0  0  0  0
  -27.6570  -13.2960   19.7530 C   0  0  0  0  0  3  0  0  0  0  0  0
  -28.7270  -13.2560   20.8670 C   0  0  0  0  0  2  0  0  0  0  0  0
  -30.0130  -13.6250   20.2540 N   0  0  0  0  0  0  0  0  0  0  0  0
  -31.8590  -14.9060   20.0720 O   0  0  0  0  0  0  0  0  0  0  0  0
  -31.1490  -19.7450   21.0260 C   0  0  0  0  0  3  0  0  0  0  0  0
  -29.9740  -19.8580   20.3150 C   0  0  0  0  0  0  0  0  0  0  0  0
  -30.2450  -17.4500   20.4820 C   0  0  0  0  0  0  0  0  0  0  0  0
  -29.4710  -18.5130   20.0650 N   0  0  0  0  0  0  0  0  0  0  0  0
  -29.8810  -16.0110   20.3710 N   0  0  0  0  0  0  0  0  0  0  0  0
  -31.6980  -18.0740   21.2620 S   0  0  0  0  0  0  0  0  0  0  0  0
  -28.8900  -15.8390   20.3150 H   0  0  0  0  0  0  0  0  0  0  0  0
  -25.2720  -13.8640   20.5050 C   0  0  0  0  0  0  0  0  0  0  0  0
  -24.2140  -13.0820   20.8820 C   0  0  0  0  0  0  0  0  0  0  0  0
  -24.6850  -11.7330   20.8420 C   0  0  0  0  0  0  0  0  0  0  0  0
  -26.3200  -12.9920   20.2560 N   0  0  0  0  0  0  0  0  0  0  0  0
  -25.9770  -11.7070   20.5250 N   0  0  0  0  0  0  0  0  0  0  0  0
  -23.9650  -10.4650   21.0320 C   0  0  0  0  0  0  0  0  0  0  0  0
  -24.4040   -9.5040   21.9680 C   0  0  0  0  0  3  0  0  0  0  0  0
  -23.6860   -8.3000   22.1510 C   0  0  0  0  0  3  0  0  0  0  0  0
  -22.5160   -8.0520   21.3920 C   0  0  0  0  0  0  0  0  0  0  0  0
  -22.0940   -9.0030   20.4470 C   0  0  0  0  0  3  0  0  0  0  0  0
  -22.8130  -10.1970   20.2650 C   0  0  0  0  0  3  0  0  0  0  0  0
  -21.7750   -6.8990   21.4810 O   0  0  0  0  0  0  0  0  0  0  0  0
  -21.7250   -6.1600   22.6370 C   0  0  0  0  0  0  0  0  0  0  0  0
  -21.2730   -6.7100   23.8570 C   0  0  0  0  0  3  0  0  0  0  0  0
  -21.1710   -5.8960   25.0040 C   0  0  0  0  0  3  0  0  0  0  0  0
  -21.5130   -4.5320   24.9290 C   0  0  0  0  0  0  0  0  0  0  0  0
  -21.9580   -3.9810   23.7160 C   0  0  0  0  0  3  0  0  0  0  0  0
  -22.0590   -4.7900   22.5720 C   0  0  0  0  0  0  0  0  0  0  0  0
  -22.4700   -4.2500   21.3990 F   0  0  0  0  0  0  0  0  0  0  0  0
  -21.4060   -3.7470   26.0270 F   0  0  0  0  0  0  0  0  0  0  0  0
  -22.8130  -13.5490   21.1580 C   0  0  0  0  0  0  0  0  0  0  0  0
  -22.0900  -12.8440   22.0220 N   0  0  0  0  0  0  0  0  0  0  0  0
  -22.3670  -14.5750   20.6420 O   0  0  0  0  0  0  0  0  0  0  0  0
  -22.4670  -12.0180   22.4630 H   0  0  0  0  0  0  0  0  0  0  0  0
  -21.1480  -13.1340   22.2410 H   0  0  0  0  0  0  0  0  0  0  0  0
  -25.4230  -15.2350   20.3290 N   0  0  0  0  0  0  0  0  0  0  0  0
  -24.6460  -15.8810   20.4400 H   0  0  0  0  0  0  0  0  0  0  0  0
  -26.2440  -15.6720   19.9260 H   0  0  0  0  0  0  0  0  0  0  0  0
  -28.2740  -24.9410   19.7450 C   0  0  0  0  0  3  0  0  0  0  0  0
  -28.5320  -24.8820   18.2350 C   0  0  0  0  0  0  0  0  0  0  0  0
  -29.7350  -25.6400   17.7150 C   0  0  0  0  0  1  0  0  0  0  0  0
  -27.7440  -24.3010   17.4310 N   0  0  0  0  0  0  0  0  0  0  0  0
  -28.0410  -24.4110   16.4700 H   0  0  0  0  0  0  0  0  0  0  0  0
  -28.3280  -26.3850   20.2460 O   0  0  0  0  0  0  0  0  0  0  0  0
  -24.6150  -31.9050   23.2430 C   0  0  0  0  0  0  0  0  0  0  0  0
  -27.2150  -27.2800   20.1710 C   0  0  0  0  0  0  0  0  0  0  0  0
  -23.4040  -30.5130   21.6080 C   0  0  0  0  0  3  0  0  0  0  0  0
  -24.8470  -28.9470   20.1790 C   0  0  0  0  0  0  0  0  0  0  0  0
  -25.9510  -30.8040   21.4230 C   0  0  0  0  0  2  0  0  0  0  0  0
  -26.0250  -29.4200   20.7720 C   0  0  0  0  0  0  0  0  0  0  0  0
  -27.2040  -28.5960   20.7620 C   0  0  0  0  0  3  0  0  0  0  0  0
  -26.0060  -26.8950   19.5380 C   0  0  0  0  0  3  0  0  0  0  0  0
  -24.8440  -27.6900   19.5600 C   0  0  0  0  0  3  0  0  0  0  0  0
  -23.6160  -29.8340   20.2280 C   0  0  0  0  0  2  0  0  0  0  0  0
  -24.6760  -31.0940   22.1460 N   0  0  0  0  0  0  0  0  0  0  0  0
  -23.5330  -32.1890   23.7780 O   0  0  0  0  0  0  0  0  0  0  0  0
  -22.7340  -29.5030   22.5700 C   0  0  0  0  0  0  0  0  0  0  0  0
  -21.4070  -29.3290   22.4450 N   0  0  0  0  0  0  0  0  0  0  0  0
  -23.4100  -28.8800   23.3920 O   0  0  0  0  0  0  0  0  0  0  0  0
  -20.9200  -29.8820   21.7550 H   0  0  0  0  0  0  0  0  0  0  0  0
  -18.0270  -28.1300   22.9500 C   0  0  0  0  0  0  0  0  0  0  0  0
  -20.5870  -28.3940   23.2180 C   0  0  0  0  0  3  0  0  0  0  0  0
  -20.6880  -26.9590   22.6470 C   0  0  0  0  0  2  0  0  0  0  0  0
  -19.5870  -26.6320   21.6340 C   0  0  0  0  0  2  0  0  0  0  0  0
  -18.2050  -26.7780   22.2770 C   0  0  0  0  0  2  0  0  0  0  0  0
  -19.1460  -28.8940   23.3780 C   0  0  0  0  0  0  0  0  0  0  0  0
  -18.9250  -30.1570   23.9700 C   0  0  0  0  0  3  0  0  0  0  0  0
  -17.6190  -30.6560   24.1370 C   0  0  0  0  0  3  0  0  0  0  0  0
  -16.5160  -29.8880   23.7240 C   0  0  0  0  0  3  0  0  0  0  0  0
  -16.7210  -28.6280   23.1370 C   0  0  0  0  0  3  0  0  0  0  0  0
  -25.9000  -32.5350   23.8660 C   0  0  0  0  0  3  0  0  0  0  0  0
  -25.5960  -33.9360   24.1920 N   0  0  0  0  0  0  0  0  0  0  0  0
  -25.9300  -34.9860   23.4300 C   0  0  0  0  0  0  0  0  0  0  0  0
  -26.5910  -34.8760   22.3940 O   0  0  0  0  0  0  0  0  0  0  0  0
  -25.0060  -34.0940   24.9960 H   0  0  0  0  0  0  0  0  0  0  0  0
  -24.2090  -36.7900   23.0840 C   0  0  0  0  0  1  0  0  0  0  0  0
  -25.4530  -36.3790   23.8890 C   0  0  0  0  0  3  0  0  0  0  0  0
  -27.5990  -37.2510   24.7070 C   0  0  0  0  0  1  0  0  0  0  0  0
  -26.4920  -37.4250   23.7700 N   0  0  0  0  0  0  0  0  0  0  0  0
  -26.0920  -38.3480   23.9170 H   0  0  0  0  0  0  0  0  0  0  0  0
  -26.4110  -31.7670   25.1480 C   0  0  1  0  0  0  0  0  0  0  0  0
  -25.3130  -31.5420   26.2150 C   0  0  0  0  0  1  0  0  0  0  0  0
  -26.9850  -30.3830   24.7670 C   0  0  0  0  0  1  0  0  0  0  0  0
  -27.5680  -32.5570   25.8030 C   0  0  0  0  0  1  0  0  0  0  0  0
  1  7  2  0
  2  3  1  0
  2  4  1  0
  3  5  1  0
  4  6  1  0
  5  6  1  0
  5 17  1  0
  6  1  1  0
  8 20  1  0
  9 14  1  0
 10 11  1  0
 10  9  1  0
 12 11  1  0
 12 26  1  0
 12 13  1  0
 14  8  1  0
 14 13  1  0
 15  8  2  0
 16 21  1  0
 17 16  2  0
 18 21  1  0
 19 17  1  0
 19 18  2  0
 20 18  1  0
 22 20  1  0
 23 24  2  0
 24 43  1  0
 25 24  1  0
 25 28  1  0
 26 23  1  0
 26 27  1  0
 27 25  2  0
 28 29  1  0
 29 30  2  0
 31 34  1  0
 31 30  1  0
 32 31  2  0
 33 32  1  0
 33 28  2  0
 34 35  1  0
 35 36  1  0
 36 37  2  0
 38 37  1  0
 38 42  1  0
 39 38  2  0
 40 35  2  0
 40 39  1  0
 41 40  1  0
 43 44  1  0
 44 47  1  0
 44 46  1  0
 45 43  2  0
 48 49  1  0
 48 23  1  0
 50 48  1  0
 51 52  1  0
 51 56  1  0
 51  1  1  0
 53 52  1  0
 54 52  2  0
 55 54  1  0
 57 68  2  0
 58 56  1  0
 58 63  1  0
 59 67  1  0
 59 69  1  0
 60 66  1  0
 60 62  1  0
 61 67  1  0
 62 61  1  0
 63 62  2  0
 64 65  1  0
 64 58  2  0
 65 60  2  0
 66 59  1  0
 67 57  1  0
 69 71  2  0
 70 69  1  0
 72 70  1  0
 73 82  2  0
 73 78  1  0
 74 70  1  0
 74 78  1  0
 75 74  1  0
 76 77  1  0
 76 75  1  0
 77 73  1  0
 78 79  2  0
 79 80  1  0
 81 80  2  0
 82 81  1  0
 83 57  1  0
 83 84  1  0
 83 93  1  0
 84 87  1  0
 85 89  1  0
 85 84  1  0
 86 85  2  0
 89 88  1  0
 91 89  1  0
 91 92  1  0
 91 90  1  0
 93 96  1  1
 93 94  1  0
 95 93  1  0
M  ISO  4   8 100  20 100  51 101  56 101
M  END
>  <TORSDO>  (68) 
F 18

>  <SCORE>  (68) 
-14.865

>  <name>  (68) 
67

>  <ligand_id>  (68) 
67

>  <original_smiles>  (68) 
[H]N=C(C([H])([H])[H])C([H])(Oc1c([H])c([H])c2c(c1[H])C([H])([H])N(C(=O)C([H])(N([H])C(=O)C([H])(N([H])C([H])([H])[H])C([H])([H])[H])C(C([H])([H])[H])(C([H])([H])[H])C([H])([H])[H])C([H])(C(=O)N([H])C1([H])c3c([H])c([H])c([H])c([H])c3C([H])([H])C([H])([H])C1([H])[H])C2([H])[H])C(=O)N1C([H])([H])C([H])([H])C([H])([H])C1([H])c1nc(N([H])C(=O)N2C([H])([H])C([H])([H])C([H])([H])C([H])(n3nc(-c4c([H])c([H])c(Oc5c([H])c([H])c(F)c([H])c5F)c([H])c4[H])c(C(=O)N([H])[H])c3N([H])[H])C2([H])[H])sc1[H]

>  <smiles>  (68) 
[H]N=C(C([H])([H])[H])C([H])(Oc1c([H])c([H])c2c(c1[H])C([H])([H])N(C(=O)C([H])(N([H])C(=O)C([H])(N([H])C([H])([H])[H])C([H])([H])[H])C(C([H])([H])[H])(C([H])([H])[H])C([H])([H])[H])C([H])(C(=O)N([H])C1([H])c3c([H])c([H])c([H])c([H])c3C([H])([H])C([H])([H])C1([H])[H])C2([H])[H])C(=O)N1C([H])([H])C([H])([H])C([H])([H])C1([H])c1nc(N([H])C(=O)N2C([H])([H])C([H])([H])C([H])([H])C([H])(n3nc(-c4c([H])c([H])c(Oc5c([H])c([H])c(F)c([H])c5F)c([H])c4[H])c(C(=O)N([H])[H])c3N([H])[H])C2([H])[H])sc1[H]

$$$$
68:0:0
     RDKit          3D

 90 99  0  0  1  0  0  0  0  0999 V2000
  -30.4270  -21.7790   18.9790 C   0  0  0  0  0  2  0  0  0  0  0  0
  -30.1110  -23.3170   19.0230 C   0  0  0  0  0  2  0  0  0  0  0  0
  -28.9070  -22.1720   20.7500 C   0  0  0  0  0  2  0  0  0  0  0  0
  -30.0830  -21.1810   20.3540 C   0  0  0  0  0  3  0  0  0  0  0  0
  -29.3190  -23.6550   20.3150 C   0  0  0  0  0  3  0  0  0  0  0  0
  -30.1990  -18.4350   19.7360 C   0  0  0  0  0  3  0  0  0  0  0  0
  -29.8340  -17.7980   21.8320 C   0  0  0  0  0  3  0  0  0  0  0  0
  -30.1050  -17.2620   20.6020 C   0  0  0  0  0  0  0  0  0  0  0  0
  -30.0040  -19.5990   20.5050 C   0  0  0  0  0  0  0  0  0  0  0  0
  -29.7980  -19.1730   21.7900 O   0  0  0  0  0  0  0  0  0  0  0  0
  -30.8620  -14.7530   20.0070 C   0  0  0  0  0  0  0  0  0  0  0  0
  -30.6310  -12.4970   18.9330 C   0  0  0  0  0  2  0  0  0  0  0  0
  -29.6130  -12.6060   17.7740 C   0  0  0  0  0  2  0  0  0  0  0  0
  -28.1660  -12.4370   18.2850 C   0  0  0  0  0  2  0  0  0  0  0  0
  -27.8790  -13.2950   19.5450 C   0  0  0  0  0  3  0  0  0  0  0  0
  -29.0010  -13.1360   20.5960 C   0  0  0  0  0  2  0  0  0  0  0  0
  -30.2670  -13.5110   19.9470 N   0  0  0  0  0  0  0  0  0  0  0  0
  -32.0130  -14.9170   19.5840 O   0  0  0  0  0  0  0  0  0  0  0  0
  -30.0230  -15.7940   20.3700 N   0  0  0  0  0  0  0  0  0  0  0  0
  -29.1540  -15.4050   20.7030 H   0  0  0  0  0  0  0  0  0  0  0  0
  -25.5520  -13.9180   20.4350 C   0  0  0  0  0  0  0  0  0  0  0  0
  -24.4910  -13.1570   20.8410 C   0  0  0  0  0  0  0  0  0  0  0  0
  -24.9160  -11.7970   20.7290 C   0  0  0  0  0  0  0  0  0  0  0  0
  -26.5570  -13.0230   20.1020 N   0  0  0  0  0  0  0  0  0  0  0  0
  -26.1840  -11.7400   20.3410 N   0  0  0  0  0  0  0  0  0  0  0  0
  -24.1700  -10.5460   20.9150 C   0  0  0  0  0  0  0  0  0  0  0  0
  -24.5610   -9.5880   21.8770 C   0  0  0  0  0  3  0  0  0  0  0  0
  -23.8160   -8.4020   22.0490 C   0  0  0  0  0  3  0  0  0  0  0  0
  -22.6660   -8.1640   21.2580 C   0  0  0  0  0  0  0  0  0  0  0  0
  -22.2950   -9.1100   20.2870 C   0  0  0  0  0  3  0  0  0  0  0  0
  -23.0400  -10.2880   20.1130 C   0  0  0  0  0  3  0  0  0  0  0  0
  -21.8970   -7.0290   21.3380 O   0  0  0  0  0  0  0  0  0  0  0  0
  -21.6990   -6.3760   22.5280 C   0  0  0  0  0  0  0  0  0  0  0  0
  -21.1000   -7.0130   23.6370 C   0  0  0  0  0  3  0  0  0  0  0  0
  -20.8520   -6.2850   24.8180 C   0  0  0  0  0  3  0  0  0  0  0  0
  -21.1920   -4.9210   24.8890 C   0  0  0  0  0  0  0  0  0  0  0  0
  -21.7830   -4.2840   23.7850 C   0  0  0  0  0  3  0  0  0  0  0  0
  -22.0330   -5.0080   22.6060 C   0  0  0  0  0  0  0  0  0  0  0  0
  -22.5840   -4.3840   21.5370 F   0  0  0  0  0  0  0  0  0  0  0  0
  -20.9470   -4.2190   26.0200 F   0  0  0  0  0  0  0  0  0  0  0  0
  -23.1250  -13.6550   21.2150 C   0  0  0  0  0  0  0  0  0  0  0  0
  -22.4390  -12.9510   22.1080 N   0  0  0  0  0  0  0  0  0  0  0  0
  -22.6780  -14.7040   20.7510 O   0  0  0  0  0  0  0  0  0  0  0  0
  -22.8140  -12.1010   22.5040 H   0  0  0  0  0  0  0  0  0  0  0  0
  -21.5250  -13.2650   22.4010 H   0  0  0  0  0  0  0  0  0  0  0  0
  -25.7400  -15.2920   20.2990 N   0  0  0  0  0  0  0  0  0  0  0  0
  -24.9890  -15.9520   20.4720 H   0  0  0  0  0  0  0  0  0  0  0  0
  -26.5600  -15.7250   19.8950 H   0  0  0  0  0  0  0  0  0  0  0  0
  -28.1950  -24.8290   20.1900 C   0  0  0  0  0  2  0  0  0  0  0  0
  -28.4580  -26.3160   20.2790 O   0  0  0  0  0  0  0  0  0  0  0  0
  -24.6530  -31.7930   23.2160 C   0  0  0  0  0  0  0  0  0  0  0  0
  -27.3530  -27.2070   20.2090 C   0  0  0  0  0  0  0  0  0  0  0  0
  -23.4910  -30.3800   21.5600 C   0  0  0  0  0  3  0  0  0  0  0  0
  -24.9800  -28.8420   20.1570 C   0  0  0  0  0  0  0  0  0  0  0  0
  -26.0360  -30.7100   21.4220 C   0  0  0  0  0  2  0  0  0  0  0  0
  -26.1400  -29.3290   20.7740 C   0  0  0  0  0  0  0  0  0  0  0  0
  -27.3300  -28.5260   20.7840 C   0  0  0  0  0  3  0  0  0  0  0  0
  -26.1630  -26.7960   19.5630 C   0  0  0  0  0  3  0  0  0  0  0  0
  -24.9980  -27.5840   19.5410 C   0  0  0  0  0  3  0  0  0  0  0  0
  -23.7360  -29.7100   20.1840 C   0  0  0  0  0  2  0  0  0  0  0  0
  -24.7440  -30.9800   22.1220 N   0  0  0  0  0  0  0  0  0  0  0  0
  -23.5570  -32.0610   23.7310 O   0  0  0  0  0  0  0  0  0  0  0  0
  -22.8210  -29.3580   22.5110 C   0  0  0  0  0  0  0  0  0  0  0  0
  -21.5010  -29.1530   22.3500 N   0  0  0  0  0  0  0  0  0  0  0  0
  -23.4880  -28.7540   23.3540 O   0  0  0  0  0  0  0  0  0  0  0  0
  -21.0210  -29.6940   21.6450 H   0  0  0  0  0  0  0  0  0  0  0  0
  -18.1350  -27.8890   22.7730 C   0  0  0  0  0  0  0  0  0  0  0  0
  -20.6810  -28.2050   23.1060 C   0  0  0  0  0  3  0  0  0  0  0  0
  -20.8260  -26.7710   22.5460 C   0  0  0  0  0  2  0  0  0  0  0  0
  -19.7590  -26.4180   21.5070 C   0  0  0  0  0  2  0  0  0  0  0  0
  -18.3580  -26.5390   22.1130 C   0  0  0  0  0  2  0  0  0  0  0  0
  -19.2270  -28.6790   23.2250 C   0  0  0  0  0  0  0  0  0  0  0  0
  -18.9660  -29.9410   23.8010 C   0  0  0  0  0  3  0  0  0  0  0  0
  -17.6470  -30.4160   23.9300 C   0  0  0  0  0  3  0  0  0  0  0  0
  -16.5700  -29.6240   23.4940 C   0  0  0  0  0  3  0  0  0  0  0  0
  -16.8150  -28.3630   22.9210 C   0  0  0  0  0  3  0  0  0  0  0  0
  -25.9170  -32.4410   23.8590 C   0  0  0  0  0  3  0  0  0  0  0  0
  -25.5890  -33.8390   24.1730 N   0  0  0  0  0  0  0  0  0  0  0  0
  -25.8970  -34.8880   23.3990 C   0  0  0  0  0  0  0  0  0  0  0  0
  -26.5560  -34.7810   22.3610 O   0  0  0  0  0  0  0  0  0  0  0  0
  -25.0010  -33.9940   24.9800 H   0  0  0  0  0  0  0  0  0  0  0  0
  -24.1240  -36.6410   23.0630 C   0  0  0  0  0  1  0  0  0  0  0  0
  -25.3950  -36.2750   23.8450 C   0  0  0  0  0  3  0  0  0  0  0  0
  -27.5290  -37.2250   24.6060 C   0  0  0  0  0  1  0  0  0  0  0  0
  -26.4030  -37.3450   23.6840 N   0  0  0  0  0  0  0  0  0  0  0  0
  -25.9810  -38.2600   23.8170 H   0  0  0  0  0  0  0  0  0  0  0  0
  -26.4120  -31.6840   25.1530 C   0  0  1  0  0  0  0  0  0  0  0  0
  -25.2980  -31.4420   26.1970 C   0  0  0  0  0  1  0  0  0  0  0  0
  -27.0200  -30.3100   24.7860 C   0  0  0  0  0  1  0  0  0  0  0  0
  -27.5390  -32.4970   25.8340 C   0  0  0  0  0  1  0  0  0  0  0  0
  1  2  1  0
  1  4  1  0
  2  5  1  0
  4  9  1  0
  4  3  1  0
  5 49  1  0
  5  3  1  0
  6  9  2  0
  6  8  1  0
  8  7  2  0
  9 10  1  0
 10  7  1  0
 11 19  1  0
 12 17  1  0
 13 14  1  0
 13 12  1  0
 15 14  1  0
 15 24  1  0
 15 16  1  0
 17 11  1  0
 17 16  1  0
 18 11  2  0
 19  8  1  0
 19 20  1  0
 21 22  2  0
 22 41  1  0
 23 22  1  0
 23 26  1  0
 24 25  1  0
 24 21  1  0
 25 23  2  0
 26 27  1  0
 27 28  2  0
 29 32  1  0
 29 28  1  0
 30 29  2  0
 31 30  1  0
 31 26  2  0
 32 33  1  0
 33 38  2  0
 33 34  1  0
 34 35  2  0
 35 36  1  0
 36 40  1  0
 37 36  2  0
 38 37  1  0
 39 38  1  0
 41 42  1  0
 42 45  1  0
 42 44  1  0
 43 41  2  0
 46 21  1  0
 46 47  1  0
 48 46  1  0
 49 50  1  0
 51 62  2  0
 52 50  1  0
 52 57  1  0
 53 61  1  0
 53 63  1  0
 54 60  1  0
 54 56  1  0
 55 61  1  0
 56 57  2  0
 56 55  1  0
 58 52  2  0
 59 58  1  0
 59 54  2  0
 60 53  1  0
 61 51  1  0
 63 65  2  0
 64 63  1  0
 66 64  1  0
 67 76  2  0
 67 72  1  0
 68 64  1  0
 68 72  1  0
 69 68  1  0
 70 71  1  0
 70 69  1  0
 71 67  1  0
 72 73  2  0
 73 74  1  0
 75 74  2  0
 76 75  1  0
 77 51  1  0
 77 78  1  0
 77 87  1  0
 78 81  1  0
 79 83  1  0
 79 78  1  0
 80 79  2  0
 83 82  1  0
 85 86  1  0
 85 83  1  0
 85 84  1  0
 87 90  1  1
 87 88  1  0
 89 87  1  0
M  ISO  4  11 100  19 100  49 101  50 101
M  END
>  <TORSDO>  (69) 
F 18

>  <SCORE>  (69) 
-13.577

>  <name>  (69) 
68

>  <ligand_id>  (69) 
68

>  <original_smiles>  (69) 
[H]c1oc(C2([H])C([H])([H])C([H])([H])C([H])(C([H])([H])Oc3c([H])c([H])c4c(c3[H])C([H])([H])N(C(=O)C([H])(N([H])C(=O)C([H])(N([H])C([H])([H])[H])C([H])([H])[H])C(C([H])([H])[H])(C([H])([H])[H])C([H])([H])[H])C([H])(C(=O)N([H])C3([H])c5c([H])c([H])c([H])c([H])c5C([H])([H])C([H])([H])C3([H])[H])C4([H])[H])C2([H])[H])c([H])c1N([H])C(=O)N1C([H])([H])C([H])([H])C([H])([H])C([H])(n2nc(-c3c([H])c([H])c(Oc4c([H])c([H])c(F)c([H])c4F)c([H])c3[H])c(C(=O)N([H])[H])c2N([H])[H])C1([H])[H]

>  <smiles>  (69) 
[H]c1oc(C2([H])C([H])([H])C([H])([H])C([H])(C([H])([H])Oc3c([H])c([H])c4c(c3[H])C([H])([H])N(C(=O)C([H])(N([H])C(=O)C([H])(N([H])C([H])([H])[H])C([H])([H])[H])C(C([H])([H])[H])(C([H])([H])[H])C([H])([H])[H])C([H])(C(=O)N([H])C3([H])c5c([H])c([H])c([H])c([H])c5C([H])([H])C([H])([H])C3([H])[H])C4([H])[H])C2([H])[H])c([H])c1N([H])C(=O)N1C([H])([H])C([H])([H])C([H])([H])C([H])(n2nc(-c3c([H])c([H])c(Oc4c([H])c([H])c(F)c([H])c4F)c([H])c3[H])c(C(=O)N([H])[H])c2N([H])[H])C1([H])[H]

$$$$
69:0:0
     RDKit          3D

 93102  0  0  1  0  0  0  0  0999 V2000
  -29.1890  -24.1790   20.4820 C   0  0  0  0  0  0  0  0  0  0  0  0
  -28.7010  -21.8790   17.8020 C   0  0  0  0  0  2  0  0  0  0  0  0
  -29.1600  -20.5180   18.3460 C   0  0  0  0  0  2  0  0  0  0  0  0
  -29.6210  -22.9820   18.3370 C   0  0  0  0  0  2  0  0  0  0  0  0
  -30.0280  -21.7760   20.4280 C   0  0  0  0  0  2  0  0  0  0  0  0
  -29.2930  -20.4900   19.8860 C   0  0  0  0  0  3  0  0  0  0  0  0
  -29.5200  -23.0370   19.8020 N   0  0  0  0  0  0  0  0  0  0  0  0
  -29.5930  -24.3770   21.6340 O   0  0  0  0  0  0  0  0  0  0  0  0
  -29.1770  -17.9380   20.7130 C   0  0  0  0  0  3  0  0  0  0  0  0
  -29.8720  -19.1230   20.2980 C   0  0  0  0  0  0  0  0  0  0  0  0
  -30.1280  -16.9450   20.6740 C   0  0  0  0  0  0  0  0  0  0  0  0
  -31.1600  -18.8480   20.1000 N   0  0  0  0  0  0  0  0  0  0  0  0
  -31.3350  -17.4730   20.3400 O   0  0  0  0  0  0  0  0  0  0  0  0
  -30.6380  -14.5590   20.4500 C   0  0  0  0  0  0  0  0  0  0  0  0
  -30.3470  -12.3710   19.3390 C   0  0  0  0  0  2  0  0  0  0  0  0
  -29.3970  -12.5620   18.1380 C   0  0  0  0  0  2  0  0  0  0  0  0
  -27.9260  -12.4190   18.5760 C   0  0  0  0  0  2  0  0  0  0  0  0
  -27.5940  -13.2620   19.8360 C   0  0  0  0  0  3  0  0  0  0  0  0
  -28.6590  -13.0610   20.9390 C   0  0  0  0  0  2  0  0  0  0  0  0
  -29.9760  -13.3680   20.3590 N   0  0  0  0  0  0  0  0  0  0  0  0
  -31.7880  -14.6960   20.0230 O   0  0  0  0  0  0  0  0  0  0  0  0
  -29.8930  -15.6090   20.8750 N   0  0  0  0  0  0  0  0  0  0  0  0
  -28.9720  -15.3710   21.2020 H   0  0  0  0  0  0  0  0  0  0  0  0
  -25.2070  -13.8740   20.5740 C   0  0  0  0  0  0  0  0  0  0  0  0
  -24.1380  -13.1040   20.9460 C   0  0  0  0  0  0  0  0  0  0  0  0
  -24.5910  -11.7500   20.8990 C   0  0  0  0  0  0  0  0  0  0  0  0
  -26.2450  -12.9890   20.3250 N   0  0  0  0  0  0  0  0  0  0  0  0
  -25.8790  -11.7060   20.5790 N   0  0  0  0  0  0  0  0  0  0  0  0
  -23.8600  -10.4910   21.0840 C   0  0  0  0  0  0  0  0  0  0  0  0
  -24.2970   -9.5090   22.0000 C   0  0  0  0  0  3  0  0  0  0  0  0
  -23.5660   -8.3140   22.1740 C   0  0  0  0  0  3  0  0  0  0  0  0
  -22.3820   -8.0930   21.4300 C   0  0  0  0  0  0  0  0  0  0  0  0
  -21.9630   -9.0630   20.5040 C   0  0  0  0  0  3  0  0  0  0  0  0
  -22.6950  -10.2500   20.3290 C   0  0  0  0  0  3  0  0  0  0  0  0
  -21.6210   -6.9530   21.5160 O   0  0  0  0  0  0  0  0  0  0  0  0
  -21.5850   -6.1940   22.6590 C   0  0  0  0  0  0  0  0  0  0  0  0
  -21.1690   -6.7310   23.8970 C   0  0  0  0  0  3  0  0  0  0  0  0
  -21.0820   -5.9000   25.0310 C   0  0  0  0  0  3  0  0  0  0  0  0
  -21.3970   -4.5320   24.9280 C   0  0  0  0  0  0  0  0  0  0  0  0
  -21.8040   -3.9950   23.6940 C   0  0  0  0  0  3  0  0  0  0  0  0
  -21.8950   -4.8230   22.5630 C   0  0  0  0  0  0  0  0  0  0  0  0
  -22.2690   -4.2950   21.3710 F   0  0  0  0  0  0  0  0  0  0  0  0
  -21.3050   -3.7320   26.0150 F   0  0  0  0  0  0  0  0  0  0  0  0
  -22.7450  -13.5880   21.2330 C   0  0  0  0  0  0  0  0  0  0  0  0
  -22.0190  -12.8880   22.0990 N   0  0  0  0  0  0  0  0  0  0  0  0
  -22.3100  -14.6200   20.7260 O   0  0  0  0  0  0  0  0  0  0  0  0
  -22.3840  -12.0520   22.5300 H   0  0  0  0  0  0  0  0  0  0  0  0
  -21.0860  -13.1950   22.3340 H   0  0  0  0  0  0  0  0  0  0  0  0
  -25.3780  -15.2450   20.4060 N   0  0  0  0  0  0  0  0  0  0  0  0
  -24.6130  -15.9000   20.5220 H   0  0  0  0  0  0  0  0  0  0  0  0
  -26.2190  -15.6810   20.0490 H   0  0  0  0  0  0  0  0  0  0  0  0
  -28.1380  -25.1700   19.8860 C   0  0  0  0  0  2  0  0  0  0  0  0
  -28.3360  -26.5830   20.2050 O   0  0  0  0  0  0  0  0  0  0  0  0
  -24.5790  -31.8830   23.2400 C   0  0  0  0  0  0  0  0  0  0  0  0
  -27.1980  -27.3890   20.1510 C   0  0  0  0  0  0  0  0  0  0  0  0
  -23.3690  -30.4850   21.6000 C   0  0  0  0  0  3  0  0  0  0  0  0
  -24.8170  -28.9560   20.1630 C   0  0  0  0  0  0  0  0  0  0  0  0
  -25.9030  -30.8240   21.4060 C   0  0  0  0  0  2  0  0  0  0  0  0
  -25.9830  -29.4550   20.7560 C   0  0  0  0  0  0  0  0  0  0  0  0
  -27.1760  -28.6810   20.7450 C   0  0  0  0  0  3  0  0  0  0  0  0
  -26.0070  -26.9390   19.5270 C   0  0  0  0  0  3  0  0  0  0  0  0
  -24.8280  -27.7000   19.5430 C   0  0  0  0  0  3  0  0  0  0  0  0
  -23.5770  -29.8180   20.2160 C   0  0  0  0  0  2  0  0  0  0  0  0
  -24.6340  -31.0800   22.1380 N   0  0  0  0  0  0  0  0  0  0  0  0
  -23.4980  -32.1560   23.7810 O   0  0  0  0  0  0  0  0  0  0  0  0
  -22.7190  -29.4600   22.5580 C   0  0  0  0  0  0  0  0  0  0  0  0
  -21.3930  -29.2800   22.4340 N   0  0  0  0  0  0  0  0  0  0  0  0
  -23.4030  -28.8330   23.3710 O   0  0  0  0  0  0  0  0  0  0  0  0
  -20.9030  -29.8390   21.7510 H   0  0  0  0  0  0  0  0  0  0  0  0
  -18.0160  -28.0920   22.9470 C   0  0  0  0  0  0  0  0  0  0  0  0
  -20.5760  -28.3420   23.2040 C   0  0  0  0  0  3  0  0  0  0  0  0
  -20.6700  -26.9120   22.6230 C   0  0  0  0  0  2  0  0  0  0  0  0
  -19.5630  -26.5960   21.6110 C   0  0  0  0  0  2  0  0  0  0  0  0
  -18.1840  -26.7450   22.2630 C   0  0  0  0  0  2  0  0  0  0  0  0
  -19.1390  -28.8480   23.3740 C   0  0  0  0  0  0  0  0  0  0  0  0
  -18.9300  -30.1100   23.9720 C   0  0  0  0  0  3  0  0  0  0  0  0
  -17.6280  -30.6150   24.1480 C   0  0  0  0  0  3  0  0  0  0  0  0
  -16.5190  -29.8540   23.7390 C   0  0  0  0  0  3  0  0  0  0  0  0
  -16.7140  -28.5950   23.1450 C   0  0  0  0  0  3  0  0  0  0  0  0
  -25.8660  -32.5130   23.8570 C   0  0  0  0  0  3  0  0  0  0  0  0
  -25.5600  -33.9110   24.1880 N   0  0  0  0  0  0  0  0  0  0  0  0
  -25.8770  -34.9610   23.4210 C   0  0  0  0  0  0  0  0  0  0  0  0
  -26.5310  -34.8590   22.3800 O   0  0  0  0  0  0  0  0  0  0  0  0
  -24.9840  -34.0650   25.0020 H   0  0  0  0  0  0  0  0  0  0  0  0
  -24.1380  -36.7470   23.0820 C   0  0  0  0  0  1  0  0  0  0  0  0
  -25.3900  -36.3490   23.8810 C   0  0  0  0  0  3  0  0  0  0  0  0
  -27.5290  -37.2440   24.6900 C   0  0  0  0  0  1  0  0  0  0  0  0
  -26.4180  -37.4040   23.7540 N   0  0  0  0  0  0  0  0  0  0  0  0
  -26.0100  -38.3240   23.9010 H   0  0  0  0  0  0  0  0  0  0  0  0
  -26.3870  -31.7410   25.1300 C   0  0  1  0  0  0  0  0  0  0  0  0
  -25.2990  -31.5000   26.2000 C   0  0  0  0  0  1  0  0  0  0  0  0
  -26.9730  -30.3650   24.7360 C   0  0  0  0  0  1  0  0  0  0  0  0
  -27.5380  -32.5370   25.7900 C   0  0  0  0  0  1  0  0  0  0  0  0
  1  8  2  0
  2  4  1  0
  2  3  1  0
  3  6  1  0
  4  7  1  0
  6 10  1  0
  6  5  1  0
  7  5  1  0
  7  1  1  0
 10  9  1  0
 11  9  2  0
 11 22  1  0
 12 10  2  0
 12 13  1  0
 13 11  1  0
 14 22  1  0
 15 20  1  0
 16 17  1  0
 16 15  1  0
 18 17  1  0
 18 27  1  0
 18 19  1  0
 20 14  1  0
 20 19  1  0
 21 14  2  0
 22 23  1  0
 24 25  2  0
 25 44  1  0
 26 25  1  0
 26 29  1  0
 27 24  1  0
 27 28  1  0
 28 26  2  0
 29 30  1  0
 30 31  2  0
 32 35  1  0
 32 31  1  0
 33 32  2  0
 34 33  1  0
 34 29  2  0
 35 36  1  0
 36 37  1  0
 37 38  2  0
 39 38  1  0
 39 43  1  0
 40 39  2  0
 41 36  2  0
 41 40  1  0
 42 41  1  0
 44 45  1  0
 45 48  1  0
 45 47  1  0
 46 44  2  0
 49 50  1  0
 49 24  1  0
 51 49  1  0
 52 53  1  0
 52  1  1  0
 54 65  2  0
 55 53  1  0
 55 60  1  0
 56 64  1  0
 56 66  1  0
 57 63  1  0
 57 59  1  0
 58 64  1  0
 59 58  1  0
 60 59  2  0
 61 62  1  0
 61 55  2  0
 62 57  2  0
 63 56  1  0
 64 54  1  0
 66 68  2  0
 67 66  1  0
 69 67  1  0
 70 79  2  0
 70 75  1  0
 71 67  1  0
 71 75  1  0
 72 71  1  0
 73 74  1  0
 73 72  1  0
 74 70  1  0
 75 76  2  0
 76 77  1  0
 78 77  2  0
 79 78  1  0
 80 54  1  0
 80 81  1  0
 80 90  1  0
 81 84  1  0
 82 86  1  0
 82 81  1  0
 83 82  2  0
 86 85  1  0
 88 86  1  0
 88 89  1  0
 88 87  1  0
 90 93  1  1
 90 91  1  0
 92 90  1  0
M  ISO  4  14 100  22 100  52 101  53 101
M  END
>  <TORSDO>  (70) 
F 18

>  <SCORE>  (70) 
-14.830

>  <name>  (70) 
69

>  <ligand_id>  (70) 
69

>  <original_smiles>  (70) 
[H]c1c(C2([H])C([H])([H])N(C(=O)C([H])([H])Oc3c([H])c([H])c4c(c3[H])C([H])([H])N(C(=O)C([H])(N([H])C(=O)C([H])(N([H])C([H])([H])[H])C([H])([H])[H])C(C([H])([H])[H])(C([H])([H])[H])C([H])([H])[H])C([H])(C(=O)N([H])C3([H])c5c([H])c([H])c([H])c([H])c5C([H])([H])C([H])([H])C3([H])[H])C4([H])[H])C([H])([H])C([H])([H])C2([H])[H])noc1N([H])C(=O)N1C([H])([H])C([H])([H])C([H])([H])C([H])(n2nc(-c3c([H])c([H])c(Oc4c([H])c([H])c(F)c([H])c4F)c([H])c3[H])c(C(=O)N([H])[H])c2N([H])[H])C1([H])[H]

>  <smiles>  (70) 
[H]c1c(C2([H])C([H])([H])N(C(=O)C([H])([H])Oc3c([H])c([H])c4c(c3[H])C([H])([H])N(C(=O)C([H])(N([H])C(=O)C([H])(N([H])C([H])([H])[H])C([H])([H])[H])C(C([H])([H])[H])(C([H])([H])[H])C([H])([H])[H])C([H])(C(=O)N([H])C3([H])c5c([H])c([H])c([H])c([H])c5C([H])([H])C([H])([H])C3([H])[H])C4([H])[H])C([H])([H])C([H])([H])C2([H])[H])noc1N([H])C(=O)N1C([H])([H])C([H])([H])C([H])([H])C([H])(n2nc(-c3c([H])c([H])c(Oc4c([H])c([H])c(F)c([H])c4F)c([H])c3[H])c(C(=O)N([H])[H])c2N([H])[H])C1([H])[H]

$$$$
70:0:0
     RDKit          3D

 90 99  0  0  1  0  0  0  0  0999 V2000
  -28.9140  -23.5480   20.1030 C   0  0  0  0  0  0  0  0  0  0  0  0
  -28.4640  -22.2550   20.4160 N   0  0  0  0  0  0  0  0  0  0  0  0
  -30.0080  -23.7270   19.5620 O   0  0  0  0  0  0  0  0  0  0  0  0
  -27.5560  -22.3130   20.8550 H   0  0  0  0  0  0  0  0  0  0  0  0
  -30.7790  -14.9460   19.9150 C   0  0  0  0  0  0  0  0  0  0  0  0
  -30.4870  -12.6480   18.9310 C   0  0  0  0  0  2  0  0  0  0  0  0
  -29.4840  -12.6420   17.7590 C   0  0  0  0  0  2  0  0  0  0  0  0
  -28.0540  -12.4290   18.2850 C   0  0  0  0  0  2  0  0  0  0  0  0
  -27.7260  -13.3360   19.5020 C   0  0  0  0  0  3  0  0  0  0  0  0
  -28.8560  -13.3460   20.5550 C   0  0  0  0  0  2  0  0  0  0  0  0
  -30.0840  -13.7440   19.8580 N   0  0  0  0  0  0  0  0  0  0  0  0
  -31.9620  -14.9140   19.5610 O   0  0  0  0  0  0  0  0  0  0  0  0
  -30.0050  -20.2260   19.7300 C   0  0  0  0  0  3  0  0  0  0  0  0
  -30.0080  -18.7480   19.8740 C   0  0  0  0  0  0  0  0  0  0  0  0
  -28.9490  -18.2730   20.5340 C   0  0  0  0  0  0  0  0  0  0  0  0
  -28.9020  -20.9000   20.3000 C   0  0  0  0  0  0  0  0  0  0  0  0
  -30.8510  -17.5050   19.5070 C   0  0  0  0  0  3  0  0  0  0  0  0
  -28.9370  -16.7440   20.6830 C   0  0  0  0  0  3  0  0  0  0  0  0
  -30.1640  -16.2250   19.9860 N   0  0  0  0  0  0  0  0  0  0  0  0
  -27.8830  -19.6010   21.0180 S   0  0  0  0  0  0  0  0  0  0  0  0
  -25.4030  -13.8820   20.4260 C   0  0  0  0  0  0  0  0  0  0  0  0
  -24.3680  -13.0910   20.8410 C   0  0  0  0  0  0  0  0  0  0  0  0
  -24.8300  -11.7430   20.7290 C   0  0  0  0  0  0  0  0  0  0  0  0
  -26.4280  -13.0160   20.0840 N   0  0  0  0  0  0  0  0  0  0  0  0
  -26.0980  -11.7230   20.3320 N   0  0  0  0  0  0  0  0  0  0  0  0
  -24.1170  -10.4740   20.9190 C   0  0  0  0  0  0  0  0  0  0  0  0
  -24.5500   -9.5180   21.8650 C   0  0  0  0  0  3  0  0  0  0  0  0
  -23.8350   -8.3140   22.0450 C   0  0  0  0  0  3  0  0  0  0  0  0
  -22.6730   -8.0580   21.2780 C   0  0  0  0  0  0  0  0  0  0  0  0
  -22.2610   -9.0020   20.3210 C   0  0  0  0  0  3  0  0  0  0  0  0
  -22.9770  -10.1970   20.1400 C   0  0  0  0  0  3  0  0  0  0  0  0
  -21.9300   -6.9060   21.3650 O   0  0  0  0  0  0  0  0  0  0  0  0
  -21.7830   -6.2330   22.5520 C   0  0  0  0  0  0  0  0  0  0  0  0
  -21.2230   -6.8470   23.6930 C   0  0  0  0  0  3  0  0  0  0  0  0
  -21.0270   -6.0980   24.8700 C   0  0  0  0  0  3  0  0  0  0  0  0
  -21.3810   -4.7370   24.9070 C   0  0  0  0  0  0  0  0  0  0  0  0
  -21.9340   -4.1220   23.7700 C   0  0  0  0  0  3  0  0  0  0  0  0
  -22.1320   -4.8670   22.5950 C   0  0  0  0  0  0  0  0  0  0  0  0
  -22.6460   -4.2650   21.4960 F   0  0  0  0  0  0  0  0  0  0  0  0
  -21.1860   -4.0150   26.0360 F   0  0  0  0  0  0  0  0  0  0  0  0
  -22.9930  -13.5550   21.2210 C   0  0  0  0  0  0  0  0  0  0  0  0
  -22.3290  -12.8340   22.1180 N   0  0  0  0  0  0  0  0  0  0  0  0
  -22.5190  -14.5920   20.7600 O   0  0  0  0  0  0  0  0  0  0  0  0
  -22.7270  -11.9950   22.5130 H   0  0  0  0  0  0  0  0  0  0  0  0
  -21.4080  -13.1270   22.4150 H   0  0  0  0  0  0  0  0  0  0  0  0
  -25.5450  -15.2580   20.2820 N   0  0  0  0  0  0  0  0  0  0  0  0
  -24.7760  -15.8940   20.4610 H   0  0  0  0  0  0  0  0  0  0  0  0
  -26.3420  -15.7100   19.8560 H   0  0  0  0  0  0  0  0  0  0  0  0
  -27.9750  -24.8400   20.4560 C   0  0  0  0  0  2  0  0  0  0  0  0
  -28.3340  -26.2920   20.0960 O   0  0  0  0  0  0  0  0  0  0  0  0
  -24.6190  -31.8450   23.1340 C   0  0  0  0  0  0  0  0  0  0  0  0
  -27.2720  -27.2510   20.0530 C   0  0  0  0  0  0  0  0  0  0  0  0
  -23.4430  -30.4530   21.4750 C   0  0  0  0  0  3  0  0  0  0  0  0
  -24.9180  -28.9290   20.0330 C   0  0  0  0  0  0  0  0  0  0  0  0
  -25.9890  -30.7710   21.3170 C   0  0  0  0  0  2  0  0  0  0  0  0
  -26.0870  -29.3920   20.6520 C   0  0  0  0  0  0  0  0  0  0  0  0
  -27.2680  -28.5680   20.6490 C   0  0  0  0  0  3  0  0  0  0  0  0
  -26.0860  -26.8900   19.3770 C   0  0  0  0  0  3  0  0  0  0  0  0
  -24.9270  -27.6890   19.3810 C   0  0  0  0  0  3  0  0  0  0  0  0
  -23.6750  -29.7990   20.0870 C   0  0  0  0  0  2  0  0  0  0  0  0
  -24.7030  -31.0420   22.0300 N   0  0  0  0  0  0  0  0  0  0  0  0
  -23.5280  -32.1060   23.6630 O   0  0  0  0  0  0  0  0  0  0  0  0
  -22.7810  -29.4190   22.4200 C   0  0  0  0  0  0  0  0  0  0  0  0
  -21.4530  -29.2430   22.3000 N   0  0  0  0  0  0  0  0  0  0  0  0
  -23.4640  -28.7800   23.2250 O   0  0  0  0  0  0  0  0  0  0  0  0
  -20.9600  -29.8110   21.6250 H   0  0  0  0  0  0  0  0  0  0  0  0
  -18.0740  -28.0610   22.8450 C   0  0  0  0  0  0  0  0  0  0  0  0
  -20.6410  -28.2890   23.0600 C   0  0  0  0  0  3  0  0  0  0  0  0
  -20.7150  -26.8760   22.4370 C   0  0  0  0  0  2  0  0  0  0  0  0
  -19.5850  -26.5960   21.4400 C   0  0  0  0  0  2  0  0  0  0  0  0
  -18.2210  -26.7330   22.1210 C   0  0  0  0  0  2  0  0  0  0  0  0
  -19.2100  -28.7990   23.2710 C   0  0  0  0  0  0  0  0  0  0  0  0
  -19.0170  -30.0440   23.9110 C   0  0  0  0  0  3  0  0  0  0  0  0
  -17.7220  -30.5500   24.1260 C   0  0  0  0  0  3  0  0  0  0  0  0
  -16.6000  -29.8080   23.7140 C   0  0  0  0  0  3  0  0  0  0  0  0
  -16.7780  -28.5660   23.0800 C   0  0  0  0  0  3  0  0  0  0  0  0
  -25.8870  -32.4900   23.7690 C   0  0  0  0  0  3  0  0  0  0  0  0
  -25.5550  -33.8790   24.1200 N   0  0  0  0  0  0  0  0  0  0  0  0
  -25.8530  -34.9480   23.3700 C   0  0  0  0  0  0  0  0  0  0  0  0
  -26.5050  -34.8710   22.3260 O   0  0  0  0  0  0  0  0  0  0  0  0
  -24.9710  -34.0120   24.9330 H   0  0  0  0  0  0  0  0  0  0  0  0
  -24.0840  -36.7140   23.0710 C   0  0  0  0  0  1  0  0  0  0  0  0
  -25.3480  -36.3230   23.8540 C   0  0  0  0  0  3  0  0  0  0  0  0
  -27.4770  -37.2430   24.6610 C   0  0  0  0  0  1  0  0  0  0  0  0
  -26.3580  -37.3970   23.7350 N   0  0  0  0  0  0  0  0  0  0  0  0
  -25.9360  -38.3080   23.8930 H   0  0  0  0  0  0  0  0  0  0  0  0
  -26.4080  -31.7110   25.0400 C   0  0  1  0  0  0  0  0  0  0  0  0
  -25.3130  -31.4450   26.0990 C   0  0  0  0  0  1  0  0  0  0  0  0
  -27.0140  -30.3460   24.6390 C   0  0  0  0  0  1  0  0  0  0  0  0
  -27.5430  -32.5150   25.7180 C   0  0  0  0  0  1  0  0  0  0  0  0
  1  2  1  0
  1 49  1  0
  2  4  1  0
  3  1  2  0
  5 19  1  0
  6 11  1  0
  7  8  1  0
  7  6  1  0
  9  8  1  0
  9 24  1  0
  9 10  1  0
 11  5  1  0
 11 10  1  0
 12  5  2  0
 13 14  1  0
 13 16  2  0
 14 15  1  0
 15 18  2  0
 15 20  1  0
 16  2  1  0
 16 20  1  0
 17 14  2  0
 17 19  1  0
 19 18  1  0
 21 22  2  0
 22 41  1  0
 23 22  1  0
 23 26  1  0
 24 25  1  0
 24 21  1  0
 25 23  2  0
 26 27  1  0
 27 28  2  0
 29 32  1  0
 29 28  1  0
 30 29  2  0
 31 30  1  0
 31 26  2  0
 32 33  1  0
 33 38  2  0
 33 34  1  0
 34 35  2  0
 35 36  1  0
 36 40  1  0
 37 36  2  0
 38 37  1  0
 39 38  1  0
 41 42  1  0
 42 45  1  0
 42 44  1  0
 43 41  2  0
 46 21  1  0
 46 47  1  0
 48 46  1  0
 50 49  1  0
 51 62  2  0
 52 50  1  0
 52 57  1  0
 53 61  1  0
 53 63  1  0
 54 60  1  0
 54 56  1  0
 55 61  1  0
 56 55  1  0
 57 56  2  0
 58 59  1  0
 58 52  2  0
 59 54  2  0
 60 53  1  0
 61 51  1  0
 63 65  2  0
 64 63  1  0
 66 64  1  0
 67 76  2  0
 67 72  1  0
 68 64  1  0
 68 72  1  0
 69 68  1  0
 70 71  1  0
 70 69  1  0
 71 67  1  0
 72 73  2  0
 73 74  1  0
 75 74  2  0
 76 75  1  0
 77 51  1  0
 77 78  1  0
 77 87  1  0
 78 81  1  0
 79 83  1  0
 79 78  1  0
 80 79  2  0
 83 82  1  0
 85 83  1  0
 85 86  1  0
 85 84  1  0
 87 90  1  1
 87 88  1  0
 89 87  1  0
M  ISO  4   5 100  19 100  49 101  50 101
M  END
>  <TORSDO>  (71) 
F 17

>  <SCORE>  (71) 
-13.764

>  <name>  (71) 
70

>  <ligand_id>  (71) 
70

>  <original_smiles>  (71) 
[H]c1c([H])c([H])c2c(c1[H])C([H])([H])C([H])([H])C([H])([H])C2([H])N([H])C(=O)C1([H])N(C(=O)C([H])(N([H])C(=O)C([H])(N([H])C([H])([H])[H])C([H])([H])[H])C(C([H])([H])[H])(C([H])([H])[H])C([H])([H])[H])C([H])([H])c2c([H])c(OC([H])([H])C(=O)N([H])c3sc4c(c3[H])C([H])([H])N(C(=O)N3C([H])([H])C([H])([H])C([H])([H])C([H])(n5nc(-c6c([H])c([H])c(Oc7c([H])c([H])c(F)c([H])c7F)c([H])c6[H])c(C(=O)N([H])[H])c5N([H])[H])C3([H])[H])C4([H])[H])c([H])c([H])c2C1([H])[H]

>  <smiles>  (71) 
[H]c1c([H])c([H])c2c(c1[H])C([H])([H])C([H])([H])C([H])([H])C2([H])N([H])C(=O)C1([H])N(C(=O)C([H])(N([H])C(=O)C([H])(N([H])C([H])([H])[H])C([H])([H])[H])C(C([H])([H])[H])(C([H])([H])[H])C([H])([H])[H])C([H])([H])c2c([H])c(OC([H])([H])C(=O)N([H])c3sc4c(c3[H])C([H])([H])N(C(=O)N3C([H])([H])C([H])([H])C([H])([H])C([H])(n5nc(-c6c([H])c([H])c(Oc7c([H])c([H])c(F)c([H])c7F)c([H])c6[H])c(C(=O)N([H])[H])c5N([H])[H])C3([H])[H])C4([H])[H])c([H])c([H])c2C1([H])[H]

$$$$
71:0:0
     RDKit          3D

 95104  0  0  1  0  0  0  0  0999 V2000
  -29.3110  -21.9370   19.5820 C   0  0  0  0  0  2  0  0  0  0  0  0
  -28.7540  -21.5320   21.9050 C   0  0  0  0  0  2  0  0  0  0  0  0
  -29.3690  -23.4980   19.8320 C   0  0  0  0  0  2  0  0  0  0  0  0
  -28.8110  -23.0950   22.1740 C   0  0  0  0  0  2  0  0  0  0  0  0
  -29.7340  -21.0670   20.8010 C   0  0  0  0  0  3  0  0  0  0  0  0
  -28.5780  -24.0280   20.9950 N   0  0  1  0  0  4  0  0  0  0  0  0
  -27.6000  -23.9570   20.7560 H   0  0  0  0  0  0  0  0  0  0  0  0
  -29.3130  -18.2710   20.9250 C   0  0  0  0  0  3  0  0  0  0  0  0
  -29.9650  -19.5140   20.5390 C   0  0  0  0  0  0  0  0  0  0  0  0
  -30.1080  -17.2270   20.4440 C   0  0  0  0  0  0  0  0  0  0  0  0
  -31.0590  -19.1820   19.8490 N   0  0  0  0  0  0  0  0  0  0  0  0
  -31.1580  -17.7770   19.7800 O   0  0  0  0  0  0  0  0  0  0  0  0
  -30.6640  -14.7810   20.1050 C   0  0  0  0  0  0  0  0  0  0  0  0
  -30.4270  -12.5420   19.0110 C   0  0  0  0  0  2  0  0  0  0  0  0
  -29.4320  -12.6700   17.8350 C   0  0  0  0  0  2  0  0  0  0  0  0
  -27.9800  -12.4940   18.3230 C   0  0  0  0  0  2  0  0  0  0  0  0
  -27.6720  -13.3360   19.5910 C   0  0  0  0  0  3  0  0  0  0  0  0
  -28.7770  -13.1750   20.6570 C   0  0  0  0  0  2  0  0  0  0  0  0
  -30.0530  -13.5490   20.0320 N   0  0  0  0  0  0  0  0  0  0  0  0
  -31.8080  -14.9200   19.6530 O   0  0  0  0  0  0  0  0  0  0  0  0
  -29.9110  -15.8480   20.5600 N   0  0  0  0  0  0  0  0  0  0  0  0
  -29.0270  -15.5860   20.9650 H   0  0  0  0  0  0  0  0  0  0  0  0
  -25.3180  -13.9230   20.4240 C   0  0  0  0  0  0  0  0  0  0  0  0
  -24.2700  -13.1440   20.8310 C   0  0  0  0  0  0  0  0  0  0  0  0
  -24.7280  -11.7930   20.7600 C   0  0  0  0  0  0  0  0  0  0  0  0
  -26.3480  -13.0450   20.1300 N   0  0  0  0  0  0  0  0  0  0  0  0
  -26.0030  -11.7590   20.3920 N   0  0  0  0  0  0  0  0  0  0  0  0
  -24.0090  -10.5280   20.9650 C   0  0  0  0  0  0  0  0  0  0  0  0
  -24.4680   -9.5590   21.8850 C   0  0  0  0  0  3  0  0  0  0  0  0
  -23.7500   -8.3600   22.0790 C   0  0  0  0  0  3  0  0  0  0  0  0
  -22.5600   -8.1210   21.3510 C   0  0  0  0  0  0  0  0  0  0  0  0
  -22.1180   -9.0790   20.4240 C   0  0  0  0  0  3  0  0  0  0  0  0
  -22.8370  -10.2700   20.2270 C   0  0  0  0  0  3  0  0  0  0  0  0
  -21.8080   -6.9750   21.4580 O   0  0  0  0  0  0  0  0  0  0  0  0
  -21.7720   -6.2410   22.6160 C   0  0  0  0  0  0  0  0  0  0  0  0
  -21.3320   -6.7990   23.8360 C   0  0  0  0  0  3  0  0  0  0  0  0
  -21.2440   -5.9890   24.9870 C   0  0  0  0  0  3  0  0  0  0  0  0
  -21.5860   -4.6260   24.9180 C   0  0  0  0  0  0  0  0  0  0  0  0
  -22.0220   -4.0690   23.7030 C   0  0  0  0  0  3  0  0  0  0  0  0
  -22.1110   -4.8750   22.5550 C   0  0  0  0  0  0  0  0  0  0  0  0
  -22.5100   -4.3280   21.3800 F   0  0  0  0  0  0  0  0  0  0  0  0
  -21.4950   -3.8470   26.0220 F   0  0  0  0  0  0  0  0  0  0  0  0
  -22.8860  -13.6200   21.1740 C   0  0  0  0  0  0  0  0  0  0  0  0
  -22.1960  -12.9090   22.0590 N   0  0  0  0  0  0  0  0  0  0  0  0
  -22.4260  -14.6520   20.6880 O   0  0  0  0  0  0  0  0  0  0  0  0
  -22.5800  -12.0720   22.4710 H   0  0  0  0  0  0  0  0  0  0  0  0
  -21.2700  -13.2090   22.3310 H   0  0  0  0  0  0  0  0  0  0  0  0
  -25.4750  -15.2960   20.2610 N   0  0  0  0  0  0  0  0  0  0  0  0
  -24.7100  -15.9440   20.4170 H   0  0  0  0  0  0  0  0  0  0  0  0
  -26.3030  -15.7420   19.8870 H   0  0  0  0  0  0  0  0  0  0  0  0
  -28.8570  -25.5300   21.2810 C   0  0  0  0  0  3  0  0  0  0  0  0
  -28.3530  -26.0410   22.6640 C   0  0  0  0  0  0  0  0  0  0  0  0
  -26.8890  -25.8580   23.0570 C   0  0  0  0  0  1  0  0  0  0  0  0
  -29.1090  -26.5960   23.4680 O   0  0  0  0  0  0  0  0  0  0  0  0
  -28.5210  -26.5070   20.1780 O   0  0  0  0  0  0  0  0  0  0  0  0
  -24.6830  -31.8630   23.1760 C   0  0  0  0  0  0  0  0  0  0  0  0
  -27.3950  -27.3450   20.1900 C   0  0  0  0  0  0  0  0  0  0  0  0
  -23.5200  -30.4570   21.5080 C   0  0  0  0  0  3  0  0  0  0  0  0
  -25.0130  -28.9200   20.1090 C   0  0  0  0  0  0  0  0  0  0  0  0
  -26.0530  -30.8120   21.3580 C   0  0  0  0  0  2  0  0  0  0  0  0
  -26.1630  -29.4310   20.7270 C   0  0  0  0  0  0  0  0  0  0  0  0
  -27.3590  -28.6550   20.7560 C   0  0  0  0  0  3  0  0  0  0  0  0
  -26.2330  -26.8860   19.5380 C   0  0  0  0  0  3  0  0  0  0  0  0
  -25.0490  -27.6520   19.5040 C   0  0  0  0  0  3  0  0  0  0  0  0
  -23.7660  -29.7850   20.1290 C   0  0  0  0  0  2  0  0  0  0  0  0
  -24.7710  -31.0620   22.0740 N   0  0  0  0  0  0  0  0  0  0  0  0
  -23.5910  -32.1250   23.7000 O   0  0  0  0  0  0  0  0  0  0  0  0
  -22.8600  -29.4290   22.4570 C   0  0  0  0  0  0  0  0  0  0  0  0
  -21.5300  -29.2620   22.3400 N   0  0  0  0  0  0  0  0  0  0  0  0
  -23.5430  -28.7830   23.2560 O   0  0  0  0  0  0  0  0  0  0  0  0
  -21.0360  -29.8350   21.6700 H   0  0  0  0  0  0  0  0  0  0  0  0
  -18.1480  -28.1040   22.8810 C   0  0  0  0  0  0  0  0  0  0  0  0
  -20.7140  -28.3150   23.1020 C   0  0  0  0  0  3  0  0  0  0  0  0
  -20.7800  -26.8980   22.4850 C   0  0  0  0  0  2  0  0  0  0  0  0
  -19.6520  -26.6200   21.4860 C   0  0  0  0  0  2  0  0  0  0  0  0
  -18.2880  -26.7710   22.1630 C   0  0  0  0  0  2  0  0  0  0  0  0
  -19.2860  -28.8370   23.3090 C   0  0  0  0  0  0  0  0  0  0  0  0
  -19.0990  -30.0860   23.9390 C   0  0  0  0  0  3  0  0  0  0  0  0
  -17.8050  -30.6020   24.1450 C   0  0  0  0  0  3  0  0  0  0  0  0
  -16.6800  -29.8640   23.7330 C   0  0  0  0  0  3  0  0  0  0  0  0
  -16.8540  -28.6170   23.1050 C   0  0  0  0  0  3  0  0  0  0  0  0
  -25.9520  -32.5100   23.8160 C   0  0  0  0  0  3  0  0  0  0  0  0
  -26.4640  -31.7400   25.0940 C   0  0  1  0  0  0  0  0  0  0  0  0
  -25.3640  -31.4850   26.1520 C   0  0  0  0  0  1  0  0  0  0  0  0
  -27.0680  -30.3720   24.7030 C   0  0  0  0  0  1  0  0  0  0  0  0
  -27.5980  -32.5440   25.7740 C   0  0  0  0  0  1  0  0  0  0  0  0
  -25.6230  -33.9020   24.1520 N   0  0  0  0  0  0  0  0  0  0  0  0
  -25.9400  -34.9630   23.3980 C   0  0  0  0  0  0  0  0  0  0  0  0
  -26.6160  -34.8730   22.3690 O   0  0  0  0  0  0  0  0  0  0  0  0
  -25.0430  -34.0430   24.9650 H   0  0  0  0  0  0  0  0  0  0  0  0
  -24.1990  -36.7390   23.0320 C   0  0  0  0  0  1  0  0  0  0  0  0
  -25.4310  -36.3430   23.8590 C   0  0  0  0  0  3  0  0  0  0  0  0
  -27.5460  -37.2500   24.7260 C   0  0  0  0  0  1  0  0  0  0  0  0
  -26.4530  -37.4100   23.7700 N   0  0  0  0  0  0  0  0  0  0  0  0
  -26.0320  -38.3230   23.9190 H   0  0  0  0  0  0  0  0  0  0  0  0
  1  3  1  0
  1  5  1  0
  2  4  1  0
  3  6  1  0
  5  9  1  0
  5  2  1  0
  6 51  1  0
  6  4  1  0
  6  7  1  6
  9  8  1  0
 10 21  1  0
 10  8  2  0
 11  9  2  0
 12 11  1  0
 12 10  1  0
 13 21  1  0
 14 19  1  0
 15 16  1  0
 15 14  1  0
 17 16  1  0
 17 26  1  0
 17 18  1  0
 19 13  1  0
 19 18  1  0
 20 13  2  0
 21 22  1  0
 23 24  2  0
 24 43  1  0
 25 24  1  0
 25 28  1  0
 26 27  1  0
 26 23  1  0
 27 25  2  0
 28 29  1  0
 29 30  2  0
 31 34  1  0
 31 30  1  0
 32 31  2  0
 33 32  1  0
 33 28  2  0
 34 35  1  0
 35 36  1  0
 36 37  2  0
 38 37  1  0
 38 42  1  0
 39 38  2  0
 40 35  2  0
 40 39  1  0
 41 40  1  0
 43 44  1  0
 44 47  1  0
 44 46  1  0
 45 43  2  0
 48 49  1  0
 48 23  1  0
 50 48  1  0
 51 55  1  0
 51 52  1  0
 52 53  1  0
 52 54  2  0
 55 57  1  0
 56 67  2  0
 57 62  1  0
 58 66  1  0
 58 68  1  0
 59 65  1  0
 59 61  1  0
 60 66  1  0
 61 62  2  0
 61 60  1  0
 63 57  2  0
 64 63  1  0
 64 59  2  0
 65 58  1  0
 66 56  1  0
 68 70  2  0
 69 68  1  0
 71 69  1  0
 72 81  2  0
 72 77  1  0
 73 69  1  0
 73 77  1  0
 74 73  1  0
 75 76  1  0
 75 74  1  0
 76 72  1  0
 77 78  2  0
 78 79  1  0
 80 79  2  0
 81 80  1  0
 82 56  1  0
 82 87  1  0
 82 83  1  0
 83 86  1  1
 83 84  1  0
 85 83  1  0
 87 90  1  0
 88 92  1  0
 88 87  1  0
 89 88  2  0
 92 91  1  0
 94 92  1  0
 94 95  1  0
 94 93  1  0
M  ISO  4  13 100  21 100  51 101  55 101
M  END
>  <TORSDO>  (72) 
F 19

>  <SCORE>  (72) 
-14.335

>  <name>  (72) 
71

>  <ligand_id>  (72) 
71

>  <original_smiles>  (72) 
[H]c1c(C2([H])C([H])([H])C([H])([H])[N+]([H])(C([H])(Oc3c([H])c([H])c4c(c3[H])C([H])([H])N(C(=O)C([H])(N([H])C(=O)C([H])(N([H])C([H])([H])[H])C([H])([H])[H])C(C([H])([H])[H])(C([H])([H])[H])C([H])([H])[H])C([H])(C(=O)N([H])C3([H])c5c([H])c([H])c([H])c([H])c5C([H])([H])C([H])([H])C3([H])[H])C4([H])[H])C(=O)C([H])([H])[H])C([H])([H])C2([H])[H])noc1N([H])C(=O)N1C([H])([H])C([H])([H])C([H])([H])C([H])(n2nc(-c3c([H])c([H])c(Oc4c([H])c([H])c(F)c([H])c4F)c([H])c3[H])c(C(=O)N([H])[H])c2N([H])[H])C1([H])[H]

>  <smiles>  (72) 
[H]c1c(C2([H])C([H])([H])C([H])([H])[N+]([H])(C([H])(Oc3c([H])c([H])c4c(c3[H])C([H])([H])N(C(=O)C([H])(N([H])C(=O)C([H])(N([H])C([H])([H])[H])C([H])([H])[H])C(C([H])([H])[H])(C([H])([H])[H])C([H])([H])[H])C([H])(C(=O)N([H])C3([H])c5c([H])c([H])c([H])c([H])c5C([H])([H])C([H])([H])C3([H])[H])C4([H])[H])C(=O)C([H])([H])[H])C([H])([H])C2([H])[H])noc1N([H])C(=O)N1C([H])([H])C([H])([H])C([H])([H])C([H])(n2nc(-c3c([H])c([H])c(Oc4c([H])c([H])c(F)c([H])c4F)c([H])c3[H])c(C(=O)N([H])[H])c2N([H])[H])C1([H])[H]

$$$$
72:0:0
     RDKit          3D

 91100  0  0  1  0  0  0  0  0999 V2000
  -29.2620  -23.4220   19.7240 C   0  0  0  0  0  3  0  0  0  0  0  0
  -28.6080  -23.9080   20.8070 C   0  0  0  0  0  0  0  0  0  0  0  0
  -29.6430  -21.9250   19.5010 C   0  0  0  0  0  2  0  0  0  0  0  0
  -28.2030  -22.9100   21.8990 C   0  0  0  0  0  2  0  0  0  0  0  0
  -28.9360  -21.5330   21.8630 C   0  0  0  0  0  2  0  0  0  0  0  0
  -28.9710  -20.8850   20.4640 C   0  0  0  0  0  3  0  0  0  0  0  0
  -28.9220  -18.1710   20.3410 C   0  0  0  0  0  3  0  0  0  0  0  0
  -31.1040  -17.8640   20.7000 C   0  0  0  0  0  3  0  0  0  0  0  0
  -29.9440  -17.1660   20.4960 C   0  0  0  0  0  0  0  0  0  0  0  0
  -29.5110  -19.4220   20.4620 C   0  0  0  0  0  0  0  0  0  0  0  0
  -30.8520  -19.2250   20.6940 O   0  0  0  0  0  0  0  0  0  0  0  0
  -30.5830  -14.6620   20.2600 C   0  0  0  0  0  0  0  0  0  0  0  0
  -30.3720  -12.4330   19.1780 C   0  0  0  0  0  2  0  0  0  0  0  0
  -29.3990  -12.5750   17.9850 C   0  0  0  0  0  2  0  0  0  0  0  0
  -27.9330  -12.4210   18.4410 C   0  0  0  0  0  2  0  0  0  0  0  0
  -27.6000  -13.2640   19.7010 C   0  0  0  0  0  3  0  0  0  0  0  0
  -28.6810  -13.0860   20.7900 C   0  0  0  0  0  2  0  0  0  0  0  0
  -29.9760  -13.4360   20.1850 N   0  0  0  0  0  0  0  0  0  0  0  0
  -31.7580  -14.8220   19.9130 O   0  0  0  0  0  0  0  0  0  0  0  0
  -29.7390  -15.7160   20.5020 N   0  0  0  0  0  0  0  0  0  0  0  0
  -28.7820  -15.4240   20.6310 H   0  0  0  0  0  0  0  0  0  0  0  0
  -25.2180  -13.8590   20.4530 C   0  0  0  0  0  0  0  0  0  0  0  0
  -24.1590  -13.0810   20.8410 C   0  0  0  0  0  0  0  0  0  0  0  0
  -24.6260  -11.7320   20.8040 C   0  0  0  0  0  0  0  0  0  0  0  0
  -26.2610  -12.9810   20.2060 N   0  0  0  0  0  0  0  0  0  0  0  0
  -25.9120  -11.6970   20.4770 N   0  0  0  0  0  0  0  0  0  0  0  0
  -23.9070  -10.4670   21.0040 C   0  0  0  0  0  0  0  0  0  0  0  0
  -24.3540   -9.5000   21.9310 C   0  0  0  0  0  3  0  0  0  0  0  0
  -23.6330   -8.3010   22.1190 C   0  0  0  0  0  3  0  0  0  0  0  0
  -22.4490   -8.0630   21.3800 C   0  0  0  0  0  0  0  0  0  0  0  0
  -22.0220   -9.0200   20.4410 C   0  0  0  0  0  3  0  0  0  0  0  0
  -22.7450  -10.2090   20.2510 C   0  0  0  0  0  3  0  0  0  0  0  0
  -21.6990   -6.9170   21.4790 O   0  0  0  0  0  0  0  0  0  0  0  0
  -21.6670   -6.1740   22.6310 C   0  0  0  0  0  0  0  0  0  0  0  0
  -21.2530   -6.7280   23.8640 C   0  0  0  0  0  3  0  0  0  0  0  0
  -21.1670   -5.9100   25.0080 C   0  0  0  0  0  3  0  0  0  0  0  0
  -21.4840   -4.5410   24.9220 C   0  0  0  0  0  0  0  0  0  0  0  0
  -21.8890   -3.9880   23.6940 C   0  0  0  0  0  3  0  0  0  0  0  0
  -21.9770   -4.8020   22.5520 C   0  0  0  0  0  0  0  0  0  0  0  0
  -22.3490   -4.2590   21.3680 F   0  0  0  0  0  0  0  0  0  0  0  0
  -21.3950   -3.7540   26.0200 F   0  0  0  0  0  0  0  0  0  0  0  0
  -22.7650  -13.5540   21.1340 C   0  0  0  0  0  0  0  0  0  0  0  0
  -22.0520  -12.8560   22.0120 N   0  0  0  0  0  0  0  0  0  0  0  0
  -22.3160  -14.5780   20.6220 O   0  0  0  0  0  0  0  0  0  0  0  0
  -22.4290  -12.0270   22.4480 H   0  0  0  0  0  0  0  0  0  0  0  0
  -21.1190  -13.1550   22.2520 H   0  0  0  0  0  0  0  0  0  0  0  0
  -25.3680  -15.2300   20.2650 N   0  0  0  0  0  0  0  0  0  0  0  0
  -24.5790  -15.8630   20.3540 H   0  0  0  0  0  0  0  0  0  0  0  0
  -26.1820  -15.6710   19.8570 H   0  0  0  0  0  0  0  0  0  0  0  0
  -28.1850  -25.3920   21.1290 C   0  0  0  0  0  2  0  0  0  0  0  0
  -28.3500  -26.4940   20.1720 O   0  0  0  0  0  0  0  0  0  0  0  0
  -24.6260  -31.8710   23.2210 C   0  0  0  0  0  0  0  0  0  0  0  0
  -27.2580  -27.3660   20.1380 C   0  0  0  0  0  0  0  0  0  0  0  0
  -23.4250  -30.4720   21.5750 C   0  0  0  0  0  3  0  0  0  0  0  0
  -24.8820  -28.9380   20.1400 C   0  0  0  0  0  0  0  0  0  0  0  0
  -25.9570  -30.8160   21.3840 C   0  0  0  0  0  2  0  0  0  0  0  0
  -26.0480  -29.4410   20.7340 C   0  0  0  0  0  0  0  0  0  0  0  0
  -27.2440  -28.6660   20.7250 C   0  0  0  0  0  3  0  0  0  0  0  0
  -26.0780  -26.9070   19.5200 C   0  0  0  0  0  3  0  0  0  0  0  0
  -24.8980  -27.6740   19.5250 C   0  0  0  0  0  3  0  0  0  0  0  0
  -23.6380  -29.8010   20.1930 C   0  0  0  0  0  2  0  0  0  0  0  0
  -24.6880  -31.0680   22.1180 N   0  0  0  0  0  0  0  0  0  0  0  0
  -23.5420  -32.1400   23.7600 O   0  0  0  0  0  0  0  0  0  0  0  0
  -22.7680  -29.4500   22.5330 C   0  0  0  0  0  0  0  0  0  0  0  0
  -21.4410  -29.2780   22.4160 N   0  0  0  0  0  0  0  0  0  0  0  0
  -23.4510  -28.8170   23.3420 O   0  0  0  0  0  0  0  0  0  0  0  0
  -20.9490  -29.8420   21.7370 H   0  0  0  0  0  0  0  0  0  0  0  0
  -18.0640  -28.0930   22.9330 C   0  0  0  0  0  0  0  0  0  0  0  0
  -20.6240  -28.3370   23.1840 C   0  0  0  0  0  3  0  0  0  0  0  0
  -20.7150  -26.9100   22.5960 C   0  0  0  0  0  2  0  0  0  0  0  0
  -19.6050  -26.6020   21.5880 C   0  0  0  0  0  2  0  0  0  0  0  0
  -18.2280  -26.7490   22.2430 C   0  0  0  0  0  2  0  0  0  0  0  0
  -19.1880  -28.8460   23.3600 C   0  0  0  0  0  0  0  0  0  0  0  0
  -18.9810  -30.1060   23.9640 C   0  0  0  0  0  3  0  0  0  0  0  0
  -17.6800  -30.6110   24.1450 C   0  0  0  0  0  3  0  0  0  0  0  0
  -16.5680  -29.8550   23.7340 C   0  0  0  0  0  3  0  0  0  0  0  0
  -16.7610  -28.5970   23.1320 C   0  0  0  0  0  3  0  0  0  0  0  0
  -25.9080  -32.5040   23.8420 C   0  0  0  0  0  3  0  0  0  0  0  0
  -25.5950  -33.9000   24.1780 N   0  0  0  0  0  0  0  0  0  0  0  0
  -25.9200  -34.9570   23.4210 C   0  0  0  0  0  0  0  0  0  0  0  0
  -26.5850  -34.8600   22.3850 O   0  0  0  0  0  0  0  0  0  0  0  0
  -25.0070  -34.0500   24.9850 H   0  0  0  0  0  0  0  0  0  0  0  0
  -24.1820  -36.7450   23.0840 C   0  0  0  0  0  1  0  0  0  0  0  0
  -25.4300  -36.3420   23.8870 C   0  0  0  0  0  3  0  0  0  0  0  0
  -27.5690  -37.2310   24.7020 C   0  0  0  0  0  1  0  0  0  0  0  0
  -26.4570  -37.4020   23.7700 N   0  0  0  0  0  0  0  0  0  0  0  0
  -26.0480  -38.3180   23.9300 H   0  0  0  0  0  0  0  0  0  0  0  0
  -26.4290  -31.7300   25.1150 C   0  0  1  0  0  0  0  0  0  0  0  0
  -25.3400  -31.4860   26.1850 C   0  0  0  0  0  1  0  0  0  0  0  0
  -27.0140  -30.3550   24.7180 C   0  0  0  0  0  1  0  0  0  0  0  0
  -27.5810  -32.5240   25.7760 C   0  0  0  0  0  1  0  0  0  0  0  0
  1  2  2  0
  2 50  1  0
  2  4  1  0
  3  1  1  0
  3  6  1  0
  5  4  1  0
  6 10  1  0
  6  5  1  0
  7 10  2  0
  7  9  1  0
  9 20  1  0
  9  8  2  0
 10 11  1  0
 11  8  1  0
 12 20  1  0
 13 18  1  0
 14 15  1  0
 14 13  1  0
 16 15  1  0
 16 25  1  0
 16 17  1  0
 18 12  1  0
 18 17  1  0
 19 12  2  0
 20 21  1  0
 22 23  2  0
 23 42  1  0
 24 23  1  0
 24 27  1  0
 25 22  1  0
 25 26  1  0
 26 24  2  0
 27 28  1  0
 28 29  2  0
 30 33  1  0
 30 29  1  0
 31 30  2  0
 32 31  1  0
 32 27  2  0
 33 34  1  0
 34 35  1  0
 35 36  2  0
 37 36  1  0
 37 41  1  0
 38 37  2  0
 39 34  2  0
 39 38  1  0
 40 39  1  0
 42 43  1  0
 43 46  1  0
 43 45  1  0
 44 42  2  0
 47 48  1  0
 47 22  1  0
 49 47  1  0
 51 50  1  0
 52 63  2  0
 53 51  1  0
 53 58  1  0
 54 62  1  0
 54 64  1  0
 55 61  1  0
 55 57  1  0
 56 62  1  0
 57 56  1  0
 58 57  2  0
 59 60  1  0
 59 53  2  0
 60 55  2  0
 61 54  1  0
 62 52  1  0
 64 66  2  0
 65 64  1  0
 67 65  1  0
 68 77  2  0
 68 73  1  0
 69 65  1  0
 69 73  1  0
 70 69  1  0
 71 72  1  0
 71 70  1  0
 72 68  1  0
 73 74  2  0
 74 75  1  0
 76 75  2  0
 77 76  1  0
 78 52  1  0
 78 79  1  0
 78 88  1  0
 79 82  1  0
 80 84  1  0
 80 79  1  0
 81 80  2  0
 84 83  1  0
 86 84  1  0
 86 87  1  0
 86 85  1  0
 88 91  1  1
 88 89  1  0
 90 88  1  0
M  ISO  4  12 100  20 100  50 101  51 101
M  END
>  <TORSDO>  (73) 
F 18

>  <SCORE>  (73) 
-14.852

>  <name>  (73) 
72

>  <ligand_id>  (73) 
72

>  <original_smiles>  (73) 
[H]C1=C(C([H])([H])Oc2c([H])c([H])c3c(c2[H])C([H])([H])N(C(=O)C([H])(N([H])C(=O)C([H])(N([H])C([H])([H])[H])C([H])([H])[H])C(C([H])([H])[H])(C([H])([H])[H])C([H])([H])[H])C([H])(C(=O)N([H])C2([H])c4c([H])c([H])c([H])c([H])c4C([H])([H])C([H])([H])C2([H])[H])C3([H])[H])C([H])([H])C([H])([H])C([H])(c2oc([H])c(N([H])C(=O)N3C([H])([H])C([H])([H])C([H])([H])C([H])(n4nc(-c5c([H])c([H])c(Oc6c([H])c([H])c(F)c([H])c6F)c([H])c5[H])c(C(=O)N([H])[H])c4N([H])[H])C3([H])[H])c2[H])C1([H])[H]

>  <smiles>  (73) 
[H]C1=C(C([H])([H])Oc2c([H])c([H])c3c(c2[H])C([H])([H])N(C(=O)C([H])(N([H])C(=O)C([H])(N([H])C([H])([H])[H])C([H])([H])[H])C(C([H])([H])[H])(C([H])([H])[H])C([H])([H])[H])C([H])(C(=O)N([H])C2([H])c4c([H])c([H])c([H])c([H])c4C([H])([H])C([H])([H])C2([H])[H])C3([H])[H])C([H])([H])C([H])([H])C([H])(c2oc([H])c(N([H])C(=O)N3C([H])([H])C([H])([H])C([H])([H])C([H])(n4nc(-c5c([H])c([H])c(Oc6c([H])c([H])c(F)c([H])c6F)c([H])c5[H])c(C(=O)N([H])[H])c4N([H])[H])C3([H])[H])c2[H])C1([H])[H]

$$$$
73:0:0
     RDKit          3D

 87 95  0  0  1  0  0  0  0  0999 V2000
  -28.6760  -21.2420   19.8120 C   0  0  0  0  0  3  0  0  0  0  0  0
  -29.4260  -22.5000   21.5640 C   0  0  0  0  0  3  0  0  0  0  0  0
  -28.6760  -22.7070   20.4270 C   0  0  0  0  0  0  0  0  0  0  0  0
  -29.3220  -20.0340   20.4030 C   0  0  0  0  0  0  0  0  0  0  0  0
  -29.9790  -20.7910   21.8600 S   0  0  0  0  0  0  0  0  0  0  0  0
  -26.7260  -23.7710   19.2330 C   0  0  0  0  0  1  0  0  0  0  0  0
  -27.9420  -24.0730   19.9690 N   0  0  0  0  0  0  0  0  0  0  0  0
  -28.1700  -25.7670   20.2670 O   0  0  0  0  0  0  0  0  0  0  0  0
  -24.6210  -31.8850   23.1830 C   0  0  0  0  0  0  0  0  0  0  0  0
  -27.1600  -26.9080   20.1810 C   0  0  0  0  0  0  0  0  0  0  0  0
  -23.4310  -30.4800   21.5540 C   0  0  0  0  0  3  0  0  0  0  0  0
  -24.8790  -28.8680   20.1370 C   0  0  0  0  0  0  0  0  0  0  0  0
  -26.0020  -30.6610   21.4180 C   0  0  0  0  0  2  0  0  0  0  0  0
  -26.0660  -29.2340   20.7810 C   0  0  0  0  0  0  0  0  0  0  0  0
  -27.1870  -28.2720   20.7950 C   0  0  0  0  0  3  0  0  0  0  0  0
  -25.9740  -26.7770   19.4150 C   0  0  0  0  0  3  0  0  0  0  0  0
  -24.8650  -27.6600   19.4320 C   0  0  0  0  0  3  0  0  0  0  0  0
  -23.6600  -29.7890   20.1820 C   0  0  0  0  0  2  0  0  0  0  0  0
  -24.7090  -31.0380   22.1040 N   0  0  0  0  0  0  0  0  0  0  0  0
  -23.5290  -32.1800   23.6980 O   0  0  0  0  0  0  0  0  0  0  0  0
  -22.7310  -29.4920   22.5250 C   0  0  0  0  0  0  0  0  0  0  0  0
  -21.3990  -29.3340   22.4090 N   0  0  0  0  0  0  0  0  0  0  0  0
  -23.3970  -28.8650   23.3520 O   0  0  0  0  0  0  0  0  0  0  0  0
  -20.9150  -29.8900   21.7180 H   0  0  0  0  0  0  0  0  0  0  0  0
  -18.0140  -28.1370   22.9450 C   0  0  0  0  0  0  0  0  0  0  0  0
  -20.5760  -28.4010   23.1870 C   0  0  0  0  0  3  0  0  0  0  0  0
  -20.6690  -26.9660   22.6150 C   0  0  0  0  0  2  0  0  0  0  0  0
  -19.5590  -26.6450   21.6090 C   0  0  0  0  0  2  0  0  0  0  0  0
  -18.1840  -26.7890   22.2650 C   0  0  0  0  0  2  0  0  0  0  0  0
  -19.1360  -28.9020   23.3630 C   0  0  0  0  0  0  0  0  0  0  0  0
  -18.9190  -30.1600   23.9660 C   0  0  0  0  0  3  0  0  0  0  0  0
  -17.6150  -30.6560   24.1490 C   0  0  0  0  0  3  0  0  0  0  0  0
  -16.5090  -29.8910   23.7410 C   0  0  0  0  0  3  0  0  0  0  0  0
  -16.7090  -28.6320   23.1480 C   0  0  0  0  0  3  0  0  0  0  0  0
  -25.8890  -32.5380   23.8130 C   0  0  0  0  0  3  0  0  0  0  0  0
  -25.5640  -33.9380   24.1420 N   0  0  0  0  0  0  0  0  0  0  0  0
  -25.9000  -35.0000   23.3980 C   0  0  0  0  0  0  0  0  0  0  0  0
  -26.5730  -34.9040   22.3680 O   0  0  0  0  0  0  0  0  0  0  0  0
  -24.9640  -34.0850   24.9410 H   0  0  0  0  0  0  0  0  0  0  0  0
  -24.1850  -36.8130   23.0440 C   0  0  0  0  0  1  0  0  0  0  0  0
  -25.4170  -36.3900   23.8620 C   0  0  0  0  0  3  0  0  0  0  0  0
  -27.5390  -37.2720   24.7310 C   0  0  0  0  0  1  0  0  0  0  0  0
  -26.4600  -37.4360   23.7620 N   0  0  0  0  0  0  0  0  0  0  0  0
  -26.0590  -38.3620   23.8830 H   0  0  0  0  0  0  0  0  0  0  0  0
  -26.3920  -31.7830   25.1030 C   0  0  1  0  0  0  0  0  0  0  0  0
  -25.2900  -31.5590   26.1670 C   0  0  0  0  0  1  0  0  0  0  0  0
  -26.9790  -30.3980   24.7420 C   0  0  0  0  0  1  0  0  0  0  0  0
  -27.5360  -32.5840   25.7680 C   0  0  0  0  0  1  0  0  0  0  0  0
  -29.7780  -18.3800   19.8850 C   0  0  0  0  0  2  0  0  0  0  0  0
  -30.4140  -15.4590   20.2190 C   0  0  0  0  0  0  0  0  0  0  0  0
  -30.4200  -12.9840   19.3560 C   0  0  0  0  0  2  0  0  0  0  0  0
  -29.5170  -12.7390   18.1170 C   0  0  0  0  0  2  0  0  0  0  0  0
  -28.0720  -12.4340   18.5500 C   0  0  0  0  0  2  0  0  0  0  0  0
  -27.5980  -13.4110   19.6510 C   0  0  0  0  0  3  0  0  0  0  0  0
  -28.6300  -13.5950   20.7850 C   0  0  0  0  0  2  0  0  0  0  0  0
  -29.8600  -14.1330   20.1770 N   0  0  0  0  0  0  0  0  0  0  0  0
  -31.6230  -15.4440   19.9410 O   0  0  0  0  0  0  0  0  0  0  0  0
  -29.6620  -16.7560   20.3750 N   0  0  0  0  0  0  0  0  0  0  0  0
  -28.7130  -16.5500   20.6510 H   0  0  0  0  0  0  0  0  0  0  0  0
  -25.2310  -13.9570   20.4080 C   0  0  0  0  0  0  0  0  0  0  0  0
  -24.1710  -13.1780   20.7770 C   0  0  0  0  0  0  0  0  0  0  0  0
  -24.6440  -11.8290   20.7480 C   0  0  0  0  0  0  0  0  0  0  0  0
  -26.2740  -13.0880   20.1620 N   0  0  0  0  0  0  0  0  0  0  0  0
  -25.9350  -11.8010   20.4370 N   0  0  0  0  0  0  0  0  0  0  0  0
  -23.9210  -10.5660   20.9400 C   0  0  0  0  0  0  0  0  0  0  0  0
  -24.3450   -9.6060   21.8860 C   0  0  0  0  0  3  0  0  0  0  0  0
  -23.6190   -8.4080   22.0660 C   0  0  0  0  0  3  0  0  0  0  0  0
  -22.4560   -8.1630   21.2990 C   0  0  0  0  0  0  0  0  0  0  0  0
  -22.0490   -9.1110   20.3440 C   0  0  0  0  0  3  0  0  0  0  0  0
  -22.7760  -10.2990   20.1630 C   0  0  0  0  0  3  0  0  0  0  0  0
  -21.7030   -7.0170   21.3870 O   0  0  0  0  0  0  0  0  0  0  0  0
  -21.6300   -6.2900   22.5480 C   0  0  0  0  0  0  0  0  0  0  0  0
  -21.1610   -6.8560   23.7520 C   0  0  0  0  0  3  0  0  0  0  0  0
  -21.0390   -6.0550   24.9050 C   0  0  0  0  0  3  0  0  0  0  0  0
  -21.3740   -4.6880   24.8510 C   0  0  0  0  0  0  0  0  0  0  0  0
  -21.8370   -4.1220   23.6500 C   0  0  0  0  0  3  0  0  0  0  0  0
  -21.9620   -4.9210   22.5010 C   0  0  0  0  0  0  0  0  0  0  0  0
  -22.3880   -4.3650   21.3400 F   0  0  0  0  0  0  0  0  0  0  0  0
  -21.2490   -3.9150   25.9570 F   0  0  0  0  0  0  0  0  0  0  0  0
  -22.7720  -13.6530   21.0380 C   0  0  0  0  0  0  0  0  0  0  0  0
  -22.0390  -12.9580   21.9000 N   0  0  0  0  0  0  0  0  0  0  0  0
  -22.3390  -14.6760   20.5140 O   0  0  0  0  0  0  0  0  0  0  0  0
  -22.4030  -12.1280   22.3480 H   0  0  0  0  0  0  0  0  0  0  0  0
  -21.1010  -13.2610   22.1180 H   0  0  0  0  0  0  0  0  0  0  0  0
  -25.3880  -15.3300   20.2290 N   0  0  0  0  0  0  0  0  0  0  0  0
  -24.6170  -15.9780   20.3450 H   0  0  0  0  0  0  0  0  0  0  0  0
  -26.2260  -15.7710   19.8770 H   0  0  0  0  0  0  0  0  0  0  0  0
  1  4  2  0
  1  3  1  0
  2  5  1  0
  3  2  2  0
  4  5  1  0
  6  7  1  0
  7  8  1  0
  7  3  1  0
  9 20  2  0
 10  8  1  0
 10 15  1  0
 11 19  1  0
 11 21  1  0
 12 18  1  0
 12 14  1  0
 13 19  1  0
 14 15  2  0
 14 13  1  0
 16 17  1  0
 16 10  2  0
 17 12  2  0
 18 11  1  0
 19  9  1  0
 21 23  2  0
 22 21  1  0
 24 22  1  0
 25 34  2  0
 25 30  1  0
 26 22  1  0
 26 30  1  0
 27 26  1  0
 28 29  1  0
 28 27  1  0
 29 25  1  0
 30 31  2  0
 31 32  1  0
 33 32  2  0
 34 33  1  0
 35  9  1  0
 35 36  1  0
 35 45  1  0
 36 39  1  0
 37 41  1  0
 37 36  1  0
 38 37  2  0
 41 40  1  0
 43 41  1  0
 43 44  1  0
 43 42  1  0
 45 48  1  1
 45 46  1  0
 47 45  1  0
 49 58  1  0
 49  4  1  0
 50 58  1  0
 51 56  1  0
 52 53  1  0
 52 51  1  0
 54 53  1  0
 54 63  1  0
 54 55  1  0
 56 50  1  0
 56 55  1  0
 57 50  2  0
 58 59  1  0
 60 61  2  0
 61 80  1  0
 62 61  1  0
 62 65  1  0
 63 60  1  0
 63 64  1  0
 64 62  2  0
 65 66  1  0
 66 67  2  0
 68 71  1  0
 68 67  1  0
 69 68  2  0
 70 69  1  0
 70 65  2  0
 71 72  1  0
 72 73  1  0
 73 74  2  0
 75 74  1  0
 75 79  1  0
 76 75  2  0
 77 72  2  0
 77 76  1  0
 78 77  1  0
 80 81  1  0
 81 84  1  0
 81 83  1  0
 82 80  2  0
 85 86  1  0
 85 60  1  0
 87 85  1  0
M  ISO  4   7 101   8 101  50 100  58 100
M  END
>  <TORSDO>  (74) 
F 18

>  <SCORE>  (74) 
-16.000

>  <name>  (74) 
73

>  <ligand_id>  (74) 
73

>  <original_smiles>  (74) 
[H]c1sc(C([H])([H])N([H])C(=O)N2C([H])([H])C([H])([H])C([H])([H])C([H])(n3nc(-c4c([H])c([H])c(Oc5c([H])c([H])c(F)c([H])c5F)c([H])c4[H])c(C(=O)N([H])[H])c3N([H])[H])C2([H])[H])c([H])c1N(Oc1c([H])c([H])c2c(c1[H])C([H])([H])N(C(=O)C([H])(N([H])C(=O)C([H])(N([H])C([H])([H])[H])C([H])([H])[H])C(C([H])([H])[H])(C([H])([H])[H])C([H])([H])[H])C([H])(C(=O)N([H])C1([H])c3c([H])c([H])c([H])c([H])c3C([H])([H])C([H])([H])C1([H])[H])C2([H])[H])C([H])([H])[H]

>  <smiles>  (74) 
[H]c1sc(C([H])([H])N([H])C(=O)N2C([H])([H])C([H])([H])C([H])([H])C([H])(n3nc(-c4c([H])c([H])c(Oc5c([H])c([H])c(F)c([H])c5F)c([H])c4[H])c(C(=O)N([H])[H])c3N([H])[H])C2([H])[H])c([H])c1N(Oc1c([H])c([H])c2c(c1[H])C([H])([H])N(C(=O)C([H])(N([H])C(=O)C([H])(N([H])C([H])([H])[H])C([H])([H])[H])C(C([H])([H])[H])(C([H])([H])[H])C([H])([H])[H])C([H])(C(=O)N([H])C1([H])c3c([H])c([H])c([H])c([H])c3C([H])([H])C([H])([H])C1([H])[H])C2([H])[H])C([H])([H])[H]

$$$$
74:0:0
     RDKit          3D

 91100  0  0  1  0  0  0  0  0999 V2000
  -28.8770  -23.5610   20.2940 C   0  0  0  0  0  0  0  0  0  0  0  0
  -28.6920  -22.3320   19.6540 N   0  0  0  0  0  0  0  0  0  0  0  0
  -29.6990  -23.6980   21.2030 O   0  0  0  0  0  0  0  0  0  0  0  0
  -28.0550  -22.4590   18.8790 H   0  0  0  0  0  0  0  0  0  0  0  0
  -29.6790  -20.0510   20.8130 C   0  0  0  0  0  3  0  0  0  0  0  0
  -29.0050  -20.0110   18.7170 C   0  0  0  0  0  3  0  0  0  0  0  0
  -29.1620  -20.9040   19.7520 C   0  0  0  0  0  0  0  0  0  0  0  0
  -29.7280  -18.7070   20.3800 C   0  0  0  0  0  0  0  0  0  0  0  0
  -29.3240  -18.7050   19.0740 O   0  0  0  0  0  0  0  0  0  0  0  0
  -30.6280  -14.8220   20.0750 C   0  0  0  0  0  0  0  0  0  0  0  0
  -30.3740  -12.5800   18.9350 C   0  0  0  0  0  2  0  0  0  0  0  0
  -29.3530  -12.6720   17.7780 C   0  0  0  0  0  2  0  0  0  0  0  0
  -27.9130  -12.4840   18.2930 C   0  0  0  0  0  2  0  0  0  0  0  0
  -27.6220  -13.3350   19.5560 C   0  0  0  0  0  3  0  0  0  0  0  0
  -28.7440  -13.1830   20.6040 C   0  0  0  0  0  2  0  0  0  0  0  0
  -30.0050  -13.5880   19.9600 N   0  0  0  0  0  0  0  0  0  0  0  0
  -31.7090  -15.0100   19.5060 O   0  0  0  0  0  0  0  0  0  0  0  0
  -30.9570  -17.0900   22.1870 C   0  0  0  0  0  2  0  0  0  0  0  0
  -30.3870  -15.6720   22.2570 C   0  0  0  0  0  2  0  0  0  0  0  0
  -29.8590  -17.3350   21.1820 C   0  0  0  0  0  3  0  0  0  0  0  0
  -29.9810  -15.8070   20.8310 N   0  0  0  0  0  0  0  0  0  0  0  0
  -25.2910  -13.9360   20.4450 C   0  0  0  0  0  0  0  0  0  0  0  0
  -24.2370  -13.1660   20.8530 C   0  0  0  0  0  0  0  0  0  0  0  0
  -24.6750  -11.8090   20.7500 C   0  0  0  0  0  0  0  0  0  0  0  0
  -26.3040  -13.0500   20.1160 N   0  0  0  0  0  0  0  0  0  0  0  0
  -25.9430  -11.7630   20.3600 N   0  0  0  0  0  0  0  0  0  0  0  0
  -23.9400  -10.5520   20.9430 C   0  0  0  0  0  0  0  0  0  0  0  0
  -24.3920   -9.5640   21.8450 C   0  0  0  0  0  3  0  0  0  0  0  0
  -23.6570   -8.3730   22.0280 C   0  0  0  0  0  3  0  0  0  0  0  0
  -22.4570   -8.1600   21.3080 C   0  0  0  0  0  0  0  0  0  0  0  0
  -22.0240   -9.1380   20.3950 C   0  0  0  0  0  3  0  0  0  0  0  0
  -22.7590  -10.3200   20.2100 C   0  0  0  0  0  3  0  0  0  0  0  0
  -21.6920   -7.0230   21.4020 O   0  0  0  0  0  0  0  0  0  0  0  0
  -21.6400   -6.2830   22.5560 C   0  0  0  0  0  0  0  0  0  0  0  0
  -21.2440   -6.8480   23.7880 C   0  0  0  0  0  3  0  0  0  0  0  0
  -21.1390   -6.0360   24.9350 C   0  0  0  0  0  3  0  0  0  0  0  0
  -21.4200   -4.6590   24.8510 C   0  0  0  0  0  0  0  0  0  0  0  0
  -21.8090   -4.0930   23.6240 C   0  0  0  0  0  3  0  0  0  0  0  0
  -21.9160   -4.9030   22.4800 C   0  0  0  0  0  0  0  0  0  0  0  0
  -22.2700   -4.3480   21.2960 F   0  0  0  0  0  0  0  0  0  0  0  0
  -21.3110   -3.8760   25.9490 F   0  0  0  0  0  0  0  0  0  0  0  0
  -22.8670  -13.6540   21.2260 C   0  0  0  0  0  0  0  0  0  0  0  0
  -22.1850  -12.9450   22.1200 N   0  0  0  0  0  0  0  0  0  0  0  0
  -22.4110  -14.6980   20.7590 O   0  0  0  0  0  0  0  0  0  0  0  0
  -22.5670  -12.1000   22.5180 H   0  0  0  0  0  0  0  0  0  0  0  0
  -21.2680  -13.2530   22.4110 H   0  0  0  0  0  0  0  0  0  0  0  0
  -25.4690  -15.3090   20.3040 N   0  0  0  0  0  0  0  0  0  0  0  0
  -24.7290  -15.9760   20.4900 H   0  0  0  0  0  0  0  0  0  0  0  0
  -26.3190  -15.7420   19.9640 H   0  0  0  0  0  0  0  0  0  0  0  0
  -27.9630  -24.8260   19.8310 C   0  0  0  0  0  2  0  0  0  0  0  0
  -28.2350  -26.2740   20.2420 O   0  0  0  0  0  0  0  0  0  0  0  0
  -24.5790  -31.8740   23.2140 C   0  0  0  0  0  0  0  0  0  0  0  0
  -27.1680  -27.2250   20.1610 C   0  0  0  0  0  0  0  0  0  0  0  0
  -23.3760  -30.4770   21.5790 C   0  0  0  0  0  3  0  0  0  0  0  0
  -24.8240  -28.9210   20.1470 C   0  0  0  0  0  0  0  0  0  0  0  0
  -25.9250  -30.7630   21.4040 C   0  0  0  0  0  2  0  0  0  0  0  0
  -26.0000  -29.3780   20.7530 C   0  0  0  0  0  0  0  0  0  0  0  0
  -27.1730  -28.5430   20.7510 C   0  0  0  0  0  3  0  0  0  0  0  0
  -25.9670  -26.8640   19.5040 C   0  0  0  0  0  3  0  0  0  0  0  0
  -24.8160  -27.6730   19.5100 C   0  0  0  0  0  3  0  0  0  0  0  0
  -23.5910  -29.8040   20.1980 C   0  0  0  0  0  2  0  0  0  0  0  0
  -24.6460  -31.0580   22.1210 N   0  0  0  0  0  0  0  0  0  0  0  0
  -23.4950  -32.1560   23.7460 O   0  0  0  0  0  0  0  0  0  0  0  0
  -22.7060  -29.4640   22.5400 C   0  0  0  0  0  0  0  0  0  0  0  0
  -21.3790  -29.2890   22.4170 N   0  0  0  0  0  0  0  0  0  0  0  0
  -23.3820  -28.8370   23.3600 O   0  0  0  0  0  0  0  0  0  0  0  0
  -20.8910  -29.8460   21.7290 H   0  0  0  0  0  0  0  0  0  0  0  0
  -18.0010  -28.0910   22.9240 C   0  0  0  0  0  0  0  0  0  0  0  0
  -20.5590  -28.3540   23.1900 C   0  0  0  0  0  3  0  0  0  0  0  0
  -20.6610  -26.9200   22.6200 C   0  0  0  0  0  2  0  0  0  0  0  0
  -19.5600  -26.5940   21.6070 C   0  0  0  0  0  2  0  0  0  0  0  0
  -18.1780  -26.7400   22.2510 C   0  0  0  0  0  2  0  0  0  0  0  0
  -19.1190  -28.8550   23.3510 C   0  0  0  0  0  0  0  0  0  0  0  0
  -18.8980  -30.1190   23.9410 C   0  0  0  0  0  3  0  0  0  0  0  0
  -17.5930  -30.6180   24.1070 C   0  0  0  0  0  3  0  0  0  0  0  0
  -16.4890  -29.8500   23.6970 C   0  0  0  0  0  3  0  0  0  0  0  0
  -16.6940  -28.5880   23.1110 C   0  0  0  0  0  3  0  0  0  0  0  0
  -25.8600  -32.5100   23.8350 C   0  0  0  0  0  3  0  0  0  0  0  0
  -25.5460  -33.9080   24.1710 N   0  0  0  0  0  0  0  0  0  0  0  0
  -25.8590  -34.9650   23.4100 C   0  0  0  0  0  0  0  0  0  0  0  0
  -26.5120  -34.8670   22.3680 O   0  0  0  0  0  0  0  0  0  0  0  0
  -24.9630  -34.0570   24.9820 H   0  0  0  0  0  0  0  0  0  0  0  0
  -24.1080  -36.7450   23.1020 C   0  0  0  0  0  1  0  0  0  0  0  0
  -25.3740  -36.3510   23.8790 C   0  0  0  0  0  3  0  0  0  0  0  0
  -27.5240  -37.2520   24.6490 C   0  0  0  0  0  1  0  0  0  0  0  0
  -26.3950  -37.4110   23.7370 N   0  0  0  0  0  0  0  0  0  0  0  0
  -25.9850  -38.3280   23.8960 H   0  0  0  0  0  0  0  0  0  0  0  0
  -26.3790  -31.7390   25.1110 C   0  0  1  0  0  0  0  0  0  0  0  0
  -25.2870  -31.5010   26.1810 C   0  0  0  0  0  1  0  0  0  0  0  0
  -26.9630  -30.3610   24.7220 C   0  0  0  0  0  1  0  0  0  0  0  0
  -27.5290  -32.5350   25.7710 C   0  0  0  0  0  1  0  0  0  0  0  0
  1  3  2  0
  2  7  1  0
  2  1  1  0
  4  2  1  0
  6  9  1  0
  6  7  2  0
  7  5  1  0
  8  5  2  0
  9  8  1  0
 10 21  1  0
 11 16  1  0
 12 13  1  0
 12 11  1  0
 14 13  1  0
 14 25  1  0
 14 15  1  0
 16 10  1  0
 16 15  1  0
 17 10  2  0
 18 19  1  0
 20  8  1  0
 20 18  1  0
 21 20  1  0
 21 19  1  0
 22 23  2  0
 23 42  1  0
 24 23  1  0
 24 27  1  0
 25 26  1  0
 25 22  1  0
 26 24  2  0
 27 28  1  0
 28 29  2  0
 30 33  1  0
 30 29  1  0
 31 30  2  0
 32 31  1  0
 32 27  2  0
 33 34  1  0
 34 35  1  0
 35 36  2  0
 37 36  1  0
 37 41  1  0
 38 37  2  0
 39 34  2  0
 39 38  1  0
 40 39  1  0
 42 43  1  0
 43 46  1  0
 43 45  1  0
 44 42  2  0
 47 22  1  0
 47 48  1  0
 49 47  1  0
 50 51  1  0
 50  1  1  0
 52 63  2  0
 53 51  1  0
 53 58  1  0
 54 62  1  0
 54 64  1  0
 55 61  1  0
 55 57  1  0
 56 62  1  0
 57 56  1  0
 58 57  2  0
 59 60  1  0
 59 53  2  0
 60 55  2  0
 61 54  1  0
 62 52  1  0
 64 66  2  0
 65 64  1  0
 67 65  1  0
 68 77  2  0
 68 73  1  0
 69 65  1  0
 69 73  1  0
 70 69  1  0
 71 72  1  0
 71 70  1  0
 72 68  1  0
 73 74  2  0
 74 75  1  0
 76 75  2  0
 77 76  1  0
 78 52  1  0
 78 79  1  0
 78 88  1  0
 79 82  1  0
 80 84  1  0
 80 79  1  0
 81 80  2  0
 84 83  1  0
 86 84  1  0
 86 87  1  0
 86 85  1  0
 88 91  1  1
 88 89  1  0
 90 88  1  0
M  ISO  4  10 100  21 100  50 101  51 101
M  END
>  <TORSDO>  (75) 
F 18

>  <SCORE>  (75) 
-14.182

>  <name>  (75) 
74

>  <ligand_id>  (75) 
74

>  <original_smiles>  (75) 
[H]c1oc(C2([H])N(C(=O)N3C([H])([H])C([H])([H])C([H])([H])C([H])(n4nc(-c5c([H])c([H])c(Oc6c([H])c([H])c(F)c([H])c6F)c([H])c5[H])c(C(=O)N([H])[H])c4N([H])[H])C3([H])[H])C([H])([H])C2([H])[H])c([H])c1N([H])C(=O)C([H])([H])Oc1c([H])c([H])c2c(c1[H])C([H])([H])N(C(=O)C([H])(N([H])C(=O)C([H])(N([H])C([H])([H])[H])C([H])([H])[H])C(C([H])([H])[H])(C([H])([H])[H])C([H])([H])[H])C([H])(C(=O)N([H])C1([H])c3c([H])c([H])c([H])c([H])c3C([H])([H])C([H])([H])C1([H])[H])C2([H])[H]

>  <smiles>  (75) 
[H]c1oc(C2([H])N(C(=O)N3C([H])([H])C([H])([H])C([H])([H])C([H])(n4nc(-c5c([H])c([H])c(Oc6c([H])c([H])c(F)c([H])c6F)c([H])c5[H])c(C(=O)N([H])[H])c4N([H])[H])C3([H])[H])C([H])([H])C2([H])[H])c([H])c1N([H])C(=O)C([H])([H])Oc1c([H])c([H])c2c(c1[H])C([H])([H])N(C(=O)C([H])(N([H])C(=O)C([H])(N([H])C([H])([H])[H])C([H])([H])[H])C(C([H])([H])[H])(C([H])([H])[H])C([H])([H])[H])C([H])(C(=O)N([H])C1([H])c3c([H])c([H])c([H])c([H])c3C([H])([H])C([H])([H])C1([H])[H])C2([H])[H]

$$$$
75:0:0
     RDKit          3D

 90 99  0  0  1  0  0  0  0  0999 V2000
  -28.7720  -23.7010   20.3120 C   0  0  0  0  0  0  0  0  0  0  0  0
  -27.9710  -24.8440   20.1810 C   0  0  0  0  0  3  0  0  0  0  0  0
  -30.2350  -23.6040   20.6610 C   0  0  0  0  0  2  0  0  0  0  0  0
  -28.3590  -22.1860   20.1380 C   0  0  0  0  0  2  0  0  0  0  0  0
  -30.5090  -22.1170   21.0750 C   0  0  0  0  0  2  0  0  0  0  0  0
  -29.4090  -21.2320   20.6540 N   0  0  0  0  0  0  0  0  0  0  0  0
  -29.4490  -18.5490   20.8690 C   0  0  0  0  0  3  0  0  0  0  0  0
  -30.4980  -19.5930   19.0930 C   0  0  0  0  0  3  0  0  0  0  0  0
  -29.7400  -19.8520   20.2050 C   0  0  0  0  0  0  0  0  0  0  0  0
  -29.9970  -17.3640   20.2980 C   0  0  0  0  0  0  0  0  0  0  0  0
  -30.8850  -17.8870   18.8780 S   0  0  0  0  0  0  0  0  0  0  0  0
  -30.6090  -14.8540   20.2760 C   0  0  0  0  0  0  0  0  0  0  0  0
  -30.4110  -12.5600   19.2770 C   0  0  0  0  0  2  0  0  0  0  0  0
  -29.4600  -12.6220   18.0590 C   0  0  0  0  0  2  0  0  0  0  0  0
  -27.9970  -12.4380   18.5040 C   0  0  0  0  0  2  0  0  0  0  0  0
  -27.6340  -13.3210   19.7290 C   0  0  0  0  0  3  0  0  0  0  0  0
  -28.7060  -13.2420   20.8390 C   0  0  0  0  0  2  0  0  0  0  0  0
  -29.9930  -13.6140   20.2360 N   0  0  0  0  0  0  0  0  0  0  0  0
  -31.7750  -14.9450   19.8810 O   0  0  0  0  0  0  0  0  0  0  0  0
  -29.8700  -15.9890   20.6410 N   0  0  0  0  0  0  0  0  0  0  0  0
  -29.0190  -15.7600   21.1340 H   0  0  0  0  0  0  0  0  0  0  0  0
  -25.2570  -13.9040   20.4880 C   0  0  0  0  0  0  0  0  0  0  0  0
  -24.1950  -13.1280   20.8670 C   0  0  0  0  0  0  0  0  0  0  0  0
  -24.6570  -11.7760   20.8240 C   0  0  0  0  0  0  0  0  0  0  0  0
  -26.2970  -13.0260   20.2340 N   0  0  0  0  0  0  0  0  0  0  0  0
  -25.9450  -11.7410   20.4990 N   0  0  0  0  0  0  0  0  0  0  0  0
  -23.9320  -10.5140   21.0160 C   0  0  0  0  0  0  0  0  0  0  0  0
  -24.3680   -9.5450   21.9460 C   0  0  0  0  0  3  0  0  0  0  0  0
  -23.6420   -8.3480   22.1270 C   0  0  0  0  0  3  0  0  0  0  0  0
  -22.4650   -8.1110   21.3780 C   0  0  0  0  0  0  0  0  0  0  0  0
  -22.0480   -9.0690   20.4370 C   0  0  0  0  0  3  0  0  0  0  0  0
  -22.7750  -10.2580   20.2530 C   0  0  0  0  0  3  0  0  0  0  0  0
  -21.7090   -6.9670   21.4680 O   0  0  0  0  0  0  0  0  0  0  0  0
  -21.6570   -6.2300   22.6240 C   0  0  0  0  0  0  0  0  0  0  0  0
  -21.2130   -6.7860   23.8430 C   0  0  0  0  0  3  0  0  0  0  0  0
  -21.1080   -5.9740   24.9910 C   0  0  0  0  0  3  0  0  0  0  0  0
  -21.4360   -4.6070   24.9190 C   0  0  0  0  0  0  0  0  0  0  0  0
  -21.8710   -4.0500   23.7040 C   0  0  0  0  0  3  0  0  0  0  0  0
  -21.9780   -4.8590   22.5590 C   0  0  0  0  0  0  0  0  0  0  0  0
  -22.3790   -4.3120   21.3860 F   0  0  0  0  0  0  0  0  0  0  0  0
  -21.3270   -3.8250   26.0190 F   0  0  0  0  0  0  0  0  0  0  0  0
  -22.8010  -13.6050   21.1570 C   0  0  0  0  0  0  0  0  0  0  0  0
  -22.0840  -12.9060   22.0290 N   0  0  0  0  0  0  0  0  0  0  0  0
  -22.3590  -14.6330   20.6460 O   0  0  0  0  0  0  0  0  0  0  0  0
  -22.4560  -12.0750   22.4640 H   0  0  0  0  0  0  0  0  0  0  0  0
  -21.1480  -13.2080   22.2660 H   0  0  0  0  0  0  0  0  0  0  0  0
  -25.4180  -15.2760   20.3150 N   0  0  0  0  0  0  0  0  0  0  0  0
  -24.6510  -15.9270   20.4330 H   0  0  0  0  0  0  0  0  0  0  0  0
  -26.2580  -15.7150   19.9580 H   0  0  0  0  0  0  0  0  0  0  0  0
  -28.2390  -26.2700   20.2390 O   0  0  0  0  0  0  0  0  0  0  0  0
  -24.5970  -31.8760   23.2340 C   0  0  0  0  0  0  0  0  0  0  0  0
  -27.1750  -27.2260   20.1720 C   0  0  0  0  0  0  0  0  0  0  0  0
  -23.3890  -30.4790   21.6010 C   0  0  0  0  0  3  0  0  0  0  0  0
  -24.8350  -28.9280   20.1610 C   0  0  0  0  0  0  0  0  0  0  0  0
  -25.9380  -30.7650   21.4220 C   0  0  0  0  0  2  0  0  0  0  0  0
  -26.0100  -29.3800   20.7730 C   0  0  0  0  0  0  0  0  0  0  0  0
  -27.1780  -28.5380   20.7780 C   0  0  0  0  0  3  0  0  0  0  0  0
  -25.9860  -26.8900   19.4820 C   0  0  0  0  0  3  0  0  0  0  0  0
  -24.8310  -27.6930   19.5020 C   0  0  0  0  0  3  0  0  0  0  0  0
  -23.6020  -29.8110   20.2190 C   0  0  0  0  0  2  0  0  0  0  0  0
  -24.6610  -31.0610   22.1400 N   0  0  0  0  0  0  0  0  0  0  0  0
  -23.5140  -32.1560   23.7710 O   0  0  0  0  0  0  0  0  0  0  0  0
  -22.7260  -29.4610   22.5630 C   0  0  0  0  0  0  0  0  0  0  0  0
  -21.3990  -29.2830   22.4420 N   0  0  0  0  0  0  0  0  0  0  0  0
  -23.4070  -28.8380   23.3820 O   0  0  0  0  0  0  0  0  0  0  0  0
  -20.9080  -29.8380   21.7550 H   0  0  0  0  0  0  0  0  0  0  0  0
  -18.0260  -28.0720   22.9580 C   0  0  0  0  0  0  0  0  0  0  0  0
  -20.5850  -28.3440   23.2170 C   0  0  0  0  0  3  0  0  0  0  0  0
  -20.6890  -26.9110   22.6450 C   0  0  0  0  0  2  0  0  0  0  0  0
  -19.5860  -26.5820   21.6350 C   0  0  0  0  0  2  0  0  0  0  0  0
  -18.2050  -26.7230   22.2840 C   0  0  0  0  0  2  0  0  0  0  0  0
  -19.1430  -28.8400   23.3830 C   0  0  0  0  0  0  0  0  0  0  0  0
  -18.9210  -30.1020   23.9750 C   0  0  0  0  0  3  0  0  0  0  0  0
  -17.6140  -30.5970   24.1460 C   0  0  0  0  0  3  0  0  0  0  0  0
  -16.5120  -29.8270   23.7370 C   0  0  0  0  0  3  0  0  0  0  0  0
  -16.7190  -28.5660   23.1500 C   0  0  0  0  0  3  0  0  0  0  0  0
  -25.8790  -32.5130   23.8510 C   0  0  0  0  0  3  0  0  0  0  0  0
  -25.5640  -33.9080   24.1930 N   0  0  0  0  0  0  0  0  0  0  0  0
  -25.8710  -34.9680   23.4330 C   0  0  0  0  0  0  0  0  0  0  0  0
  -26.5180  -34.8750   22.3880 O   0  0  0  0  0  0  0  0  0  0  0  0
  -24.9860  -34.0530   25.0080 H   0  0  0  0  0  0  0  0  0  0  0  0
  -24.1180  -36.7490   23.1350 C   0  0  0  0  0  1  0  0  0  0  0  0
  -25.3840  -36.3510   23.9100 C   0  0  0  0  0  3  0  0  0  0  0  0
  -27.5310  -37.2530   24.6910 C   0  0  0  0  0  1  0  0  0  0  0  0
  -26.4040  -37.4130   23.7740 N   0  0  0  0  0  0  0  0  0  0  0  0
  -25.9950  -38.3290   23.9330 H   0  0  0  0  0  0  0  0  0  0  0  0
  -26.4070  -31.7380   25.1210 C   0  0  1  0  0  0  0  0  0  0  0  0
  -25.3210  -31.4910   26.1950 C   0  0  0  0  0  1  0  0  0  0  0  0
  -26.9940  -30.3640   24.7240 C   0  0  0  0  0  1  0  0  0  0  0  0
  -27.5580  -32.5350   25.7800 C   0  0  0  0  0  1  0  0  0  0  0  0
  1  3  1  0
  2 50  1  0
  2  1  2  0
  3  5  1  0
  4  1  1  0
  4  6  1  0
  6  5  1  0
  8  9  2  0
  9  6  1  0
  9  7  1  0
 10 20  1  0
 10  7  2  0
 11  8  1  0
 11 10  1  0
 12 20  1  0
 13 18  1  0
 14 15  1  0
 14 13  1  0
 16 15  1  0
 16 25  1  0
 16 17  1  0
 18 12  1  0
 18 17  1  0
 19 12  2  0
 20 21  1  0
 22 23  2  0
 23 42  1  0
 24 23  1  0
 24 27  1  0
 25 22  1  0
 25 26  1  0
 26 24  2  0
 27 28  1  0
 28 29  2  0
 30 33  1  0
 30 29  1  0
 31 30  2  0
 32 31  1  0
 32 27  2  0
 33 34  1  0
 34 35  1  0
 35 36  2  0
 37 36  1  0
 37 41  1  0
 38 37  2  0
 39 34  2  0
 39 38  1  0
 40 39  1  0
 42 43  1  0
 43 46  1  0
 43 45  1  0
 44 42  2  0
 47 48  1  0
 47 22  1  0
 49 47  1  0
 51 62  2  0
 52 50  1  0
 52 57  1  0
 53 61  1  0
 53 63  1  0
 54 60  1  0
 54 56  1  0
 55 61  1  0
 56 57  2  0
 56 55  1  0
 58 59  1  0
 58 52  2  0
 59 54  2  0
 60 53  1  0
 61 51  1  0
 63 65  2  0
 64 63  1  0
 66 64  1  0
 67 76  2  0
 67 72  1  0
 68 64  1  0
 68 72  1  0
 69 68  1  0
 70 71  1  0
 70 69  1  0
 71 67  1  0
 72 73  2  0
 73 74  1  0
 75 74  2  0
 76 75  1  0
 77 51  1  0
 77 78  1  0
 77 87  1  0
 78 81  1  0
 79 83  1  0
 79 78  1  0
 80 79  2  0
 83 82  1  0
 85 83  1  0
 85 86  1  0
 85 84  1  0
 87 90  1  1
 87 88  1  0
 89 87  1  0
M  ISO  4   2 101  12 100  20 100  50 101
M  END
>  <TORSDO>  (76) 
F 17

>  <SCORE>  (76) 
-15.075

>  <name>  (76) 
75

>  <ligand_id>  (76) 
75

>  <original_smiles>  (76) 
[H]C(Oc1c([H])c([H])c2c(c1[H])C([H])([H])N(C(=O)C([H])(N([H])C(=O)C([H])(N([H])C([H])([H])[H])C([H])([H])[H])C(C([H])([H])[H])(C([H])([H])[H])C([H])([H])[H])C([H])(C(=O)N([H])C1([H])c3c([H])c([H])c([H])c([H])c3C([H])([H])C([H])([H])C1([H])[H])C2([H])[H])=C1C([H])([H])N(c2c([H])sc(N([H])C(=O)N3C([H])([H])C([H])([H])C([H])([H])C([H])(n4nc(-c5c([H])c([H])c(Oc6c([H])c([H])c(F)c([H])c6F)c([H])c5[H])c(C(=O)N([H])[H])c4N([H])[H])C3([H])[H])c2[H])C([H])([H])C1([H])[H]

>  <smiles>  (76) 
[H]C(Oc1c([H])c([H])c2c(c1[H])C([H])([H])N(C(=O)C([H])(N([H])C(=O)C([H])(N([H])C([H])([H])[H])C([H])([H])[H])C(C([H])([H])[H])(C([H])([H])[H])C([H])([H])[H])C([H])(C(=O)N([H])C1([H])c3c([H])c([H])c([H])c([H])c3C([H])([H])C([H])([H])C1([H])[H])C2([H])[H])=C1C([H])([H])N(c2c([H])sc(N([H])C(=O)N3C([H])([H])C([H])([H])C([H])([H])C([H])(n4nc(-c5c([H])c([H])c(Oc6c([H])c([H])c(F)c([H])c6F)c([H])c5[H])c(C(=O)N([H])[H])c4N([H])[H])C3([H])[H])c2[H])C([H])([H])C1([H])[H]

$$$$
76:0:0
     RDKit          3D

 95103  0  0  1  0  0  0  0  0999 V2000
  -28.8720  -19.3130   20.7150 C   0  0  0  0  0  3  0  0  0  0  0  0
  -31.1160  -17.8860   19.8010 C   0  0  0  0  0  3  0  0  0  0  0  0
  -28.9440  -17.8900   20.8480 C   0  0  0  0  0  0  0  0  0  0  0  0
  -29.9240  -20.0600   20.1240 C   0  0  0  0  0  0  0  0  0  0  0  0
  -30.0640  -17.1400   20.3940 C   0  0  0  0  0  0  0  0  0  0  0  0
  -31.0440  -19.3050   19.6720 C   0  0  0  0  0  0  0  0  0  0  0  0
  -32.0760  -19.9600   19.0880 F   0  0  0  0  0  0  0  0  0  0  0  0
  -30.7930  -14.6640   20.0660 C   0  0  0  0  0  0  0  0  0  0  0  0
  -30.5520  -12.4690   18.9300 C   0  0  0  0  0  2  0  0  0  0  0  0
  -29.5620  -12.6470   17.7570 C   0  0  0  0  0  2  0  0  0  0  0  0
  -28.1060  -12.4690   18.2350 C   0  0  0  0  0  2  0  0  0  0  0  0
  -27.7940  -13.2850   19.5180 C   0  0  0  0  0  3  0  0  0  0  0  0
  -28.8930  -13.0790   20.5860 C   0  0  0  0  0  2  0  0  0  0  0  0
  -30.1830  -13.4420   19.9760 N   0  0  0  0  0  0  0  0  0  0  0  0
  -31.9340  -14.8470   19.6300 O   0  0  0  0  0  0  0  0  0  0  0  0
  -30.0080  -15.6850   20.5230 N   0  0  0  0  0  0  0  0  0  0  0  0
  -29.1260  -15.3720   20.9000 H   0  0  0  0  0  0  0  0  0  0  0  0
  -25.4090  -13.8510   20.2910 C   0  0  0  0  0  0  0  0  0  0  0  0
  -24.3630  -13.0610   20.6860 C   0  0  0  0  0  0  0  0  0  0  0  0
  -24.8490  -11.7190   20.6550 C   0  0  0  0  0  0  0  0  0  0  0  0
  -26.4630  -12.9860   20.0390 N   0  0  0  0  0  0  0  0  0  0  0  0
  -26.1320  -11.6990   20.3180 N   0  0  0  0  0  0  0  0  0  0  0  0
  -24.1490  -10.4450   20.8720 C   0  0  0  0  0  0  0  0  0  0  0  0
  -24.5900   -9.5160   21.8390 C   0  0  0  0  0  3  0  0  0  0  0  0
  -23.8900   -8.3070   22.0430 C   0  0  0  0  0  3  0  0  0  0  0  0
  -22.7350   -8.0190   21.2780 C   0  0  0  0  0  0  0  0  0  0  0  0
  -22.3140   -8.9380   20.3010 C   0  0  0  0  0  3  0  0  0  0  0  0
  -23.0140  -10.1380   20.0960 C   0  0  0  0  0  3  0  0  0  0  0  0
  -22.0060   -6.8590   21.3890 O   0  0  0  0  0  0  0  0  0  0  0  0
  -21.9160   -6.1750   22.5750 C   0  0  0  0  0  0  0  0  0  0  0  0
  -21.4080   -6.7790   23.7460 C   0  0  0  0  0  3  0  0  0  0  0  0
  -21.2680   -6.0190   24.9250 C   0  0  0  0  0  3  0  0  0  0  0  0
  -21.6260   -4.6580   24.9330 C   0  0  0  0  0  0  0  0  0  0  0  0
  -22.1280   -4.0550   23.7660 C   0  0  0  0  0  3  0  0  0  0  0  0
  -22.2710   -4.8110   22.5900 C   0  0  0  0  0  0  0  0  0  0  0  0
  -22.7330   -4.2200   21.4620 F   0  0  0  0  0  0  0  0  0  0  0  0
  -21.4850   -3.9250   26.0630 F   0  0  0  0  0  0  0  0  0  0  0  0
  -22.9660  -13.5160   20.9930 C   0  0  0  0  0  0  0  0  0  0  0  0
  -22.2740  -12.8140   21.8840 N   0  0  0  0  0  0  0  0  0  0  0  0
  -22.4960  -14.5310   20.4790 O   0  0  0  0  0  0  0  0  0  0  0  0
  -22.6680  -11.9930   22.3210 H   0  0  0  0  0  0  0  0  0  0  0  0
  -21.3390  -13.1010   22.1340 H   0  0  0  0  0  0  0  0  0  0  0  0
  -25.5450  -15.2240   20.1130 N   0  0  0  0  0  0  0  0  0  0  0  0
  -24.7830  -15.8620   20.3040 H   0  0  0  0  0  0  0  0  0  0  0  0
  -26.4270  -15.7060   19.9800 H   0  0  0  0  0  0  0  0  0  0  0  0
  -27.8820  -17.2020   21.4400 N   0  0  0  0  0  0  0  0  0  0  0  0
  -27.1540  -17.7770   21.8500 H   0  0  0  0  0  0  0  0  0  0  0  0
  -28.1400  -16.4590   22.0790 H   0  0  0  0  0  0  0  0  0  0  0  0
  -29.9260  -21.4860   19.9490 N   0  0  0  0  0  0  0  0  0  0  0  0
  -30.7350  -21.8890   19.4780 H   0  0  0  0  0  0  0  0  0  0  0  0
  -28.9250  -22.4820   20.4440 C   0  0  0  0  0  2  0  0  0  0  0  0
  -29.1850  -23.9970   20.0620 C   0  0  0  0  0  0  0  0  0  0  0  0
  -30.1600  -24.2920   19.3590 O   0  0  0  0  0  0  0  0  0  0  0  0
  -28.1970  -25.1100   20.5800 C   0  0  0  0  0  2  0  0  0  0  0  0
  -28.4630  -26.5040   20.1540 O   0  0  0  0  0  0  0  0  0  0  0  0
  -24.7400  -31.8710   23.2140 C   0  0  0  0  0  0  0  0  0  0  0  0
  -27.3490  -27.3490   20.1310 C   0  0  0  0  0  0  0  0  0  0  0  0
  -23.5300  -30.4760   21.5740 C   0  0  0  0  0  3  0  0  0  0  0  0
  -24.9780  -28.9360   20.1370 C   0  0  0  0  0  0  0  0  0  0  0  0
  -26.0650  -30.8080   21.3770 C   0  0  0  0  0  2  0  0  0  0  0  0
  -26.1470  -29.4320   20.7280 C   0  0  0  0  0  0  0  0  0  0  0  0
  -27.3390  -28.6510   20.7150 C   0  0  0  0  0  3  0  0  0  0  0  0
  -26.1630  -26.9050   19.5080 C   0  0  0  0  0  3  0  0  0  0  0  0
  -24.9860  -27.6770   19.5170 C   0  0  0  0  0  3  0  0  0  0  0  0
  -23.7360  -29.8020   20.1920 C   0  0  0  0  0  2  0  0  0  0  0  0
  -24.7980  -31.0680   22.1120 N   0  0  0  0  0  0  0  0  0  0  0  0
  -23.6580  -32.1430   23.7560 O   0  0  0  0  0  0  0  0  0  0  0  0
  -22.8760  -29.4540   22.5340 C   0  0  0  0  0  0  0  0  0  0  0  0
  -21.5490  -29.2730   22.4130 N   0  0  0  0  0  0  0  0  0  0  0  0
  -23.5600  -28.8270   23.3470 O   0  0  0  0  0  0  0  0  0  0  0  0
  -21.0560  -29.8320   21.7300 H   0  0  0  0  0  0  0  0  0  0  0  0
  -18.1760  -28.0700   22.9190 C   0  0  0  0  0  0  0  0  0  0  0  0
  -20.7340  -28.3330   23.1840 C   0  0  0  0  0  3  0  0  0  0  0  0
  -20.8380  -26.9030   22.6060 C   0  0  0  0  0  2  0  0  0  0  0  0
  -19.7340  -26.5790   21.5950 C   0  0  0  0  0  2  0  0  0  0  0  0
  -18.3530  -26.7220   22.2420 C   0  0  0  0  0  2  0  0  0  0  0  0
  -19.2950  -28.8340   23.3470 C   0  0  0  0  0  0  0  0  0  0  0  0
  -19.0740  -30.0960   23.9400 C   0  0  0  0  0  3  0  0  0  0  0  0
  -17.7690  -30.5950   24.1090 C   0  0  0  0  0  3  0  0  0  0  0  0
  -16.6650  -29.8280   23.6970 C   0  0  0  0  0  3  0  0  0  0  0  0
  -16.8700  -28.5670   23.1080 C   0  0  0  0  0  3  0  0  0  0  0  0
  -26.0250  -32.5040   23.8310 C   0  0  0  0  0  3  0  0  0  0  0  0
  -25.7130  -33.8980   24.1760 N   0  0  0  0  0  0  0  0  0  0  0  0
  -26.0340  -34.9590   23.4210 C   0  0  0  0  0  0  0  0  0  0  0  0
  -26.6960  -34.8660   22.3840 O   0  0  0  0  0  0  0  0  0  0  0  0
  -25.1280  -34.0450   24.9850 H   0  0  0  0  0  0  0  0  0  0  0  0
  -24.2950  -36.7440   23.0980 C   0  0  0  0  0  1  0  0  0  0  0  0
  -25.5450  -36.3410   23.8950 C   0  0  0  0  0  3  0  0  0  0  0  0
  -27.6850  -37.2260   24.7110 C   0  0  0  0  0  1  0  0  0  0  0  0
  -26.5710  -37.4010   23.7820 N   0  0  0  0  0  0  0  0  0  0  0  0
  -26.1630  -38.3170   23.9460 H   0  0  0  0  0  0  0  0  0  0  0  0
  -26.5540  -31.7250   25.0980 C   0  0  1  0  0  0  0  0  0  0  0  0
  -25.4700  -31.4730   26.1700 C   0  0  0  0  0  1  0  0  0  0  0  0
  -27.1400  -30.3540   24.6890 C   0  0  0  0  0  1  0  0  0  0  0  0
  -27.7040  -32.5180   25.7590 C   0  0  0  0  0  1  0  0  0  0  0  0
  1  3  1  0
  2  5  1  0
  3 46  1  0
  4  1  2  0
  5 16  1  0
  5  3  2  0
  6  2  2  0
  6  4  1  0
  7  6  1  0
  8 16  1  0
  9 14  1  0
 10 11  1  0
 10  9  1  0
 12 11  1  0
 12 21  1  0
 12 13  1  0
 14  8  1  0
 14 13  1  0
 15  8  2  0
 16 17  1  0
 18 19  2  0
 19 38  1  0
 20 19  1  0
 20 23  1  0
 21 18  1  0
 21 22  1  0
 22 20  2  0
 23 24  1  0
 24 25  2  0
 26 29  1  0
 26 25  1  0
 27 26  2  0
 28 27  1  0
 28 23  2  0
 29 30  1  0
 30 35  2  0
 30 31  1  0
 31 32  2  0
 32 33  1  0
 33 37  1  0
 34 33  2  0
 35 34  1  0
 36 35  1  0
 38 39  1  0
 39 42  1  0
 39 41  1  0
 40 38  2  0
 43 18  1  0
 43 44  1  0
 45 43  1  0
 46 47  1  0
 46 48  1  0
 49  4  1  0
 49 51  1  0
 50 49  1  0
 52 51  1  0
 52 54  1  0
 53 52  2  0
 55 54  1  0
 56 67  2  0
 57 55  1  0
 57 62  1  0
 58 66  1  0
 58 68  1  0
 59 65  1  0
 59 61  1  0
 60 66  1  0
 61 60  1  0
 62 61  2  0
 63 64  1  0
 63 57  2  0
 64 59  2  0
 65 58  1  0
 66 56  1  0
 68 70  2  0
 69 68  1  0
 71 69  1  0
 72 81  2  0
 72 77  1  0
 73 69  1  0
 73 77  1  0
 74 73  1  0
 75 76  1  0
 75 74  1  0
 76 72  1  0
 77 78  2  0
 78 79  1  0
 80 79  2  0
 81 80  1  0
 82 56  1  0
 82 83  1  0
 82 92  1  0
 83 86  1  0
 84 88  1  0
 84 83  1  0
 85 84  2  0
 88 87  1  0
 90 88  1  0
 90 91  1  0
 90 89  1  0
 92 95  1  1
 92 93  1  0
 94 92  1  0
M  ISO  4   8 100  16 100  54 101  55 101
M  END
>  <TORSDO>  (77) 
F 21

>  <SCORE>  (77) 
-12.196

>  <name>  (77) 
76

>  <ligand_id>  (77) 
76

>  <original_smiles>  (77) 
[H]c1c([H])c([H])c2c(c1[H])C([H])([H])C([H])([H])C([H])([H])C2([H])N([H])C(=O)C1([H])N(C(=O)C([H])(N([H])C(=O)C([H])(N([H])C([H])([H])[H])C([H])([H])[H])C(C([H])([H])[H])(C([H])([H])[H])C([H])([H])[H])C([H])([H])c2c([H])c(OC([H])([H])C(=O)C([H])([H])N([H])c3c([H])c(N([H])[H])c(N([H])C(=O)N4C([H])([H])C([H])([H])C([H])([H])C([H])(n5nc(-c6c([H])c([H])c(Oc7c([H])c([H])c(F)c([H])c7F)c([H])c6[H])c(C(=O)N([H])[H])c5N([H])[H])C4([H])[H])c([H])c3F)c([H])c([H])c2C1([H])[H]

>  <smiles>  (77) 
[H]c1c([H])c([H])c2c(c1[H])C([H])([H])C([H])([H])C([H])([H])C2([H])N([H])C(=O)C1([H])N(C(=O)C([H])(N([H])C(=O)C([H])(N([H])C([H])([H])[H])C([H])([H])[H])C(C([H])([H])[H])(C([H])([H])[H])C([H])([H])[H])C([H])([H])c2c([H])c(OC([H])([H])C(=O)C([H])([H])N([H])c3c([H])c(N([H])[H])c(N([H])C(=O)N4C([H])([H])C([H])([H])C([H])([H])C([H])(n5nc(-c6c([H])c([H])c(Oc7c([H])c([H])c(F)c([H])c7F)c([H])c6[H])c(C(=O)N([H])[H])c5N([H])[H])C4([H])[H])c([H])c3F)c([H])c([H])c2C1([H])[H]

$$$$
77:0:0
     RDKit          3D

 93101  0  0  1  0  0  0  0  0999 V2000
  -29.8560  -20.7440   21.7100 C   0  0  0  0  0  3  0  0  0  0  0  0
  -30.2560  -19.3520   21.6600 C   0  0  0  0  0  0  0  0  0  0  0  0
  -29.9090  -18.8230   20.4300 C   0  0  0  0  0  0  0  0  0  0  0  0
  -29.2780  -21.0740   20.5130 C   0  0  0  0  0  0  0  0  0  0  0  0
  -29.2800  -19.8950   19.7330 O   0  0  0  0  0  0  0  0  0  0  0  0
  -28.8530  -23.6290   20.5950 C   0  0  0  0  0  0  0  0  0  0  0  0
  -28.6820  -22.3080   20.1590 N   0  0  0  0  0  0  0  0  0  0  0  0
  -29.7970  -23.9360   21.3290 O   0  0  0  0  0  0  0  0  0  0  0  0
  -27.9590  -22.2210   19.4590 H   0  0  0  0  0  0  0  0  0  0  0  0
  -27.8120  -24.7940   20.1650 C   0  0  0  0  0  2  0  0  0  0  0  0
  -28.1310  -26.2760   20.3500 O   0  0  0  0  0  0  0  0  0  0  0  0
  -24.5970  -31.9720   23.2230 C   0  0  0  0  0  0  0  0  0  0  0  0
  -27.0780  -27.2340   20.2420 C   0  0  0  0  0  0  0  0  0  0  0  0
  -23.3520  -30.5540   21.6370 C   0  0  0  0  0  3  0  0  0  0  0  0
  -24.7590  -28.9530   20.2130 C   0  0  0  0  0  0  0  0  0  0  0  0
  -25.9000  -30.8110   21.4140 C   0  0  0  0  0  2  0  0  0  0  0  0
  -25.9480  -29.4130   20.7940 C   0  0  0  0  0  0  0  0  0  0  0  0
  -27.1090  -28.5640   20.8000 C   0  0  0  0  0  3  0  0  0  0  0  0
  -25.8720  -26.8730   19.5970 C   0  0  0  0  0  3  0  0  0  0  0  0
  -24.7290  -27.6940   19.6010 C   0  0  0  0  0  3  0  0  0  0  0  0
  -23.5380  -29.8520   20.2660 C   0  0  0  0  0  2  0  0  0  0  0  0
  -24.6370  -31.1330   22.1450 N   0  0  0  0  0  0  0  0  0  0  0  0
  -23.5240  -32.2760   23.7670 O   0  0  0  0  0  0  0  0  0  0  0  0
  -22.6900  -29.5670   22.6300 C   0  0  0  0  0  0  0  0  0  0  0  0
  -21.3750  -29.3350   22.4720 N   0  0  0  0  0  0  0  0  0  0  0  0
  -23.3600  -29.0130   23.5040 O   0  0  0  0  0  0  0  0  0  0  0  0
  -20.8890  -29.8340   21.7400 H   0  0  0  0  0  0  0  0  0  0  0  0
  -18.0490  -27.9620   22.8740 C   0  0  0  0  0  0  0  0  0  0  0  0
  -20.5650  -28.4110   23.2700 C   0  0  0  0  0  3  0  0  0  0  0  0
  -20.7900  -26.9470   22.8260 C   0  0  0  0  0  2  0  0  0  0  0  0
  -19.7760  -26.4710   21.7790 C   0  0  0  0  0  2  0  0  0  0  0  0
  -18.3500  -26.5760   22.3280 C   0  0  0  0  0  2  0  0  0  0  0  0
  -19.0890  -28.8290   23.3030 C   0  0  0  0  0  0  0  0  0  0  0  0
  -18.7550  -30.1170   23.7720 C   0  0  0  0  0  3  0  0  0  0  0  0
  -17.4140  -30.5420   23.8200 C   0  0  0  0  0  3  0  0  0  0  0  0
  -16.3870  -29.6740   23.4070 C   0  0  0  0  0  3  0  0  0  0  0  0
  -16.7060  -28.3870   22.9400 C   0  0  0  0  0  3  0  0  0  0  0  0
  -25.8940  -32.6060   23.8100 C   0  0  0  0  0  3  0  0  0  0  0  0
  -26.4450  -31.8360   25.0730 C   0  0  1  0  0  0  0  0  0  0  0  0
  -25.3780  -31.5800   26.1630 C   0  0  0  0  0  1  0  0  0  0  0  0
  -27.0380  -30.4670   24.6660 C   0  0  0  0  0  1  0  0  0  0  0  0
  -27.5990  -32.6420   25.7150 C   0  0  0  0  0  1  0  0  0  0  0  0
  -25.5920  -34.0040   24.1500 N   0  0  0  0  0  0  0  0  0  0  0  0
  -25.9120  -35.0610   23.3910 C   0  0  0  0  0  0  0  0  0  0  0  0
  -26.5610  -34.9610   22.3470 O   0  0  0  0  0  0  0  0  0  0  0  0
  -25.0120  -34.1550   24.9630 H   0  0  0  0  0  0  0  0  0  0  0  0
  -24.1820  -36.8630   23.0820 C   0  0  0  0  0  1  0  0  0  0  0  0
  -25.4380  -36.4500   23.8650 C   0  0  0  0  0  3  0  0  0  0  0  0
  -27.5860  -37.3320   24.6630 C   0  0  0  0  0  1  0  0  0  0  0  0
  -26.4730  -37.5000   23.7340 N   0  0  0  0  0  0  0  0  0  0  0  0
  -26.0710  -38.4220   23.8810 H   0  0  0  0  0  0  0  0  0  0  0  0
  -30.9790  -18.5760   22.6950 C   0  0  0  0  0  0  0  0  0  0  0  0
  -31.2880  -19.3050   23.9940 C   0  0  0  0  0  1  0  0  0  0  0  0
  -31.3270  -17.4030   22.5510 O   0  0  0  0  0  0  0  0  0  0  0  0
  -30.1570  -17.4420   19.6640 C   0  0  0  0  0  2  0  0  0  0  0  0
  -30.7190  -14.8830   20.0010 C   0  0  0  0  0  0  0  0  0  0  0  0
  -30.4930  -12.5890   19.0210 C   0  0  0  0  0  2  0  0  0  0  0  0
  -29.5000  -12.6510   17.8380 C   0  0  0  0  0  2  0  0  0  0  0  0
  -28.0540  -12.4640   18.3360 C   0  0  0  0  0  2  0  0  0  0  0  0
  -27.7320  -13.3480   19.5720 C   0  0  0  0  0  3  0  0  0  0  0  0
  -28.8430  -13.2780   20.6440 C   0  0  0  0  0  2  0  0  0  0  0  0
  -30.1050  -13.6450   19.9910 N   0  0  0  0  0  0  0  0  0  0  0  0
  -31.8760  -14.9790   19.5790 O   0  0  0  0  0  0  0  0  0  0  0  0
  -29.9570  -16.0260   20.2430 N   0  0  0  0  0  0  0  0  0  0  0  0
  -29.0430  -15.8510   20.6310 H   0  0  0  0  0  0  0  0  0  0  0  0
  -25.3930  -13.9240   20.4480 C   0  0  0  0  0  0  0  0  0  0  0  0
  -24.3450  -13.1440   20.8540 C   0  0  0  0  0  0  0  0  0  0  0  0
  -24.7980  -11.7920   20.7590 C   0  0  0  0  0  0  0  0  0  0  0  0
  -26.4170  -13.0480   20.1270 N   0  0  0  0  0  0  0  0  0  0  0  0
  -26.0700  -11.7590   20.3770 N   0  0  0  0  0  0  0  0  0  0  0  0
  -24.0760  -10.5290   20.9530 C   0  0  0  0  0  0  0  0  0  0  0  0
  -24.5140   -9.5630   21.8870 C   0  0  0  0  0  3  0  0  0  0  0  0
  -23.7910   -8.3640   22.0690 C   0  0  0  0  0  3  0  0  0  0  0  0
  -22.6160   -8.1220   21.3180 C   0  0  0  0  0  0  0  0  0  0  0  0
  -22.1970   -9.0770   20.3730 C   0  0  0  0  0  3  0  0  0  0  0  0
  -22.9200  -10.2670   20.1890 C   0  0  0  0  0  3  0  0  0  0  0  0
  -21.8640   -6.9760   21.4100 O   0  0  0  0  0  0  0  0  0  0  0  0
  -21.7750   -6.2660   22.5800 C   0  0  0  0  0  0  0  0  0  0  0  0
  -21.2660   -6.8430   23.7650 C   0  0  0  0  0  3  0  0  0  0  0  0
  -21.1260   -6.0570   24.9270 C   0  0  0  0  0  3  0  0  0  0  0  0
  -21.4830   -4.6950   24.9040 C   0  0  0  0  0  0  0  0  0  0  0  0
  -21.9850   -4.1180   23.7240 C   0  0  0  0  0  3  0  0  0  0  0  0
  -22.1270   -4.9010   22.5640 C   0  0  0  0  0  0  0  0  0  0  0  0
  -22.5900   -4.3350   21.4240 F   0  0  0  0  0  0  0  0  0  0  0  0
  -21.3420   -3.9390   26.0170 F   0  0  0  0  0  0  0  0  0  0  0  0
  -22.9680  -13.6200   21.2150 C   0  0  0  0  0  0  0  0  0  0  0  0
  -22.2850  -12.9050   22.1020 N   0  0  0  0  0  0  0  0  0  0  0  0
  -22.5080  -14.6600   20.7460 O   0  0  0  0  0  0  0  0  0  0  0  0
  -22.6710  -12.0640   22.5040 H   0  0  0  0  0  0  0  0  0  0  0  0
  -21.3640  -13.2060   22.3850 H   0  0  0  0  0  0  0  0  0  0  0  0
  -25.5550  -15.2990   20.3020 N   0  0  0  0  0  0  0  0  0  0  0  0
  -24.7950  -15.9490   20.4730 H   0  0  0  0  0  0  0  0  0  0  0  0
  -26.3770  -15.7460   19.9190 H   0  0  0  0  0  0  0  0  0  0  0  0
  2  1  1  0
  2 52  1  0
  3  2  2  0
  4  1  2  0
  5  3  1  0
  5  4  1  0
  6  8  2  0
  7  4  1  0
  7  6  1  0
  9  7  1  0
 10 11  1  0
 10  6  1  0
 12 23  2  0
 13 11  1  0
 13 18  1  0
 14 22  1  0
 14 24  1  0
 15 21  1  0
 15 17  1  0
 16 22  1  0
 17 18  2  0
 17 16  1  0
 19 20  1  0
 19 13  2  0
 20 15  2  0
 21 14  1  0
 22 12  1  0
 24 26  2  0
 25 24  1  0
 27 25  1  0
 28 37  2  0
 28 33  1  0
 29 25  1  0
 29 33  1  0
 30 29  1  0
 31 32  1  0
 31 30  1  0
 32 28  1  0
 33 34  2  0
 34 35  1  0
 36 35  2  0
 37 36  1  0
 38 12  1  0
 38 43  1  0
 38 39  1  0
 39 42  1  1
 39 40  1  0
 41 39  1  0
 43 46  1  0
 44 48  1  0
 44 43  1  0
 45 44  2  0
 48 47  1  0
 50 48  1  0
 50 51  1  0
 50 49  1  0
 52 53  1  0
 54 52  2  0
 55 64  1  0
 55  3  1  0
 56 64  1  0
 57 62  1  0
 58 59  1  0
 58 57  1  0
 60 59  1  0
 60 69  1  0
 60 61  1  0
 62 56  1  0
 62 61  1  0
 63 56  2  0
 64 65  1  0
 66 67  2  0
 67 86  1  0
 68 67  1  0
 68 71  1  0
 69 70  1  0
 69 66  1  0
 70 68  2  0
 71 72  1  0
 72 73  2  0
 74 77  1  0
 74 73  1  0
 75 74  2  0
 76 75  1  0
 76 71  2  0
 77 78  1  0
 78 79  1  0
 79 80  2  0
 81 80  1  0
 81 85  1  0
 82 81  2  0
 83 78  2  0
 83 82  1  0
 84 83  1  0
 86 87  1  0
 87 90  1  0
 87 89  1  0
 88 86  2  0
 91 66  1  0
 91 92  1  0
 93 91  1  0
M  ISO  4  10 101  11 101  56 100  64 100
M  END
>  <TORSDO>  (78) 
F 20

>  <SCORE>  (78) 
-12.929

>  <name>  (78) 
77

>  <ligand_id>  (78) 
77

>  <original_smiles>  (78) 
[H]c1c([H])c([H])c2c(c1[H])C([H])([H])C([H])([H])C([H])([H])C2([H])N([H])C(=O)C1([H])N(C(=O)C([H])(N([H])C(=O)C([H])(N([H])C([H])([H])[H])C([H])([H])[H])C(C([H])([H])[H])(C([H])([H])[H])C([H])([H])[H])C([H])([H])c2c([H])c(OC([H])([H])C(=O)N([H])c3oc(C([H])([H])N([H])C(=O)N4C([H])([H])C([H])([H])C([H])([H])C([H])(n5nc(-c6c([H])c([H])c(Oc7c([H])c([H])c(F)c([H])c7F)c([H])c6[H])c(C(=O)N([H])[H])c5N([H])[H])C4([H])[H])c(C(=O)C([H])([H])[H])c3[H])c([H])c([H])c2C1([H])[H]

>  <smiles>  (78) 
[H]c1c([H])c([H])c2c(c1[H])C([H])([H])C([H])([H])C([H])([H])C2([H])N([H])C(=O)C1([H])N(C(=O)C([H])(N([H])C(=O)C([H])(N([H])C([H])([H])[H])C([H])([H])[H])C(C([H])([H])[H])(C([H])([H])[H])C([H])([H])[H])C([H])([H])c2c([H])c(OC([H])([H])C(=O)N([H])c3oc(C([H])([H])N([H])C(=O)N4C([H])([H])C([H])([H])C([H])([H])C([H])(n5nc(-c6c([H])c([H])c(Oc7c([H])c([H])c(F)c([H])c7F)c([H])c6[H])c(C(=O)N([H])[H])c5N([H])[H])C4([H])[H])c(C(=O)C([H])([H])[H])c3[H])c([H])c([H])c2C1([H])[H]

$$$$
78:0:0
     RDKit          3D

 91 99  0  0  1  0  0  0  0  0999 V2000
  -28.8330  -23.6590   20.1570 C   0  0  0  0  0  0  0  0  0  0  0  0
  -28.3610  -22.4100   20.5510 N   0  0  0  0  0  0  0  0  0  0  0  0
  -29.8760  -23.7870   19.5080 O   0  0  0  0  0  0  0  0  0  0  0  0
  -27.5040  -22.5330   21.0740 H   0  0  0  0  0  0  0  0  0  0  0  0
  -29.8340  -20.2000   19.8710 C   0  0  0  0  0  3  0  0  0  0  0  0
  -27.9340  -19.9760   20.9680 C   0  0  0  0  0  3  0  0  0  0  0  0
  -28.7340  -20.9620   20.4440 C   0  0  0  0  0  0  0  0  0  0  0  0
  -29.6240  -18.8190   20.0820 C   0  0  0  0  0  0  0  0  0  0  0  0
  -28.4480  -18.7060   20.7700 O   0  0  0  0  0  0  0  0  0  0  0  0
  -30.7110  -17.5090   18.2080 C   0  0  0  0  0  1  0  0  0  0  0  0
  -30.4340  -17.4930   19.7250 C   0  0  0  0  0  3  0  0  0  0  0  0
  -30.7320  -14.8870   19.9770 C   0  0  0  0  0  0  0  0  0  0  0  0
  -30.4850  -12.6020   18.9920 C   0  0  0  0  0  2  0  0  0  0  0  0
  -29.4890  -12.6530   17.8140 C   0  0  0  0  0  2  0  0  0  0  0  0
  -28.0480  -12.4560   18.3220 C   0  0  0  0  0  2  0  0  0  0  0  0
  -27.7230  -13.3420   19.5540 C   0  0  0  0  0  3  0  0  0  0  0  0
  -28.8400  -13.2960   20.6190 C   0  0  0  0  0  2  0  0  0  0  0  0
  -30.0920  -13.6650   19.9500 N   0  0  0  0  0  0  0  0  0  0  0  0
  -31.9160  -14.9420   19.6330 O   0  0  0  0  0  0  0  0  0  0  0  0
  -29.9980  -16.0670   20.1290 N   0  0  0  0  0  0  0  0  0  0  0  0
  -29.0330  -15.9640   20.4020 H   0  0  0  0  0  0  0  0  0  0  0  0
  -25.3830  -13.8950   20.4410 C   0  0  0  0  0  0  0  0  0  0  0  0
  -24.3440  -13.1050   20.8490 C   0  0  0  0  0  0  0  0  0  0  0  0
  -24.8090  -11.7570   20.7530 C   0  0  0  0  0  0  0  0  0  0  0  0
  -26.4140  -13.0290   20.1170 N   0  0  0  0  0  0  0  0  0  0  0  0
  -26.0810  -11.7360   20.3690 N   0  0  0  0  0  0  0  0  0  0  0  0
  -24.0980  -10.4860   20.9470 C   0  0  0  0  0  0  0  0  0  0  0  0
  -24.5200   -9.5420   21.9070 C   0  0  0  0  0  3  0  0  0  0  0  0
  -23.8070   -8.3380   22.0890 C   0  0  0  0  0  3  0  0  0  0  0  0
  -22.6580   -8.0680   21.3080 C   0  0  0  0  0  0  0  0  0  0  0  0
  -22.2560   -9.0010   20.3360 C   0  0  0  0  0  3  0  0  0  0  0  0
  -22.9690  -10.1970   20.1530 C   0  0  0  0  0  3  0  0  0  0  0  0
  -21.9180   -6.9130   21.3960 O   0  0  0  0  0  0  0  0  0  0  0  0
  -21.7630   -6.2470   22.5860 C   0  0  0  0  0  0  0  0  0  0  0  0
  -21.1830   -6.8660   23.7150 C   0  0  0  0  0  3  0  0  0  0  0  0
  -20.9780   -6.1250   24.8950 C   0  0  0  0  0  3  0  0  0  0  0  0
  -21.3420   -4.7660   24.9470 C   0  0  0  0  0  0  0  0  0  0  0  0
  -21.9150   -4.1480   23.8210 C   0  0  0  0  0  3  0  0  0  0  0  0
  -22.1210   -4.8860   22.6440 C   0  0  0  0  0  0  0  0  0  0  0  0
  -22.6540   -4.2800   21.5550 F   0  0  0  0  0  0  0  0  0  0  0  0
  -21.1390   -4.0520   26.0790 F   0  0  0  0  0  0  0  0  0  0  0  0
  -22.9630  -13.5680   21.2120 C   0  0  0  0  0  0  0  0  0  0  0  0
  -22.2870  -12.8440   22.0970 N   0  0  0  0  0  0  0  0  0  0  0  0
  -22.4940  -14.6060   20.7460 O   0  0  0  0  0  0  0  0  0  0  0  0
  -22.6800  -12.0040   22.4930 H   0  0  0  0  0  0  0  0  0  0  0  0
  -21.3630  -13.1350   22.3830 H   0  0  0  0  0  0  0  0  0  0  0  0
  -25.5310  -15.2710   20.2940 N   0  0  0  0  0  0  0  0  0  0  0  0
  -24.7650  -15.9150   20.4640 H   0  0  0  0  0  0  0  0  0  0  0  0
  -26.3480  -15.7250   19.9070 H   0  0  0  0  0  0  0  0  0  0  0  0
  -27.9720  -24.9660   20.5780 C   0  0  0  0  0  2  0  0  0  0  0  0
  -28.3330  -26.3740   20.1280 O   0  0  0  0  0  0  0  0  0  0  0  0
  -24.6510  -31.9020   23.1610 C   0  0  0  0  0  0  0  0  0  0  0  0
  -27.2710  -27.3170   20.0830 C   0  0  0  0  0  0  0  0  0  0  0  0
  -23.4630  -30.5230   21.4960 C   0  0  0  0  0  3  0  0  0  0  0  0
  -24.9270  -28.9890   20.0580 C   0  0  0  0  0  0  0  0  0  0  0  0
  -26.0100  -30.8270   21.3440 C   0  0  0  0  0  2  0  0  0  0  0  0
  -26.0960  -29.4510   20.6780 C   0  0  0  0  0  0  0  0  0  0  0  0
  -27.2740  -28.6290   20.6780 C   0  0  0  0  0  3  0  0  0  0  0  0
  -26.0870  -26.9440   19.4120 C   0  0  0  0  0  3  0  0  0  0  0  0
  -24.9300  -27.7460   19.4110 C   0  0  0  0  0  3  0  0  0  0  0  0
  -23.6910  -29.8680   20.1090 C   0  0  0  0  0  2  0  0  0  0  0  0
  -24.7270  -31.1020   22.0560 N   0  0  0  0  0  0  0  0  0  0  0  0
  -23.5610  -32.1730   23.6880 O   0  0  0  0  0  0  0  0  0  0  0  0
  -22.7900  -29.4950   22.4390 C   0  0  0  0  0  0  0  0  0  0  0  0
  -21.4640  -29.3210   22.3030 N   0  0  0  0  0  0  0  0  0  0  0  0
  -23.4620  -28.8580   23.2550 O   0  0  0  0  0  0  0  0  0  0  0  0
  -20.9800  -29.8860   21.6200 H   0  0  0  0  0  0  0  0  0  0  0  0
  -18.0790  -28.1320   22.7900 C   0  0  0  0  0  0  0  0  0  0  0  0
  -20.6400  -28.3730   23.0570 C   0  0  0  0  0  3  0  0  0  0  0  0
  -20.7330  -26.9520   22.4560 C   0  0  0  0  0  2  0  0  0  0  0  0
  -19.6270  -26.6540   21.4380 C   0  0  0  0  0  2  0  0  0  0  0  0
  -18.2480  -26.7950   22.0870 C   0  0  0  0  0  2  0  0  0  0  0  0
  -19.2030  -28.8790   23.2310 C   0  0  0  0  0  0  0  0  0  0  0  0
  -18.9920  -30.1310   23.8490 C   0  0  0  0  0  3  0  0  0  0  0  0
  -17.6900  -30.6350   24.0290 C   0  0  0  0  0  3  0  0  0  0  0  0
  -16.5810  -29.8840   23.6030 C   0  0  0  0  0  3  0  0  0  0  0  0
  -16.7760  -28.6340   22.9890 C   0  0  0  0  0  3  0  0  0  0  0  0
  -25.9250  -32.5310   23.8000 C   0  0  0  0  0  3  0  0  0  0  0  0
  -26.4250  -31.7550   25.0810 C   0  0  1  0  0  0  0  0  0  0  0  0
  -25.3180  -31.5110   26.1330 C   0  0  0  0  0  1  0  0  0  0  0  0
  -27.0140  -30.3790   24.6930 C   0  0  0  0  0  1  0  0  0  0  0  0
  -27.5660  -32.5470   25.7610 C   0  0  0  0  0  1  0  0  0  0  0  0
  -25.6120  -33.9290   24.1360 N   0  0  0  0  0  0  0  0  0  0  0  0
  -25.9530  -34.9870   23.3900 C   0  0  0  0  0  0  0  0  0  0  0  0
  -26.6320  -34.8920   22.3650 O   0  0  0  0  0  0  0  0  0  0  0  0
  -25.0090  -34.0780   24.9320 H   0  0  0  0  0  0  0  0  0  0  0  0
  -24.2340  -36.7900   23.0290 C   0  0  0  0  0  1  0  0  0  0  0  0
  -25.4630  -36.3740   23.8530 C   0  0  0  0  0  3  0  0  0  0  0  0
  -27.5850  -37.2480   24.7270 C   0  0  0  0  0  1  0  0  0  0  0  0
  -26.5000  -37.4240   23.7650 N   0  0  0  0  0  0  0  0  0  0  0  0
  -26.0940  -38.3440   23.9100 H   0  0  0  0  0  0  0  0  0  0  0  0
  1  2  1  0
  1 50  1  0
  2  4  1  0
  3  1  2  0
  5  8  2  0
  5  7  1  0
  7  2  1  0
  7  6  2  0
  8  9  1  0
  9  6  1  0
 11 10  1  0
 11  8  1  0
 11 20  1  0
 12 20  1  0
 13 18  1  0
 14 15  1  0
 14 13  1  0
 16 15  1  0
 16 25  1  0
 16 17  1  0
 18 12  1  0
 18 17  1  0
 19 12  2  0
 20 21  1  0
 22 23  2  0
 23 42  1  0
 24 23  1  0
 24 27  1  0
 25 26  1  0
 25 22  1  0
 26 24  2  0
 27 28  1  0
 28 29  2  0
 30 33  1  0
 30 29  1  0
 31 30  2  0
 32 31  1  0
 32 27  2  0
 33 34  1  0
 34 39  2  0
 34 35  1  0
 35 36  2  0
 36 37  1  0
 37 41  1  0
 38 37  2  0
 39 38  1  0
 40 39  1  0
 42 43  1  0
 43 46  1  0
 43 45  1  0
 44 42  2  0
 47 22  1  0
 47 48  1  0
 49 47  1  0
 51 50  1  0
 52 63  2  0
 53 51  1  0
 53 58  1  0
 54 62  1  0
 54 64  1  0
 55 61  1  0
 55 57  1  0
 56 62  1  0
 57 58  2  0
 57 56  1  0
 59 53  2  0
 60 59  1  0
 60 55  2  0
 61 54  1  0
 62 52  1  0
 64 66  2  0
 65 64  1  0
 67 65  1  0
 68 77  2  0
 68 73  1  0
 69 65  1  0
 69 73  1  0
 70 69  1  0
 71 72  1  0
 71 70  1  0
 72 68  1  0
 73 74  2  0
 74 75  1  0
 76 75  2  0
 77 76  1  0
 78 52  1  0
 78 83  1  0
 78 79  1  0
 79 82  1  1
 79 80  1  0
 81 79  1  0
 83 86  1  0
 84 88  1  0
 84 83  1  0
 85 84  2  0
 88 87  1  0
 90 88  1  0
 90 91  1  0
 90 89  1  0
M  ISO  4  12 100  20 100  50 101  51 101
M  END
>  <TORSDO>  (79) 
F 19

>  <SCORE>  (79) 
-13.411

>  <name>  (79) 
78

>  <ligand_id>  (79) 
78

>  <original_smiles>  (79) 
[H]c1oc(C([H])(N([H])C(=O)N2C([H])([H])C([H])([H])C([H])([H])C([H])(n3nc(-c4c([H])c([H])c(Oc5c([H])c([H])c(F)c([H])c5F)c([H])c4[H])c(C(=O)N([H])[H])c3N([H])[H])C2([H])[H])C([H])([H])[H])c([H])c1N([H])C(=O)C([H])([H])Oc1c([H])c([H])c2c(c1[H])C([H])([H])N(C(=O)C([H])(N([H])C(=O)C([H])(N([H])C([H])([H])[H])C([H])([H])[H])C(C([H])([H])[H])(C([H])([H])[H])C([H])([H])[H])C([H])(C(=O)N([H])C1([H])c3c([H])c([H])c([H])c([H])c3C([H])([H])C([H])([H])C1([H])[H])C2([H])[H]

>  <smiles>  (79) 
[H]c1oc(C([H])(N([H])C(=O)N2C([H])([H])C([H])([H])C([H])([H])C([H])(n3nc(-c4c([H])c([H])c(Oc5c([H])c([H])c(F)c([H])c5F)c([H])c4[H])c(C(=O)N([H])[H])c3N([H])[H])C2([H])[H])C([H])([H])[H])c([H])c1N([H])C(=O)C([H])([H])Oc1c([H])c([H])c2c(c1[H])C([H])([H])N(C(=O)C([H])(N([H])C(=O)C([H])(N([H])C([H])([H])[H])C([H])([H])[H])C(C([H])([H])[H])(C([H])([H])[H])C([H])([H])[H])C([H])(C(=O)N([H])C1([H])c3c([H])c([H])c([H])c([H])c3C([H])([H])C([H])([H])C1([H])[H])C2([H])[H]

$$$$
79:0:0
     RDKit          3D

 96105  0  0  1  0  0  0  0  0999 V2000
  -30.6560  -20.1920   19.2730 C   0  0  0  0  0  3  0  0  0  0  0  0
  -30.4520  -23.8300   18.6790 C   0  0  0  0  0  2  0  0  0  0  0  0
  -28.7100  -23.2270   20.3430 C   0  0  0  0  0  2  0  0  0  0  0  0
  -31.2900  -22.6110   19.1260 C   0  0  0  0  0  2  0  0  0  0  0  0
  -29.5440  -21.9660   20.7420 C   0  0  0  0  0  2  0  0  0  0  0  0
  -29.5660  -24.4040   19.8030 C   0  0  1  0  0  0  0  0  0  0  0  0
  -30.4480  -21.5030   19.6550 N   0  0  0  0  0  0  0  0  0  0  0  0
  -31.5660  -19.9250   18.3210 N   0  0  0  0  0  0  0  0  0  0  0  0
  -30.3820  -24.8260   20.7730 F   0  0  0  0  0  0  0  0  0  0  0  0
  -31.6690  -18.9840   17.9760 H   0  0  0  0  0  0  0  0  0  0  0  0
  -32.1100  -20.6510   17.8830 H   0  0  0  0  0  0  0  0  0  0  0  0
  -30.6290  -17.7590   20.1270 C   0  0  0  0  0  3  0  0  0  0  0  0
  -28.5880  -18.8790   19.8410 C   0  0  0  0  0  3  0  0  0  0  0  0
  -29.9500  -18.9880   19.7830 C   0  0  0  0  0  0  0  0  0  0  0  0
  -29.7690  -16.7210   20.4460 C   0  0  0  0  0  0  0  0  0  0  0  0
  -28.1140  -17.2960   20.3860 S   0  0  0  0  0  0  0  0  0  0  0  0
  -30.6600  -14.4610   20.1020 C   0  0  0  0  0  0  0  0  0  0  0  0
  -30.3470  -12.2720   18.9900 C   0  0  0  0  0  2  0  0  0  0  0  0
  -29.3410  -12.4610   17.8320 C   0  0  0  0  0  2  0  0  0  0  0  0
  -27.8870  -12.3380   18.3310 C   0  0  0  0  0  2  0  0  0  0  0  0
  -27.6160  -13.1840   19.6030 C   0  0  0  0  0  3  0  0  0  0  0  0
  -28.7200  -12.9450   20.6580 C   0  0  0  0  0  2  0  0  0  0  0  0
  -30.0210  -13.2570   20.0350 N   0  0  0  0  0  0  0  0  0  0  0  0
  -31.7370  -14.6830   19.5380 O   0  0  0  0  0  0  0  0  0  0  0  0
  -29.9820  -15.4130   20.7810 N   0  0  0  0  0  0  0  0  0  0  0  0
  -29.2270  -15.0100   21.3140 H   0  0  0  0  0  0  0  0  0  0  0  0
  -25.2710  -13.8320   20.4500 C   0  0  0  0  0  0  0  0  0  0  0  0
  -24.2060  -13.0770   20.8610 C   0  0  0  0  0  0  0  0  0  0  0  0
  -24.6320  -11.7160   20.7750 C   0  0  0  0  0  0  0  0  0  0  0  0
  -26.2820  -12.9320   20.1450 N   0  0  0  0  0  0  0  0  0  0  0  0
  -25.9010  -11.6530   20.3950 N   0  0  0  0  0  0  0  0  0  0  0  0
  -23.8850  -10.4670   20.9760 C   0  0  0  0  0  0  0  0  0  0  0  0
  -24.3180   -9.4900   21.8990 C   0  0  0  0  0  3  0  0  0  0  0  0
  -23.5750   -8.3050   22.0880 C   0  0  0  0  0  3  0  0  0  0  0  0
  -22.3850   -8.0890   21.3550 C   0  0  0  0  0  0  0  0  0  0  0  0
  -21.9710   -9.0560   20.4210 C   0  0  0  0  0  3  0  0  0  0  0  0
  -22.7140  -10.2320   20.2300 C   0  0  0  0  0  3  0  0  0  0  0  0
  -21.6120   -6.9570   21.4530 O   0  0  0  0  0  0  0  0  0  0  0  0
  -21.5500   -6.2270   22.6140 C   0  0  0  0  0  0  0  0  0  0  0  0
  -21.0730   -6.7860   23.8190 C   0  0  0  0  0  3  0  0  0  0  0  0
  -20.9590   -5.9820   24.9710 C   0  0  0  0  0  3  0  0  0  0  0  0
  -21.3110   -4.6200   24.9170 C   0  0  0  0  0  0  0  0  0  0  0  0
  -21.7820   -4.0610   23.7160 C   0  0  0  0  0  3  0  0  0  0  0  0
  -21.8970   -4.8620   22.5670 C   0  0  0  0  0  0  0  0  0  0  0  0
  -22.3310   -4.3130   21.4060 F   0  0  0  0  0  0  0  0  0  0  0  0
  -21.1940   -3.8450   26.0210 F   0  0  0  0  0  0  0  0  0  0  0  0
  -22.8380  -13.5800   21.2220 C   0  0  0  0  0  0  0  0  0  0  0  0
  -22.1420  -12.8810   22.1120 N   0  0  0  0  0  0  0  0  0  0  0  0
  -22.3980  -14.6290   20.7530 O   0  0  0  0  0  0  0  0  0  0  0  0
  -22.5110  -12.0320   22.5140 H   0  0  0  0  0  0  0  0  0  0  0  0
  -21.2270  -13.2000   22.3960 H   0  0  0  0  0  0  0  0  0  0  0  0
  -25.4580  -15.2010   20.2930 N   0  0  0  0  0  0  0  0  0  0  0  0
  -24.7150  -15.8720   20.4600 H   0  0  0  0  0  0  0  0  0  0  0  0
  -26.3000  -15.6270   19.9280 H   0  0  0  0  0  0  0  0  0  0  0  0
  -28.7450  -25.6380   19.2820 C   0  0  0  0  0  2  0  0  0  0  0  0
  -28.4190  -26.6420   20.2740 O   0  0  0  0  0  0  0  0  0  0  0  0
  -24.5470  -31.8670   23.2240 C   0  0  0  0  0  0  0  0  0  0  0  0
  -27.2400  -27.3760   20.1990 C   0  0  0  0  0  0  0  0  0  0  0  0
  -23.3640  -30.4470   21.5820 C   0  0  0  0  0  3  0  0  0  0  0  0
  -24.8380  -28.9030   20.1830 C   0  0  0  0  0  0  0  0  0  0  0  0
  -25.8950  -30.8010   21.4130 C   0  0  0  0  0  2  0  0  0  0  0  0
  -25.9900  -29.4240   20.7820 C   0  0  0  0  0  0  0  0  0  0  0  0
  -27.1880  -28.6660   20.7930 C   0  0  0  0  0  3  0  0  0  0  0  0
  -26.0550  -26.8760   19.6090 C   0  0  0  0  0  3  0  0  0  0  0  0
  -24.8670  -27.6280   19.5970 C   0  0  0  0  0  3  0  0  0  0  0  0
  -23.5920  -29.7600   20.2100 C   0  0  0  0  0  2  0  0  0  0  0  0
  -24.6190  -31.0550   22.1310 N   0  0  0  0  0  0  0  0  0  0  0  0
  -23.4580  -32.1410   23.7490 O   0  0  0  0  0  0  0  0  0  0  0  0
  -22.7040  -29.4320   22.5440 C   0  0  0  0  0  0  0  0  0  0  0  0
  -21.3790  -29.2530   22.4120 N   0  0  0  0  0  0  0  0  0  0  0  0
  -23.3810  -28.8090   23.3660 O   0  0  0  0  0  0  0  0  0  0  0  0
  -20.8940  -29.8090   21.7210 H   0  0  0  0  0  0  0  0  0  0  0  0
  -17.9920  -28.1040   22.9320 C   0  0  0  0  0  0  0  0  0  0  0  0
  -20.5560  -28.3220   23.1830 C   0  0  0  0  0  3  0  0  0  0  0  0
  -20.6320  -26.8930   22.5950 C   0  0  0  0  0  2  0  0  0  0  0  0
  -19.5170  -26.5950   21.5880 C   0  0  0  0  0  2  0  0  0  0  0  0
  -18.1420  -26.7560   22.2450 C   0  0  0  0  0  2  0  0  0  0  0  0
  -19.1260  -28.8450   23.3590 C   0  0  0  0  0  0  0  0  0  0  0  0
  -18.9310  -30.1080   23.9600 C   0  0  0  0  0  3  0  0  0  0  0  0
  -17.6350  -30.6270   24.1400 C   0  0  0  0  0  3  0  0  0  0  0  0
  -16.5170  -29.8820   23.7310 C   0  0  0  0  0  3  0  0  0  0  0  0
  -16.6960  -28.6220   23.1330 C   0  0  0  0  0  3  0  0  0  0  0  0
  -25.8220  -32.5090   23.8530 C   0  0  0  0  0  3  0  0  0  0  0  0
  -25.5020  -33.9060   24.1770 N   0  0  0  0  0  0  0  0  0  0  0  0
  -25.8340  -34.9580   23.4160 C   0  0  0  0  0  0  0  0  0  0  0  0
  -26.5140  -34.8550   22.3910 O   0  0  0  0  0  0  0  0  0  0  0  0
  -24.8990  -34.0590   24.9710 H   0  0  0  0  0  0  0  0  0  0  0  0
  -24.1090  -36.7460   23.0270 C   0  0  0  0  0  1  0  0  0  0  0  0
  -25.3330  -36.3440   23.8650 C   0  0  0  0  0  3  0  0  0  0  0  0
  -27.4390  -37.2420   24.7520 C   0  0  0  0  0  1  0  0  0  0  0  0
  -26.3660  -37.4000   23.7750 N   0  0  0  0  0  0  0  0  0  0  0  0
  -25.9530  -38.3200   23.9040 H   0  0  0  0  0  0  0  0  0  0  0  0
  -26.3370  -31.7440   25.1340 C   0  0  1  0  0  0  0  0  0  0  0  0
  -25.2380  -31.4920   26.1910 C   0  0  0  0  0  1  0  0  0  0  0  0
  -26.9410  -30.3740   24.7460 C   0  0  0  0  0  1  0  0  0  0  0  0
  -27.4710  -32.5530   25.8060 C   0  0  0  0  0  1  0  0  0  0  0  0
  1  8  1  0
  1  7  1  0
  1 14  1  0
  2  4  1  0
  2  6  1  0
  3  5  1  0
  4  7  1  0
  6  3  1  0
  6  9  1  1
  7  5  1  0
 10  8  1  0
 11  8  1  0
 12 15  2  0
 13 16  1  0
 14 13  2  0
 14 12  1  0
 15 25  1  0
 16 15  1  0
 17 25  1  0
 18 23  1  0
 19 20  1  0
 19 18  1  0
 21 20  1  0
 21 30  1  0
 21 22  1  0
 23 17  1  0
 23 22  1  0
 24 17  2  0
 25 26  1  0
 27 28  2  0
 28 47  1  0
 29 28  1  0
 29 32  1  0
 30 31  1  0
 30 27  1  0
 31 29  2  0
 32 33  1  0
 33 34  2  0
 35 38  1  0
 35 34  1  0
 36 35  2  0
 37 36  1  0
 37 32  2  0
 38 39  1  0
 39 40  1  0
 40 41  2  0
 42 41  1  0
 42 46  1  0
 43 42  2  0
 44 39  2  0
 44 43  1  0
 45 44  1  0
 47 48  1  0
 48 51  1  0
 48 50  1  0
 49 47  2  0
 52 27  1  0
 52 53  1  0
 54 52  1  0
 55  6  1  0
 55 56  1  0
 57 68  2  0
 58 56  1  0
 58 63  1  0
 59 67  1  0
 59 69  1  0
 60 66  1  0
 60 62  1  0
 61 67  1  0
 62 63  2  0
 62 61  1  0
 64 58  2  0
 65 64  1  0
 65 60  2  0
 66 59  1  0
 67 57  1  0
 69 71  2  0
 70 69  1  0
 72 70  1  0
 73 82  2  0
 73 78  1  0
 74 70  1  0
 74 78  1  0
 75 74  1  0
 76 77  1  0
 76 75  1  0
 77 73  1  0
 78 79  2  0
 79 80  1  0
 81 80  2  0
 82 81  1  0
 83 57  1  0
 83 84  1  0
 83 93  1  0
 84 87  1  0
 85 89  1  0
 85 84  1  0
 86 85  2  0
 89 88  1  0
 91 89  1  0
 91 92  1  0
 91 90  1  0
 93 96  1  1
 93 94  1  0
 95 93  1  0
M  ISO  4  17 100  25 100  55 101  56 101
M  END
>  <TORSDO>  (80) 
F 18

>  <SCORE>  (80) 
-14.668

>  <name>  (80) 
79

>  <ligand_id>  (80) 
79

>  <original_smiles>  (80) 
[H]c1sc(N([H])C(=O)N2C([H])([H])C([H])([H])C([H])([H])C([H])(n3nc(-c4c([H])c([H])c(Oc5c([H])c([H])c(F)c([H])c5F)c([H])c4[H])c(C(=O)N([H])[H])c3N([H])[H])C2([H])[H])c([H])c1C(N1C([H])([H])C([H])([H])C(F)(C([H])([H])Oc2c([H])c([H])c3c(c2[H])C([H])([H])N(C(=O)C([H])(N([H])C(=O)C([H])(N([H])C([H])([H])[H])C([H])([H])[H])C(C([H])([H])[H])(C([H])([H])[H])C([H])([H])[H])C([H])(C(=O)N([H])C2([H])c4c([H])c([H])c([H])c([H])c4C([H])([H])C([H])([H])C2([H])[H])C3([H])[H])C([H])([H])C1([H])[H])=[N+]([H])[H]

>  <smiles>  (80) 
[H]c1sc(N([H])C(=O)N2C([H])([H])C([H])([H])C([H])([H])C([H])(n3nc(-c4c([H])c([H])c(Oc5c([H])c([H])c(F)c([H])c5F)c([H])c4[H])c(C(=O)N([H])[H])c3N([H])[H])C2([H])[H])c([H])c1C(N1C([H])([H])C([H])([H])C(F)(C([H])([H])Oc2c([H])c([H])c3c(c2[H])C([H])([H])N(C(=O)C([H])(N([H])C(=O)C([H])(N([H])C([H])([H])[H])C([H])([H])[H])C(C([H])([H])[H])(C([H])([H])[H])C([H])([H])[H])C([H])(C(=O)N([H])C2([H])c4c([H])c([H])c([H])c([H])c4C([H])([H])C([H])([H])C2([H])[H])C3([H])[H])C([H])([H])C1([H])[H])=[N+]([H])[H]

$$$$
80:0:0
     RDKit          3D

 94103  0  0  1  0  0  0  0  0999 V2000
  -30.1270  -20.4350   21.0550 C   0  0  0  0  0  0  0  0  0  0  0  0
  -29.8160  -21.3520   22.0420 C   0  0  0  0  0  0  0  0  0  0  0  0
  -29.3740  -22.6640   20.2260 C   0  0  0  0  0  0  0  0  0  0  0  0
  -29.1800  -24.3540   18.4080 C   0  0  0  0  0  0  0  0  0  0  0  0
  -29.8330  -21.1550   23.5290 C   0  0  0  0  0  1  0  0  0  0  0  0
  -29.3760  -22.5920   21.5580 N   0  0  0  0  0  0  0  0  0  0  0  0
  -28.8600  -23.8370   19.6070 N   0  0  0  0  0  0  0  0  0  0  0  0
  -30.1280  -23.9410   17.7340 O   0  0  0  0  0  0  0  0  0  0  0  0
  -29.9140  -21.1600   19.4590 S   0  0  0  0  0  0  0  0  0  0  0  0
  -28.1600  -24.3400   20.1310 H   0  0  0  0  0  0  0  0  0  0  0  0
  -31.8430  -14.9610   19.8440 C   0  0  0  0  0  0  0  0  0  0  0  0
  -31.4120  -12.7090   18.8910 C   0  0  0  0  0  2  0  0  0  0  0  0
  -30.3820  -12.7570   17.7430 C   0  0  0  0  0  2  0  0  0  0  0  0
  -28.9530  -12.6070   18.2990 C   0  0  0  0  0  2  0  0  0  0  0  0
  -28.6940  -13.5650   19.4850 C   0  0  0  0  0  3  0  0  0  0  0  0
  -29.8400  -13.4840   20.5320 C   0  0  0  0  0  2  0  0  0  0  0  0
  -31.0990  -13.8020   19.8440 N   0  0  0  0  0  0  0  0  0  0  0  0
  -32.9350  -14.9630   19.2620 O   0  0  0  0  0  0  0  0  0  0  0  0
  -29.6700  -18.0060   20.4300 C   0  0  0  0  0  2  0  0  0  0  0  0
  -31.9990  -18.5960   21.1640 C   0  0  0  0  0  2  0  0  0  0  0  0
  -30.0320  -16.5470   20.7740 C   0  0  0  0  0  2  0  0  0  0  0  0
  -32.3330  -17.3250   20.3180 C   0  0  0  0  0  2  0  0  0  0  0  0
  -30.5050  -18.9740   21.2630 C   0  0  0  0  0  3  0  0  0  0  0  0
  -31.4070  -16.1560   20.3940 N   0  0  0  0  0  0  0  0  0  0  0  0
  -26.4570  -14.2750   20.5390 C   0  0  0  0  0  0  0  0  0  0  0  0
  -25.3730  -13.5490   20.9480 C   0  0  0  0  0  0  0  0  0  0  0  0
  -25.7110  -12.1790   20.7250 C   0  0  0  0  0  0  0  0  0  0  0  0
  -27.3890  -13.3480   20.0950 N   0  0  0  0  0  0  0  0  0  0  0  0
  -26.9520  -12.0770   20.2700 N   0  0  0  0  0  0  0  0  0  0  0  0
  -24.9080  -10.9610   20.8630 C   0  0  0  0  0  0  0  0  0  0  0  0
  -25.2950   -9.9180   21.7330 C   0  0  0  0  0  3  0  0  0  0  0  0
  -24.4960   -8.7610   21.8600 C   0  0  0  0  0  3  0  0  0  0  0  0
  -23.2990   -8.6400   21.1160 C   0  0  0  0  0  0  0  0  0  0  0  0
  -22.9310   -9.6710   20.2330 C   0  0  0  0  0  3  0  0  0  0  0  0
  -23.7280  -10.8200   20.1040 C   0  0  0  0  0  3  0  0  0  0  0  0
  -22.4740   -7.5430   21.1550 O   0  0  0  0  0  0  0  0  0  0  0  0
  -22.2350   -6.8650   22.3250 C   0  0  0  0  0  0  0  0  0  0  0  0
  -21.6500   -7.4940   23.4440 C   0  0  0  0  0  3  0  0  0  0  0  0
  -21.3610   -6.7440   24.6010 C   0  0  0  0  0  3  0  0  0  0  0  0
  -21.6450   -5.3650   24.6370 C   0  0  0  0  0  0  0  0  0  0  0  0
  -22.2210   -4.7360   23.5200 C   0  0  0  0  0  3  0  0  0  0  0  0
  -22.5150   -5.4850   22.3660 C   0  0  0  0  0  0  0  0  0  0  0  0
  -23.0530   -4.8700   21.2860 F   0  0  0  0  0  0  0  0  0  0  0  0
  -21.3620   -4.6430   25.7450 F   0  0  0  0  0  0  0  0  0  0  0  0
  -24.0590  -14.0930   21.4280 C   0  0  0  0  0  0  0  0  0  0  0  0
  -23.4050  -13.3940   22.3510 N   0  0  0  0  0  0  0  0  0  0  0  0
  -23.6230  -15.1690   21.0190 O   0  0  0  0  0  0  0  0  0  0  0  0
  -23.7700  -12.5200   22.6990 H   0  0  0  0  0  0  0  0  0  0  0  0
  -22.5280  -13.7400   22.7130 H   0  0  0  0  0  0  0  0  0  0  0  0
  -26.7140  -15.6420   20.4880 N   0  0  0  0  0  0  0  0  0  0  0  0
  -26.0160  -16.3250   20.7590 H   0  0  0  0  0  0  0  0  0  0  0  0
  -27.5550  -16.0610   20.1120 H   0  0  0  0  0  0  0  0  0  0  0  0
  -28.3130  -25.5200   17.8730 C   0  0  0  0  0  2  0  0  0  0  0  0
  -28.3020  -26.6520   18.7700 O   0  0  0  0  0  0  0  0  0  0  0  0
  -25.0610  -31.3490   23.0370 C   0  0  0  0  0  0  0  0  0  0  0  0
  -27.1550  -27.4060   18.9720 C   0  0  0  0  0  0  0  0  0  0  0  0
  -23.6300  -30.3070   21.3100 C   0  0  0  0  0  3  0  0  0  0  0  0
  -24.8550  -28.9920   19.5020 C   0  0  0  0  0  0  0  0  0  0  0  0
  -26.1440  -30.5910   20.9230 C   0  0  0  0  0  2  0  0  0  0  0  0
  -26.0920  -29.3520   20.0490 C   0  0  0  0  0  0  0  0  0  0  0  0
  -27.2380  -28.5640   19.7860 C   0  0  0  0  0  3  0  0  0  0  0  0
  -25.8880  -27.0560   18.4480 C   0  0  0  0  0  3  0  0  0  0  0  0
  -24.7490  -27.8410   18.7040 C   0  0  0  0  0  3  0  0  0  0  0  0
  -23.6730  -29.8800   19.8200 C   0  0  0  0  0  2  0  0  0  0  0  0
  -24.9690  -30.7540   21.8150 N   0  0  0  0  0  0  0  0  0  0  0  0
  -24.0510  -31.5650   23.7240 O   0  0  0  0  0  0  0  0  0  0  0  0
  -23.0160  -29.1580   22.1410 C   0  0  0  0  0  0  0  0  0  0  0  0
  -21.6910  -28.9720   22.0210 N   0  0  0  0  0  0  0  0  0  0  0  0
  -23.7280  -28.4420   22.8500 O   0  0  0  0  0  0  0  0  0  0  0  0
  -21.1780  -29.6040   21.4220 H   0  0  0  0  0  0  0  0  0  0  0  0
  -18.3770  -27.5570   22.2990 C   0  0  0  0  0  0  0  0  0  0  0  0
  -20.9070  -27.9270   22.6800 C   0  0  0  0  0  3  0  0  0  0  0  0
  -21.1070  -26.5600   21.9870 C   0  0  0  0  0  2  0  0  0  0  0  0
  -20.0560  -26.2700   20.9100 C   0  0  0  0  0  2  0  0  0  0  0  0
  -18.6490  -26.2840   21.5160 C   0  0  0  0  0  2  0  0  0  0  0  0
  -19.4370  -28.3370   22.8310 C   0  0  0  0  0  0  0  0  0  0  0  0
  -19.1300  -29.5310   23.5200 C   0  0  0  0  0  3  0  0  0  0  0  0
  -17.7950  -29.9460   23.6800 C   0  0  0  0  0  3  0  0  0  0  0  0
  -16.7490  -29.1620   23.1640 C   0  0  0  0  0  3  0  0  0  0  0  0
  -17.0390  -27.9700   22.4800 C   0  0  0  0  0  3  0  0  0  0  0  0
  -26.4300  -31.8140   23.6200 C   0  0  0  0  0  3  0  0  0  0  0  0
  -26.2520  -33.1760   24.1420 N   0  0  0  0  0  0  0  0  0  0  0  0
  -26.6980  -34.2860   23.5380 C   0  0  0  0  0  0  0  0  0  0  0  0
  -27.3750  -34.2620   22.5070 O   0  0  0  0  0  0  0  0  0  0  0  0
  -25.6610  -33.2740   24.9530 H   0  0  0  0  0  0  0  0  0  0  0  0
  -25.1690  -36.2790   23.4100 C   0  0  0  0  0  1  0  0  0  0  0  0
  -26.3340  -35.6370   24.1800 C   0  0  0  0  0  3  0  0  0  0  0  0
  -28.5040  -36.1810   25.1930 C   0  0  0  0  0  1  0  0  0  0  0  0
  -27.4700  -36.5830   24.2430 N   0  0  0  0  0  0  0  0  0  0  0  0
  -27.1510  -37.5120   24.4980 H   0  0  0  0  0  0  0  0  0  0  0  0
  -26.9830  -30.8550   24.7440 C   0  0  1  0  0  0  0  0  0  0  0  0
  -25.9670  -30.5730   25.8750 C   0  0  0  0  0  1  0  0  0  0  0  0
  -27.4100  -29.4960   24.1420 C   0  0  0  0  0  1  0  0  0  0  0  0
  -28.2490  -31.4720   25.3850 C   0  0  0  0  0  1  0  0  0  0  0  0
  1  2  2  0
  2  5  1  0
  3  6  2  0
  4  7  1  0
  6  2  1  0
  7 10  1  0
  7  3  1  0
  8  4  2  0
  9  3  1  0
  9  1  1  0
 11 24  1  0
 12 17  1  0
 13 14  1  0
 13 12  1  0
 15 14  1  0
 15 28  1  0
 15 16  1  0
 17 11  1  0
 17 16  1  0
 18 11  2  0
 19 21  1  0
 19 23  1  0
 20 23  1  0
 22 24  1  0
 22 20  1  0
 23  1  1  0
 24 21  1  0
 25 26  2  0
 26 45  1  0
 27 30  1  0
 27 26  1  0
 28 29  1  0
 28 25  1  0
 29 27  2  0
 30 31  1  0
 31 32  2  0
 33 36  1  0
 33 32  1  0
 34 33  2  0
 35 34  1  0
 35 30  2  0
 36 37  1  0
 37 42  2  0
 37 38  1  0
 38 39  2  0
 39 40  1  0
 40 44  1  0
 41 40  2  0
 42 41  1  0
 43 42  1  0
 45 46  1  0
 46 48  1  0
 46 49  1  0
 47 45  2  0
 50 25  1  0
 50 51  1  0
 52 50  1  0
 53  4  1  0
 53 54  1  0
 54 56  1  0
 55 66  2  0
 56 61  1  0
 57 65  1  0
 57 67  1  0
 58 64  1  0
 58 60  1  0
 59 65  1  0
 60 59  1  0
 61 60  2  0
 62 63  1  0
 62 56  2  0
 63 58  2  0
 64 57  1  0
 65 55  1  0
 67 69  2  0
 68 67  1  0
 70 68  1  0
 71 80  2  0
 71 76  1  0
 72 68  1  0
 72 76  1  0
 73 72  1  0
 74 75  1  0
 74 73  1  0
 75 71  1  0
 76 77  2  0
 77 78  1  0
 79 78  2  0
 80 79  1  0
 81 55  1  0
 81 82  1  0
 81 91  1  0
 82 85  1  0
 83 82  1  0
 83 87  1  0
 84 83  2  0
 87 86  1  0
 87 89  1  0
 89 90  1  0
 89 88  1  0
 91 94  1  1
 91 92  1  0
 93 91  1  0
M  ISO  4  11 100  24 100  53 101  54 101
M  END
>  <TORSDO>  (81) 
F 17

>  <SCORE>  (81) 
-11.341

>  <name>  (81) 
80

>  <ligand_id>  (81) 
80

>  <original_smiles>  (81) 
[H]c1c([H])c([H])c2c(c1[H])C([H])([H])C([H])([H])C([H])([H])C2([H])N([H])C(=O)C1([H])N(C(=O)C([H])(N([H])C(=O)C([H])(N([H])C([H])([H])[H])C([H])([H])[H])C(C([H])([H])[H])(C([H])([H])[H])C([H])([H])[H])C([H])([H])c2c([H])c(OC([H])([H])C(=O)N([H])c3nc(C([H])([H])[H])c(C4([H])C([H])([H])C([H])([H])N(C(=O)N5C([H])([H])C([H])([H])C([H])([H])C([H])(n6nc(-c7c([H])c([H])c(Oc8c([H])c([H])c(F)c([H])c8F)c([H])c7[H])c(C(=O)N([H])[H])c6N([H])[H])C5([H])[H])C([H])([H])C4([H])[H])s3)c([H])c([H])c2C1([H])[H]

>  <smiles>  (81) 
[H]c1c([H])c([H])c2c(c1[H])C([H])([H])C([H])([H])C([H])([H])C2([H])N([H])C(=O)C1([H])N(C(=O)C([H])(N([H])C(=O)C([H])(N([H])C([H])([H])[H])C([H])([H])[H])C(C([H])([H])[H])(C([H])([H])[H])C([H])([H])[H])C([H])([H])c2c([H])c(OC([H])([H])C(=O)N([H])c3nc(C([H])([H])[H])c(C4([H])C([H])([H])C([H])([H])N(C(=O)N5C([H])([H])C([H])([H])C([H])([H])C([H])(n6nc(-c7c([H])c([H])c(Oc8c([H])c([H])c(F)c([H])c8F)c([H])c7[H])c(C(=O)N([H])[H])c6N([H])[H])C5([H])[H])C([H])([H])C4([H])[H])s3)c([H])c([H])c2C1([H])[H]

$$$$
81:0:0
     RDKit          3D

 92101  0  0  1  0  0  0  0  0999 V2000
  -28.9810  -23.1200   21.7090 C   0  0  0  0  0  2  0  0  0  0  0  0
  -29.4670  -21.6410   21.7460 C   0  0  0  0  0  2  0  0  0  0  0  0
  -28.9150  -22.1630   19.5190 C   0  0  0  0  0  2  0  0  0  0  0  0
  -29.0580  -23.6150   20.2450 C   0  0  2  0  0  0  0  0  0  0  0  0
  -29.0790  -21.0140   20.4870 N   0  0  0  0  0  0  0  0  0  0  0  0
  -29.0560  -18.3800   20.7490 C   0  0  0  0  0  3  0  0  0  0  0  0
  -30.6980  -19.2820   19.5560 C   0  0  0  0  0  3  0  0  0  0  0  0
  -29.5730  -19.6550   20.2500 C   0  0  0  0  0  0  0  0  0  0  0  0
  -29.9060  -17.3390   20.3460 C   0  0  0  0  0  0  0  0  0  0  0  0
  -30.9170  -17.9060   19.6100 O   0  0  0  0  0  0  0  0  0  0  0  0
  -30.5520  -14.8360   20.3120 C   0  0  0  0  0  0  0  0  0  0  0  0
  -30.3840  -12.5310   19.3370 C   0  0  0  0  0  2  0  0  0  0  0  0
  -29.4360  -12.5730   18.1150 C   0  0  0  0  0  2  0  0  0  0  0  0
  -27.9690  -12.3960   18.5520 C   0  0  0  0  0  2  0  0  0  0  0  0
  -27.5960  -13.2920   19.7640 C   0  0  0  0  0  3  0  0  0  0  0  0
  -28.6630  -13.2160   20.8790 C   0  0  0  0  0  2  0  0  0  0  0  0
  -29.9510  -13.5900   20.2800 N   0  0  0  0  0  0  0  0  0  0  0  0
  -31.7340  -14.9420   19.9660 O   0  0  0  0  0  0  0  0  0  0  0  0
  -29.7560  -15.9500   20.5830 N   0  0  0  0  0  0  0  0  0  0  0  0
  -28.8540  -15.6930   20.9490 H   0  0  0  0  0  0  0  0  0  0  0  0
  -25.2130  -13.8800   20.5110 C   0  0  0  0  0  0  0  0  0  0  0  0
  -24.1500  -13.1040   20.8820 C   0  0  0  0  0  0  0  0  0  0  0  0
  -24.6140  -11.7510   20.8410 C   0  0  0  0  0  0  0  0  0  0  0  0
  -26.2560  -13.0010   20.2630 N   0  0  0  0  0  0  0  0  0  0  0  0
  -25.9030  -11.7160   20.5250 N   0  0  0  0  0  0  0  0  0  0  0  0
  -23.8860  -10.4880   21.0270 C   0  0  0  0  0  0  0  0  0  0  0  0
  -24.3080   -9.5220   21.9650 C   0  0  0  0  0  3  0  0  0  0  0  0
  -23.5800   -8.3250   22.1380 C   0  0  0  0  0  3  0  0  0  0  0  0
  -22.4140   -8.0860   21.3710 C   0  0  0  0  0  0  0  0  0  0  0  0
  -22.0090   -9.0430   20.4230 C   0  0  0  0  0  3  0  0  0  0  0  0
  -22.7400  -10.2310   20.2490 C   0  0  0  0  0  3  0  0  0  0  0  0
  -21.6590   -6.9420   21.4530 O   0  0  0  0  0  0  0  0  0  0  0  0
  -21.5830   -6.2110   22.6130 C   0  0  0  0  0  0  0  0  0  0  0  0
  -21.1090   -6.7750   23.8170 C   0  0  0  0  0  3  0  0  0  0  0  0
  -20.9780   -5.9710   24.9670 C   0  0  0  0  0  3  0  0  0  0  0  0
  -21.3150   -4.6050   24.9150 C   0  0  0  0  0  0  0  0  0  0  0  0
  -21.7850   -4.0420   23.7150 C   0  0  0  0  0  3  0  0  0  0  0  0
  -21.9160   -4.8420   22.5670 C   0  0  0  0  0  0  0  0  0  0  0  0
  -22.3490   -4.2900   21.4070 F   0  0  0  0  0  0  0  0  0  0  0  0
  -21.1850   -3.8320   26.0180 F   0  0  0  0  0  0  0  0  0  0  0  0
  -22.7530  -13.5800   21.1600 C   0  0  0  0  0  0  0  0  0  0  0  0
  -22.0260  -12.8810   22.0230 N   0  0  0  0  0  0  0  0  0  0  0  0
  -22.3160  -14.6110   20.6490 O   0  0  0  0  0  0  0  0  0  0  0  0
  -22.3940  -12.0480   22.4570 H   0  0  0  0  0  0  0  0  0  0  0  0
  -21.0930  -13.1890   22.2570 H   0  0  0  0  0  0  0  0  0  0  0  0
  -25.3760  -15.2510   20.3370 N   0  0  0  0  0  0  0  0  0  0  0  0
  -24.6050  -15.9010   20.4470 H   0  0  0  0  0  0  0  0  0  0  0  0
  -26.2040  -15.6870   19.9490 H   0  0  0  0  0  0  0  0  0  0  0  0
  -31.5270  -23.5200   20.1090 C   0  0  0  0  0  1  0  0  0  0  0  0
  -30.3120  -24.2290   19.9050 O   0  0  0  0  0  0  0  0  0  0  0  0
  -28.0300  -24.8500   19.8870 C   0  0  0  0  0  2  0  0  0  0  0  0
  -28.2600  -26.3210   20.2190 O   0  0  0  0  0  0  0  0  0  0  0  0
  -24.6030  -31.8850   23.2310 C   0  0  0  0  0  0  0  0  0  0  0  0
  -27.1800  -27.2490   20.1600 C   0  0  0  0  0  0  0  0  0  0  0  0
  -23.3950  -30.4970   21.5910 C   0  0  0  0  0  3  0  0  0  0  0  0
  -24.8360  -28.9340   20.1610 C   0  0  0  0  0  0  0  0  0  0  0  0
  -25.9460  -30.7760   21.4200 C   0  0  0  0  0  2  0  0  0  0  0  0
  -26.0150  -29.3960   20.7600 C   0  0  0  0  0  0  0  0  0  0  0  0
  -27.1870  -28.5650   20.7510 C   0  0  0  0  0  3  0  0  0  0  0  0
  -25.9750  -26.8710   19.5250 C   0  0  0  0  0  3  0  0  0  0  0  0
  -24.8210  -27.6790   19.5380 C   0  0  0  0  0  3  0  0  0  0  0  0
  -23.6060  -29.8210   20.2120 C   0  0  0  0  0  2  0  0  0  0  0  0
  -24.6680  -31.0730   22.1340 N   0  0  0  0  0  0  0  0  0  0  0  0
  -23.5210  -32.1690   23.7650 O   0  0  0  0  0  0  0  0  0  0  0  0
  -22.7250  -29.4830   22.5510 C   0  0  0  0  0  0  0  0  0  0  0  0
  -21.3980  -29.3060   22.4230 N   0  0  0  0  0  0  0  0  0  0  0  0
  -23.4010  -28.8580   23.3720 O   0  0  0  0  0  0  0  0  0  0  0  0
  -20.9100  -29.8660   21.7380 H   0  0  0  0  0  0  0  0  0  0  0  0
  -18.0220  -28.1080   22.9300 C   0  0  0  0  0  0  0  0  0  0  0  0
  -20.5800  -28.3690   23.1950 C   0  0  0  0  0  3  0  0  0  0  0  0
  -20.6790  -26.9360   22.6220 C   0  0  0  0  0  2  0  0  0  0  0  0
  -19.5770  -26.6130   21.6080 C   0  0  0  0  0  2  0  0  0  0  0  0
  -18.1960  -26.7580   22.2530 C   0  0  0  0  0  2  0  0  0  0  0  0
  -19.1400  -28.8700   23.3590 C   0  0  0  0  0  0  0  0  0  0  0  0
  -18.9220  -30.1330   23.9510 C   0  0  0  0  0  3  0  0  0  0  0  0
  -17.6170  -30.6340   24.1170 C   0  0  0  0  0  3  0  0  0  0  0  0
  -16.5130  -29.8680   23.7040 C   0  0  0  0  0  3  0  0  0  0  0  0
  -16.7160  -28.6070   23.1170 C   0  0  0  0  0  3  0  0  0  0  0  0
  -25.8870  -32.5140   23.8560 C   0  0  0  0  0  3  0  0  0  0  0  0
  -26.4040  -31.7390   25.1300 C   0  0  1  0  0  0  0  0  0  0  0  0
  -25.3120  -31.5000   26.1990 C   0  0  0  0  0  1  0  0  0  0  0  0
  -26.9910  -30.3630   24.7390 C   0  0  0  0  0  1  0  0  0  0  0  0
  -27.5550  -32.5330   25.7910 C   0  0  0  0  0  1  0  0  0  0  0  0
  -25.5760  -33.9100   24.1950 N   0  0  0  0  0  0  0  0  0  0  0  0
  -25.8900  -34.9700   23.4380 C   0  0  0  0  0  0  0  0  0  0  0  0
  -26.5400  -34.8740   22.3940 O   0  0  0  0  0  0  0  0  0  0  0  0
  -24.9920  -34.0580   25.0060 H   0  0  0  0  0  0  0  0  0  0  0  0
  -24.1470  -36.7590   23.1360 C   0  0  0  0  0  1  0  0  0  0  0  0
  -25.4080  -36.3540   23.9150 C   0  0  0  0  0  3  0  0  0  0  0  0
  -27.5580  -37.2460   24.7000 C   0  0  0  0  0  1  0  0  0  0  0  0
  -26.4350  -37.4120   23.7820 N   0  0  0  0  0  0  0  0  0  0  0  0
  -26.0280  -38.3300   23.9380 H   0  0  0  0  0  0  0  0  0  0  0  0
  1  2  1  0
  3  4  1  0
  3  5  1  0
  4 51  1  6
  4  1  1  0
  5  2  1  0
  7 10  1  0
  7  8  2  0
  8  5  1  0
  8  6  1  0
  9 19  1  0
  9  6  2  0
 10  9  1  0
 11 19  1  0
 12 17  1  0
 13 14  1  0
 13 12  1  0
 15 14  1  0
 15 24  1  0
 15 16  1  0
 17 11  1  0
 17 16  1  0
 18 11  2  0
 19 20  1  0
 21 22  2  0
 22 41  1  0
 23 22  1  0
 23 26  1  0
 24 21  1  0
 24 25  1  0
 25 23  2  0
 26 27  1  0
 27 28  2  0
 29 32  1  0
 29 28  1  0
 30 29  2  0
 31 30  1  0
 31 26  2  0
 32 33  1  0
 33 34  1  0
 34 35  2  0
 36 35  1  0
 36 40  1  0
 37 36  2  0
 38 33  2  0
 38 37  1  0
 39 38  1  0
 41 42  1  0
 42 45  1  0
 42 44  1  0
 43 41  2  0
 46 47  1  0
 46 21  1  0
 48 46  1  0
 50 49  1  0
 50  4  1  0
 51 52  1  0
 53 64  2  0
 54 52  1  0
 54 59  1  0
 55 63  1  0
 55 65  1  0
 56 62  1  0
 56 58  1  0
 57 63  1  0
 58 57  1  0
 59 58  2  0
 60 61  1  0
 60 54  2  0
 61 56  2  0
 62 55  1  0
 63 53  1  0
 65 67  2  0
 66 65  1  0
 68 66  1  0
 69 78  2  0
 69 74  1  0
 70 66  1  0
 70 74  1  0
 71 70  1  0
 72 73  1  0
 72 71  1  0
 73 69  1  0
 74 75  2  0
 75 76  1  0
 77 76  2  0
 78 77  1  0
 79 53  1  0
 79 84  1  0
 79 80  1  0
 80 83  1  1
 80 81  1  0
 82 80  1  0
 84 87  1  0
 85 89  1  0
 85 84  1  0
 86 85  2  0
 89 88  1  0
 91 89  1  0
 91 92  1  0
 91 90  1  0
M  ISO  4  11 100  19 100  51 101  52 101
M  END
>  <TORSDO>  (82) 
F 19

>  <SCORE>  (82) 
-14.412

>  <name>  (82) 
81

>  <ligand_id>  (82) 
81

>  <original_smiles>  (82) 
[H]c1oc(N([H])C(=O)N2C([H])([H])C([H])([H])C([H])([H])C([H])(n3nc(-c4c([H])c([H])c(Oc5c([H])c([H])c(F)c([H])c5F)c([H])c4[H])c(C(=O)N([H])[H])c3N([H])[H])C2([H])[H])c([H])c1N1C([H])([H])C([H])([H])C(OC([H])([H])[H])(C([H])([H])Oc2c([H])c([H])c3c(c2[H])C([H])([H])N(C(=O)C([H])(N([H])C(=O)C([H])(N([H])C([H])([H])[H])C([H])([H])[H])C(C([H])([H])[H])(C([H])([H])[H])C([H])([H])[H])C([H])(C(=O)N([H])C2([H])c4c([H])c([H])c([H])c([H])c4C([H])([H])C([H])([H])C2([H])[H])C3([H])[H])C1([H])[H]

>  <smiles>  (82) 
[H]c1oc(N([H])C(=O)N2C([H])([H])C([H])([H])C([H])([H])C([H])(n3nc(-c4c([H])c([H])c(Oc5c([H])c([H])c(F)c([H])c5F)c([H])c4[H])c(C(=O)N([H])[H])c3N([H])[H])C2([H])[H])c([H])c1N1C([H])([H])C([H])([H])C(OC([H])([H])[H])(C([H])([H])Oc2c([H])c([H])c3c(c2[H])C([H])([H])N(C(=O)C([H])(N([H])C(=O)C([H])(N([H])C([H])([H])[H])C([H])([H])[H])C(C([H])([H])[H])(C([H])([H])[H])C([H])([H])[H])C([H])(C(=O)N([H])C2([H])c4c([H])c([H])c([H])c([H])c4C([H])([H])C([H])([H])C2([H])[H])C3([H])[H])C1([H])[H]

$$$$
82:0:0
     RDKit          3D

 93103  0  0  1  0  0  0  0  0999 V2000
  -29.1290  -23.3050   20.5540 C   0  0  0  0  0  0  0  0  0  0  0  0
  -26.9820  -23.6620   19.6910 C   0  0  0  0  0  2  0  0  0  0  0  0
  -27.3080  -22.1340   19.9120 C   0  0  0  0  0  2  0  0  0  0  0  0
  -27.9730  -24.4930   20.5260 C   0  0  0  0  0  3  0  0  0  0  0  0
  -28.7120  -21.9550   20.3190 N   0  0  0  0  0  0  0  0  0  0  0  0
  -30.2960  -23.6140   20.8010 O   0  0  0  0  0  0  0  0  0  0  0  0
  -30.8180  -18.6170   20.4920 C   0  0  0  0  0  3  0  0  0  0  0  0
  -30.6090  -20.0980   20.5260 C   0  0  0  0  0  0  0  0  0  0  0  0
  -29.2970  -20.5960   20.3830 C   0  0  0  0  0  0  0  0  0  0  0  0
  -29.7310  -17.7560   20.3830 C   0  0  0  0  0  0  0  0  0  0  0  0
  -28.3730  -18.9970   20.2700 S   0  0  0  0  0  0  0  0  0  0  0  0
  -30.4280  -15.1160   20.2270 C   0  0  0  0  0  0  0  0  0  0  0  0
  -30.3420  -12.7390   19.2780 C   0  0  0  0  0  2  0  0  0  0  0  0
  -29.3680  -12.6240   18.0780 C   0  0  0  0  0  2  0  0  0  0  0  0
  -27.9310  -12.3670   18.5660 C   0  0  0  0  0  2  0  0  0  0  0  0
  -27.5350  -13.3090   19.7310 C   0  0  0  0  0  3  0  0  0  0  0  0
  -28.6230  -13.3720   20.8260 C   0  0  0  0  0  2  0  0  0  0  0  0
  -29.8580  -13.8340   20.1760 N   0  0  0  0  0  0  0  0  0  0  0  0
  -31.6290  -15.1830   19.9320 O   0  0  0  0  0  0  0  0  0  0  0  0
  -29.6060  -16.2930   20.3920 N   0  0  0  0  0  0  0  0  0  0  0  0
  -28.6490  -16.0050   20.5310 H   0  0  0  0  0  0  0  0  0  0  0  0
  -25.1830  -13.8710   20.5570 C   0  0  0  0  0  0  0  0  0  0  0  0
  -24.1300  -13.0890   20.9450 C   0  0  0  0  0  0  0  0  0  0  0  0
  -24.5950  -11.7380   20.8780 C   0  0  0  0  0  0  0  0  0  0  0  0
  -26.2170  -12.9970   20.2710 N   0  0  0  0  0  0  0  0  0  0  0  0
  -25.8750  -11.7090   20.5290 N   0  0  0  0  0  0  0  0  0  0  0  0
  -23.8740  -10.4720   21.0640 C   0  0  0  0  0  0  0  0  0  0  0  0
  -24.3250   -9.4930   21.9770 C   0  0  0  0  0  3  0  0  0  0  0  0
  -23.6010   -8.2930   22.1540 C   0  0  0  0  0  3  0  0  0  0  0  0
  -22.4140   -8.0640   21.4170 C   0  0  0  0  0  0  0  0  0  0  0  0
  -21.9840   -9.0320   20.4940 C   0  0  0  0  0  3  0  0  0  0  0  0
  -22.7080  -10.2240   20.3130 C   0  0  0  0  0  3  0  0  0  0  0  0
  -21.6620   -6.9170   21.5050 O   0  0  0  0  0  0  0  0  0  0  0  0
  -21.6270   -6.1660   22.6520 C   0  0  0  0  0  0  0  0  0  0  0  0
  -21.1860   -6.7030   23.8810 C   0  0  0  0  0  3  0  0  0  0  0  0
  -21.0990   -5.8780   25.0200 C   0  0  0  0  0  3  0  0  0  0  0  0
  -21.4430   -4.5150   24.9300 C   0  0  0  0  0  0  0  0  0  0  0  0
  -21.8790   -3.9780   23.7070 C   0  0  0  0  0  3  0  0  0  0  0  0
  -21.9670   -4.8000   22.5700 C   0  0  0  0  0  0  0  0  0  0  0  0
  -22.3670   -4.2720   21.3880 F   0  0  0  0  0  0  0  0  0  0  0  0
  -21.3540   -3.7190   26.0220 F   0  0  0  0  0  0  0  0  0  0  0  0
  -22.7410  -13.5620   21.2620 C   0  0  0  0  0  0  0  0  0  0  0  0
  -22.0410  -12.8510   22.1390 N   0  0  0  0  0  0  0  0  0  0  0  0
  -22.2890  -14.5920   20.7660 O   0  0  0  0  0  0  0  0  0  0  0  0
  -22.4240  -12.0170   22.5590 H   0  0  0  0  0  0  0  0  0  0  0  0
  -21.1090  -13.1480   22.3960 H   0  0  0  0  0  0  0  0  0  0  0  0
  -25.3410  -15.2440   20.3960 N   0  0  0  0  0  0  0  0  0  0  0  0
  -24.5740  -15.8930   20.5280 H   0  0  0  0  0  0  0  0  0  0  0  0
  -26.1650  -15.6830   20.0050 H   0  0  0  0  0  0  0  0  0  0  0  0
  -33.1400  -20.5050   21.2310 C   0  0  0  0  0  2  0  0  0  0  0  0
  -32.2840  -21.4360   22.0530 C   0  0  0  0  0  2  0  0  0  0  0  0
  -31.8090  -20.9980   20.6830 C   0  0  0  0  0  3  0  0  0  0  0  0
  -28.2260  -26.0590   20.2670 O   0  0  0  0  0  0  0  0  0  0  0  0
  -24.6580  -31.8970   23.2520 C   0  0  0  0  0  0  0  0  0  0  0  0
  -27.1850  -27.0910   20.2460 C   0  0  0  0  0  0  0  0  0  0  0  0
  -23.4450  -30.5110   21.6180 C   0  0  0  0  0  3  0  0  0  0  0  0
  -24.8790  -28.9110   20.1980 C   0  0  0  0  0  0  0  0  0  0  0  0
  -26.0080  -30.7350   21.4530 C   0  0  0  0  0  2  0  0  0  0  0  0
  -26.0680  -29.3320   20.8090 C   0  0  0  0  0  0  0  0  0  0  0  0
  -27.2200  -28.4440   20.8080 C   0  0  0  0  0  3  0  0  0  0  0  0
  -25.9720  -26.8000   19.5840 C   0  0  0  0  0  3  0  0  0  0  0  0
  -24.8490  -27.6610   19.5670 C   0  0  0  0  0  3  0  0  0  0  0  0
  -23.6630  -29.8300   20.2410 C   0  0  0  0  0  2  0  0  0  0  0  0
  -24.7250  -31.0730   22.1610 N   0  0  0  0  0  0  0  0  0  0  0  0
  -23.5730  -32.1910   23.7820 O   0  0  0  0  0  0  0  0  0  0  0  0
  -22.7560  -29.5120   22.5840 C   0  0  0  0  0  0  0  0  0  0  0  0
  -21.4270  -29.3450   22.4570 N   0  0  0  0  0  0  0  0  0  0  0  0
  -23.4220  -28.8900   23.4140 O   0  0  0  0  0  0  0  0  0  0  0  0
  -20.9390  -29.8990   21.7670 H   0  0  0  0  0  0  0  0  0  0  0  0
  -18.0440  -28.1500   22.9650 C   0  0  0  0  0  0  0  0  0  0  0  0
  -20.6040  -28.4130   23.2320 C   0  0  0  0  0  3  0  0  0  0  0  0
  -20.7060  -26.9760   22.6670 C   0  0  0  0  0  2  0  0  0  0  0  0
  -19.6050  -26.6490   21.6530 C   0  0  0  0  0  2  0  0  0  0  0  0
  -18.2220  -26.7990   22.2930 C   0  0  0  0  0  2  0  0  0  0  0  0
  -19.1620  -28.9140   23.3920 C   0  0  0  0  0  0  0  0  0  0  0  0
  -18.9410  -30.1800   23.9810 C   0  0  0  0  0  3  0  0  0  0  0  0
  -17.6350  -30.6780   24.1470 C   0  0  0  0  0  3  0  0  0  0  0  0
  -16.5320  -29.9110   23.7340 C   0  0  0  0  0  3  0  0  0  0  0  0
  -16.7370  -28.6490   23.1480 C   0  0  0  0  0  3  0  0  0  0  0  0
  -25.9370  -32.5280   23.8770 C   0  0  0  0  0  3  0  0  0  0  0  0
  -25.6310  -33.9270   24.2170 N   0  0  0  0  0  0  0  0  0  0  0  0
  -25.9360  -34.9860   23.4550 C   0  0  0  0  0  0  0  0  0  0  0  0
  -26.5700  -34.8880   22.4020 O   0  0  0  0  0  0  0  0  0  0  0  0
  -25.0700  -34.0770   25.0420 H   0  0  0  0  0  0  0  0  0  0  0  0
  -24.1820  -36.7730   23.1890 C   0  0  0  0  0  1  0  0  0  0  0  0
  -25.4630  -36.3710   23.9380 C   0  0  0  0  0  3  0  0  0  0  0  0
  -27.6280  -37.2770   24.6670 C   0  0  0  0  0  1  0  0  0  0  0  0
  -26.4830  -37.4300   23.7750 N   0  0  0  0  0  0  0  0  0  0  0  0
  -26.0750  -38.3480   23.9380 H   0  0  0  0  0  0  0  0  0  0  0  0
  -26.4500  -31.7550   25.1540 C   0  0  1  0  0  0  0  0  0  0  0  0
  -25.3550  -31.5260   26.2210 C   0  0  0  0  0  1  0  0  0  0  0  0
  -27.0270  -30.3730   24.7680 C   0  0  0  0  0  1  0  0  0  0  0  0
  -27.6040  -32.5450   25.8170 C   0  0  0  0  0  1  0  0  0  0  0  0
  1  6  2  0
  2  3  1  0
  2  4  1  0
  3  5  1  0
  4 53  1  0
  4  1  1  0
  5  9  1  0
  5  1  1  0
  7  8  1  0
  8 52  1  0
  9  8  2  0
 10 20  1  0
 10  7  2  0
 11 10  1  0
 11  9  1  0
 12 20  1  0
 13 18  1  0
 14 15  1  0
 14 13  1  0
 16 15  1  0
 16 25  1  0
 16 17  1  0
 18 12  1  0
 18 17  1  0
 19 12  2  0
 20 21  1  0
 22 23  2  0
 23 42  1  0
 24 23  1  0
 24 27  1  0
 25 26  1  0
 25 22  1  0
 26 24  2  0
 27 28  1  0
 28 29  2  0
 30 33  1  0
 30 29  1  0
 31 30  2  0
 32 31  1  0
 32 27  2  0
 33 34  1  0
 34 35  1  0
 35 36  2  0
 37 36  1  0
 37 41  1  0
 38 37  2  0
 39 34  2  0
 39 38  1  0
 40 39  1  0
 42 43  1  0
 43 46  1  0
 43 45  1  0
 44 42  2  0
 47 48  1  0
 47 22  1  0
 49 47  1  0
 50 51  1  0
 52 50  1  0
 52 51  1  0
 54 65  2  0
 55 53  1  0
 55 60  1  0
 56 64  1  0
 56 66  1  0
 57 63  1  0
 57 59  1  0
 58 64  1  0
 59 58  1  0
 60 59  2  0
 61 55  2  0
 62 61  1  0
 62 57  2  0
 63 56  1  0
 64 54  1  0
 66 68  2  0
 67 66  1  0
 69 67  1  0
 70 79  2  0
 70 75  1  0
 71 67  1  0
 71 75  1  0
 72 71  1  0
 73 74  1  0
 73 72  1  0
 74 70  1  0
 75 76  2  0
 76 77  1  0
 78 77  2  0
 79 78  1  0
 80 54  1  0
 80 81  1  0
 80 90  1  0
 81 84  1  0
 82 86  1  0
 82 81  1  0
 83 82  2  0
 86 85  1  0
 88 86  1  0
 88 89  1  0
 88 87  1  0
 90 93  1  1
 90 91  1  0
 92 90  1  0
M  ISO  4   4 101  12 100  20 100  53 101
M  END
>  <TORSDO>  (83) 
F 18

>  <SCORE>  (83) 
-14.792

>  <name>  (83) 
82

>  <ligand_id>  (83) 
82

>  <original_smiles>  (83) 
[H]c1c([H])c([H])c2c(c1[H])C([H])([H])C([H])([H])C([H])([H])C2([H])N([H])C(=O)C1([H])N(C(=O)C([H])(N([H])C(=O)C([H])(N([H])C([H])([H])[H])C([H])([H])[H])C(C([H])([H])[H])(C([H])([H])[H])C([H])([H])[H])C([H])([H])c2c([H])c(OC3([H])C(=O)N(c4sc(N([H])C(=O)N5C([H])([H])C([H])([H])C([H])([H])C([H])(n6nc(-c7c([H])c([H])c(Oc8c([H])c([H])c(F)c([H])c8F)c([H])c7[H])c(C(=O)N([H])[H])c6N([H])[H])C5([H])[H])c([H])c4C4([H])C([H])([H])C4([H])[H])C([H])([H])C3([H])[H])c([H])c([H])c2C1([H])[H]

>  <smiles>  (83) 
[H]c1c([H])c([H])c2c(c1[H])C([H])([H])C([H])([H])C([H])([H])C2([H])N([H])C(=O)C1([H])N(C(=O)C([H])(N([H])C(=O)C([H])(N([H])C([H])([H])[H])C([H])([H])[H])C(C([H])([H])[H])(C([H])([H])[H])C([H])([H])[H])C([H])([H])c2c([H])c(OC3([H])C(=O)N(c4sc(N([H])C(=O)N5C([H])([H])C([H])([H])C([H])([H])C([H])(n6nc(-c7c([H])c([H])c(Oc8c([H])c([H])c(F)c([H])c8F)c([H])c7[H])c(C(=O)N([H])[H])c6N([H])[H])C5([H])[H])c([H])c4C4([H])C([H])([H])C4([H])[H])C([H])([H])C3([H])[H])c([H])c([H])c2C1([H])[H]

$$$$
83:0:0
     RDKit          3D

 99107  0  0  1  0  0  0  0  0999 V2000
  -30.6050  -20.0030   21.0320 C   0  0  0  0  0  3  0  0  0  0  0  0
  -30.8280  -18.5880   21.2110 C   0  0  0  0  0  3  0  0  0  0  0  0
  -29.2270  -19.5330   19.1210 C   0  0  0  0  0  0  0  0  0  0  0  0
  -29.8030  -20.5380   19.9770 C   0  0  0  0  0  0  0  0  0  0  0  0
  -30.2620  -17.5980   20.3490 C   0  0  0  0  0  0  0  0  0  0  0  0
  -29.4450  -18.1230   19.3160 C   0  0  0  0  0  0  0  0  0  0  0  0
  -28.8470  -17.2250   18.4920 F   0  0  0  0  0  0  0  0  0  0  0  0
  -31.0260  -15.0850   20.0720 C   0  0  0  0  0  0  0  0  0  0  0  0
  -30.7440  -12.8850   18.9090 C   0  0  0  0  0  2  0  0  0  0  0  0
  -29.7370  -13.0670   17.7480 C   0  0  0  0  0  2  0  0  0  0  0  0
  -28.2860  -12.9030   18.2430 C   0  0  0  0  0  2  0  0  0  0  0  0
  -28.0070  -13.7090   19.5390 C   0  0  0  0  0  3  0  0  0  0  0  0
  -29.1200  -13.4890   20.5900 C   0  0  0  0  0  2  0  0  0  0  0  0
  -30.3980  -13.8620   19.9650 N   0  0  0  0  0  0  0  0  0  0  0  0
  -32.1700  -15.2380   19.6290 O   0  0  0  0  0  0  0  0  0  0  0  0
  -30.2750  -16.1300   20.5800 N   0  0  0  0  0  0  0  0  0  0  0  0
  -29.3760  -15.7840   20.8760 H   0  0  0  0  0  0  0  0  0  0  0  0
  -25.6760  -14.3250   20.4160 C   0  0  0  0  0  0  0  0  0  0  0  0
  -24.6080  -13.5600   20.8010 C   0  0  0  0  0  0  0  0  0  0  0  0
  -25.0290  -12.2010   20.6740 C   0  0  0  0  0  0  0  0  0  0  0  0
  -26.6790  -13.4310   20.0790 N   0  0  0  0  0  0  0  0  0  0  0  0
  -26.3000  -12.1450   20.2950 N   0  0  0  0  0  0  0  0  0  0  0  0
  -24.2770  -10.9490   20.8330 C   0  0  0  0  0  0  0  0  0  0  0  0
  -24.6970   -9.9430   21.7320 C   0  0  0  0  0  3  0  0  0  0  0  0
  -23.9470   -8.7570   21.8800 C   0  0  0  0  0  3  0  0  0  0  0  0
  -22.7620   -8.5670   21.1300 C   0  0  0  0  0  0  0  0  0  0  0  0
  -22.3600   -9.5620   20.2210 C   0  0  0  0  0  3  0  0  0  0  0  0
  -23.1110  -10.7390   20.0690 C   0  0  0  0  0  3  0  0  0  0  0  0
  -21.9830   -7.4370   21.1910 O   0  0  0  0  0  0  0  0  0  0  0  0
  -21.9130   -6.6710   22.3270 C   0  0  0  0  0  0  0  0  0  0  0  0
  -21.4820   -7.2050   23.5600 C   0  0  0  0  0  3  0  0  0  0  0  0
  -21.3590   -6.3660   24.6870 C   0  0  0  0  0  3  0  0  0  0  0  0
  -21.6580   -4.9950   24.5790 C   0  0  0  0  0  0  0  0  0  0  0  0
  -22.0820   -4.4600   23.3490 C   0  0  0  0  0  3  0  0  0  0  0  0
  -22.2060   -5.2960   22.2260 C   0  0  0  0  0  0  0  0  0  0  0  0
  -22.5950   -4.7710   21.0390 F   0  0  0  0  0  0  0  0  0  0  0  0
  -21.5320   -4.1870   25.6570 F   0  0  0  0  0  0  0  0  0  0  0  0
  -23.2400  -14.0580   21.1710 C   0  0  0  0  0  0  0  0  0  0  0  0
  -22.5410  -13.3400   22.0420 N   0  0  0  0  0  0  0  0  0  0  0  0
  -22.8030  -15.1170   20.7230 O   0  0  0  0  0  0  0  0  0  0  0  0
  -22.9080  -12.4820   22.4260 H   0  0  0  0  0  0  0  0  0  0  0  0
  -21.6250  -13.6540   22.3310 H   0  0  0  0  0  0  0  0  0  0  0  0
  -25.8710  -15.6980   20.2990 N   0  0  0  0  0  0  0  0  0  0  0  0
  -25.1170  -16.3560   20.4590 H   0  0  0  0  0  0  0  0  0  0  0  0
  -26.6850  -16.1220   19.8700 H   0  0  0  0  0  0  0  0  0  0  0  0
  -29.4770  -23.2120   20.2940 C   0  0  0  0  0  0  0  0  0  0  0  0
  -29.6510  -21.9910   19.6490 N   0  0  0  0  0  0  0  0  0  0  0  0
  -29.4420  -23.3100   21.5210 O   0  0  0  0  0  0  0  0  0  0  0  0
  -29.5740  -22.1730   18.6530 H   0  0  0  0  0  0  0  0  0  0  0  0
  -29.0690  -25.7310   19.4320 C   0  0  0  0  0  3  0  0  0  0  0  0
  -29.3390  -24.3610   19.3120 C   0  0  0  0  0  0  0  0  0  0  0  0
  -29.5090  -23.9830   18.0320 O   0  0  0  0  0  0  0  0  0  0  0  0
  -29.4180  -24.7520   17.4860 H   0  0  0  0  0  0  0  0  0  0  0  0
  -28.8050  -26.6780   20.4520 O   0  0  0  0  0  0  0  0  0  0  0  0
  -24.7330  -32.0080   23.2840 C   0  0  0  0  0  0  0  0  0  0  0  0
  -27.6900  -27.5490   20.3280 C   0  0  0  0  0  0  0  0  0  0  0  0
  -23.6680  -30.5520   21.6020 C   0  0  0  0  0  3  0  0  0  0  0  0
  -25.2510  -29.0780   20.2290 C   0  0  0  0  0  0  0  0  0  0  0  0
  -26.1990  -30.9860   21.5210 C   0  0  0  0  0  2  0  0  0  0  0  0
  -26.3750  -29.6110   20.8740 C   0  0  0  0  0  0  0  0  0  0  0  0
  -27.5950  -28.8570   20.9170 C   0  0  0  0  0  3  0  0  0  0  0  0
  -26.5300  -27.0790   19.6690 C   0  0  0  0  0  3  0  0  0  0  0  0
  -25.3340  -27.8190   19.6170 C   0  0  0  0  0  3  0  0  0  0  0  0
  -23.9710  -29.8920   20.2320 C   0  0  0  0  0  2  0  0  0  0  0  0
  -24.8830  -31.2020   22.1910 N   0  0  0  0  0  0  0  0  0  0  0  0
  -23.6170  -32.2310   23.7750 O   0  0  0  0  0  0  0  0  0  0  0  0
  -23.0190  -29.5040   22.5370 C   0  0  0  0  0  0  0  0  0  0  0  0
  -21.7040  -29.2720   22.3730 N   0  0  0  0  0  0  0  0  0  0  0  0
  -23.6980  -28.9020   23.3740 O   0  0  0  0  0  0  0  0  0  0  0  0
  -21.2130  -29.8120   21.6740 H   0  0  0  0  0  0  0  0  0  0  0  0
  -18.3530  -27.9800   22.8240 C   0  0  0  0  0  0  0  0  0  0  0  0
  -20.9030  -28.2960   23.1150 C   0  0  0  0  0  3  0  0  0  0  0  0
  -21.0430  -26.8820   22.5070 C   0  0  0  0  0  2  0  0  0  0  0  0
  -19.9560  -26.5570   21.4780 C   0  0  0  0  0  2  0  0  0  0  0  0
  -18.5670  -26.6520   22.1160 C   0  0  0  0  0  2  0  0  0  0  0  0
  -19.4510  -28.7580   23.2800 C   0  0  0  0  0  0  0  0  0  0  0  0
  -19.1970  -30.0000   23.9020 C   0  0  0  0  0  3  0  0  0  0  0  0
  -17.8790  -30.4640   24.0730 C   0  0  0  0  0  3  0  0  0  0  0  0
  -16.7960  -29.6820   23.6330 C   0  0  0  0  0  3  0  0  0  0  0  0
  -17.0340  -28.4420   23.0150 C   0  0  0  0  0  3  0  0  0  0  0  0
  -25.9550  -32.7070   23.9550 C   0  0  0  0  0  3  0  0  0  0  0  0
  -25.5720  -34.0980   24.2400 N   0  0  0  0  0  0  0  0  0  0  0  0
  -25.9040  -35.1520   23.4810 C   0  0  0  0  0  0  0  0  0  0  0  0
  -26.6330  -35.0570   22.4890 O   0  0  0  0  0  0  0  0  0  0  0  0
  -24.9290  -34.2420   25.0030 H   0  0  0  0  0  0  0  0  0  0  0  0
  -24.1270  -36.8680   23.0040 C   0  0  0  0  0  1  0  0  0  0  0  0
  -25.3390  -36.5260   23.8850 C   0  0  0  0  0  3  0  0  0  0  0  0
  -27.3860  -37.5160   24.8130 C   0  0  0  0  0  1  0  0  0  0  0  0
  -26.3340  -37.6190   23.8060 N   0  0  0  0  0  0  0  0  0  0  0  0
  -25.8840  -38.5250   23.9080 H   0  0  0  0  0  0  0  0  0  0  0  0
  -26.4370  -31.9850   25.2730 C   0  0  1  0  0  0  0  0  0  0  0  0
  -25.2920  -31.6810   26.2690 C   0  0  0  0  0  1  0  0  0  0  0  0
  -27.1380  -30.6480   24.9420 C   0  0  0  0  0  1  0  0  0  0  0  0
  -27.4830  -32.8630   26.0000 C   0  0  0  0  0  1  0  0  0  0  0  0
  -28.3980  -19.9350   17.9510 C   0  0  0  0  0  0  0  0  0  0  0  0
  -28.8800  -20.3660   16.8980 O   0  0  0  0  0  0  0  0  0  0  0  0
  -26.1840  -19.2230   16.9260 C   0  0  0  0  0  1  0  0  0  0  0  0
  -26.3210  -21.3120   18.3720 C   0  0  0  0  0  1  0  0  0  0  0  0
  -26.8720  -19.8970   18.1270 C   0  0  0  0  0  3  0  0  0  0  0  0
  1  2  1  0
  3  6  2  0
  3  4  1  0
  4  1  2  0
  5 16  1  0
  5  2  2  0
  6  5  1  0
  7  6  1  0
  8 16  1  0
  9 14  1  0
 10 11  1  0
 10  9  1  0
 12 11  1  0
 12 21  1  0
 12 13  1  0
 14  8  1  0
 14 13  1  0
 15  8  2  0
 16 17  1  0
 18 19  2  0
 19 38  1  0
 20 19  1  0
 20 23  1  0
 21 22  1  0
 21 18  1  0
 22 20  2  0
 23 24  1  0
 24 25  2  0
 26 29  1  0
 26 25  1  0
 27 26  2  0
 28 27  1  0
 28 23  2  0
 29 30  1  0
 30 31  1  0
 31 32  2  0
 33 32  1  0
 33 37  1  0
 34 33  2  0
 35 30  2  0
 35 34  1  0
 36 35  1  0
 38 39  1  0
 39 42  1  0
 39 41  1  0
 40 38  2  0
 43 18  1  0
 43 44  1  0
 45 43  1  0
 46 48  2  0
 47  4  1  0
 47 46  1  0
 49 47  1  0
 50 54  1  0
 51 50  2  0
 51 46  1  0
 52 51  1  0
 53 52  1  0
 55 66  2  0
 56 54  1  0
 56 61  1  0
 57 65  1  0
 57 67  1  0
 58 64  1  0
 58 60  1  0
 59 65  1  0
 60 61  2  0
 60 59  1  0
 62 56  2  0
 63 62  1  0
 63 58  2  0
 64 57  1  0
 65 55  1  0
 67 69  2  0
 68 67  1  0
 70 68  1  0
 71 80  2  0
 71 76  1  0
 72 68  1  0
 72 76  1  0
 73 72  1  0
 74 75  1  0
 74 73  1  0
 75 71  1  0
 76 77  2  0
 77 78  1  0
 79 78  2  0
 80 79  1  0
 81 55  1  0
 81 82  1  0
 81 91  1  0
 82 85  1  0
 83 87  1  0
 83 82  1  0
 84 83  2  0
 87 86  1  0
 89 87  1  0
 89 90  1  0
 89 88  1  0
 91 94  1  1
 91 92  1  0
 93 91  1  0
 95 99  1  0
 95  3  1  0
 96 95  2  0
 97 99  1  0
 99 98  1  0
M  ISO  4   8 100  16 100  50 101  54 101
M  END
>  <TORSDO>  (84) 
F 21

>  <SCORE>  (84) 
-12.466

>  <name>  (84) 
83

>  <ligand_id>  (84) 
83

>  <original_smiles>  (84) 
[H]OC(C(=O)N([H])c1c([H])c([H])c(N([H])C(=O)N2C([H])([H])C([H])([H])C([H])([H])C([H])(n3nc(-c4c([H])c([H])c(Oc5c([H])c([H])c(F)c([H])c5F)c([H])c4[H])c(C(=O)N([H])[H])c3N([H])[H])C2([H])[H])c(F)c1C(=O)C([H])(C([H])([H])[H])C([H])([H])[H])=C([H])Oc1c([H])c([H])c2c(c1[H])C([H])([H])N(C(=O)C([H])(N([H])C(=O)C([H])(N([H])C([H])([H])[H])C([H])([H])[H])C(C([H])([H])[H])(C([H])([H])[H])C([H])([H])[H])C([H])(C(=O)N([H])C1([H])c3c([H])c([H])c([H])c([H])c3C([H])([H])C([H])([H])C1([H])[H])C2([H])[H]

>  <smiles>  (84) 
[H]OC(C(=O)N([H])c1c([H])c([H])c(N([H])C(=O)N2C([H])([H])C([H])([H])C([H])([H])C([H])(n3nc(-c4c([H])c([H])c(Oc5c([H])c([H])c(F)c([H])c5F)c([H])c4[H])c(C(=O)N([H])[H])c3N([H])[H])C2([H])[H])c(F)c1C(=O)C([H])(C([H])([H])[H])C([H])([H])[H])=C([H])Oc1c([H])c([H])c2c(c1[H])C([H])([H])N(C(=O)C([H])(N([H])C(=O)C([H])(N([H])C([H])([H])[H])C([H])([H])[H])C(C([H])([H])[H])(C([H])([H])[H])C([H])([H])[H])C([H])(C(=O)N([H])C1([H])c3c([H])c([H])c([H])c([H])c3C([H])([H])C([H])([H])C1([H])[H])C2([H])[H]

$$$$
84:0:0
     RDKit          3D

 92101  0  0  1  0  0  0  0  0999 V2000
  -29.3450  -19.9770   19.8560 C   0  0  0  0  0  3  0  0  0  0  0  0
  -30.0260  -18.8840   20.5830 C   0  0  0  0  0  0  0  0  0  0  0  0
  -30.4410  -19.3620   21.7790 C   0  0  0  0  0  0  0  0  0  0  0  0
  -29.3100  -21.2480   20.4930 C   0  0  0  0  0  0  0  0  0  0  0  0
  -31.3080  -18.4590   22.5560 C   0  0  0  0  0  2  0  0  0  0  0  0
  -31.7260  -17.4120   21.5030 C   0  0  0  0  0  2  0  0  0  0  0  0
  -30.6830  -17.4510   20.3340 C   0  0  0  0  0  3  0  0  0  0  0  0
  -30.0810  -21.0530   22.0680 S   0  0  0  0  0  0  0  0  0  0  0  0
  -30.6330  -14.8840   19.9610 C   0  0  0  0  0  0  0  0  0  0  0  0
  -30.3110  -12.6130   18.9590 C   0  0  0  0  0  2  0  0  0  0  0  0
  -29.3070  -12.6760   17.7880 C   0  0  0  0  0  2  0  0  0  0  0  0
  -27.8700  -12.5030   18.3130 C   0  0  0  0  0  2  0  0  0  0  0  0
  -27.5700  -13.4050   19.5400 C   0  0  0  0  0  3  0  0  0  0  0  0
  -28.6940  -13.3460   20.5970 C   0  0  0  0  0  2  0  0  0  0  0  0
  -29.9490  -13.6870   19.9180 N   0  0  0  0  0  0  0  0  0  0  0  0
  -31.7910  -14.9180   19.5370 O   0  0  0  0  0  0  0  0  0  0  0  0
  -29.9970  -16.0770   20.3080 N   0  0  0  0  0  0  0  0  0  0  0  0
  -29.0330  -16.0320   20.5970 H   0  0  0  0  0  0  0  0  0  0  0  0
  -25.2440  -13.9970   20.4390 C   0  0  0  0  0  0  0  0  0  0  0  0
  -24.1970  -13.2250   20.8600 C   0  0  0  0  0  0  0  0  0  0  0  0
  -24.6430  -11.8720   20.7700 C   0  0  0  0  0  0  0  0  0  0  0  0
  -26.2610  -13.1150   20.1150 N   0  0  0  0  0  0  0  0  0  0  0  0
  -25.9120  -11.8290   20.3780 N   0  0  0  0  0  0  0  0  0  0  0  0
  -23.9170  -10.6110   20.9780 C   0  0  0  0  0  0  0  0  0  0  0  0
  -24.3760   -9.6350   21.8900 C   0  0  0  0  0  3  0  0  0  0  0  0
  -23.6490   -8.4410   22.0870 C   0  0  0  0  0  3  0  0  0  0  0  0
  -22.4480   -8.2150   21.3720 C   0  0  0  0  0  0  0  0  0  0  0  0
  -22.0090   -9.1790   20.4480 C   0  0  0  0  0  3  0  0  0  0  0  0
  -22.7360  -10.3650   20.2500 C   0  0  0  0  0  3  0  0  0  0  0  0
  -21.6900   -7.0750   21.4790 O   0  0  0  0  0  0  0  0  0  0  0  0
  -21.6540   -6.3420   22.6380 C   0  0  0  0  0  0  0  0  0  0  0  0
  -21.1950   -6.8920   23.8540 C   0  0  0  0  0  3  0  0  0  0  0  0
  -21.1090   -6.0830   25.0050 C   0  0  0  0  0  3  0  0  0  0  0  0
  -21.4710   -4.7250   24.9400 C   0  0  0  0  0  0  0  0  0  0  0  0
  -21.9240   -4.1730   23.7280 C   0  0  0  0  0  3  0  0  0  0  0  0
  -22.0120   -4.9790   22.5800 C   0  0  0  0  0  0  0  0  0  0  0  0
  -22.4280   -4.4380   21.4100 F   0  0  0  0  0  0  0  0  0  0  0  0
  -21.3820   -3.9450   26.0440 F   0  0  0  0  0  0  0  0  0  0  0  0
  -22.8250  -13.7090   21.2300 C   0  0  0  0  0  0  0  0  0  0  0  0
  -22.1490  -13.0030   22.1280 N   0  0  0  0  0  0  0  0  0  0  0  0
  -22.3660  -14.7480   20.7580 O   0  0  0  0  0  0  0  0  0  0  0  0
  -22.5350  -12.1610   22.5300 H   0  0  0  0  0  0  0  0  0  0  0  0
  -21.2320  -13.3080   22.4200 H   0  0  0  0  0  0  0  0  0  0  0  0
  -25.4100  -15.3710   20.2800 N   0  0  0  0  0  0  0  0  0  0  0  0
  -24.6570  -16.0270   20.4510 H   0  0  0  0  0  0  0  0  0  0  0  0
  -26.2360  -15.8090   19.8940 H   0  0  0  0  0  0  0  0  0  0  0  0
  -28.9440  -23.8000   20.5040 C   0  0  0  0  0  0  0  0  0  0  0  0
  -28.7690  -22.4820   20.0670 N   0  0  0  0  0  0  0  0  0  0  0  0
  -29.8380  -24.0970   21.3000 O   0  0  0  0  0  0  0  0  0  0  0  0
  -28.0970  -22.4010   19.3160 H   0  0  0  0  0  0  0  0  0  0  0  0
  -27.9860  -24.9820   19.9750 C   0  0  0  0  0  2  0  0  0  0  0  0
  -28.2580  -26.4320   20.3420 O   0  0  0  0  0  0  0  0  0  0  0  0
  -24.6300  -31.9750   23.3650 C   0  0  0  0  0  0  0  0  0  0  0  0
  -27.1910  -27.3710   20.2620 C   0  0  0  0  0  0  0  0  0  0  0  0
  -23.4170  -30.6020   21.7130 C   0  0  0  0  0  3  0  0  0  0  0  0
  -24.8560  -29.0620   20.2610 C   0  0  0  0  0  0  0  0  0  0  0  0
  -25.9680  -30.8880   21.5390 C   0  0  0  0  0  2  0  0  0  0  0  0
  -26.0350  -29.5140   20.8680 C   0  0  0  0  0  0  0  0  0  0  0  0
  -27.2060  -28.6830   20.8550 C   0  0  0  0  0  3  0  0  0  0  0  0
  -25.9920  -27.0070   19.6070 C   0  0  0  0  0  3  0  0  0  0  0  0
  -24.8420  -27.8170   19.6170 C   0  0  0  0  0  3  0  0  0  0  0  0
  -23.6270  -29.9480   20.3240 C   0  0  0  0  0  2  0  0  0  0  0  0
  -24.6910  -31.1740   22.2590 N   0  0  0  0  0  0  0  0  0  0  0  0
  -23.5480  -32.2530   23.9020 O   0  0  0  0  0  0  0  0  0  0  0  0
  -22.7470  -29.5800   22.6620 C   0  0  0  0  0  0  0  0  0  0  0  0
  -21.4260  -29.3820   22.5110 N   0  0  0  0  0  0  0  0  0  0  0  0
  -23.4180  -28.9670   23.4980 O   0  0  0  0  0  0  0  0  0  0  0  0
  -20.9430  -29.9290   21.8120 H   0  0  0  0  0  0  0  0  0  0  0  0
  -18.0570  -28.1230   22.9420 C   0  0  0  0  0  0  0  0  0  0  0  0
  -20.6050  -28.4350   23.2700 C   0  0  0  0  0  3  0  0  0  0  0  0
  -20.7470  -27.0010   22.7090 C   0  0  0  0  0  2  0  0  0  0  0  0
  -19.6750  -26.6490   21.6720 C   0  0  0  0  0  2  0  0  0  0  0  0
  -18.2760  -26.7720   22.2810 C   0  0  0  0  0  2  0  0  0  0  0  0
  -19.1510  -28.9100   23.3910 C   0  0  0  0  0  0  0  0  0  0  0  0
  -18.8930  -30.1730   23.9680 C   0  0  0  0  0  3  0  0  0  0  0  0
  -17.5740  -30.6490   24.1000 C   0  0  0  0  0  3  0  0  0  0  0  0
  -16.4950  -29.8580   23.6670 C   0  0  0  0  0  3  0  0  0  0  0  0
  -16.7380  -28.5980   23.0940 C   0  0  0  0  0  3  0  0  0  0  0  0
  -25.9140  -32.5970   23.9920 C   0  0  0  0  0  3  0  0  0  0  0  0
  -25.6170  -34.0020   24.3090 N   0  0  0  0  0  0  0  0  0  0  0  0
  -25.9470  -35.0450   23.5350 C   0  0  0  0  0  0  0  0  0  0  0  0
  -26.5970  -34.9230   22.4930 O   0  0  0  0  0  0  0  0  0  0  0  0
  -25.0360  -34.1710   25.1160 H   0  0  0  0  0  0  0  0  0  0  0  0
  -24.2210  -36.8450   23.2000 C   0  0  0  0  0  1  0  0  0  0  0  0
  -25.4790  -36.4410   23.9860 C   0  0  0  0  0  3  0  0  0  0  0  0
  -27.6300  -37.3330   24.7650 C   0  0  0  0  0  1  0  0  0  0  0  0
  -26.5150  -37.4870   23.8350 N   0  0  0  0  0  0  0  0  0  0  0  0
  -26.1160  -38.4120   23.9690 H   0  0  0  0  0  0  0  0  0  0  0  0
  -26.4080  -31.8330   25.2810 C   0  0  1  0  0  0  0  0  0  0  0  0
  -25.2990  -31.6020   26.3340 C   0  0  0  0  0  1  0  0  0  0  0  0
  -26.9940  -30.4500   24.9100 C   0  0  0  0  0  1  0  0  0  0  0  0
  -27.5510  -32.6280   25.9530 C   0  0  0  0  0  1  0  0  0  0  0  0
  1  4  2  0
  1  2  1  0
  2  3  2  0
  3  8  1  0
  3  5  1  0
  4  8  1  0
  6  5  1  0
  7 17  1  0
  7  2  1  0
  7  6  1  0
  9 17  1  0
 10 15  1  0
 11 12  1  0
 11 10  1  0
 13 12  1  0
 13 22  1  0
 13 14  1  0
 15  9  1  0
 15 14  1  0
 16  9  2  0
 17 18  1  0
 19 20  2  0
 20 39  1  0
 21 20  1  0
 21 24  1  0
 22 23  1  0
 22 19  1  0
 23 21  2  0
 24 25  1  0
 25 26  2  0
 27 30  1  0
 27 26  1  0
 28 27  2  0
 29 28  1  0
 29 24  2  0
 30 31  1  0
 31 32  1  0
 32 33  2  0
 34 33  1  0
 34 38  1  0
 35 34  2  0
 36 31  2  0
 36 35  1  0
 37 36  1  0
 39 40  1  0
 40 43  1  0
 40 42  1  0
 41 39  2  0
 44 19  1  0
 44 45  1  0
 46 44  1  0
 47 49  2  0
 48  4  1  0
 48 47  1  0
 50 48  1  0
 51 52  1  0
 51 47  1  0
 53 64  2  0
 54 52  1  0
 54 59  1  0
 55 63  1  0
 55 65  1  0
 56 62  1  0
 56 58  1  0
 57 63  1  0
 58 57  1  0
 59 58  2  0
 60 61  1  0
 60 54  2  0
 61 56  2  0
 62 55  1  0
 63 53  1  0
 65 67  2  0
 66 65  1  0
 68 66  1  0
 69 78  2  0
 69 74  1  0
 70 66  1  0
 70 74  1  0
 71 70  1  0
 72 73  1  0
 72 71  1  0
 73 69  1  0
 74 75  2  0
 75 76  1  0
 77 76  2  0
 78 77  1  0
 79 53  1  0
 79 80  1  0
 79 89  1  0
 80 83  1  0
 81 85  1  0
 81 80  1  0
 82 81  2  0
 85 84  1  0
 87 88  1  0
 87 85  1  0
 87 86  1  0
 89 92  1  1
 89 90  1  0
 91 89  1  0
M  ISO  4   9 100  17 100  51 101  52 101
M  END
>  <TORSDO>  (85) 
F 18

>  <SCORE>  (85) 
-14.076

>  <name>  (85) 
84

>  <ligand_id>  (85) 
84

>  <original_smiles>  (85) 
[H]c1c([H])c([H])c2c(c1[H])C([H])([H])C([H])([H])C([H])([H])C2([H])N([H])C(=O)C1([H])N(C(=O)C([H])(N([H])C(=O)C([H])(N([H])C([H])([H])[H])C([H])([H])[H])C(C([H])([H])[H])(C([H])([H])[H])C([H])([H])[H])C([H])([H])c2c([H])c(OC([H])([H])C(=O)N([H])c3sc4c(c3[H])C([H])(N([H])C(=O)N3C([H])([H])C([H])([H])C([H])([H])C([H])(n5nc(-c6c([H])c([H])c(Oc7c([H])c([H])c(F)c([H])c7F)c([H])c6[H])c(C(=O)N([H])[H])c5N([H])[H])C3([H])[H])C([H])([H])C4([H])[H])c([H])c([H])c2C1([H])[H]

>  <smiles>  (85) 
[H]c1c([H])c([H])c2c(c1[H])C([H])([H])C([H])([H])C([H])([H])C2([H])N([H])C(=O)C1([H])N(C(=O)C([H])(N([H])C(=O)C([H])(N([H])C([H])([H])[H])C([H])([H])[H])C(C([H])([H])[H])(C([H])([H])[H])C([H])([H])[H])C([H])([H])c2c([H])c(OC([H])([H])C(=O)N([H])c3sc4c(c3[H])C([H])(N([H])C(=O)N3C([H])([H])C([H])([H])C([H])([H])C([H])(n5nc(-c6c([H])c([H])c(Oc7c([H])c([H])c(F)c([H])c7F)c([H])c6[H])c(C(=O)N([H])[H])c5N([H])[H])C3([H])[H])C([H])([H])C4([H])[H])c([H])c([H])c2C1([H])[H]

$$$$
85:0:0
     RDKit          3D

 98106  0  0  1  0  0  0  0  0999 V2000
  -29.0690  -21.7720   20.3410 C   0  0  0  0  0  0  0  0  0  0  0  0
  -29.6160  -20.5500   20.5860 N   0  0  0  0  0  0  0  0  0  0  0  0
  -28.0450  -21.9100   19.6650 O   0  0  0  0  0  0  0  0  0  0  0  0
  -30.3210  -20.5630   21.3090 H   0  0  0  0  0  0  0  0  0  0  0  0
  -29.3440  -16.6370   18.8460 C   0  0  0  0  0  3  0  0  0  0  0  0
  -29.1150  -17.7660   18.0470 C   0  0  0  0  0  3  0  0  0  0  0  0
  -29.6330  -18.0840   20.7810 C   0  0  0  0  0  3  0  0  0  0  0  0
  -29.6240  -16.7740   20.2230 C   0  0  0  0  0  0  0  0  0  0  0  0
  -29.1680  -19.0610   18.5930 C   0  0  0  0  0  0  0  0  0  0  0  0
  -29.4210  -19.2510   19.9810 C   0  0  0  0  0  0  0  0  0  0  0  0
  -30.6080  -14.5510   20.6310 C   0  0  0  0  0  0  0  0  0  0  0  0
  -30.4210  -12.3350   19.5690 C   0  0  0  0  0  2  0  0  0  0  0  0
  -29.5290  -12.4910   18.3170 C   0  0  0  0  0  2  0  0  0  0  0  0
  -28.0360  -12.3650   18.6780 C   0  0  0  0  0  2  0  0  0  0  0  0
  -27.6430  -13.2110   19.9220 C   0  0  0  0  0  3  0  0  0  0  0  0
  -28.6540  -13.0310   21.0780 C   0  0  0  0  0  2  0  0  0  0  0  0
  -29.9930  -13.3390   20.5570 N   0  0  0  0  0  0  0  0  0  0  0  0
  -31.7550  -14.7420   20.2120 O   0  0  0  0  0  0  0  0  0  0  0  0
  -29.8220  -15.5880   21.0140 N   0  0  0  0  0  0  0  0  0  0  0  0
  -29.0180  -15.3170   21.5630 H   0  0  0  0  0  0  0  0  0  0  0  0
  -25.2230  -13.8140   20.5480 C   0  0  0  0  0  0  0  0  0  0  0  0
  -24.1500  -13.0400   20.8990 C   0  0  0  0  0  0  0  0  0  0  0  0
  -24.6200  -11.6890   20.9050 C   0  0  0  0  0  0  0  0  0  0  0  0
  -26.2770  -12.9330   20.3590 N   0  0  0  0  0  0  0  0  0  0  0  0
  -25.9180  -11.6540   20.6280 N   0  0  0  0  0  0  0  0  0  0  0  0
  -23.9010  -10.4260   21.0980 C   0  0  0  0  0  0  0  0  0  0  0  0
  -24.3300   -9.4740   22.0490 C   0  0  0  0  0  3  0  0  0  0  0  0
  -23.6130   -8.2700   22.2290 C   0  0  0  0  0  3  0  0  0  0  0  0
  -22.4560   -8.0130   21.4560 C   0  0  0  0  0  0  0  0  0  0  0  0
  -22.0490   -8.9530   20.4930 C   0  0  0  0  0  3  0  0  0  0  0  0
  -22.7640  -10.1470   20.3140 C   0  0  0  0  0  3  0  0  0  0  0  0
  -21.7100   -6.8630   21.5410 O   0  0  0  0  0  0  0  0  0  0  0  0
  -21.6570   -6.1240   22.6950 C   0  0  0  0  0  0  0  0  0  0  0  0
  -21.2170   -6.6790   23.9160 C   0  0  0  0  0  3  0  0  0  0  0  0
  -21.1150   -5.8660   25.0610 C   0  0  0  0  0  3  0  0  0  0  0  0
  -21.4370   -4.4980   24.9870 C   0  0  0  0  0  0  0  0  0  0  0  0
  -21.8700   -3.9430   23.7690 C   0  0  0  0  0  3  0  0  0  0  0  0
  -21.9770   -4.7530   22.6250 C   0  0  0  0  0  0  0  0  0  0  0  0
  -22.3740   -4.2090   21.4500 F   0  0  0  0  0  0  0  0  0  0  0  0
  -21.3320   -3.7140   26.0860 F   0  0  0  0  0  0  0  0  0  0  0  0
  -22.7410  -13.5100   21.1190 C   0  0  0  0  0  0  0  0  0  0  0  0
  -21.9940  -12.8170   21.9710 N   0  0  0  0  0  0  0  0  0  0  0  0
  -22.3080  -14.5230   20.5720 O   0  0  0  0  0  0  0  0  0  0  0  0
  -22.3540  -11.9940   22.4300 H   0  0  0  0  0  0  0  0  0  0  0  0
  -21.0460  -13.1130   22.1600 H   0  0  0  0  0  0  0  0  0  0  0  0
  -25.3940  -15.1800   20.3520 N   0  0  0  0  0  0  0  0  0  0  0  0
  -24.6340  -15.8470   20.4310 H   0  0  0  0  0  0  0  0  0  0  0  0
  -26.2610  -15.5990   20.0390 H   0  0  0  0  0  0  0  0  0  0  0  0
  -28.9860  -20.1220   17.7120 N   0  0  0  0  0  0  0  0  0  0  0  0
  -28.3870  -19.9190   16.9190 H   0  0  0  0  0  0  0  0  0  0  0  0
  -28.6730  -20.9680   18.1910 H   0  0  0  0  0  0  0  0  0  0  0  0
  -29.1520  -23.1740   22.4540 C   0  0  0  0  0  1  0  0  0  0  0  0
  -31.2680  -22.8080   21.1400 C   0  0  0  0  0  1  0  0  0  0  0  0
  -29.7270  -23.0230   21.0220 C   0  0  1  0  0  0  0  0  0  0  0  0
  -29.4690  -24.3490   20.1930 C   0  0  0  0  0  0  0  0  0  0  0  0
  -30.2990  -24.7270   19.3540 O   0  0  0  0  0  0  0  0  0  0  0  0
  -28.1670  -25.1890   20.3970 C   0  0  0  0  0  2  0  0  0  0  0  0
  -28.3590  -26.6140   20.1380 O   0  0  0  0  0  0  0  0  0  0  0  0
  -24.6100  -31.8940   23.2420 C   0  0  0  0  0  0  0  0  0  0  0  0
  -27.2120  -27.4000   20.1350 C   0  0  0  0  0  0  0  0  0  0  0  0
  -23.3940  -30.5030   21.6050 C   0  0  0  0  0  3  0  0  0  0  0  0
  -24.8350  -28.9640   20.1640 C   0  0  0  0  0  0  0  0  0  0  0  0
  -25.9300  -30.8310   21.4070 C   0  0  0  0  0  2  0  0  0  0  0  0
  -26.0040  -29.4620   20.7540 C   0  0  0  0  0  0  0  0  0  0  0  0
  -27.1950  -28.6900   20.7340 C   0  0  0  0  0  3  0  0  0  0  0  0
  -26.0240  -26.9390   19.5230 C   0  0  0  0  0  3  0  0  0  0  0  0
  -24.8430  -27.7040   19.5450 C   0  0  0  0  0  3  0  0  0  0  0  0
  -23.5980  -29.8330   20.2210 C   0  0  0  0  0  2  0  0  0  0  0  0
  -24.6640  -31.0930   22.1410 N   0  0  0  0  0  0  0  0  0  0  0  0
  -23.5320  -32.1700   23.7850 O   0  0  0  0  0  0  0  0  0  0  0  0
  -22.7410  -29.4810   22.5630 C   0  0  0  0  0  0  0  0  0  0  0  0
  -21.4160  -29.2920   22.4300 N   0  0  0  0  0  0  0  0  0  0  0  0
  -23.4240  -28.8590   23.3800 O   0  0  0  0  0  0  0  0  0  0  0  0
  -20.9260  -29.8460   21.7420 H   0  0  0  0  0  0  0  0  0  0  0  0
  -18.0470  -28.0730   22.9150 C   0  0  0  0  0  0  0  0  0  0  0  0
  -20.6020  -28.3520   23.2000 C   0  0  0  0  0  3  0  0  0  0  0  0
  -20.7210  -26.9190   22.6310 C   0  0  0  0  0  2  0  0  0  0  0  0
  -19.6260  -26.5840   21.6120 C   0  0  0  0  0  2  0  0  0  0  0  0
  -18.2390  -26.7220   22.2450 C   0  0  0  0  0  2  0  0  0  0  0  0
  -19.1590  -28.8440   23.3490 C   0  0  0  0  0  0  0  0  0  0  0  0
  -18.9280  -30.1080   23.9330 C   0  0  0  0  0  3  0  0  0  0  0  0
  -17.6200  -30.6010   24.0900 C   0  0  0  0  0  3  0  0  0  0  0  0
  -16.5230  -29.8280   23.6740 C   0  0  0  0  0  3  0  0  0  0  0  0
  -16.7380  -28.5660   23.0910 C   0  0  0  0  0  3  0  0  0  0  0  0
  -25.9000  -32.5190   23.8580 C   0  0  0  0  0  3  0  0  0  0  0  0
  -25.5990  -33.9190   24.1900 N   0  0  0  0  0  0  0  0  0  0  0  0
  -25.9340  -34.9690   23.4290 C   0  0  0  0  0  0  0  0  0  0  0  0
  -26.6040  -34.8630   22.3980 O   0  0  0  0  0  0  0  0  0  0  0  0
  -25.0050  -34.0790   24.9910 H   0  0  0  0  0  0  0  0  0  0  0  0
  -24.2170  -36.7710   23.0740 C   0  0  0  0  0  1  0  0  0  0  0  0
  -25.4530  -36.3590   23.8880 C   0  0  0  0  0  3  0  0  0  0  0  0
  -27.5910  -37.2300   24.7250 C   0  0  0  0  0  1  0  0  0  0  0  0
  -26.4920  -37.4080   23.7780 N   0  0  0  0  0  0  0  0  0  0  0  0
  -26.0890  -38.3280   23.9300 H   0  0  0  0  0  0  0  0  0  0  0  0
  -26.4190  -31.7460   25.1320 C   0  0  1  0  0  0  0  0  0  0  0  0
  -25.3270  -31.5130   26.2020 C   0  0  0  0  0  1  0  0  0  0  0  0
  -26.9990  -30.3660   24.7400 C   0  0  0  0  0  1  0  0  0  0  0  0
  -27.5770  -32.5330   25.7890 C   0  0  0  0  0  1  0  0  0  0  0  0
  1  2  1  0
  1 54  1  0
  2  4  1  0
  3  1  2  0
  5  8  1  0
  6  9  1  0
  6  5  2  0
  8  7  2  0
  8 19  1  0
  9 10  2  0
 10  2  1  0
 10  7  1  0
 11 19  1  0
 12 17  1  0
 13 14  1  0
 13 12  1  0
 15 14  1  0
 15 24  1  0
 15 16  1  0
 17 11  1  0
 17 16  1  0
 18 11  2  0
 19 20  1  0
 21 22  2  0
 22 23  1  0
 22 41  1  0
 23 26  1  0
 24 21  1  0
 24 25  1  0
 25 23  2  0
 26 27  1  0
 27 28  2  0
 29 32  1  0
 29 28  1  0
 30 29  2  0
 31 30  1  0
 31 26  2  0
 32 33  1  0
 33 34  1  0
 34 35  2  0
 36 35  1  0
 36 40  1  0
 37 36  2  0
 38 33  2  0
 38 37  1  0
 39 38  1  0
 41 42  1  0
 42 45  1  0
 42 44  1  0
 43 41  2  0
 46 47  1  0
 46 21  1  0
 48 46  1  0
 49 51  1  0
 49  9  1  0
 50 49  1  0
 54 53  1  1
 54 52  1  0
 55 57  1  0
 55 54  1  0
 56 55  2  0
 58 57  1  0
 59 70  2  0
 60 58  1  0
 60 65  1  0
 61 69  1  0
 61 71  1  0
 62 68  1  0
 62 64  1  0
 63 69  1  0
 64 63  1  0
 65 64  2  0
 66 67  1  0
 66 60  2  0
 67 62  2  0
 68 61  1  0
 69 59  1  0
 71 73  2  0
 72 71  1  0
 74 72  1  0
 75 84  2  0
 75 80  1  0
 76 72  1  0
 76 80  1  0
 77 76  1  0
 78 79  1  0
 78 77  1  0
 79 75  1  0
 80 81  2  0
 81 82  1  0
 83 82  2  0
 84 83  1  0
 85 59  1  0
 85 86  1  0
 85 95  1  0
 86 89  1  0
 87 91  1  0
 87 86  1  0
 88 87  2  0
 91 90  1  0
 93 91  1  0
 93 94  1  0
 93 92  1  0
 95 98  1  1
 95 96  1  0
 97 95  1  0
M  ISO  4  11 100  19 100  57 101  58 101
M  END
>  <TORSDO>  (86) 
F 21

>  <SCORE>  (86) 
-13.673

>  <name>  (86) 
85

>  <ligand_id>  (86) 
85

>  <original_smiles>  (86) 
[H]c1c([H])c([H])c2c(c1[H])C([H])([H])C([H])([H])C([H])([H])C2([H])N([H])C(=O)C1([H])N(C(=O)C([H])(N([H])C(=O)C([H])(N([H])C([H])([H])[H])C([H])([H])[H])C(C([H])([H])[H])(C([H])([H])[H])C([H])([H])[H])C([H])([H])c2c([H])c(OC([H])([H])C(=O)C(C(=O)N([H])c3c([H])c(N([H])C(=O)N4C([H])([H])C([H])([H])C([H])([H])C([H])(n5nc(-c6c([H])c([H])c(Oc7c([H])c([H])c(F)c([H])c7F)c([H])c6[H])c(C(=O)N([H])[H])c5N([H])[H])C4([H])[H])c([H])c([H])c3N([H])[H])(C([H])([H])[H])C([H])([H])[H])c([H])c([H])c2C1([H])[H]

>  <smiles>  (86) 
[H]c1c([H])c([H])c2c(c1[H])C([H])([H])C([H])([H])C([H])([H])C2([H])N([H])C(=O)C1([H])N(C(=O)C([H])(N([H])C(=O)C([H])(N([H])C([H])([H])[H])C([H])([H])[H])C(C([H])([H])[H])(C([H])([H])[H])C([H])([H])[H])C([H])([H])c2c([H])c(OC([H])([H])C(=O)C(C(=O)N([H])c3c([H])c(N([H])C(=O)N4C([H])([H])C([H])([H])C([H])([H])C([H])(n5nc(-c6c([H])c([H])c(Oc7c([H])c([H])c(F)c([H])c7F)c([H])c6[H])c(C(=O)N([H])[H])c5N([H])[H])C4([H])[H])c([H])c([H])c3N([H])[H])(C([H])([H])[H])C([H])([H])[H])c([H])c([H])c2C1([H])[H]

$$$$
86:0:0
     RDKit          3D

 92101  0  0  1  0  0  0  0  0999 V2000
  -30.5750  -22.0260   19.7240 C   0  0  0  0  0  2  0  0  0  0  0  0
  -30.2430  -23.5200   19.9650 C   0  0  0  0  0  2  0  0  0  0  0  0
  -29.6030  -21.2380   20.6230 C   0  0  0  0  0  3  0  0  0  0  0  0
  -28.7120  -23.5680   20.1050 C   0  0  0  0  0  3  0  0  0  0  0  0
  -28.3940  -22.1670   20.6740 N   0  0  0  0  0  4  0  0  0  0  0  0
  -28.1180  -22.2270   21.6410 H   0  0  0  0  0  0  0  0  0  0  0  0
  -27.6280  -21.7490   20.1710 H   0  0  0  0  0  0  0  0  0  0  0  0
  -29.5940  -18.4850   21.1350 C   0  0  0  0  0  3  0  0  0  0  0  0
  -29.8030  -17.8480   19.0150 C   0  0  0  0  0  3  0  0  0  0  0  0
  -29.7900  -17.3170   20.2810 C   0  0  0  0  0  0  0  0  0  0  0  0
  -29.5640  -19.6560   20.3610 C   0  0  0  0  0  0  0  0  0  0  0  0
  -29.6560  -19.2300   19.0520 O   0  0  0  0  0  0  0  0  0  0  0  0
  -30.5540  -14.7820   20.2170 C   0  0  0  0  0  0  0  0  0  0  0  0
  -30.3700  -12.5000   19.2100 C   0  0  0  0  0  2  0  0  0  0  0  0
  -29.4040  -12.5820   18.0050 C   0  0  0  0  0  2  0  0  0  0  0  0
  -27.9420  -12.4050   18.4600 C   0  0  0  0  0  2  0  0  0  0  0  0
  -27.5920  -13.2780   19.6960 C   0  0  0  0  0  3  0  0  0  0  0  0
  -28.6710  -13.1700   20.7960 C   0  0  0  0  0  2  0  0  0  0  0  0
  -29.9610  -13.5350   20.1920 N   0  0  0  0  0  0  0  0  0  0  0  0
  -31.6970  -14.9180   19.7710 O   0  0  0  0  0  0  0  0  0  0  0  0
  -29.8030  -15.8690   20.6600 N   0  0  0  0  0  0  0  0  0  0  0  0
  -29.0250  -15.5890   21.2380 H   0  0  0  0  0  0  0  0  0  0  0  0
  -25.2180  -13.8630   20.4740 C   0  0  0  0  0  0  0  0  0  0  0  0
  -24.1520  -13.0860   20.8410 C   0  0  0  0  0  0  0  0  0  0  0  0
  -24.6160  -11.7370   20.7970 C   0  0  0  0  0  0  0  0  0  0  0  0
  -26.2550  -12.9860   20.2090 N   0  0  0  0  0  0  0  0  0  0  0  0
  -25.9020  -11.7010   20.4670 N   0  0  0  0  0  0  0  0  0  0  0  0
  -23.8940  -10.4740   20.9980 C   0  0  0  0  0  0  0  0  0  0  0  0
  -24.3420   -9.5130   21.9300 C   0  0  0  0  0  3  0  0  0  0  0  0
  -23.6230   -8.3140   22.1220 C   0  0  0  0  0  3  0  0  0  0  0  0
  -22.4390   -8.0700   21.3840 C   0  0  0  0  0  0  0  0  0  0  0  0
  -22.0100   -9.0210   20.4410 C   0  0  0  0  0  3  0  0  0  0  0  0
  -22.7310  -10.2130   20.2470 C   0  0  0  0  0  3  0  0  0  0  0  0
  -21.6900   -6.9220   21.4830 O   0  0  0  0  0  0  0  0  0  0  0  0
  -21.6570   -6.1850   22.6390 C   0  0  0  0  0  0  0  0  0  0  0  0
  -21.2460   -6.7410   23.8700 C   0  0  0  0  0  3  0  0  0  0  0  0
  -21.1570   -5.9270   25.0160 C   0  0  0  0  0  3  0  0  0  0  0  0
  -21.4700   -4.5570   24.9340 C   0  0  0  0  0  0  0  0  0  0  0  0
  -21.8760   -3.9990   23.7080 C   0  0  0  0  0  3  0  0  0  0  0  0
  -21.9650   -4.8110   22.5630 C   0  0  0  0  0  0  0  0  0  0  0  0
  -22.3340   -4.2630   21.3800 F   0  0  0  0  0  0  0  0  0  0  0  0
  -21.3790   -3.7720   26.0320 F   0  0  0  0  0  0  0  0  0  0  0  0
  -22.7590  -13.5650   21.1330 C   0  0  0  0  0  0  0  0  0  0  0  0
  -22.0420  -12.8670   22.0050 N   0  0  0  0  0  0  0  0  0  0  0  0
  -22.3150  -14.5900   20.6190 O   0  0  0  0  0  0  0  0  0  0  0  0
  -22.4120  -12.0390   22.4470 H   0  0  0  0  0  0  0  0  0  0  0  0
  -21.1060  -13.1690   22.2430 H   0  0  0  0  0  0  0  0  0  0  0  0
  -25.3860  -15.2360   20.3390 N   0  0  0  0  0  0  0  0  0  0  0  0
  -24.6610  -15.8730   20.6510 H   0  0  0  0  0  0  0  0  0  0  0  0
  -26.2950  -15.6770   20.2650 H   0  0  0  0  0  0  0  0  0  0  0  0
  -28.0890  -24.9240   20.7910 C   0  0  0  0  0  2  0  0  0  0  0  0
  -28.3180  -26.3370   20.2790 O   0  0  0  0  0  0  0  0  0  0  0  0
  -24.6210  -31.8730   23.2390 C   0  0  0  0  0  0  0  0  0  0  0  0
  -27.2330  -27.2490   20.2350 C   0  0  0  0  0  0  0  0  0  0  0  0
  -23.4310  -30.4710   21.5930 C   0  0  0  0  0  3  0  0  0  0  0  0
  -24.8910  -28.9200   20.1710 C   0  0  0  0  0  0  0  0  0  0  0  0
  -25.9740  -30.7800   21.4270 C   0  0  0  0  0  2  0  0  0  0  0  0
  -26.0580  -29.3950   20.7780 C   0  0  0  0  0  0  0  0  0  0  0  0
  -27.2370  -28.5780   20.7880 C   0  0  0  0  0  3  0  0  0  0  0  0
  -26.0470  -26.8470   19.5860 C   0  0  0  0  0  3  0  0  0  0  0  0
  -24.8910  -27.6560   19.5550 C   0  0  0  0  0  3  0  0  0  0  0  0
  -23.6540  -29.8010   20.2110 C   0  0  0  0  0  2  0  0  0  0  0  0
  -24.6940  -31.0600   22.1420 N   0  0  0  0  0  0  0  0  0  0  0  0
  -23.5370  -32.1480   23.7740 O   0  0  0  0  0  0  0  0  0  0  0  0
  -22.7600  -29.4530   22.5500 C   0  0  0  0  0  0  0  0  0  0  0  0
  -21.4330  -29.2820   22.4310 N   0  0  0  0  0  0  0  0  0  0  0  0
  -23.4370  -28.8190   23.3640 O   0  0  0  0  0  0  0  0  0  0  0  0
  -20.9390  -29.8450   21.7520 H   0  0  0  0  0  0  0  0  0  0  0  0
  -18.0550  -28.0970   22.9480 C   0  0  0  0  0  0  0  0  0  0  0  0
  -20.6160  -28.3430   23.2020 C   0  0  0  0  0  3  0  0  0  0  0  0
  -20.7060  -26.9130   22.6220 C   0  0  0  0  0  2  0  0  0  0  0  0
  -19.5970  -26.6040   21.6100 C   0  0  0  0  0  2  0  0  0  0  0  0
  -18.2200  -26.7520   22.2630 C   0  0  0  0  0  2  0  0  0  0  0  0
  -19.1800  -28.8520   23.3750 C   0  0  0  0  0  0  0  0  0  0  0  0
  -18.9680  -30.1130   23.9750 C   0  0  0  0  0  3  0  0  0  0  0  0
  -17.6670  -30.6230   24.1420 C   0  0  0  0  0  3  0  0  0  0  0  0
  -16.5560  -29.8660   23.7320 C   0  0  0  0  0  3  0  0  0  0  0  0
  -16.7500  -28.6030   23.1430 C   0  0  0  0  0  3  0  0  0  0  0  0
  -25.9010  -32.5090   23.8690 C   0  0  0  0  0  3  0  0  0  0  0  0
  -25.5920  -33.9090   24.1950 N   0  0  0  0  0  0  0  0  0  0  0  0
  -25.9260  -34.9590   23.4340 C   0  0  0  0  0  0  0  0  0  0  0  0
  -26.5960  -34.8510   22.4020 O   0  0  0  0  0  0  0  0  0  0  0  0
  -24.9950  -34.0660   24.9940 H   0  0  0  0  0  0  0  0  0  0  0  0
  -24.1990  -36.7480   23.0640 C   0  0  0  0  0  1  0  0  0  0  0  0
  -25.4380  -36.3510   23.8840 C   0  0  0  0  0  3  0  0  0  0  0  0
  -27.5760  -37.2320   24.7100 C   0  0  0  0  0  1  0  0  0  0  0  0
  -26.4700  -37.4060   23.7710 N   0  0  0  0  0  0  0  0  0  0  0  0
  -26.0680  -38.3270   23.9270 H   0  0  0  0  0  0  0  0  0  0  0  0
  -26.4070  -31.7420   25.1490 C   0  0  1  0  0  0  0  0  0  0  0  0
  -25.3090  -31.5160   26.2140 C   0  0  0  0  0  1  0  0  0  0  0  0
  -26.9810  -30.3580   24.7680 C   0  0  0  0  0  1  0  0  0  0  0  0
  -27.5610  -32.5300   25.8090 C   0  0  0  0  0  1  0  0  0  0  0  0
  1  2  1  0
  1  3  1  0
  2  4  1  0
  3 11  1  0
  3  5  1  0
  4  5  1  0
  4 51  1  0
  5  6  1  0
  7  5  1  0
  9 12  1  0
  9 10  2  0
 10 21  1  0
 10  8  1  0
 11  8  2  0
 12 11  1  0
 13 21  1  0
 14 19  1  0
 15 16  1  0
 15 14  1  0
 17 16  1  0
 17 26  1  0
 17 18  1  0
 19 13  1  0
 19 18  1  0
 20 13  2  0
 21 22  1  0
 23 24  2  0
 24 43  1  0
 25 24  1  0
 25 28  1  0
 26 27  1  0
 26 23  1  0
 27 25  2  0
 28 29  1  0
 29 30  2  0
 31 34  1  0
 31 30  1  0
 32 31  2  0
 33 32  1  0
 33 28  2  0
 34 35  1  0
 35 36  1  0
 36 37  2  0
 38 37  1  0
 38 42  1  0
 39 38  2  0
 40 35  2  0
 40 39  1  0
 41 40  1  0
 43 44  1  0
 44 47  1  0
 44 46  1  0
 45 43  2  0
 48 23  1  0
 48 49  1  0
 50 48  1  0
 52 51  1  0
 53 64  2  0
 54 52  1  0
 54 59  1  0
 55 63  1  0
 55 65  1  0
 56 62  1  0
 56 58  1  0
 57 63  1  0
 58 59  2  0
 58 57  1  0
 60 54  2  0
 61 60  1  0
 61 56  2  0
 62 55  1  0
 63 53  1  0
 65 67  2  0
 66 65  1  0
 68 66  1  0
 69 78  2  0
 69 74  1  0
 70 66  1  0
 70 74  1  0
 71 70  1  0
 72 73  1  0
 72 71  1  0
 73 69  1  0
 74 75  2  0
 75 76  1  0
 77 76  2  0
 78 77  1  0
 79 53  1  0
 79 80  1  0
 79 89  1  0
 80 83  1  0
 81 85  1  0
 81 80  1  0
 82 81  2  0
 85 84  1  0
 87 85  1  0
 87 88  1  0
 87 86  1  0
 89 92  1  1
 89 90  1  0
 91 89  1  0
M  ISO  4  13 100  21 100  51 101  52 101
M  END
>  <TORSDO>  (87) 
F 18

>  <SCORE>  (87) 
-14.564

>  <name>  (87) 
86

>  <ligand_id>  (87) 
86

>  <original_smiles>  (87) 
[H]c1oc(C2([H])C([H])([H])C([H])([H])C([H])(C([H])([H])Oc3c([H])c([H])c4c(c3[H])C([H])([H])N(C(=O)C([H])(N([H])C(=O)C([H])(N([H])C([H])([H])[H])C([H])([H])[H])C(C([H])([H])[H])(C([H])([H])[H])C([H])([H])[H])C([H])(C(=O)N([H])C3([H])c5c([H])c([H])c([H])c([H])c5C([H])([H])C([H])([H])C3([H])[H])C4([H])[H])[N+]2([H])[H])c([H])c1N([H])C(=O)N1C([H])([H])C([H])([H])C([H])([H])C([H])(n2nc(-c3c([H])c([H])c(Oc4c([H])c([H])c(F)c([H])c4F)c([H])c3[H])c(C(=O)N([H])[H])c2N([H])[H])C1([H])[H]

>  <smiles>  (87) 
[H]c1oc(C2([H])C([H])([H])C([H])([H])C([H])(C([H])([H])Oc3c([H])c([H])c4c(c3[H])C([H])([H])N(C(=O)C([H])(N([H])C(=O)C([H])(N([H])C([H])([H])[H])C([H])([H])[H])C(C([H])([H])[H])(C([H])([H])[H])C([H])([H])[H])C([H])(C(=O)N([H])C3([H])c5c([H])c([H])c([H])c([H])c5C([H])([H])C([H])([H])C3([H])[H])C4([H])[H])[N+]2([H])[H])c([H])c1N([H])C(=O)N1C([H])([H])C([H])([H])C([H])([H])C([H])(n2nc(-c3c([H])c([H])c(Oc4c([H])c([H])c(F)c([H])c4F)c([H])c3[H])c(C(=O)N([H])[H])c2N([H])[H])C1([H])[H]

$$$$
87:0:0
     RDKit          3D

 90 99  0  0  1  0  0  0  0  0999 V2000
  -28.9140  -23.5480   20.1030 C   0  0  0  0  0  0  0  0  0  0  0  0
  -28.4640  -22.2550   20.4160 N   0  0  0  0  0  0  0  0  0  0  0  0
  -30.0080  -23.7270   19.5620 O   0  0  0  0  0  0  0  0  0  0  0  0
  -27.5560  -22.3130   20.8550 H   0  0  0  0  0  0  0  0  0  0  0  0
  -30.7790  -14.9460   19.9150 C   0  0  0  0  0  0  0  0  0  0  0  0
  -30.4870  -12.6480   18.9310 C   0  0  0  0  0  2  0  0  0  0  0  0
  -29.4840  -12.6420   17.7590 C   0  0  0  0  0  2  0  0  0  0  0  0
  -28.0540  -12.4290   18.2850 C   0  0  0  0  0  2  0  0  0  0  0  0
  -27.7260  -13.3360   19.5020 C   0  0  0  0  0  3  0  0  0  0  0  0
  -28.8560  -13.3460   20.5550 C   0  0  0  0  0  2  0  0  0  0  0  0
  -30.0840  -13.7440   19.8580 N   0  0  0  0  0  0  0  0  0  0  0  0
  -31.9620  -14.9140   19.5610 O   0  0  0  0  0  0  0  0  0  0  0  0
  -30.0050  -20.2260   19.7300 C   0  0  0  0  0  3  0  0  0  0  0  0
  -30.0080  -18.7480   19.8740 C   0  0  0  0  0  0  0  0  0  0  0  0
  -28.9490  -18.2730   20.5340 C   0  0  0  0  0  0  0  0  0  0  0  0
  -28.9020  -20.9000   20.3000 C   0  0  0  0  0  0  0  0  0  0  0  0
  -30.8510  -17.5050   19.5070 C   0  0  0  0  0  3  0  0  0  0  0  0
  -28.9370  -16.7440   20.6830 C   0  0  0  0  0  3  0  0  0  0  0  0
  -30.1640  -16.2250   19.9860 N   0  0  0  0  0  0  0  0  0  0  0  0
  -27.8830  -19.6010   21.0180 S   0  0  0  0  0  0  0  0  0  0  0  0
  -25.4030  -13.8820   20.4260 C   0  0  0  0  0  0  0  0  0  0  0  0
  -24.3680  -13.0910   20.8410 C   0  0  0  0  0  0  0  0  0  0  0  0
  -24.8300  -11.7430   20.7290 C   0  0  0  0  0  0  0  0  0  0  0  0
  -26.4280  -13.0160   20.0840 N   0  0  0  0  0  0  0  0  0  0  0  0
  -26.0980  -11.7230   20.3320 N   0  0  0  0  0  0  0  0  0  0  0  0
  -24.1170  -10.4740   20.9190 C   0  0  0  0  0  0  0  0  0  0  0  0
  -24.5500   -9.5180   21.8650 C   0  0  0  0  0  3  0  0  0  0  0  0
  -23.8350   -8.3140   22.0450 C   0  0  0  0  0  3  0  0  0  0  0  0
  -22.6730   -8.0580   21.2780 C   0  0  0  0  0  0  0  0  0  0  0  0
  -22.2610   -9.0020   20.3210 C   0  0  0  0  0  3  0  0  0  0  0  0
  -22.9770  -10.1970   20.1400 C   0  0  0  0  0  3  0  0  0  0  0  0
  -21.9300   -6.9060   21.3650 O   0  0  0  0  0  0  0  0  0  0  0  0
  -21.7830   -6.2330   22.5520 C   0  0  0  0  0  0  0  0  0  0  0  0
  -21.2230   -6.8470   23.6930 C   0  0  0  0  0  3  0  0  0  0  0  0
  -21.0270   -6.0980   24.8700 C   0  0  0  0  0  3  0  0  0  0  0  0
  -21.3810   -4.7370   24.9070 C   0  0  0  0  0  0  0  0  0  0  0  0
  -21.9340   -4.1220   23.7700 C   0  0  0  0  0  3  0  0  0  0  0  0
  -22.1320   -4.8670   22.5950 C   0  0  0  0  0  0  0  0  0  0  0  0
  -22.6460   -4.2650   21.4960 F   0  0  0  0  0  0  0  0  0  0  0  0
  -21.1860   -4.0150   26.0360 F   0  0  0  0  0  0  0  0  0  0  0  0
  -22.9930  -13.5550   21.2210 C   0  0  0  0  0  0  0  0  0  0  0  0
  -22.3290  -12.8340   22.1180 N   0  0  0  0  0  0  0  0  0  0  0  0
  -22.5190  -14.5920   20.7600 O   0  0  0  0  0  0  0  0  0  0  0  0
  -22.7270  -11.9950   22.5130 H   0  0  0  0  0  0  0  0  0  0  0  0
  -21.4080  -13.1270   22.4150 H   0  0  0  0  0  0  0  0  0  0  0  0
  -25.5450  -15.2580   20.2820 N   0  0  0  0  0  0  0  0  0  0  0  0
  -24.7760  -15.8940   20.4610 H   0  0  0  0  0  0  0  0  0  0  0  0
  -26.3420  -15.7100   19.8560 H   0  0  0  0  0  0  0  0  0  0  0  0
  -27.9750  -24.8400   20.4560 C   0  0  0  0  0  2  0  0  0  0  0  0
  -28.3340  -26.2920   20.0960 O   0  0  0  0  0  0  0  0  0  0  0  0
  -24.6190  -31.8450   23.1340 C   0  0  0  0  0  0  0  0  0  0  0  0
  -27.2720  -27.2510   20.0530 C   0  0  0  0  0  0  0  0  0  0  0  0
  -23.4430  -30.4530   21.4750 C   0  0  0  0  0  3  0  0  0  0  0  0
  -24.9180  -28.9290   20.0330 C   0  0  0  0  0  0  0  0  0  0  0  0
  -25.9890  -30.7710   21.3170 C   0  0  0  0  0  2  0  0  0  0  0  0
  -26.0870  -29.3920   20.6520 C   0  0  0  0  0  0  0  0  0  0  0  0
  -27.2680  -28.5680   20.6490 C   0  0  0  0  0  3  0  0  0  0  0  0
  -26.0860  -26.8900   19.3770 C   0  0  0  0  0  3  0  0  0  0  0  0
  -24.9270  -27.6890   19.3810 C   0  0  0  0  0  3  0  0  0  0  0  0
  -23.6750  -29.7990   20.0870 C   0  0  0  0  0  2  0  0  0  0  0  0
  -24.7030  -31.0420   22.0300 N   0  0  0  0  0  0  0  0  0  0  0  0
  -23.5280  -32.1060   23.6630 O   0  0  0  0  0  0  0  0  0  0  0  0
  -22.7810  -29.4190   22.4200 C   0  0  0  0  0  0  0  0  0  0  0  0
  -21.4530  -29.2430   22.3000 N   0  0  0  0  0  0  0  0  0  0  0  0
  -23.4640  -28.7800   23.2250 O   0  0  0  0  0  0  0  0  0  0  0  0
  -20.9600  -29.8110   21.6250 H   0  0  0  0  0  0  0  0  0  0  0  0
  -18.0740  -28.0610   22.8450 C   0  0  0  0  0  0  0  0  0  0  0  0
  -20.6410  -28.2890   23.0600 C   0  0  0  0  0  3  0  0  0  0  0  0
  -20.7150  -26.8760   22.4370 C   0  0  0  0  0  2  0  0  0  0  0  0
  -19.5850  -26.5960   21.4400 C   0  0  0  0  0  2  0  0  0  0  0  0
  -18.2210  -26.7330   22.1210 C   0  0  0  0  0  2  0  0  0  0  0  0
  -19.2100  -28.7990   23.2710 C   0  0  0  0  0  0  0  0  0  0  0  0
  -19.0170  -30.0440   23.9110 C   0  0  0  0  0  3  0  0  0  0  0  0
  -17.7220  -30.5500   24.1260 C   0  0  0  0  0  3  0  0  0  0  0  0
  -16.6000  -29.8080   23.7140 C   0  0  0  0  0  3  0  0  0  0  0  0
  -16.7780  -28.5660   23.0800 C   0  0  0  0  0  3  0  0  0  0  0  0
  -25.8870  -32.4900   23.7690 C   0  0  0  0  0  3  0  0  0  0  0  0
  -25.5550  -33.8790   24.1200 N   0  0  0  0  0  0  0  0  0  0  0  0
  -25.8530  -34.9480   23.3700 C   0  0  0  0  0  0  0  0  0  0  0  0
  -26.5050  -34.8710   22.3260 O   0  0  0  0  0  0  0  0  0  0  0  0
  -24.9710  -34.0120   24.9330 H   0  0  0  0  0  0  0  0  0  0  0  0
  -24.0840  -36.7140   23.0710 C   0  0  0  0  0  1  0  0  0  0  0  0
  -25.3480  -36.3230   23.8540 C   0  0  0  0  0  3  0  0  0  0  0  0
  -27.4770  -37.2430   24.6610 C   0  0  0  0  0  1  0  0  0  0  0  0
  -26.3580  -37.3970   23.7350 N   0  0  0  0  0  0  0  0  0  0  0  0
  -25.9360  -38.3080   23.8930 H   0  0  0  0  0  0  0  0  0  0  0  0
  -26.4080  -31.7110   25.0400 C   0  0  1  0  0  0  0  0  0  0  0  0
  -25.3130  -31.4450   26.0990 C   0  0  0  0  0  1  0  0  0  0  0  0
  -27.0140  -30.3460   24.6390 C   0  0  0  0  0  1  0  0  0  0  0  0
  -27.5430  -32.5150   25.7180 C   0  0  0  0  0  1  0  0  0  0  0  0
  1  2  1  0
  1 49  1  0
  2  4  1  0
  3  1  2  0
  5 19  1  0
  6 11  1  0
  7  8  1  0
  7  6  1  0
  9  8  1  0
  9 24  1  0
  9 10  1  0
 11  5  1  0
 11 10  1  0
 12  5  2  0
 13 14  1  0
 13 16  2  0
 14 15  1  0
 15 18  2  0
 15 20  1  0
 16  2  1  0
 16 20  1  0
 17 14  2  0
 17 19  1  0
 19 18  1  0
 21 22  2  0
 22 41  1  0
 23 22  1  0
 23 26  1  0
 24 25  1  0
 24 21  1  0
 25 23  2  0
 26 27  1  0
 27 28  2  0
 29 32  1  0
 29 28  1  0
 30 29  2  0
 31 30  1  0
 31 26  2  0
 32 33  1  0
 33 38  2  0
 33 34  1  0
 34 35  2  0
 35 36  1  0
 36 40  1  0
 37 36  2  0
 38 37  1  0
 39 38  1  0
 41 42  1  0
 42 45  1  0
 42 44  1  0
 43 41  2  0
 46 21  1  0
 46 47  1  0
 48 46  1  0
 50 49  1  0
 51 62  2  0
 52 50  1  0
 52 57  1  0
 53 61  1  0
 53 63  1  0
 54 60  1  0
 54 56  1  0
 55 61  1  0
 56 55  1  0
 57 56  2  0
 58 59  1  0
 58 52  2  0
 59 54  2  0
 60 53  1  0
 61 51  1  0
 63 65  2  0
 64 63  1  0
 66 64  1  0
 67 76  2  0
 67 72  1  0
 68 64  1  0
 68 72  1  0
 69 68  1  0
 70 71  1  0
 70 69  1  0
 71 67  1  0
 72 73  2  0
 73 74  1  0
 75 74  2  0
 76 75  1  0
 77 51  1  0
 77 78  1  0
 77 87  1  0
 78 81  1  0
 79 83  1  0
 79 78  1  0
 80 79  2  0
 83 82  1  0
 85 83  1  0
 85 86  1  0
 85 84  1  0
 87 90  1  1
 87 88  1  0
 89 87  1  0
M  ISO  4   5 100  19 100  49 101  50 101
M  END
>  <TORSDO>  (88) 
F 17

>  <SCORE>  (88) 
-13.764

>  <name>  (88) 
87

>  <ligand_id>  (88) 
87

>  <original_smiles>  (88) 
[H]c1c([H])c([H])c2c(c1[H])C([H])([H])C([H])([H])C([H])([H])C2([H])N([H])C(=O)C1([H])N(C(=O)C([H])(N([H])C(=O)C([H])(N([H])C([H])([H])[H])C([H])([H])[H])C(C([H])([H])[H])(C([H])([H])[H])C([H])([H])[H])C([H])([H])c2c([H])c(OC([H])([H])C(=O)N([H])c3sc4c(c3[H])C([H])([H])N(C(=O)N3C([H])([H])C([H])([H])C([H])([H])C([H])(n5nc(-c6c([H])c([H])c(Oc7c([H])c([H])c(F)c([H])c7F)c([H])c6[H])c(C(=O)N([H])[H])c5N([H])[H])C3([H])[H])C4([H])[H])c([H])c([H])c2C1([H])[H]

>  <smiles>  (88) 
[H]c1c([H])c([H])c2c(c1[H])C([H])([H])C([H])([H])C([H])([H])C2([H])N([H])C(=O)C1([H])N(C(=O)C([H])(N([H])C(=O)C([H])(N([H])C([H])([H])[H])C([H])([H])[H])C(C([H])([H])[H])(C([H])([H])[H])C([H])([H])[H])C([H])([H])c2c([H])c(OC([H])([H])C(=O)N([H])c3sc4c(c3[H])C([H])([H])N(C(=O)N3C([H])([H])C([H])([H])C([H])([H])C([H])(n5nc(-c6c([H])c([H])c(Oc7c([H])c([H])c(F)c([H])c7F)c([H])c6[H])c(C(=O)N([H])[H])c5N([H])[H])C3([H])[H])C4([H])[H])c([H])c([H])c2C1([H])[H]

$$$$
88:0:0
     RDKit          3D

 95103  0  0  1  0  0  0  0  0999 V2000
  -29.2400  -19.8110   20.0040 C   0  0  0  0  0  3  0  0  0  0  0  0
  -30.0810  -21.1180   21.8440 C   0  0  0  0  0  3  0  0  0  0  0  0
  -29.3540  -21.1120   20.6330 C   0  0  0  0  0  0  0  0  0  0  0  0
  -29.8150  -18.6050   20.5660 C   0  0  0  0  0  3  0  0  0  0  0  0
  -30.6360  -19.9230   22.3800 C   0  0  0  0  0  0  0  0  0  0  0  0
  -30.4720  -18.7410   21.7350 N   0  0  0  0  0  0  0  0  0  0  0  0
  -30.9020  -17.8970   22.1250 H   0  0  0  0  0  0  0  0  0  0  0  0
  -32.0320  -21.1090   24.0270 C   0  0  0  0  0  1  0  0  0  0  0  0
  -31.3820  -19.8910   23.5670 N   0  0  0  0  0  0  0  0  0  0  0  0
  -31.7970  -19.0200   23.8640 H   0  0  0  0  0  0  0  0  0  0  0  0
  -28.7630  -22.3260   20.0980 N   0  0  0  0  0  0  0  0  0  0  0  0
  -28.1840  -22.1940   19.2740 H   0  0  0  0  0  0  0  0  0  0  0  0
  -29.1390  -23.7740   20.3740 C   0  0  0  0  0  2  0  0  0  0  0  0
  -27.0640  -24.6020   21.5560 C   0  0  0  0  0  1  0  0  0  0  0  0
  -27.9560  -24.8780   20.3280 C   0  0  0  0  0  3  0  0  0  0  0  0
  -28.2480  -26.3610   20.2690 O   0  0  0  0  0  0  0  0  0  0  0  0
  -24.5860  -31.8820   23.2380 C   0  0  0  0  0  0  0  0  0  0  0  0
  -27.1700  -27.2800   20.1770 C   0  0  0  0  0  0  0  0  0  0  0  0
  -23.3800  -30.4930   21.5940 C   0  0  0  0  0  3  0  0  0  0  0  0
  -24.8250  -28.9440   20.1590 C   0  0  0  0  0  0  0  0  0  0  0  0
  -25.9250  -30.7880   21.4200 C   0  0  0  0  0  2  0  0  0  0  0  0
  -26.0000  -29.4100   20.7650 C   0  0  0  0  0  0  0  0  0  0  0  0
  -27.1750  -28.5900   20.7640 C   0  0  0  0  0  3  0  0  0  0  0  0
  -25.9780  -26.8980   19.5180 C   0  0  0  0  0  3  0  0  0  0  0  0
  -24.8210  -27.6960   19.5230 C   0  0  0  0  0  3  0  0  0  0  0  0
  -23.5940  -29.8250   20.2110 C   0  0  0  0  0  2  0  0  0  0  0  0
  -24.6500  -31.0730   22.1390 N   0  0  0  0  0  0  0  0  0  0  0  0
  -23.5030  -32.1620   23.7700 O   0  0  0  0  0  0  0  0  0  0  0  0
  -22.7120  -29.4750   22.5500 C   0  0  0  0  0  0  0  0  0  0  0  0
  -21.3830  -29.3060   22.4240 N   0  0  0  0  0  0  0  0  0  0  0  0
  -23.3860  -28.8410   23.3660 O   0  0  0  0  0  0  0  0  0  0  0  0
  -20.8980  -29.8690   21.7400 H   0  0  0  0  0  0  0  0  0  0  0  0
  -17.9980  -28.1310   22.9320 C   0  0  0  0  0  0  0  0  0  0  0  0
  -20.5590  -28.3720   23.1930 C   0  0  0  0  0  3  0  0  0  0  0  0
  -20.6490  -26.9430   22.6110 C   0  0  0  0  0  2  0  0  0  0  0  0
  -19.5420  -26.6320   21.6000 C   0  0  0  0  0  2  0  0  0  0  0  0
  -18.1630  -26.7840   22.2480 C   0  0  0  0  0  2  0  0  0  0  0  0
  -19.1240  -28.8840   23.3610 C   0  0  0  0  0  0  0  0  0  0  0  0
  -18.9150  -30.1460   23.9600 C   0  0  0  0  0  3  0  0  0  0  0  0
  -17.6140  -30.6540   24.1330 C   0  0  0  0  0  3  0  0  0  0  0  0
  -16.5030  -29.8990   23.7180 C   0  0  0  0  0  3  0  0  0  0  0  0
  -16.6960  -28.6400   23.1240 C   0  0  0  0  0  3  0  0  0  0  0  0
  -25.8700  -32.5090   23.8630 C   0  0  0  0  0  3  0  0  0  0  0  0
  -25.5640  -33.9080   24.1940 N   0  0  0  0  0  0  0  0  0  0  0  0
  -25.9000  -34.9610   23.4380 C   0  0  0  0  0  0  0  0  0  0  0  0
  -26.5670  -34.8570   22.4050 O   0  0  0  0  0  0  0  0  0  0  0  0
  -24.9720  -34.0620   24.9970 H   0  0  0  0  0  0  0  0  0  0  0  0
  -24.1780  -36.7640   23.0890 C   0  0  0  0  0  1  0  0  0  0  0  0
  -25.4180  -36.3510   23.8980 C   0  0  0  0  0  3  0  0  0  0  0  0
  -27.5560  -37.2250   24.7310 C   0  0  0  0  0  1  0  0  0  0  0  0
  -26.4550  -37.4000   23.7880 N   0  0  0  0  0  0  0  0  0  0  0  0
  -26.0530  -38.3220   23.9380 H   0  0  0  0  0  0  0  0  0  0  0  0
  -26.3810  -31.7350   25.1390 C   0  0  1  0  0  0  0  0  0  0  0  0
  -25.2840  -31.5020   26.2060 C   0  0  0  0  0  1  0  0  0  0  0  0
  -26.9580  -30.3540   24.7500 C   0  0  0  0  0  1  0  0  0  0  0  0
  -27.5320  -32.5250   25.8040 C   0  0  0  0  0  1  0  0  0  0  0  0
  -29.8790  -17.1900   19.8570 C   0  0  0  0  0  2  0  0  0  0  0  0
  -30.5920  -14.7390   20.3650 C   0  0  0  0  0  0  0  0  0  0  0  0
  -30.3760  -12.4680   19.3650 C   0  0  0  0  0  2  0  0  0  0  0  0
  -29.4440  -12.5700   18.1360 C   0  0  0  0  0  2  0  0  0  0  0  0
  -27.9700  -12.4110   18.5590 C   0  0  0  0  0  2  0  0  0  0  0  0
  -27.6010  -13.2880   19.7840 C   0  0  0  0  0  3  0  0  0  0  0  0
  -28.6570  -13.1760   20.9100 C   0  0  0  0  0  2  0  0  0  0  0  0
  -29.9640  -13.5140   20.3300 N   0  0  0  0  0  0  0  0  0  0  0  0
  -31.7540  -14.8500   19.9690 O   0  0  0  0  0  0  0  0  0  0  0  0
  -29.8220  -15.8610   20.6010 N   0  0  0  0  0  0  0  0  0  0  0  0
  -28.9230  -15.6650   21.0130 H   0  0  0  0  0  0  0  0  0  0  0  0
  -25.2080  -13.8870   20.4920 C   0  0  0  0  0  0  0  0  0  0  0  0
  -24.1390  -13.1160   20.8630 C   0  0  0  0  0  0  0  0  0  0  0  0
  -24.6010  -11.7650   20.8430 C   0  0  0  0  0  0  0  0  0  0  0  0
  -26.2530  -13.0060   20.2680 N   0  0  0  0  0  0  0  0  0  0  0  0
  -25.8940  -11.7240   20.5410 N   0  0  0  0  0  0  0  0  0  0  0  0
  -23.8720  -10.5050   21.0380 C   0  0  0  0  0  0  0  0  0  0  0  0
  -24.3070   -9.5360   21.9700 C   0  0  0  0  0  3  0  0  0  0  0  0
  -23.5770   -8.3410   22.1530 C   0  0  0  0  0  3  0  0  0  0  0  0
  -22.3990   -8.1080   21.4070 C   0  0  0  0  0  0  0  0  0  0  0  0
  -21.9830   -9.0660   20.4640 C   0  0  0  0  0  3  0  0  0  0  0  0
  -22.7130  -10.2510   20.2790 C   0  0  0  0  0  3  0  0  0  0  0  0
  -21.6400   -6.9660   21.4990 O   0  0  0  0  0  0  0  0  0  0  0  0
  -21.6060   -6.2150   22.6480 C   0  0  0  0  0  0  0  0  0  0  0  0
  -21.2070   -6.7650   23.8850 C   0  0  0  0  0  3  0  0  0  0  0  0
  -21.1190   -5.9420   25.0250 C   0  0  0  0  0  3  0  0  0  0  0  0
  -21.4210   -4.5700   24.9300 C   0  0  0  0  0  0  0  0  0  0  0  0
  -21.8130   -4.0200   23.6970 C   0  0  0  0  0  3  0  0  0  0  0  0
  -21.9020   -4.8400   22.5590 C   0  0  0  0  0  0  0  0  0  0  0  0
  -22.2610   -4.3000   21.3700 F   0  0  0  0  0  0  0  0  0  0  0  0
  -21.3280   -3.7790   26.0240 F   0  0  0  0  0  0  0  0  0  0  0  0
  -22.7410  -13.5980   21.1230 C   0  0  0  0  0  0  0  0  0  0  0  0
  -22.0060  -12.9100   21.9910 N   0  0  0  0  0  0  0  0  0  0  0  0
  -22.3080  -14.6200   20.5930 O   0  0  0  0  0  0  0  0  0  0  0  0
  -22.3700  -12.0840   22.4440 H   0  0  0  0  0  0  0  0  0  0  0  0
  -21.0670  -13.2150   22.2060 H   0  0  0  0  0  0  0  0  0  0  0  0
  -25.3720  -15.2560   20.3040 N   0  0  0  0  0  0  0  0  0  0  0  0
  -24.5990  -15.9060   20.4020 H   0  0  0  0  0  0  0  0  0  0  0  0
  -26.2110  -15.6910   19.9450 H   0  0  0  0  0  0  0  0  0  0  0  0
  1  4  1  0
  1  3  2  0
  2  5  2  0
  3  2  1  0
  4 57  1  0
  4  6  1  0
  5  9  1  0
  6  7  1  0
  6  5  1  0
  9 10  1  0
  9  8  1  0
 11 13  1  0
 11  3  1  0
 12 11  1  0
 15 13  1  0
 15 14  1  0
 16 15  1  0
 17 28  2  0
 18 16  1  0
 18 23  1  0
 19 27  1  0
 19 29  1  0
 20 26  1  0
 20 22  1  0
 21 27  1  0
 22 21  1  0
 23 22  2  0
 24 25  1  0
 24 18  2  0
 25 20  2  0
 26 19  1  0
 27 17  1  0
 29 31  2  0
 30 29  1  0
 32 30  1  0
 33 42  2  0
 33 38  1  0
 34 30  1  0
 34 38  1  0
 35 34  1  0
 36 37  1  0
 36 35  1  0
 37 33  1  0
 38 39  2  0
 39 40  1  0
 41 40  2  0
 42 41  1  0
 43 17  1  0
 43 44  1  0
 43 53  1  0
 44 47  1  0
 45 49  1  0
 45 44  1  0
 46 45  2  0
 49 48  1  0
 51 49  1  0
 51 52  1  0
 51 50  1  0
 53 56  1  1
 53 54  1  0
 55 53  1  0
 57 66  1  0
 58 66  1  0
 59 64  1  0
 60 61  1  0
 60 59  1  0
 62 61  1  0
 62 71  1  0
 62 63  1  0
 64 58  1  0
 64 63  1  0
 65 58  2  0
 66 67  1  0
 68 69  2  0
 69 88  1  0
 70 69  1  0
 70 73  1  0
 71 68  1  0
 71 72  1  0
 72 70  2  0
 73 74  1  0
 74 75  2  0
 76 79  1  0
 76 75  1  0
 77 76  2  0
 78 77  1  0
 78 73  2  0
 79 80  1  0
 80 81  1  0
 81 82  2  0
 83 82  1  0
 83 87  1  0
 84 83  2  0
 85 80  2  0
 85 84  1  0
 86 85  1  0
 88 89  1  0
 89 92  1  0
 89 91  1  0
 90 88  2  0
 93 94  1  0
 93 68  1  0
 95 93  1  0
M  ISO  4  15 101  16 101  58 100  66 100
M  END
>  <TORSDO>  (89) 
F 21

>  <SCORE>  (89) 
-14.018

>  <name>  (89) 
88

>  <ligand_id>  (89) 
88

>  <original_smiles>  (89) 
[H]c1c([H])c([H])c2c(c1[H])C([H])([H])C([H])([H])C([H])([H])C2([H])N([H])C(=O)C1([H])N(C(=O)C([H])(N([H])C(=O)C([H])(N([H])C([H])([H])[H])C([H])([H])[H])C(C([H])([H])[H])(C([H])([H])[H])C([H])([H])[H])C([H])([H])c2c([H])c(OC([H])(C([H])([H])[H])C([H])([H])N([H])c3c([H])c(N([H])C([H])([H])[H])[n+]([H])c(C([H])([H])N([H])C(=O)N4C([H])([H])C([H])([H])C([H])([H])C([H])(n5nc(-c6c([H])c([H])c(Oc7c([H])c([H])c(F)c([H])c7F)c([H])c6[H])c(C(=O)N([H])[H])c5N([H])[H])C4([H])[H])c3[H])c([H])c([H])c2C1([H])[H]

>  <smiles>  (89) 
[H]c1c([H])c([H])c2c(c1[H])C([H])([H])C([H])([H])C([H])([H])C2([H])N([H])C(=O)C1([H])N(C(=O)C([H])(N([H])C(=O)C([H])(N([H])C([H])([H])[H])C([H])([H])[H])C(C([H])([H])[H])(C([H])([H])[H])C([H])([H])[H])C([H])([H])c2c([H])c(OC([H])(C([H])([H])[H])C([H])([H])N([H])c3c([H])c(N([H])C([H])([H])[H])[n+]([H])c(C([H])([H])N([H])C(=O)N4C([H])([H])C([H])([H])C([H])([H])C([H])(n5nc(-c6c([H])c([H])c(Oc7c([H])c([H])c(F)c([H])c7F)c([H])c6[H])c(C(=O)N([H])[H])c5N([H])[H])C4([H])[H])c3[H])c([H])c([H])c2C1([H])[H]

$$$$
89:0:0
     RDKit          3D

 90 98  0  0  1  0  0  0  0  0999 V2000
  -28.9810  -22.7640   20.2700 C   0  0  0  0  0  3  0  0  0  0  0  0
  -29.6730  -21.7670   19.8300 N   0  0  0  0  0  0  0  0  0  0  0  0
  -28.5280  -18.5020   20.6780 C   0  0  0  0  0  3  0  0  0  0  0  0
  -29.8310  -18.2990   20.3030 C   0  0  0  0  0  0  0  0  0  0  0  0
  -29.3560  -20.4720   20.1320 C   0  0  0  0  0  0  0  0  0  0  0  0
  -28.2440  -19.8680   20.5670 N   0  0  0  0  0  0  0  0  0  0  0  0
  -30.3450  -19.5360   19.9480 O   0  0  0  0  0  0  0  0  0  0  0  0
  -30.7820  -17.1060   20.2870 C   0  0  0  0  0  2  0  0  0  0  0  0
  -30.9390  -14.6220   20.0510 C   0  0  0  0  0  0  0  0  0  0  0  0
  -30.6740  -12.3530   19.1120 C   0  0  0  0  0  2  0  0  0  0  0  0
  -29.7020  -12.4140   17.9160 C   0  0  0  0  0  2  0  0  0  0  0  0
  -28.2480  -12.2570   18.3980 C   0  0  0  0  0  2  0  0  0  0  0  0
  -27.9070  -13.1850   19.5960 C   0  0  0  0  0  3  0  0  0  0  0  0
  -28.9980  -13.1270   20.6890 C   0  0  0  0  0  2  0  0  0  0  0  0
  -30.2870  -13.4220   20.0490 N   0  0  0  0  0  0  0  0  0  0  0  0
  -32.0790  -14.7390   19.5960 O   0  0  0  0  0  0  0  0  0  0  0  0
  -30.2330  -15.7280   20.3990 N   0  0  0  0  0  0  0  0  0  0  0  0
  -29.2850  -15.6070   20.7240 H   0  0  0  0  0  0  0  0  0  0  0  0
  -25.5570  -13.7750   20.4510 C   0  0  0  0  0  0  0  0  0  0  0  0
  -24.5020  -12.9990   20.8470 C   0  0  0  0  0  0  0  0  0  0  0  0
  -24.9490  -11.6460   20.7440 C   0  0  0  0  0  0  0  0  0  0  0  0
  -26.5800  -12.8970   20.1340 N   0  0  0  0  0  0  0  0  0  0  0  0
  -26.2220  -11.6080   20.3690 N   0  0  0  0  0  0  0  0  0  0  0  0
  -24.2210  -10.3830   20.9250 C   0  0  0  0  0  0  0  0  0  0  0  0
  -24.6410   -9.4170   21.8670 C   0  0  0  0  0  3  0  0  0  0  0  0
  -23.9130   -8.2180   22.0350 C   0  0  0  0  0  3  0  0  0  0  0  0
  -22.7520   -7.9780   21.2620 C   0  0  0  0  0  0  0  0  0  0  0  0
  -22.3520   -8.9330   20.3110 C   0  0  0  0  0  3  0  0  0  0  0  0
  -23.0800  -10.1220   20.1420 C   0  0  0  0  0  3  0  0  0  0  0  0
  -21.9980   -6.8320   21.3410 O   0  0  0  0  0  0  0  0  0  0  0  0
  -21.8700   -6.1330   22.5140 C   0  0  0  0  0  0  0  0  0  0  0  0
  -21.3150   -6.7170   23.6740 C   0  0  0  0  0  3  0  0  0  0  0  0
  -21.1390   -5.9410   24.8360 C   0  0  0  0  0  3  0  0  0  0  0  0
  -21.5080   -4.5820   24.8410 C   0  0  0  0  0  0  0  0  0  0  0  0
  -22.0560   -3.9980   23.6850 C   0  0  0  0  0  3  0  0  0  0  0  0
  -22.2350   -4.7710   22.5260 C   0  0  0  0  0  0  0  0  0  0  0  0
  -22.7440   -4.1980   21.4080 F   0  0  0  0  0  0  0  0  0  0  0  0
  -21.3310   -3.8350   25.9550 F   0  0  0  0  0  0  0  0  0  0  0  0
  -23.1260  -13.4780   21.2070 C   0  0  0  0  0  0  0  0  0  0  0  0
  -22.4340  -12.7550   22.0800 N   0  0  0  0  0  0  0  0  0  0  0  0
  -22.6730  -14.5270   20.7490 O   0  0  0  0  0  0  0  0  0  0  0  0
  -22.8120  -11.9050   22.4730 H   0  0  0  0  0  0  0  0  0  0  0  0
  -21.5140  -13.0580   22.3670 H   0  0  0  0  0  0  0  0  0  0  0  0
  -25.7270  -15.1490   20.3120 N   0  0  0  0  0  0  0  0  0  0  0  0
  -24.9710  -15.8060   20.4660 H   0  0  0  0  0  0  0  0  0  0  0  0
  -26.5530  -15.5850   19.9220 H   0  0  0  0  0  0  0  0  0  0  0  0
  -29.2060  -24.2600   19.9730 C   0  0  0  0  0  0  0  0  0  0  0  0
  -30.0810  -24.6450   19.1840 O   0  0  0  0  0  0  0  0  0  0  0  0
  -28.3000  -25.2950   20.7000 C   0  0  0  0  0  2  0  0  0  0  0  0
  -28.5190  -26.6840   20.2960 O   0  0  0  0  0  0  0  0  0  0  0  0
  -24.5950  -31.9080   23.2400 C   0  0  0  0  0  0  0  0  0  0  0  0
  -27.3750  -27.4650   20.2440 C   0  0  0  0  0  0  0  0  0  0  0  0
  -23.4570  -30.4910   21.5640 C   0  0  0  0  0  3  0  0  0  0  0  0
  -24.9720  -28.9740   20.1760 C   0  0  0  0  0  0  0  0  0  0  0  0
  -25.9870  -30.8760   21.4410 C   0  0  0  0  0  2  0  0  0  0  0  0
  -26.1110  -29.5050   20.7990 C   0  0  0  0  0  0  0  0  0  0  0  0
  -27.3190  -28.7600   20.8220 C   0  0  0  0  0  3  0  0  0  0  0  0
  -26.2220  -26.9680   19.5990 C   0  0  0  0  0  3  0  0  0  0  0  0
  -25.0260  -27.7090   19.5710 C   0  0  0  0  0  3  0  0  0  0  0  0
  -23.7170  -29.8180   20.1910 C   0  0  0  0  0  2  0  0  0  0  0  0
  -24.6970  -31.1080   22.1400 N   0  0  0  0  0  0  0  0  0  0  0  0
  -23.4950  -32.1650   23.7470 O   0  0  0  0  0  0  0  0  0  0  0  0
  -22.7910  -29.4610   22.5050 C   0  0  0  0  0  0  0  0  0  0  0  0
  -21.4680  -29.2780   22.3570 N   0  0  0  0  0  0  0  0  0  0  0  0
  -23.4630  -28.8290   23.3240 O   0  0  0  0  0  0  0  0  0  0  0  0
  -20.9860  -29.8430   21.6710 H   0  0  0  0  0  0  0  0  0  0  0  0
  -18.0830  -28.1010   22.8250 C   0  0  0  0  0  0  0  0  0  0  0  0
  -20.6420  -28.3310   23.1060 C   0  0  0  0  0  3  0  0  0  0  0  0
  -20.7330  -26.9120   22.4990 C   0  0  0  0  0  2  0  0  0  0  0  0
  -19.6310  -26.6210   21.4760 C   0  0  0  0  0  2  0  0  0  0  0  0
  -18.2480  -26.7650   22.1210 C   0  0  0  0  0  2  0  0  0  0  0  0
  -19.2070  -28.8440   23.2730 C   0  0  0  0  0  0  0  0  0  0  0  0
  -18.9980  -30.0960   23.8910 C   0  0  0  0  0  3  0  0  0  0  0  0
  -17.6970  -30.6050   24.0650 C   0  0  0  0  0  3  0  0  0  0  0  0
  -16.5880  -29.8590   23.6330 C   0  0  0  0  0  3  0  0  0  0  0  0
  -16.7810  -28.6080   23.0190 C   0  0  0  0  0  3  0  0  0  0  0  0
  -25.8530  -32.5570   23.8970 C   0  0  0  0  0  3  0  0  0  0  0  0
  -26.3440  -31.7960   25.1890 C   0  0  1  0  0  0  0  0  0  0  0  0
  -25.2220  -31.5370   26.2230 C   0  0  0  0  0  1  0  0  0  0  0  0
  -26.9630  -30.4280   24.8140 C   0  0  0  0  0  1  0  0  0  0  0  0
  -27.4580  -32.6100   25.8870 C   0  0  0  0  0  1  0  0  0  0  0  0
  -25.5180  -33.9520   24.2130 N   0  0  0  0  0  0  0  0  0  0  0  0
  -25.8460  -35.0040   23.4500 C   0  0  0  0  0  0  0  0  0  0  0  0
  -26.5320  -34.9040   22.4300 O   0  0  0  0  0  0  0  0  0  0  0  0
  -24.9120  -34.1040   25.0040 H   0  0  0  0  0  0  0  0  0  0  0  0
  -24.0880  -36.7620   23.0660 C   0  0  0  0  0  1  0  0  0  0  0  0
  -25.3300  -36.3890   23.8910 C   0  0  0  0  0  3  0  0  0  0  0  0
  -27.4380  -37.3240   24.7330 C   0  0  0  0  0  1  0  0  0  0  0  0
  -26.3440  -37.4590   23.7750 N   0  0  0  0  0  0  0  0  0  0  0  0
  -25.9180  -38.3730   23.9050 H   0  0  0  0  0  0  0  0  0  0  0  0
  2  5  1  0
  2  1  2  0
  4  3  2  0
  5  6  2  0
  6  3  1  0
  7  5  1  0
  7  4  1  0
  8  4  1  0
  8 17  1  0
  9 17  1  0
 10 15  1  0
 11 12  1  0
 11 10  1  0
 13 12  1  0
 13 22  1  0
 13 14  1  0
 15  9  1  0
 15 14  1  0
 16  9  2  0
 17 18  1  0
 19 20  2  0
 20 39  1  0
 21 20  1  0
 21 24  1  0
 22 23  1  0
 22 19  1  0
 23 21  2  0
 24 25  1  0
 25 26  2  0
 27 30  1  0
 27 26  1  0
 28 27  2  0
 29 28  1  0
 29 24  2  0
 30 31  1  0
 31 36  2  0
 31 32  1  0
 32 33  2  0
 33 34  1  0
 34 38  1  0
 35 34  2  0
 36 35  1  0
 37 36  1  0
 39 40  1  0
 40 43  1  0
 40 42  1  0
 41 39  2  0
 44 19  1  0
 44 45  1  0
 46 44  1  0
 47  1  1  0
 47 49  1  0
 48 47  2  0
 50 49  1  0
 51 62  2  0
 52 50  1  0
 52 57  1  0
 53 61  1  0
 53 63  1  0
 54 60  1  0
 54 56  1  0
 55 61  1  0
 56 57  2  0
 56 55  1  0
 58 52  2  0
 59 58  1  0
 59 54  2  0
 60 53  1  0
 61 51  1  0
 63 65  2  0
 64 63  1  0
 66 64  1  0
 67 76  2  0
 67 72  1  0
 68 64  1  0
 68 72  1  0
 69 68  1  0
 70 71  1  0
 70 69  1  0
 71 67  1  0
 72 73  2  0
 73 74  1  0
 75 74  2  0
 76 75  1  0
 77 51  1  0
 77 82  1  0
 77 78  1  0
 78 81  1  1
 78 79  1  0
 80 78  1  0
 82 85  1  0
 83 87  1  0
 83 82  1  0
 84 83  2  0
 87 86  1  0
 89 87  1  0
 89 90  1  0
 89 88  1  0
M  ISO  4   9 100  17 100  49 101  50 101
M  END
>  <TORSDO>  (90) 
F 20

>  <SCORE>  (90) 
-13.459

>  <name>  (90) 
89

>  <ligand_id>  (90) 
89

>  <original_smiles>  (90) 
[H]C(=Nc1nc([H])c(C([H])([H])N([H])C(=O)N2C([H])([H])C([H])([H])C([H])([H])C([H])(n3nc(-c4c([H])c([H])c(Oc5c([H])c([H])c(F)c([H])c5F)c([H])c4[H])c(C(=O)N([H])[H])c3N([H])[H])C2([H])[H])o1)C(=O)C([H])([H])Oc1c([H])c([H])c2c(c1[H])C([H])([H])N(C(=O)C([H])(N([H])C(=O)C([H])(N([H])C([H])([H])[H])C([H])([H])[H])C(C([H])([H])[H])(C([H])([H])[H])C([H])([H])[H])C([H])(C(=O)N([H])C1([H])c3c([H])c([H])c([H])c([H])c3C([H])([H])C([H])([H])C1([H])[H])C2([H])[H]

>  <smiles>  (90) 
[H]C(=Nc1nc([H])c(C([H])([H])N([H])C(=O)N2C([H])([H])C([H])([H])C([H])([H])C([H])(n3nc(-c4c([H])c([H])c(Oc5c([H])c([H])c(F)c([H])c5F)c([H])c4[H])c(C(=O)N([H])[H])c3N([H])[H])C2([H])[H])o1)C(=O)C([H])([H])Oc1c([H])c([H])c2c(c1[H])C([H])([H])N(C(=O)C([H])(N([H])C(=O)C([H])(N([H])C([H])([H])[H])C([H])([H])[H])C(C([H])([H])[H])(C([H])([H])[H])C([H])([H])[H])C([H])(C(=O)N([H])C1([H])c3c([H])c([H])c([H])c([H])c3C([H])([H])C([H])([H])C1([H])[H])C2([H])[H]

$$$$
