0:0:0
     RDKit          3D

 91100  0  0  1  0  0  0  0  0999 V2000
  -28.7440  -21.6280   20.7080 N   0  0  0  0  0  0  0  0  0  0  0  0
  -28.2790  -21.9280   21.5630 H   0  0  0  0  0  0  0  0  0  0  0  0
  -30.8610  -14.6570   19.7410 C   0  0  0  0  0  0  0  0  0  0  0  0
  -30.5010  -12.4580   18.6660 C   0  0  0  0  0  2  0  0  0  0  0  0
  -29.4430  -12.6190   17.5540 C   0  0  0  0  0  2  0  0  0  0  0  0
  -28.0210  -12.4580   18.1280 C   0  0  0  0  0  2  0  0  0  0  0  0
  -27.7930  -13.2900   19.4180 C   0  0  0  0  0  3  0  0  0  0  0  0
  -28.9610  -13.1060   20.4130 C   0  0  0  0  0  2  0  0  0  0  0  0
  -30.1940  -13.4620   19.7020 N   0  0  0  0  0  0  0  0  0  0  0  0
  -32.0000  -14.7470   19.2710 O   0  0  0  0  0  0  0  0  0  0  0  0
  -29.6540  -19.6020   19.4230 C   0  0  0  0  0  3  0  0  0  0  0  0
  -29.7940  -18.1830   19.6560 C   0  0  0  0  0  0  0  0  0  0  0  0
  -29.3230  -17.7800   20.8420 C   0  0  0  0  0  0  0  0  0  0  0  0
  -29.0620  -20.2620   20.4920 C   0  0  0  0  0  0  0  0  0  0  0  0
  -30.3320  -16.9760   18.9380 C   0  0  0  0  0  3  0  0  0  0  0  0
  -29.4490  -16.3090   21.0760 C   0  0  0  0  0  3  0  0  0  0  0  0
  -30.0970  -15.7960   19.8370 N   0  0  0  0  0  0  0  0  0  0  0  0
  -28.6770  -19.1030   21.7780 S   0  0  0  0  0  0  0  0  0  0  0  0
  -25.5010  -13.8660   20.4250 C   0  0  0  0  0  0  0  0  0  0  0  0
  -24.4700  -13.0790   20.8620 C   0  0  0  0  0  0  0  0  0  0  0  0
  -24.9070  -11.7290   20.7020 C   0  0  0  0  0  0  0  0  0  0  0  0
  -26.5020  -12.9930   20.0300 N   0  0  0  0  0  0  0  0  0  0  0  0
  -26.1550  -11.6990   20.2540 N   0  0  0  0  0  0  0  0  0  0  0  0
  -24.1880  -10.4620   20.8950 C   0  0  0  0  0  0  0  0  0  0  0  0
  -24.6230   -9.5020   21.8350 C   0  0  0  0  0  3  0  0  0  0  0  0
  -23.9040   -8.3010   22.0150 C   0  0  0  0  0  3  0  0  0  0  0  0
  -22.7360   -8.0520   21.2550 C   0  0  0  0  0  0  0  0  0  0  0  0
  -22.3210   -9.0010   20.3060 C   0  0  0  0  0  3  0  0  0  0  0  0
  -23.0400  -10.1930   20.1230 C   0  0  0  0  0  3  0  0  0  0  0  0
  -21.9890   -6.9030   21.3450 O   0  0  0  0  0  0  0  0  0  0  0  0
  -21.8250   -6.2420   22.5360 C   0  0  0  0  0  0  0  0  0  0  0  0
  -21.2560   -6.8690   23.6650 C   0  0  0  0  0  3  0  0  0  0  0  0
  -21.0430   -6.1320   24.8480 C   0  0  0  0  0  3  0  0  0  0  0  0
  -21.3890   -4.7690   24.9010 C   0  0  0  0  0  0  0  0  0  0  0  0
  -21.9510   -4.1410   23.7760 C   0  0  0  0  0  3  0  0  0  0  0  0
  -22.1660   -4.8740   22.5960 C   0  0  0  0  0  0  0  0  0  0  0  0
  -22.6890   -4.2590   21.5080 F   0  0  0  0  0  0  0  0  0  0  0  0
  -21.1770   -4.0590   26.0340 F   0  0  0  0  0  0  0  0  0  0  0  0
  -23.1160  -13.5510   21.3120 C   0  0  0  0  0  0  0  0  0  0  0  0
  -22.4820  -12.8160   22.2180 N   0  0  0  0  0  0  0  0  0  0  0  0
  -22.6340  -14.6020   20.8930 O   0  0  0  0  0  0  0  0  0  0  0  0
  -22.8880  -11.9640   22.5770 H   0  0  0  0  0  0  0  0  0  0  0  0
  -21.5790  -13.1110   22.5610 H   0  0  0  0  0  0  0  0  0  0  0  0
  -25.6650  -15.2430   20.3100 N   0  0  0  0  0  0  0  0  0  0  0  0
  -24.9220  -15.8950   20.5380 H   0  0  0  0  0  0  0  0  0  0  0  0
  -26.4780  -15.6940   19.9100 H   0  0  0  0  0  0  0  0  0  0  0  0
  -28.9540  -22.7320   19.7390 C   0  0  0  0  0  2  0  0  0  0  0  0
  -28.5190  -24.1480   20.2580 C   0  0  0  0  0  0  0  0  0  0  0  0
  -28.0730  -24.2700   21.4060 O   0  0  0  0  0  0  0  0  0  0  0  0
  -28.6530  -25.3850   19.3110 C   0  0  0  0  0  2  0  0  0  0  0  0
  -28.5010  -26.6870   19.9640 O   0  0  0  0  0  0  0  0  0  0  0  0
  -24.5560  -31.7790   23.0820 C   0  0  0  0  0  0  0  0  0  0  0  0
  -27.3040  -27.3970   19.9390 C   0  0  0  0  0  0  0  0  0  0  0  0
  -23.3830  -30.3620   21.4310 C   0  0  0  0  0  3  0  0  0  0  0  0
  -24.8720  -28.8790   19.9780 C   0  0  0  0  0  0  0  0  0  0  0  0
  -25.9020  -30.7810   21.2280 C   0  0  0  0  0  2  0  0  0  0  0  0
  -26.0210  -29.4160   20.5680 C   0  0  0  0  0  0  0  0  0  0  0  0
  -27.2360  -28.6830   20.5430 C   0  0  0  0  0  3  0  0  0  0  0  0
  -26.1250  -26.8850   19.3470 C   0  0  0  0  0  3  0  0  0  0  0  0
  -24.9210  -27.6170   19.3650 C   0  0  0  0  0  3  0  0  0  0  0  0
  -23.6060  -29.7070   20.0420 C   0  0  0  0  0  2  0  0  0  0  0  0
  -24.6320  -30.9910   21.9720 N   0  0  0  0  0  0  0  0  0  0  0  0
  -23.4690  -32.0140   23.6290 O   0  0  0  0  0  0  0  0  0  0  0  0
  -22.7660  -29.3120   22.3830 C   0  0  0  0  0  0  0  0  0  0  0  0
  -21.4480  -29.0840   22.2530 N   0  0  0  0  0  0  0  0  0  0  0  0
  -23.4690  -28.7060   23.1950 O   0  0  0  0  0  0  0  0  0  0  0  0
  -20.9390  -29.6290   21.5710 H   0  0  0  0  0  0  0  0  0  0  0  0
  -18.1180  -27.7640   22.7370 C   0  0  0  0  0  0  0  0  0  0  0  0
  -20.6640  -28.1120   23.0150 C   0  0  0  0  0  3  0  0  0  0  0  0
  -20.8200  -26.6910   22.4290 C   0  0  0  0  0  2  0  0  0  0  0  0
  -19.7320  -26.3360   21.4090 C   0  0  0  0  0  2  0  0  0  0  0  0
  -18.3440  -26.4270   22.0520 C   0  0  0  0  0  2  0  0  0  0  0  0
  -19.2080  -28.5620   23.1750 C   0  0  0  0  0  0  0  0  0  0  0  0
  -18.9420  -29.8130   23.7760 C   0  0  0  0  0  3  0  0  0  0  0  0
  -17.6210  -30.2660   23.9410 C   0  0  0  0  0  3  0  0  0  0  0  0
  -16.5450  -29.4640   23.5200 C   0  0  0  0  0  3  0  0  0  0  0  0
  -16.7950  -28.2150   22.9240 C   0  0  0  0  0  3  0  0  0  0  0  0
  -25.8240  -32.4430   23.7020 C   0  0  0  0  0  3  0  0  0  0  0  0
  -26.3930  -31.6530   24.9460 C   0  0  1  0  0  0  0  0  0  0  0  0
  -25.3260  -31.3260   26.0170 C   0  0  0  0  0  1  0  0  0  0  0  0
  -27.0370  -30.3200   24.4980 C   0  0  0  0  0  1  0  0  0  0  0  0
  -27.5130  -32.4790   25.6230 C   0  0  0  0  0  1  0  0  0  0  0  0
  -25.4670  -33.8160   24.0820 N   0  0  0  0  0  0  0  0  0  0  0  0
  -25.7410  -34.9030   23.3490 C   0  0  0  0  0  0  0  0  0  0  0  0
  -26.3940  -34.8580   22.3030 O   0  0  0  0  0  0  0  0  0  0  0  0
  -24.8820  -33.9230   24.8970 H   0  0  0  0  0  0  0  0  0  0  0  0
  -23.9360  -36.6340   23.0810 C   0  0  0  0  0  1  0  0  0  0  0  0
  -25.2070  -36.2570   23.8570 C   0  0  0  0  0  3  0  0  0  0  0  0
  -27.3170  -37.2060   24.6800 C   0  0  0  0  0  1  0  0  0  0  0  0
  -26.1950  -37.3540   23.7580 N   0  0  0  0  0  0  0  0  0  0  0  0
  -25.7540  -38.2520   23.9360 H   0  0  0  0  0  0  0  0  0  0  0  0
  1  2  1  0
  3 17  1  0
  4  9  1  0
  5  6  1  0
  5  4  1  0
  7  6  1  0
  7 22  1  0
  7  8  1  0
  9  3  1  0
  9  8  1  0
 10  3  2  0
 11 12  1  0
 11 14  2  0
 12 13  1  0
 13 16  2  0
 13 18  1  0
 14  1  1  0
 14 18  1  0
 15 12  2  0
 15 17  1  0
 17 16  1  0
 19 20  2  0
 20 39  1  0
 21 20  1  0
 21 24  1  0
 22 23  1  0
 22 19  1  0
 23 21  2  0
 24 25  1  0
 25 26  2  0
 27 30  1  0
 27 26  1  0
 28 27  2  0
 29 28  1  0
 29 24  2  0
 30 31  1  0
 31 36  2  0
 31 32  1  0
 32 33  2  0
 33 34  1  0
 34 38  1  0
 35 34  2  0
 36 35  1  0
 37 36  1  0
 39 40  1  0
 40 43  1  0
 40 42  1  0
 41 39  2  0
 44 19  1  0
 44 45  1  0
 46 44  1  0
 47 48  1  0
 47  1  1  0
 48 49  2  0
 50 51  1  0
 50 48  1  0
 52 63  2  0
 53 51  1  0
 53 58  1  0
 54 62  1  0
 54 64  1  0
 55 61  1  0
 55 57  1  0
 56 62  1  0
 57 56  1  0
 58 57  2  0
 59 60  1  0
 59 53  2  0
 60 55  2  0
 61 54  1  0
 62 52  1  0
 64 66  2  0
 65 64  1  0
 67 65  1  0
 68 77  2  0
 68 73  1  0
 69 65  1  0
 69 73  1  0
 70 69  1  0
 71 72  1  0
 71 70  1  0
 72 68  1  0
 73 74  2  0
 74 75  1  0
 76 75  2  0
 77 76  1  0
 78 52  1  0
 78 83  1  0
 78 79  1  0
 79 82  1  1
 79 80  1  0
 81 79  1  0
 83 86  1  0
 84 88  1  0
 84 83  1  0
 85 84  2  0
 88 87  1  0
 90 88  1  0
 90 91  1  0
 90 89  1  0
M  ISO  4   3 100  17 100  50 101  51 101
M  END
>  <TORSDO>  (1) 
F 19

>  <SCORE>  (1) 
-11.561

>  <name>  (1) 
0

>  <ligand_id>  (1) 
0

>  <original_smiles>  (1) 
[H]c1c([H])c([H])c2c(c1[H])C([H])([H])C([H])([H])C([H])([H])C2([H])N([H])C(=O)C1([H])N(C(=O)C([H])(N([H])C(=O)C([H])(N([H])C([H])([H])[H])C([H])([H])[H])C(C([H])([H])[H])(C([H])([H])[H])C([H])([H])[H])C([H])([H])c2c([H])c(OC([H])([H])C(=O)C([H])([H])N([H])c3sc4c(c3[H])C([H])([H])N(C(=O)N3C([H])([H])C([H])([H])C([H])([H])C([H])(n5nc(-c6c([H])c([H])c(Oc7c([H])c([H])c(F)c([H])c7F)c([H])c6[H])c(C(=O)N([H])[H])c5N([H])[H])C3([H])[H])C4([H])[H])c([H])c([H])c2C1([H])[H]

>  <smiles>  (1) 
[H]c1c([H])c([H])c2c(c1[H])C([H])([H])C([H])([H])C([H])([H])C2([H])N([H])C(=O)C1([H])N(C(=O)C([H])(N([H])C(=O)C([H])(N([H])C([H])([H])[H])C([H])([H])[H])C(C([H])([H])[H])(C([H])([H])[H])C([H])([H])[H])C([H])([H])c2c([H])c(OC([H])([H])C(=O)C([H])([H])N([H])c3sc4c(c3[H])C([H])([H])N(C(=O)N3C([H])([H])C([H])([H])C([H])([H])C([H])(n5nc(-c6c([H])c([H])c(Oc7c([H])c([H])c(F)c([H])c7F)c([H])c6[H])c(C(=O)N([H])[H])c5N([H])[H])C3([H])[H])C4([H])[H])c([H])c([H])c2C1([H])[H]

$$$$
1:0:0
     RDKit          3D

 93102  0  0  1  0  0  0  0  0999 V2000
  -28.9980  -19.0110   20.3820 C   0  0  0  0  0  3  0  0  0  0  0  0
  -31.2790  -18.3000   20.6970 C   0  0  0  0  0  3  0  0  0  0  0  0
  -29.3300  -20.4770   20.4590 C   0  0  0  0  0  0  0  0  0  0  0  0
  -30.7010  -20.7430   20.6910 C   0  0  0  0  0  0  0  0  0  0  0  0
  -29.9510  -17.8530   20.4940 C   0  0  0  0  0  0  0  0  0  0  0  0
  -31.6350  -19.6730   20.7960 C   0  0  0  0  0  0  0  0  0  0  0  0
  -30.2710  -23.2090   21.0940 C   0  0  0  0  0  2  0  0  0  0  0  0
  -28.9590  -23.1780   20.2730 C   0  0  0  0  0  3  0  0  0  0  0  0
  -31.1780  -22.0720   20.8200 N   0  0  0  0  0  0  0  0  0  0  0  0
  -28.4550  -21.6880   20.3480 N   0  0  0  0  0  0  0  0  0  0  0  0
  -32.9390  -19.9810   21.0100 F   0  0  0  0  0  0  0  0  0  0  0  0
  -32.1530  -22.1640   21.0900 H   0  0  0  0  0  0  0  0  0  0  0  0
  -27.4660  -21.5410   20.1740 H   0  0  0  0  0  0  0  0  0  0  0  0
  -30.4590  -15.1090   20.3200 C   0  0  0  0  0  0  0  0  0  0  0  0
  -30.3530  -12.7500   19.3470 C   0  0  0  0  0  2  0  0  0  0  0  0
  -29.4000  -12.6800   18.1310 C   0  0  0  0  0  2  0  0  0  0  0  0
  -27.9480  -12.4430   18.5880 C   0  0  0  0  0  2  0  0  0  0  0  0
  -27.5490  -13.3550   19.7760 C   0  0  0  0  0  3  0  0  0  0  0  0
  -28.6230  -13.3860   20.8830 C   0  0  0  0  0  2  0  0  0  0  0  0
  -29.8690  -13.8390   20.2500 N   0  0  0  0  0  0  0  0  0  0  0  0
  -31.6660  -15.1500   20.0540 O   0  0  0  0  0  0  0  0  0  0  0  0
  -29.6710  -16.3130   20.4540 N   0  0  0  0  0  0  0  0  0  0  0  0
  -28.6910  -16.0880   20.5350 H   0  0  0  0  0  0  0  0  0  0  0  0
  -25.1810  -13.9060   20.5680 C   0  0  0  0  0  0  0  0  0  0  0  0
  -24.1280  -13.1200   20.9440 C   0  0  0  0  0  0  0  0  0  0  0  0
  -24.6000  -11.7720   20.8890 C   0  0  0  0  0  0  0  0  0  0  0  0
  -26.2240  -13.0370   20.2970 N   0  0  0  0  0  0  0  0  0  0  0  0
  -25.8860  -11.7480   20.5580 N   0  0  0  0  0  0  0  0  0  0  0  0
  -23.8820  -10.5030   21.0720 C   0  0  0  0  0  0  0  0  0  0  0  0
  -24.3260   -9.5300   21.9940 C   0  0  0  0  0  3  0  0  0  0  0  0
  -23.6060   -8.3270   22.1660 C   0  0  0  0  0  3  0  0  0  0  0  0
  -22.4280   -8.0900   21.4170 C   0  0  0  0  0  0  0  0  0  0  0  0
  -22.0050   -9.0540   20.4840 C   0  0  0  0  0  3  0  0  0  0  0  0
  -22.7250  -10.2470   20.3100 C   0  0  0  0  0  3  0  0  0  0  0  0
  -21.6790   -6.9420   21.5000 O   0  0  0  0  0  0  0  0  0  0  0  0
  -21.6300   -6.1960   22.6500 C   0  0  0  0  0  0  0  0  0  0  0  0
  -21.1600   -6.7350   23.8690 C   0  0  0  0  0  3  0  0  0  0  0  0
  -21.0610   -5.9140   25.0100 C   0  0  0  0  0  3  0  0  0  0  0  0
  -21.4200   -4.5560   24.9340 C   0  0  0  0  0  0  0  0  0  0  0  0
  -21.8830   -4.0160   23.7210 C   0  0  0  0  0  3  0  0  0  0  0  0
  -21.9840   -4.8340   22.5810 C   0  0  0  0  0  0  0  0  0  0  0  0
  -22.4100   -4.3030   21.4100 F   0  0  0  0  0  0  0  0  0  0  0  0
  -21.3180   -3.7650   26.0280 F   0  0  0  0  0  0  0  0  0  0  0  0
  -22.7330  -13.5850   21.2400 C   0  0  0  0  0  0  0  0  0  0  0  0
  -22.0160  -12.8710   22.0990 N   0  0  0  0  0  0  0  0  0  0  0  0
  -22.2860  -14.6190   20.7420 O   0  0  0  0  0  0  0  0  0  0  0  0
  -22.3910  -12.0350   22.5240 H   0  0  0  0  0  0  0  0  0  0  0  0
  -21.0800  -13.1640   22.3380 H   0  0  0  0  0  0  0  0  0  0  0  0
  -25.3310  -15.2790   20.4040 N   0  0  0  0  0  0  0  0  0  0  0  0
  -24.5550  -15.9210   20.5290 H   0  0  0  0  0  0  0  0  0  0  0  0
  -26.1520  -15.7260   20.0180 H   0  0  0  0  0  0  0  0  0  0  0  0
  -27.9590  -24.5690   20.5070 C   0  0  0  0  0  2  0  0  0  0  0  0
  -28.2480  -26.1270   20.3610 O   0  0  0  0  0  0  0  0  0  0  0  0
  -24.6410  -31.9610   23.2500 C   0  0  0  0  0  0  0  0  0  0  0  0
  -27.2050  -27.1450   20.3060 C   0  0  0  0  0  0  0  0  0  0  0  0
  -23.4450  -30.5480   21.6250 C   0  0  0  0  0  3  0  0  0  0  0  0
  -24.8940  -28.9420   20.2320 C   0  0  0  0  0  0  0  0  0  0  0  0
  -26.0050  -30.7860   21.4740 C   0  0  0  0  0  2  0  0  0  0  0  0
  -26.0760  -29.3790   20.8430 C   0  0  0  0  0  0  0  0  0  0  0  0
  -27.2320  -28.4990   20.8580 C   0  0  0  0  0  3  0  0  0  0  0  0
  -25.9960  -26.8300   19.6470 C   0  0  0  0  0  3  0  0  0  0  0  0
  -24.8710  -27.6830   19.6160 C   0  0  0  0  0  3  0  0  0  0  0  0
  -23.6730  -29.8510   20.2580 C   0  0  0  0  0  2  0  0  0  0  0  0
  -24.7170  -31.1220   22.1710 N   0  0  0  0  0  0  0  0  0  0  0  0
  -23.5520  -32.2580   23.7670 O   0  0  0  0  0  0  0  0  0  0  0  0
  -22.7540  -29.5590   22.5990 C   0  0  0  0  0  0  0  0  0  0  0  0
  -21.4260  -29.3880   22.4640 N   0  0  0  0  0  0  0  0  0  0  0  0
  -23.4170  -28.9460   23.4400 O   0  0  0  0  0  0  0  0  0  0  0  0
  -20.9470  -29.9320   21.7620 H   0  0  0  0  0  0  0  0  0  0  0  0
  -18.0380  -28.2050   22.9720 C   0  0  0  0  0  0  0  0  0  0  0  0
  -20.5980  -28.4640   23.2450 C   0  0  0  0  0  3  0  0  0  0  0  0
  -20.6960  -27.0240   22.6910 C   0  0  0  0  0  2  0  0  0  0  0  0
  -19.5970  -26.6910   21.6760 C   0  0  0  0  0  2  0  0  0  0  0  0
  -18.2140  -26.8480   22.3120 C   0  0  0  0  0  2  0  0  0  0  0  0
  -19.1570  -28.9710   23.3950 C   0  0  0  0  0  0  0  0  0  0  0  0
  -18.9370  -30.2400   23.9740 C   0  0  0  0  0  3  0  0  0  0  0  0
  -17.6330  -30.7430   24.1320 C   0  0  0  0  0  3  0  0  0  0  0  0
  -16.5290  -29.9750   23.7230 C   0  0  0  0  0  3  0  0  0  0  0  0
  -16.7330  -28.7080   23.1490 C   0  0  0  0  0  3  0  0  0  0  0  0
  -25.9160  -32.6030   23.8750 C   0  0  0  0  0  3  0  0  0  0  0  0
  -25.6010  -34.0050   24.2000 N   0  0  0  0  0  0  0  0  0  0  0  0
  -25.9230  -35.0580   23.4380 C   0  0  0  0  0  0  0  0  0  0  0  0
  -26.5830  -34.9530   22.3990 O   0  0  0  0  0  0  0  0  0  0  0  0
  -25.0150  -34.1600   25.0060 H   0  0  0  0  0  0  0  0  0  0  0  0
  -24.1890  -36.8520   23.0980 C   0  0  0  0  0  1  0  0  0  0  0  0
  -25.4400  -36.4480   23.8960 C   0  0  0  0  0  3  0  0  0  0  0  0
  -27.5770  -37.3460   24.7080 C   0  0  0  0  0  1  0  0  0  0  0  0
  -26.4690  -37.5030   23.7690 N   0  0  0  0  0  0  0  0  0  0  0  0
  -26.0620  -38.4240   23.9110 H   0  0  0  0  0  0  0  0  0  0  0  0
  -26.4220  -31.8450   25.1640 C   0  0  1  0  0  0  0  0  0  0  0  0
  -25.3210  -31.6170   26.2260 C   0  0  0  0  0  1  0  0  0  0  0  0
  -27.0100  -30.4640   24.7960 C   0  0  0  0  0  1  0  0  0  0  0  0
  -27.5660  -32.6480   25.8280 C   0  0  0  0  0  1  0  0  0  0  0  0
  1  3  2  0
  1  5  1  0
  2  6  1  0
  3  4  1  0
  4  6  2  0
  4  9  1  0
  5  2  2  0
  6 11  1  0
  8 10  1  0
  8 52  1  0
  8  7  1  0
  9 12  1  0
  9  7  1  0
 10  3  1  0
 13 10  1  0
 14 22  1  0
 15 20  1  0
 16 17  1  0
 16 15  1  0
 18 17  1  0
 18 27  1  0
 18 19  1  0
 20 14  1  0
 20 19  1  0
 21 14  2  0
 22  5  1  0
 22 23  1  0
 24 25  2  0
 25 44  1  0
 26 25  1  0
 26 29  1  0
 27 28  1  0
 27 24  1  0
 28 26  2  0
 29 30  1  0
 30 31  2  0
 32 35  1  0
 32 31  1  0
 33 32  2  0
 34 33  1  0
 34 29  2  0
 35 36  1  0
 36 37  1  0
 37 38  2  0
 39 38  1  0
 39 43  1  0
 40 39  2  0
 41 36  2  0
 41 40  1  0
 42 41  1  0
 44 45  1  0
 45 48  1  0
 45 47  1  0
 46 44  2  0
 49 50  1  0
 49 24  1  0
 51 49  1  0
 53 52  1  0
 54 65  2  0
 55 53  1  0
 55 60  1  0
 56 64  1  0
 56 66  1  0
 57 63  1  0
 57 59  1  0
 58 64  1  0
 59 60  2  0
 59 58  1  0
 61 55  2  0
 62 61  1  0
 62 57  2  0
 63 56  1  0
 64 54  1  0
 66 68  2  0
 67 66  1  0
 69 67  1  0
 70 79  2  0
 70 75  1  0
 71 67  1  0
 71 75  1  0
 72 71  1  0
 73 74  1  0
 73 72  1  0
 74 70  1  0
 75 76  2  0
 76 77  1  0
 78 77  2  0
 79 78  1  0
 80 54  1  0
 80 81  1  0
 80 90  1  0
 81 84  1  0
 82 86  1  0
 82 81  1  0
 83 82  2  0
 86 85  1  0
 88 86  1  0
 88 89  1  0
 88 87  1  0
 90 93  1  1
 90 91  1  0
 92 90  1  0
M  ISO  4  14 100  22 100  52 101  53 101
M  END
>  <TORSDO>  (2) 
F 17

>  <SCORE>  (2) 
-16.060

>  <name>  (2) 
1

>  <ligand_id>  (2) 
1

>  <original_smiles>  (2) 
[H]c1c([H])c([H])c2c(c1[H])C([H])([H])C([H])([H])C([H])([H])C2([H])N([H])C(=O)C1([H])N(C(=O)C([H])(N([H])C(=O)C([H])(N([H])C([H])([H])[H])C([H])([H])[H])C(C([H])([H])[H])(C([H])([H])[H])C([H])([H])[H])C([H])([H])c2c([H])c(OC([H])([H])C3([H])N([H])c4c([H])c(N([H])C(=O)N5C([H])([H])C([H])([H])C([H])([H])C([H])(n6nc(-c7c([H])c([H])c(Oc8c([H])c([H])c(F)c([H])c8F)c([H])c7[H])c(C(=O)N([H])[H])c6N([H])[H])C5([H])[H])c([H])c(F)c4N([H])C3([H])[H])c([H])c([H])c2C1([H])[H]

>  <smiles>  (2) 
[H]c1c([H])c([H])c2c(c1[H])C([H])([H])C([H])([H])C([H])([H])C2([H])N([H])C(=O)C1([H])N(C(=O)C([H])(N([H])C(=O)C([H])(N([H])C([H])([H])[H])C([H])([H])[H])C(C([H])([H])[H])(C([H])([H])[H])C([H])([H])[H])C([H])([H])c2c([H])c(OC([H])([H])C3([H])N([H])c4c([H])c(N([H])C(=O)N5C([H])([H])C([H])([H])C([H])([H])C([H])(n6nc(-c7c([H])c([H])c(Oc8c([H])c([H])c(F)c([H])c8F)c([H])c7[H])c(C(=O)N([H])[H])c6N([H])[H])C5([H])[H])c([H])c(F)c4N([H])C3([H])[H])c([H])c([H])c2C1([H])[H]

$$$$
2:0:0
     RDKit          3D

 95104  0  0  1  0  0  0  0  0999 V2000
  -31.7760  -18.9150   21.1740 C   0  0  0  0  0  3  0  0  0  0  0  0
  -31.5410  -17.5160   21.0970 C   0  0  0  0  0  3  0  0  0  0  0  0
  -29.1540  -17.9050   20.7100 C   0  0  0  0  0  3  0  0  0  0  0  0
  -30.6820  -19.7860   21.0120 C   0  0  0  0  0  0  0  0  0  0  0  0
  -29.4080  -19.2960   20.7790 C   0  0  0  0  0  0  0  0  0  0  0  0
  -30.2360  -16.9910   20.8610 C   0  0  0  0  0  0  0  0  0  0  0  0
  -30.5890  -21.2410   21.0980 C   0  0  0  0  0  0  0  0  0  0  0  0
  -28.4470  -20.4640   20.6680 C   0  0  0  0  0  3  0  0  0  0  0  0
  -29.3170  -21.6600   20.9040 N   0  0  0  0  0  0  0  0  0  0  0  0
  -31.5990  -22.0550   21.3780 N   0  0  0  0  0  0  0  0  0  0  0  0
  -32.5200  -21.6830   21.5500 H   0  0  0  0  0  0  0  0  0  0  0  0
  -31.4870  -23.0550   21.2460 H   0  0  0  0  0  0  0  0  0  0  0  0
  -30.6750  -14.5750   20.2770 C   0  0  0  0  0  0  0  0  0  0  0  0
  -30.3490  -12.4460   19.0610 C   0  0  0  0  0  2  0  0  0  0  0  0
  -29.3700  -12.6850   17.8930 C   0  0  0  0  0  2  0  0  0  0  0  0
  -27.9090  -12.5310   18.3610 C   0  0  0  0  0  2  0  0  0  0  0  0
  -27.6100  -13.3250   19.6610 C   0  0  0  0  0  3  0  0  0  0  0  0
  -28.6990  -13.0690   20.7290 C   0  0  0  0  0  2  0  0  0  0  0  0
  -30.0040  -13.3960   20.1330 N   0  0  0  0  0  0  0  0  0  0  0  0
  -31.7990  -14.7540   19.7990 O   0  0  0  0  0  0  0  0  0  0  0  0
  -29.9580  -15.5800   20.8300 N   0  0  0  0  0  0  0  0  0  0  0  0
  -29.0270  -15.3130   21.1070 H   0  0  0  0  0  0  0  0  0  0  0  0
  -25.2240  -13.9090   20.4260 C   0  0  0  0  0  0  0  0  0  0  0  0
  -24.1720  -13.1270   20.8200 C   0  0  0  0  0  0  0  0  0  0  0  0
  -24.6440  -11.7790   20.7760 C   0  0  0  0  0  0  0  0  0  0  0  0
  -26.2710  -13.0370   20.1700 N   0  0  0  0  0  0  0  0  0  0  0  0
  -25.9270  -11.7510   20.4390 N   0  0  0  0  0  0  0  0  0  0  0  0
  -23.9340  -10.5100   20.9800 C   0  0  0  0  0  0  0  0  0  0  0  0
  -24.3860   -9.5520   21.9150 C   0  0  0  0  0  3  0  0  0  0  0  0
  -23.6740   -8.3470   22.1050 C   0  0  0  0  0  3  0  0  0  0  0  0
  -22.4970   -8.0920   21.3620 C   0  0  0  0  0  0  0  0  0  0  0  0
  -22.0650   -9.0390   20.4160 C   0  0  0  0  0  3  0  0  0  0  0  0
  -22.7770  -10.2340   20.2240 C   0  0  0  0  0  3  0  0  0  0  0  0
  -21.7570   -6.9390   21.4620 O   0  0  0  0  0  0  0  0  0  0  0  0
  -21.7170   -6.2090   22.6230 C   0  0  0  0  0  0  0  0  0  0  0  0
  -21.2740   -6.7680   23.8410 C   0  0  0  0  0  3  0  0  0  0  0  0
  -21.1830   -5.9620   24.9940 C   0  0  0  0  0  3  0  0  0  0  0  0
  -21.5230   -4.5990   24.9290 C   0  0  0  0  0  0  0  0  0  0  0  0
  -21.9590   -4.0380   23.7150 C   0  0  0  0  0  3  0  0  0  0  0  0
  -22.0520   -4.8410   22.5650 C   0  0  0  0  0  0  0  0  0  0  0  0
  -22.4520   -4.2900   21.3930 F   0  0  0  0  0  0  0  0  0  0  0  0
  -21.4290   -3.8220   26.0330 F   0  0  0  0  0  0  0  0  0  0  0  0
  -22.7760  -13.5910   21.1230 C   0  0  0  0  0  0  0  0  0  0  0  0
  -22.0710  -12.8830   21.9970 N   0  0  0  0  0  0  0  0  0  0  0  0
  -22.3200  -14.6170   20.6190 O   0  0  0  0  0  0  0  0  0  0  0  0
  -22.4520  -12.0530   22.4280 H   0  0  0  0  0  0  0  0  0  0  0  0
  -21.1350  -13.1760   22.2430 H   0  0  0  0  0  0  0  0  0  0  0  0
  -25.3710  -15.2800   20.2410 N   0  0  0  0  0  0  0  0  0  0  0  0
  -24.5890  -15.9180   20.3410 H   0  0  0  0  0  0  0  0  0  0  0  0
  -26.1840  -15.7120   19.8230 H   0  0  0  0  0  0  0  0  0  0  0  0
  -28.6860  -22.9980   21.1720 C   0  0  0  0  0  2  0  0  0  0  0  0
  -29.2440  -24.2780   20.4880 C   0  0  0  0  0  0  0  0  0  0  0  0
  -30.4590  -24.5100   20.4430 O   0  0  0  0  0  0  0  0  0  0  0  0
  -28.2010  -25.2420   19.8780 C   0  0  0  0  0  2  0  0  0  0  0  0
  -28.4100  -26.6530   20.1600 O   0  0  0  0  0  0  0  0  0  0  0  0
  -24.6170  -31.8950   23.2220 C   0  0  0  0  0  0  0  0  0  0  0  0
  -27.2630  -27.4400   20.1170 C   0  0  0  0  0  0  0  0  0  0  0  0
  -23.4170  -30.5010   21.5740 C   0  0  0  0  0  3  0  0  0  0  0  0
  -24.8730  -28.9820   20.1360 C   0  0  0  0  0  0  0  0  0  0  0  0
  -25.9490  -30.8520   21.3860 C   0  0  0  0  0  2  0  0  0  0  0  0
  -26.0350  -29.4860   20.7330 C   0  0  0  0  0  0  0  0  0  0  0  0
  -27.2310  -28.7240   20.7230 C   0  0  0  0  0  3  0  0  0  0  0  0
  -26.0770  -26.9790   19.4900 C   0  0  0  0  0  3  0  0  0  0  0  0
  -24.8910  -27.7290   19.5100 C   0  0  0  0  0  3  0  0  0  0  0  0
  -23.6280  -29.8390   20.1890 C   0  0  0  0  0  2  0  0  0  0  0  0
  -24.6790  -31.0970   22.1180 N   0  0  0  0  0  0  0  0  0  0  0  0
  -23.5330  -32.1620   23.7600 O   0  0  0  0  0  0  0  0  0  0  0  0
  -22.7660  -29.4700   22.5250 C   0  0  0  0  0  0  0  0  0  0  0  0
  -21.4400  -29.2900   22.4020 N   0  0  0  0  0  0  0  0  0  0  0  0
  -23.4510  -28.8370   23.3330 O   0  0  0  0  0  0  0  0  0  0  0  0
  -20.9470  -29.8520   21.7230 H   0  0  0  0  0  0  0  0  0  0  0  0
  -18.0640  -28.1050   22.9110 C   0  0  0  0  0  0  0  0  0  0  0  0
  -20.6250  -28.3460   23.1680 C   0  0  0  0  0  3  0  0  0  0  0  0
  -20.7180  -26.9220   22.5760 C   0  0  0  0  0  2  0  0  0  0  0  0
  -19.6070  -26.6150   21.5670 C   0  0  0  0  0  2  0  0  0  0  0  0
  -18.2300  -26.7620   22.2210 C   0  0  0  0  0  2  0  0  0  0  0  0
  -19.1900  -28.8550   23.3420 C   0  0  0  0  0  0  0  0  0  0  0  0
  -18.9820  -30.1140   23.9480 C   0  0  0  0  0  3  0  0  0  0  0  0
  -17.6810  -30.6210   24.1270 C   0  0  0  0  0  3  0  0  0  0  0  0
  -16.5700  -29.8650   23.7140 C   0  0  0  0  0  3  0  0  0  0  0  0
  -16.7620  -28.6090   23.1120 C   0  0  0  0  0  3  0  0  0  0  0  0
  -25.9000  -32.5280   23.8450 C   0  0  0  0  0  3  0  0  0  0  0  0
  -26.4160  -31.7550   25.1180 C   0  0  1  0  0  0  0  0  0  0  0  0
  -25.3230  -31.5090   26.1840 C   0  0  0  0  0  1  0  0  0  0  0  0
  -27.0060  -30.3810   24.7210 C   0  0  0  0  0  1  0  0  0  0  0  0
  -27.5640  -32.5510   25.7840 C   0  0  0  0  0  1  0  0  0  0  0  0
  -25.5850  -33.9240   24.1760 N   0  0  0  0  0  0  0  0  0  0  0  0
  -25.9130  -34.9790   23.4180 C   0  0  0  0  0  0  0  0  0  0  0  0
  -26.5820  -34.8790   22.3870 O   0  0  0  0  0  0  0  0  0  0  0  0
  -24.9940  -34.0750   24.9800 H   0  0  0  0  0  0  0  0  0  0  0  0
  -24.1820  -36.7680   23.0600 C   0  0  0  0  0  1  0  0  0  0  0  0
  -25.4210  -36.3640   23.8770 C   0  0  0  0  0  3  0  0  0  0  0  0
  -27.5480  -37.2530   24.7200 C   0  0  0  0  0  1  0  0  0  0  0  0
  -26.4520  -37.4200   23.7710 N   0  0  0  0  0  0  0  0  0  0  0  0
  -26.0430  -38.3390   23.9160 H   0  0  0  0  0  0  0  0  0  0  0  0
  2  1  2  0
  3  5  1  0
  3  6  2  0
  4  7  2  0
  4  1  1  0
  5  4  1  0
  6  2  1  0
  7 10  1  0
  8  5  2  0
  8  9  1  0
  9  7  1  0
  9 51  1  0
 10 11  1  0
 12 10  1  0
 13 21  1  0
 14 19  1  0
 15 16  1  0
 15 14  1  0
 17 16  1  0
 17 26  1  0
 17 18  1  0
 19 13  1  0
 19 18  1  0
 20 13  2  0
 21  6  1  0
 21 22  1  0
 23 24  2  0
 24 43  1  0
 25 24  1  0
 25 28  1  0
 26 23  1  0
 26 27  1  0
 27 25  2  0
 28 29  1  0
 29 30  2  0
 31 34  1  0
 31 30  1  0
 32 31  2  0
 33 32  1  0
 33 28  2  0
 34 35  1  0
 35 36  1  0
 36 37  2  0
 38 37  1  0
 38 42  1  0
 39 38  2  0
 40 35  2  0
 40 39  1  0
 41 40  1  0
 43 44  1  0
 44 47  1  0
 44 46  1  0
 45 43  2  0
 48 49  1  0
 48 23  1  0
 50 48  1  0
 52 51  1  0
 53 52  2  0
 54 55  1  0
 54 52  1  0
 56 67  2  0
 57 55  1  0
 57 62  1  0
 58 66  1  0
 58 68  1  0
 59 65  1  0
 59 61  1  0
 60 66  1  0
 61 60  1  0
 62 61  2  0
 63 64  1  0
 63 57  2  0
 64 59  2  0
 65 58  1  0
 66 56  1  0
 68 70  2  0
 69 68  1  0
 71 69  1  0
 72 81  2  0
 72 77  1  0
 73 69  1  0
 73 77  1  0
 74 73  1  0
 75 76  1  0
 75 74  1  0
 76 72  1  0
 77 78  2  0
 78 79  1  0
 80 79  2  0
 81 80  1  0
 82 56  1  0
 82 87  1  0
 82 83  1  0
 83 86  1  1
 83 84  1  0
 85 83  1  0
 87 90  1  0
 88 92  1  0
 88 87  1  0
 89 88  2  0
 92 91  1  0
 94 92  1  0
 94 95  1  0
 94 93  1  0
M  ISO  4  13 100  21 100  54 101  55 101
M  END
>  <TORSDO>  (3) 
F 19

>  <SCORE>  (3) 
-14.790

>  <name>  (3) 
2

>  <ligand_id>  (3) 
2

>  <original_smiles>  (3) 
[H]c1c([H])c([H])c2c(c1[H])C([H])([H])C([H])([H])C([H])([H])C2([H])N([H])C(=O)C1([H])N(C(=O)C([H])(N([H])C(=O)C([H])(N([H])C([H])([H])[H])C([H])([H])[H])C(C([H])([H])[H])(C([H])([H])[H])C([H])([H])[H])C([H])([H])c2c([H])c(OC([H])([H])C(=O)C([H])([H])N3C(=[N+]([H])[H])c4c([H])c([H])c(N([H])C(=O)N5C([H])([H])C([H])([H])C([H])([H])C([H])(n6nc(-c7c([H])c([H])c(Oc8c([H])c([H])c(F)c([H])c8F)c([H])c7[H])c(C(=O)N([H])[H])c6N([H])[H])C5([H])[H])c([H])c4C3([H])[H])c([H])c([H])c2C1([H])[H]

>  <smiles>  (3) 
[H]c1c([H])c([H])c2c(c1[H])C([H])([H])C([H])([H])C([H])([H])C2([H])N([H])C(=O)C1([H])N(C(=O)C([H])(N([H])C(=O)C([H])(N([H])C([H])([H])[H])C([H])([H])[H])C(C([H])([H])[H])(C([H])([H])[H])C([H])([H])[H])C([H])([H])c2c([H])c(OC([H])([H])C(=O)C([H])([H])N3C(=[N+]([H])[H])c4c([H])c([H])c(N([H])C(=O)N5C([H])([H])C([H])([H])C([H])([H])C([H])(n6nc(-c7c([H])c([H])c(Oc8c([H])c([H])c(F)c([H])c8F)c([H])c7[H])c(C(=O)N([H])[H])c6N([H])[H])C5([H])[H])c([H])c4C3([H])[H])c([H])c([H])c2C1([H])[H]

$$$$
3:0:0
     RDKit          3D

 98106  0  0  1  0  0  0  0  0999 V2000
  -30.5940  -20.5620   21.5990 C   0  0  0  0  0  3  0  0  0  0  0  0
  -31.5880  -18.3810   20.9810 C   0  0  0  0  0  3  0  0  0  0  0  0
  -31.6120  -19.5900   21.7120 C   0  0  0  0  0  0  0  0  0  0  0  0
  -29.5240  -20.3830   20.7080 C   0  0  0  0  0  0  0  0  0  0  0  0
  -30.5350  -18.0690   20.1070 C   0  0  0  0  0  0  0  0  0  0  0  0
  -29.5430  -19.1200   19.9920 N   0  0  0  0  0  0  0  0  0  0  0  0
  -31.3130  -15.3740   19.8630 C   0  0  0  0  0  0  0  0  0  0  0  0
  -31.1770  -12.9460   19.0480 C   0  0  0  0  0  2  0  0  0  0  0  0
  -30.2260  -12.7840   17.8380 C   0  0  0  0  0  2  0  0  0  0  0  0
  -28.7660  -12.6170   18.3040 C   0  0  0  0  0  2  0  0  0  0  0  0
  -28.3760  -13.6320   19.4090 C   0  0  0  0  0  3  0  0  0  0  0  0
  -29.4470  -13.7330   20.5140 C   0  0  0  0  0  2  0  0  0  0  0  0
  -30.6960  -14.1150   19.8430 N   0  0  0  0  0  0  0  0  0  0  0  0
  -32.5430  -15.3700   19.7150 O   0  0  0  0  0  0  0  0  0  0  0  0
  -30.5370  -16.5760   19.6640 N   0  0  0  0  0  0  0  0  0  0  0  0
  -29.6240  -16.3150   19.3320 H   0  0  0  0  0  0  0  0  0  0  0  0
  -26.0470  -14.3160   20.2090 C   0  0  0  0  0  0  0  0  0  0  0  0
  -24.9550  -13.5910   20.5960 C   0  0  0  0  0  0  0  0  0  0  0  0
  -25.3560  -12.2200   20.5530 C   0  0  0  0  0  0  0  0  0  0  0  0
  -27.0420  -13.3920   19.9440 N   0  0  0  0  0  0  0  0  0  0  0  0
  -26.6380  -12.1250   20.2200 N   0  0  0  0  0  0  0  0  0  0  0  0
  -24.5730  -10.9930   20.7520 C   0  0  0  0  0  0  0  0  0  0  0  0
  -24.8680  -10.0890   21.7950 C   0  0  0  0  0  3  0  0  0  0  0  0
  -24.0870   -8.9270   21.9780 C   0  0  0  0  0  3  0  0  0  0  0  0
  -22.9970   -8.6620   21.1160 C   0  0  0  0  0  0  0  0  0  0  0  0
  -22.7210   -9.5540   20.0640 C   0  0  0  0  0  3  0  0  0  0  0  0
  -23.5030  -10.7070   19.8800 C   0  0  0  0  0  3  0  0  0  0  0  0
  -22.1990   -7.5470   21.2010 O   0  0  0  0  0  0  0  0  0  0  0  0
  -21.8790   -6.9820   22.4100 C   0  0  0  0  0  0  0  0  0  0  0  0
  -21.1610   -7.6910   23.3970 C   0  0  0  0  0  3  0  0  0  0  0  0
  -20.7940   -7.0490   24.5970 C   0  0  0  0  0  3  0  0  0  0  0  0
  -21.1340   -5.6990   24.8080 C   0  0  0  0  0  0  0  0  0  0  0  0
  -21.8450   -4.9910   23.8230 C   0  0  0  0  0  3  0  0  0  0  0  0
  -22.2130   -5.6290   22.6270 C   0  0  0  0  0  0  0  0  0  0  0  0
  -22.8790   -4.9350   21.6730 F   0  0  0  0  0  0  0  0  0  0  0  0
  -20.7750   -5.0810   25.9570 F   0  0  0  0  0  0  0  0  0  0  0  0
  -23.5860  -14.1340   20.8880 C   0  0  0  0  0  0  0  0  0  0  0  0
  -22.8550  -13.4940   21.7930 N   0  0  0  0  0  0  0  0  0  0  0  0
  -23.1780  -15.1610   20.3480 O   0  0  0  0  0  0  0  0  0  0  0  0
  -23.1990  -12.6630   22.2510 H   0  0  0  0  0  0  0  0  0  0  0  0
  -21.9360  -13.8410   22.0320 H   0  0  0  0  0  0  0  0  0  0  0  0
  -26.2680  -15.6800   20.0330 N   0  0  0  0  0  0  0  0  0  0  0  0
  -25.5290  -16.3620   20.1640 H   0  0  0  0  0  0  0  0  0  0  0  0
  -27.1200  -16.0900   19.6750 H   0  0  0  0  0  0  0  0  0  0  0  0
  -32.7310  -19.8430   22.6110 C   0  0  0  0  0  0  0  0  0  0  0  0
  -33.9210  -19.2910   22.3630 N   0  0  0  0  0  4  0  0  0  0  0  0
  -32.5610  -20.6270   23.6770 N   0  0  0  0  0  0  0  0  0  0  0  0
  -34.0240  -18.7430   21.5220 H   0  0  0  0  0  0  0  0  0  0  0  0
  -34.7350  -19.4310   22.9360 H   0  0  0  0  0  0  0  0  0  0  0  0
  -31.6370  -20.9910   23.8540 H   0  0  0  0  0  0  0  0  0  0  0  0
  -33.2930  -20.8380   24.3330 H   0  0  0  0  0  0  0  0  0  0  0  0
  -29.4750  -22.6080   19.4140 C   0  0  0  0  0  1  0  0  0  0  0  0
  -27.4230  -21.2150   19.5150 C   0  0  0  0  0  1  0  0  0  0  0  0
  -28.6020  -21.7560   20.3570 C   0  0  1  0  0  0  0  0  0  0  0  0
  -27.8350  -22.8590   21.4200 C   0  0  0  0  0  0  0  0  0  0  0  0
  -26.8250  -22.4310   21.9890 O   0  0  0  0  0  0  0  0  0  0  0  0
  -28.2210  -24.4530   21.8190 C   0  0  0  0  0  2  0  0  0  0  0  0
  -28.0990  -25.7550   20.9160 O   0  0  0  0  0  0  0  0  0  0  0  0
  -24.8340  -31.9250   23.5970 C   0  0  0  0  0  0  0  0  0  0  0  0
  -27.0880  -26.8000   20.9380 C   0  0  0  0  0  0  0  0  0  0  0  0
  -23.5570  -30.5160   22.0310 C   0  0  0  0  0  3  0  0  0  0  0  0
  -24.8990  -28.7340   20.7490 C   0  0  0  0  0  0  0  0  0  0  0  0
  -26.1260  -30.5710   21.8940 C   0  0  0  0  0  2  0  0  0  0  0  0
  -26.1040  -29.1280   21.3440 C   0  0  0  0  0  0  0  0  0  0  0  0
  -27.2030  -28.1800   21.4080 C   0  0  0  0  0  3  0  0  0  0  0  0
  -25.8590  -26.5140   20.3090 C   0  0  0  0  0  3  0  0  0  0  0  0
  -24.7930  -27.4380   20.2150 C   0  0  0  0  0  3  0  0  0  0  0  0
  -23.7470  -29.7280   20.7070 C   0  0  0  0  0  2  0  0  0  0  0  0
  -24.8610  -31.0290   22.5610 N   0  0  0  0  0  0  0  0  0  0  0  0
  -23.7640  -32.3200   24.0860 O   0  0  0  0  0  0  0  0  0  0  0  0
  -22.7900  -29.6300   23.0470 C   0  0  0  0  0  0  0  0  0  0  0  0
  -21.4900  -29.3920   22.7980 N   0  0  0  0  0  0  0  0  0  0  0  0
  -23.3750  -29.1510   24.0220 O   0  0  0  0  0  0  0  0  0  0  0  0
  -21.0740  -29.8270   21.9870 H   0  0  0  0  0  0  0  0  0  0  0  0
  -18.1540  -27.9860   22.9880 C   0  0  0  0  0  0  0  0  0  0  0  0
  -20.6060  -28.5380   23.5990 C   0  0  0  0  0  3  0  0  0  0  0  0
  -20.8970  -27.0420   23.3400 C   0  0  0  0  0  2  0  0  0  0  0  0
  -20.0100  -26.4340   22.2480 C   0  0  0  0  0  2  0  0  0  0  0  0
  -18.5320  -26.5600   22.6250 C   0  0  0  0  0  2  0  0  0  0  0  0
  -19.1300  -28.9190   23.4300 C   0  0  0  0  0  0  0  0  0  0  0  0
  -18.7290  -30.2400   23.7260 C   0  0  0  0  0  3  0  0  0  0  0  0
  -17.3850  -30.6330   23.5870 C   0  0  0  0  0  3  0  0  0  0  0  0
  -16.4210  -29.7030   23.1610 C   0  0  0  0  0  3  0  0  0  0  0  0
  -16.8050  -28.3830   22.8680 C   0  0  0  0  0  3  0  0  0  0  0  0
  -26.1450  -32.5090   24.2060 C   0  0  0  0  0  3  0  0  0  0  0  0
  -26.6070  -31.7600   25.5180 C   0  0  1  0  0  0  0  0  0  0  0  0
  -25.4810  -31.5870   26.5650 C   0  0  0  0  0  1  0  0  0  0  0  0
  -27.1570  -30.3540   25.1850 C   0  0  0  0  0  1  0  0  0  0  0  0
  -27.7640  -32.5390   26.1860 C   0  0  0  0  0  1  0  0  0  0  0  0
  -25.9150  -33.9350   24.4870 N   0  0  0  0  0  0  0  0  0  0  0  0
  -26.3510  -34.9470   23.7250 C   0  0  0  0  0  0  0  0  0  0  0  0
  -27.0540  -34.7740   22.7270 O   0  0  0  0  0  0  0  0  0  0  0  0
  -25.2980  -34.1470   25.2580 H   0  0  0  0  0  0  0  0  0  0  0  0
  -24.7650  -36.8480   23.2690 C   0  0  0  0  0  1  0  0  0  0  0  0
  -25.9450  -36.3770   24.1340 C   0  0  0  0  0  3  0  0  0  0  0  0
  -28.0990  -37.1450   25.0320 C   0  0  0  0  0  1  0  0  0  0  0  0
  -27.0510  -37.3550   24.0360 N   0  0  0  0  0  0  0  0  0  0  0  0
  -26.7030  -38.3050   24.1380 H   0  0  0  0  0  0  0  0  0  0  0  0
  1  3  1  0
  2  3  2  0
  3 45  1  0
  4  1  2  0
  5  2  1  0
  6  5  2  0
  6  4  1  0
  8 13  1  0
  9 10  1  0
  9  8  1  0
 11 10  1  0
 11 20  1  0
 11 12  1  0
 13  7  1  0
 13 12  1  0
 14  7  2  0
 15  7  1  0
 15  5  1  0
 16 15  1  0
 17 18  2  0
 18 37  1  0
 19 18  1  0
 19 22  1  0
 20 17  1  0
 20 21  1  0
 21 19  2  0
 22 23  1  0
 23 24  2  0
 25 28  1  0
 25 24  1  0
 26 25  2  0
 27 26  1  0
 27 22  2  0
 28 29  1  0
 29 34  2  0
 29 30  1  0
 30 31  2  0
 31 32  1  0
 32 36  1  0
 33 32  2  0
 34 33  1  0
 35 34  1  0
 37 38  1  0
 38 41  1  0
 38 40  1  0
 39 37  2  0
 42 43  1  0
 42 17  1  0
 44 42  1  0
 45 47  1  0
 46 45  2  0
 46 49  1  0
 47 50  1  0
 47 51  1  0
 48 46  1  0
 54 52  1  6
 53 54  1  0
 54  4  1  0
 54 55  1  0
 55 57  1  0
 55 56  2  0
 58 60  1  0
 58 57  1  0
 59 70  2  0
 60 65  1  0
 61 69  1  0
 61 71  1  0
 62 64  1  0
 63 69  1  0
 64 65  2  0
 64 63  1  0
 66 60  2  0
 67 66  1  0
 67 62  2  0
 68 62  1  0
 68 61  1  0
 69 59  1  0
 71 73  2  0
 72 71  1  0
 74 72  1  0
 75 80  1  0
 76 72  1  0
 77 76  1  0
 78 79  1  0
 78 77  1  0
 79 75  1  0
 80 76  1  0
 80 81  2  0
 82 81  1  0
 83 82  2  0
 84 75  2  0
 84 83  1  0
 85 59  1  0
 85 90  1  0
 85 86  1  0
 86 89  1  1
 86 87  1  0
 88 86  1  0
 90 93  1  0
 91 95  1  0
 91 90  1  0
 92 91  2  0
 95 94  1  0
 97 95  1  0
 97 98  1  0
 97 96  1  0
M  ISO  4   7 100  15 100  57 101  58 101
M  END
>  <TORSDO>  (4) 
F 20

>  <SCORE>  (4) 
-11.755

>  <name>  (4) 
3

>  <ligand_id>  (4) 
3

>  <original_smiles>  (4) 
[H]c1c([H])c([H])c2c(c1[H])C([H])([H])C([H])([H])C([H])([H])C2([H])N([H])C(=O)C1([H])N(C(=O)C([H])(N([H])C(=O)C([H])(N([H])C([H])([H])[H])C([H])([H])[H])C(C([H])([H])[H])(C([H])([H])[H])C([H])([H])[H])C([H])([H])c2c([H])c(OC([H])([H])C(=O)C(c3nc(N([H])C(=O)N4C([H])([H])C([H])([H])C([H])([H])C([H])(n5nc(-c6c([H])c([H])c(Oc7c([H])c([H])c(F)c([H])c7F)c([H])c6[H])c(C(=O)N([H])[H])c5N([H])[H])C4([H])[H])c([H])c(C(N([H])[H])=[N+]([H])[H])c3[H])(C([H])([H])[H])C([H])([H])[H])c([H])c([H])c2C1([H])[H]

>  <smiles>  (4) 
[H]c1c([H])c([H])c2c(c1[H])C([H])([H])C([H])([H])C([H])([H])C2([H])N([H])C(=O)C1([H])N(C(=O)C([H])(N([H])C(=O)C([H])(N([H])C([H])([H])[H])C([H])([H])[H])C(C([H])([H])[H])(C([H])([H])[H])C([H])([H])[H])C([H])([H])c2c([H])c(OC([H])([H])C(=O)C(c3nc(N([H])C(=O)N4C([H])([H])C([H])([H])C([H])([H])C([H])(n5nc(-c6c([H])c([H])c(Oc7c([H])c([H])c(F)c([H])c7F)c([H])c6[H])c(C(=O)N([H])[H])c5N([H])[H])C4([H])[H])c([H])c(C(N([H])[H])=[N+]([H])[H])c3[H])(C([H])([H])[H])C([H])([H])[H])c([H])c([H])c2C1([H])[H]

$$$$
4:0:0
     RDKit          3D

 93102  0  0  1  0  0  0  0  0999 V2000
  -29.4970  -22.7980   20.5550 C   0  0  0  0  0  0  0  0  0  0  0  0
  -30.5530  -21.8630   17.3640 C   0  0  0  0  0  2  0  0  0  0  0  0
  -31.0410  -20.6090   18.0710 C   0  0  0  0  0  2  0  0  0  0  0  0
  -29.3020  -22.2260   18.1500 C   0  0  0  0  0  2  0  0  0  0  0  0
  -30.5900  -20.7430   19.5420 C   0  0  0  0  0  3  0  0  0  0  0  0
  -29.6240  -21.8940   19.5390 N   0  0  0  0  0  0  0  0  0  0  0  0
  -29.5130  -22.4270   21.7310 O   0  0  0  0  0  0  0  0  0  0  0  0
  -28.7140  -17.6990   20.7510 C   0  0  0  0  0  3  0  0  0  0  0  0
  -29.8330  -16.9090   20.5780 C   0  0  0  0  0  0  0  0  0  0  0  0
  -30.1040  -19.3830   20.0540 C   0  0  0  0  0  0  0  0  0  0  0  0
  -28.8610  -19.0630   20.4290 N   0  0  0  0  0  0  0  0  0  0  0  0
  -31.1660  -17.9460   20.0740 S   0  0  0  0  0  0  0  0  0  0  0  0
  -30.6320  -14.5740   20.2230 C   0  0  0  0  0  0  0  0  0  0  0  0
  -30.3660  -12.4030   19.0580 C   0  0  0  0  0  2  0  0  0  0  0  0
  -29.3740  -12.6070   17.8910 C   0  0  0  0  0  2  0  0  0  0  0  0
  -27.9150  -12.4530   18.3660 C   0  0  0  0  0  2  0  0  0  0  0  0
  -27.6190  -13.2630   19.6560 C   0  0  0  0  0  3  0  0  0  0  0  0
  -28.7110  -13.0130   20.7200 C   0  0  0  0  0  2  0  0  0  0  0  0
  -30.0120  -13.3610   20.1200 N   0  0  0  0  0  0  0  0  0  0  0  0
  -31.7500  -14.7860   19.7430 O   0  0  0  0  0  0  0  0  0  0  0  0
  -29.8670  -15.5470   20.7810 N   0  0  0  0  0  0  0  0  0  0  0  0
  -29.0330  -15.1680   21.2040 H   0  0  0  0  0  0  0  0  0  0  0  0
  -25.2430  -13.8630   20.4420 C   0  0  0  0  0  0  0  0  0  0  0  0
  -24.1870  -13.0870   20.8350 C   0  0  0  0  0  0  0  0  0  0  0  0
  -24.6450  -11.7360   20.7730 C   0  0  0  0  0  0  0  0  0  0  0  0
  -26.2800  -12.9840   20.1710 N   0  0  0  0  0  0  0  0  0  0  0  0
  -25.9250  -11.6990   20.4260 N   0  0  0  0  0  0  0  0  0  0  0  0
  -23.9240  -10.4720   20.9680 C   0  0  0  0  0  0  0  0  0  0  0  0
  -24.3640   -9.5090   21.9030 C   0  0  0  0  0  3  0  0  0  0  0  0
  -23.6430   -8.3080   22.0850 C   0  0  0  0  0  3  0  0  0  0  0  0
  -22.4700   -8.0620   21.3330 C   0  0  0  0  0  0  0  0  0  0  0  0
  -22.0500   -9.0160   20.3880 C   0  0  0  0  0  3  0  0  0  0  0  0
  -22.7700  -10.2080   20.2040 C   0  0  0  0  0  3  0  0  0  0  0  0
  -21.7210   -6.9140   21.4240 O   0  0  0  0  0  0  0  0  0  0  0  0
  -21.6500   -6.1930   22.5890 C   0  0  0  0  0  0  0  0  0  0  0  0
  -21.1770   -6.7630   23.7920 C   0  0  0  0  0  3  0  0  0  0  0  0
  -21.0560   -5.9670   24.9480 C   0  0  0  0  0  3  0  0  0  0  0  0
  -21.3950   -4.6010   24.9020 C   0  0  0  0  0  0  0  0  0  0  0  0
  -21.8610   -4.0310   23.7040 C   0  0  0  0  0  3  0  0  0  0  0  0
  -21.9860   -4.8250   22.5510 C   0  0  0  0  0  0  0  0  0  0  0  0
  -22.4140   -4.2650   21.3930 F   0  0  0  0  0  0  0  0  0  0  0  0
  -21.2730   -3.8330   26.0100 F   0  0  0  0  0  0  0  0  0  0  0  0
  -22.7990  -13.5620   21.1570 C   0  0  0  0  0  0  0  0  0  0  0  0
  -22.0970  -12.8540   22.0340 N   0  0  0  0  0  0  0  0  0  0  0  0
  -22.3460  -14.5950   20.6640 O   0  0  0  0  0  0  0  0  0  0  0  0
  -22.4760  -12.0190   22.4550 H   0  0  0  0  0  0  0  0  0  0  0  0
  -21.1670  -13.1540   22.2920 H   0  0  0  0  0  0  0  0  0  0  0  0
  -25.4050  -15.2360   20.2690 N   0  0  0  0  0  0  0  0  0  0  0  0
  -24.6280  -15.8800   20.3710 H   0  0  0  0  0  0  0  0  0  0  0  0
  -26.2110  -15.6570   19.8270 H   0  0  0  0  0  0  0  0  0  0  0  0
  -29.5590  -24.3440   20.2720 C   0  0  0  0  0  2  0  0  0  0  0  0
  -28.2200  -25.1470   20.1460 C   0  0  0  0  0  2  0  0  0  0  0  0
  -28.3780  -26.6040   20.1830 O   0  0  0  0  0  0  0  0  0  0  0  0
  -24.6080  -31.9010   23.2320 C   0  0  0  0  0  0  0  0  0  0  0  0
  -27.2260  -27.3900   20.1570 C   0  0  0  0  0  0  0  0  0  0  0  0
  -23.4030  -30.5110   21.5830 C   0  0  0  0  0  3  0  0  0  0  0  0
  -24.8510  -28.9660   20.1580 C   0  0  0  0  0  0  0  0  0  0  0  0
  -25.9400  -30.8370   21.4010 C   0  0  0  0  0  2  0  0  0  0  0  0
  -26.0180  -29.4650   20.7510 C   0  0  0  0  0  0  0  0  0  0  0  0
  -27.2090  -28.6900   20.7380 C   0  0  0  0  0  3  0  0  0  0  0  0
  -26.0330  -26.9260   19.5560 C   0  0  0  0  0  3  0  0  0  0  0  0
  -24.8590  -27.7000   19.5540 C   0  0  0  0  0  3  0  0  0  0  0  0
  -23.6160  -29.8390   20.2020 C   0  0  0  0  0  2  0  0  0  0  0  0
  -24.6690  -31.0990   22.1290 N   0  0  0  0  0  0  0  0  0  0  0  0
  -23.5260  -32.1780   23.7660 O   0  0  0  0  0  0  0  0  0  0  0  0
  -22.7390  -29.4910   22.5380 C   0  0  0  0  0  0  0  0  0  0  0  0
  -21.4130  -29.3160   22.4060 N   0  0  0  0  0  0  0  0  0  0  0  0
  -23.4160  -28.8590   23.3540 O   0  0  0  0  0  0  0  0  0  0  0  0
  -20.9290  -29.8770   21.7190 H   0  0  0  0  0  0  0  0  0  0  0  0
  -18.0290  -28.1490   22.9060 C   0  0  0  0  0  0  0  0  0  0  0  0
  -20.5890  -28.3810   23.1720 C   0  0  0  0  0  3  0  0  0  0  0  0
  -20.6770  -26.9530   22.5870 C   0  0  0  0  0  2  0  0  0  0  0  0
  -19.5700  -26.6480   21.5730 C   0  0  0  0  0  2  0  0  0  0  0  0
  -18.1910  -26.8020   22.2210 C   0  0  0  0  0  2  0  0  0  0  0  0
  -19.1550  -28.8970   23.3390 C   0  0  0  0  0  0  0  0  0  0  0  0
  -18.9490  -30.1580   23.9400 C   0  0  0  0  0  3  0  0  0  0  0  0
  -17.6500  -30.6710   24.1120 C   0  0  0  0  0  3  0  0  0  0  0  0
  -16.5370  -29.9190   23.6950 C   0  0  0  0  0  3  0  0  0  0  0  0
  -16.7280  -28.6590   23.0990 C   0  0  0  0  0  3  0  0  0  0  0  0
  -25.8930  -32.5260   23.8580 C   0  0  0  0  0  3  0  0  0  0  0  0
  -26.4050  -31.7480   25.1320 C   0  0  1  0  0  0  0  0  0  0  0  0
  -25.3090  -31.5060   26.1960 C   0  0  0  0  0  1  0  0  0  0  0  0
  -26.9880  -30.3730   24.7340 C   0  0  0  0  0  1  0  0  0  0  0  0
  -27.5570  -32.5370   25.7990 C   0  0  0  0  0  1  0  0  0  0  0  0
  -25.5890  -33.9240   24.1930 N   0  0  0  0  0  0  0  0  0  0  0  0
  -25.9150  -34.9770   23.4320 C   0  0  0  0  0  0  0  0  0  0  0  0
  -26.5760  -34.8730   22.3950 O   0  0  0  0  0  0  0  0  0  0  0  0
  -25.0030  -34.0780   25.0000 H   0  0  0  0  0  0  0  0  0  0  0  0
  -24.1830  -36.7690   23.0960 C   0  0  0  0  0  1  0  0  0  0  0  0
  -25.4330  -36.3650   23.8950 C   0  0  0  0  0  3  0  0  0  0  0  0
  -27.5740  -37.2510   24.7060 C   0  0  0  0  0  1  0  0  0  0  0  0
  -26.4650  -37.4180   23.7720 N   0  0  0  0  0  0  0  0  0  0  0  0
  -26.0600  -38.3380   23.9210 H   0  0  0  0  0  0  0  0  0  0  0  0
  1  7  2  0
  2  3  1  0
  2  4  1  0
  3  5  1  0
  4  6  1  0
  5 10  1  0
  6  5  1  0
  6  1  1  0
  9  8  2  0
  9 21  1  0
 10 12  1  0
 10 11  2  0
 11  8  1  0
 12  9  1  0
 13 21  1  0
 14 19  1  0
 15 16  1  0
 15 14  1  0
 17 16  1  0
 17 26  1  0
 17 18  1  0
 19 13  1  0
 19 18  1  0
 20 13  2  0
 21 22  1  0
 23 24  2  0
 24 43  1  0
 25 24  1  0
 25 28  1  0
 26 27  1  0
 26 23  1  0
 27 25  2  0
 28 29  1  0
 29 30  2  0
 31 34  1  0
 31 30  1  0
 32 31  2  0
 33 32  1  0
 33 28  2  0
 34 35  1  0
 35 36  1  0
 36 37  2  0
 38 37  1  0
 38 42  1  0
 39 38  2  0
 40 35  2  0
 40 39  1  0
 41 40  1  0
 43 44  1  0
 44 47  1  0
 44 46  1  0
 45 43  2  0
 48 49  1  0
 48 23  1  0
 50 48  1  0
 51  1  1  0
 52 53  1  0
 52 51  1  0
 54 65  2  0
 55 53  1  0
 55 60  1  0
 56 64  1  0
 56 66  1  0
 57 63  1  0
 57 59  1  0
 58 64  1  0
 59 58  1  0
 60 59  2  0
 61 55  2  0
 62 61  1  0
 62 57  2  0
 63 56  1  0
 64 54  1  0
 66 68  2  0
 67 66  1  0
 69 67  1  0
 70 79  2  0
 70 75  1  0
 71 67  1  0
 71 75  1  0
 72 71  1  0
 73 74  1  0
 73 72  1  0
 74 70  1  0
 75 76  2  0
 76 77  1  0
 78 77  2  0
 79 78  1  0
 80 54  1  0
 80 85  1  0
 80 81  1  0
 81 84  1  1
 81 82  1  0
 83 81  1  0
 85 88  1  0
 86 90  1  0
 86 85  1  0
 87 86  2  0
 90 89  1  0
 92 90  1  0
 92 93  1  0
 92 91  1  0
M  ISO  4  13 100  21 100  52 101  53 101
M  END
>  <TORSDO>  (5) 
F 19

>  <SCORE>  (5) 
-14.380

>  <name>  (5) 
4

>  <ligand_id>  (5) 
4

>  <original_smiles>  (5) 
[H]c1nc(C2([H])N(C(=O)C([H])([H])C([H])([H])Oc3c([H])c([H])c4c(c3[H])C([H])([H])N(C(=O)C([H])(N([H])C(=O)C([H])(N([H])C([H])([H])[H])C([H])([H])[H])C(C([H])([H])[H])(C([H])([H])[H])C([H])([H])[H])C([H])(C(=O)N([H])C3([H])c5c([H])c([H])c([H])c([H])c5C([H])([H])C([H])([H])C3([H])[H])C4([H])[H])C([H])([H])C([H])([H])C2([H])[H])sc1N([H])C(=O)N1C([H])([H])C([H])([H])C([H])([H])C([H])(n2nc(-c3c([H])c([H])c(Oc4c([H])c([H])c(F)c([H])c4F)c([H])c3[H])c(C(=O)N([H])[H])c2N([H])[H])C1([H])[H]

>  <smiles>  (5) 
[H]c1nc(C2([H])N(C(=O)C([H])([H])C([H])([H])Oc3c([H])c([H])c4c(c3[H])C([H])([H])N(C(=O)C([H])(N([H])C(=O)C([H])(N([H])C([H])([H])[H])C([H])([H])[H])C(C([H])([H])[H])(C([H])([H])[H])C([H])([H])[H])C([H])(C(=O)N([H])C3([H])c5c([H])c([H])c([H])c([H])c5C([H])([H])C([H])([H])C3([H])[H])C4([H])[H])C([H])([H])C([H])([H])C2([H])[H])sc1N([H])C(=O)N1C([H])([H])C([H])([H])C([H])([H])C([H])(n2nc(-c3c([H])c([H])c(Oc4c([H])c([H])c(F)c([H])c4F)c([H])c3[H])c(C(=O)N([H])[H])c2N([H])[H])C1([H])[H]

$$$$
5:0:0
     RDKit          3D

 96105  0  0  1  0  0  0  0  0999 V2000
  -29.1190  -20.3620   20.4080 C   0  0  0  0  0  3  0  0  0  0  0  0
  -27.6780  -18.7800   19.2500 C   0  0  0  0  0  3  0  0  0  0  0  0
  -27.2590  -21.1820   19.0630 C   0  0  0  0  0  3  0  0  0  0  0  0
  -28.7820  -19.0040   20.1020 C   0  0  0  0  0  0  0  0  0  0  0  0
  -28.3610  -21.4700   19.9010 C   0  0  0  0  0  0  0  0  0  0  0  0
  -26.9260  -19.8540   18.7400 C   0  0  0  0  0  0  0  0  0  0  0  0
  -25.8560  -19.6070   17.9470 F   0  0  0  0  0  0  0  0  0  0  0  0
  -30.9930  -14.4260   19.9920 C   0  0  0  0  0  0  0  0  0  0  0  0
  -30.5720  -12.2040   18.9680 C   0  0  0  0  0  2  0  0  0  0  0  0
  -29.5970  -12.3160   17.7790 C   0  0  0  0  0  2  0  0  0  0  0  0
  -28.1400  -12.2300   18.2650 C   0  0  0  0  0  2  0  0  0  0  0  0
  -27.8570  -13.1840   19.4510 C   0  0  0  0  0  3  0  0  0  0  0  0
  -28.9360  -13.0580   20.5500 C   0  0  0  0  0  2  0  0  0  0  0  0
  -30.2490  -13.2820   19.9270 N   0  0  0  0  0  0  0  0  0  0  0  0
  -32.1230  -14.4790   19.4980 O   0  0  0  0  0  0  0  0  0  0  0  0
  -30.9140  -17.8640   21.1760 C   0  0  0  0  0  2  0  0  0  0  0  0
  -31.3020  -16.3990   21.4610 C   0  0  0  0  0  2  0  0  0  0  0  0
  -29.4470  -16.4100   19.9930 C   0  0  0  0  0  2  0  0  0  0  0  0
  -29.4580  -17.7640   20.7540 C   0  0  0  0  0  3  0  0  0  0  0  0
  -30.4580  -15.5220   20.6230 N   0  0  0  0  0  0  0  0  0  0  0  0
  -25.5340  -13.9460   20.2540 C   0  0  0  0  0  0  0  0  0  0  0  0
  -24.4400  -13.2440   20.6750 C   0  0  0  0  0  0  0  0  0  0  0  0
  -24.8190  -11.8680   20.6470 C   0  0  0  0  0  0  0  0  0  0  0  0
  -26.5140  -13.0000   19.9920 N   0  0  0  0  0  0  0  0  0  0  0  0
  -26.0910  -11.7460   20.2920 N   0  0  0  0  0  0  0  0  0  0  0  0
  -24.0270  -10.6540   20.8780 C   0  0  0  0  0  0  0  0  0  0  0  0
  -24.4370   -9.6730   21.8080 C   0  0  0  0  0  3  0  0  0  0  0  0
  -23.6520   -8.5220   22.0250 C   0  0  0  0  0  3  0  0  0  0  0  0
  -22.4410   -8.3440   21.3120 C   0  0  0  0  0  0  0  0  0  0  0  0
  -22.0510   -9.3120   20.3700 C   0  0  0  0  0  3  0  0  0  0  0  0
  -22.8370  -10.4560   20.1510 C   0  0  0  0  0  3  0  0  0  0  0  0
  -21.6260   -7.2450   21.4390 O   0  0  0  0  0  0  0  0  0  0  0  0
  -21.5820   -6.5130   22.5980 C   0  0  0  0  0  0  0  0  0  0  0  0
  -21.2340   -7.0960   23.8370 C   0  0  0  0  0  3  0  0  0  0  0  0
  -21.1330   -6.2930   24.9900 C   0  0  0  0  0  3  0  0  0  0  0  0
  -21.3720   -4.9080   24.9060 C   0  0  0  0  0  0  0  0  0  0  0  0
  -21.7160   -4.3250   23.6740 C   0  0  0  0  0  3  0  0  0  0  0  0
  -21.8180   -5.1260   22.5230 C   0  0  0  0  0  0  0  0  0  0  0  0
  -22.1270   -4.5550   21.3340 F   0  0  0  0  0  0  0  0  0  0  0  0
  -21.2680   -4.1340   26.0120 F   0  0  0  0  0  0  0  0  0  0  0  0
  -23.0830  -13.8070   20.9890 C   0  0  0  0  0  0  0  0  0  0  0  0
  -22.3520  -13.1730   21.9000 N   0  0  0  0  0  0  0  0  0  0  0  0
  -22.6840  -14.8440   20.4600 O   0  0  0  0  0  0  0  0  0  0  0  0
  -22.6900  -12.3350   22.3490 H   0  0  0  0  0  0  0  0  0  0  0  0
  -21.4410  -13.5310   22.1500 H   0  0  0  0  0  0  0  0  0  0  0  0
  -25.7700  -15.3000   20.0440 N   0  0  0  0  0  0  0  0  0  0  0  0
  -25.0360  -15.9930   20.1500 H   0  0  0  0  0  0  0  0  0  0  0  0
  -26.6090  -15.6670   19.6150 H   0  0  0  0  0  0  0  0  0  0  0  0
  -28.7110  -22.8100   20.2350 N   0  0  0  0  0  0  0  0  0  0  0  0
  -29.4050  -22.9290   20.9690 H   0  0  0  0  0  0  0  0  0  0  0  0
  -27.8800  -24.0170   19.9380 C   0  0  0  0  0  2  0  0  0  0  0  0
  -28.7020  -25.3050   19.5330 C   0  0  0  0  0  3  0  0  0  0  0  0
  -28.9370  -25.5160   18.0210 C   0  0  0  0  0  0  0  0  0  0  0  0
  -29.9020  -26.6240   17.6230 C   0  0  0  0  0  1  0  0  0  0  0  0
  -28.3750  -24.8420   17.1520 O   0  0  0  0  0  0  0  0  0  0  0  0
  -28.4460  -26.5890   20.1810 O   0  0  0  0  0  0  0  0  0  0  0  0
  -24.5470  -31.7400   23.1780 C   0  0  0  0  0  0  0  0  0  0  0  0
  -27.2670  -27.3160   20.0830 C   0  0  0  0  0  0  0  0  0  0  0  0
  -23.3860  -30.3570   21.4890 C   0  0  0  0  0  3  0  0  0  0  0  0
  -24.8760  -28.8520   20.0590 C   0  0  0  0  0  0  0  0  0  0  0  0
  -25.9140  -30.7220   21.3510 C   0  0  0  0  0  2  0  0  0  0  0  0
  -26.0180  -29.3590   20.6880 C   0  0  0  0  0  0  0  0  0  0  0  0
  -27.2110  -28.5960   20.6990 C   0  0  0  0  0  3  0  0  0  0  0  0
  -26.1070  -26.8380   19.4340 C   0  0  0  0  0  3  0  0  0  0  0  0
  -24.9180  -27.5970   19.4260 C   0  0  0  0  0  3  0  0  0  0  0  0
  -23.6320  -29.7140   20.0960 C   0  0  0  0  0  2  0  0  0  0  0  0
  -24.6330  -30.9580   22.0640 N   0  0  0  0  0  0  0  0  0  0  0  0
  -23.4540  -31.9940   23.7020 O   0  0  0  0  0  0  0  0  0  0  0  0
  -22.7210  -29.3170   22.4180 C   0  0  0  0  0  0  0  0  0  0  0  0
  -21.3990  -29.1340   22.2650 N   0  0  0  0  0  0  0  0  0  0  0  0
  -23.3900  -28.6770   23.2330 O   0  0  0  0  0  0  0  0  0  0  0  0
  -20.9230  -29.6990   21.5760 H   0  0  0  0  0  0  0  0  0  0  0  0
  -18.0160  -27.9320   22.6950 C   0  0  0  0  0  0  0  0  0  0  0  0
  -20.5710  -28.1780   23.0010 C   0  0  0  0  0  3  0  0  0  0  0  0
  -20.6790  -26.7640   22.3850 C   0  0  0  0  0  2  0  0  0  0  0  0
  -19.5850  -26.4720   21.3520 C   0  0  0  0  0  2  0  0  0  0  0  0
  -18.1970  -26.6010   21.9840 C   0  0  0  0  0  2  0  0  0  0  0  0
  -19.1320  -28.6790   23.1560 C   0  0  0  0  0  0  0  0  0  0  0  0
  -18.9090  -29.9270   23.7780 C   0  0  0  0  0  3  0  0  0  0  0  0
  -17.6040  -30.4240   23.9480 C   0  0  0  0  0  3  0  0  0  0  0  0
  -16.5020  -29.6740   23.5040 C   0  0  0  0  0  3  0  0  0  0  0  0
  -16.7090  -28.4300   22.8820 C   0  0  0  0  0  3  0  0  0  0  0  0
  -25.8150  -32.3700   23.8350 C   0  0  0  0  0  3  0  0  0  0  0  0
  -26.2890  -31.5980   25.1260 C   0  0  1  0  0  0  0  0  0  0  0  0
  -25.1620  -31.3580   26.1580 C   0  0  0  0  0  1  0  0  0  0  0  0
  -26.8870  -30.2220   24.7520 C   0  0  0  0  0  1  0  0  0  0  0  0
  -27.4170  -32.3940   25.8230 C   0  0  0  0  0  1  0  0  0  0  0  0
  -25.5020  -33.7700   24.1510 N   0  0  0  0  0  0  0  0  0  0  0  0
  -25.8760  -34.8180   23.4060 C   0  0  0  0  0  0  0  0  0  0  0  0
  -26.5920  -34.7110   22.4070 O   0  0  0  0  0  0  0  0  0  0  0  0
  -24.8730  -33.9310   24.9240 H   0  0  0  0  0  0  0  0  0  0  0  0
  -24.1820  -36.6270   22.9680 C   0  0  0  0  0  1  0  0  0  0  0  0
  -25.3780  -36.2120   23.8390 C   0  0  0  0  0  3  0  0  0  0  0  0
  -27.4720  -37.0840   24.7750 C   0  0  0  0  0  1  0  0  0  0  0  0
  -26.4230  -37.2550   23.7750 N   0  0  0  0  0  0  0  0  0  0  0  0
  -26.0170  -38.1790   23.8960 H   0  0  0  0  0  0  0  0  0  0  0  0
  2  4  2  0
  3  5  1  0
  4  1  1  0
  5 49  1  0
  5  1  2  0
  6  3  2  0
  6  2  1  0
  7  6  1  0
  8 20  1  0
  9 14  1  0
 10 11  1  0
 10  9  1  0
 12 11  1  0
 12 24  1  0
 12 13  1  0
 14  8  1  0
 14 13  1  0
 15  8  2  0
 16 17  1  0
 18 20  1  0
 18 19  1  0
 19  4  1  0
 19 16  1  0
 20 17  1  0
 21 22  2  0
 22 41  1  0
 23 22  1  0
 23 26  1  0
 24 21  1  0
 24 25  1  0
 25 23  2  0
 26 27  1  0
 27 28  2  0
 29 32  1  0
 29 28  1  0
 30 29  2  0
 31 30  1  0
 31 26  2  0
 32 33  1  0
 33 34  1  0
 34 35  2  0
 36 35  1  0
 36 40  1  0
 37 36  2  0
 38 33  2  0
 38 37  1  0
 39 38  1  0
 41 42  1  0
 42 45  1  0
 42 44  1  0
 43 41  2  0
 46 47  1  0
 46 21  1  0
 48 46  1  0
 49 50  1  0
 51 49  1  0
 52 51  1  0
 52 56  1  0
 53 52  1  0
 54 53  1  0
 55 53  2  0
 57 68  2  0
 58 56  1  0
 58 63  1  0
 59 67  1  0
 59 69  1  0
 60 66  1  0
 60 62  1  0
 61 67  1  0
 62 63  2  0
 62 61  1  0
 64 58  2  0
 65 64  1  0
 65 60  2  0
 66 59  1  0
 67 57  1  0
 69 71  2  0
 70 69  1  0
 72 70  1  0
 73 82  2  0
 73 78  1  0
 74 70  1  0
 74 78  1  0
 75 74  1  0
 76 77  1  0
 76 75  1  0
 77 73  1  0
 78 79  2  0
 79 80  1  0
 81 80  2  0
 82 81  1  0
 83 57  1  0
 83 88  1  0
 83 84  1  0
 84 87  1  1
 84 85  1  0
 86 84  1  0
 88 91  1  0
 89 93  1  0
 89 88  1  0
 90 89  2  0
 93 92  1  0
 95 93  1  0
 95 96  1  0
 95 94  1  0
M  ISO  4   8 100  20 100  52 101  56 101
M  END
>  <TORSDO>  (6) 
F 20

>  <SCORE>  (6) 
-13.884

>  <name>  (6) 
5

>  <ligand_id>  (6) 
5

>  <original_smiles>  (6) 
[H]c1c([H])c([H])c2c(c1[H])C([H])([H])C([H])([H])C([H])([H])C2([H])N([H])C(=O)C1([H])N(C(=O)C([H])(N([H])C(=O)C([H])(N([H])C([H])([H])[H])C([H])([H])[H])C(C([H])([H])[H])(C([H])([H])[H])C([H])([H])[H])C([H])([H])c2c([H])c(OC([H])(C(=O)C([H])([H])[H])C([H])([H])N([H])c3c([H])c(F)c([H])c(C4([H])C([H])([H])N(C(=O)N5C([H])([H])C([H])([H])C([H])([H])C([H])(n6nc(-c7c([H])c([H])c(Oc8c([H])c([H])c(F)c([H])c8F)c([H])c7[H])c(C(=O)N([H])[H])c6N([H])[H])C5([H])[H])C([H])([H])C4([H])[H])c3[H])c([H])c([H])c2C1([H])[H]

>  <smiles>  (6) 
[H]c1c([H])c([H])c2c(c1[H])C([H])([H])C([H])([H])C([H])([H])C2([H])N([H])C(=O)C1([H])N(C(=O)C([H])(N([H])C(=O)C([H])(N([H])C([H])([H])[H])C([H])([H])[H])C(C([H])([H])[H])(C([H])([H])[H])C([H])([H])[H])C([H])([H])c2c([H])c(OC([H])(C(=O)C([H])([H])[H])C([H])([H])N([H])c3c([H])c(F)c([H])c(C4([H])C([H])([H])N(C(=O)N5C([H])([H])C([H])([H])C([H])([H])C([H])(n6nc(-c7c([H])c([H])c(Oc8c([H])c([H])c(F)c([H])c8F)c([H])c7[H])c(C(=O)N([H])[H])c6N([H])[H])C5([H])[H])C([H])([H])C4([H])[H])c3[H])c([H])c([H])c2C1([H])[H]

$$$$
6:0:0
     RDKit          3D

 93 99  0  0  1  0  0  0  0  0999 V2000
  -31.8710  -23.1510   21.4470 C   0  0  0  0  0  0  0  0  0  0  0  0
  -31.2960  -23.9060   20.5160 N   0  0  0  0  0  0  0  0  0  0  0  0
  -33.0580  -23.3020   21.7490 O   0  0  0  0  0  0  0  0  0  0  0  0
  -31.7580  -24.6630   20.0310 H   0  0  0  0  0  0  0  0  0  0  0  0
  -27.3680  -23.0570   21.6470 C   0  0  0  0  0  2  0  0  0  0  0  0
  -28.8370  -24.2020   21.6840 C   0  0  0  0  0  2  0  0  0  0  0  0
  -27.4150  -21.5770   20.6310 C   0  0  0  0  0  2  0  0  0  0  0  0
  -29.6400  -22.0390   19.4990 C   0  0  0  0  0  2  0  0  0  0  0  0
  -29.9650  -23.6110   20.3230 C   0  0  0  0  0  3  0  0  0  0  0  0
  -28.6900  -20.6210   19.8910 C   0  0  0  0  0  2  0  0  0  0  0  0
  -29.6740  -16.7890   19.6820 C   0  0  0  0  0  0  0  0  0  0  0  0
  -30.0440  -13.9390   18.8990 C   0  0  0  0  0  2  0  0  0  0  0  0
  -29.2520  -12.9900   17.8810 C   0  0  0  0  0  2  0  0  0  0  0  0
  -27.9980  -12.3610   18.4890 C   0  0  0  0  0  2  0  0  0  0  0  0
  -27.3830  -13.3960   19.4360 C   0  0  0  0  0  3  0  0  0  0  0  0
  -28.3850  -14.1970   20.3780 C   0  0  0  0  0  2  0  0  0  0  0  0
  -29.2770  -15.2010   19.5940 N   0  0  0  0  0  0  0  0  0  0  0  0
  -30.9130  -16.5150   19.5070 O   0  0  0  0  0  0  0  0  0  0  0  0
  -28.9250  -18.4940   19.7930 N   0  0  0  0  0  2  0  0  0  0  0  0
  -27.9760  -18.1720   19.9310 H   0  0  0  0  0  0  0  0  0  0  0  0
  -25.0760  -13.7640   20.3610 C   0  0  0  0  0  0  0  0  0  0  0  0
  -24.0750  -12.9540   20.8050 C   0  0  0  0  0  0  0  0  0  0  0  0
  -24.5880  -11.6200   20.7600 C   0  0  0  0  0  0  0  0  0  0  0  0
  -26.1450  -12.9450   20.0750 N   0  0  0  0  0  0  0  0  0  0  0  0
  -25.8660  -11.6360   20.3590 N   0  0  0  0  0  0  0  0  0  0  0  0
  -23.8970  -10.3420   21.0230 C   0  0  0  0  0  0  0  0  0  0  0  0
  -24.3700   -9.4220   21.9850 C   0  0  0  0  0  3  0  0  0  0  0  0
  -23.6650   -8.2240   22.2440 C   0  0  0  0  0  3  0  0  0  0  0  0
  -22.4690   -7.9350   21.5430 C   0  0  0  0  0  0  0  0  0  0  0  0
  -22.0110   -8.8440   20.5740 C   0  0  0  0  0  3  0  0  0  0  0  0
  -22.7170  -10.0330   20.3130 C   0  0  0  0  0  3  0  0  0  0  0  0
  -21.7340   -6.7850   21.7080 O   0  0  0  0  0  0  0  0  0  0  0  0
  -21.7190   -6.1010   22.8980 C   0  0  0  0  0  0  0  0  0  0  0  0
  -21.3010   -6.7120   24.1010 C   0  0  0  0  0  3  0  0  0  0  0  0
  -21.2320   -5.9560   25.2890 C   0  0  0  0  0  3  0  0  0  0  0  0
  -21.5730   -4.5900   25.2760 C   0  0  0  0  0  0  0  0  0  0  0  0
  -21.9840   -3.9780   24.0790 C   0  0  0  0  0  3  0  0  0  0  0  0
  -22.0530   -4.7320   22.8930 C   0  0  0  0  0  0  0  0  0  0  0  0
  -22.4290   -4.1310   21.7380 F   0  0  0  0  0  0  0  0  0  0  0  0
  -21.5030   -3.8610   26.4150 F   0  0  0  0  0  0  0  0  0  0  0  0
  -22.6840  -13.3990   21.1470 C   0  0  0  0  0  0  0  0  0  0  0  0
  -22.0350  -12.7160   22.0810 N   0  0  0  0  0  0  0  0  0  0  0  0
  -22.1890  -14.3980   20.6240 O   0  0  0  0  0  0  0  0  0  0  0  0
  -22.4520  -11.9120   22.5250 H   0  0  0  0  0  0  0  0  0  0  0  0
  -21.1050  -13.0000   22.3560 H   0  0  0  0  0  0  0  0  0  0  0  0
  -25.1620  -15.1360   20.1360 N   0  0  0  0  0  0  0  0  0  0  0  0
  -24.3700  -15.7550   20.2730 H   0  0  0  0  0  0  0  0  0  0  0  0
  -25.9640  -15.5990   19.7300 H   0  0  0  0  0  0  0  0  0  0  0  0
  -31.2930  -22.0940   23.6510 C   0  0  0  0  0  1  0  0  0  0  0  0
  -31.5480  -20.6710   21.6480 C   0  0  0  0  0  1  0  0  0  0  0  0
  -30.9920  -22.0380   22.1280 C   0  0  2  0  0  0  0  0  0  0  0  0
  -29.3620  -22.1220   21.8830 C   0  0  0  0  0  1  0  0  0  0  0  0
  -27.9190  -24.1020   19.9030 O   0  0  0  0  0  1  0  0  0  0  0  0
  -24.6370  -31.5720   22.9530 C   0  0  0  0  0  0  0  0  0  0  0  0
  -27.2010  -25.7980   19.9980 C   0  0  0  0  0  0  0  0  0  0  0  0
  -23.5060  -30.1520   21.3080 C   0  0  0  0  0  3  0  0  0  0  0  0
  -24.9920  -28.3570   19.9440 C   0  0  0  0  0  0  0  0  0  0  0  0
  -26.1110  -30.0560   21.3200 C   0  0  0  0  0  2  0  0  0  0  0  0
  -26.1850  -28.5360   20.6540 C   0  0  0  0  0  0  0  0  0  0  0  0
  -27.2190  -27.3130   20.6510 C   0  0  0  0  0  3  0  0  0  0  0  0
  -25.9880  -26.0800   19.2180 C   0  0  0  0  0  3  0  0  0  0  0  0
  -24.9840  -27.1550   19.2010 C   0  0  0  0  0  3  0  0  0  0  0  0
  -23.8100  -29.3970   19.9640 C   0  0  0  0  0  2  0  0  0  0  0  0
  -24.7860  -30.6490   21.9120 N   0  0  0  0  0  0  0  0  0  0  0  0
  -23.5210  -31.9000   23.4060 O   0  0  0  0  0  0  0  0  0  0  0  0
  -22.7060  -29.2440   22.2900 C   0  0  0  0  0  0  0  0  0  0  0  0
  -21.3600  -29.1720   22.1900 N   0  0  0  0  0  0  0  0  0  0  0  0
  -23.3240  -28.5890   23.1300 O   0  0  0  0  0  0  0  0  0  0  0  0
  -20.8980  -29.7460   21.4980 H   0  0  0  0  0  0  0  0  0  0  0  0
  -17.9270  -28.0720   22.8040 C   0  0  0  0  0  0  0  0  0  0  0  0
  -20.5090  -28.2430   22.9570 C   0  0  0  0  0  3  0  0  0  0  0  0
  -20.5240  -26.8320   22.3220 C   0  0  0  0  0  2  0  0  0  0  0  0
  -19.3730  -26.6000   21.3390 C   0  0  0  0  0  2  0  0  0  0  0  0
  -18.0240  -26.7580   22.0460 C   0  0  0  0  0  2  0  0  0  0  0  0
  -19.0910  -28.7780   23.2160 C   0  0  0  0  0  0  0  0  0  0  0  0
  -18.9360  -30.0040   23.8990 C   0  0  0  0  0  3  0  0  0  0  0  0
  -17.6560  -30.5260   24.1640 C   0  0  0  0  0  3  0  0  0  0  0  0
  -16.5090  -29.8200   23.7600 C   0  0  0  0  0  3  0  0  0  0  0  0
  -16.6460  -28.5920   23.0870 C   0  0  0  0  0  3  0  0  0  0  0  0
  -25.8500  -32.2770   23.6440 C   0  0  0  0  0  3  0  0  0  0  0  0
  -26.3300  -31.5260   24.9480 C   0  0  1  0  0  0  0  0  0  0  0  0
  -25.2040  -31.2790   25.9830 C   0  0  0  0  0  1  0  0  0  0  0  0
  -26.9470  -30.1530   24.6130 C   0  0  0  0  0  1  0  0  0  0  0  0
  -27.4490  -32.3400   25.6410 C   0  0  0  0  0  1  0  0  0  0  0  0
  -25.4730  -33.6690   24.0090 N   0  0  0  0  0  0  0  0  0  0  0  0
  -25.8090  -34.7820   23.3390 C   0  0  0  0  0  0  0  0  0  0  0  0
  -26.5020  -34.7480   22.3200 O   0  0  0  0  0  0  0  0  0  0  0  0
  -24.8530  -33.7650   24.8000 H   0  0  0  0  0  0  0  0  0  0  0  0
  -24.0580  -36.5880   23.0910 C   0  0  0  0  0  1  0  0  0  0  0  0
  -25.3080  -36.1460   23.8720 C   0  0  0  0  0  3  0  0  0  0  0  0
  -27.4280  -37.0380   24.7460 C   0  0  0  0  0  1  0  0  0  0  0  0
  -26.3240  -37.2240   23.8080 N   0  0  0  0  0  0  0  0  0  0  0  0
  -25.9020  -38.1300   23.9900 H   0  0  0  0  0  0  0  0  0  0  0  0
  1  3  2  0
  1 51  1  0
  2  1  1  0
  4  2  1  0
  5  6  1  0
  7  5  1  0
  8 10  1  0
  8  9  1  0
  9  2  1  0
  9  6  1  0
 10  7  1  0
 11 19  1  0
 12 17  1  0
 13 14  1  0
 13 12  1  0
 15 14  1  0
 15 24  1  0
 15 16  1  0
 17 11  1  0
 17 16  1  0
 18 11  2  0
 19 20  1  0
 21 22  2  0
 22 41  1  0
 23 22  1  0
 23 26  1  0
 24 25  1  0
 24 21  1  0
 25 23  2  0
 26 27  1  0
 27 28  2  0
 29 32  1  0
 29 28  1  0
 30 29  2  0
 31 30  1  0
 31 26  2  0
 32 33  1  0
 33 34  1  0
 34 35  2  0
 36 35  1  0
 36 40  1  0
 37 36  2  0
 38 33  2  0
 38 37  1  0
 39 38  1  0
 41 42  1  0
 42 45  1  0
 42 44  1  0
 43 41  2  0
 46 47  1  0
 46 21  1  0
 48 46  1  0
 51 50  1  6
 51 49  1  0
 52 51  1  0
 53 55  1  0
 54 65  2  0
 55 60  1  0
 56 64  1  0
 56 66  1  0
 57 63  1  0
 57 59  1  0
 58 64  1  0
 59 58  1  0
 60 59  2  0
 61 55  2  0
 62 61  1  0
 62 57  2  0
 63 56  1  0
 64 54  1  0
 66 68  2  0
 67 66  1  0
 69 67  1  0
 70 79  2  0
 70 75  1  0
 71 67  1  0
 71 75  1  0
 72 71  1  0
 73 74  1  0
 73 72  1  0
 74 70  1  0
 75 76  2  0
 76 77  1  0
 78 77  2  0
 79 78  1  0
 80 54  1  0
 80 85  1  0
 80 81  1  0
 81 84  1  1
 81 82  1  0
 83 81  1  0
 85 88  1  0
 86 90  1  0
 86 85  1  0
 87 86  2  0
 90 89  1  0
 92 90  1  0
 92 93  1  0
 92 91  1  0
M  ISO  4  11 100  19 100  52 101  53 101
M  END
>  <TORSDO>  (7) 
F 19

>  <SCORE>  (7) 
-11.924

>  <name>  (7) 
6

>  <ligand_id>  (7) 
6

>  <original_smiles>  (7) 
[H]c1c([H])c(N([H])C(=O)N2C([H])([H])C([H])([H])C([H])([H])C([H])(n3nc(-c4c([H])c([H])c(Oc5c([H])c([H])c(F)c([H])c5F)c([H])c4[H])c(C(=O)N([H])[H])c3N([H])[H])C2([H])[H])c([H])c(N([H])C(=O)C(C([H])([H])[H])(C([H])([H])[H])C([H])([H])Oc2c([H])c([H])c3c(c2[H])C([H])([H])N(C(=O)C([H])(N([H])C(=O)C([H])(N([H])C([H])([H])[H])C([H])([H])[H])C(C([H])([H])[H])(C([H])([H])[H])C([H])([H])[H])C([H])(C(=O)N([H])C2([H])c4c([H])c([H])c([H])c([H])c4C([H])([H])C([H])([H])C2([H])[H])C3([H])[H])c1[H]

>  <smiles>  (7) 
[H]c1c([H])c(N([H])C(=O)N2C([H])([H])C([H])([H])C([H])([H])C([H])(n3nc(-c4c([H])c([H])c(Oc5c([H])c([H])c(F)c([H])c5F)c([H])c4[H])c(C(=O)N([H])[H])c3N([H])[H])C2([H])[H])c([H])c(N([H])C(=O)C(C([H])([H])[H])(C([H])([H])[H])C([H])([H])Oc2c([H])c([H])c3c(c2[H])C([H])([H])N(C(=O)C([H])(N([H])C(=O)C([H])(N([H])C([H])([H])[H])C([H])([H])[H])C(C([H])([H])[H])(C([H])([H])[H])C([H])([H])[H])C([H])(C(=O)N([H])C2([H])c4c([H])c([H])c([H])c([H])c4C([H])([H])C([H])([H])C2([H])[H])C3([H])[H])c1[H]

$$$$
7:0:0
     RDKit          3D

 92100  0  0  1  0  0  0  0  0999 V2000
  -28.6620  -23.6410   19.8200 C   0  0  0  0  0  3  0  0  0  0  0  0
  -29.8270  -24.0110   18.9920 N   0  0  0  0  0  4  0  0  0  0  0  0
  -30.6290  -24.2100   19.5640 H   0  0  0  0  0  0  0  0  0  0  0  0
  -29.6230  -24.8280   18.4430 H   0  0  0  0  0  0  0  0  0  0  0  0
  -30.0590  -23.2560   18.3700 H   0  0  0  0  0  0  0  0  0  0  0  0
  -29.0210  -22.2150   20.5140 C   0  0  0  0  0  3  0  0  0  0  0  0
  -28.9810  -21.0080   19.9600 N   0  0  0  0  0  0  0  0  0  0  0  0
  -30.5430  -14.8180   20.3480 C   0  0  0  0  0  0  0  0  0  0  0  0
  -30.3920  -12.5190   19.3520 C   0  0  0  0  0  2  0  0  0  0  0  0
  -29.4460  -12.5460   18.1300 C   0  0  0  0  0  2  0  0  0  0  0  0
  -27.9790  -12.3590   18.5690 C   0  0  0  0  0  2  0  0  0  0  0  0
  -27.5940  -13.2650   19.7690 C   0  0  0  0  0  3  0  0  0  0  0  0
  -28.6560  -13.2070   20.8880 C   0  0  0  0  0  2  0  0  0  0  0  0
  -29.9400  -13.5790   20.2810 N   0  0  0  0  0  0  0  0  0  0  0  0
  -31.7500  -14.9160   20.0990 O   0  0  0  0  0  0  0  0  0  0  0  0
  -30.7370  -19.7120   21.2110 C   0  0  0  0  0  2  0  0  0  0  0  0
  -29.5840  -19.7670   20.4600 C   0  0  0  0  0  0  0  0  0  0  0  0
  -29.9800  -17.3930   20.5520 C   0  0  0  0  0  3  0  0  0  0  0  0
  -29.1660  -18.4220   20.1110 N   0  0  0  0  0  0  0  0  0  0  0  0
  -29.7120  -15.9370   20.3960 N   0  0  0  0  0  0  0  0  0  0  0  0
  -31.3400  -18.0650   21.4530 S   0  0  0  0  0  0  0  0  0  0  0  0
  -28.7350  -15.7070   20.3270 H   0  0  0  0  0  0  0  0  0  0  0  0
  -25.2090  -13.8550   20.5020 C   0  0  0  0  0  0  0  0  0  0  0  0
  -24.1450  -13.0810   20.8760 C   0  0  0  0  0  0  0  0  0  0  0  0
  -24.6130  -11.7300   20.8550 C   0  0  0  0  0  0  0  0  0  0  0  0
  -26.2540  -12.9770   20.2680 N   0  0  0  0  0  0  0  0  0  0  0  0
  -25.9030  -11.6950   20.5440 N   0  0  0  0  0  0  0  0  0  0  0  0
  -23.8890  -10.4680   21.0500 C   0  0  0  0  0  0  0  0  0  0  0  0
  -24.3310   -9.4990   21.9790 C   0  0  0  0  0  3  0  0  0  0  0  0
  -23.6080   -8.3020   22.1630 C   0  0  0  0  0  3  0  0  0  0  0  0
  -22.4280   -8.0640   21.4190 C   0  0  0  0  0  0  0  0  0  0  0  0
  -22.0040   -9.0210   20.4790 C   0  0  0  0  0  3  0  0  0  0  0  0
  -22.7290  -10.2100   20.2930 C   0  0  0  0  0  3  0  0  0  0  0  0
  -21.6760   -6.9180   21.5130 O   0  0  0  0  0  0  0  0  0  0  0  0
  -21.6500   -6.1660   22.6600 C   0  0  0  0  0  0  0  0  0  0  0  0
  -21.2580   -6.7130   23.9020 C   0  0  0  0  0  3  0  0  0  0  0  0
  -21.1780   -5.8880   25.0410 C   0  0  0  0  0  3  0  0  0  0  0  0
  -21.4810   -4.5170   24.9390 C   0  0  0  0  0  0  0  0  0  0  0  0
  -21.8670   -3.9690   23.7040 C   0  0  0  0  0  3  0  0  0  0  0  0
  -21.9480   -4.7930   22.5660 C   0  0  0  0  0  0  0  0  0  0  0  0
  -22.2990   -4.2550   21.3730 F   0  0  0  0  0  0  0  0  0  0  0  0
  -21.3980   -3.7220   26.0330 F   0  0  0  0  0  0  0  0  0  0  0  0
  -22.7460  -13.5560   21.1420 C   0  0  0  0  0  0  0  0  0  0  0  0
  -22.0170  -12.8640   22.0110 N   0  0  0  0  0  0  0  0  0  0  0  0
  -22.3070  -14.5770   20.6140 O   0  0  0  0  0  0  0  0  0  0  0  0
  -22.3850  -12.0420   22.4630 H   0  0  0  0  0  0  0  0  0  0  0  0
  -21.0790  -13.1670   22.2310 H   0  0  0  0  0  0  0  0  0  0  0  0
  -25.3640  -15.2250   20.3140 N   0  0  0  0  0  0  0  0  0  0  0  0
  -24.5820  -15.8640   20.4110 H   0  0  0  0  0  0  0  0  0  0  0  0
  -26.1870  -15.6710   19.9320 H   0  0  0  0  0  0  0  0  0  0  0  0
  -28.2040  -24.9480   20.6930 C   0  0  0  0  0  2  0  0  0  0  0  0
  -28.3180  -26.3750   20.1770 O   0  0  0  0  0  0  0  0  0  0  0  0
  -24.6220  -31.8790   23.2240 C   0  0  0  0  0  0  0  0  0  0  0  0
  -27.2080  -27.2560   20.1880 C   0  0  0  0  0  0  0  0  0  0  0  0
  -23.4110  -30.4790   21.5930 C   0  0  0  0  0  3  0  0  0  0  0  0
  -24.8550  -28.9110   20.1670 C   0  0  0  0  0  0  0  0  0  0  0  0
  -25.9520  -30.7820   21.3970 C   0  0  0  0  0  2  0  0  0  0  0  0
  -26.0290  -29.3920   20.7580 C   0  0  0  0  0  0  0  0  0  0  0  0
  -27.2110  -28.5800   20.7490 C   0  0  0  0  0  3  0  0  0  0  0  0
  -26.0100  -26.8370   19.5750 C   0  0  0  0  0  3  0  0  0  0  0  0
  -24.8500  -27.6430   19.5630 C   0  0  0  0  0  3  0  0  0  0  0  0
  -23.6210  -29.7960   20.2140 C   0  0  0  0  0  2  0  0  0  0  0  0
  -24.6820  -31.0660   22.1280 N   0  0  0  0  0  0  0  0  0  0  0  0
  -23.5400  -32.1590   23.7620 O   0  0  0  0  0  0  0  0  0  0  0  0
  -22.7480  -29.4680   22.5600 C   0  0  0  0  0  0  0  0  0  0  0  0
  -21.4220  -29.2880   22.4370 N   0  0  0  0  0  0  0  0  0  0  0  0
  -23.4280  -28.8480   23.3820 O   0  0  0  0  0  0  0  0  0  0  0  0
  -20.9320  -29.8380   21.7450 H   0  0  0  0  0  0  0  0  0  0  0  0
  -18.0510  -28.0660   22.9390 C   0  0  0  0  0  0  0  0  0  0  0  0
  -20.6070  -28.3520   23.2140 C   0  0  0  0  0  3  0  0  0  0  0  0
  -20.7240  -26.9160   22.6510 C   0  0  0  0  0  2  0  0  0  0  0  0
  -19.6280  -26.5740   21.6370 C   0  0  0  0  0  2  0  0  0  0  0  0
  -18.2420  -26.7130   22.2740 C   0  0  0  0  0  2  0  0  0  0  0  0
  -19.1620  -28.8420   23.3650 C   0  0  0  0  0  0  0  0  0  0  0  0
  -18.9300  -30.1070   23.9470 C   0  0  0  0  0  3  0  0  0  0  0  0
  -17.6200  -30.5970   24.1050 C   0  0  0  0  0  3  0  0  0  0  0  0
  -16.5240  -29.8200   23.6920 C   0  0  0  0  0  3  0  0  0  0  0  0
  -16.7410  -28.5560   23.1140 C   0  0  0  0  0  3  0  0  0  0  0  0
  -25.9050  -32.5150   23.8410 C   0  0  0  0  0  3  0  0  0  0  0  0
  -26.4270  -31.7440   25.1160 C   0  0  1  0  0  0  0  0  0  0  0  0
  -25.3390  -31.5110   26.1900 C   0  0  0  0  0  1  0  0  0  0  0  0
  -27.0050  -30.3640   24.7250 C   0  0  0  0  0  1  0  0  0  0  0  0
  -27.5830  -32.5370   25.7700 C   0  0  0  0  0  1  0  0  0  0  0  0
  -25.5930  -33.9120   24.1760 N   0  0  0  0  0  0  0  0  0  0  0  0
  -25.9220  -34.9690   23.4210 C   0  0  0  0  0  0  0  0  0  0  0  0
  -26.5880  -34.8690   22.3860 O   0  0  0  0  0  0  0  0  0  0  0  0
  -24.9980  -34.0630   24.9770 H   0  0  0  0  0  0  0  0  0  0  0  0
  -24.1920  -36.7650   23.0830 C   0  0  0  0  0  1  0  0  0  0  0  0
  -25.4370  -36.3560   23.8850 C   0  0  0  0  0  3  0  0  0  0  0  0
  -27.5790  -37.2380   24.7030 C   0  0  0  0  0  1  0  0  0  0  0  0
  -26.4690  -37.4100   23.7690 N   0  0  0  0  0  0  0  0  0  0  0  0
  -26.0640  -38.3300   23.9210 H   0  0  0  0  0  0  0  0  0  0  0  0
  1  6  1  0
  1 51  1  0
  2  3  1  0
  2  1  1  0
  4  2  1  0
  5  2  1  0
  7 17  1  0
  7  6  2  0
  8 20  1  0
  9 14  1  0
 10 11  1  0
 10  9  1  0
 12 11  1  0
 12 26  1  0
 12 13  1  0
 14  8  1  0
 14 13  1  0
 15  8  2  0
 16 21  1  0
 17 16  1  0
 18 20  1  0
 18 21  1  0
 19 17  2  0
 19 18  1  0
 22 20  1  0
 23 24  2  0
 24 43  1  0
 25 24  1  0
 25 28  1  0
 26 23  1  0
 26 27  1  0
 27 25  2  0
 28 29  1  0
 29 30  2  0
 31 34  1  0
 31 30  1  0
 32 31  2  0
 33 32  1  0
 33 28  2  0
 34 35  1  0
 35 36  1  0
 36 37  2  0
 38 37  1  0
 38 42  1  0
 39 38  2  0
 40 35  2  0
 40 39  1  0
 41 40  1  0
 43 44  1  0
 44 47  1  0
 44 46  1  0
 45 43  2  0
 48 49  1  0
 48 23  1  0
 50 48  1  0
 52 54  1  0
 52 51  1  0
 53 64  2  0
 54 59  1  0
 55 63  1  0
 55 65  1  0
 56 62  1  0
 56 58  1  0
 57 63  1  0
 58 57  1  0
 59 58  2  0
 60 54  2  0
 61 60  1  0
 61 56  2  0
 62 55  1  0
 63 53  1  0
 65 67  2  0
 66 65  1  0
 68 66  1  0
 69 78  2  0
 69 74  1  0
 70 66  1  0
 70 74  1  0
 71 70  1  0
 72 73  1  0
 72 71  1  0
 73 69  1  0
 74 75  2  0
 75 76  1  0
 77 76  2  0
 78 77  1  0
 79 53  1  0
 79 84  1  0
 79 80  1  0
 80 83  1  1
 80 81  1  0
 82 80  1  0
 84 87  1  0
 85 89  1  0
 85 84  1  0
 86 85  2  0
 89 88  1  0
 91 89  1  0
 91 92  1  0
 91 90  1  0
M  ISO  4   8 100  20 100  51 101  52 101
M  END
>  <TORSDO>  (8) 
F 19

>  <SCORE>  (8) 
-14.425

>  <name>  (8) 
7

>  <ligand_id>  (8) 
7

>  <original_smiles>  (8) 
[H]C(=Nc1nc(N([H])C(=O)N2C([H])([H])C([H])([H])C([H])([H])C([H])(n3nc(-c4c([H])c([H])c(Oc5c([H])c([H])c(F)c([H])c5F)c([H])c4[H])c(C(=O)N([H])[H])c3N([H])[H])C2([H])[H])sc1[H])C([H])(C([H])([H])Oc1c([H])c([H])c2c(c1[H])C([H])([H])N(C(=O)C([H])(N([H])C(=O)C([H])(N([H])C([H])([H])[H])C([H])([H])[H])C(C([H])([H])[H])(C([H])([H])[H])C([H])([H])[H])C([H])(C(=O)N([H])C1([H])c3c([H])c([H])c([H])c([H])c3C([H])([H])C([H])([H])C1([H])[H])C2([H])[H])[N+]([H])([H])[H]

>  <smiles>  (8) 
[H]C(=Nc1nc(N([H])C(=O)N2C([H])([H])C([H])([H])C([H])([H])C([H])(n3nc(-c4c([H])c([H])c(Oc5c([H])c([H])c(F)c([H])c5F)c([H])c4[H])c(C(=O)N([H])[H])c3N([H])[H])C2([H])[H])sc1[H])C([H])(C([H])([H])Oc1c([H])c([H])c2c(c1[H])C([H])([H])N(C(=O)C([H])(N([H])C(=O)C([H])(N([H])C([H])([H])[H])C([H])([H])[H])C(C([H])([H])[H])(C([H])([H])[H])C([H])([H])[H])C([H])(C(=O)N([H])C1([H])c3c([H])c([H])c([H])c([H])c3C([H])([H])C([H])([H])C1([H])[H])C2([H])[H])[N+]([H])([H])[H]

$$$$
8:0:0
     RDKit          3D

 93102  0  0  1  0  0  0  0  0999 V2000
  -29.6940  -20.0320   19.6730 C   0  0  0  0  0  3  0  0  0  0  0  0
  -30.2890  -18.8830   20.3890 C   0  0  0  0  0  0  0  0  0  0  0  0
  -30.6400  -19.3020   21.6520 C   0  0  0  0  0  0  0  0  0  0  0  0
  -29.6030  -21.2750   20.3290 C   0  0  0  0  0  0  0  0  0  0  0  0
  -30.2480  -21.0080   21.9370 S   0  0  0  0  0  0  0  0  0  0  0  0
  -28.9890  -23.7890   20.3900 C   0  0  0  0  0  0  0  0  0  0  0  0
  -29.0950  -22.5060   19.8530 N   0  0  0  0  0  0  0  0  0  0  0  0
  -29.4650  -24.0630   21.4960 O   0  0  0  0  0  0  0  0  0  0  0  0
  -28.7180  -22.4520   18.9150 H   0  0  0  0  0  0  0  0  0  0  0  0
  -28.2410  -24.9590   19.5720 C   0  0  0  0  0  2  0  0  0  0  0  0
  -28.2520  -26.3850   20.0910 O   0  0  0  0  0  0  0  0  0  0  0  0
  -24.6000  -31.8810   23.1470 C   0  0  0  0  0  0  0  0  0  0  0  0
  -27.1430  -27.2740   20.0200 C   0  0  0  0  0  0  0  0  0  0  0  0
  -23.3710  -30.4970   21.5170 C   0  0  0  0  0  3  0  0  0  0  0  0
  -24.7960  -28.9520   20.0540 C   0  0  0  0  0  0  0  0  0  0  0  0
  -25.9150  -30.7890   21.3070 C   0  0  0  0  0  2  0  0  0  0  0  0
  -25.9770  -29.4120   20.6440 C   0  0  0  0  0  0  0  0  0  0  0  0
  -27.1500  -28.5850   20.6180 C   0  0  0  0  0  3  0  0  0  0  0  0
  -25.9310  -26.8950   19.3970 C   0  0  0  0  0  3  0  0  0  0  0  0
  -24.7800  -27.7040   19.4180 C   0  0  0  0  0  3  0  0  0  0  0  0
  -23.5650  -29.8360   20.1270 C   0  0  0  0  0  2  0  0  0  0  0  0
  -24.6480  -31.0760   22.0440 N   0  0  0  0  0  0  0  0  0  0  0  0
  -23.5240  -32.1580   23.6980 O   0  0  0  0  0  0  0  0  0  0  0  0
  -22.7160  -29.4760   22.4790 C   0  0  0  0  0  0  0  0  0  0  0  0
  -21.3930  -29.2770   22.3480 N   0  0  0  0  0  0  0  0  0  0  0  0
  -23.3990  -28.8670   23.3070 O   0  0  0  0  0  0  0  0  0  0  0  0
  -20.9010  -29.8220   21.6540 H   0  0  0  0  0  0  0  0  0  0  0  0
  -18.0460  -27.9670   22.7850 C   0  0  0  0  0  0  0  0  0  0  0  0
  -20.5840  -28.3320   23.1200 C   0  0  0  0  0  3  0  0  0  0  0  0
  -20.7560  -26.8900   22.5910 C   0  0  0  0  0  2  0  0  0  0  0  0
  -19.6980  -26.4980   21.5550 C   0  0  0  0  0  2  0  0  0  0  0  0
  -18.2930  -26.6070   22.1550 C   0  0  0  0  0  2  0  0  0  0  0  0
  -19.1220  -28.7830   23.2240 C   0  0  0  0  0  0  0  0  0  0  0  0
  -18.8380  -30.0530   23.7740 C   0  0  0  0  0  3  0  0  0  0  0  0
  -17.5100  -30.5070   23.8890 C   0  0  0  0  0  3  0  0  0  0  0  0
  -16.4480  -29.6900   23.4650 C   0  0  0  0  0  3  0  0  0  0  0  0
  -16.7170  -28.4210   22.9190 C   0  0  0  0  0  3  0  0  0  0  0  0
  -25.8910  -32.5080   23.7560 C   0  0  0  0  0  3  0  0  0  0  0  0
  -26.4420  -31.7110   25.0020 C   0  0  1  0  0  0  0  0  0  0  0  0
  -25.3760  -31.4420   26.0900 C   0  0  0  0  0  1  0  0  0  0  0  0
  -27.0230  -30.3450   24.5690 C   0  0  0  0  0  1  0  0  0  0  0  0
  -27.6050  -32.4980   25.6530 C   0  0  0  0  0  1  0  0  0  0  0  0
  -25.5760  -33.8950   24.1280 N   0  0  0  0  0  0  0  0  0  0  0  0
  -25.8940  -34.9720   23.3980 C   0  0  0  0  0  0  0  0  0  0  0  0
  -26.5500  -34.9020   22.3540 O   0  0  0  0  0  0  0  0  0  0  0  0
  -24.9880  -34.0220   24.9380 H   0  0  0  0  0  0  0  0  0  0  0  0
  -24.1510  -36.7690   23.1270 C   0  0  0  0  0  1  0  0  0  0  0  0
  -25.4080  -36.3450   23.9040 C   0  0  0  0  0  3  0  0  0  0  0  0
  -27.5550  -37.2150   24.7220 C   0  0  0  0  0  1  0  0  0  0  0  0
  -26.4340  -37.4050   23.8040 N   0  0  0  0  0  0  0  0  0  0  0  0
  -26.0260  -38.3180   23.9880 H   0  0  0  0  0  0  0  0  0  0  0  0
  -30.5940  -17.6170   23.6580 C   0  0  0  0  0  2  0  0  0  0  0  0
  -31.3060  -18.8490   24.1590 C   0  0  0  0  0  2  0  0  0  0  0  0
  -31.3540  -18.4940   22.6900 C   0  0  0  0  0  3  0  0  0  0  0  0
  -30.6190  -17.4540   19.7680 C   0  0  0  0  0  2  0  0  0  0  0  0
  -30.9770  -14.9130   20.2450 C   0  0  0  0  0  0  0  0  0  0  0  0
  -30.7460  -12.5810   19.3760 C   0  0  0  0  0  2  0  0  0  0  0  0
  -29.8360  -12.5920   18.1280 C   0  0  0  0  0  2  0  0  0  0  0  0
  -28.3580  -12.4590   18.5400 C   0  0  0  0  0  2  0  0  0  0  0  0
  -27.9730  -13.4190   19.6970 C   0  0  0  0  0  3  0  0  0  0  0  0
  -29.0110  -13.3980   20.8430 C   0  0  0  0  0  2  0  0  0  0  0  0
  -30.3220  -13.6990   20.2540 N   0  0  0  0  0  0  0  0  0  0  0  0
  -32.1590  -14.9560   19.8950 O   0  0  0  0  0  0  0  0  0  0  0  0
  -30.2520  -16.0930   20.3780 N   0  0  0  0  0  0  0  0  0  0  0  0
  -29.2990  -15.9940   20.6910 H   0  0  0  0  0  0  0  0  0  0  0  0
  -25.5900  -14.0710   20.3800 C   0  0  0  0  0  0  0  0  0  0  0  0
  -24.5040  -13.3280   20.7520 C   0  0  0  0  0  0  0  0  0  0  0  0
  -24.9390  -11.9670   20.7550 C   0  0  0  0  0  0  0  0  0  0  0  0
  -26.6180  -13.1670   20.1770 N   0  0  0  0  0  0  0  0  0  0  0  0
  -26.2320  -11.8970   20.4650 N   0  0  0  0  0  0  0  0  0  0  0  0
  -24.1820  -10.7240   20.9590 C   0  0  0  0  0  0  0  0  0  0  0  0
  -24.5760   -9.7690   21.9230 C   0  0  0  0  0  3  0  0  0  0  0  0
  -23.8210   -8.5920   22.1160 C   0  0  0  0  0  3  0  0  0  0  0  0
  -22.6570   -8.3610   21.3440 C   0  0  0  0  0  0  0  0  0  0  0  0
  -22.2820   -9.3040   20.3700 C   0  0  0  0  0  3  0  0  0  0  0  0
  -23.0380  -10.4720   20.1760 C   0  0  0  0  0  3  0  0  0  0  0  0
  -21.8760   -7.2340   21.4430 O   0  0  0  0  0  0  0  0  0  0  0  0
  -21.7740   -6.5310   22.6160 C   0  0  0  0  0  0  0  0  0  0  0  0
  -21.3430   -7.1400   23.8160 C   0  0  0  0  0  3  0  0  0  0  0  0
  -21.1860   -6.3650   24.9820 C   0  0  0  0  0  3  0  0  0  0  0  0
  -21.4490   -4.9830   24.9500 C   0  0  0  0  0  0  0  0  0  0  0  0
  -21.8740   -4.3740   23.7560 C   0  0  0  0  0  3  0  0  0  0  0  0
  -22.0320   -5.1460   22.5920 C   0  0  0  0  0  0  0  0  0  0  0  0
  -22.4210   -4.5500   21.4390 F   0  0  0  0  0  0  0  0  0  0  0  0
  -21.2920   -4.2360   26.0680 F   0  0  0  0  0  0  0  0  0  0  0  0
  -23.1140  -13.8400   20.9950 C   0  0  0  0  0  0  0  0  0  0  0  0
  -22.3660  -13.1890   21.8800 N   0  0  0  0  0  0  0  0  0  0  0  0
  -22.6990  -14.8540   20.4340 O   0  0  0  0  0  0  0  0  0  0  0  0
  -22.7150  -12.3690   22.3520 H   0  0  0  0  0  0  0  0  0  0  0  0
  -21.4350  -13.5170   22.0890 H   0  0  0  0  0  0  0  0  0  0  0  0
  -25.7830  -15.4350   20.1760 N   0  0  0  0  0  0  0  0  0  0  0  0
  -25.0240  -16.1020   20.2650 H   0  0  0  0  0  0  0  0  0  0  0  0
  -26.6340  -15.8490   19.8180 H   0  0  0  0  0  0  0  0  0  0  0  0
  1  4  2  0
  1  2  1  0
  2  3  2  0
  3  5  1  0
  3 54  1  0
  4  5  1  0
  6  8  2  0
  7  4  1  0
  7  6  1  0
  9  7  1  0
 10 11  1  0
 10  6  1  0
 12 23  2  0
 13 11  1  0
 13 18  1  0
 14 22  1  0
 14 24  1  0
 15 21  1  0
 15 17  1  0
 16 22  1  0
 17 16  1  0
 18 17  2  0
 19 20  1  0
 19 13  2  0
 20 15  2  0
 21 14  1  0
 22 12  1  0
 24 26  2  0
 25 24  1  0
 27 25  1  0
 28 37  2  0
 28 33  1  0
 29 25  1  0
 29 33  1  0
 30 29  1  0
 31 32  1  0
 31 30  1  0
 32 28  1  0
 33 34  2  0
 34 35  1  0
 36 35  2  0
 37 36  1  0
 38 12  1  0
 38 43  1  0
 38 39  1  0
 39 42  1  1
 39 40  1  0
 41 39  1  0
 43 46  1  0
 44 48  1  0
 44 43  1  0
 45 44  2  0
 48 47  1  0
 50 48  1  0
 50 51  1  0
 50 49  1  0
 52 53  1  0
 54 52  1  0
 54 53  1  0
 55 64  1  0
 55  2  1  0
 56 62  1  0
 56 64  1  0
 57 62  1  0
 58 59  1  0
 58 57  1  0
 60 59  1  0
 60 69  1  0
 60 61  1  0
 62 61  1  0
 63 56  2  0
 64 65  1  0
 66 67  2  0
 67 68  1  0
 67 86  1  0
 68 71  1  0
 69 66  1  0
 69 70  1  0
 70 68  2  0
 71 72  1  0
 72 73  2  0
 74 77  1  0
 74 73  1  0
 75 74  2  0
 76 75  1  0
 76 71  2  0
 77 78  1  0
 78 79  1  0
 79 80  2  0
 81 80  1  0
 81 85  1  0
 82 81  2  0
 83 78  2  0
 83 82  1  0
 84 83  1  0
 86 87  1  0
 87 90  1  0
 87 89  1  0
 88 86  2  0
 91 92  1  0
 91 66  1  0
 93 91  1  0
M  ISO  4  10 101  11 101  56 100  64 100
M  END
>  <TORSDO>  (9) 
F 20

>  <SCORE>  (9) 
-12.001

>  <name>  (9) 
8

>  <ligand_id>  (9) 
8

>  <original_smiles>  (9) 
[H]c1c([H])c([H])c2c(c1[H])C([H])([H])C([H])([H])C([H])([H])C2([H])N([H])C(=O)C1([H])N(C(=O)C([H])(N([H])C(=O)C([H])(N([H])C([H])([H])[H])C([H])([H])[H])C(C([H])([H])[H])(C([H])([H])[H])C([H])([H])[H])C([H])([H])c2c([H])c(OC([H])([H])C(=O)N([H])c3sc(C4([H])C([H])([H])C4([H])[H])c(C([H])([H])N([H])C(=O)N4C([H])([H])C([H])([H])C([H])([H])C([H])(n5nc(-c6c([H])c([H])c(Oc7c([H])c([H])c(F)c([H])c7F)c([H])c6[H])c(C(=O)N([H])[H])c5N([H])[H])C4([H])[H])c3[H])c([H])c([H])c2C1([H])[H]

>  <smiles>  (9) 
[H]c1c([H])c([H])c2c(c1[H])C([H])([H])C([H])([H])C([H])([H])C2([H])N([H])C(=O)C1([H])N(C(=O)C([H])(N([H])C(=O)C([H])(N([H])C([H])([H])[H])C([H])([H])[H])C(C([H])([H])[H])(C([H])([H])[H])C([H])([H])[H])C([H])([H])c2c([H])c(OC([H])([H])C(=O)N([H])c3sc(C4([H])C([H])([H])C4([H])[H])c(C([H])([H])N([H])C(=O)N4C([H])([H])C([H])([H])C([H])([H])C([H])(n5nc(-c6c([H])c([H])c(Oc7c([H])c([H])c(F)c([H])c7F)c([H])c6[H])c(C(=O)N([H])[H])c5N([H])[H])C4([H])[H])c3[H])c([H])c([H])c2C1([H])[H]

$$$$
9:0:0
     RDKit          3D

 95103  0  0  1  0  0  0  0  0999 V2000
  -30.4510  -18.9420   19.6300 C   0  0  0  0  0  3  0  0  0  0  0  0
  -29.4750  -17.8690   19.7040 C   0  0  0  0  0  0  0  0  0  0  0  0
  -28.2690  -18.4910   19.4310 C   0  0  0  0  0  0  0  0  0  0  0  0
  -29.7650  -20.0790   19.2590 C   0  0  0  0  0  0  0  0  0  0  0  0
  -28.4610  -19.8080   19.1140 O   0  0  0  0  0  0  0  0  0  0  0  0
  -26.3650  -18.3570   17.8460 C   0  0  0  0  0  1  0  0  0  0  0  0
  -25.9700  -18.9590   20.2690 C   0  0  0  0  0  1  0  0  0  0  0  0
  -26.4700  -16.6260   19.6190 C   0  0  0  0  0  1  0  0  0  0  0  0
  -26.8070  -18.0990   19.2980 C   0  0  2  0  0  0  0  0  0  0  0  0
  -30.2010  -21.4040   19.0210 N   0  0  0  0  0  0  0  0  0  0  0  0
  -31.1900  -21.6180   18.9060 H   0  0  0  0  0  0  0  0  0  0  0  0
  -29.3560  -22.5370   19.5040 C   0  0  0  0  0  2  0  0  0  0  0  0
  -29.4680  -23.9240   18.7920 C   0  0  0  0  0  0  0  0  0  0  0  0
  -30.3610  -24.1560   17.9680 O   0  0  0  0  0  0  0  0  0  0  0  0
  -28.3950  -24.9900   19.1890 C   0  0  0  0  0  2  0  0  0  0  0  0
  -28.5740  -26.3480   18.6820 O   0  0  0  0  0  0  0  0  0  0  0  0
  -25.1460  -30.7250   23.2350 C   0  0  0  0  0  0  0  0  0  0  0  0
  -27.4820  -27.1840   18.9230 C   0  0  0  0  0  0  0  0  0  0  0  0
  -23.8380  -29.9180   21.2950 C   0  0  0  0  0  3  0  0  0  0  0  0
  -25.1810  -28.7740   19.4490 C   0  0  0  0  0  0  0  0  0  0  0  0
  -26.3810  -30.1650   21.1420 C   0  0  0  0  0  2  0  0  0  0  0  0
  -26.3780  -29.0320   20.1290 C   0  0  0  0  0  0  0  0  0  0  0  0
  -27.5360  -28.2490   19.8650 C   0  0  0  0  0  3  0  0  0  0  0  0
  -26.2650  -26.9670   18.2370 C   0  0  0  0  0  3  0  0  0  0  0  0
  -25.1190  -27.7410   18.5020 C   0  0  0  0  0  3  0  0  0  0  0  0
  -23.9900  -29.6550   19.7760 C   0  0  0  0  0  2  0  0  0  0  0  0
  -25.1400  -30.2680   21.9520 N   0  0  0  0  0  0  0  0  0  0  0  0
  -24.0870  -30.8930   23.8570 O   0  0  0  0  0  0  0  0  0  0  0  0
  -23.1370  -28.7000   21.9440 C   0  0  0  0  0  0  0  0  0  0  0  0
  -21.8130  -28.5950   21.7410 N   0  0  0  0  0  0  0  0  0  0  0  0
  -23.7790  -27.8780   22.6020 O   0  0  0  0  0  0  0  0  0  0  0  0
  -21.3560  -29.3240   21.2150 H   0  0  0  0  0  0  0  0  0  0  0  0
  -18.4150  -27.3770   21.8180 C   0  0  0  0  0  0  0  0  0  0  0  0
  -20.9640  -27.5060   22.2230 C   0  0  0  0  0  3  0  0  0  0  0  0
  -21.0720  -26.2730   21.3010 C   0  0  0  0  0  2  0  0  0  0  0  0
  -20.0020  -26.2440   20.2070 C   0  0  0  0  0  2  0  0  0  0  0  0
  -18.6010  -26.2410   20.8250 C   0  0  0  0  0  2  0  0  0  0  0  0
  -19.5280  -27.9800   22.4600 C   0  0  0  0  0  0  0  0  0  0  0  0
  -19.3110  -29.0570   23.3440 C   0  0  0  0  0  3  0  0  0  0  0  0
  -18.0090  -29.5270   23.5940 C   0  0  0  0  0  3  0  0  0  0  0  0
  -16.9060  -28.9180   22.9730 C   0  0  0  0  0  3  0  0  0  0  0  0
  -17.1110  -27.8460   22.0890 C   0  0  0  0  0  3  0  0  0  0  0  0
  -26.4740  -31.0790   23.9730 C   0  0  0  0  0  3  0  0  0  0  0  0
  -26.2920  -32.3970   24.5920 N   0  0  0  0  0  0  0  0  0  0  0  0
  -26.7470  -33.5480   24.0800 C   0  0  0  0  0  0  0  0  0  0  0  0
  -27.4360  -33.6020   23.0570 O   0  0  0  0  0  0  0  0  0  0  0  0
  -25.6860  -32.4360   25.3990 H   0  0  0  0  0  0  0  0  0  0  0  0
  -25.2200  -35.5500   24.0980 C   0  0  0  0  0  1  0  0  0  0  0  0
  -26.3820  -34.8480   24.8190 C   0  0  0  0  0  3  0  0  0  0  0  0
  -28.5530  -35.3050   25.8710 C   0  0  0  0  0  1  0  0  0  0  0  0
  -27.5190  -35.7840   24.9570 N   0  0  0  0  0  0  0  0  0  0  0  0
  -27.2000  -36.6890   25.2910 H   0  0  0  0  0  0  0  0  0  0  0  0
  -26.8920  -30.0060   25.0540 C   0  0  1  0  0  0  0  0  0  0  0  0
  -25.7670  -29.6710   26.0600 C   0  0  0  0  0  1  0  0  0  0  0  0
  -27.3370  -28.6880   24.3760 C   0  0  0  0  0  1  0  0  0  0  0  0
  -28.1070  -30.5210   25.8610 C   0  0  0  0  0  1  0  0  0  0  0  0
  -29.6450  -16.3530   19.9770 C   0  0  0  0  0  2  0  0  0  0  0  0
  -31.2070  -14.4170   19.4010 C   0  0  0  0  0  0  0  0  0  0  0  0
  -30.9010  -12.0290   18.8550 C   0  0  0  0  0  2  0  0  0  0  0  0
  -29.8650  -11.8500   17.7340 C   0  0  0  0  0  2  0  0  0  0  0  0
  -28.4510  -11.7290   18.3350 C   0  0  0  0  0  2  0  0  0  0  0  0
  -28.1270  -12.8230   19.3980 C   0  0  0  0  0  3  0  0  0  0  0  0
  -29.3010  -13.0330   20.3860 C   0  0  0  0  0  2  0  0  0  0  0  0
  -30.5230  -13.2450   19.5960 N   0  0  0  0  0  0  0  0  0  0  0  0
  -32.3650  -14.4100   19.0010 O   0  0  0  0  0  0  0  0  0  0  0  0
  -30.5390  -15.5620   19.1230 N   0  0  0  0  0  0  0  0  0  0  0  0
  -31.1160  -16.1460   18.5300 H   0  0  0  0  0  0  0  0  0  0  0  0
  -25.9150  -13.4740   20.5370 C   0  0  0  0  0  0  0  0  0  0  0  0
  -24.8700  -12.7320   21.0220 C   0  0  0  0  0  0  0  0  0  0  0  0
  -25.2320  -11.3660   20.8050 C   0  0  0  0  0  0  0  0  0  0  0  0
  -26.8540  -12.5670   20.0750 N   0  0  0  0  0  0  0  0  0  0  0  0
  -26.4580  -11.2850   20.3000 N   0  0  0  0  0  0  0  0  0  0  0  0
  -24.4610  -10.1310   20.9960 C   0  0  0  0  0  0  0  0  0  0  0  0
  -24.8610   -9.1330   21.9150 C   0  0  0  0  0  3  0  0  0  0  0  0
  -24.0770   -7.9710   22.0920 C   0  0  0  0  0  3  0  0  0  0  0  0
  -22.8800   -7.7970   21.3570 C   0  0  0  0  0  0  0  0  0  0  0  0
  -22.5050   -8.7780   20.4250 C   0  0  0  0  0  3  0  0  0  0  0  0
  -23.2870   -9.9310   20.2420 C   0  0  0  0  0  3  0  0  0  0  0  0
  -22.0700   -6.6890   21.4530 O   0  0  0  0  0  0  0  0  0  0  0  0
  -21.7820   -6.1120   22.6620 C   0  0  0  0  0  0  0  0  0  0  0  0
  -21.1870   -6.8420   23.7170 C   0  0  0  0  0  3  0  0  0  0  0  0
  -20.8550   -6.1930   24.9230 C   0  0  0  0  0  3  0  0  0  0  0  0
  -21.0930   -4.8140   25.0720 C   0  0  0  0  0  0  0  0  0  0  0  0
  -21.6770   -4.0820   24.0220 C   0  0  0  0  0  3  0  0  0  0  0  0
  -22.0220   -4.7300   22.8210 C   0  0  0  0  0  0  0  0  0  0  0  0
  -22.5670   -4.0150   21.8080 F   0  0  0  0  0  0  0  0  0  0  0  0
  -20.7570   -4.1890   26.2260 F   0  0  0  0  0  0  0  0  0  0  0  0
  -23.5620  -13.2560   21.5460 C   0  0  0  0  0  0  0  0  0  0  0  0
  -22.9260  -12.5310   22.4700 N   0  0  0  0  0  0  0  0  0  0  0  0
  -23.1240  -14.3450   21.1780 O   0  0  0  0  0  0  0  0  0  0  0  0
  -23.2880  -11.6540   22.8100 H   0  0  0  0  0  0  0  0  0  0  0  0
  -22.0570  -12.8730   22.8520 H   0  0  0  0  0  0  0  0  0  0  0  0
  -26.1430  -14.8410   20.4110 N   0  0  0  0  0  0  0  0  0  0  0  0
  -25.4890  -15.5470   20.7230 H   0  0  0  0  0  0  0  0  0  0  0  0
  -26.9040  -15.2270   19.8670 H   0  0  0  0  0  0  0  0  0  0  0  0
  1  2  1  0
  2 57  1  0
  3  2  2  0
  4  1  2  0
  5  4  1  0
  5  3  1  0
  9  6  1  6
  9  3  1  0
  9  8  1  0
  9  7  1  0
 10  4  1  0
 10 12  1  0
 11 10  1  0
 13 15  1  0
 13 12  1  0
 14 13  2  0
 16 18  1  0
 16 15  1  0
 17 28  2  0
 18 23  1  0
 19 29  1  0
 19 27  1  0
 20 26  1  0
 20 22  1  0
 21 27  1  0
 22 21  1  0
 23 22  2  0
 24 25  1  0
 24 18  2  0
 25 20  2  0
 26 19  1  0
 27 17  1  0
 29 31  2  0
 30 29  1  0
 32 30  1  0
 33 42  2  0
 33 38  1  0
 34 30  1  0
 34 38  1  0
 35 34  1  0
 36 37  1  0
 36 35  1  0
 37 33  1  0
 38 39  2  0
 39 40  1  0
 41 40  2  0
 42 41  1  0
 43 17  1  0
 43 44  1  0
 43 53  1  0
 44 47  1  0
 45 44  1  0
 45 49  1  0
 46 45  2  0
 49 48  1  0
 49 51  1  0
 51 52  1  0
 51 50  1  0
 53 56  1  1
 53 54  1  0
 55 53  1  0
 58 64  1  0
 59 64  1  0
 60 61  1  0
 60 59  1  0
 62 61  1  0
 62 71  1  0
 62 63  1  0
 64 63  1  0
 65 58  2  0
 66 58  1  0
 66 57  1  0
 67 66  1  0
 68 69  2  0
 69 88  1  0
 70 73  1  0
 70 69  1  0
 71 72  1  0
 71 68  1  0
 72 70  2  0
 73 74  1  0
 74 75  2  0
 76 79  1  0
 76 75  1  0
 77 76  2  0
 78 77  1  0
 78 73  2  0
 79 80  1  0
 80 85  2  0
 80 81  1  0
 81 82  2  0
 82 83  1  0
 83 87  1  0
 84 83  2  0
 85 84  1  0
 86 85  1  0
 88 89  1  0
 89 91  1  0
 89 92  1  0
 90 88  2  0
 93 68  1  0
 93 94  1  0
 95 93  1  0
M  ISO  4  15 101  16 101  58 100  66 100
M  END
>  <TORSDO>  (10) 
F 22

>  <SCORE>  (10) 
-7.409

>  <name>  (10) 
9

>  <ligand_id>  (10) 
9

>  <original_smiles>  (10) 
[H]c1c([H])c([H])c2c(c1[H])C([H])([H])C([H])([H])C([H])([H])C2([H])N([H])C(=O)C1([H])N(C(=O)C([H])(N([H])C(=O)C([H])(N([H])C([H])([H])[H])C([H])([H])[H])C(C([H])([H])[H])(C([H])([H])[H])C([H])([H])[H])C([H])([H])c2c([H])c(OC([H])([H])C(=O)C([H])([H])N([H])c3oc(C(C([H])([H])[H])(C([H])([H])[H])C([H])([H])[H])c(C([H])([H])N([H])C(=O)N4C([H])([H])C([H])([H])C([H])([H])C([H])(n5nc(-c6c([H])c([H])c(Oc7c([H])c([H])c(F)c([H])c7F)c([H])c6[H])c(C(=O)N([H])[H])c5N([H])[H])C4([H])[H])c3[H])c([H])c([H])c2C1([H])[H]

>  <smiles>  (10) 
[H]c1c([H])c([H])c2c(c1[H])C([H])([H])C([H])([H])C([H])([H])C2([H])N([H])C(=O)C1([H])N(C(=O)C([H])(N([H])C(=O)C([H])(N([H])C([H])([H])[H])C([H])([H])[H])C(C([H])([H])[H])(C([H])([H])[H])C([H])([H])[H])C([H])([H])c2c([H])c(OC([H])([H])C(=O)C([H])([H])N([H])c3oc(C(C([H])([H])[H])(C([H])([H])[H])C([H])([H])[H])c(C([H])([H])N([H])C(=O)N4C([H])([H])C([H])([H])C([H])([H])C([H])(n5nc(-c6c([H])c([H])c(Oc7c([H])c([H])c(F)c([H])c7F)c([H])c6[H])c(C(=O)N([H])[H])c5N([H])[H])C4([H])[H])c3[H])c([H])c([H])c2C1([H])[H]

$$$$
10:0:0
     RDKit          3D

 93102  0  0  1  0  0  0  0  0999 V2000
  -30.7580  -24.5610   20.3090 C   0  0  0  0  0  3  0  0  0  0  0  0
  -29.5520  -23.9500   20.2290 C   0  0  0  0  0  0  0  0  0  0  0  0
  -32.0020  -23.8720   20.8860 C   0  0  0  0  0  2  0  0  0  0  0  0
  -31.6730  -22.8690   22.0370 C   0  0  0  0  0  2  0  0  0  0  0  0
  -30.1600  -22.5760   22.1700 C   0  0  0  0  0  2  0  0  0  0  0  0
  -29.6400  -22.4610   20.7960 N   0  0  1  0  0  4  0  0  0  0  0  0
  -30.5050  -22.1760   20.3640 H   0  0  0  0  0  0  0  0  0  0  0  0
  -28.9500  -21.1250   20.3970 C   0  0  0  0  0  2  0  0  0  0  0  0
  -29.4020  -18.4060   19.8550 C   0  0  0  0  0  3  0  0  0  0  0  0
  -30.3720  -19.2700   21.7430 C   0  0  0  0  0  3  0  0  0  0  0  0
  -29.6100  -19.6510   20.6470 C   0  0  0  0  0  0  0  0  0  0  0  0
  -29.9580  -17.1880   20.3220 C   0  0  0  0  0  0  0  0  0  0  0  0
  -30.8740  -17.5790   21.7480 S   0  0  0  0  0  0  0  0  0  0  0  0
  -30.5640  -14.7090   19.9090 C   0  0  0  0  0  0  0  0  0  0  0  0
  -30.3130  -12.4040   18.9310 C   0  0  0  0  0  2  0  0  0  0  0  0
  -29.2900  -12.4040   17.7730 C   0  0  0  0  0  2  0  0  0  0  0  0
  -27.8600  -12.2250   18.3180 C   0  0  0  0  0  2  0  0  0  0  0  0
  -27.5470  -13.1790   19.5010 C   0  0  0  0  0  3  0  0  0  0  0  0
  -28.6730  -13.1470   20.5570 C   0  0  0  0  0  2  0  0  0  0  0  0
  -29.9210  -13.4850   19.8640 N   0  0  0  0  0  0  0  0  0  0  0  0
  -31.7600  -14.7830   19.6170 O   0  0  0  0  0  0  0  0  0  0  0  0
  -29.7580  -15.8490   19.9200 N   0  0  0  0  0  0  0  0  0  0  0  0
  -28.8010  -15.6340   19.6920 H   0  0  0  0  0  0  0  0  0  0  0  0
  -25.2420  -13.8150   20.4340 C   0  0  0  0  0  0  0  0  0  0  0  0
  -24.1800  -13.0620   20.8540 C   0  0  0  0  0  0  0  0  0  0  0  0
  -24.6020  -11.7010   20.7550 C   0  0  0  0  0  0  0  0  0  0  0  0
  -26.2370  -12.9150   20.0900 N   0  0  0  0  0  0  0  0  0  0  0  0
  -25.8640  -11.6360   20.3480 N   0  0  0  0  0  0  0  0  0  0  0  0
  -23.8570  -10.4510   20.9620 C   0  0  0  0  0  0  0  0  0  0  0  0
  -24.3020   -9.4640   21.8680 C   0  0  0  0  0  3  0  0  0  0  0  0
  -23.5600   -8.2790   22.0630 C   0  0  0  0  0  3  0  0  0  0  0  0
  -22.3540   -8.0730   21.3520 C   0  0  0  0  0  0  0  0  0  0  0  0
  -21.9250   -9.0470   20.4330 C   0  0  0  0  0  3  0  0  0  0  0  0
  -22.6690  -10.2230   20.2370 C   0  0  0  0  0  3  0  0  0  0  0  0
  -21.5830   -6.9420   21.4540 O   0  0  0  0  0  0  0  0  0  0  0  0
  -21.5360   -6.2100   22.6130 C   0  0  0  0  0  0  0  0  0  0  0  0
  -21.1360   -6.7780   23.8420 C   0  0  0  0  0  3  0  0  0  0  0  0
  -21.0340   -5.9710   24.9920 C   0  0  0  0  0  3  0  0  0  0  0  0
  -21.3190   -4.5950   24.9150 C   0  0  0  0  0  0  0  0  0  0  0  0
  -21.7150   -4.0260   23.6930 C   0  0  0  0  0  3  0  0  0  0  0  0
  -21.8210   -4.8310   22.5450 C   0  0  0  0  0  0  0  0  0  0  0  0
  -22.1800   -4.2730   21.3630 F   0  0  0  0  0  0  0  0  0  0  0  0
  -21.2170   -3.8170   26.0190 F   0  0  0  0  0  0  0  0  0  0  0  0
  -22.8190  -13.5690   21.2360 C   0  0  0  0  0  0  0  0  0  0  0  0
  -22.1290  -12.8730   22.1320 N   0  0  0  0  0  0  0  0  0  0  0  0
  -22.3770  -14.6190   20.7730 O   0  0  0  0  0  0  0  0  0  0  0  0
  -22.4990  -12.0280   22.5400 H   0  0  0  0  0  0  0  0  0  0  0  0
  -21.2190  -13.1990   22.4270 H   0  0  0  0  0  0  0  0  0  0  0  0
  -25.4350  -15.1870   20.2950 N   0  0  0  0  0  0  0  0  0  0  0  0
  -24.7000  -15.8560   20.4970 H   0  0  0  0  0  0  0  0  0  0  0  0
  -26.2900  -15.6220   19.9810 H   0  0  0  0  0  0  0  0  0  0  0  0
  -28.2100  -24.7820   19.9780 C   0  0  0  0  0  2  0  0  0  0  0  0
  -28.2860  -26.2950   20.1310 O   0  0  0  0  0  0  0  0  0  0  0  0
  -24.4330  -31.7170   23.0890 C   0  0  0  0  0  0  0  0  0  0  0  0
  -27.1420  -27.1410   20.0580 C   0  0  0  0  0  0  0  0  0  0  0  0
  -23.2600  -30.3080   21.4330 C   0  0  0  0  0  3  0  0  0  0  0  0
  -24.7460  -28.7600   20.0190 C   0  0  0  0  0  0  0  0  0  0  0  0
  -25.8030  -30.6370   21.2810 C   0  0  0  0  0  2  0  0  0  0  0  0
  -25.9060  -29.2580   20.6260 C   0  0  0  0  0  0  0  0  0  0  0  0
  -27.1020  -28.4650   20.6240 C   0  0  0  0  0  3  0  0  0  0  0  0
  -25.9540  -26.7090   19.4270 C   0  0  0  0  0  3  0  0  0  0  0  0
  -24.7810  -27.4980   19.4020 C   0  0  0  0  0  3  0  0  0  0  0  0
  -23.4960  -29.6240   20.0590 C   0  0  0  0  0  2  0  0  0  0  0  0
  -24.5170  -30.9090   21.9890 N   0  0  0  0  0  0  0  0  0  0  0  0
  -23.3420  -31.9810   23.6160 O   0  0  0  0  0  0  0  0  0  0  0  0
  -22.5940  -29.2910   22.3900 C   0  0  0  0  0  0  0  0  0  0  0  0
  -21.2700  -29.0970   22.2490 N   0  0  0  0  0  0  0  0  0  0  0  0
  -23.2680  -28.6710   23.2170 O   0  0  0  0  0  0  0  0  0  0  0  0
  -20.7820  -29.6420   21.5500 H   0  0  0  0  0  0  0  0  0  0  0  0
  -17.9030  -27.8500   22.7140 C   0  0  0  0  0  0  0  0  0  0  0  0
  -20.4540  -28.1500   23.0120 C   0  0  0  0  0  3  0  0  0  0  0  0
  -20.5850  -26.7200   22.4420 C   0  0  0  0  0  2  0  0  0  0  0  0
  -19.5040  -26.3800   21.4120 C   0  0  0  0  0  2  0  0  0  0  0  0
  -18.1090  -26.5070   22.0340 C   0  0  0  0  0  2  0  0  0  0  0  0
  -19.0050  -28.6300   23.1590 C   0  0  0  0  0  0  0  0  0  0  0  0
  -18.7600  -29.8870   23.7500 C   0  0  0  0  0  3  0  0  0  0  0  0
  -17.4460  -30.3690   23.9000 C   0  0  0  0  0  3  0  0  0  0  0  0
  -16.3580  -29.5870   23.4710 C   0  0  0  0  0  3  0  0  0  0  0  0
  -16.5880  -28.3290   22.8850 C   0  0  0  0  0  3  0  0  0  0  0  0
  -25.7010  -32.3610   23.7290 C   0  0  0  0  0  3  0  0  0  0  0  0
  -26.2170  -31.5860   25.0030 C   0  0  1  0  0  0  0  0  0  0  0  0
  -25.1210  -31.3390   26.0660 C   0  0  0  0  0  1  0  0  0  0  0  0
  -26.8070  -30.2130   24.6090 C   0  0  0  0  0  1  0  0  0  0  0  0
  -27.3580  -32.3870   25.6720 C   0  0  0  0  0  1  0  0  0  0  0  0
  -25.3720  -33.7520   24.0760 N   0  0  0  0  0  0  0  0  0  0  0  0
  -25.6830  -34.8190   23.3280 C   0  0  0  0  0  0  0  0  0  0  0  0
  -26.3470  -34.7350   22.2910 O   0  0  0  0  0  0  0  0  0  0  0  0
  -24.7870  -33.8930   24.8870 H   0  0  0  0  0  0  0  0  0  0  0  0
  -23.9200  -36.5830   23.0150 C   0  0  0  0  0  1  0  0  0  0  0  0
  -25.1800  -36.1960   23.8040 C   0  0  0  0  0  3  0  0  0  0  0  0
  -27.3140  -37.1110   24.6060 C   0  0  0  0  0  1  0  0  0  0  0  0
  -26.1940  -37.2670   23.6840 N   0  0  0  0  0  0  0  0  0  0  0  0
  -25.7760  -38.1810   23.8420 H   0  0  0  0  0  0  0  0  0  0  0  0
  1  3  1  0
  2  1  2  0
  2  6  1  0
  3  4  1  0
  4  5  1  0
  6  5  1  0
  6  7  1  6
  8 11  1  0
  8  6  1  0
  9 12  2  0
  9 11  1  0
 10 13  1  0
 11 10  2  0
 12 13  1  0
 14 22  1  0
 15 20  1  0
 16 17  1  0
 16 15  1  0
 18 17  1  0
 18 27  1  0
 18 19  1  0
 20 14  1  0
 20 19  1  0
 21 14  2  0
 22 12  1  0
 23 22  1  0
 24 25  2  0
 25 44  1  0
 26 25  1  0
 26 29  1  0
 27 28  1  0
 27 24  1  0
 28 26  2  0
 29 30  1  0
 30 31  2  0
 32 35  1  0
 32 31  1  0
 33 32  2  0
 34 33  1  0
 34 29  2  0
 35 36  1  0
 36 37  1  0
 37 38  2  0
 39 38  1  0
 39 43  1  0
 40 39  2  0
 41 36  2  0
 41 40  1  0
 42 41  1  0
 44 45  1  0
 45 48  1  0
 45 47  1  0
 46 44  2  0
 49 24  1  0
 49 50  1  0
 51 49  1  0
 52 53  1  0
 52  2  1  0
 54 65  2  0
 55 53  1  0
 55 60  1  0
 56 64  1  0
 56 66  1  0
 57 63  1  0
 57 59  1  0
 58 64  1  0
 59 58  1  0
 60 59  2  0
 61 55  2  0
 62 61  1  0
 62 57  2  0
 63 56  1  0
 64 54  1  0
 66 68  2  0
 67 66  1  0
 69 67  1  0
 70 79  2  0
 70 75  1  0
 71 67  1  0
 71 75  1  0
 72 71  1  0
 73 74  1  0
 73 72  1  0
 74 70  1  0
 75 76  2  0
 76 77  1  0
 78 77  2  0
 79 78  1  0
 80 54  1  0
 80 85  1  0
 80 81  1  0
 81 84  1  1
 81 82  1  0
 83 81  1  0
 85 88  1  0
 86 90  1  0
 86 85  1  0
 87 86  2  0
 90 89  1  0
 92 90  1  0
 92 93  1  0
 92 91  1  0
M  ISO  4  14 100  22 100  52 101  53 101
M  END
>  <TORSDO>  (11) 
F 19

>  <SCORE>  (11) 
-12.732

>  <name>  (11) 
10

>  <ligand_id>  (11) 
10

>  <original_smiles>  (11) 
[H]C1=C(C([H])([H])Oc2c([H])c([H])c3c(c2[H])C([H])([H])N(C(=O)C([H])(N([H])C(=O)C([H])(N([H])C([H])([H])[H])C([H])([H])[H])C(C([H])([H])[H])(C([H])([H])[H])C([H])([H])[H])C([H])(C(=O)N([H])C2([H])c4c([H])c([H])c([H])c([H])c4C([H])([H])C([H])([H])C2([H])[H])C3([H])[H])[N+]([H])(C([H])([H])c2c([H])sc(N([H])C(=O)N3C([H])([H])C([H])([H])C([H])([H])C([H])(n4nc(-c5c([H])c([H])c(Oc6c([H])c([H])c(F)c([H])c6F)c([H])c5[H])c(C(=O)N([H])[H])c4N([H])[H])C3([H])[H])c2[H])C([H])([H])C([H])([H])C1([H])[H]

>  <smiles>  (11) 
[H]C1=C(C([H])([H])Oc2c([H])c([H])c3c(c2[H])C([H])([H])N(C(=O)C([H])(N([H])C(=O)C([H])(N([H])C([H])([H])[H])C([H])([H])[H])C(C([H])([H])[H])(C([H])([H])[H])C([H])([H])[H])C([H])(C(=O)N([H])C2([H])c4c([H])c([H])c([H])c([H])c4C([H])([H])C([H])([H])C2([H])[H])C3([H])[H])[N+]([H])(C([H])([H])c2c([H])sc(N([H])C(=O)N3C([H])([H])C([H])([H])C([H])([H])C([H])(n4nc(-c5c([H])c([H])c(Oc6c([H])c([H])c(F)c([H])c6F)c([H])c5[H])c(C(=O)N([H])[H])c4N([H])[H])C3([H])[H])c2[H])C([H])([H])C([H])([H])C1([H])[H]

$$$$
11:0:0
     RDKit          3D

 94103  0  0  1  0  0  0  0  0999 V2000
  -31.4200  -14.7400   20.2170 C   0  0  0  0  0  0  0  0  0  0  0  0
  -31.3070  -12.1770   20.2410 C   0  0  0  0  0  2  0  0  0  0  0  0
  -30.5660  -11.6250   18.9970 C   0  0  0  0  0  2  0  0  0  0  0  0
  -29.0450  -11.5890   19.2360 C   0  0  0  0  0  2  0  0  0  0  0  0
  -28.5250  -12.8970   19.8880 C   0  0  0  0  0  3  0  0  0  0  0  0
  -29.4000  -13.3360   21.0810 C   0  0  0  0  0  2  0  0  0  0  0  0
  -30.7590  -13.5400   20.5540 N   0  0  0  0  0  0  0  0  0  0  0  0
  -32.6430  -14.6210   20.0480 O   0  0  0  0  0  0  0  0  0  0  0  0
  -29.1440  -19.0560   21.2970 C   0  0  0  0  0  3  0  0  0  0  0  0
  -29.4330  -20.8390   19.6710 C   0  0  0  0  0  3  0  0  0  0  0  0
  -29.7800  -18.1750   20.4200 C   0  0  0  0  0  0  0  0  0  0  0  0
  -30.3080  -18.5800   19.1720 C   0  0  0  0  0  0  0  0  0  0  0  0
  -28.9910  -20.3930   20.9290 C   0  0  0  0  0  0  0  0  0  0  0  0
  -30.0920  -20.0400   18.6870 C   0  0  0  0  0  0  0  0  0  0  0  0
  -29.9060  -16.6870   20.7940 C   0  0  0  0  0  3  0  0  0  0  0  0
  -31.0020  -17.1530   18.7840 C   0  0  0  0  0  3  0  0  0  0  0  0
  -30.7350  -15.9660   19.8230 N   0  0  0  0  0  0  0  0  0  0  0  0
  -26.1820  -13.8390   20.2680 C   0  0  0  0  0  0  0  0  0  0  0  0
  -24.9840  -13.2460   20.5590 C   0  0  0  0  0  0  0  0  0  0  0  0
  -25.2570  -11.8510   20.7000 C   0  0  0  0  0  0  0  0  0  0  0  0
  -27.1120  -12.8160   20.2350 N   0  0  0  0  0  0  0  0  0  0  0  0
  -26.5590  -11.6190   20.5620 N   0  0  0  0  0  0  0  0  0  0  0  0
  -24.3450  -10.7170   20.8990 C   0  0  0  0  0  0  0  0  0  0  0  0
  -24.6780   -9.6390   21.7480 C   0  0  0  0  0  3  0  0  0  0  0  0
  -23.7730   -8.5720   21.9400 C   0  0  0  0  0  3  0  0  0  0  0  0
  -22.5210   -8.5770   21.2790 C   0  0  0  0  0  0  0  0  0  0  0  0
  -22.2040   -9.6400   20.4170 C   0  0  0  0  0  3  0  0  0  0  0  0
  -23.1070  -10.6980   20.2230 C   0  0  0  0  0  3  0  0  0  0  0  0
  -21.5910   -7.5700   21.3850 O   0  0  0  0  0  0  0  0  0  0  0  0
  -21.7440   -6.5370   22.2750 C   0  0  0  0  0  0  0  0  0  0  0  0
  -21.7420   -6.7500   23.6710 C   0  0  0  0  0  3  0  0  0  0  0  0
  -21.8340   -5.6530   24.5510 C   0  0  0  0  0  3  0  0  0  0  0  0
  -21.9190   -4.3440   24.0390 C   0  0  0  0  0  0  0  0  0  0  0  0
  -21.9160   -4.1300   22.6490 C   0  0  0  0  0  3  0  0  0  0  0  0
  -21.8270   -5.2230   21.7710 C   0  0  0  0  0  0  0  0  0  0  0  0
  -21.8020   -5.0100   20.4320 F   0  0  0  0  0  0  0  0  0  0  0  0
  -22.0000   -3.2890   24.8830 F   0  0  0  0  0  0  0  0  0  0  0  0
  -23.6460  -13.9230   20.6070 C   0  0  0  0  0  0  0  0  0  0  0  0
  -22.7450  -13.4390   21.4530 N   0  0  0  0  0  0  0  0  0  0  0  0
  -23.4110  -14.9200   19.9250 O   0  0  0  0  0  0  0  0  0  0  0  0
  -22.9460  -12.6330   22.0260 H   0  0  0  0  0  0  0  0  0  0  0  0
  -21.8390  -13.8800   21.5290 H   0  0  0  0  0  0  0  0  0  0  0  0
  -26.5550  -15.1530   20.0030 N   0  0  0  0  0  0  0  0  0  0  0  0
  -25.8790  -15.9080   19.9610 H   0  0  0  0  0  0  0  0  0  0  0  0
  -27.4910  -15.4440   19.7490 H   0  0  0  0  0  0  0  0  0  0  0  0
  -31.1990  -21.9750   17.0470 C   0  0  0  0  0  0  0  0  0  0  0  0
  -30.2530  -20.9140   17.3920 N   0  0  0  0  0  0  0  0  0  0  0  0
  -32.3470  -21.8610   17.4860 O   0  0  0  0  0  0  0  0  0  0  0  0
  -29.4500  -20.8850   16.7770 H   0  0  0  0  0  0  0  0  0  0  0  0
  -30.9750  -23.3550   16.0900 C   0  0  0  0  0  2  0  0  0  0  0  0
  -32.1250  -24.3680   15.6370 O   0  0  0  0  0  0  0  0  0  0  0  0
  -35.9930  -29.2280   19.7250 C   0  0  0  0  0  0  0  0  0  0  0  0
  -32.3080  -25.7230   16.1570 C   0  0  0  0  0  0  0  0  0  0  0  0
  -33.5860  -29.6410   19.4100 C   0  0  0  0  0  3  0  0  0  0  0  0
  -32.4400  -28.3220   17.5150 C   0  0  0  0  0  0  0  0  0  0  0  0
  -34.9240  -28.4180   17.5810 C   0  0  0  0  0  2  0  0  0  0  0  0
  -33.6320  -27.6810   17.1580 C   0  0  0  0  0  0  0  0  0  0  0  0
  -33.5690  -26.4040   16.4680 C   0  0  0  0  0  3  0  0  0  0  0  0
  -31.1660  -26.4930   16.4760 C   0  0  0  0  0  3  0  0  0  0  0  0
  -31.2180  -27.7370   17.1470 C   0  0  0  0  0  3  0  0  0  0  0  0
  -32.5100  -29.6310   18.2920 C   0  0  0  0  0  2  0  0  0  0  0  0
  -34.8890  -29.0780   18.9300 N   0  0  0  0  0  0  0  0  0  0  0  0
  -35.9370  -29.8240   20.8130 O   0  0  0  0  0  0  0  0  0  0  0  0
  -33.0310  -28.9140   20.6630 C   0  0  0  0  0  0  0  0  0  0  0  0
  -31.8660  -29.3580   21.1690 N   0  0  0  0  0  0  0  0  0  0  0  0
  -33.6370  -27.9550   21.1460 O   0  0  0  0  0  0  0  0  0  0  0  0
  -31.4300  -30.1550   20.7270 H   0  0  0  0  0  0  0  0  0  0  0  0
  -28.6200  -29.0780   22.7580 C   0  0  0  0  0  0  0  0  0  0  0  0
  -31.1490  -28.7760   22.3080 C   0  0  0  0  0  3  0  0  0  0  0  0
  -30.8180  -27.2860   22.0550 C   0  0  0  0  0  2  0  0  0  0  0  0
  -29.4300  -27.0720   21.4460 C   0  0  0  0  0  2  0  0  0  0  0  0
  -28.3450  -27.6350   22.3690 C   0  0  0  0  0  2  0  0  0  0  0  0
  -29.9330  -29.6180   22.7140 C   0  0  0  0  0  0  0  0  0  0  0  0
  -30.1260  -30.9740   23.0550 C   0  0  0  0  0  3  0  0  0  0  0  0
  -29.0380  -31.7840   23.4350 C   0  0  0  0  0  3  0  0  0  0  0  0
  -27.7430  -31.2400   23.4890 C   0  0  0  0  0  3  0  0  0  0  0  0
  -27.5370  -29.8890   23.1570 C   0  0  0  0  0  3  0  0  0  0  0  0
  -37.3880  -28.6770   19.2980 C   0  0  0  0  0  3  0  0  0  0  0  0
  -38.4180  -29.4760   19.9830 N   0  0  0  0  0  0  0  0  0  0  0  0
  -39.0920  -30.4930   19.4290 C   0  0  0  0  0  0  0  0  0  0  0  0
  -38.9510  -30.8210   18.2480 O   0  0  0  0  0  0  0  0  0  0  0  0
  -38.5480  -29.2970   20.9670 H   0  0  0  0  0  0  0  0  0  0  0  0
  -39.4080  -32.5510   20.8440 C   0  0  0  0  0  1  0  0  0  0  0  0
  -40.0790  -31.2690   20.3250 C   0  0  0  0  0  3  0  0  0  0  0  0
  -42.1840  -30.4510   19.3600 C   0  0  0  0  0  1  0  0  0  0  0  0
  -41.3470  -31.6140   19.6450 N   0  0  0  0  0  0  0  0  0  0  0  0
  -41.8910  -32.2640   20.2060 H   0  0  0  0  0  0  0  0  0  0  0  0
  -37.5760  -27.1440   19.6280 C   0  0  1  0  0  0  0  0  0  0  0  0
  -37.2370  -26.7770   21.0920 C   0  0  0  0  0  1  0  0  0  0  0  0
  -36.6930  -26.2670   18.7110 C   0  0  0  0  0  1  0  0  0  0  0  0
  -39.0410  -26.7270   19.3570 C   0  0  0  0  0  1  0  0  0  0  0  0
  -28.3660  -21.2770   21.8090 N   0  0  0  0  0  0  0  0  0  0  0  0
  -28.3100  -21.0280   22.7920 H   0  0  0  0  0  0  0  0  0  0  0  0
  -28.4790  -22.2760   21.6630 H   0  0  0  0  0  0  0  0  0  0  0  0
  1  7  1  0
  2  7  1  0
  3  4  1  0
  3  2  1  0
  5  4  1  0
  5 21  1  0
  5  6  1  0
  7  6  1  0
  8  1  2  0
 10 13  1  0
 11 15  2  0
 11  9  1  0
 12 11  1  0
 13  9  2  0
 13 92  1  0
 14 12  1  0
 14 10  2  0
 16 12  2  0
 16 17  1  0
 17  1  1  0
 17 15  1  0
 18 19  2  0
 19 38  1  0
 19 20  1  0
 20 23  1  0
 21 18  1  0
 21 22  1  0
 22 20  2  0
 23 24  1  0
 24 25  2  0
 26 29  1  0
 26 25  1  0
 27 26  2  0
 28 27  1  0
 28 23  2  0
 29 30  1  0
 30 31  1  0
 31 32  2  0
 33 32  1  0
 33 37  1  0
 34 33  2  0
 35 30  2  0
 35 34  1  0
 36 35  1  0
 38 39  1  0
 39 42  1  0
 39 41  1  0
 40 38  2  0
 43 18  1  0
 44 43  1  0
 45 43  1  0
 46 47  1  0
 46 48  2  0
 47 14  1  0
 49 47  1  0
 50 46  1  0
 51 50  1  0
 51 53  1  0
 52 63  2  0
 53 58  2  0
 53 59  1  0
 54 64  1  0
 55 61  1  0
 56 62  1  0
 57 55  2  0
 57 56  1  0
 58 57  1  0
 59 60  2  0
 60 55  1  0
 61 54  1  0
 62 54  1  0
 62 52  1  0
 64 66  2  0
 64 65  1  0
 67 65  1  0
 68 77  1  0
 69 65  1  0
 69 73  1  0
 70 69  1  0
 71 70  1  0
 71 72  1  0
 72 68  1  0
 73 68  2  0
 73 74  1  0
 74 75  2  0
 75 76  1  0
 77 76  2  0
 78 88  1  0
 78 52  1  0
 78 79  1  0
 79 82  1  0
 80 79  1  0
 80 84  1  0
 81 80  2  0
 84 83  1  0
 85 86  1  0
 86 87  1  0
 86 84  1  0
 88 89  1  1
 90 88  1  0
 91 88  1  0
 92 93  1  0
 94 92  1  0
M  ISO  4   1 100  17 100  50 101  51 101
M  END
>  <TORSDO>  (12) 
F 18

>  <SCORE>  (12) 
-8.716

>  <name>  (12) 
11

>  <ligand_id>  (12) 
11

>  <original_smiles>  (12) 
[H]c1c([H])c([H])c2c(c1[H])C([H])([H])C([H])([H])C([H])([H])C2([H])N([H])C(=O)C1([H])N(C(=O)C([H])(N([H])C(=O)C([H])(N([H])C([H])([H])[H])C([H])([H])[H])C(C([H])([H])[H])(C([H])([H])[H])C([H])([H])[H])C([H])([H])c2c([H])c(OC([H])([H])C(=O)N([H])c3c([H])c(N([H])[H])c([H])c4c3C([H])([H])N(C(=O)N3C([H])([H])C([H])([H])C([H])([H])C([H])(n5nc(-c6c([H])c([H])c(Oc7c([H])c([H])c(F)c([H])c7F)c([H])c6[H])c(C(=O)N([H])[H])c5N([H])[H])C3([H])[H])C4([H])[H])c([H])c([H])c2C1([H])[H]

>  <smiles>  (12) 
[H]c1c([H])c([H])c2c(c1[H])C([H])([H])C([H])([H])C([H])([H])C2([H])N([H])C(=O)C1([H])N(C(=O)C([H])(N([H])C(=O)C([H])(N([H])C([H])([H])[H])C([H])([H])[H])C(C([H])([H])[H])(C([H])([H])[H])C([H])([H])[H])C([H])([H])c2c([H])c(OC([H])([H])C(=O)N([H])c3c([H])c(N([H])[H])c([H])c4c3C([H])([H])N(C(=O)N3C([H])([H])C([H])([H])C([H])([H])C([H])(n5nc(-c6c([H])c([H])c(Oc7c([H])c([H])c(F)c([H])c7F)c([H])c6[H])c(C(=O)N([H])[H])c5N([H])[H])C3([H])[H])C4([H])[H])c([H])c([H])c2C1([H])[H]

$$$$
12:0:0
     RDKit          3D

 94 99  0  0  1  0  0  0  0  0999 V2000
  -32.3840  -16.9760   19.2330 C   0  0  0  0  0 15  0  0  0  0  0  0
  -32.1420  -18.4140   20.5860 C   0  0  0  0  0  1  0  0  0  0  0  0
  -28.8860  -18.2790   20.3390 C   0  0  0  0  0  2  0  0  0  0  0  0
  -30.7380  -16.3230   18.3190 C   0  0  0  0  0  1  0  0  0  0  0  0
  -28.9350  -16.8630   19.0050 C   0  0  0  0  0  3  0  0  0  0  0  0
  -30.4330  -19.1870   21.0120 C   0  0  0  0  0  0  0  0  0  0  0  0
  -27.6470  -16.4890   18.2350 C   0  0  0  0  0  1  0  0  0  0  0  0
  -30.2140  -16.4820   20.6440 C   0  0  0  0  0  2  0  0  0  0  0  0
  -30.6390  -13.8100   20.0340 C   0  0  0  0  0  2  0  0  0  0  0  0
  -29.8710  -13.1290   18.8660 C   0  0  0  0  0  2  0  0  0  0  0  0
  -28.4520  -12.6950   19.2850 C   0  0  0  0  0  2  0  0  0  0  0  0
  -27.8030  -13.6590   20.3030 C   0  0  0  0  0  3  0  0  0  0  0  0
  -28.7710  -14.2440   21.3620 C   0  0  0  0  0  2  0  0  0  0  0  0
  -29.8370  -14.9940   20.5960 N   0  0  0  0  0  0  0  0  0  0  0  0
  -31.1150  -16.2370   21.5080 O   0  0  0  0  0  1  0  0  0  0  0  0
  -31.7450  -18.3820   17.0200 C   0  0  0  0  0  2  0  0  0  0  0  0
  -31.1380  -19.2820   18.1850 C   0  0  0  0  0  2  0  0  0  0  0  0
  -29.6730  -18.2150   17.3850 C   0  0  0  0  0  2  0  0  0  0  0  0
  -30.7430  -17.1950   17.0210 C   0  0  0  0  0  3  0  0  0  0  0  0
  -30.1420  -18.2540   18.8730 N   0  0  0  0  0  0  0  0  0  0  0  0
  -25.3610  -14.0810   20.8990 C   0  0  0  0  0  0  0  0  0  0  0  0
  -24.3130  -13.2420   21.1500 C   0  0  0  0  0  0  0  0  0  0  0  0
  -24.8540  -11.9200   21.1160 C   0  0  0  0  0  0  0  0  0  0  0  0
  -26.4720  -13.2670   20.7440 N   0  0  0  0  0  0  0  0  0  0  0  0
  -26.1670  -11.9570   20.9200 N   0  0  0  0  0  0  0  0  0  0  0  0
  -24.1860  -10.6160   21.2060 C   0  0  0  0  0  0  0  0  0  0  0  0
  -24.5010   -9.7010   22.2330 C   0  0  0  0  0  3  0  0  0  0  0  0
  -23.8310   -8.4610   22.3160 C   0  0  0  0  0  3  0  0  0  0  0  0
  -22.8330   -8.1280   21.3700 C   0  0  0  0  0  0  0  0  0  0  0  0
  -22.5390   -9.0340   20.3360 C   0  0  0  0  0  3  0  0  0  0  0  0
  -23.2100  -10.2660   20.2520 C   0  0  0  0  0  3  0  0  0  0  0  0
  -22.1480   -6.9370   21.3610 O   0  0  0  0  0  0  0  0  0  0  0  0
  -21.8080   -6.2940   22.5250 C   0  0  0  0  0  0  0  0  0  0  0  0
  -20.9810   -6.8990   23.4970 C   0  0  0  0  0  3  0  0  0  0  0  0
  -20.5970   -6.1770   24.6450 C   0  0  0  0  0  3  0  0  0  0  0  0
  -21.0340   -4.8500   24.8200 C   0  0  0  0  0  0  0  0  0  0  0  0
  -21.8520   -4.2430   23.8510 C   0  0  0  0  0  3  0  0  0  0  0  0
  -22.2360   -4.9630   22.7060 C   0  0  0  0  0  0  0  0  0  0  0  0
  -23.0070   -4.3660   21.7660 F   0  0  0  0  0  0  0  0  0  0  0  0
  -20.6600   -4.1530   25.9190 F   0  0  0  0  0  0  0  0  0  0  0  0
  -22.8730  -13.6360   21.3130 C   0  0  0  0  0  0  0  0  0  0  0  0
  -22.1240  -12.8900   22.1130 N   0  0  0  0  0  0  0  0  0  0  0  0
  -22.4190  -14.6430   20.7700 O   0  0  0  0  0  0  0  0  0  0  0  0
  -22.4980  -12.0730   22.5730 H   0  0  0  0  0  0  0  0  0  0  0  0
  -21.1580  -13.1400   22.2740 H   0  0  0  0  0  0  0  0  0  0  0  0
  -25.4640  -15.4640   20.7520 N   0  0  0  0  0  0  0  0  0  0  0  0
  -24.6620  -16.0840   20.7870 H   0  0  0  0  0  0  0  0  0  0  0  0
  -26.3220  -15.9280   20.4930 H   0  0  0  0  0  0  0  0  0  0  0  0
  -30.3260  -20.7900   21.4780 N   0  0  0  0  0  4  0  0  0  0  0  0
  -30.8700  -20.8650   22.3370 H   0  0  0  0  0  0  0  0  0  0  0  0
  -30.1320  -22.4920   20.9700 C   0  0  0  0  0  1  0  0  0  0  0  0
  -28.1250  -24.0080   22.3740 C   0  0  0  0  0  1  0  0  0  0  0  0
  -29.4530  -24.2650   21.6420 C   0  0  0  0  0  2  0  0  0  0  0  0
  -29.3260  -26.0520   21.3180 O   0  0  0  0  0  0  0  0  0  0  0  0
  -25.0000  -32.2620   23.5850 C   0  0  0  0  0  0  0  0  0  0  0  0
  -28.2280  -27.1880   21.1920 C   0  0  0  0  0  0  0  0  0  0  0  0
  -24.0990  -30.6770   21.9380 C   0  0  0  0  0  3  0  0  0  0  0  0
  -25.8080  -29.0620   20.7900 C   0  0  0  0  0  0  0  0  0  0  0  0
  -26.6630  -31.0100   22.0600 C   0  0  0  0  0  2  0  0  0  0  0  0
  -26.9090  -29.5430   21.5100 C   0  0  0  0  0  0  0  0  0  0  0  0
  -28.1000  -28.6360   21.6640 C   0  0  0  0  0  3  0  0  0  0  0  0
  -27.0680  -26.9310   20.4090 C   0  0  0  0  0  3  0  0  0  0  0  0
  -25.9310  -27.7840   20.2190 C   0  0  0  0  0  3  0  0  0  0  0  0
  -24.5310  -29.9140   20.6520 C   0  0  0  0  0  2  0  0  0  0  0  0
  -25.2710  -31.3570   22.5810 N   0  0  0  0  0  0  0  0  0  0  0  0
  -23.8390  -32.4980   23.9680 O   0  0  0  0  0  0  0  0  0  0  0  0
  -23.3590  -29.7070   22.8990 C   0  0  0  0  0  0  0  0  0  0  0  0
  -22.0730  -29.4030   22.6320 N   0  0  0  0  0  0  0  0  0  0  0  0
  -23.9620  -29.2200   23.8600 O   0  0  0  0  0  0  0  0  0  0  0  0
  -21.6340  -29.8450   21.8370 H   0  0  0  0  0  0  0  0  0  0  0  0
  -18.7920  -27.8550   22.8460 C   0  0  0  0  0  0  0  0  0  0  0  0
  -21.2560  -28.4390   23.3790 C   0  0  0  0  0  3  0  0  0  0  0  0
  -21.5790  -26.9890   22.9490 C   0  0  0  0  0  2  0  0  0  0  0  0
  -20.6550  -26.4670   21.8420 C   0  0  0  0  0  2  0  0  0  0  0  0
  -19.1960  -26.4940   22.3050 C   0  0  0  0  0  2  0  0  0  0  0  0
  -19.7580  -28.7740   23.3340 C   0  0  0  0  0  0  0  0  0  0  0  0
  -19.3300  -30.0350   23.7980 C   0  0  0  0  0  3  0  0  0  0  0  0
  -17.9660  -30.3860   23.7770 C   0  0  0  0  0  3  0  0  0  0  0  0
  -17.0120  -29.4690   23.3030 C   0  0  0  0  0  3  0  0  0  0  0  0
  -17.4230  -28.2050   22.8450 C   0  0  0  0  0  3  0  0  0  0  0  0
  -26.1330  -33.0580   24.3060 C   0  0  0  0  0  3  0  0  0  0  0  0
  -26.5070  -32.4540   25.7170 C   0  0  1  0  0  0  0  0  0  0  0  0
  -25.2900  -32.2240   26.6440 C   0  0  0  0  0  1  0  0  0  0  0  0
  -27.2390  -31.1020   25.5690 C   0  0  0  0  0  1  0  0  0  0  0  0
  -27.4890  -33.4030   26.4470 C   0  0  0  0  0  1  0  0  0  0  0  0
  -25.6880  -34.4570   24.4650 N   0  0  0  0  0  0  0  0  0  0  0  0
  -26.0130  -35.4710   23.6480 C   0  0  0  0  0  0  0  0  0  0  0  0
  -26.7700  -35.3290   22.6870 O   0  0  0  0  0  0  0  0  0  0  0  0
  -25.0210  -34.6330   25.2010 H   0  0  0  0  0  0  0  0  0  0  0  0
  -24.1820  -37.0930   23.0380 C   0  0  0  0  0  1  0  0  0  0  0  0
  -25.4050  -36.8590   23.9420 C   0  0  0  0  0  3  0  0  0  0  0  0
  -27.4190  -37.9920   24.7780 C   0  0  0  0  0  1  0  0  0  0  0  0
  -26.3630  -37.9740   23.7690 N   0  0  0  0  0  0  0  0  0  0  0  0
  -25.8840  -38.8710   23.7970 H   0  0  0  0  0  0  0  0  0  0  0  0
  2  6  1  0
  3  6  1  0
  5  7  1  0
  5  3  1  0
  6 49  2  3
  8 15  1  0
  9 14  1  0
 10 11  1  0
 10  9  1  0
 12 11  1  0
 12 24  1  0
 12 13  1  0
 14  8  1  0
 14 13  1  0
 16 19  1  0
 16 17  1  0
 17 20  1  0
 18 20  1  0
 19 18  1  0
 19  4  1  0
 20  5  1  0
 21 22  2  0
 22 41  1  0
 23 22  1  0
 23 26  1  0
 24 21  1  0
 24 25  1  0
 25 23  2  0
 26 27  1  0
 27 28  2  0
 29 28  1  0
 30 29  2  0
 31 30  1  0
 31 26  2  0
 32 29  1  0
 32 33  1  0
 33 38  2  0
 33 34  1  0
 34 35  2  0
 35 36  1  0
 36 40  1  0
 37 36  2  0
 38 37  1  0
 39 38  1  0
 41 42  1  0
 42 45  1  0
 42 44  1  0
 43 41  2  0
 46 47  1  0
 46 21  1  0
 48 46  1  0
 49 50  1  0
 51 49  1  0
 53 52  1  0
 54 53  1  0
 55 66  2  0
 56 54  1  0
 56 61  1  0
 57 65  1  0
 57 67  1  0
 58 60  1  0
 59 65  1  0
 60 61  2  0
 60 59  1  0
 62 56  2  0
 63 62  1  0
 63 58  2  0
 64 58  1  0
 64 57  1  0
 65 55  1  0
 67 69  2  0
 68 67  1  0
 70 68  1  0
 71 76  1  0
 72 68  1  0
 73 72  1  0
 74 75  1  0
 74 73  1  0
 75 71  1  0
 76 72  1  0
 76 77  2  0
 78 77  1  0
 79 78  2  0
 80 71  2  0
 80 79  1  0
 81 55  1  0
 81 86  1  0
 81 82  1  0
 82 85  1  1
 82 83  1  0
 84 82  1  0
 86 89  1  0
 87 91  1  0
 87 86  1  0
 88 87  2  0
 91 90  1  0
 93 94  1  0
 93 91  1  0
 93 92  1  0
M  ISO  4   8 100  20 100  53 101  54 101
M  END
>  <TORSDO>  (13) 
F 19

>  <SCORE>  (13) 
-12.085

>  <name>  (13) 
12

>  <ligand_id>  (13) 
12

>  <original_smiles>  (13) 
[H]c1c([H])c([H])c2c(c1[H])C([H])([H])C([H])([H])C([H])([H])C2([H])N([H])C(=O)C1([H])N(C(=O)C([H])(N([H])C(=O)C([H])(N([H])C([H])([H])[H])C([H])([H])[H])C(C([H])([H])[H])(C([H])([H])[H])C([H])([H])[H])C([H])([H])c2c([H])c(OC([H])(C([H])([H])[H])C([H])([H])N([H])c3c([H])c([H])c(C4([H])C([H])([H])N(C(=O)N5C([H])([H])C([H])([H])C([H])([H])C([H])(n6nc(-c7c([H])c([H])c(Oc8c([H])c([H])c(F)c([H])c8F)c([H])c7[H])c(C(=O)N([H])[H])c6N([H])[H])C5([H])[H])C([H])([H])C4([H])[H])c(C([H])([H])[H])c3[H])c([H])c([H])c2C1([H])[H]

>  <smiles>  (13) 
[H]c1c([H])c([H])c2c(c1[H])C([H])([H])C([H])([H])C([H])([H])C2([H])N([H])C(=O)C1([H])N(C(=O)C([H])(N([H])C(=O)C([H])(N([H])C([H])([H])[H])C([H])([H])[H])C(C([H])([H])[H])(C([H])([H])[H])C([H])([H])[H])C([H])([H])c2c([H])c(OC([H])(C([H])([H])[H])C([H])([H])N([H])c3c([H])c([H])c(C4([H])C([H])([H])N(C(=O)N5C([H])([H])C([H])([H])C([H])([H])C([H])(n6nc(-c7c([H])c([H])c(Oc8c([H])c([H])c(F)c([H])c8F)c([H])c7[H])c(C(=O)N([H])[H])c6N([H])[H])C5([H])[H])C([H])([H])C4([H])[H])c(C([H])([H])[H])c3[H])c([H])c([H])c2C1([H])[H]

$$$$
13:0:0
     RDKit          3D

 96105  0  0  1  0  0  0  0  0999 V2000
  -30.3430  -24.8730   20.9420 C   0  0  0  0  0  3  0  0  0  0  0  0
  -29.2840  -24.2860   20.3610 C   0  0  0  0  0  0  0  0  0  0  0  0
  -30.8750  -20.6600   20.2470 C   0  0  0  0  0  3  0  0  0  0  0  0
  -31.6200  -24.1430   21.2420 C   0  0  0  0  0  2  0  0  0  0  0  0
  -29.2970  -22.7470   20.0200 C   0  0  0  0  0  2  0  0  0  0  0  0
  -31.8050  -22.9710   20.2790 C   0  0  0  0  0  2  0  0  0  0  0  0
  -30.6290  -22.0350   20.2500 N   0  0  0  0  0  0  0  0  0  0  0  0
  -32.1360  -20.2720   20.4650 N   0  0  0  0  0  0  0  0  0  0  0  0
  -32.3630  -19.2940   20.3960 H   0  0  0  0  0  0  0  0  0  0  0  0
  -32.8700  -20.9170   20.6980 H   0  0  0  0  0  0  0  0  0  0  0  0
  -28.2050  -18.4310   18.6520 C   0  0  0  0  0  3  0  0  0  0  0  0
  -28.9280  -19.5800   19.0320 C   0  0  0  0  0  3  0  0  0  0  0  0
  -28.5100  -17.1670   19.1960 C   0  0  0  0  0  3  0  0  0  0  0  0
  -30.2340  -18.1910   20.5590 C   0  0  0  0  0  3  0  0  0  0  0  0
  -29.9640  -19.4910   19.9870 C   0  0  0  0  0  0  0  0  0  0  0  0
  -29.5370  -17.0070   20.1500 C   0  0  0  0  0  0  0  0  0  0  0  0
  -30.4740  -14.6620   20.2290 C   0  0  0  0  0  0  0  0  0  0  0  0
  -30.2480  -12.4270   19.1730 C   0  0  0  0  0  2  0  0  0  0  0  0
  -29.2690  -12.5590   17.9860 C   0  0  0  0  0  2  0  0  0  0  0  0
  -27.8120  -12.3760   18.4580 C   0  0  0  0  0  2  0  0  0  0  0  0
  -27.4810  -13.2310   19.7070 C   0  0  0  0  0  3  0  0  0  0  0  0
  -28.5720  -13.0880   20.7920 C   0  0  0  0  0  2  0  0  0  0  0  0
  -29.8670  -13.4330   20.1840 N   0  0  0  0  0  0  0  0  0  0  0  0
  -31.5960  -14.8500   19.7460 O   0  0  0  0  0  0  0  0  0  0  0  0
  -29.7340  -15.6900   20.7330 N   0  0  0  0  0  0  0  0  0  0  0  0
  -28.9120  -15.3390   21.2000 H   0  0  0  0  0  0  0  0  0  0  0  0
  -25.1130  -13.8210   20.5180 C   0  0  0  0  0  0  0  0  0  0  0  0
  -24.0560  -13.0420   20.9040 C   0  0  0  0  0  0  0  0  0  0  0  0
  -24.5150  -11.6920   20.8240 C   0  0  0  0  0  0  0  0  0  0  0  0
  -26.1470  -12.9440   20.2260 N   0  0  0  0  0  0  0  0  0  0  0  0
  -25.7930  -11.6570   20.4690 N   0  0  0  0  0  0  0  0  0  0  0  0
  -23.7940  -10.4260   21.0100 C   0  0  0  0  0  0  0  0  0  0  0  0
  -24.2310   -9.4570   21.9400 C   0  0  0  0  0  3  0  0  0  0  0  0
  -23.5120   -8.2550   22.1110 C   0  0  0  0  0  3  0  0  0  0  0  0
  -22.3410   -8.0140   21.3530 C   0  0  0  0  0  0  0  0  0  0  0  0
  -21.9250   -8.9710   20.4110 C   0  0  0  0  0  3  0  0  0  0  0  0
  -22.6440  -10.1650   20.2380 C   0  0  0  0  0  3  0  0  0  0  0  0
  -21.5920   -6.8650   21.4350 O   0  0  0  0  0  0  0  0  0  0  0  0
  -21.5240   -6.1300   22.5920 C   0  0  0  0  0  0  0  0  0  0  0  0
  -21.0200   -6.6760   23.7920 C   0  0  0  0  0  3  0  0  0  0  0  0
  -20.9030   -5.8660   24.9390 C   0  0  0  0  0  3  0  0  0  0  0  0
  -21.2810   -4.5110   24.8850 C   0  0  0  0  0  0  0  0  0  0  0  0
  -21.7760   -3.9650   23.6890 C   0  0  0  0  0  3  0  0  0  0  0  0
  -21.8950   -4.7720   22.5440 C   0  0  0  0  0  0  0  0  0  0  0  0
  -22.3550   -4.2350   21.3890 F   0  0  0  0  0  0  0  0  0  0  0  0
  -21.1630   -3.7310   25.9850 F   0  0  0  0  0  0  0  0  0  0  0  0
  -22.6700  -13.5150   21.2360 C   0  0  0  0  0  0  0  0  0  0  0  0
  -21.9670  -12.7970   22.1070 N   0  0  0  0  0  0  0  0  0  0  0  0
  -22.2180  -14.5550   20.7590 O   0  0  0  0  0  0  0  0  0  0  0  0
  -22.3460  -11.9570   22.5200 H   0  0  0  0  0  0  0  0  0  0  0  0
  -21.0370  -13.0920   22.3660 H   0  0  0  0  0  0  0  0  0  0  0  0
  -25.2770  -15.1960   20.3720 N   0  0  0  0  0  0  0  0  0  0  0  0
  -24.5200  -15.8510   20.5350 H   0  0  0  0  0  0  0  0  0  0  0  0
  -26.1210  -15.6420   20.0440 H   0  0  0  0  0  0  0  0  0  0  0  0
  -28.0210  -25.1320   20.0410 C   0  0  0  0  0  2  0  0  0  0  0  0
  -28.1700  -26.5880   20.1930 O   0  0  0  0  0  0  0  0  0  0  0  0
  -24.4990  -31.9570   23.2390 C   0  0  0  0  0  0  0  0  0  0  0  0
  -27.0270  -27.3880   20.1700 C   0  0  0  0  0  0  0  0  0  0  0  0
  -23.2510  -30.5570   21.6320 C   0  0  0  0  0  3  0  0  0  0  0  0
  -24.6600  -28.9810   20.1980 C   0  0  0  0  0  0  0  0  0  0  0  0
  -25.7840  -30.8640   21.3910 C   0  0  0  0  0  2  0  0  0  0  0  0
  -25.8410  -29.4820   20.7580 C   0  0  0  0  0  0  0  0  0  0  0  0
  -27.0260  -28.6960   20.7330 C   0  0  0  0  0  3  0  0  0  0  0  0
  -25.8190  -26.9240   19.5970 C   0  0  0  0  0  3  0  0  0  0  0  0
  -24.6470  -27.7030   19.6140 C   0  0  0  0  0  3  0  0  0  0  0  0
  -23.4310  -29.8650   20.2550 C   0  0  0  0  0  2  0  0  0  0  0  0
  -24.5320  -31.1420   22.1460 N   0  0  0  0  0  0  0  0  0  0  0  0
  -23.4290  -32.2480   23.7930 O   0  0  0  0  0  0  0  0  0  0  0  0
  -22.5970  -29.5550   22.6120 C   0  0  0  0  0  0  0  0  0  0  0  0
  -21.2760  -29.3510   22.4770 N   0  0  0  0  0  0  0  0  0  0  0  0
  -23.2790  -28.9610   23.4510 O   0  0  0  0  0  0  0  0  0  0  0  0
  -20.7850  -29.8830   21.7730 H   0  0  0  0  0  0  0  0  0  0  0  0
  -17.9190  -28.0980   22.9540 C   0  0  0  0  0  0  0  0  0  0  0  0
  -20.4650  -28.4210   23.2640 C   0  0  0  0  0  3  0  0  0  0  0  0
  -20.6090  -26.9740   22.7390 C   0  0  0  0  0  2  0  0  0  0  0  0
  -19.5340  -26.5930   21.7160 C   0  0  0  0  0  2  0  0  0  0  0  0
  -18.1360  -26.7310   22.3270 C   0  0  0  0  0  2  0  0  0  0  0  0
  -19.0130  -28.8970   23.3790 C   0  0  0  0  0  0  0  0  0  0  0  0
  -18.7560  -30.1730   23.9240 C   0  0  0  0  0  3  0  0  0  0  0  0
  -17.4390  -30.6540   24.0470 C   0  0  0  0  0  3  0  0  0  0  0  0
  -16.3590  -29.8530   23.6370 C   0  0  0  0  0  3  0  0  0  0  0  0
  -16.6010  -28.5750   23.0970 C   0  0  0  0  0  3  0  0  0  0  0  0
  -25.8010  -32.5800   23.8340 C   0  0  0  0  0  3  0  0  0  0  0  0
  -25.5140  -33.9870   24.1480 N   0  0  0  0  0  0  0  0  0  0  0  0
  -25.8400  -35.0220   23.3630 C   0  0  0  0  0  0  0  0  0  0  0  0
  -26.4830  -34.8940   22.3170 O   0  0  0  0  0  0  0  0  0  0  0  0
  -24.9400  -34.1600   24.9590 H   0  0  0  0  0  0  0  0  0  0  0  0
  -24.1260  -36.8300   23.0190 C   0  0  0  0  0  1  0  0  0  0  0  0
  -25.3800  -36.4220   23.8100 C   0  0  0  0  0  3  0  0  0  0  0  0
  -27.5360  -37.2990   24.5900 C   0  0  0  0  0  1  0  0  0  0  0  0
  -26.4220  -37.4620   23.6590 N   0  0  0  0  0  0  0  0  0  0  0  0
  -26.0280  -38.3880   23.7950 H   0  0  0  0  0  0  0  0  0  0  0  0
  -26.3230  -31.8200   25.1140 C   0  0  1  0  0  0  0  0  0  0  0  0
  -25.2420  -31.6080   26.1990 C   0  0  0  0  0  1  0  0  0  0  0  0
  -26.8880  -30.4330   24.7300 C   0  0  0  0  0  1  0  0  0  0  0  0
  -27.4900  -32.6110   25.7520 C   0  0  0  0  0  1  0  0  0  0  0  0
  1  4  1  0
  2  1  2  0
  3  7  1  0
  3  8  1  0
  5  7  1  0
  5  2  1  0
  6  4  1  0
  7  6  1  0
  8 10  1  0
  9  8  1  0
 11 12  2  0
 11 13  1  0
 12 15  1  0
 13 16  2  0
 15  3  1  0
 15 14  2  0
 16 14  1  0
 16 25  1  0
 17 25  1  0
 18 23  1  0
 19 20  1  0
 19 18  1  0
 21 20  1  0
 21 30  1  0
 21 22  1  0
 23 17  1  0
 23 22  1  0
 24 17  2  0
 25 26  1  0
 27 28  2  0
 28 47  1  0
 29 28  1  0
 29 32  1  0
 30 31  1  0
 30 27  1  0
 31 29  2  0
 32 33  1  0
 33 34  2  0
 35 38  1  0
 35 34  1  0
 36 35  2  0
 37 36  1  0
 37 32  2  0
 38 39  1  0
 39 40  1  0
 40 41  2  0
 42 41  1  0
 42 46  1  0
 43 42  2  0
 44 39  2  0
 44 43  1  0
 45 44  1  0
 47 48  1  0
 48 51  1  0
 48 50  1  0
 49 47  2  0
 52 27  1  0
 52 53  1  0
 54 52  1  0
 55 56  1  0
 55  2  1  0
 57 68  2  0
 58 56  1  0
 58 63  1  0
 59 67  1  0
 59 69  1  0
 60 66  1  0
 60 62  1  0
 61 67  1  0
 62 61  1  0
 63 62  2  0
 64 65  1  0
 64 58  2  0
 65 60  2  0
 66 59  1  0
 67 57  1  0
 69 71  2  0
 70 69  1  0
 72 70  1  0
 73 82  2  0
 73 78  1  0
 74 70  1  0
 74 78  1  0
 75 74  1  0
 76 77  1  0
 76 75  1  0
 77 73  1  0
 78 79  2  0
 79 80  1  0
 81 80  2  0
 82 81  1  0
 83 57  1  0
 83 84  1  0
 83 93  1  0
 84 87  1  0
 85 89  1  0
 85 84  1  0
 86 85  2  0
 89 88  1  0
 91 92  1  0
 91 89  1  0
 91 90  1  0
 93 96  1  1
 93 94  1  0
 95 93  1  0
M  ISO  4  17 100  25 100  55 101  56 101
M  END
>  <TORSDO>  (14) 
F 18

>  <SCORE>  (14) 
-14.464

>  <name>  (14) 
13

>  <ligand_id>  (14) 
13

>  <original_smiles>  (14) 
[H]C1=C(C([H])([H])Oc2c([H])c([H])c3c(c2[H])C([H])([H])N(C(=O)C([H])(N([H])C(=O)C([H])(N([H])C([H])([H])[H])C([H])([H])[H])C(C([H])([H])[H])(C([H])([H])[H])C([H])([H])[H])C([H])(C(=O)N([H])C2([H])c4c([H])c([H])c([H])c([H])c4C([H])([H])C([H])([H])C2([H])[H])C3([H])[H])C([H])([H])N(C(c2c([H])c([H])c([H])c(N([H])C(=O)N3C([H])([H])C([H])([H])C([H])([H])C([H])(n4nc(-c5c([H])c([H])c(Oc6c([H])c([H])c(F)c([H])c6F)c([H])c5[H])c(C(=O)N([H])[H])c4N([H])[H])C3([H])[H])c2[H])=[N+]([H])[H])C([H])([H])C1([H])[H]

>  <smiles>  (14) 
[H]C1=C(C([H])([H])Oc2c([H])c([H])c3c(c2[H])C([H])([H])N(C(=O)C([H])(N([H])C(=O)C([H])(N([H])C([H])([H])[H])C([H])([H])[H])C(C([H])([H])[H])(C([H])([H])[H])C([H])([H])[H])C([H])(C(=O)N([H])C2([H])c4c([H])c([H])c([H])c([H])c4C([H])([H])C([H])([H])C2([H])[H])C3([H])[H])C([H])([H])N(C(c2c([H])c([H])c([H])c(N([H])C(=O)N3C([H])([H])C([H])([H])C([H])([H])C([H])(n4nc(-c5c([H])c([H])c(Oc6c([H])c([H])c(F)c([H])c6F)c([H])c5[H])c(C(=O)N([H])[H])c4N([H])[H])C3([H])[H])c2[H])=[N+]([H])[H])C([H])([H])C1([H])[H]

$$$$
14:0:0
     RDKit          3D

 98107  0  0  1  0  0  0  0  0999 V2000
  -29.2440  -20.7390   20.9630 C   0  0  0  0  0  3  0  0  0  0  0  0
  -30.2770  -24.1190   19.6230 C   0  0  0  0  0  2  0  0  0  0  0  0
  -30.6720  -22.6730   20.0470 C   0  0  0  0  0  2  0  0  0  0  0  0
  -28.4280  -23.1290   20.7430 C   0  0  0  0  0  3  0  0  0  0  0  0
  -28.7530  -24.0560   19.5340 C   0  0  2  0  0  0  0  0  0  0  0  0
  -28.5560  -23.8320   22.1100 C   0  0  0  0  0  1  0  0  0  0  0  0
  -29.4480  -22.0520   20.6230 N   0  0  0  0  0  0  0  0  0  0  0  0
  -28.0500  -20.4300   21.4730 N   0  0  0  0  0  0  0  0  0  0  0  0
  -27.9020  -19.4930   21.8120 H   0  0  0  0  0  0  0  0  0  0  0  0
  -27.3300  -21.1110   21.6290 H   0  0  0  0  0  0  0  0  0  0  0  0
  -32.4780  -18.7120   21.1160 C   0  0  0  0  0  3  0  0  0  0  0  0
  -31.5900  -19.8040   21.0990 C   0  0  0  0  0  3  0  0  0  0  0  0
  -32.0040  -17.3990   20.9310 C   0  0  0  0  0  3  0  0  0  0  0  0
  -29.7510  -18.2700   20.6470 C   0  0  0  0  0  3  0  0  0  0  0  0
  -30.2120  -19.6070   20.8620 C   0  0  0  0  0  0  0  0  0  0  0  0
  -30.6310  -17.1510   20.6930 C   0  0  0  0  0  0  0  0  0  0  0  0
  -30.7640  -14.7290   20.0480 C   0  0  0  0  0  0  0  0  0  0  0  0
  -30.4070  -12.5250   18.9920 C   0  0  0  0  0  2  0  0  0  0  0  0
  -29.4240  -12.6740   17.8120 C   0  0  0  0  0  2  0  0  0  0  0  0
  -27.9700  -12.5340   18.3010 C   0  0  0  0  0  2  0  0  0  0  0  0
  -27.6680  -13.4100   19.5470 C   0  0  0  0  0  3  0  0  0  0  0  0
  -28.7710  -13.2690   20.6230 C   0  0  0  0  0  2  0  0  0  0  0  0
  -30.0660  -13.5590   19.9860 N   0  0  0  0  0  0  0  0  0  0  0  0
  -31.8700  -14.8490   19.5160 O   0  0  0  0  0  0  0  0  0  0  0  0
  -30.1220  -15.8050   20.5670 N   0  0  0  0  0  0  0  0  0  0  0  0
  -29.1660  -15.6480   20.8470 H   0  0  0  0  0  0  0  0  0  0  0  0
  -25.3140  -14.0110   20.3880 C   0  0  0  0  0  0  0  0  0  0  0  0
  -24.2590  -13.2380   20.7910 C   0  0  0  0  0  0  0  0  0  0  0  0
  -24.7080  -11.8850   20.7100 C   0  0  0  0  0  0  0  0  0  0  0  0
  -26.3410  -13.1300   20.0890 N   0  0  0  0  0  0  0  0  0  0  0  0
  -25.9820  -11.8440   20.3390 N   0  0  0  0  0  0  0  0  0  0  0  0
  -23.9800  -10.6230   20.9050 C   0  0  0  0  0  0  0  0  0  0  0  0
  -24.4050   -9.6630   21.8500 C   0  0  0  0  0  3  0  0  0  0  0  0
  -23.6770   -8.4670   22.0310 C   0  0  0  0  0  3  0  0  0  0  0  0
  -22.5100   -8.2240   21.2680 C   0  0  0  0  0  0  0  0  0  0  0  0
  -22.1050   -9.1720   20.3120 C   0  0  0  0  0  3  0  0  0  0  0  0
  -22.8350  -10.3590   20.1280 C   0  0  0  0  0  3  0  0  0  0  0  0
  -21.7510   -7.0810   21.3600 O   0  0  0  0  0  0  0  0  0  0  0  0
  -21.6450   -6.3810   22.5350 C   0  0  0  0  0  0  0  0  0  0  0  0
  -21.1100   -6.9640   23.7050 C   0  0  0  0  0  3  0  0  0  0  0  0
  -20.9570   -6.1880   24.8700 C   0  0  0  0  0  3  0  0  0  0  0  0
  -21.3260   -4.8290   24.8670 C   0  0  0  0  0  0  0  0  0  0  0  0
  -21.8530   -4.2450   23.7010 C   0  0  0  0  0  3  0  0  0  0  0  0
  -22.0090   -5.0200   22.5380 C   0  0  0  0  0  0  0  0  0  0  0  0
  -22.4970   -4.4470   21.4120 F   0  0  0  0  0  0  0  0  0  0  0  0
  -21.1700   -4.0800   25.9840 F   0  0  0  0  0  0  0  0  0  0  0  0
  -22.8810  -13.7200   21.1400 C   0  0  0  0  0  0  0  0  0  0  0  0
  -22.1880  -13.0090   22.0240 N   0  0  0  0  0  0  0  0  0  0  0  0
  -22.4290  -14.7620   20.6660 O   0  0  0  0  0  0  0  0  0  0  0  0
  -22.5650  -12.1630   22.4260 H   0  0  0  0  0  0  0  0  0  0  0  0
  -21.2660  -13.3150   22.3020 H   0  0  0  0  0  0  0  0  0  0  0  0
  -25.4810  -15.3850   20.2290 N   0  0  0  0  0  0  0  0  0  0  0  0
  -24.7200  -16.0390   20.3660 H   0  0  0  0  0  0  0  0  0  0  0  0
  -26.3020  -15.8150   19.8210 H   0  0  0  0  0  0  0  0  0  0  0  0
  -27.2820  -22.7450   18.0480 C   0  0  0  0  0  1  0  0  0  0  0  0
  -28.5590  -23.3370   18.2990 O   0  0  0  0  0  0  0  0  0  0  0  0
  -27.8930  -25.3690   19.3900 C   0  0  0  0  0  2  0  0  0  0  0  0
  -28.1800  -26.7220   19.8690 O   0  0  0  0  0  0  0  0  0  0  0  0
  -24.5180  -31.9580   23.1870 C   0  0  0  0  0  0  0  0  0  0  0  0
  -27.0610  -27.5720   19.8710 C   0  0  0  0  0  0  0  0  0  0  0  0
  -23.2740  -30.6130   21.5350 C   0  0  0  0  0  3  0  0  0  0  0  0
  -24.6860  -29.1500   20.0100 C   0  0  0  0  0  0  0  0  0  0  0  0
  -25.8050  -30.9600   21.2940 C   0  0  0  0  0  2  0  0  0  0  0  0
  -25.8710  -29.6150   20.5950 C   0  0  0  0  0  0  0  0  0  0  0  0
  -27.0600  -28.8340   20.5300 C   0  0  0  0  0  3  0  0  0  0  0  0
  -25.8480  -27.1780   19.2400 C   0  0  0  0  0  3  0  0  0  0  0  0
  -24.6750  -27.9310   19.3300 C   0  0  0  0  0  3  0  0  0  0  0  0
  -23.4470  -30.0030   20.1240 C   0  0  0  0  0  2  0  0  0  0  0  0
  -24.5520  -31.1910   22.0620 N   0  0  0  0  0  0  0  0  0  0  0  0
  -23.4480  -32.2070   23.7620 O   0  0  0  0  0  0  0  0  0  0  0  0
  -22.6520  -29.5490   22.4700 C   0  0  0  0  0  0  0  0  0  0  0  0
  -21.3300  -29.3420   22.3540 N   0  0  0  0  0  0  0  0  0  0  0  0
  -23.3560  -28.9170   23.2630 O   0  0  0  0  0  0  0  0  0  0  0  0
  -20.8180  -29.9080   21.6920 H   0  0  0  0  0  0  0  0  0  0  0  0
  -17.9910  -28.0440   22.8480 C   0  0  0  0  0  0  0  0  0  0  0  0
  -20.5410  -28.3670   23.1110 C   0  0  0  0  0  3  0  0  0  0  0  0
  -20.6790  -26.9480   22.5140 C   0  0  0  0  0  2  0  0  0  0  0  0
  -19.5820  -26.6110   21.4990 C   0  0  0  0  0  2  0  0  0  0  0  0
  -18.2000  -26.7110   22.1490 C   0  0  0  0  0  2  0  0  0  0  0  0
  -19.0900  -28.8290   23.2860 C   0  0  0  0  0  0  0  0  0  0  0  0
  -18.8390  -30.0750   23.8980 C   0  0  0  0  0  3  0  0  0  0  0  0
  -17.5220  -30.5390   24.0760 C   0  0  0  0  0  3  0  0  0  0  0  0
  -16.4370  -29.7500   23.6560 C   0  0  0  0  0  3  0  0  0  0  0  0
  -16.6720  -28.5040   23.0480 C   0  0  0  0  0  3  0  0  0  0  0  0
  -25.8150  -32.5760   23.7900 C   0  0  0  0  0  3  0  0  0  0  0  0
  -26.3600  -31.7810   25.0380 C   0  0  1  0  0  0  0  0  0  0  0  0
  -25.2900  -31.5050   26.1190 C   0  0  0  0  0  1  0  0  0  0  0  0
  -26.9500  -30.4170   24.6070 C   0  0  0  0  0  1  0  0  0  0  0  0
  -27.5170  -32.5700   25.6960 C   0  0  0  0  0  1  0  0  0  0  0  0
  -25.5150  -33.9680   24.1520 N   0  0  0  0  0  0  0  0  0  0  0  0
  -25.8030  -35.0340   23.3930 C   0  0  0  0  0  0  0  0  0  0  0  0
  -26.4280  -34.9500   22.3330 O   0  0  0  0  0  0  0  0  0  0  0  0
  -24.9620  -34.1080   24.9870 H   0  0  0  0  0  0  0  0  0  0  0  0
  -24.0450  -36.8160   23.1390 C   0  0  0  0  0  1  0  0  0  0  0  0
  -25.3250  -36.4120   23.8890 C   0  0  0  0  0  3  0  0  0  0  0  0
  -27.4800  -37.3120   24.6430 C   0  0  0  0  0  1  0  0  0  0  0  0
  -26.3410  -37.4770   23.7450 N   0  0  0  0  0  0  0  0  0  0  0  0
  -25.9310  -38.3910   23.9200 H   0  0  0  0  0  0  0  0  0  0  0  0
  1  8  1  0
  2  3  1  0
  3  7  1  0
  4  6  1  0
  5 57  1  6
  5  2  1  0
  5  4  1  0
  7  4  1  0
  7  1  1  0
  8 10  1  0
  8  9  1  0
 12 11  1  0
 13 11  2  0
 14 16  2  0
 14 15  1  0
 15  1  1  0
 15 12  2  0
 16 13  1  0
 17 25  1  0
 18 23  1  0
 19 20  1  0
 19 18  1  0
 21 20  1  0
 21 30  1  0
 21 22  1  0
 23 17  1  0
 23 22  1  0
 24 17  2  0
 25 16  1  0
 25 26  1  0
 27 28  2  0
 28 47  1  0
 29 28  1  0
 29 32  1  0
 30 31  1  0
 30 27  1  0
 31 29  2  0
 32 33  1  0
 33 34  2  0
 35 38  1  0
 35 34  1  0
 36 35  2  0
 37 36  1  0
 37 32  2  0
 38 39  1  0
 39 44  2  0
 39 40  1  0
 40 41  2  0
 42 41  1  0
 42 46  1  0
 43 42  2  0
 44 43  1  0
 45 44  1  0
 47 48  1  0
 48 51  1  0
 48 50  1  0
 49 47  2  0
 52 53  1  0
 52 27  1  0
 54 52  1  0
 55 56  1  0
 56  5  1  0
 57 58  1  0
 58 60  1  0
 59 70  2  0
 60 65  1  0
 61 69  1  0
 61 71  1  0
 62 68  1  0
 62 64  1  0
 63 69  1  0
 64 63  1  0
 65 64  2  0
 66 67  1  0
 66 60  2  0
 67 62  2  0
 68 61  1  0
 69 59  1  0
 71 73  2  0
 72 71  1  0
 74 72  1  0
 75 84  2  0
 75 80  1  0
 76 72  1  0
 76 80  1  0
 77 76  1  0
 78 79  1  0
 78 77  1  0
 79 75  1  0
 80 81  2  0
 81 82  1  0
 83 82  2  0
 84 83  1  0
 85 59  1  0
 85 90  1  0
 85 86  1  0
 86 89  1  1
 86 87  1  0
 88 86  1  0
 90 93  1  0
 91 95  1  0
 91 90  1  0
 92 91  2  0
 95 94  1  0
 97 95  1  0
 97 98  1  0
 97 96  1  0
M  ISO  4  17 100  25 100  57 101  58 101
M  END
>  <TORSDO>  (15) 
F 19

>  <SCORE>  (15) 
-14.210

>  <name>  (15) 
14

>  <ligand_id>  (15) 
14

>  <original_smiles>  (15) 
[H]c1c([H])c(C(N2C([H])([H])C([H])([H])C(OC([H])([H])[H])(C([H])([H])Oc3c([H])c([H])c4c(c3[H])C([H])([H])N(C(=O)C([H])(N([H])C(=O)C([H])(N([H])C([H])([H])[H])C([H])([H])[H])C(C([H])([H])[H])(C([H])([H])[H])C([H])([H])[H])C([H])(C(=O)N([H])C3([H])c5c([H])c([H])c([H])c([H])c5C([H])([H])C([H])([H])C3([H])[H])C4([H])[H])C2([H])C([H])([H])[H])=[N+]([H])[H])c([H])c(N([H])C(=O)N2C([H])([H])C([H])([H])C([H])([H])C([H])(n3nc(-c4c([H])c([H])c(Oc5c([H])c([H])c(F)c([H])c5F)c([H])c4[H])c(C(=O)N([H])[H])c3N([H])[H])C2([H])[H])c1[H]

>  <smiles>  (15) 
[H]c1c([H])c(C(N2C([H])([H])C([H])([H])C(OC([H])([H])[H])(C([H])([H])Oc3c([H])c([H])c4c(c3[H])C([H])([H])N(C(=O)C([H])(N([H])C(=O)C([H])(N([H])C([H])([H])[H])C([H])([H])[H])C(C([H])([H])[H])(C([H])([H])[H])C([H])([H])[H])C([H])(C(=O)N([H])C3([H])c5c([H])c([H])c([H])c([H])c5C([H])([H])C([H])([H])C3([H])[H])C4([H])[H])C2([H])C([H])([H])[H])=[N+]([H])[H])c([H])c(N([H])C(=O)N2C([H])([H])C([H])([H])C([H])([H])C([H])(n3nc(-c4c([H])c([H])c(Oc5c([H])c([H])c(F)c([H])c5F)c([H])c4[H])c(C(=O)N([H])[H])c3N([H])[H])C2([H])[H])c1[H]

$$$$
15:0:0
     RDKit          3D

 92100  0  0  1  0  0  0  0  0999 V2000
  -28.8070  -20.9650   20.4320 N   0  0  0  0  0  0  0  0  0  0  0  0
  -27.9030  -20.7040   20.0460 H   0  0  0  0  0  0  0  0  0  0  0  0
  -29.3360  -18.4480   20.6500 C   0  0  0  0  0  3  0  0  0  0  0  0
  -31.6060  -17.7310   21.1240 C   0  0  0  0  0  3  0  0  0  0  0  0
  -31.0590  -20.1300   20.9900 C   0  0  0  0  0  3  0  0  0  0  0  0
  -30.2730  -17.3500   20.8360 C   0  0  0  0  0  0  0  0  0  0  0  0
  -29.7030  -19.8590   20.7100 C   0  0  0  0  0  0  0  0  0  0  0  0
  -31.9900  -19.0880   21.1910 C   0  0  0  0  0  0  0  0  0  0  0  0
  -33.2840  -19.3980   21.4430 F   0  0  0  0  0  0  0  0  0  0  0  0
  -30.6450  -14.7910   20.4200 C   0  0  0  0  0  0  0  0  0  0  0  0
  -30.4200  -12.5580   19.3220 C   0  0  0  0  0  2  0  0  0  0  0  0
  -29.4680  -12.6410   18.1070 C   0  0  0  0  0  2  0  0  0  0  0  0
  -28.0090  -12.4380   18.5550 C   0  0  0  0  0  2  0  0  0  0  0  0
  -27.6360  -13.3170   19.7760 C   0  0  0  0  0  3  0  0  0  0  0  0
  -28.7010  -13.2200   20.8920 C   0  0  0  0  0  2  0  0  0  0  0  0
  -29.9960  -13.5810   20.3050 N   0  0  0  0  0  0  0  0  0  0  0  0
  -31.8110  -14.8940   20.0320 O   0  0  0  0  0  0  0  0  0  0  0  0
  -29.9010  -15.9070   20.7740 N   0  0  0  0  0  0  0  0  0  0  0  0
  -28.9360  -15.7010   20.9800 H   0  0  0  0  0  0  0  0  0  0  0  0
  -25.2450  -13.8840   20.5180 C   0  0  0  0  0  0  0  0  0  0  0  0
  -24.1870  -13.0970   20.8820 C   0  0  0  0  0  0  0  0  0  0  0  0
  -24.6590  -11.7500   20.8300 C   0  0  0  0  0  0  0  0  0  0  0  0
  -26.2960  -13.0160   20.2680 N   0  0  0  0  0  0  0  0  0  0  0  0
  -25.9500  -11.7260   20.5200 N   0  0  0  0  0  0  0  0  0  0  0  0
  -23.9460  -10.4790   21.0070 C   0  0  0  0  0  0  0  0  0  0  0  0
  -24.3630   -9.5210   21.9580 C   0  0  0  0  0  3  0  0  0  0  0  0
  -23.6460   -8.3170   22.1210 C   0  0  0  0  0  3  0  0  0  0  0  0
  -22.5000   -8.0580   21.3310 C   0  0  0  0  0  0  0  0  0  0  0  0
  -22.1050   -9.0050   20.3690 C   0  0  0  0  0  3  0  0  0  0  0  0
  -22.8210  -10.2010   20.2050 C   0  0  0  0  0  3  0  0  0  0  0  0
  -21.7580   -6.9020   21.4000 O   0  0  0  0  0  0  0  0  0  0  0  0
  -21.6500   -6.1870   22.5660 C   0  0  0  0  0  0  0  0  0  0  0  0
  -21.0870   -6.7460   23.7340 C   0  0  0  0  0  3  0  0  0  0  0  0
  -20.9300   -5.9530   24.8890 C   0  0  0  0  0  3  0  0  0  0  0  0
  -21.3300   -4.6030   24.8760 C   0  0  0  0  0  0  0  0  0  0  0  0
  -21.8880   -4.0440   23.7130 C   0  0  0  0  0  3  0  0  0  0  0  0
  -22.0460   -4.8340   22.5600 C   0  0  0  0  0  0  0  0  0  0  0  0
  -22.5630   -4.2830   21.4350 F   0  0  0  0  0  0  0  0  0  0  0  0
  -21.1740   -3.8390   25.9840 F   0  0  0  0  0  0  0  0  0  0  0  0
  -22.7870  -13.5590   21.1660 C   0  0  0  0  0  0  0  0  0  0  0  0
  -22.0630  -12.8350   22.0120 N   0  0  0  0  0  0  0  0  0  0  0  0
  -22.3450  -14.5960   20.6720 O   0  0  0  0  0  0  0  0  0  0  0  0
  -22.4360  -11.9940   22.4310 H   0  0  0  0  0  0  0  0  0  0  0  0
  -21.1230  -13.1240   22.2450 H   0  0  0  0  0  0  0  0  0  0  0  0
  -25.3990  -15.2580   20.3520 N   0  0  0  0  0  0  0  0  0  0  0  0
  -24.6260  -15.9050   20.4580 H   0  0  0  0  0  0  0  0  0  0  0  0
  -26.2310  -15.6980   19.9820 H   0  0  0  0  0  0  0  0  0  0  0  0
  -28.8200  -22.3360   21.1050 C   0  0  0  0  0  2  0  0  0  0  0  0
  -28.6340  -23.7080   20.2780 C   0  0  0  0  0  0  0  0  0  0  0  0
  -29.0040  -23.7390   19.1000 O   0  0  0  0  0  0  0  0  0  0  0  0
  -27.9820  -25.0250   20.9360 C   0  0  0  0  0  2  0  0  0  0  0  0
  -28.2850  -26.3810   20.3420 O   0  0  0  0  0  0  0  0  0  0  0  0
  -24.5930  -31.9370   23.2010 C   0  0  0  0  0  0  0  0  0  0  0  0
  -27.2160  -27.3000   20.2560 C   0  0  0  0  0  0  0  0  0  0  0  0
  -23.4090  -30.5160   21.5630 C   0  0  0  0  0  3  0  0  0  0  0  0
  -24.8770  -28.9530   20.1610 C   0  0  0  0  0  0  0  0  0  0  0  0
  -25.9530  -30.8220   21.4140 C   0  0  0  0  0  2  0  0  0  0  0  0
  -26.0360  -29.4350   20.7810 C   0  0  0  0  0  0  0  0  0  0  0  0
  -27.2130  -28.6200   20.8170 C   0  0  0  0  0  3  0  0  0  0  0  0
  -26.0450  -26.8930   19.5820 C   0  0  0  0  0  3  0  0  0  0  0  0
  -24.8910  -27.6970   19.5320 C   0  0  0  0  0  3  0  0  0  0  0  0
  -23.6420  -29.8280   20.1880 C   0  0  0  0  0  2  0  0  0  0  0  0
  -24.6690  -31.1140   22.1140 N   0  0  0  0  0  0  0  0  0  0  0  0
  -23.5050  -32.2160   23.7250 O   0  0  0  0  0  0  0  0  0  0  0  0
  -22.7380  -29.5120   22.5310 C   0  0  0  0  0  0  0  0  0  0  0  0
  -21.4100  -29.3400   22.4080 N   0  0  0  0  0  0  0  0  0  0  0  0
  -23.4130  -28.8890   23.3550 O   0  0  0  0  0  0  0  0  0  0  0  0
  -20.9250  -29.8970   21.7210 H   0  0  0  0  0  0  0  0  0  0  0  0
  -18.0240  -28.1810   22.9470 C   0  0  0  0  0  0  0  0  0  0  0  0
  -20.5900  -28.4110   23.1850 C   0  0  0  0  0  3  0  0  0  0  0  0
  -20.6660  -26.9790   22.6050 C   0  0  0  0  0  2  0  0  0  0  0  0
  -19.5490  -26.6740   21.6030 C   0  0  0  0  0  2  0  0  0  0  0  0
  -18.1760  -26.8320   22.2640 C   0  0  0  0  0  2  0  0  0  0  0  0
  -19.1580  -28.9290   23.3650 C   0  0  0  0  0  0  0  0  0  0  0  0
  -18.9590  -30.1890   23.9670 C   0  0  0  0  0  3  0  0  0  0  0  0
  -17.6620  -30.7040   24.1540 C   0  0  0  0  0  3  0  0  0  0  0  0
  -16.5450  -29.9520   23.7540 C   0  0  0  0  0  3  0  0  0  0  0  0
  -16.7250  -28.6940   23.1530 C   0  0  0  0  0  3  0  0  0  0  0  0
  -25.8700  -32.5810   23.8250 C   0  0  0  0  0  3  0  0  0  0  0  0
  -26.3890  -31.8220   25.1090 C   0  0  1  0  0  0  0  0  0  0  0  0
  -25.2950  -31.5790   26.1740 C   0  0  0  0  0  1  0  0  0  0  0  0
  -26.9920  -30.4490   24.7330 C   0  0  0  0  0  1  0  0  0  0  0  0
  -27.5270  -32.6340   25.7730 C   0  0  0  0  0  1  0  0  0  0  0  0
  -25.5490  -33.9790   24.1510 N   0  0  0  0  0  0  0  0  0  0  0  0
  -25.8710  -35.0350   23.3930 C   0  0  0  0  0  0  0  0  0  0  0  0
  -26.5420  -34.9380   22.3620 O   0  0  0  0  0  0  0  0  0  0  0  0
  -24.9600  -34.1280   24.9580 H   0  0  0  0  0  0  0  0  0  0  0  0
  -24.1470  -36.8310   23.0230 C   0  0  0  0  0  1  0  0  0  0  0  0
  -25.3740  -36.4220   23.8520 C   0  0  0  0  0  3  0  0  0  0  0  0
  -27.4870  -37.3120   24.7300 C   0  0  0  0  0  1  0  0  0  0  0  0
  -26.4070  -37.4760   23.7630 N   0  0  0  0  0  0  0  0  0  0  0  0
  -25.9960  -38.3940   23.9040 H   0  0  0  0  0  0  0  0  0  0  0  0
  1  7  1  0
  1 48  1  0
  2  1  1  0
  3  7  2  0
  3  6  1  0
  4  8  1  0
  5  8  2  0
  6  4  2  0
  7  5  1  0
  8  9  1  0
 10 18  1  0
 11 16  1  0
 12 13  1  0
 12 11  1  0
 14 13  1  0
 14 23  1  0
 14 15  1  0
 16 10  1  0
 16 15  1  0
 17 10  2  0
 18  6  1  0
 18 19  1  0
 20 21  2  0
 21 40  1  0
 22 21  1  0
 22 25  1  0
 23 20  1  0
 23 24  1  0
 24 22  2  0
 25 26  1  0
 26 27  2  0
 28 31  1  0
 28 27  1  0
 29 28  2  0
 30 29  1  0
 30 25  2  0
 31 32  1  0
 32 33  1  0
 33 34  2  0
 35 34  1  0
 35 39  1  0
 36 35  2  0
 37 32  2  0
 37 36  1  0
 38 37  1  0
 40 41  1  0
 41 44  1  0
 41 43  1  0
 42 40  2  0
 45 46  1  0
 45 20  1  0
 47 45  1  0
 49 51  1  0
 49 48  1  0
 50 49  2  0
 52 51  1  0
 53 64  2  0
 54 52  1  0
 54 59  1  0
 55 63  1  0
 55 65  1  0
 56 62  1  0
 56 58  1  0
 57 63  1  0
 58 59  2  0
 58 57  1  0
 60 54  2  0
 61 60  1  0
 61 56  2  0
 62 55  1  0
 63 53  1  0
 65 67  2  0
 66 65  1  0
 68 66  1  0
 69 78  2  0
 69 74  1  0
 70 66  1  0
 70 74  1  0
 71 70  1  0
 72 73  1  0
 72 71  1  0
 73 69  1  0
 74 75  2  0
 75 76  1  0
 77 76  2  0
 78 77  1  0
 79 53  1  0
 79 84  1  0
 79 80  1  0
 80 83  1  1
 80 81  1  0
 82 80  1  0
 84 87  1  0
 85 89  1  0
 85 84  1  0
 86 85  2  0
 89 88  1  0
 91 89  1  0
 91 92  1  0
 91 90  1  0
M  ISO  4  10 100  18 100  51 101  52 101
M  END
>  <TORSDO>  (16) 
F 20

>  <SCORE>  (16) 
-14.173

>  <name>  (16) 
15

>  <ligand_id>  (16) 
15

>  <original_smiles>  (16) 
[H]c1c([H])c([H])c2c(c1[H])C([H])([H])C([H])([H])C([H])([H])C2([H])N([H])C(=O)C1([H])N(C(=O)C([H])(N([H])C(=O)C([H])(N([H])C([H])([H])[H])C([H])([H])[H])C(C([H])([H])[H])(C([H])([H])[H])C([H])([H])[H])C([H])([H])c2c([H])c(OC([H])([H])C(=O)C([H])([H])N([H])c3c([H])c(F)c([H])c(N([H])C(=O)N4C([H])([H])C([H])([H])C([H])([H])C([H])(n5nc(-c6c([H])c([H])c(Oc7c([H])c([H])c(F)c([H])c7F)c([H])c6[H])c(C(=O)N([H])[H])c5N([H])[H])C4([H])[H])c3[H])c([H])c([H])c2C1([H])[H]

>  <smiles>  (16) 
[H]c1c([H])c([H])c2c(c1[H])C([H])([H])C([H])([H])C([H])([H])C2([H])N([H])C(=O)C1([H])N(C(=O)C([H])(N([H])C(=O)C([H])(N([H])C([H])([H])[H])C([H])([H])[H])C(C([H])([H])[H])(C([H])([H])[H])C([H])([H])[H])C([H])([H])c2c([H])c(OC([H])([H])C(=O)C([H])([H])N([H])c3c([H])c(F)c([H])c(N([H])C(=O)N4C([H])([H])C([H])([H])C([H])([H])C([H])(n5nc(-c6c([H])c([H])c(Oc7c([H])c([H])c(F)c([H])c7F)c([H])c6[H])c(C(=O)N([H])[H])c5N([H])[H])C4([H])[H])c3[H])c([H])c([H])c2C1([H])[H]

$$$$
16:0:0
     RDKit          3D

 93102  0  0  1  0  0  0  0  0999 V2000
  -32.3410  -20.9220   20.9640 C   0  0  0  0  0  3  0  0  0  0  0  0
  -31.7650  -19.6410   21.0290 C   0  0  0  0  0  3  0  0  0  0  0  0
  -31.5500  -22.0500   20.6770 C   0  0  0  0  0  3  0  0  0  0  0  0
  -29.5920  -20.6100   20.5150 C   0  0  0  0  0  3  0  0  0  0  0  0
  -30.3840  -19.4640   20.8000 C   0  0  0  0  0  0  0  0  0  0  0  0
  -30.1580  -21.9160   20.4580 C   0  0  0  0  0  0  0  0  0  0  0  0
  -30.7550  -14.5700   20.0290 C   0  0  0  0  0  0  0  0  0  0  0  0
  -30.3410  -12.4760   18.7820 C   0  0  0  0  0  2  0  0  0  0  0  0
  -29.3110  -12.7460   17.6650 C   0  0  0  0  0  2  0  0  0  0  0  0
  -27.8730  -12.5880   18.1960 C   0  0  0  0  0  2  0  0  0  0  0  0
  -27.6410  -13.3450   19.5310 C   0  0  0  0  0  3  0  0  0  0  0  0
  -28.7780  -13.0490   20.5330 C   0  0  0  0  0  2  0  0  0  0  0  0
  -30.0490  -13.4090   19.8870 N   0  0  0  0  0  0  0  0  0  0  0  0
  -31.8460  -14.7250   19.4680 O   0  0  0  0  0  0  0  0  0  0  0  0
  -29.9780  -17.3440   22.2230 C   0  0  0  0  0  2  0  0  0  0  0  0
  -29.7220  -15.8640   21.8990 C   0  0  0  0  0  2  0  0  0  0  0  0
  -30.2870  -17.0040   19.8890 C   0  0  0  0  0  2  0  0  0  0  0  0
  -29.7640  -18.0540   20.8920 C   0  0  0  0  0  3  0  0  0  0  0  0
  -30.0800  -15.6640   20.4870 N   0  0  0  0  0  0  0  0  0  0  0  0
  -25.2960  -13.9140   20.4220 C   0  0  0  0  0  0  0  0  0  0  0  0
  -24.2590  -13.1230   20.8410 C   0  0  0  0  0  0  0  0  0  0  0  0
  -24.7240  -11.7770   20.7400 C   0  0  0  0  0  0  0  0  0  0  0  0
  -26.3270  -13.0470   20.0950 N   0  0  0  0  0  0  0  0  0  0  0  0
  -25.9900  -11.7550   20.3410 N   0  0  0  0  0  0  0  0  0  0  0  0
  -24.0200  -10.5050   20.9440 C   0  0  0  0  0  0  0  0  0  0  0  0
  -24.4840   -9.5430   21.8690 C   0  0  0  0  0  3  0  0  0  0  0  0
  -23.7790   -8.3360   22.0610 C   0  0  0  0  0  3  0  0  0  0  0  0
  -22.5950   -8.0800   21.3290 C   0  0  0  0  0  0  0  0  0  0  0  0
  -22.1510   -9.0300   20.3930 C   0  0  0  0  0  3  0  0  0  0  0  0
  -22.8560  -10.2290   20.1980 C   0  0  0  0  0  3  0  0  0  0  0  0
  -21.8600   -6.9250   21.4300 O   0  0  0  0  0  0  0  0  0  0  0  0
  -21.7850   -6.2190   22.6050 C   0  0  0  0  0  0  0  0  0  0  0  0
  -21.3070   -6.8060   23.7970 C   0  0  0  0  0  3  0  0  0  0  0  0
  -21.1820   -6.0270   24.9640 C   0  0  0  0  0  3  0  0  0  0  0  0
  -21.5240   -4.6610   24.9410 C   0  0  0  0  0  0  0  0  0  0  0  0
  -21.9950   -4.0740   23.7520 C   0  0  0  0  0  3  0  0  0  0  0  0
  -22.1220   -4.8510   22.5880 C   0  0  0  0  0  0  0  0  0  0  0  0
  -22.5560   -4.2750   21.4410 F   0  0  0  0  0  0  0  0  0  0  0  0
  -21.3960   -3.9100   26.0590 F   0  0  0  0  0  0  0  0  0  0  0  0
  -22.8830  -13.5830   21.2260 C   0  0  0  0  0  0  0  0  0  0  0  0
  -22.2320  -12.8730   22.1400 N   0  0  0  0  0  0  0  0  0  0  0  0
  -22.3940  -14.6070   20.7500 O   0  0  0  0  0  0  0  0  0  0  0  0
  -22.6410  -12.0430   22.5450 H   0  0  0  0  0  0  0  0  0  0  0  0
  -21.3120  -13.1620   22.4400 H   0  0  0  0  0  0  0  0  0  0  0  0
  -25.4430  -15.2900   20.2730 N   0  0  0  0  0  0  0  0  0  0  0  0
  -24.6870  -15.9400   20.4590 H   0  0  0  0  0  0  0  0  0  0  0  0
  -26.2780  -15.7410   19.9210 H   0  0  0  0  0  0  0  0  0  0  0  0
  -29.5030  -24.3690   20.2420 C   0  0  0  0  0  0  0  0  0  0  0  0
  -29.3040  -23.0290   20.1470 N   0  0  0  0  0  0  0  0  0  0  0  0
  -30.5170  -24.8910   20.7160 O   0  0  0  0  0  0  0  0  0  0  0  0
  -28.3880  -22.7780   19.8000 H   0  0  0  0  0  0  0  0  0  0  0  0
  -28.3460  -25.2550   19.7310 C   0  0  0  0  0  2  0  0  0  0  0  0
  -28.4830  -26.6610   20.0600 O   0  0  0  0  0  0  0  0  0  0  0  0
  -24.5880  -31.7660   23.1960 C   0  0  0  0  0  0  0  0  0  0  0  0
  -27.3160  -27.4140   20.0270 C   0  0  0  0  0  0  0  0  0  0  0  0
  -23.4180  -30.3890   21.5100 C   0  0  0  0  0  3  0  0  0  0  0  0
  -24.9050  -28.9170   20.0550 C   0  0  0  0  0  0  0  0  0  0  0  0
  -25.9450  -30.7820   21.3470 C   0  0  0  0  0  2  0  0  0  0  0  0
  -26.0550  -29.4290   20.6690 C   0  0  0  0  0  0  0  0  0  0  0  0
  -27.2620  -28.6860   20.6520 C   0  0  0  0  0  3  0  0  0  0  0  0
  -26.1420  -26.9370   19.3930 C   0  0  0  0  0  3  0  0  0  0  0  0
  -24.9460  -27.6710   19.4130 C   0  0  0  0  0  3  0  0  0  0  0  0
  -23.6500  -29.7570   20.1140 C   0  0  0  0  0  2  0  0  0  0  0  0
  -24.6680  -30.9920   22.0760 N   0  0  0  0  0  0  0  0  0  0  0  0
  -23.4970  -32.0090   23.7310 O   0  0  0  0  0  0  0  0  0  0  0  0
  -22.7740  -29.3320   22.4360 C   0  0  0  0  0  0  0  0  0  0  0  0
  -21.4560  -29.1230   22.2840 N   0  0  0  0  0  0  0  0  0  0  0  0
  -23.4580  -28.7030   23.2480 O   0  0  0  0  0  0  0  0  0  0  0  0
  -20.9640  -29.6840   21.6020 H   0  0  0  0  0  0  0  0  0  0  0  0
  -18.0980  -27.8560   22.7120 C   0  0  0  0  0  0  0  0  0  0  0  0
  -20.6480  -28.1520   23.0210 C   0  0  0  0  0  3  0  0  0  0  0  0
  -20.7830  -26.7380   22.4120 C   0  0  0  0  0  2  0  0  0  0  0  0
  -19.6990  -26.4210   21.3770 C   0  0  0  0  0  2  0  0  0  0  0  0
  -18.3070  -26.5250   22.0080 C   0  0  0  0  0  2  0  0  0  0  0  0
  -19.1970  -28.6260   23.1740 C   0  0  0  0  0  0  0  0  0  0  0  0
  -18.9490  -29.8720   23.7920 C   0  0  0  0  0  3  0  0  0  0  0  0
  -17.6340  -30.3460   23.9520 C   0  0  0  0  0  3  0  0  0  0  0  0
  -16.5480  -29.5720   23.5060 C   0  0  0  0  0  3  0  0  0  0  0  0
  -16.7810  -28.3280   22.8920 C   0  0  0  0  0  3  0  0  0  0  0  0
  -25.8580  -32.4010   23.8430 C   0  0  0  0  0  3  0  0  0  0  0  0
  -25.5300  -33.7920   24.1830 N   0  0  0  0  0  0  0  0  0  0  0  0
  -25.8490  -34.8530   23.4310 C   0  0  0  0  0  0  0  0  0  0  0  0
  -26.5200  -34.7670   22.3990 O   0  0  0  0  0  0  0  0  0  0  0  0
  -24.9330  -33.9320   24.9850 H   0  0  0  0  0  0  0  0  0  0  0  0
  -24.0870  -36.6170   23.0970 C   0  0  0  0  0  1  0  0  0  0  0  0
  -25.3420  -36.2320   23.8970 C   0  0  0  0  0  3  0  0  0  0  0  0
  -27.4680  -37.1510   24.7140 C   0  0  0  0  0  1  0  0  0  0  0  0
  -26.3560  -37.3030   23.7780 N   0  0  0  0  0  0  0  0  0  0  0  0
  -25.9350  -38.2160   23.9310 H   0  0  0  0  0  0  0  0  0  0  0  0
  -26.3640  -31.6180   25.1150 C   0  0  1  0  0  0  0  0  0  0  0  0
  -25.2580  -31.3540   26.1640 C   0  0  0  0  0  1  0  0  0  0  0  0
  -26.9690  -30.2520   24.7140 C   0  0  0  0  0  1  0  0  0  0  0  0
  -27.4960  -32.4160   25.8040 C   0  0  0  0  0  1  0  0  0  0  0  0
  1  2  1  0
  3  1  2  0
  4  5  1  0
  5  2  2  0
  6  4  2  0
  6  3  1  0
  7 19  1  0
  8 13  1  0
  9 10  1  0
  9  8  1  0
 11 10  1  0
 11 23  1  0
 11 12  1  0
 13  7  1  0
 13 12  1  0
 14  7  2  0
 16 15  1  0
 17 19  1  0
 17 18  1  0
 18  5  1  0
 18 15  1  0
 19 16  1  0
 20 21  2  0
 21 40  1  0
 22 21  1  0
 22 25  1  0
 23 24  1  0
 23 20  1  0
 24 22  2  0
 25 26  1  0
 26 27  2  0
 28 31  1  0
 28 27  1  0
 29 28  2  0
 30 29  1  0
 30 25  2  0
 31 32  1  0
 32 33  1  0
 33 34  2  0
 35 34  1  0
 35 39  1  0
 36 35  2  0
 37 32  2  0
 37 36  1  0
 38 37  1  0
 40 41  1  0
 41 44  1  0
 41 43  1  0
 42 40  2  0
 45 20  1  0
 45 46  1  0
 47 45  1  0
 48 50  2  0
 49 48  1  0
 49  6  1  0
 51 49  1  0
 52 53  1  0
 52 48  1  0
 54 65  2  0
 55 53  1  0
 55 60  1  0
 56 64  1  0
 56 66  1  0
 57 63  1  0
 57 59  1  0
 58 64  1  0
 59 58  1  0
 60 59  2  0
 61 62  1  0
 61 55  2  0
 62 57  2  0
 63 56  1  0
 64 54  1  0
 66 68  2  0
 67 66  1  0
 69 67  1  0
 70 79  2  0
 70 75  1  0
 71 67  1  0
 71 75  1  0
 72 71  1  0
 73 74  1  0
 73 72  1  0
 74 70  1  0
 75 76  2  0
 76 77  1  0
 78 77  2  0
 79 78  1  0
 80 54  1  0
 80 81  1  0
 80 90  1  0
 81 84  1  0
 82 86  1  0
 82 81  1  0
 83 82  2  0
 86 85  1  0
 88 86  1  0
 88 89  1  0
 88 87  1  0
 90 93  1  1
 90 91  1  0
 92 90  1  0
M  ISO  4   7 100  19 100  52 101  53 101
M  END
>  <TORSDO>  (17) 
F 18

>  <SCORE>  (17) 
-13.867

>  <name>  (17) 
16

>  <ligand_id>  (17) 
16

>  <original_smiles>  (17) 
[H]c1c([H])c([H])c2c(c1[H])C([H])([H])C([H])([H])C([H])([H])C2([H])N([H])C(=O)C1([H])N(C(=O)C([H])(N([H])C(=O)C([H])(N([H])C([H])([H])[H])C([H])([H])[H])C(C([H])([H])[H])(C([H])([H])[H])C([H])([H])[H])C([H])([H])c2c([H])c(OC([H])([H])C(=O)N([H])c3c([H])c([H])c([H])c(C4([H])C([H])([H])N(C(=O)N5C([H])([H])C([H])([H])C([H])([H])C([H])(n6nc(-c7c([H])c([H])c(Oc8c([H])c([H])c(F)c([H])c8F)c([H])c7[H])c(C(=O)N([H])[H])c6N([H])[H])C5([H])[H])C([H])([H])C4([H])[H])c3[H])c([H])c([H])c2C1([H])[H]

>  <smiles>  (17) 
[H]c1c([H])c([H])c2c(c1[H])C([H])([H])C([H])([H])C([H])([H])C2([H])N([H])C(=O)C1([H])N(C(=O)C([H])(N([H])C(=O)C([H])(N([H])C([H])([H])[H])C([H])([H])[H])C(C([H])([H])[H])(C([H])([H])[H])C([H])([H])[H])C([H])([H])c2c([H])c(OC([H])([H])C(=O)N([H])c3c([H])c([H])c([H])c(C4([H])C([H])([H])N(C(=O)N5C([H])([H])C([H])([H])C([H])([H])C([H])(n6nc(-c7c([H])c([H])c(Oc8c([H])c([H])c(F)c([H])c8F)c([H])c7[H])c(C(=O)N([H])[H])c6N([H])[H])C5([H])[H])C([H])([H])C4([H])[H])c3[H])c([H])c([H])c2C1([H])[H]

$$$$
17:0:0
     RDKit          3D

 93102  0  0  1  0  0  0  0  0999 V2000
  -29.7000  -23.5250   21.6080 C   0  0  0  0  0  2  0  0  0  0  0  0
  -30.4600  -22.1830   21.6900 C   0  0  0  0  0  2  0  0  0  0  0  0
  -28.8120  -22.0290   20.0300 C   0  0  0  0  0  2  0  0  0  0  0  0
  -29.1680  -23.6250   20.1820 C   0  0  2  0  0  0  0  0  0  0  0  0
  -29.7970  -21.1910   20.8290 N   0  0  0  0  0  0  0  0  0  0  0  0
  -30.9450  -17.7270   21.6640 C   0  0  0  0  0  3  0  0  0  0  0  0
  -30.9030  -19.1430   21.9000 C   0  0  0  0  0  0  0  0  0  0  0  0
  -30.0540  -19.7260   20.9610 C   0  0  0  0  0  0  0  0  0  0  0  0
  -30.1130  -17.4170   20.6290 C   0  0  0  0  0  0  0  0  0  0  0  0
  -31.6910  -19.7380   23.0470 C   0  0  0  0  0  1  0  0  0  0  0  0
  -29.5160  -18.6490   20.1870 O   0  0  0  0  0  0  0  0  0  0  0  0
  -30.6020  -14.9110   20.2680 C   0  0  0  0  0  0  0  0  0  0  0  0
  -30.4260  -12.6000   19.2930 C   0  0  0  0  0  2  0  0  0  0  0  0
  -29.4780  -12.6070   18.0760 C   0  0  0  0  0  2  0  0  0  0  0  0
  -28.0130  -12.4150   18.5210 C   0  0  0  0  0  2  0  0  0  0  0  0
  -27.6350  -13.3270   19.7200 C   0  0  0  0  0  3  0  0  0  0  0  0
  -28.7060  -13.2980   20.8280 C   0  0  0  0  0  2  0  0  0  0  0  0
  -29.9740  -13.6810   20.1950 N   0  0  0  0  0  0  0  0  0  0  0  0
  -31.8160  -14.9660   20.0510 O   0  0  0  0  0  0  0  0  0  0  0  0
  -29.8230  -16.0810   20.2580 N   0  0  0  0  0  0  0  0  0  0  0  0
  -28.8580  -15.9190   20.0130 H   0  0  0  0  0  0  0  0  0  0  0  0
  -25.2680  -13.9290   20.4980 C   0  0  0  0  0  0  0  0  0  0  0  0
  -24.2010  -13.1610   20.8760 C   0  0  0  0  0  0  0  0  0  0  0  0
  -24.6540  -11.8070   20.8290 C   0  0  0  0  0  0  0  0  0  0  0  0
  -26.3010  -13.0430   20.2360 N   0  0  0  0  0  0  0  0  0  0  0  0
  -25.9410  -11.7600   20.5020 N   0  0  0  0  0  0  0  0  0  0  0  0
  -23.9190  -10.5500   21.0150 C   0  0  0  0  0  0  0  0  0  0  0  0
  -24.3470   -9.5770   21.9470 C   0  0  0  0  0  3  0  0  0  0  0  0
  -23.6120   -8.3850   22.1260 C   0  0  0  0  0  3  0  0  0  0  0  0
  -22.4360   -8.1580   21.3700 C   0  0  0  0  0  0  0  0  0  0  0  0
  -22.0260   -9.1190   20.4300 C   0  0  0  0  0  3  0  0  0  0  0  0
  -22.7610  -10.3020   20.2490 C   0  0  0  0  0  3  0  0  0  0  0  0
  -21.6730   -7.0170   21.4570 O   0  0  0  0  0  0  0  0  0  0  0  0
  -21.6040   -6.2830   22.6110 C   0  0  0  0  0  0  0  0  0  0  0  0
  -21.1450   -6.8420   23.8240 C   0  0  0  0  0  3  0  0  0  0  0  0
  -21.0230   -6.0340   24.9720 C   0  0  0  0  0  3  0  0  0  0  0  0
  -21.3510   -4.6650   24.9060 C   0  0  0  0  0  0  0  0  0  0  0  0
  -21.8030   -4.1050   23.6990 C   0  0  0  0  0  3  0  0  0  0  0  0
  -21.9250   -4.9110   22.5540 C   0  0  0  0  0  0  0  0  0  0  0  0
  -22.3400   -4.3620   21.3870 F   0  0  0  0  0  0  0  0  0  0  0  0
  -21.2260   -3.8860   26.0060 F   0  0  0  0  0  0  0  0  0  0  0  0
  -22.8120  -13.6500   21.1630 C   0  0  0  0  0  0  0  0  0  0  0  0
  -22.0890  -12.9590   22.0370 N   0  0  0  0  0  0  0  0  0  0  0  0
  -22.3740  -14.6770   20.6460 O   0  0  0  0  0  0  0  0  0  0  0  0
  -22.4650  -12.1360   22.4850 H   0  0  0  0  0  0  0  0  0  0  0  0
  -21.1510  -13.2580   22.2630 H   0  0  0  0  0  0  0  0  0  0  0  0
  -25.4350  -15.3020   20.3290 N   0  0  0  0  0  0  0  0  0  0  0  0
  -24.6560  -15.9420   20.4390 H   0  0  0  0  0  0  0  0  0  0  0  0
  -26.2630  -15.7450   19.9590 H   0  0  0  0  0  0  0  0  0  0  0  0
  -30.9970  -24.9570   19.2420 C   0  0  0  0  0  1  0  0  0  0  0  0
  -30.2270  -23.7600   19.2230 O   0  0  0  0  0  0  0  0  0  0  0  0
  -28.0760  -24.8560   19.9550 C   0  0  0  0  0  2  0  0  0  0  0  0
  -28.3010  -26.3430   20.2440 O   0  0  0  0  0  0  0  0  0  0  0  0
  -24.6220  -31.9190   23.2350 C   0  0  0  0  0  0  0  0  0  0  0  0
  -27.2130  -27.2690   20.1900 C   0  0  0  0  0  0  0  0  0  0  0  0
  -23.4140  -30.5150   21.6050 C   0  0  0  0  0  3  0  0  0  0  0  0
  -24.8620  -28.9460   20.1840 C   0  0  0  0  0  0  0  0  0  0  0  0
  -25.9600  -30.8120   21.4150 C   0  0  0  0  0  2  0  0  0  0  0  0
  -26.0380  -29.4210   20.7740 C   0  0  0  0  0  0  0  0  0  0  0  0
  -27.2160  -28.5950   20.7670 C   0  0  0  0  0  3  0  0  0  0  0  0
  -26.0070  -26.8790   19.5690 C   0  0  0  0  0  3  0  0  0  0  0  0
  -24.8510  -27.6830   19.5740 C   0  0  0  0  0  3  0  0  0  0  0  0
  -23.6290  -29.8270   20.2310 C   0  0  0  0  0  2  0  0  0  0  0  0
  -24.6850  -31.1020   22.1410 N   0  0  0  0  0  0  0  0  0  0  0  0
  -23.5380  -32.2040   23.7680 O   0  0  0  0  0  0  0  0  0  0  0  0
  -22.7450  -29.5100   22.5760 C   0  0  0  0  0  0  0  0  0  0  0  0
  -21.4170  -29.3280   22.4550 N   0  0  0  0  0  0  0  0  0  0  0  0
  -23.4230  -28.8920   23.4000 O   0  0  0  0  0  0  0  0  0  0  0  0
  -20.9240  -29.8830   21.7680 H   0  0  0  0  0  0  0  0  0  0  0  0
  -18.0430  -28.1110   22.9760 C   0  0  0  0  0  0  0  0  0  0  0  0
  -20.6030  -28.3910   23.2340 C   0  0  0  0  0  3  0  0  0  0  0  0
  -20.7090  -26.9520   22.6750 C   0  0  0  0  0  2  0  0  0  0  0  0
  -19.6080  -26.6150   21.6640 C   0  0  0  0  0  2  0  0  0  0  0  0
  -18.2270  -26.7570   22.3090 C   0  0  0  0  0  2  0  0  0  0  0  0
  -19.1590  -28.8840   23.3980 C   0  0  0  0  0  0  0  0  0  0  0  0
  -18.9310  -30.1470   23.9830 C   0  0  0  0  0  3  0  0  0  0  0  0
  -17.6230  -30.6430   24.1420 C   0  0  0  0  0  3  0  0  0  0  0  0
  -16.5240  -29.8680   23.7340 C   0  0  0  0  0  3  0  0  0  0  0  0
  -16.7350  -28.6030   23.1600 C   0  0  0  0  0  3  0  0  0  0  0  0
  -25.9040  -32.5570   23.8520 C   0  0  0  0  0  3  0  0  0  0  0  0
  -26.4280  -31.7870   25.1270 C   0  0  1  0  0  0  0  0  0  0  0  0
  -25.3410  -31.5460   26.2020 C   0  0  0  0  0  1  0  0  0  0  0  0
  -27.0160  -30.4130   24.7310 C   0  0  0  0  0  1  0  0  0  0  0  0
  -27.5790  -32.5840   25.7830 C   0  0  0  0  0  1  0  0  0  0  0  0
  -25.5890  -33.9530   24.1900 N   0  0  0  0  0  0  0  0  0  0  0  0
  -25.9020  -35.0120   23.4330 C   0  0  0  0  0  0  0  0  0  0  0  0
  -26.5540  -34.9150   22.3890 O   0  0  0  0  0  0  0  0  0  0  0  0
  -24.9940  -34.0970   24.9940 H   0  0  0  0  0  0  0  0  0  0  0  0
  -24.1620  -36.8030   23.1160 C   0  0  0  0  0  1  0  0  0  0  0  0
  -25.4160  -36.3970   23.9040 C   0  0  0  0  0  3  0  0  0  0  0  0
  -27.5630  -37.2920   24.6970 C   0  0  0  0  0  1  0  0  0  0  0  0
  -26.4440  -37.4560   23.7730 N   0  0  0  0  0  0  0  0  0  0  0  0
  -26.0350  -38.3740   23.9280 H   0  0  0  0  0  0  0  0  0  0  0  0
  1  2  1  0
  3  4  1  0
  3  5  1  0
  4 52  1  1
  4  1  1  0
  5  8  1  0
  5  2  1  0
  6  7  1  0
  7 10  1  0
  8  7  2  0
  9  6  2  0
 11  9  1  0
 11  8  1  0
 13 18  1  0
 14 15  1  0
 14 13  1  0
 16 15  1  0
 16 25  1  0
 16 17  1  0
 18 12  1  0
 18 17  1  0
 19 12  2  0
 20 12  1  0
 20  9  1  0
 21 20  1  0
 22 23  2  0
 23 42  1  0
 24 23  1  0
 24 27  1  0
 25 22  1  0
 25 26  1  0
 26 24  2  0
 27 28  1  0
 28 29  2  0
 30 33  1  0
 30 29  1  0
 31 30  2  0
 32 31  1  0
 32 27  2  0
 33 34  1  0
 34 35  1  0
 35 36  2  0
 37 36  1  0
 37 41  1  0
 38 37  2  0
 39 34  2  0
 39 38  1  0
 40 39  1  0
 42 43  1  0
 43 46  1  0
 43 45  1  0
 44 42  2  0
 47 48  1  0
 47 22  1  0
 49 47  1  0
 51 50  1  0
 51  4  1  0
 52 53  1  0
 54 65  2  0
 55 53  1  0
 55 60  1  0
 56 64  1  0
 56 66  1  0
 57 63  1  0
 57 59  1  0
 58 64  1  0
 59 58  1  0
 60 59  2  0
 61 62  1  0
 61 55  2  0
 62 57  2  0
 63 56  1  0
 64 54  1  0
 66 68  2  0
 67 66  1  0
 69 67  1  0
 70 79  2  0
 70 75  1  0
 71 67  1  0
 71 75  1  0
 72 71  1  0
 73 74  1  0
 73 72  1  0
 74 70  1  0
 75 76  2  0
 76 77  1  0
 78 77  2  0
 79 78  1  0
 80 54  1  0
 80 85  1  0
 80 81  1  0
 81 84  1  1
 81 82  1  0
 83 81  1  0
 85 88  1  0
 86 90  1  0
 86 85  1  0
 87 86  2  0
 90 89  1  0
 92 90  1  0
 92 93  1  0
 92 91  1  0
M  ISO  4  12 100  20 100  52 101  53 101
M  END
>  <TORSDO>  (18) 
F 19

>  <SCORE>  (18) 
-14.595

>  <name>  (18) 
17

>  <ligand_id>  (18) 
17

>  <original_smiles>  (18) 
[H]c1c([H])c([H])c2c(c1[H])C([H])([H])C([H])([H])C([H])([H])C2([H])N([H])C(=O)C1([H])N(C(=O)C([H])(N([H])C(=O)C([H])(N([H])C([H])([H])[H])C([H])([H])[H])C(C([H])([H])[H])(C([H])([H])[H])C([H])([H])[H])C([H])([H])c2c([H])c(OC([H])([H])C3(OC([H])([H])[H])C([H])([H])N(c4oc(N([H])C(=O)N5C([H])([H])C([H])([H])C([H])([H])C([H])(n6nc(-c7c([H])c([H])c(Oc8c([H])c([H])c(F)c([H])c8F)c([H])c7[H])c(C(=O)N([H])[H])c6N([H])[H])C5([H])[H])c([H])c4C([H])([H])[H])C([H])([H])C3([H])[H])c([H])c([H])c2C1([H])[H]

>  <smiles>  (18) 
[H]c1c([H])c([H])c2c(c1[H])C([H])([H])C([H])([H])C([H])([H])C2([H])N([H])C(=O)C1([H])N(C(=O)C([H])(N([H])C(=O)C([H])(N([H])C([H])([H])[H])C([H])([H])[H])C(C([H])([H])[H])(C([H])([H])[H])C([H])([H])[H])C([H])([H])c2c([H])c(OC([H])([H])C3(OC([H])([H])[H])C([H])([H])N(c4oc(N([H])C(=O)N5C([H])([H])C([H])([H])C([H])([H])C([H])(n6nc(-c7c([H])c([H])c(Oc8c([H])c([H])c(F)c([H])c8F)c([H])c7[H])c(C(=O)N([H])[H])c6N([H])[H])C5([H])[H])c([H])c4C([H])([H])[H])C([H])([H])C3([H])[H])c([H])c([H])c2C1([H])[H]

$$$$
18:0:0
     RDKit          3D

 95104  0  0  1  0  0  0  0  0999 V2000
  -29.1160  -22.0380   19.5280 C   0  0  0  0  0  2  0  0  0  0  0  0
  -29.8540  -22.0200   21.9030 C   0  0  0  0  0  2  0  0  0  0  0  0
  -28.4840  -23.4490   19.7030 C   0  0  0  0  0  2  0  0  0  0  0  0
  -29.2410  -23.4230   22.1230 C   0  0  0  0  0  2  0  0  0  0  0  0
  -29.0570  -21.2270   20.8450 C   0  0  0  0  0  3  0  0  0  0  0  0
  -29.1300  -24.2900   20.8390 C   0  0  0  0  0  3  0  0  0  0  0  0
  -30.5920  -19.1650   21.2670 C   0  0  0  0  0  3  0  0  0  0  0  0
  -30.8150  -17.7650   21.3270 C   0  0  0  0  0  3  0  0  0  0  0  0
  -28.6670  -17.4010   20.2650 C   0  0  0  0  0  3  0  0  0  0  0  0
  -29.3900  -19.7110   20.7390 C   0  0  0  0  0  0  0  0  0  0  0  0
  -29.8350  -16.8640   20.8500 C   0  0  0  0  0  0  0  0  0  0  0  0
  -28.4420  -18.7960   20.2050 C   0  0  0  0  0  0  0  0  0  0  0  0
  -30.6270  -14.5160   20.4580 C   0  0  0  0  0  0  0  0  0  0  0  0
  -30.3710  -12.3610   19.2730 C   0  0  0  0  0  2  0  0  0  0  0  0
  -29.4120  -12.5650   18.0790 C   0  0  0  0  0  2  0  0  0  0  0  0
  -27.9390  -12.4230   18.5150 C   0  0  0  0  0  2  0  0  0  0  0  0
  -27.6100  -13.2440   19.7880 C   0  0  0  0  0  3  0  0  0  0  0  0
  -28.6680  -12.9840   20.8850 C   0  0  0  0  0  2  0  0  0  0  0  0
  -29.9930  -13.3170   20.3250 N   0  0  0  0  0  0  0  0  0  0  0  0
  -31.7370  -14.7510   19.9700 O   0  0  0  0  0  0  0  0  0  0  0  0
  -29.8940  -15.4550   21.0950 N   0  0  0  0  0  0  0  0  0  0  0  0
  -29.0380  -15.0600   21.4520 H   0  0  0  0  0  0  0  0  0  0  0  0
  -25.2100  -13.8640   20.4890 C   0  0  0  0  0  0  0  0  0  0  0  0
  -24.1380  -13.0980   20.8600 C   0  0  0  0  0  0  0  0  0  0  0  0
  -24.5960  -11.7450   20.8330 C   0  0  0  0  0  0  0  0  0  0  0  0
  -26.2540  -12.9790   20.2640 N   0  0  0  0  0  0  0  0  0  0  0  0
  -25.8860  -11.6990   20.5260 N   0  0  0  0  0  0  0  0  0  0  0  0
  -23.8640  -10.4850   21.0230 C   0  0  0  0  0  0  0  0  0  0  0  0
  -24.2860   -9.5230   21.9670 C   0  0  0  0  0  3  0  0  0  0  0  0
  -23.5580   -8.3280   22.1440 C   0  0  0  0  0  3  0  0  0  0  0  0
  -22.3930   -8.0870   21.3770 C   0  0  0  0  0  0  0  0  0  0  0  0
  -21.9910   -9.0370   20.4220 C   0  0  0  0  0  3  0  0  0  0  0  0
  -22.7200  -10.2240   20.2430 C   0  0  0  0  0  3  0  0  0  0  0  0
  -21.6340   -6.9450   21.4670 O   0  0  0  0  0  0  0  0  0  0  0  0
  -21.5630   -6.2170   22.6280 C   0  0  0  0  0  0  0  0  0  0  0  0
  -21.0990   -6.7820   23.8360 C   0  0  0  0  0  3  0  0  0  0  0  0
  -20.9750   -5.9800   24.9870 C   0  0  0  0  0  3  0  0  0  0  0  0
  -21.3070   -4.6120   24.9330 C   0  0  0  0  0  0  0  0  0  0  0  0
  -21.7670   -4.0470   23.7290 C   0  0  0  0  0  3  0  0  0  0  0  0
  -21.8900   -4.8470   22.5800 C   0  0  0  0  0  0  0  0  0  0  0  0
  -22.3120   -4.2920   21.4180 F   0  0  0  0  0  0  0  0  0  0  0  0
  -21.1810   -3.8370   26.0350 F   0  0  0  0  0  0  0  0  0  0  0  0
  -22.7440  -13.5820   21.1320 C   0  0  0  0  0  0  0  0  0  0  0  0
  -22.0110  -12.8850   21.9940 N   0  0  0  0  0  0  0  0  0  0  0  0
  -22.3120  -14.6120   20.6180 O   0  0  0  0  0  0  0  0  0  0  0  0
  -22.3730  -12.0500   22.4310 H   0  0  0  0  0  0  0  0  0  0  0  0
  -21.0740  -13.1900   22.2210 H   0  0  0  0  0  0  0  0  0  0  0  0
  -25.3790  -15.2330   20.3070 N   0  0  0  0  0  0  0  0  0  0  0  0
  -24.6120  -15.8880   20.4060 H   0  0  0  0  0  0  0  0  0  0  0  0
  -26.2280  -15.6660   19.9720 H   0  0  0  0  0  0  0  0  0  0  0  0
  -27.2400  -19.2420   19.6500 N   0  0  0  0  0  0  0  0  0  0  0  0
  -26.7200  -18.6280   19.0310 H   0  0  0  0  0  0  0  0  0  0  0  0
  -27.1490  -20.2220   19.4090 H   0  0  0  0  0  0  0  0  0  0  0  0
  -28.3490  -25.6040   21.1630 C   0  0  0  0  0  2  0  0  0  0  0  0
  -28.4180  -26.6610   20.1850 O   0  0  0  0  0  0  0  0  0  0  0  0
  -24.6020  -31.8790   23.2290 C   0  0  0  0  0  0  0  0  0  0  0  0
  -27.2830  -27.4430   20.1630 C   0  0  0  0  0  0  0  0  0  0  0  0
  -23.4130  -30.4730   21.5760 C   0  0  0  0  0  3  0  0  0  0  0  0
  -24.8840  -28.9420   20.1570 C   0  0  0  0  0  0  0  0  0  0  0  0
  -25.9390  -30.8380   21.3990 C   0  0  0  0  0  2  0  0  0  0  0  0
  -26.0360  -29.4690   20.7550 C   0  0  0  0  0  0  0  0  0  0  0  0
  -27.2420  -28.7270   20.7560 C   0  0  0  0  0  3  0  0  0  0  0  0
  -26.1190  -26.9340   19.5520 C   0  0  0  0  0  3  0  0  0  0  0  0
  -24.9210  -27.6740   19.5490 C   0  0  0  0  0  3  0  0  0  0  0  0
  -23.6360  -29.7970   20.1960 C   0  0  0  0  0  2  0  0  0  0  0  0
  -24.6680  -31.0800   22.1260 N   0  0  0  0  0  0  0  0  0  0  0  0
  -23.5170  -32.1460   23.7630 O   0  0  0  0  0  0  0  0  0  0  0  0
  -22.7590  -29.4490   22.5330 C   0  0  0  0  0  0  0  0  0  0  0  0
  -21.4330  -29.2740   22.4100 N   0  0  0  0  0  0  0  0  0  0  0  0
  -23.4420  -28.8170   23.3430 O   0  0  0  0  0  0  0  0  0  0  0  0
  -20.9430  -29.8350   21.7280 H   0  0  0  0  0  0  0  0  0  0  0  0
  -18.0540  -28.0960   22.9210 C   0  0  0  0  0  0  0  0  0  0  0  0
  -20.6160  -28.3340   23.1780 C   0  0  0  0  0  3  0  0  0  0  0  0
  -20.7030  -26.9080   22.5860 C   0  0  0  0  0  2  0  0  0  0  0  0
  -19.5920  -26.6020   21.5770 C   0  0  0  0  0  2  0  0  0  0  0  0
  -18.2170  -26.7500   22.2310 C   0  0  0  0  0  2  0  0  0  0  0  0
  -19.1800  -28.8450   23.3500 C   0  0  0  0  0  0  0  0  0  0  0  0
  -18.9760  -30.1050   23.9540 C   0  0  0  0  0  3  0  0  0  0  0  0
  -17.6760  -30.6140   24.1340 C   0  0  0  0  0  3  0  0  0  0  0  0
  -16.5630  -29.8610   23.7210 C   0  0  0  0  0  3  0  0  0  0  0  0
  -16.7530  -28.6030   23.1210 C   0  0  0  0  0  3  0  0  0  0  0  0
  -25.8820  -32.5150   23.8550 C   0  0  0  0  0  3  0  0  0  0  0  0
  -26.3950  -31.7490   25.1370 C   0  0  1  0  0  0  0  0  0  0  0  0
  -25.2990  -31.5090   26.2000 C   0  0  0  0  0  1  0  0  0  0  0  0
  -26.9870  -30.3730   24.7510 C   0  0  0  0  0  1  0  0  0  0  0  0
  -27.5390  -32.5500   25.8030 C   0  0  0  0  0  1  0  0  0  0  0  0
  -25.5710  -33.9150   24.1770 N   0  0  0  0  0  0  0  0  0  0  0  0
  -25.9050  -34.9640   23.4110 C   0  0  0  0  0  0  0  0  0  0  0  0
  -26.5810  -34.8550   22.3840 O   0  0  0  0  0  0  0  0  0  0  0  0
  -24.9780  -34.0730   24.9780 H   0  0  0  0  0  0  0  0  0  0  0  0
  -24.1820  -36.7520   23.0230 C   0  0  0  0  0  1  0  0  0  0  0  0
  -25.4100  -36.3520   23.8560 C   0  0  0  0  0  3  0  0  0  0  0  0
  -27.5330  -37.2400   24.7120 C   0  0  0  0  0  1  0  0  0  0  0  0
  -26.4430  -37.4070   23.7550 N   0  0  0  0  0  0  0  0  0  0  0  0
  -26.0340  -38.3260   23.9000 H   0  0  0  0  0  0  0  0  0  0  0  0
  1  3  1  0
  1  5  1  0
  2  4  1  0
  3  6  1  0
  5 10  1  0
  5  2  1  0
  6 54  1  0
  6  4  1  0
  7  8  1  0
  9 11  1  0
 10  7  2  0
 11 21  1  0
 11  8  2  0
 12  9  2  0
 12 10  1  0
 13 21  1  0
 14 19  1  0
 15 16  1  0
 15 14  1  0
 17 16  1  0
 17 26  1  0
 17 18  1  0
 19 13  1  0
 19 18  1  0
 20 13  2  0
 21 22  1  0
 23 24  2  0
 24 43  1  0
 25 24  1  0
 25 28  1  0
 26 23  1  0
 26 27  1  0
 27 25  2  0
 28 29  1  0
 29 30  2  0
 31 34  1  0
 31 30  1  0
 32 31  2  0
 33 32  1  0
 33 28  2  0
 34 35  1  0
 35 36  1  0
 36 37  2  0
 38 37  1  0
 38 42  1  0
 39 38  2  0
 40 35  2  0
 40 39  1  0
 41 40  1  0
 43 44  1  0
 44 47  1  0
 44 46  1  0
 45 43  2  0
 48 49  1  0
 48 23  1  0
 50 48  1  0
 51 12  1  0
 52 51  1  0
 53 51  1  0
 55 54  1  0
 56 67  2  0
 57 55  1  0
 57 62  1  0
 58 66  1  0
 58 68  1  0
 59 65  1  0
 59 61  1  0
 60 66  1  0
 61 62  2  0
 61 60  1  0
 63 57  2  0
 64 63  1  0
 64 59  2  0
 65 58  1  0
 66 56  1  0
 68 70  2  0
 69 68  1  0
 71 69  1  0
 72 81  2  0
 72 77  1  0
 73 69  1  0
 73 77  1  0
 74 73  1  0
 75 76  1  0
 75 74  1  0
 76 72  1  0
 77 78  2  0
 78 79  1  0
 80 79  2  0
 81 80  1  0
 82 56  1  0
 82 87  1  0
 82 83  1  0
 83 86  1  1
 83 84  1  0
 85 83  1  0
 87 90  1  0
 88 92  1  0
 88 87  1  0
 89 88  2  0
 92 91  1  0
 94 92  1  0
 94 95  1  0
 94 93  1  0
M  ISO  4  13 100  21 100  54 101  55 101
M  END
>  <TORSDO>  (19) 
F 19

>  <SCORE>  (19) 
-15.158

>  <name>  (19) 
18

>  <ligand_id>  (19) 
18

>  <original_smiles>  (19) 
[H]c1c([H])c([H])c2c(c1[H])C([H])([H])C([H])([H])C([H])([H])C2([H])N([H])C(=O)C1([H])N(C(=O)C([H])(N([H])C(=O)C([H])(N([H])C([H])([H])[H])C([H])([H])[H])C(C([H])([H])[H])(C([H])([H])[H])C([H])([H])[H])C([H])([H])c2c([H])c(OC([H])([H])C3([H])C([H])([H])C([H])([H])C([H])(c4c([H])c([H])c(N([H])C(=O)N5C([H])([H])C([H])([H])C([H])([H])C([H])(n6nc(-c7c([H])c([H])c(Oc8c([H])c([H])c(F)c([H])c8F)c([H])c7[H])c(C(=O)N([H])[H])c6N([H])[H])C5([H])[H])c([H])c4N([H])[H])C([H])([H])C3([H])[H])c([H])c([H])c2C1([H])[H]

>  <smiles>  (19) 
[H]c1c([H])c([H])c2c(c1[H])C([H])([H])C([H])([H])C([H])([H])C2([H])N([H])C(=O)C1([H])N(C(=O)C([H])(N([H])C(=O)C([H])(N([H])C([H])([H])[H])C([H])([H])[H])C(C([H])([H])[H])(C([H])([H])[H])C([H])([H])[H])C([H])([H])c2c([H])c(OC([H])([H])C3([H])C([H])([H])C([H])([H])C([H])(c4c([H])c([H])c(N([H])C(=O)N5C([H])([H])C([H])([H])C([H])([H])C([H])(n6nc(-c7c([H])c([H])c(Oc8c([H])c([H])c(F)c([H])c8F)c([H])c7[H])c(C(=O)N([H])[H])c6N([H])[H])C5([H])[H])c([H])c4N([H])[H])C([H])([H])C3([H])[H])c([H])c([H])c2C1([H])[H]

$$$$
19:0:0
     RDKit          3D

 95 93  0  0  1  0  0  0  0  0999 V2000
  -23.4470  -12.0780   19.8540 C   0  0  0  0  0 15  0  0  0  0  0  0
  -24.8870  -13.5080   18.8840 C   0  0  0  0  0 15  0  0  0  0  0  0
  -27.7110  -13.2740   21.2330 C   0  0  0  0  0 15  0  0  0  0  0  0
  -24.4990  -11.1060   22.0410 C   0  0  0  0  0  1  0  0  0  0  0  0
  -26.8800  -14.2960   19.5830 C   0  0  0  0  0  1  0  0  0  0  0  0
  -26.6180  -11.7870   22.2580 C   0  0  0  0  0  1  0  0  0  0  0  0
  -23.8590  -10.2710   23.1300 C   0  0  0  0  0  1  0  0  0  0  0  0
  -27.5850  -17.6440   19.9440 C   0  0  0  0  0  2  0  0  0  0  0  0
  -27.6700  -16.0060   19.6630 N   0  0  0  0  0  0  0  0  0  0  0  0
  -26.4170  -18.0270   19.8300 O   0  0  0  0  0  1  0  0  0  0  0  0
  -28.6690  -15.8550   19.6820 H   0  0  0  0  0  0  0  0  0  0  0  0
  -28.6780  -19.3050   20.4170 C   0  0  0  0  0 15  0  0  0  0  0  0
  -28.9760  -21.4380   20.2890 C   0  0  0  0  0 15  0  0  0  0  0  0
  -29.8020  -23.0730   20.8820 O   0  0  0  0  0  1  0  0  0  0  0  0
  -28.0940  -30.3830   23.7790 C   0  0  0  0  0  0  0  0  0  0  0  0
  -29.4510  -24.6480   20.8640 C   0  0  0  0  0  0  0  0  0  0  0  0
  -26.7610  -29.1910   22.1160 C   0  0  0  0  0  3  0  0  0  0  0  0
  -27.9050  -27.3050   20.7280 C   0  0  0  0  0  0  0  0  0  0  0  0
  -29.3110  -28.7490   22.1470 C   0  0  0  0  0  2  0  0  0  0  0  0
  -29.0910  -27.3150   21.4650 C   0  0  0  0  0  0  0  0  0  0  0  0
  -29.8720  -26.0090   21.5070 C   0  0  0  0  0  3  0  0  0  0  0  0
  -28.3600  -24.9510   20.0420 C   0  0  0  0  0  3  0  0  0  0  0  0
  -27.6180  -26.1560   19.9810 C   0  0  0  0  0  3  0  0  0  0  0  0
  -26.9440  -28.5040   20.7380 C   0  0  0  0  0  2  0  0  0  0  0  0
  -28.0940  -29.4770   22.7320 N   0  0  0  0  0  0  0  0  0  0  0  0
  -27.0420  -30.8870   24.2170 O   0  0  0  0  0  0  0  0  0  0  0  0
  -25.8500  -28.3420   23.0450 C   0  0  0  0  0  0  0  0  0  0  0  0
  -24.5540  -28.1870   22.7030 N   0  0  0  0  0  0  0  0  0  0  0  0
  -26.3190  -27.8370   24.0700 O   0  0  0  0  0  0  0  0  0  0  0  0
  -24.2180  -28.6550   21.8720 H   0  0  0  0  0  0  0  0  0  0  0  0
  -21.0910  -27.0920   22.7690 C   0  0  0  0  0  0  0  0  0  0  0  0
  -23.5770  -27.3660   23.4290 C   0  0  0  0  0  3  0  0  0  0  0  0
  -23.7260  -25.8700   23.0690 C   0  0  0  0  0  2  0  0  0  0  0  0
  -22.8070  -25.4310   21.9270 C   0  0  0  0  0  2  0  0  0  0  0  0
  -21.3400  -25.6680   22.3000 C   0  0  0  0  0  2  0  0  0  0  0  0
  -22.1440  -27.8950   23.2840 C   0  0  0  0  0  0  0  0  0  0  0  0
  -21.8610  -29.2180   23.6820 C   0  0  0  0  0  3  0  0  0  0  0  0
  -20.5590  -29.7440   23.5670 C   0  0  0  0  0  3  0  0  0  0  0  0
  -19.5200  -28.9410   23.0650 C   0  0  0  0  0  3  0  0  0  0  0  0
  -19.7850  -27.6160   22.6740 C   0  0  0  0  0  3  0  0  0  0  0  0
  -29.4070  -30.8550   24.4740 C   0  0  0  0  0  3  0  0  0  0  0  0
  -29.7270  -30.0490   25.7940 C   0  0  1  0  0  0  0  0  0  0  0  0
  -28.5450  -29.9810   26.7890 C   0  0  0  0  0  1  0  0  0  0  0  0
  -30.1460  -28.5980   25.4740 C   0  0  0  0  0  1  0  0  0  0  0  0
  -30.9240  -30.6990   26.5300 C   0  0  0  0  0  1  0  0  0  0  0  0
  -29.2720  -32.2940   24.7980 N   0  0  0  0  0  0  0  0  0  0  0  0
  -29.8030  -33.3080   24.1000 C   0  0  0  0  0  0  0  0  0  0  0  0
  -30.5140  -33.1260   23.1100 O   0  0  0  0  0  0  0  0  0  0  0  0
  -28.6550  -32.5230   25.5630 H   0  0  0  0  0  0  0  0  0  0  0  0
  -28.4120  -35.3750   23.6890 C   0  0  0  0  0  1  0  0  0  0  0  0
  -29.5040  -34.7480   24.5730 C   0  0  0  0  0  3  0  0  0  0  0  0
  -31.6600  -35.2870   25.6220 C   0  0  0  0  0  1  0  0  0  0  0  0
  -30.6910  -35.6300   24.5850 N   0  0  0  0  0  0  0  0  0  0  0  0
  -30.4150  -36.5980   24.7180 H   0  0  0  0  0  0  0  0  0  0  0  0
  -28.3430   -9.8350   23.2340 O   0  0  0  0  0  0  0  0  0  0  0  0
  -28.1490  -11.9900   24.5110 O   0  0  0  0  0  0  0  0  0  0  0  0
  -28.2350  -11.3110   23.2100 S   0  0  2  0  0  0  0  0  0  0  0  0
  -30.6510  -11.9430   21.1430 C   0  0  0  0  0  0  0  0  0  0  0  0
  -30.7050  -10.8210   18.8580 C   0  0  0  0  0  2  0  0  0  0  0  0
  -29.8770  -11.4580   17.6940 C   0  0  0  0  0  2  0  0  0  0  0  0
  -28.3310  -11.4760   17.8920 C   0  0  0  0  0  2  0  0  0  0  0  0
  -27.9740  -11.9480   19.3620 C   0  0  0  0  0  3  0  0  0  0  0  0
  -28.7620  -10.8450   20.1690 C   0  0  0  0  0  2  0  0  0  0  0  0
  -30.1440  -11.1750   20.1760 N   0  0  0  0  0  0  0  0  0  0  0  0
  -31.7380  -12.5390   20.8980 O   0  0  0  0  0  0  0  0  0  0  0  0
  -29.8600  -12.0090   22.4190 N   0  0  0  0  0  0  0  0  0  0  0  0
  -30.3170  -12.5470   23.1600 H   0  0  0  0  0  0  0  0  0  0  0  0
  -25.3530  -13.6270   20.8450 C   0  0  0  0  0  3  0  0  0  0  0  0
  -24.7550  -13.1570   21.0190 C   0  0  0  0  0  3  0  0  0  0  0  0
  -25.6090  -11.2270   20.2540 C   0  0  0  0  0  3  0  0  0  0  0  0
  -26.4450  -12.1600   19.9020 N   0  0  0  0  0  0  0  0  0  0  0  0
  -26.4450  -10.9240   19.6720 N   0  0  0  0  0  2  0  0  0  0  0  0
  -24.7170   -9.5920   20.4850 C   0  0  0  0  0  0  0  0  0  0  0  0
  -25.0450   -8.4730   21.3810 C   0  0  0  0  0  3  0  0  0  0  0  0
  -24.1750   -7.3940   21.8660 C   0  0  0  0  0  3  0  0  0  0  0  0
  -22.8150   -7.2730   21.4780 C   0  0  0  0  0  0  0  0  0  0  0  0
  -22.4110   -8.2820   20.5880 C   0  0  0  0  0  3  0  0  0  0  0  0
  -23.3280   -9.2780   20.0910 C   0  0  0  0  0  3  0  0  0  0  0  0
  -21.9090   -6.2230   21.7330 O   0  0  0  0  0  0  0  0  0  0  0  0
  -21.8320   -5.4840   22.9050 C   0  0  0  0  0  0  0  0  0  0  0  0
  -21.3070   -6.0420   24.0920 C   0  0  0  0  0  3  0  0  0  0  0  0
  -21.1840   -5.2600   25.2640 C   0  0  0  0  0  3  0  0  0  0  0  0
  -21.5800   -3.9080   25.2650 C   0  0  0  0  0  0  0  0  0  0  0  0
  -22.0710   -3.3300   24.0820 C   0  0  0  0  0  3  0  0  0  0  0  0
  -22.1830   -4.1050   22.9060 C   0  0  0  0  0  0  0  0  0  0  0  0
  -22.6230   -3.5060   21.7750 F   0  0  0  0  0  0  0  0  0  0  0  0
  -21.4770   -3.1660   26.3970 F   0  0  0  0  0  0  0  0  0  0  0  0
  -23.2300  -13.6330   21.5370 C   0  0  0  0  0  0  0  0  0  0  0  0
  -22.4470  -12.7440   22.1830 N   0  0  0  0  0  0  0  0  0  0  0  0
  -22.6470  -14.4960   20.8930 O   0  0  0  0  0  0  0  0  0  0  0  0
  -22.9480  -11.8920   22.3990 H   0  0  0  0  0  0  0  0  0  0  0  0
  -21.4970  -12.8800   22.4980 H   0  0  0  0  0  0  0  0  0  0  0  0
  -25.3670  -15.0310   21.2380 N   0  0  0  0  0  0  0  0  0  0  0  0
  -24.5570  -15.5190   21.6150 H   0  0  0  0  0  0  0  0  0  0  0  0
  -26.0510  -15.6800   20.8760 H   0  0  0  0  0  0  0  0  0  0  0  0
  4  7  1  0
  5  9  1  0
 57  6  1  6
  9 11  1  0
  9  8  1  0
 10  8  1  0
 15 26  2  0
 16 14  1  0
 16 21  1  0
 17 25  1  0
 17 27  1  0
 18 24  1  0
 18 20  1  0
 19 25  1  0
 20 21  2  0
 20 19  1  0
 22 16  2  0
 23 22  1  0
 23 18  2  0
 24 17  1  0
 25 15  1  0
 27 29  2  0
 28 27  1  0
 30 28  1  0
 31 36  1  0
 32 28  1  0
 33 32  1  0
 34 35  1  0
 34 33  1  0
 35 31  1  0
 36 32  1  0
 36 37  2  0
 38 37  1  0
 39 38  2  0
 40 31  2  0
 40 39  1  0
 41 15  1  0
 41 46  1  0
 41 42  1  0
 42 45  1  1
 42 43  1  0
 44 42  1  0
 46 49  1  0
 47 51  1  0
 47 46  1  0
 48 47  2  0
 51 50  1  0
 51 53  1  0
 53 54  1  0
 53 52  1  0
 57 55  2  0
 57 56  2  0
 58 66  1  0
 59 64  1  0
 60 61  1  0
 60 59  1  0
 62 61  1  0
 62 71  1  0
 62 63  1  0
 63 64  1  0
 64 58  1  0
 65 58  2  0
 66 67  1  0
 66 57  1  0
 68 69  2  0
 68 93  1  0
 69 88  1  0
 70 73  1  0
 71 72  1  0
 71 70  1  0
 72 70  1  0
 73 74  1  0
 74 75  2  0
 76 79  1  0
 76 75  1  0
 77 76  2  0
 78 73  2  0
 78 77  1  0
 79 80  1  0
 80 85  2  0
 80 81  1  0
 81 82  2  0
 82 83  1  0
 83 87  1  0
 84 83  2  0
 85 84  1  0
 86 85  1  0
 88 89  1  0
 89 91  1  0
 89 92  1  0
 90 88  2  0
 93 94  1  0
 95 93  1  0
M  ISO  4  13 101  14 101  58 100  66 100
M  END
>  <TORSDO>  (20) 
F 20

>  <SCORE>  (20) 
-3.845

>  <name>  (20) 
19

>  <ligand_id>  (20) 
19

>  <original_smiles>  (20) 
[H]c1c([H])c([H])c2c(c1[H])C([H])([H])C([H])([H])C([H])([H])C2([H])N([H])C(=O)C1([H])N(C(=O)C([H])(N([H])C(=O)C([H])(N([H])C([H])([H])[H])C([H])([H])[H])C(C([H])([H])[H])(C([H])([H])[H])C([H])([H])[H])C([H])([H])c2c([H])c(OC([H])([H])C([H])([H])C(=O)N([H])c3c([H])c([H])c(C([H])([H])[H])c(S(=O)(=O)N([H])C(=O)N4C([H])([H])C([H])([H])C([H])([H])C([H])(n5nc(-c6c([H])c([H])c(Oc7c([H])c([H])c(F)c([H])c7F)c([H])c6[H])c(C(=O)N([H])[H])c5N([H])[H])C4([H])[H])c3[H])c([H])c([H])c2C1([H])[H]

>  <smiles>  (20) 
[H]c1c([H])c([H])c2c(c1[H])C([H])([H])C([H])([H])C([H])([H])C2([H])N([H])C(=O)C1([H])N(C(=O)C([H])(N([H])C(=O)C([H])(N([H])C([H])([H])[H])C([H])([H])[H])C(C([H])([H])[H])(C([H])([H])[H])C([H])([H])[H])C([H])([H])c2c([H])c(OC([H])([H])C([H])([H])C(=O)N([H])c3c([H])c([H])c(C([H])([H])[H])c(S(=O)(=O)N([H])C(=O)N4C([H])([H])C([H])([H])C([H])([H])C([H])(n5nc(-c6c([H])c([H])c(Oc7c([H])c([H])c(F)c([H])c7F)c([H])c6[H])c(C(=O)N([H])[H])c5N([H])[H])C4([H])[H])c3[H])c([H])c([H])c2C1([H])[H]

$$$$
20:0:0
     RDKit          3D

 92101  0  0  1  0  0  0  0  0999 V2000
  -28.7530  -23.8740   20.1970 C   0  0  0  0  0  0  0  0  0  0  0  0
  -29.2190  -22.7460   20.8100 C   0  0  0  0  0  0  0  0  0  0  0  0
  -28.7780  -23.6780   18.6980 C   0  0  0  0  0  2  0  0  0  0  0  0
  -29.1470  -22.1750   18.4970 C   0  0  0  0  0  2  0  0  0  0  0  0
  -29.7670  -21.6880   19.8260 C   0  0  0  0  0  3  0  0  0  0  0  0
  -29.3350  -22.5030   22.3020 C   0  0  0  0  0  1  0  0  0  0  0  0
  -30.8960  -19.3440   19.6370 C   0  0  0  0  0  3  0  0  0  0  0  0
  -28.7200  -19.3830   20.6470 C   0  0  0  0  0  3  0  0  0  0  0  0
  -30.9560  -17.9220   19.7720 C   0  0  0  0  0  3  0  0  0  0  0  0
  -28.7790  -17.9610   20.7850 C   0  0  0  0  0  3  0  0  0  0  0  0
  -29.7820  -20.1220   20.0640 C   0  0  0  0  0  0  0  0  0  0  0  0
  -29.8900  -17.1820   20.3490 C   0  0  0  0  0  0  0  0  0  0  0  0
  -30.6250  -14.6900   20.0400 C   0  0  0  0  0  0  0  0  0  0  0  0
  -30.3700  -12.4750   18.9340 C   0  0  0  0  0  2  0  0  0  0  0  0
  -29.3590  -12.6380   17.7750 C   0  0  0  0  0  2  0  0  0  0  0  0
  -27.9110  -12.4640   18.2780 C   0  0  0  0  0  2  0  0  0  0  0  0
  -27.6230  -13.2900   19.5600 C   0  0  0  0  0  3  0  0  0  0  0  0
  -28.7410  -13.0980   20.6110 C   0  0  0  0  0  2  0  0  0  0  0  0
  -30.0170  -13.4620   19.9750 N   0  0  0  0  0  0  0  0  0  0  0  0
  -31.7600  -14.8620   19.5830 O   0  0  0  0  0  0  0  0  0  0  0  0
  -29.8410  -15.7210   20.4980 N   0  0  0  0  0  0  0  0  0  0  0  0
  -28.9860  -15.3800   20.9070 H   0  0  0  0  0  0  0  0  0  0  0  0
  -25.2690  -13.8710   20.4110 C   0  0  0  0  0  0  0  0  0  0  0  0
  -24.2240  -13.0890   20.8220 C   0  0  0  0  0  0  0  0  0  0  0  0
  -24.6860  -11.7390   20.7440 C   0  0  0  0  0  0  0  0  0  0  0  0
  -26.3010  -12.9970   20.1080 N   0  0  0  0  0  0  0  0  0  0  0  0
  -25.9590  -11.7080   20.3680 N   0  0  0  0  0  0  0  0  0  0  0  0
  -23.9720  -10.4720   20.9500 C   0  0  0  0  0  0  0  0  0  0  0  0
  -24.4280   -9.5110   21.8780 C   0  0  0  0  0  3  0  0  0  0  0  0
  -23.7140   -8.3080   22.0720 C   0  0  0  0  0  3  0  0  0  0  0  0
  -22.5310   -8.0590   21.3350 C   0  0  0  0  0  0  0  0  0  0  0  0
  -22.0950   -9.0090   20.3960 C   0  0  0  0  0  3  0  0  0  0  0  0
  -22.8100  -10.2030   20.2000 C   0  0  0  0  0  3  0  0  0  0  0  0
  -21.7870   -6.9080   21.4390 O   0  0  0  0  0  0  0  0  0  0  0  0
  -21.7310   -6.1900   22.6060 C   0  0  0  0  0  0  0  0  0  0  0  0
  -21.2730   -6.7620   23.8120 C   0  0  0  0  0  3  0  0  0  0  0  0
  -21.1660   -5.9680   24.9720 C   0  0  0  0  0  3  0  0  0  0  0  0
  -21.5060   -4.6030   24.9250 C   0  0  0  0  0  0  0  0  0  0  0  0
  -21.9580   -4.0300   23.7240 C   0  0  0  0  0  3  0  0  0  0  0  0
  -22.0670   -4.8200   22.5660 C   0  0  0  0  0  0  0  0  0  0  0  0
  -22.4820   -4.2590   21.4060 F   0  0  0  0  0  0  0  0  0  0  0  0
  -21.3960   -3.8380   26.0370 F   0  0  0  0  0  0  0  0  0  0  0  0
  -22.8420  -13.5580   21.1750 C   0  0  0  0  0  0  0  0  0  0  0  0
  -22.1610  -12.8440   22.0660 N   0  0  0  0  0  0  0  0  0  0  0  0
  -22.3760  -14.5900   20.6970 O   0  0  0  0  0  0  0  0  0  0  0  0
  -22.5530  -12.0080   22.4740 H   0  0  0  0  0  0  0  0  0  0  0  0
  -21.2360  -13.1400   22.3450 H   0  0  0  0  0  0  0  0  0  0  0  0
  -25.4210  -15.2450   20.2480 N   0  0  0  0  0  0  0  0  0  0  0  0
  -24.6530  -15.8910   20.3940 H   0  0  0  0  0  0  0  0  0  0  0  0
  -26.2390  -15.6880   19.8500 H   0  0  0  0  0  0  0  0  0  0  0  0
  -28.1650  -25.1870   20.8360 C   0  0  0  0  0  2  0  0  0  0  0  0
  -28.3810  -26.4990   20.1820 O   0  0  0  0  0  0  0  0  0  0  0  0
  -24.6160  -31.8740   23.2060 C   0  0  0  0  0  0  0  0  0  0  0  0
  -27.2720  -27.3540   20.1550 C   0  0  0  0  0  0  0  0  0  0  0  0
  -23.4270  -30.4710   21.5580 C   0  0  0  0  0  3  0  0  0  0  0  0
  -24.8940  -28.9340   20.1340 C   0  0  0  0  0  0  0  0  0  0  0  0
  -25.9630  -30.8140   21.3830 C   0  0  0  0  0  2  0  0  0  0  0  0
  -26.0570  -29.4380   20.7340 C   0  0  0  0  0  0  0  0  0  0  0  0
  -27.2530  -28.6590   20.7330 C   0  0  0  0  0  3  0  0  0  0  0  0
  -26.0920  -26.9010   19.5280 C   0  0  0  0  0  3  0  0  0  0  0  0
  -24.9130  -27.6710   19.5210 C   0  0  0  0  0  3  0  0  0  0  0  0
  -23.6500  -29.7990   20.1780 C   0  0  0  0  0  2  0  0  0  0  0  0
  -24.6870  -31.0710   22.1060 N   0  0  0  0  0  0  0  0  0  0  0  0
  -23.5290  -32.1440   23.7390 O   0  0  0  0  0  0  0  0  0  0  0  0
  -22.7670  -29.4490   22.5140 C   0  0  0  0  0  0  0  0  0  0  0  0
  -21.4400  -29.2790   22.3950 N   0  0  0  0  0  0  0  0  0  0  0  0
  -23.4490  -28.8130   23.3220 O   0  0  0  0  0  0  0  0  0  0  0  0
  -20.9490  -29.8430   21.7150 H   0  0  0  0  0  0  0  0  0  0  0  0
  -18.0580  -28.1080   22.9220 C   0  0  0  0  0  0  0  0  0  0  0  0
  -20.6220  -28.3390   23.1630 C   0  0  0  0  0  3  0  0  0  0  0  0
  -20.7020  -26.9150   22.5660 C   0  0  0  0  0  2  0  0  0  0  0  0
  -19.5850  -26.6170   21.5620 C   0  0  0  0  0  2  0  0  0  0  0  0
  -18.2130  -26.7660   22.2240 C   0  0  0  0  0  2  0  0  0  0  0  0
  -19.1890  -28.8540   23.3480 C   0  0  0  0  0  0  0  0  0  0  0  0
  -18.9900  -30.1100   23.9600 C   0  0  0  0  0  3  0  0  0  0  0  0
  -17.6920  -30.6210   24.1490 C   0  0  0  0  0  3  0  0  0  0  0  0
  -16.5750  -29.8720   23.7380 C   0  0  0  0  0  3  0  0  0  0  0  0
  -16.7590  -28.6170   23.1310 C   0  0  0  0  0  3  0  0  0  0  0  0
  -25.8930  -32.5130   23.8350 C   0  0  0  0  0  3  0  0  0  0  0  0
  -25.5750  -33.9100   24.1650 N   0  0  0  0  0  0  0  0  0  0  0  0
  -25.9070  -34.9650   23.4100 C   0  0  0  0  0  0  0  0  0  0  0  0
  -26.5810  -34.8660   22.3810 O   0  0  0  0  0  0  0  0  0  0  0  0
  -24.9770  -34.0610   24.9630 H   0  0  0  0  0  0  0  0  0  0  0  0
  -24.1770  -36.7540   23.0440 C   0  0  0  0  0  1  0  0  0  0  0  0
  -25.4120  -36.3510   23.8660 C   0  0  0  0  0  3  0  0  0  0  0  0
  -27.5340  -37.2410   24.7210 C   0  0  0  0  0  1  0  0  0  0  0  0
  -26.4420  -37.4070   23.7660 N   0  0  0  0  0  0  0  0  0  0  0  0
  -26.0310  -38.3260   23.9110 H   0  0  0  0  0  0  0  0  0  0  0  0
  -26.4080  -31.7440   25.1140 C   0  0  1  0  0  0  0  0  0  0  0  0
  -25.3110  -31.4990   26.1760 C   0  0  0  0  0  1  0  0  0  0  0  0
  -27.0010  -30.3690   24.7250 C   0  0  0  0  0  1  0  0  0  0  0  0
  -27.5510  -32.5440   25.7820 C   0  0  0  0  0  1  0  0  0  0  0  0
  1  2  2  0
  1 51  1  0
  2  6  1  0
  3  1  1  0
  4  3  1  0
  4  5  1  0
  5 11  1  0
  5  2  1  0
  7  9  2  0
  7 11  1  0
  8 10  1  0
  9 12  1  0
 11  8  2  0
 12 21  1  0
 12 10  2  0
 13 21  1  0
 14 19  1  0
 15 16  1  0
 15 14  1  0
 17 16  1  0
 17 26  1  0
 17 18  1  0
 19 13  1  0
 19 18  1  0
 20 13  2  0
 21 22  1  0
 23 24  2  0
 24 43  1  0
 25 24  1  0
 25 28  1  0
 26 27  1  0
 26 23  1  0
 27 25  2  0
 28 29  1  0
 29 30  2  0
 31 34  1  0
 31 30  1  0
 32 31  2  0
 33 32  1  0
 33 28  2  0
 34 35  1  0
 35 36  1  0
 36 37  2  0
 38 37  1  0
 38 42  1  0
 39 38  2  0
 40 35  2  0
 40 39  1  0
 41 40  1  0
 43 44  1  0
 44 47  1  0
 44 46  1  0
 45 43  2  0
 48 49  1  0
 48 23  1  0
 50 48  1  0
 52 51  1  0
 53 64  2  0
 54 52  1  0
 54 59  1  0
 55 63  1  0
 55 65  1  0
 56 62  1  0
 56 58  1  0
 57 63  1  0
 58 57  1  0
 59 58  2  0
 60 54  2  0
 61 60  1  0
 61 56  2  0
 62 55  1  0
 63 53  1  0
 65 67  2  0
 66 65  1  0
 68 66  1  0
 69 78  2  0
 69 74  1  0
 70 66  1  0
 70 74  1  0
 71 70  1  0
 72 73  1  0
 72 71  1  0
 73 69  1  0
 74 75  2  0
 75 76  1  0
 77 76  2  0
 78 77  1  0
 79 53  1  0
 79 80  1  0
 79 89  1  0
 80 83  1  0
 81 85  1  0
 81 80  1  0
 82 81  2  0
 85 84  1  0
 87 85  1  0
 87 88  1  0
 87 86  1  0
 89 92  1  1
 89 90  1  0
 91 89  1  0
M  ISO  4  13 100  21 100  51 101  52 101
M  END
>  <TORSDO>  (21) 
F 18

>  <SCORE>  (21) 
-14.598

>  <name>  (21) 
20

>  <ligand_id>  (21) 
20

>  <original_smiles>  (21) 
[H]c1c([H])c([H])c2c(c1[H])C([H])([H])C([H])([H])C([H])([H])C2([H])N([H])C(=O)C1([H])N(C(=O)C([H])(N([H])C(=O)C([H])(N([H])C([H])([H])[H])C([H])([H])[H])C(C([H])([H])[H])(C([H])([H])[H])C([H])([H])[H])C([H])([H])c2c([H])c(OC([H])([H])C3=C(C([H])([H])[H])C([H])(c4c([H])c([H])c(N([H])C(=O)N5C([H])([H])C([H])([H])C([H])([H])C([H])(n6nc(-c7c([H])c([H])c(Oc8c([H])c([H])c(F)c([H])c8F)c([H])c7[H])c(C(=O)N([H])[H])c6N([H])[H])C5([H])[H])c([H])c4[H])C([H])([H])C3([H])[H])c([H])c([H])c2C1([H])[H]

>  <smiles>  (21) 
[H]c1c([H])c([H])c2c(c1[H])C([H])([H])C([H])([H])C([H])([H])C2([H])N([H])C(=O)C1([H])N(C(=O)C([H])(N([H])C(=O)C([H])(N([H])C([H])([H])[H])C([H])([H])[H])C(C([H])([H])[H])(C([H])([H])[H])C([H])([H])[H])C([H])([H])c2c([H])c(OC([H])([H])C3=C(C([H])([H])[H])C([H])(c4c([H])c([H])c(N([H])C(=O)N5C([H])([H])C([H])([H])C([H])([H])C([H])(n6nc(-c7c([H])c([H])c(Oc8c([H])c([H])c(F)c([H])c8F)c([H])c7[H])c(C(=O)N([H])[H])c6N([H])[H])C5([H])[H])c([H])c4[H])C([H])([H])C3([H])[H])c([H])c([H])c2C1([H])[H]

$$$$
21:0:0
     RDKit          3D

100109  0  0  1  0  0  0  0  0999 V2000
  -30.8040  -18.9030   19.2590 C   0  0  0  0  0  3  0  0  0  0  0  0
  -30.5270  -20.1960   19.9520 C   0  0  0  0  0  0  0  0  0  0  0  0
  -30.6150  -20.0230   21.3220 C   0  0  0  0  0  0  0  0  0  0  0  0
  -31.0330  -17.7680   20.0820 C   0  0  0  0  0  0  0  0  0  0  0  0
  -30.9570  -18.3410   21.7350 S   0  0  0  0  0  0  0  0  0  0  0  0
  -31.8570  -15.2660   20.1260 C   0  0  0  0  0  0  0  0  0  0  0  0
  -31.6350  -12.8440   19.4870 C   0  0  0  0  0  2  0  0  0  0  0  0
  -30.7620  -12.7530   18.2130 C   0  0  0  0  0  2  0  0  0  0  0  0
  -29.2590  -12.7390   18.5660 C   0  0  0  0  0  2  0  0  0  0  0  0
  -28.8790  -13.8400   19.5900 C   0  0  0  0  0  3  0  0  0  0  0  0
  -29.8600  -13.8550   20.7800 C   0  0  0  0  0  2  0  0  0  0  0  0
  -31.2060  -14.0530   20.2260 N   0  0  0  0  0  0  0  0  0  0  0  0
  -33.0770  -15.2990   19.9300 O   0  0  0  0  0  0  0  0  0  0  0  0
  -31.0200  -16.3630   19.9150 N   0  0  0  0  0  0  0  0  0  0  0  0
  -30.0770  -16.0110   19.9680 H   0  0  0  0  0  0  0  0  0  0  0  0
  -26.5640  -14.7520   20.2200 C   0  0  0  0  0  0  0  0  0  0  0  0
  -25.3900  -14.1270   20.5400 C   0  0  0  0  0  0  0  0  0  0  0  0
  -25.6680  -12.7260   20.5250 C   0  0  0  0  0  0  0  0  0  0  0  0
  -27.4880  -13.7390   20.0210 N   0  0  0  0  0  0  0  0  0  0  0  0
  -26.9540  -12.5170   20.2700 N   0  0  0  0  0  0  0  0  0  0  0  0
  -24.7720  -11.5730   20.6750 C   0  0  0  0  0  0  0  0  0  0  0  0
  -25.0690  -10.5220   21.5710 C   0  0  0  0  0  3  0  0  0  0  0  0
  -24.1840   -9.4310   21.7120 C   0  0  0  0  0  3  0  0  0  0  0  0
  -22.9880   -9.3860   20.9570 C   0  0  0  0  0  0  0  0  0  0  0  0
  -22.7080  -10.4240   20.0500 C   0  0  0  0  0  3  0  0  0  0  0  0
  -23.5930  -11.5060   19.9070 C   0  0  0  0  0  3  0  0  0  0  0  0
  -22.0810   -8.3550   21.0100 O   0  0  0  0  0  0  0  0  0  0  0  0
  -21.9870   -7.5350   22.1060 C   0  0  0  0  0  0  0  0  0  0  0  0
  -21.7070   -8.0420   23.3930 C   0  0  0  0  0  3  0  0  0  0  0  0
  -21.5510   -7.1570   24.4800 C   0  0  0  0  0  3  0  0  0  0  0  0
  -21.6640   -5.7680   24.2790 C   0  0  0  0  0  0  0  0  0  0  0  0
  -21.9390   -5.2620   22.9960 C   0  0  0  0  0  3  0  0  0  0  0  0
  -22.0970   -6.1430   21.9130 C   0  0  0  0  0  0  0  0  0  0  0  0
  -22.3400   -5.6490   20.6740 F   0  0  0  0  0  0  0  0  0  0  0  0
  -21.5060   -4.9170   25.3190 F   0  0  0  0  0  0  0  0  0  0  0  0
  -24.0570  -14.7870   20.7520 C   0  0  0  0  0  0  0  0  0  0  0  0
  -23.2090  -14.2030   21.5910 N   0  0  0  0  0  0  0  0  0  0  0  0
  -23.7790  -15.8540   20.2060 O   0  0  0  0  0  0  0  0  0  0  0  0
  -23.4420  -13.3370   22.0550 H   0  0  0  0  0  0  0  0  0  0  0  0
  -22.3100  -14.6270   21.7740 H   0  0  0  0  0  0  0  0  0  0  0  0
  -26.9140  -16.0890   20.0550 N   0  0  0  0  0  0  0  0  0  0  0  0
  -26.2190  -16.8260   20.1160 H   0  0  0  0  0  0  0  0  0  0  0  0
  -27.8000  -16.4150   19.6940 H   0  0  0  0  0  0  0  0  0  0  0  0
  -29.1860  -22.4250   19.5010 C   0  0  0  0  0  0  0  0  0  0  0  0
  -30.7990  -23.7280   18.4380 C   0  0  0  0  0  2  0  0  0  0  0  0
  -31.1870  -22.2150   18.4430 C   0  0  0  0  0  2  0  0  0  0  0  0
  -29.2830  -23.8130   18.7180 C   0  0  1  0  0  0  0  0  0  0  0  0
  -28.4780  -23.6620   17.4120 C   0  0  0  0  0  1  0  0  0  0  0  0
  -30.2460  -21.5450   19.3360 N   0  0  0  0  0  0  0  0  0  0  0  0
  -28.1920  -22.1660   20.1870 O   0  0  0  0  0  0  0  0  0  0  0  0
  -28.7400  -25.1850   19.4470 C   0  0  0  0  0  2  0  0  0  0  0  0
  -28.6170  -26.5520   18.7900 O   0  0  0  0  0  0  0  0  0  0  0  0
  -24.7180  -31.1910   22.8670 C   0  0  0  0  0  0  0  0  0  0  0  0
  -27.4450  -27.3270   18.9930 C   0  0  0  0  0  0  0  0  0  0  0  0
  -23.5060  -29.8950   21.1520 C   0  0  0  0  0  3  0  0  0  0  0  0
  -24.9540  -28.7080   19.4020 C   0  0  0  0  0  0  0  0  0  0  0  0
  -25.9760  -30.4960   20.8040 C   0  0  0  0  0  2  0  0  0  0  0  0
  -26.1280  -29.2250   19.9650 C   0  0  0  0  0  0  0  0  0  0  0  0
  -27.3770  -28.5520   19.7470 C   0  0  0  0  0  3  0  0  0  0  0  0
  -26.2410  -26.8870   18.4080 C   0  0  0  0  0  3  0  0  0  0  0  0
  -25.0130  -27.5500   18.6120 C   0  0  0  0  0  3  0  0  0  0  0  0
  -23.6530  -29.4380   19.6770 C   0  0  0  0  0  2  0  0  0  0  0  0
  -24.7570  -30.5400   21.6650 N   0  0  0  0  0  0  0  0  0  0  0  0
  -23.6680  -31.2760   23.5230 O   0  0  0  0  0  0  0  0  0  0  0  0
  -23.0380  -28.6970   22.0130 C   0  0  0  0  0  0  0  0  0  0  0  0
  -21.7670  -28.2900   21.8520 N   0  0  0  0  0  0  0  0  0  0  0  0
  -23.8180  -28.1410   22.7910 O   0  0  0  0  0  0  0  0  0  0  0  0
  -21.1820  -28.8030   21.2080 H   0  0  0  0  0  0  0  0  0  0  0  0
  -18.7230  -26.3410   22.0720 C   0  0  0  0  0  0  0  0  0  0  0  0
  -21.1370  -27.1530   22.5290 C   0  0  0  0  0  3  0  0  0  0  0  0
  -21.5960  -25.8130   21.9080 C   0  0  0  0  0  2  0  0  0  0  0  0
  -20.6570  -25.3050   20.8090 C   0  0  0  0  0  2  0  0  0  0  0  0
  -19.2420  -25.1030   21.3580 C   0  0  0  0  0  2  0  0  0  0  0  0
  -19.6130  -27.3100   22.6070 C   0  0  0  0  0  0  0  0  0  0  0  0
  -19.0750  -28.4580   23.2290 C   0  0  0  0  0  3  0  0  0  0  0  0
  -17.6810  -28.6440   23.3210 C   0  0  0  0  0  3  0  0  0  0  0  0
  -16.8080  -27.6730   22.8020 C   0  0  0  0  0  3  0  0  0  0  0  0
  -17.3290  -26.5240   22.1830 C   0  0  0  0  0  3  0  0  0  0  0  0
  -25.9850  -31.8760   23.4650 C   0  0  0  0  0  3  0  0  0  0  0  0
  -25.5760  -33.1820   24.0030 N   0  0  0  0  0  0  0  0  0  0  0  0
  -25.7760  -34.3560   23.3920 C   0  0  0  0  0  0  0  0  0  0  0  0
  -26.3940  -34.4590   22.3280 O   0  0  0  0  0  0  0  0  0  0  0  0
  -25.0240  -33.1700   24.8480 H   0  0  0  0  0  0  0  0  0  0  0  0
  -23.8860  -36.0140   23.3770 C   0  0  0  0  0  1  0  0  0  0  0  0
  -25.2000  -35.6170   24.0660 C   0  0  0  0  0  3  0  0  0  0  0  0
  -27.2980  -36.5690   24.9170 C   0  0  0  0  0  1  0  0  0  0  0  0
  -26.1320  -36.7670   24.0600 N   0  0  0  0  0  0  0  0  0  0  0  0
  -25.6590  -37.6150   24.3600 H   0  0  0  0  0  0  0  0  0  0  0  0
  -26.6880  -31.0140   24.5840 C   0  0  1  0  0  0  0  0  0  0  0  0
  -25.7280  -30.5420   25.7010 C   0  0  0  0  0  1  0  0  0  0  0  0
  -27.3490  -29.7580   23.9680 C   0  0  0  0  0  1  0  0  0  0  0  0
  -27.8210  -31.8340   25.2440 C   0  0  0  0  0  1  0  0  0  0  0  0
  -30.4810  -21.0430   22.4310 C   0  0  0  0  0  3  0  0  0  0  0  0
  -29.0810  -21.1650   22.8720 N   0  0  0  0  0  4  0  0  0  0  0  0
  -28.6830  -20.2830   23.1420 H   0  0  0  0  0  0  0  0  0  0  0  0
  -28.5530  -21.5190   22.0800 H   0  0  0  0  0  0  0  0  0  0  0  0
  -28.9640  -21.8360   23.6090 H   0  0  0  0  0  0  0  0  0  0  0  0
  -31.3540  -20.7510   23.5630 N   0  0  0  0  0  0  0  0  0  0  0  0
  -30.8520  -20.7760   24.4420 H   0  0  0  0  0  0  0  0  0  0  0  0
  -32.0140  -21.5160   23.6470 H   0  0  0  0  0  0  0  0  0  0  0  0
  1  2  1  0
  1  4  2  0
  2  3  2  0
  3  5  1  0
  3 93  1  0
  4  5  1  0
  6 12  1  0
  7 12  1  0
  8  9  1  0
  8  7  1  0
 10  9  1  0
 10 19  1  0
 10 11  1  0
 12 11  1  0
 13  6  2  0
 14 15  1  0
 14  4  1  0
 14  6  1  0
 16 17  2  0
 17 36  1  0
 18 17  1  0
 18 21  1  0
 19 16  1  0
 19 20  1  0
 20 18  2  0
 21 22  1  0
 22 23  2  0
 24 27  1  0
 24 23  1  0
 25 24  2  0
 26 25  1  0
 26 21  2  0
 27 28  1  0
 28 29  1  0
 29 30  2  0
 31 30  1  0
 31 35  1  0
 32 31  2  0
 33 28  2  0
 33 32  1  0
 34 33  1  0
 36 37  1  0
 37 40  1  0
 37 39  1  0
 38 36  2  0
 41 42  1  0
 41 16  1  0
 43 41  1  0
 44 50  2  0
 45 46  1  0
 45 47  1  0
 46 49  1  0
 47 48  1  6
 47 51  1  0
 47 44  1  0
 49 44  1  0
 49  2  1  0
 52 54  1  0
 52 51  1  0
 53 64  2  0
 54 59  1  0
 55 63  1  0
 55 65  1  0
 56 62  1  0
 56 58  1  0
 57 63  1  0
 58 57  1  0
 59 58  2  0
 60 61  1  0
 60 54  2  0
 61 56  2  0
 62 55  1  0
 63 53  1  0
 65 67  2  0
 66 65  1  0
 68 66  1  0
 69 78  2  0
 69 74  1  0
 70 66  1  0
 70 74  1  0
 71 70  1  0
 72 73  1  0
 72 71  1  0
 73 69  1  0
 74 75  2  0
 75 76  1  0
 77 76  2  0
 78 77  1  0
 79 53  1  0
 79 80  1  0
 79 89  1  0
 80 83  1  0
 81 80  1  0
 81 85  1  0
 82 81  2  0
 85 84  1  0
 87 85  1  0
 87 88  1  0
 87 86  1  0
 89 92  1  1
 89 90  1  0
 91 89  1  0
 93 94  1  0
 93 98  1  0
 94 95  1  0
 94 97  1  0
 96 94  1  0
 98100  1  0
 98 99  1  0
M  ISO  4   6 100  14 100  51 101  52 101
M  END
>  <TORSDO>  (22) 
F 21

>  <SCORE>  (22) 
-9.930

>  <name>  (22) 
21

>  <ligand_id>  (22) 
21

>  <original_smiles>  (22) 
[H]c1c([H])c([H])c2c(c1[H])C([H])([H])C([H])([H])C([H])([H])C2([H])N([H])C(=O)C1([H])N(C(=O)C([H])(N([H])C(=O)C([H])(N([H])C([H])([H])[H])C([H])([H])[H])C(C([H])([H])[H])(C([H])([H])[H])C([H])([H])[H])C([H])([H])c2c([H])c(OC([H])([H])C3(C([H])([H])[H])C(=O)N(c4c(C([H])(N([H])[H])[N+]([H])([H])[H])sc(N([H])C(=O)N5C([H])([H])C([H])([H])C([H])([H])C([H])(n6nc(-c7c([H])c([H])c(Oc8c([H])c([H])c(F)c([H])c8F)c([H])c7[H])c(C(=O)N([H])[H])c6N([H])[H])C5([H])[H])c4[H])C([H])([H])C3([H])[H])c([H])c([H])c2C1([H])[H]

>  <smiles>  (22) 
[H]c1c([H])c([H])c2c(c1[H])C([H])([H])C([H])([H])C([H])([H])C2([H])N([H])C(=O)C1([H])N(C(=O)C([H])(N([H])C(=O)C([H])(N([H])C([H])([H])[H])C([H])([H])[H])C(C([H])([H])[H])(C([H])([H])[H])C([H])([H])[H])C([H])([H])c2c([H])c(OC([H])([H])C3(C([H])([H])[H])C(=O)N(c4c(C([H])(N([H])[H])[N+]([H])([H])[H])sc(N([H])C(=O)N5C([H])([H])C([H])([H])C([H])([H])C([H])(n6nc(-c7c([H])c([H])c(Oc8c([H])c([H])c(F)c([H])c8F)c([H])c7[H])c(C(=O)N([H])[H])c6N([H])[H])C5([H])[H])c4[H])C([H])([H])C3([H])[H])c([H])c([H])c2C1([H])[H]

$$$$
22:0:0
     RDKit          3D

 92101  0  0  1  0  0  0  0  0999 V2000
  -28.6410  -23.7770   20.2180 C   0  0  0  0  0  0  0  0  0  0  0  0
  -28.2590  -25.0130   19.6860 C   0  0  0  0  0  3  0  0  0  0  0  0
  -29.1370  -23.4710   21.6120 C   0  0  0  0  0  2  0  0  0  0  0  0
  -28.6500  -22.3650   19.5250 C   0  0  0  0  0  2  0  0  0  0  0  0
  -29.5830  -21.9690   21.6300 C   0  0  0  0  0  2  0  0  0  0  0  0
  -28.9980  -21.2510   20.4860 N   0  0  0  0  0  0  0  0  0  0  0  0
  -29.3890  -18.6420   20.5500 C   0  0  0  0  0  3  0  0  0  0  0  0
  -30.8050  -20.1320   19.2500 C   0  0  0  0  0  3  0  0  0  0  0  0
  -31.2430  -17.7120   19.2940 C   0  0  0  0  0  3  0  0  0  0  0  0
  -29.6880  -20.0130   20.1040 C   0  0  0  0  0  0  0  0  0  0  0  0
  -30.1550  -17.4450   20.1600 C   0  0  0  0  0  0  0  0  0  0  0  0
  -31.5640  -19.0130   18.8580 C   0  0  0  0  0  0  0  0  0  0  0  0
  -32.6290  -19.1920   18.0400 F   0  0  0  0  0  0  0  0  0  0  0  0
  -30.5810  -14.8250   20.3490 C   0  0  0  0  0  0  0  0  0  0  0  0
  -30.3560  -12.5290   19.3740 C   0  0  0  0  0  2  0  0  0  0  0  0
  -29.4290  -12.5900   18.1400 C   0  0  0  0  0  2  0  0  0  0  0  0
  -27.9570  -12.4190   18.5640 C   0  0  0  0  0  2  0  0  0  0  0  0
  -27.5790  -13.3110   19.7790 C   0  0  0  0  0  3  0  0  0  0  0  0
  -28.6360  -13.2530   20.9020 C   0  0  0  0  0  2  0  0  0  0  0  0
  -29.9310  -13.6040   20.3060 N   0  0  0  0  0  0  0  0  0  0  0  0
  -31.7790  -14.8510   20.0550 O   0  0  0  0  0  0  0  0  0  0  0  0
  -29.8550  -16.0110   20.5440 N   0  0  0  0  0  0  0  0  0  0  0  0
  -28.9270  -15.8570   20.9090 H   0  0  0  0  0  0  0  0  0  0  0  0
  -25.1910  -13.8950   20.5020 C   0  0  0  0  0  0  0  0  0  0  0  0
  -24.1240  -13.1240   20.8710 C   0  0  0  0  0  0  0  0  0  0  0  0
  -24.5870  -11.7720   20.8460 C   0  0  0  0  0  0  0  0  0  0  0  0
  -26.2360  -13.0160   20.2700 N   0  0  0  0  0  0  0  0  0  0  0  0
  -25.8790  -11.7330   20.5400 N   0  0  0  0  0  0  0  0  0  0  0  0
  -23.8580  -10.5120   21.0360 C   0  0  0  0  0  0  0  0  0  0  0  0
  -24.2910   -9.5390   21.9630 C   0  0  0  0  0  3  0  0  0  0  0  0
  -23.5620   -8.3440   22.1420 C   0  0  0  0  0  3  0  0  0  0  0  0
  -22.3840   -8.1120   21.3950 C   0  0  0  0  0  0  0  0  0  0  0  0
  -21.9680   -9.0730   20.4560 C   0  0  0  0  0  3  0  0  0  0  0  0
  -22.6990  -10.2590   20.2740 C   0  0  0  0  0  3  0  0  0  0  0  0
  -21.6250   -6.9700   21.4840 O   0  0  0  0  0  0  0  0  0  0  0  0
  -21.5860   -6.2190   22.6310 C   0  0  0  0  0  0  0  0  0  0  0  0
  -21.1840   -6.7680   23.8690 C   0  0  0  0  0  3  0  0  0  0  0  0
  -21.0930   -5.9440   25.0080 C   0  0  0  0  0  3  0  0  0  0  0  0
  -21.3930   -4.5720   24.9120 C   0  0  0  0  0  0  0  0  0  0  0  0
  -21.7880   -4.0210   23.6800 C   0  0  0  0  0  3  0  0  0  0  0  0
  -21.8810   -4.8430   22.5430 C   0  0  0  0  0  0  0  0  0  0  0  0
  -22.2420   -4.3040   21.3540 F   0  0  0  0  0  0  0  0  0  0  0  0
  -21.2980   -3.7780   26.0050 F   0  0  0  0  0  0  0  0  0  0  0  0
  -22.7260  -13.6040   21.1330 C   0  0  0  0  0  0  0  0  0  0  0  0
  -21.9930  -12.9140   21.9980 N   0  0  0  0  0  0  0  0  0  0  0  0
  -22.2940  -14.6270   20.6040 O   0  0  0  0  0  0  0  0  0  0  0  0
  -22.3570  -12.0860   22.4480 H   0  0  0  0  0  0  0  0  0  0  0  0
  -21.0540  -13.2170   22.2150 H   0  0  0  0  0  0  0  0  0  0  0  0
  -25.3570  -15.2660   20.3200 N   0  0  0  0  0  0  0  0  0  0  0  0
  -24.5840  -15.9160   20.4160 H   0  0  0  0  0  0  0  0  0  0  0  0
  -26.1970  -15.7010   19.9610 H   0  0  0  0  0  0  0  0  0  0  0  0
  -28.2960  -26.3410   20.2350 O   0  0  0  0  0  0  0  0  0  0  0  0
  -24.6310  -31.8800   23.2260 C   0  0  0  0  0  0  0  0  0  0  0  0
  -27.2060  -27.2550   20.1470 C   0  0  0  0  0  0  0  0  0  0  0  0
  -23.4170  -30.4870   21.5910 C   0  0  0  0  0  3  0  0  0  0  0  0
  -24.8550  -28.9280   20.1500 C   0  0  0  0  0  0  0  0  0  0  0  0
  -25.9610  -30.7790   21.4000 C   0  0  0  0  0  2  0  0  0  0  0  0
  -26.0320  -29.3960   20.7460 C   0  0  0  0  0  0  0  0  0  0  0  0
  -27.2070  -28.5710   20.7350 C   0  0  0  0  0  3  0  0  0  0  0  0
  -25.9990  -26.8610   19.5260 C   0  0  0  0  0  3  0  0  0  0  0  0
  -24.8450  -27.6700   19.5290 C   0  0  0  0  0  3  0  0  0  0  0  0
  -23.6230  -29.8120   20.2090 C   0  0  0  0  0  2  0  0  0  0  0  0
  -24.6890  -31.0680   22.1280 N   0  0  0  0  0  0  0  0  0  0  0  0
  -23.5500  -32.1610   23.7650 O   0  0  0  0  0  0  0  0  0  0  0  0
  -22.7520  -29.4740   22.5550 C   0  0  0  0  0  0  0  0  0  0  0  0
  -21.4230  -29.3030   22.4380 N   0  0  0  0  0  0  0  0  0  0  0  0
  -23.4310  -28.8460   23.3710 O   0  0  0  0  0  0  0  0  0  0  0  0
  -20.9330  -29.8630   21.7550 H   0  0  0  0  0  0  0  0  0  0  0  0
  -18.0460  -28.1070   22.9570 C   0  0  0  0  0  0  0  0  0  0  0  0
  -20.6060  -28.3670   23.2130 C   0  0  0  0  0  3  0  0  0  0  0  0
  -20.7030  -26.9340   22.6390 C   0  0  0  0  0  2  0  0  0  0  0  0
  -19.5970  -26.6110   21.6300 C   0  0  0  0  0  2  0  0  0  0  0  0
  -18.2180  -26.7570   22.2800 C   0  0  0  0  0  2  0  0  0  0  0  0
  -19.1660  -28.8690   23.3810 C   0  0  0  0  0  0  0  0  0  0  0  0
  -18.9500  -30.1310   23.9740 C   0  0  0  0  0  3  0  0  0  0  0  0
  -17.6460  -30.6330   24.1480 C   0  0  0  0  0  3  0  0  0  0  0  0
  -16.5390  -29.8670   23.7390 C   0  0  0  0  0  3  0  0  0  0  0  0
  -16.7400  -28.6060   23.1490 C   0  0  0  0  0  3  0  0  0  0  0  0
  -25.9170  -32.5100   23.8440 C   0  0  0  0  0  3  0  0  0  0  0  0
  -25.6090  -33.9070   24.1860 N   0  0  0  0  0  0  0  0  0  0  0  0
  -25.9250  -34.9660   23.4280 C   0  0  0  0  0  0  0  0  0  0  0  0
  -26.5760  -34.8710   22.3850 O   0  0  0  0  0  0  0  0  0  0  0  0
  -25.0290  -34.0560   24.9990 H   0  0  0  0  0  0  0  0  0  0  0  0
  -24.1860  -36.7580   23.1220 C   0  0  0  0  0  1  0  0  0  0  0  0
  -25.4450  -36.3520   23.9040 C   0  0  0  0  0  3  0  0  0  0  0  0
  -27.5950  -37.2400   24.6890 C   0  0  0  0  0  1  0  0  0  0  0  0
  -26.4710  -37.4090   23.7720 N   0  0  0  0  0  0  0  0  0  0  0  0
  -26.0660  -38.3270   23.9320 H   0  0  0  0  0  0  0  0  0  0  0  0
  -26.4410  -31.7340   25.1140 C   0  0  1  0  0  0  0  0  0  0  0  0
  -25.3570  -31.4950   26.1900 C   0  0  0  0  0  1  0  0  0  0  0  0
  -27.0180  -30.3550   24.7160 C   0  0  0  0  0  1  0  0  0  0  0  0
  -27.5990  -32.5230   25.7690 C   0  0  0  0  0  1  0  0  0  0  0  0
  1  3  1  0
  2  1  2  0
  2 52  1  0
  3  5  1  0
  4  1  1  0
  4  6  1  0
  6  5  1  0
  8 10  1  0
  9 11  2  0
 10  6  1  0
 10  7  2  0
 11 22  1  0
 11  7  1  0
 12  8  2  0
 12  9  1  0
 13 12  1  0
 14 22  1  0
 15 20  1  0
 16 17  1  0
 16 15  1  0
 18 17  1  0
 18 27  1  0
 18 19  1  0
 20 14  1  0
 20 19  1  0
 21 14  2  0
 22 23  1  0
 24 25  2  0
 25 44  1  0
 26 25  1  0
 26 29  1  0
 27 24  1  0
 27 28  1  0
 28 26  2  0
 29 30  1  0
 30 31  2  0
 32 35  1  0
 32 31  1  0
 33 32  2  0
 34 33  1  0
 34 29  2  0
 35 36  1  0
 36 37  1  0
 37 38  2  0
 39 38  1  0
 39 43  1  0
 40 39  2  0
 41 36  2  0
 41 40  1  0
 42 41  1  0
 44 45  1  0
 45 48  1  0
 45 47  1  0
 46 44  2  0
 49 50  1  0
 49 24  1  0
 51 49  1  0
 53 64  2  0
 54 52  1  0
 54 59  1  0
 55 63  1  0
 55 65  1  0
 56 62  1  0
 56 58  1  0
 57 63  1  0
 58 57  1  0
 59 58  2  0
 60 61  1  0
 60 54  2  0
 61 56  2  0
 62 55  1  0
 63 53  1  0
 65 67  2  0
 66 65  1  0
 68 66  1  0
 69 78  2  0
 69 74  1  0
 70 66  1  0
 70 74  1  0
 71 70  1  0
 72 73  1  0
 72 71  1  0
 73 69  1  0
 74 75  2  0
 75 76  1  0
 77 76  2  0
 78 77  1  0
 79 53  1  0
 79 80  1  0
 79 89  1  0
 80 83  1  0
 81 85  1  0
 81 80  1  0
 82 81  2  0
 85 84  1  0
 87 85  1  0
 87 88  1  0
 87 86  1  0
 89 92  1  1
 89 90  1  0
 91 89  1  0
M  ISO  4   2 101  14 100  22 100  52 101
M  END
>  <TORSDO>  (23) 
F 17

>  <SCORE>  (23) 
-15.216

>  <name>  (23) 
22

>  <ligand_id>  (23) 
22

>  <original_smiles>  (23) 
[H]C(Oc1c([H])c([H])c2c(c1[H])C([H])([H])N(C(=O)C([H])(N([H])C(=O)C([H])(N([H])C([H])([H])[H])C([H])([H])[H])C(C([H])([H])[H])(C([H])([H])[H])C([H])([H])[H])C([H])(C(=O)N([H])C1([H])c3c([H])c([H])c([H])c([H])c3C([H])([H])C([H])([H])C1([H])[H])C2([H])[H])=C1C([H])([H])N(c2c([H])c(F)c([H])c(N([H])C(=O)N3C([H])([H])C([H])([H])C([H])([H])C([H])(n4nc(-c5c([H])c([H])c(Oc6c([H])c([H])c(F)c([H])c6F)c([H])c5[H])c(C(=O)N([H])[H])c4N([H])[H])C3([H])[H])c2[H])C([H])([H])C1([H])[H]

>  <smiles>  (23) 
[H]C(Oc1c([H])c([H])c2c(c1[H])C([H])([H])N(C(=O)C([H])(N([H])C(=O)C([H])(N([H])C([H])([H])[H])C([H])([H])[H])C(C([H])([H])[H])(C([H])([H])[H])C([H])([H])[H])C([H])(C(=O)N([H])C1([H])c3c([H])c([H])c([H])c([H])c3C([H])([H])C([H])([H])C1([H])[H])C2([H])[H])=C1C([H])([H])N(c2c([H])c(F)c([H])c(N([H])C(=O)N3C([H])([H])C([H])([H])C([H])([H])C([H])(n4nc(-c5c([H])c([H])c(Oc6c([H])c([H])c(F)c([H])c6F)c([H])c5[H])c(C(=O)N([H])[H])c4N([H])[H])C3([H])[H])c2[H])C([H])([H])C1([H])[H]

$$$$
23:0:0
     RDKit          3D

 94102  0  0  1  0  0  0  0  0999 V2000
  -30.4990  -18.5940   20.3430 C   0  0  0  0  0  3  0  0  0  0  0  0
  -29.8280  -17.2810   20.2480 C   0  0  0  0  0  0  0  0  0  0  0  0
  -29.6830  -19.7340   20.1520 C   0  0  0  0  0  0  0  0  0  0  0  0
  -28.4870  -17.4800   19.9970 C   0  0  0  0  0  0  0  0  0  0  0  0
  -28.0750  -19.1740   19.7640 S   0  0  0  0  0  0  0  0  0  0  0  0
  -30.3250  -15.8580   20.6740 C   0  0  0  0  0  0  0  0  0  0  0  0
  -30.4400  -15.6370   21.9220 N   0  0  0  0  0  0  0  0  0  0  0  0
  -30.1780  -16.4590   22.4520 H   0  0  0  0  0  0  0  0  0  0  0  0
  -30.6980  -14.6730   19.6870 C   0  0  0  0  0  0  0  0  0  0  0  0
  -30.3280  -12.3880   18.7240 C   0  0  0  0  0  2  0  0  0  0  0  0
  -29.2900  -12.4430   17.5820 C   0  0  0  0  0  2  0  0  0  0  0  0
  -27.8660  -12.2800   18.1410 C   0  0  0  0  0  2  0  0  0  0  0  0
  -27.6050  -13.2040   19.3610 C   0  0  0  0  0  3  0  0  0  0  0  0
  -28.7570  -13.1420   20.3940 C   0  0  0  0  0  2  0  0  0  0  0  0
  -30.0170  -13.4650   19.7000 N   0  0  0  0  0  0  0  0  0  0  0  0
  -31.7090  -14.7980   18.9900 O   0  0  0  0  0  0  0  0  0  0  0  0
  -25.2990  -13.8180   20.3090 C   0  0  0  0  0  0  0  0  0  0  0  0
  -24.2630  -13.0600   20.7710 C   0  0  0  0  0  0  0  0  0  0  0  0
  -24.6880  -11.7020   20.6590 C   0  0  0  0  0  0  0  0  0  0  0  0
  -26.3070  -12.9300   19.9710 N   0  0  0  0  0  0  0  0  0  0  0  0
  -25.9440  -11.6460   20.2300 N   0  0  0  0  0  0  0  0  0  0  0  0
  -23.9460  -10.4550   20.8800 C   0  0  0  0  0  0  0  0  0  0  0  0
  -24.4120   -9.4660   21.7740 C   0  0  0  0  0  3  0  0  0  0  0  0
  -23.6670   -8.2870   21.9850 C   0  0  0  0  0  3  0  0  0  0  0  0
  -22.4420   -8.0890   21.3040 C   0  0  0  0  0  0  0  0  0  0  0  0
  -21.9940   -9.0670   20.3980 C   0  0  0  0  0  3  0  0  0  0  0  0
  -22.7400  -10.2380   20.1850 C   0  0  0  0  0  3  0  0  0  0  0  0
  -21.6650   -6.9620   21.4260 O   0  0  0  0  0  0  0  0  0  0  0  0
  -21.6350   -6.2310   22.5860 C   0  0  0  0  0  0  0  0  0  0  0  0
  -21.2470   -6.8030   23.8170 C   0  0  0  0  0  3  0  0  0  0  0  0
  -21.1640   -5.9980   24.9720 C   0  0  0  0  0  3  0  0  0  0  0  0
  -21.4610   -4.6240   24.8960 C   0  0  0  0  0  0  0  0  0  0  0  0
  -21.8450   -4.0520   23.6690 C   0  0  0  0  0  3  0  0  0  0  0  0
  -21.9280   -4.8540   22.5180 C   0  0  0  0  0  0  0  0  0  0  0  0
  -22.2770   -4.2950   21.3340 F   0  0  0  0  0  0  0  0  0  0  0  0
  -21.3760   -3.8490   26.0020 F   0  0  0  0  0  0  0  0  0  0  0  0
  -22.9190  -13.5660   21.2090 C   0  0  0  0  0  0  0  0  0  0  0  0
  -22.2750  -12.8660   22.1360 N   0  0  0  0  0  0  0  0  0  0  0  0
  -22.4570  -14.6200   20.7710 O   0  0  0  0  0  0  0  0  0  0  0  0
  -22.6670  -12.0160   22.5130 H   0  0  0  0  0  0  0  0  0  0  0  0
  -21.3810  -13.1870   22.4770 H   0  0  0  0  0  0  0  0  0  0  0  0
  -25.4450  -15.1850   20.1280 N   0  0  0  0  0  0  0  0  0  0  0  0
  -24.6950  -15.7750   20.4680 H   0  0  0  0  0  0  0  0  0  0  0  0
  -26.3580  -15.6120   20.3210 H   0  0  0  0  0  0  0  0  0  0  0  0
  -27.4470  -16.5600   20.0210 N   0  0  0  0  0  0  0  0  0  0  0  0
  -27.5510  -15.7540   20.6290 H   0  0  0  0  0  0  0  0  0  0  0  0
  -26.5170  -16.9540   20.1260 H   0  0  0  0  0  0  0  0  0  0  0  0
  -29.9380  -21.1670   20.2520 N   0  0  0  0  0  0  0  0  0  0  0  0
  -30.8730  -21.5230   20.4450 H   0  0  0  0  0  0  0  0  0  0  0  0
  -28.8710  -22.2540   20.1950 C   0  0  0  0  0  2  0  0  0  0  0  0
  -29.2500  -23.8170   20.2770 C   0  0  0  0  0  0  0  0  0  0  0  0
  -30.4420  -24.1440   20.3140 O   0  0  0  0  0  0  0  0  0  0  0  0
  -28.0930  -24.9280   20.3110 C   0  0  0  0  0  2  0  0  0  0  0  0
  -28.4200  -26.4020   20.1980 O   0  0  0  0  0  0  0  0  0  0  0  0
  -24.6120  -31.8330   23.1910 C   0  0  0  0  0  0  0  0  0  0  0  0
  -27.3220  -27.2970   20.1370 C   0  0  0  0  0  0  0  0  0  0  0  0
  -23.4520  -30.4360   21.5210 C   0  0  0  0  0  3  0  0  0  0  0  0
  -24.9450  -28.9190   20.0980 C   0  0  0  0  0  0  0  0  0  0  0  0
  -25.9930  -30.7780   21.3790 C   0  0  0  0  0  2  0  0  0  0  0  0
  -26.1020  -29.4020   20.7210 C   0  0  0  0  0  0  0  0  0  0  0  0
  -27.2940  -28.6060   20.7280 C   0  0  0  0  0  3  0  0  0  0  0  0
  -26.1430  -26.8940   19.4670 C   0  0  0  0  0  3  0  0  0  0  0  0
  -24.9720  -27.6720   19.4570 C   0  0  0  0  0  3  0  0  0  0  0  0
  -23.6950  -29.7780   20.1370 C   0  0  0  0  0  2  0  0  0  0  0  0
  -24.7050  -31.0350   22.0870 N   0  0  0  0  0  0  0  0  0  0  0  0
  -23.5180  -32.0920   23.7120 O   0  0  0  0  0  0  0  0  0  0  0  0
  -22.7860  -29.4040   22.4620 C   0  0  0  0  0  0  0  0  0  0  0  0
  -21.4600  -29.2260   22.3260 N   0  0  0  0  0  0  0  0  0  0  0  0
  -23.4610  -28.7650   23.2730 O   0  0  0  0  0  0  0  0  0  0  0  0
  -20.9730  -29.7910   21.6460 H   0  0  0  0  0  0  0  0  0  0  0  0
  -18.0790  -28.0310   22.8180 C   0  0  0  0  0  0  0  0  0  0  0  0
  -20.6410  -28.2720   23.0780 C   0  0  0  0  0  3  0  0  0  0  0  0
  -20.7320  -26.8560   22.4650 C   0  0  0  0  0  2  0  0  0  0  0  0
  -19.6210  -26.5650   21.4500 C   0  0  0  0  0  2  0  0  0  0  0  0
  -18.2460  -26.6980   22.1070 C   0  0  0  0  0  2  0  0  0  0  0  0
  -19.2040  -28.7770   23.2600 C   0  0  0  0  0  0  0  0  0  0  0  0
  -18.9940  -30.0230   23.8880 C   0  0  0  0  0  3  0  0  0  0  0  0
  -17.6930  -30.5260   24.0760 C   0  0  0  0  0  3  0  0  0  0  0  0
  -16.5820  -29.7770   23.6500 C   0  0  0  0  0  3  0  0  0  0  0  0
  -16.7760  -28.5300   23.0270 C   0  0  0  0  0  3  0  0  0  0  0  0
  -25.8780  -32.4760   23.8380 C   0  0  0  0  0  3  0  0  0  0  0  0
  -25.5500  -33.8720   24.1650 N   0  0  0  0  0  0  0  0  0  0  0  0
  -25.8870  -34.9290   23.4130 C   0  0  0  0  0  0  0  0  0  0  0  0
  -26.5740  -34.8330   22.3920 O   0  0  0  0  0  0  0  0  0  0  0  0
  -24.9440  -34.0210   24.9570 H   0  0  0  0  0  0  0  0  0  0  0  0
  -24.1500  -36.7110   23.0350 C   0  0  0  0  0  1  0  0  0  0  0  0
  -25.3820  -36.3130   23.8650 C   0  0  0  0  0  3  0  0  0  0  0  0
  -27.4930  -37.2160   24.7360 C   0  0  0  0  0  1  0  0  0  0  0  0
  -26.4080  -37.3740   23.7710 N   0  0  0  0  0  0  0  0  0  0  0  0
  -25.9920  -38.2910   23.9080 H   0  0  0  0  0  0  0  0  0  0  0  0
  -26.3740  -31.7070   25.1240 C   0  0  1  0  0  0  0  0  0  0  0  0
  -25.2620  -31.4590   26.1690 C   0  0  0  0  0  1  0  0  0  0  0  0
  -26.9790  -30.3360   24.7450 C   0  0  0  0  0  1  0  0  0  0  0  0
  -27.5040  -32.5130   25.8100 C   0  0  0  0  0  1  0  0  0  0  0  0
  2  1  1  0
  2  6  1  0
  3 48  1  0
  3  1  2  0
  4 45  1  0
  4  2  2  0
  5  4  1  0
  5  3  1  0
  6  7  2  0
  7  8  1  0
  9 15  1  0
  9  6  1  0
 10 15  1  0
 11 12  1  0
 11 10  1  0
 13 12  1  0
 13 20  1  0
 13 14  1  0
 15 14  1  0
 16  9  2  0
 17 18  2  0
 18 37  1  0
 19 18  1  0
 19 22  1  0
 20 21  1  0
 20 17  1  0
 21 19  2  0
 22 23  1  0
 23 24  2  0
 25 28  1  0
 25 24  1  0
 26 25  2  0
 27 26  1  0
 27 22  2  0
 28 29  1  0
 29 30  1  0
 30 31  2  0
 32 31  1  0
 32 36  1  0
 33 32  2  0
 34 29  2  0
 34 33  1  0
 35 34  1  0
 37 38  1  0
 38 41  1  0
 38 40  1  0
 39 37  2  0
 42 17  1  0
 42 44  1  0
 42 43  1  0
 45 47  1  0
 45 46  1  0
 48 49  1  0
 50 48  1  0
 50 51  1  0
 51 53  1  0
 51 52  2  0
 54 53  1  0
 55 66  2  0
 56 54  1  0
 56 61  1  0
 57 65  1  0
 57 67  1  0
 58 64  1  0
 58 60  1  0
 59 65  1  0
 60 61  2  0
 60 59  1  0
 62 56  2  0
 63 62  1  0
 63 58  2  0
 64 57  1  0
 65 55  1  0
 67 69  2  0
 68 67  1  0
 70 68  1  0
 71 80  2  0
 71 76  1  0
 72 68  1  0
 72 76  1  0
 73 72  1  0
 74 75  1  0
 74 73  1  0
 75 71  1  0
 76 77  2  0
 77 78  1  0
 79 78  2  0
 80 79  1  0
 81 55  1  0
 81 82  1  0
 81 91  1  0
 82 85  1  0
 83 87  1  0
 83 82  1  0
 84 83  2  0
 87 86  1  0
 89 87  1  0
 89 90  1  0
 89 88  1  0
 91 94  1  1
 91 92  1  0
 93 91  1  0
M  ISO  4   6 100   9 100  53 101  54 101
M  END
>  <TORSDO>  (24) 
F 22

>  <SCORE>  (24) 
-13.234

>  <name>  (24) 
23

>  <ligand_id>  (24) 
23

>  <original_smiles>  (24) 
[H]N=C(C(=O)N1C([H])([H])C([H])([H])C([H])([H])C([H])(n2nc(-c3c([H])c([H])c(Oc4c([H])c([H])c(F)c([H])c4F)c([H])c3[H])c(C(=O)N([H])[H])c2N([H])[H])C1([H])[H])c1c(N([H])[H])sc(N([H])C([H])([H])C(=O)C([H])([H])Oc2c([H])c([H])c3c(c2[H])C([H])([H])N(C(=O)C([H])(N([H])C(=O)C([H])(N([H])C([H])([H])[H])C([H])([H])[H])C(C([H])([H])[H])(C([H])([H])[H])C([H])([H])[H])C([H])(C(=O)N([H])C2([H])c4c([H])c([H])c([H])c([H])c4C([H])([H])C([H])([H])C2([H])[H])C3([H])[H])c1[H]

>  <smiles>  (24) 
[H]N=C(C(=O)N1C([H])([H])C([H])([H])C([H])([H])C([H])(n2nc(-c3c([H])c([H])c(Oc4c([H])c([H])c(F)c([H])c4F)c([H])c3[H])c(C(=O)N([H])[H])c2N([H])[H])C1([H])[H])c1c(N([H])[H])sc(N([H])C([H])([H])C(=O)C([H])([H])Oc2c([H])c([H])c3c(c2[H])C([H])([H])N(C(=O)C([H])(N([H])C(=O)C([H])(N([H])C([H])([H])[H])C([H])([H])[H])C(C([H])([H])[H])(C([H])([H])[H])C([H])([H])[H])C([H])(C(=O)N([H])C2([H])c4c([H])c([H])c([H])c([H])c4C([H])([H])C([H])([H])C2([H])[H])C3([H])[H])c1[H]

$$$$
24:0:0
     RDKit          3D

 88 97  0  0  1  0  0  0  0  0999 V2000
  -29.4380  -22.1940   21.2800 C   0  0  0  0  0  3  0  0  0  0  0  0
  -29.8170  -20.7270   21.2590 C   0  0  0  0  0  0  0  0  0  0  0  0
  -29.2940  -19.8530   20.3300 C   0  0  0  0  0  0  0  0  0  0  0  0
  -28.5930  -22.7290   20.2850 C   0  0  0  0  0  0  0  0  0  0  0  0
  -30.8130  -19.9540   22.0690 C   0  0  0  0  0  2  0  0  0  0  0  0
  -31.1490  -18.6220   21.2970 C   0  0  0  0  0  2  0  0  0  0  0  0
  -30.0640  -18.3020   20.2210 C   0  0  0  0  0  3  0  0  0  0  0  0
  -28.3320  -21.1090   19.3210 S   0  0  0  0  0  0  0  0  0  0  0  0
  -30.4080  -15.3780   20.2390 C   0  0  0  0  0  0  0  0  0  0  0  0
  -30.3780  -12.9270   19.3650 C   0  0  0  0  0  2  0  0  0  0  0  0
  -29.4480  -12.7010   18.1470 C   0  0  0  0  0  2  0  0  0  0  0  0
  -28.0090  -12.4150   18.6070 C   0  0  0  0  0  2  0  0  0  0  0  0
  -27.5620  -13.3790   19.7340 C   0  0  0  0  0  3  0  0  0  0  0  0
  -28.6210  -13.5530   20.8440 C   0  0  0  0  0  2  0  0  0  0  0  0
  -29.8350  -14.0710   20.1920 N   0  0  0  0  0  0  0  0  0  0  0  0
  -31.6250  -15.3590   19.9970 O   0  0  0  0  0  0  0  0  0  0  0  0
  -29.6750  -16.6740   20.3570 N   0  0  0  0  0  0  0  0  0  0  0  0
  -28.6900  -16.5290   20.5130 H   0  0  0  0  0  0  0  0  0  0  0  0
  -25.2030  -13.9150   20.5340 C   0  0  0  0  0  0  0  0  0  0  0  0
  -24.1500  -13.1300   20.9080 C   0  0  0  0  0  0  0  0  0  0  0  0
  -24.6210  -11.7820   20.8500 C   0  0  0  0  0  0  0  0  0  0  0  0
  -26.2450  -13.0480   20.2610 N   0  0  0  0  0  0  0  0  0  0  0  0
  -25.9080  -11.7580   20.5200 N   0  0  0  0  0  0  0  0  0  0  0  0
  -23.8990  -10.5140   21.0310 C   0  0  0  0  0  0  0  0  0  0  0  0
  -24.3300   -9.5450   21.9620 C   0  0  0  0  0  3  0  0  0  0  0  0
  -23.6040   -8.3450   22.1340 C   0  0  0  0  0  3  0  0  0  0  0  0
  -22.4350   -8.1060   21.3720 C   0  0  0  0  0  0  0  0  0  0  0  0
  -22.0250   -9.0660   20.4300 C   0  0  0  0  0  3  0  0  0  0  0  0
  -22.7500  -10.2560   20.2570 C   0  0  0  0  0  3  0  0  0  0  0  0
  -21.6840   -6.9600   21.4530 O   0  0  0  0  0  0  0  0  0  0  0  0
  -21.6100   -6.2260   22.6100 C   0  0  0  0  0  0  0  0  0  0  0  0
  -21.1350   -6.7840   23.8170 C   0  0  0  0  0  3  0  0  0  0  0  0
  -21.0110   -5.9760   24.9640 C   0  0  0  0  0  3  0  0  0  0  0  0
  -21.3510   -4.6120   24.9060 C   0  0  0  0  0  0  0  0  0  0  0  0
  -21.8200   -4.0530   23.7030 C   0  0  0  0  0  3  0  0  0  0  0  0
  -21.9450   -4.8580   22.5580 C   0  0  0  0  0  0  0  0  0  0  0  0
  -22.3770   -4.3100   21.3970 F   0  0  0  0  0  0  0  0  0  0  0  0
  -21.2250   -3.8330   26.0070 F   0  0  0  0  0  0  0  0  0  0  0  0
  -22.7550  -13.5990   21.2000 C   0  0  0  0  0  0  0  0  0  0  0  0
  -22.0410  -12.8940   22.0700 N   0  0  0  0  0  0  0  0  0  0  0  0
  -22.3080  -14.6280   20.6930 O   0  0  0  0  0  0  0  0  0  0  0  0
  -22.4160  -12.0620   22.5010 H   0  0  0  0  0  0  0  0  0  0  0  0
  -21.1050  -13.1900   22.3080 H   0  0  0  0  0  0  0  0  0  0  0  0
  -25.3560  -15.2900   20.3730 N   0  0  0  0  0  0  0  0  0  0  0  0
  -24.5830  -15.9350   20.4990 H   0  0  0  0  0  0  0  0  0  0  0  0
  -26.1860  -15.7360   20.0050 H   0  0  0  0  0  0  0  0  0  0  0  0
  -27.7880  -24.2730   20.0040 C   0  0  0  0  0  2  0  0  0  0  0  0
  -28.1540  -25.8520   20.3320 O   0  0  0  0  0  0  0  0  0  0  0  0
  -24.6510  -31.8960   23.2730 C   0  0  0  0  0  0  0  0  0  0  0  0
  -27.1800  -26.9920   20.2490 C   0  0  0  0  0  0  0  0  0  0  0  0
  -23.4520  -30.5090   21.6300 C   0  0  0  0  0  3  0  0  0  0  0  0
  -24.8950  -28.9020   20.2040 C   0  0  0  0  0  0  0  0  0  0  0  0
  -26.0210  -30.7010   21.4910 C   0  0  0  0  0  2  0  0  0  0  0  0
  -26.0860  -29.2910   20.8310 C   0  0  0  0  0  0  0  0  0  0  0  0
  -27.2210  -28.3580   20.8310 C   0  0  0  0  0  3  0  0  0  0  0  0
  -25.9620  -26.7690   19.5640 C   0  0  0  0  0  3  0  0  0  0  0  0
  -24.8600  -27.6620   19.5490 C   0  0  0  0  0  3  0  0  0  0  0  0
  -23.6810  -29.8300   20.2520 C   0  0  0  0  0  2  0  0  0  0  0  0
  -24.7300  -31.0630   22.1850 N   0  0  0  0  0  0  0  0  0  0  0  0
  -23.5620  -32.1910   23.7920 O   0  0  0  0  0  0  0  0  0  0  0  0
  -22.7500  -29.5160   22.5930 C   0  0  0  0  0  0  0  0  0  0  0  0
  -21.4210  -29.3520   22.4610 N   0  0  0  0  0  0  0  0  0  0  0  0
  -23.4100  -28.8910   23.4280 O   0  0  0  0  0  0  0  0  0  0  0  0
  -20.9410  -29.9070   21.7660 H   0  0  0  0  0  0  0  0  0  0  0  0
  -18.0340  -28.1400   22.9500 C   0  0  0  0  0  0  0  0  0  0  0  0
  -20.5920  -28.4170   23.2300 C   0  0  0  0  0  3  0  0  0  0  0  0
  -20.7020  -26.9820   22.6630 C   0  0  0  0  0  2  0  0  0  0  0  0
  -19.6080  -26.6520   21.6420 C   0  0  0  0  0  2  0  0  0  0  0  0
  -18.2220  -26.7910   22.2760 C   0  0  0  0  0  2  0  0  0  0  0  0
  -19.1480  -28.9090   23.3840 C   0  0  0  0  0  0  0  0  0  0  0  0
  -18.9160  -30.1690   23.9770 C   0  0  0  0  0  3  0  0  0  0  0  0
  -17.6070  -30.6610   24.1390 C   0  0  0  0  0  3  0  0  0  0  0  0
  -16.5100  -29.8900   23.7200 C   0  0  0  0  0  3  0  0  0  0  0  0
  -16.7250  -28.6310   23.1310 C   0  0  0  0  0  3  0  0  0  0  0  0
  -25.9230  -32.5320   23.9090 C   0  0  0  0  0  3  0  0  0  0  0  0
  -25.6140  -33.9360   24.2370 N   0  0  0  0  0  0  0  0  0  0  0  0
  -25.9260  -34.9900   23.4710 C   0  0  0  0  0  0  0  0  0  0  0  0
  -26.5670  -34.8840   22.4220 O   0  0  0  0  0  0  0  0  0  0  0  0
  -25.0400  -34.0900   25.0520 H   0  0  0  0  0  0  0  0  0  0  0  0
  -24.1730  -36.7780   23.1940 C   0  0  0  0  0  1  0  0  0  0  0  0
  -25.4560  -36.3830   23.9430 C   0  0  0  0  0  3  0  0  0  0  0  0
  -27.6230  -37.2910   24.6610 C   0  0  0  0  0  1  0  0  0  0  0  0
  -26.4770  -37.4400   23.7680 N   0  0  0  0  0  0  0  0  0  0  0  0
  -26.0720  -38.3600   23.9220 H   0  0  0  0  0  0  0  0  0  0  0  0
  -26.4160  -31.7710   25.2010 C   0  0  1  0  0  0  0  0  0  0  0  0
  -25.3070  -31.5530   26.2580 C   0  0  0  0  0  1  0  0  0  0  0  0
  -26.9930  -30.3830   24.8410 C   0  0  0  0  0  1  0  0  0  0  0  0
  -27.5650  -32.5620   25.8690 C   0  0  0  0  0  1  0  0  0  0  0  0
  2  1  1  0
  2  5  1  0
  3  2  2  0
  4  1  2  0
  6  5  1  0
  7  3  1  0
  7 17  1  0
  7  6  1  0
  8  4  1  0
  8  3  1  0
  9 17  1  0
 10 15  1  0
 11 12  1  0
 11 10  1  0
 13 12  1  0
 13 22  1  0
 13 14  1  0
 15  9  1  0
 15 14  1  0
 16  9  2  0
 17 18  1  0
 19 20  2  0
 20 39  1  0
 21 20  1  0
 21 24  1  0
 22 23  1  0
 22 19  1  0
 23 21  2  0
 24 25  1  0
 25 26  2  0
 27 30  1  0
 27 26  1  0
 28 27  2  0
 29 28  1  0
 29 24  2  0
 30 31  1  0
 31 32  1  0
 32 33  2  0
 34 33  1  0
 34 38  1  0
 35 34  2  0
 36 31  2  0
 36 35  1  0
 37 36  1  0
 39 40  1  0
 40 43  1  0
 40 42  1  0
 41 39  2  0
 44 45  1  0
 44 19  1  0
 46 44  1  0
 47  4  1  0
 47 48  1  0
 49 60  2  0
 50 48  1  0
 50 55  1  0
 51 59  1  0
 51 61  1  0
 52 58  1  0
 52 54  1  0
 53 59  1  0
 54 55  2  0
 54 53  1  0
 56 50  2  0
 57 56  1  0
 57 52  2  0
 58 51  1  0
 59 49  1  0
 61 63  2  0
 62 61  1  0
 64 62  1  0
 65 74  2  0
 65 70  1  0
 66 62  1  0
 66 70  1  0
 67 66  1  0
 68 69  1  0
 68 67  1  0
 69 65  1  0
 70 71  2  0
 71 72  1  0
 73 72  2  0
 74 73  1  0
 75 49  1  0
 75 76  1  0
 75 85  1  0
 76 79  1  0
 77 81  1  0
 77 76  1  0
 78 77  2  0
 81 80  1  0
 83 84  1  0
 83 81  1  0
 83 82  1  0
 85 88  1  1
 85 86  1  0
 87 85  1  0
M  ISO  4   9 100  17 100  47 101  48 101
M  END
>  <TORSDO>  (25) 
F 17

>  <SCORE>  (25) 
-16.851

>  <name>  (25) 
24

>  <ligand_id>  (25) 
24

>  <original_smiles>  (25) 
[H]c1c([H])c([H])c2c(c1[H])C([H])([H])C([H])([H])C([H])([H])C2([H])N([H])C(=O)C1([H])N(C(=O)C([H])(N([H])C(=O)C([H])(N([H])C([H])([H])[H])C([H])([H])[H])C(C([H])([H])[H])(C([H])([H])[H])C([H])([H])[H])C([H])([H])c2c([H])c(OC([H])([H])c3sc4c(c3[H])C([H])([H])C([H])([H])C4([H])N([H])C(=O)N3C([H])([H])C([H])([H])C([H])([H])C([H])(n4nc(-c5c([H])c([H])c(Oc6c([H])c([H])c(F)c([H])c6F)c([H])c5[H])c(C(=O)N([H])[H])c4N([H])[H])C3([H])[H])c([H])c([H])c2C1([H])[H]

>  <smiles>  (25) 
[H]c1c([H])c([H])c2c(c1[H])C([H])([H])C([H])([H])C([H])([H])C2([H])N([H])C(=O)C1([H])N(C(=O)C([H])(N([H])C(=O)C([H])(N([H])C([H])([H])[H])C([H])([H])[H])C(C([H])([H])[H])(C([H])([H])[H])C([H])([H])[H])C([H])([H])c2c([H])c(OC([H])([H])c3sc4c(c3[H])C([H])([H])C([H])([H])C4([H])N([H])C(=O)N3C([H])([H])C([H])([H])C([H])([H])C([H])(n4nc(-c5c([H])c([H])c(Oc6c([H])c([H])c(F)c([H])c6F)c([H])c5[H])c(C(=O)N([H])[H])c4N([H])[H])C3([H])[H])c([H])c([H])c2C1([H])[H]

$$$$
25:0:0
     RDKit          3D

 90 98  0  0  1  0  0  0  0  0999 V2000
  -28.4240  -23.7350   20.0400 C   0  0  0  0  0  0  0  0  0  0  0  0
  -28.5880  -22.5550   20.7500 N   0  0  0  0  0  0  0  0  0  0  0  0
  -28.4690  -23.7590   18.8070 O   0  0  0  0  0  0  0  0  0  0  0  0
  -28.5920  -22.7110   21.7510 H   0  0  0  0  0  0  0  0  0  0  0  0
  -28.7230  -19.0490   19.3180 C   0  0  0  0  0  3  0  0  0  0  0  0
  -28.3250  -20.4540   19.3300 C   0  0  0  0  0  3  0  0  0  0  0  0
  -29.5340  -18.6480   20.3620 C   0  0  0  0  0  0  0  0  0  0  0  0
  -28.7970  -21.2130   20.3880 C   0  0  0  0  0  0  0  0  0  0  0  0
  -29.7290  -20.0830   21.4080 S   0  0  0  0  0  0  0  0  0  0  0  0
  -30.3460  -17.3180   20.6280 C   0  0  0  0  0  2  0  0  0  0  0  0
  -30.5770  -14.7650   20.1490 C   0  0  0  0  0  0  0  0  0  0  0  0
  -30.3470  -12.4950   19.1320 C   0  0  0  0  0  2  0  0  0  0  0  0
  -29.3750  -12.5620   17.9330 C   0  0  0  0  0  2  0  0  0  0  0  0
  -27.9150  -12.4070   18.4010 C   0  0  0  0  0  2  0  0  0  0  0  0
  -27.5810  -13.2970   19.6290 C   0  0  0  0  0  3  0  0  0  0  0  0
  -28.6650  -13.2000   20.7200 C   0  0  0  0  0  2  0  0  0  0  0  0
  -29.9420  -13.5490   20.0870 N   0  0  0  0  0  0  0  0  0  0  0  0
  -31.7630  -14.8520   19.8180 O   0  0  0  0  0  0  0  0  0  0  0  0
  -29.8270  -15.9040   20.4030 N   0  0  0  0  0  0  0  0  0  0  0  0
  -28.8450  -15.7570   20.5800 H   0  0  0  0  0  0  0  0  0  0  0  0
  -25.2210  -13.9060   20.4280 C   0  0  0  0  0  0  0  0  0  0  0  0
  -24.1590  -13.1390   20.8210 C   0  0  0  0  0  0  0  0  0  0  0  0
  -24.6090  -11.7840   20.7700 C   0  0  0  0  0  0  0  0  0  0  0  0
  -26.2500  -13.0180   20.1560 N   0  0  0  0  0  0  0  0  0  0  0  0
  -25.8910  -11.7360   20.4250 N   0  0  0  0  0  0  0  0  0  0  0  0
  -23.8770  -10.5270   20.9700 C   0  0  0  0  0  0  0  0  0  0  0  0
  -24.3170   -9.5540   21.8960 C   0  0  0  0  0  3  0  0  0  0  0  0
  -23.5830   -8.3610   22.0820 C   0  0  0  0  0  3  0  0  0  0  0  0
  -22.3990   -8.1340   21.3420 C   0  0  0  0  0  0  0  0  0  0  0  0
  -21.9790   -9.0950   20.4050 C   0  0  0  0  0  3  0  0  0  0  0  0
  -22.7120  -10.2780   20.2170 C   0  0  0  0  0  3  0  0  0  0  0  0
  -21.6350   -6.9950   21.4410 O   0  0  0  0  0  0  0  0  0  0  0  0
  -21.5830   -6.2610   22.5990 C   0  0  0  0  0  0  0  0  0  0  0  0
  -21.1480   -6.8230   23.8190 C   0  0  0  0  0  3  0  0  0  0  0  0
  -21.0430   -6.0160   24.9680 C   0  0  0  0  0  3  0  0  0  0  0  0
  -21.3640   -4.6470   24.8990 C   0  0  0  0  0  0  0  0  0  0  0  0
  -21.7910   -4.0840   23.6830 C   0  0  0  0  0  3  0  0  0  0  0  0
  -21.8970   -4.8890   22.5350 C   0  0  0  0  0  0  0  0  0  0  0  0
  -22.2890   -4.3370   21.3620 F   0  0  0  0  0  0  0  0  0  0  0  0
  -21.2560   -3.8690   26.0010 F   0  0  0  0  0  0  0  0  0  0  0  0
  -22.7740  -13.6270   21.1350 C   0  0  0  0  0  0  0  0  0  0  0  0
  -22.0620  -12.9300   22.0130 N   0  0  0  0  0  0  0  0  0  0  0  0
  -22.3320  -14.6600   20.6330 O   0  0  0  0  0  0  0  0  0  0  0  0
  -22.4340  -12.0920   22.4390 H   0  0  0  0  0  0  0  0  0  0  0  0
  -21.1340  -13.2380   22.2650 H   0  0  0  0  0  0  0  0  0  0  0  0
  -25.3930  -15.2760   20.2510 N   0  0  0  0  0  0  0  0  0  0  0  0
  -24.6310  -15.9350   20.3700 H   0  0  0  0  0  0  0  0  0  0  0  0
  -26.2260  -15.7050   19.8730 H   0  0  0  0  0  0  0  0  0  0  0  0
  -28.1720  -25.1000   20.8510 C   0  0  0  0  0  2  0  0  0  0  0  0
  -28.3520  -26.4320   20.1840 O   0  0  0  0  0  0  0  0  0  0  0  0
  -24.6240  -31.8850   23.2380 C   0  0  0  0  0  0  0  0  0  0  0  0
  -27.2600  -27.3180   20.1860 C   0  0  0  0  0  0  0  0  0  0  0  0
  -23.4340  -30.4860   21.5880 C   0  0  0  0  0  3  0  0  0  0  0  0
  -24.8970  -28.9360   20.1720 C   0  0  0  0  0  0  0  0  0  0  0  0
  -25.9760  -30.8100   21.4160 C   0  0  0  0  0  2  0  0  0  0  0  0
  -26.0660  -29.4300   20.7660 C   0  0  0  0  0  0  0  0  0  0  0  0
  -27.2560  -28.6340   20.7560 C   0  0  0  0  0  3  0  0  0  0  0  0
  -26.0660  -26.8800   19.5790 C   0  0  0  0  0  3  0  0  0  0  0  0
  -24.8980  -27.6650   19.5750 C   0  0  0  0  0  3  0  0  0  0  0  0
  -23.6580  -29.8100   20.2100 C   0  0  0  0  0  2  0  0  0  0  0  0
  -24.6980  -31.0790   22.1380 N   0  0  0  0  0  0  0  0  0  0  0  0
  -23.5360  -32.1550   23.7690 O   0  0  0  0  0  0  0  0  0  0  0  0
  -22.7700  -29.4680   22.5440 C   0  0  0  0  0  0  0  0  0  0  0  0
  -21.4420  -29.2910   22.4180 N   0  0  0  0  0  0  0  0  0  0  0  0
  -23.4460  -28.8360   23.3610 O   0  0  0  0  0  0  0  0  0  0  0  0
  -20.9540  -29.8500   21.7310 H   0  0  0  0  0  0  0  0  0  0  0  0
  -18.0650  -28.0910   22.9180 C   0  0  0  0  0  0  0  0  0  0  0  0
  -20.6250  -28.3490   23.1830 C   0  0  0  0  0  3  0  0  0  0  0  0
  -20.7240  -26.9200   22.5990 C   0  0  0  0  0  2  0  0  0  0  0  0
  -19.6190  -26.6050   21.5850 C   0  0  0  0  0  2  0  0  0  0  0  0
  -18.2390  -26.7470   22.2330 C   0  0  0  0  0  2  0  0  0  0  0  0
  -19.1850  -28.8510   23.3510 C   0  0  0  0  0  0  0  0  0  0  0  0
  -18.9680  -30.1100   23.9510 C   0  0  0  0  0  3  0  0  0  0  0  0
  -17.6650  -30.6100   24.1250 C   0  0  0  0  0  3  0  0  0  0  0  0
  -16.5590  -29.8480   23.7090 C   0  0  0  0  0  3  0  0  0  0  0  0
  -16.7600  -28.5900   23.1110 C   0  0  0  0  0  3  0  0  0  0  0  0
  -25.9000  -32.5240   23.8700 C   0  0  0  0  0  3  0  0  0  0  0  0
  -26.4100  -31.7550   25.1500 C   0  0  1  0  0  0  0  0  0  0  0  0
  -25.3110  -31.5160   26.2120 C   0  0  0  0  0  1  0  0  0  0  0  0
  -27.0000  -30.3790   24.7650 C   0  0  0  0  0  1  0  0  0  0  0  0
  -27.5540  -32.5530   25.8170 C   0  0  0  0  0  1  0  0  0  0  0  0
  -25.5840  -33.9210   24.2010 N   0  0  0  0  0  0  0  0  0  0  0  0
  -25.9040  -34.9740   23.4400 C   0  0  0  0  0  0  0  0  0  0  0  0
  -26.5650  -34.8740   22.4030 O   0  0  0  0  0  0  0  0  0  0  0  0
  -25.0000  -34.0720   25.0110 H   0  0  0  0  0  0  0  0  0  0  0  0
  -24.1670  -36.7600   23.0970 C   0  0  0  0  0  1  0  0  0  0  0  0
  -25.4160  -36.3620   23.9000 C   0  0  0  0  0  3  0  0  0  0  0  0
  -27.5420  -37.2670   24.7270 C   0  0  0  0  0  1  0  0  0  0  0  0
  -26.4470  -37.4140   23.7700 N   0  0  0  0  0  0  0  0  0  0  0  0
  -26.0420  -38.3390   23.8870 H   0  0  0  0  0  0  0  0  0  0  0  0
  1  2  1  0
  1 49  1  0
  2  4  1  0
  3  1  2  0
  5  6  1  0
  5  7  2  0
  6  8  2  0
  7 10  1  0
  7  9  1  0
  8  2  1  0
  8  9  1  0
 11 19  1  0
 12 17  1  0
 13 14  1  0
 13 12  1  0
 15 14  1  0
 15 24  1  0
 15 16  1  0
 17 11  1  0
 17 16  1  0
 18 11  2  0
 19 20  1  0
 19 10  1  0
 21 22  2  0
 22 41  1  0
 23 22  1  0
 23 26  1  0
 24 25  1  0
 24 21  1  0
 25 23  2  0
 26 27  1  0
 27 28  2  0
 29 32  1  0
 29 28  1  0
 30 29  2  0
 31 30  1  0
 31 26  2  0
 32 33  1  0
 33 34  1  0
 34 35  2  0
 36 35  1  0
 36 40  1  0
 37 36  2  0
 38 33  2  0
 38 37  1  0
 39 38  1  0
 41 42  1  0
 42 45  1  0
 42 44  1  0
 43 41  2  0
 46 47  1  0
 46 21  1  0
 48 46  1  0
 50 52  1  0
 50 49  1  0
 51 62  2  0
 52 57  1  0
 53 61  1  0
 53 63  1  0
 54 60  1  0
 54 56  1  0
 55 61  1  0
 56 55  1  0
 57 56  2  0
 58 52  2  0
 59 58  1  0
 59 54  2  0
 60 53  1  0
 61 51  1  0
 63 65  2  0
 64 63  1  0
 66 64  1  0
 67 76  2  0
 67 72  1  0
 68 64  1  0
 68 72  1  0
 69 68  1  0
 70 71  1  0
 70 69  1  0
 71 67  1  0
 72 73  2  0
 73 74  1  0
 75 74  2  0
 76 75  1  0
 77 51  1  0
 77 82  1  0
 77 78  1  0
 78 81  1  1
 78 79  1  0
 80 78  1  0
 82 85  1  0
 83 87  1  0
 83 82  1  0
 84 83  2  0
 87 86  1  0
 89 90  1  0
 89 87  1  0
 89 88  1  0
M  ISO  4  11 100  19 100  49 101  50 101
M  END
>  <TORSDO>  (26) 
F 19

>  <SCORE>  (26) 
-14.044

>  <name>  (26) 
25

>  <ligand_id>  (26) 
25

>  <original_smiles>  (26) 
[H]c1c(N([H])C(=O)C([H])([H])Oc2c([H])c([H])c3c(c2[H])C([H])([H])N(C(=O)C([H])(N([H])C(=O)C([H])(N([H])C([H])([H])[H])C([H])([H])[H])C(C([H])([H])[H])(C([H])([H])[H])C([H])([H])[H])C([H])(C(=O)N([H])C2([H])c4c([H])c([H])c([H])c([H])c4C([H])([H])C([H])([H])C2([H])[H])C3([H])[H])sc(C([H])([H])N([H])C(=O)N2C([H])([H])C([H])([H])C([H])([H])C([H])(n3nc(-c4c([H])c([H])c(Oc5c([H])c([H])c(F)c([H])c5F)c([H])c4[H])c(C(=O)N([H])[H])c3N([H])[H])C2([H])[H])c1[H]

>  <smiles>  (26) 
[H]c1c(N([H])C(=O)C([H])([H])Oc2c([H])c([H])c3c(c2[H])C([H])([H])N(C(=O)C([H])(N([H])C(=O)C([H])(N([H])C([H])([H])[H])C([H])([H])[H])C(C([H])([H])[H])(C([H])([H])[H])C([H])([H])[H])C([H])(C(=O)N([H])C2([H])c4c([H])c([H])c([H])c([H])c4C([H])([H])C([H])([H])C2([H])[H])C3([H])[H])sc(C([H])([H])N([H])C(=O)N2C([H])([H])C([H])([H])C([H])([H])C([H])(n3nc(-c4c([H])c([H])c(Oc5c([H])c([H])c(F)c([H])c5F)c([H])c4[H])c(C(=O)N([H])[H])c3N([H])[H])C2([H])[H])c1[H]

$$$$
26:0:0
     RDKit          3D

 92101  0  0  1  0  0  0  0  0999 V2000
  -28.8200  -22.2320   20.4690 C   0  0  0  0  0  0  0  0  0  0  0  0
  -30.1820  -23.3720   18.9250 C   0  0  0  0  0  2  0  0  0  0  0  0
  -30.5910  -21.8730   19.0640 C   0  0  0  0  0  2  0  0  0  0  0  0
  -29.2720  -23.7070   20.1190 C   0  0  0  0  0  3  0  0  0  0  0  0
  -29.6090  -21.2270   19.9370 N   0  0  0  0  0  0  0  0  0  0  0  0
  -27.8290  -22.0360   21.1760 O   0  0  0  0  0  0  0  0  0  0  0  0
  -28.8570  -19.1490   21.1190 C   0  0  0  0  0  3  0  0  0  0  0  0
  -28.9930  -17.7100   21.1610 C   0  0  0  0  0  0  0  0  0  0  0  0
  -29.5850  -19.8290   20.1660 C   0  0  0  0  0  0  0  0  0  0  0  0
  -29.8460  -17.1470   20.2280 C   0  0  0  0  0  0  0  0  0  0  0  0
  -28.2330  -16.8870   22.1630 C   0  0  0  0  0  1  0  0  0  0  0  0
  -30.5160  -18.5350   19.2980 S   0  0  0  0  0  0  0  0  0  0  0  0
  -30.7450  -14.8010   19.4530 C   0  0  0  0  0  0  0  0  0  0  0  0
  -30.4740  -12.5770   18.3210 C   0  0  0  0  0  2  0  0  0  0  0  0
  -29.3240  -12.6910   17.2920 C   0  0  0  0  0  2  0  0  0  0  0  0
  -27.9520  -12.4560   17.9560 C   0  0  0  0  0  2  0  0  0  0  0  0
  -27.7860  -13.2550   19.2750 C   0  0  0  0  0  3  0  0  0  0  0  0
  -29.0250  -13.0840   20.1840 C   0  0  0  0  0  2  0  0  0  0  0  0
  -30.2000  -13.5340   19.4170 N   0  0  0  0  0  0  0  0  0  0  0  0
  -31.7970  -15.0510   18.8570 O   0  0  0  0  0  0  0  0  0  0  0  0
  -29.9750  -15.7490   20.1020 N   0  0  0  0  0  0  0  0  0  0  0  0
  -29.2520  -15.2660   20.6130 H   0  0  0  0  0  0  0  0  0  0  0  0
  -25.6170  -13.7640   20.5530 C   0  0  0  0  0  0  0  0  0  0  0  0
  -24.6020  -12.9590   20.9950 C   0  0  0  0  0  0  0  0  0  0  0  0
  -24.9730  -11.6260   20.6410 C   0  0  0  0  0  0  0  0  0  0  0  0
  -26.5440  -12.9180   19.9660 N   0  0  0  0  0  0  0  0  0  0  0  0
  -26.1740  -11.6160   20.0750 N   0  0  0  0  0  0  0  0  0  0  0  0
  -24.2270  -10.3660   20.7540 C   0  0  0  0  0  0  0  0  0  0  0  0
  -24.7430   -9.2640   21.4730 C   0  0  0  0  0  3  0  0  0  0  0  0
  -23.9990   -8.0700   21.5840 C   0  0  0  0  0  3  0  0  0  0  0  0
  -22.7240   -7.9690   20.9770 C   0  0  0  0  0  0  0  0  0  0  0  0
  -22.2250   -9.0610   20.2450 C   0  0  0  0  0  3  0  0  0  0  0  0
  -22.9690  -10.2470   20.1300 C   0  0  0  0  0  3  0  0  0  0  0  0
  -21.9430   -6.8400   21.0110 O   0  0  0  0  0  0  0  0  0  0  0  0
  -21.9690   -5.9780   22.0770 C   0  0  0  0  0  0  0  0  0  0  0  0
  -21.6960   -6.4110   23.3930 C   0  0  0  0  0  3  0  0  0  0  0  0
  -21.6660   -5.4780   24.4500 C   0  0  0  0  0  3  0  0  0  0  0  0
  -21.8990   -4.1140   24.1920 C   0  0  0  0  0  0  0  0  0  0  0  0
  -22.1660   -3.6800   22.8820 C   0  0  0  0  0  3  0  0  0  0  0  0
  -22.1980   -4.6090   21.8270 C   0  0  0  0  0  0  0  0  0  0  0  0
  -22.4340   -4.1830   20.5630 F   0  0  0  0  0  0  0  0  0  0  0  0
  -21.8630   -3.2160   25.2050 F   0  0  0  0  0  0  0  0  0  0  0  0
  -23.3130  -13.4100   21.6220 C   0  0  0  0  0  0  0  0  0  0  0  0
  -22.7510  -12.6010   22.5120 N   0  0  0  0  0  0  0  0  0  0  0  0
  -22.8240  -14.5070   21.3590 O   0  0  0  0  0  0  0  0  0  0  0  0
  -23.1630  -11.7090   22.7440 H   0  0  0  0  0  0  0  0  0  0  0  0
  -21.8950  -12.8790   22.9720 H   0  0  0  0  0  0  0  0  0  0  0  0
  -25.8150  -15.1410   20.5760 N   0  0  0  0  0  0  0  0  0  0  0  0
  -25.1120  -15.7770   20.9360 H   0  0  0  0  0  0  0  0  0  0  0  0
  -26.5820  -15.6190   20.1190 H   0  0  0  0  0  0  0  0  0  0  0  0
  -28.1660  -24.8860   19.9070 C   0  0  0  0  0  2  0  0  0  0  0  0
  -28.4260  -26.3650   20.0880 O   0  0  0  0  0  0  0  0  0  0  0  0
  -24.7010  -31.8390   23.1120 C   0  0  0  0  0  0  0  0  0  0  0  0
  -27.3280  -27.2640   20.0330 C   0  0  0  0  0  0  0  0  0  0  0  0
  -23.5110  -30.4610   21.4490 C   0  0  0  0  0  3  0  0  0  0  0  0
  -24.9720  -28.9210   20.0180 C   0  0  0  0  0  0  0  0  0  0  0  0
  -26.0570  -30.7630   21.2950 C   0  0  0  0  0  2  0  0  0  0  0  0
  -26.1410  -29.3880   20.6300 C   0  0  0  0  0  0  0  0  0  0  0  0
  -27.3210  -28.5750   20.6240 C   0  0  0  0  0  3  0  0  0  0  0  0
  -26.1300  -26.8690   19.3910 C   0  0  0  0  0  3  0  0  0  0  0  0
  -24.9720  -27.6690   19.3870 C   0  0  0  0  0  3  0  0  0  0  0  0
  -23.7370  -29.8010   20.0650 C   0  0  0  0  0  2  0  0  0  0  0  0
  -24.7760  -31.0390   22.0080 N   0  0  0  0  0  0  0  0  0  0  0  0
  -23.6120  -32.1140   23.6390 O   0  0  0  0  0  0  0  0  0  0  0  0
  -22.8350  -29.4360   22.3930 C   0  0  0  0  0  0  0  0  0  0  0  0
  -21.5090  -29.2660   22.2570 N   0  0  0  0  0  0  0  0  0  0  0  0
  -23.5050  -28.7980   23.2100 O   0  0  0  0  0  0  0  0  0  0  0  0
  -21.0270  -29.8320   21.5720 H   0  0  0  0  0  0  0  0  0  0  0  0
  -18.1210  -28.0900   22.7400 C   0  0  0  0  0  0  0  0  0  0  0  0
  -20.6810  -28.3220   23.0130 C   0  0  0  0  0  3  0  0  0  0  0  0
  -20.7690  -26.9000   22.4130 C   0  0  0  0  0  2  0  0  0  0  0  0
  -19.6640  -26.6050   21.3940 C   0  0  0  0  0  2  0  0  0  0  0  0
  -18.2840  -26.7510   22.0420 C   0  0  0  0  0  2  0  0  0  0  0  0
  -19.2460  -28.8350   23.1820 C   0  0  0  0  0  0  0  0  0  0  0  0
  -19.0380  -30.0890   23.7970 C   0  0  0  0  0  3  0  0  0  0  0  0
  -17.7380  -30.5980   23.9730 C   0  0  0  0  0  3  0  0  0  0  0  0
  -16.6260  -29.8490   23.5470 C   0  0  0  0  0  3  0  0  0  0  0  0
  -16.8180  -28.5970   22.9370 C   0  0  0  0  0  3  0  0  0  0  0  0
  -25.9770  -32.4660   23.7520 C   0  0  0  0  0  3  0  0  0  0  0  0
  -25.6590  -33.8560   24.1100 N   0  0  0  0  0  0  0  0  0  0  0  0
  -25.9640  -34.9250   23.3610 C   0  0  0  0  0  0  0  0  0  0  0  0
  -26.6110  -34.8440   22.3140 O   0  0  0  0  0  0  0  0  0  0  0  0
  -25.0810  -33.9920   24.9260 H   0  0  0  0  0  0  0  0  0  0  0  0
  -24.2010  -36.6990   23.0880 C   0  0  0  0  0  1  0  0  0  0  0  0
  -25.4740  -36.3020   23.8510 C   0  0  0  0  0  3  0  0  0  0  0  0
  -27.6220  -37.2090   24.6240 C   0  0  0  0  0  1  0  0  0  0  0  0
  -26.4880  -37.3700   23.7170 N   0  0  0  0  0  0  0  0  0  0  0  0
  -26.0750  -38.2830   23.8850 H   0  0  0  0  0  0  0  0  0  0  0  0
  -26.4900  -31.6730   25.0180 C   0  0  1  0  0  0  0  0  0  0  0  0
  -25.3900  -31.4010   26.0700 C   0  0  0  0  0  1  0  0  0  0  0  0
  -27.0910  -30.3090   24.6040 C   0  0  0  0  0  1  0  0  0  0  0  0
  -27.6270  -32.4650   25.7060 C   0  0  0  0  0  1  0  0  0  0  0  0
  1  6  2  0
  2  3  1  0
  2  4  1  0
  3  5  1  0
  4 51  1  0
  4  1  1  0
  5  9  1  0
  5  1  1  0
  7  8  1  0
  8 11  1  0
  9  7  2  0
 10  8  2  0
 12  9  1  0
 12 10  1  0
 13 21  1  0
 14 19  1  0
 15 16  1  0
 15 14  1  0
 17 16  1  0
 17 26  1  0
 17 18  1  0
 19 13  1  0
 19 18  1  0
 20 13  2  0
 21 10  1  0
 21 22  1  0
 23 48  1  0
 23 24  2  0
 24 43  1  0
 25 28  1  0
 25 24  1  0
 26 27  1  0
 26 23  1  0
 27 25  2  0
 28 29  1  0
 29 30  2  0
 31 34  1  0
 31 30  1  0
 32 31  2  0
 33 32  1  0
 33 28  2  0
 34 35  1  0
 35 36  1  0
 36 37  2  0
 38 37  1  0
 38 42  1  0
 39 38  2  0
 40 35  2  0
 40 39  1  0
 41 40  1  0
 43 44  1  0
 44 46  1  0
 44 47  1  0
 45 43  2  0
 48 49  1  0
 50 48  1  0
 51 52  1  0
 53 64  2  0
 54 52  1  0
 54 59  1  0
 55 63  1  0
 55 65  1  0
 56 62  1  0
 56 58  1  0
 57 63  1  0
 58 57  1  0
 59 58  2  0
 60 54  2  0
 61 60  1  0
 61 56  2  0
 62 55  1  0
 63 53  1  0
 65 67  2  0
 66 65  1  0
 68 66  1  0
 69 78  2  0
 69 74  1  0
 70 66  1  0
 70 74  1  0
 71 70  1  0
 72 73  1  0
 72 71  1  0
 73 69  1  0
 74 75  2  0
 75 76  1  0
 77 76  2  0
 78 77  1  0
 79 53  1  0
 79 80  1  0
 79 89  1  0
 80 83  1  0
 81 85  1  0
 81 80  1  0
 82 81  2  0
 85 84  1  0
 87 85  1  0
 87 88  1  0
 87 86  1  0
 89 92  1  1
 89 90  1  0
 91 89  1  0
M  ISO  4  13 100  21 100  51 101  52 101
M  END
>  <TORSDO>  (27) 
F 18

>  <SCORE>  (27) 
-8.262

>  <name>  (27) 
26

>  <ligand_id>  (27) 
26

>  <original_smiles>  (27) 
[H]c1c([H])c([H])c2c(c1[H])C([H])([H])C([H])([H])C([H])([H])C2([H])N([H])C(=O)C1([H])N(C(=O)C([H])(N([H])C(=O)C([H])(N([H])C([H])([H])[H])C([H])([H])[H])C(C([H])([H])[H])(C([H])([H])[H])C([H])([H])[H])C([H])([H])c2c([H])c(OC([H])([H])C3([H])C(=O)N(c4sc(N([H])C(=O)N5C([H])([H])C([H])([H])C([H])([H])C([H])(n6nc(-c7c([H])c([H])c(Oc8c([H])c([H])c(F)c([H])c8F)c([H])c7[H])c(C(=O)N([H])[H])c6N([H])[H])C5([H])[H])c(C([H])([H])[H])c4[H])C([H])([H])C3([H])[H])c([H])c([H])c2C1([H])[H]

>  <smiles>  (27) 
[H]c1c([H])c([H])c2c(c1[H])C([H])([H])C([H])([H])C([H])([H])C2([H])N([H])C(=O)C1([H])N(C(=O)C([H])(N([H])C(=O)C([H])(N([H])C([H])([H])[H])C([H])([H])[H])C(C([H])([H])[H])(C([H])([H])[H])C([H])([H])[H])C([H])([H])c2c([H])c(OC([H])([H])C3([H])C(=O)N(c4sc(N([H])C(=O)N5C([H])([H])C([H])([H])C([H])([H])C([H])(n6nc(-c7c([H])c([H])c(Oc8c([H])c([H])c(F)c([H])c8F)c([H])c7[H])c(C(=O)N([H])[H])c6N([H])[H])C5([H])[H])c(C([H])([H])[H])c4[H])C([H])([H])C3([H])[H])c([H])c([H])c2C1([H])[H]

$$$$
27:0:0
     RDKit          3D

 90 98  0  0  1  0  0  0  0  0999 V2000
  -28.9150  -23.6520   20.4470 C   0  0  0  0  0  0  0  0  0  0  0  0
  -28.9110  -22.3780   19.8580 N   0  0  0  0  0  0  0  0  0  0  0  0
  -29.6080  -23.8850   21.4420 O   0  0  0  0  0  0  0  0  0  0  0  0
  -28.4140  -22.3500   18.9790 H   0  0  0  0  0  0  0  0  0  0  0  0
  -30.2220  -19.3620   21.4710 C   0  0  0  0  0  3  0  0  0  0  0  0
  -29.8820  -20.7660   21.4990 C   0  0  0  0  0  3  0  0  0  0  0  0
  -29.9750  -18.8460   20.2210 C   0  0  0  0  0  0  0  0  0  0  0  0
  -29.4200  -21.1170   20.2570 C   0  0  0  0  0  0  0  0  0  0  0  0
  -29.4610  -19.9410   19.4670 O   0  0  0  0  0  0  0  0  0  0  0  0
  -30.3010  -17.4510   19.5200 C   0  0  0  0  0  2  0  0  0  0  0  0
  -30.7480  -14.8860   19.9390 C   0  0  0  0  0  0  0  0  0  0  0  0
  -30.4910  -12.5820   19.0000 C   0  0  0  0  0  2  0  0  0  0  0  0
  -29.4920  -12.6190   17.8230 C   0  0  0  0  0  2  0  0  0  0  0  0
  -28.0460  -12.4570   18.3310 C   0  0  0  0  0  2  0  0  0  0  0  0
  -27.7330  -13.3610   19.5550 C   0  0  0  0  0  3  0  0  0  0  0  0
  -28.8530  -13.3110   20.6160 C   0  0  0  0  0  2  0  0  0  0  0  0
  -30.1120  -13.6600   19.9440 N   0  0  0  0  0  0  0  0  0  0  0  0
  -31.9170  -14.9490   19.5520 O   0  0  0  0  0  0  0  0  0  0  0  0
  -30.0070  -16.0560   20.1140 N   0  0  0  0  0  0  0  0  0  0  0  0
  -29.0570  -15.9190   20.4220 H   0  0  0  0  0  0  0  0  0  0  0  0
  -25.4060  -13.9440   20.4600 C   0  0  0  0  0  0  0  0  0  0  0  0
  -24.3580  -13.1670   20.8710 C   0  0  0  0  0  0  0  0  0  0  0  0
  -24.8020  -11.8130   20.7640 C   0  0  0  0  0  0  0  0  0  0  0  0
  -26.4230  -13.0650   20.1260 N   0  0  0  0  0  0  0  0  0  0  0  0
  -26.0710  -11.7760   20.3720 N   0  0  0  0  0  0  0  0  0  0  0  0
  -24.0720  -10.5530   20.9550 C   0  0  0  0  0  0  0  0  0  0  0  0
  -24.5020   -9.5830   21.8860 C   0  0  0  0  0  3  0  0  0  0  0  0
  -23.7710   -8.3880   22.0650 C   0  0  0  0  0  3  0  0  0  0  0  0
  -22.5940   -8.1560   21.3140 C   0  0  0  0  0  0  0  0  0  0  0  0
  -22.1840   -9.1140   20.3700 C   0  0  0  0  0  3  0  0  0  0  0  0
  -22.9170  -10.3000   20.1890 C   0  0  0  0  0  3  0  0  0  0  0  0
  -21.8350   -7.0130   21.4040 O   0  0  0  0  0  0  0  0  0  0  0  0
  -21.7260   -6.3130   22.5770 C   0  0  0  0  0  0  0  0  0  0  0  0
  -21.1940   -6.8980   23.7480 C   0  0  0  0  0  3  0  0  0  0  0  0
  -21.0350   -6.1190   24.9130 C   0  0  0  0  0  3  0  0  0  0  0  0
  -21.3960   -4.7580   24.9050 C   0  0  0  0  0  0  0  0  0  0  0  0
  -21.9210   -4.1750   23.7390 C   0  0  0  0  0  3  0  0  0  0  0  0
  -22.0820   -4.9490   22.5780 C   0  0  0  0  0  0  0  0  0  0  0  0
  -22.5680   -4.3770   21.4500 F   0  0  0  0  0  0  0  0  0  0  0  0
  -21.2360   -4.0090   26.0220 F   0  0  0  0  0  0  0  0  0  0  0  0
  -22.9850  -13.6500   21.2410 C   0  0  0  0  0  0  0  0  0  0  0  0
  -22.3020  -12.9370   22.1310 N   0  0  0  0  0  0  0  0  0  0  0  0
  -22.5310  -14.6940   20.7780 O   0  0  0  0  0  0  0  0  0  0  0  0
  -22.6830  -12.0950   22.5340 H   0  0  0  0  0  0  0  0  0  0  0  0
  -21.3840  -13.2470   22.4180 H   0  0  0  0  0  0  0  0  0  0  0  0
  -25.5680  -15.3180   20.3200 N   0  0  0  0  0  0  0  0  0  0  0  0
  -24.8000  -15.9590   20.4870 H   0  0  0  0  0  0  0  0  0  0  0  0
  -26.3830  -15.7740   19.9300 H   0  0  0  0  0  0  0  0  0  0  0  0
  -28.0000  -24.8560   19.8670 C   0  0  0  0  0  2  0  0  0  0  0  0
  -28.2350  -26.3140   20.2630 O   0  0  0  0  0  0  0  0  0  0  0  0
  -24.6120  -31.9180   23.2240 C   0  0  0  0  0  0  0  0  0  0  0  0
  -27.1650  -27.2550   20.1770 C   0  0  0  0  0  0  0  0  0  0  0  0
  -23.3890  -30.5040   21.6160 C   0  0  0  0  0  3  0  0  0  0  0  0
  -24.8190  -28.9440   20.1730 C   0  0  0  0  0  0  0  0  0  0  0  0
  -25.9320  -30.7970   21.4050 C   0  0  0  0  0  2  0  0  0  0  0  0
  -26.0020  -29.4090   20.7610 C   0  0  0  0  0  0  0  0  0  0  0  0
  -27.1750  -28.5780   20.7540 C   0  0  0  0  0  3  0  0  0  0  0  0
  -25.9620  -26.8880   19.5270 C   0  0  0  0  0  3  0  0  0  0  0  0
  -24.8090  -27.6930   19.5420 C   0  0  0  0  0  3  0  0  0  0  0  0
  -23.5850  -29.8250   20.2370 C   0  0  0  0  0  2  0  0  0  0  0  0
  -24.6640  -31.0940   22.1360 N   0  0  0  0  0  0  0  0  0  0  0  0
  -23.5340  -32.2000   23.7690 O   0  0  0  0  0  0  0  0  0  0  0  0
  -22.7390  -29.4950   22.5950 C   0  0  0  0  0  0  0  0  0  0  0  0
  -21.4130  -29.3010   22.4770 N   0  0  0  0  0  0  0  0  0  0  0  0
  -23.4260  -28.8920   23.4240 O   0  0  0  0  0  0  0  0  0  0  0  0
  -20.9160  -29.8420   21.7840 H   0  0  0  0  0  0  0  0  0  0  0  0
  -18.0540  -28.0540   22.9990 C   0  0  0  0  0  0  0  0  0  0  0  0
  -20.6070  -28.3670   23.2660 C   0  0  0  0  0  3  0  0  0  0  0  0
  -20.7360  -26.9250   22.7240 C   0  0  0  0  0  2  0  0  0  0  0  0
  -19.6430  -26.5580   21.7150 C   0  0  0  0  0  2  0  0  0  0  0  0
  -18.2580  -26.6930   22.3530 C   0  0  0  0  0  2  0  0  0  0  0  0
  -19.1580  -28.8450   23.4130 C   0  0  0  0  0  0  0  0  0  0  0  0
  -18.9140  -30.1170   23.9770 C   0  0  0  0  0  3  0  0  0  0  0  0
  -17.5990  -30.5970   24.1300 C   0  0  0  0  0  3  0  0  0  0  0  0
  -16.5100  -29.8020   23.7310 C   0  0  0  0  0  3  0  0  0  0  0  0
  -16.7390  -28.5320   23.1700 C   0  0  0  0  0  3  0  0  0  0  0  0
  -25.8990  -32.5600   23.8240 C   0  0  0  0  0  3  0  0  0  0  0  0
  -26.4450  -31.7930   25.0900 C   0  0  1  0  0  0  0  0  0  0  0  0
  -25.3730  -31.5410   26.1750 C   0  0  0  0  0  1  0  0  0  0  0  0
  -27.0390  -30.4230   24.6880 C   0  0  0  0  0  1  0  0  0  0  0  0
  -27.5950  -32.5990   25.7360 C   0  0  0  0  0  1  0  0  0  0  0  0
  -25.5820  -33.9550   24.1650 N   0  0  0  0  0  0  0  0  0  0  0  0
  -25.8990  -35.0160   23.4120 C   0  0  0  0  0  0  0  0  0  0  0  0
  -26.5520  -34.9250   22.3690 O   0  0  0  0  0  0  0  0  0  0  0  0
  -25.0010  -34.1000   24.9770 H   0  0  0  0  0  0  0  0  0  0  0  0
  -24.1700  -36.8150   23.0760 C   0  0  0  0  0  1  0  0  0  0  0  0
  -25.4080  -36.3980   23.8870 C   0  0  0  0  0  3  0  0  0  0  0  0
  -27.5330  -37.2790   24.7460 C   0  0  0  0  0  1  0  0  0  0  0  0
  -26.4400  -37.4540   23.7940 N   0  0  0  0  0  0  0  0  0  0  0  0
  -26.0310  -38.3720   23.9440 H   0  0  0  0  0  0  0  0  0  0  0  0
  1  3  2  0
  2  8  1  0
  2  1  1  0
  4  2  1  0
  5  6  1  0
  7  5  2  0
  8  6  2  0
  9  7  1  0
  9  8  1  0
 10 19  1  0
 10  7  1  0
 11 17  1  0
 11 19  1  0
 12 17  1  0
 13 14  1  0
 13 12  1  0
 15 14  1  0
 15 24  1  0
 15 16  1  0
 17 16  1  0
 18 11  2  0
 19 20  1  0
 21 22  2  0
 22 41  1  0
 23 22  1  0
 23 26  1  0
 24 25  1  0
 24 21  1  0
 25 23  2  0
 26 27  1  0
 27 28  2  0
 29 32  1  0
 29 28  1  0
 30 29  2  0
 31 30  1  0
 31 26  2  0
 32 33  1  0
 33 38  2  0
 33 34  1  0
 34 35  2  0
 36 35  1  0
 36 40  1  0
 37 36  2  0
 38 37  1  0
 39 38  1  0
 41 42  1  0
 42 45  1  0
 42 44  1  0
 43 41  2  0
 46 21  1  0
 46 47  1  0
 48 46  1  0
 49 50  1  0
 49  1  1  0
 51 62  2  0
 52 50  1  0
 52 57  1  0
 53 61  1  0
 53 63  1  0
 54 60  1  0
 54 56  1  0
 55 61  1  0
 56 55  1  0
 57 56  2  0
 58 59  1  0
 58 52  2  0
 59 54  2  0
 60 53  1  0
 61 51  1  0
 63 65  2  0
 64 63  1  0
 66 64  1  0
 67 76  2  0
 67 72  1  0
 68 64  1  0
 68 72  1  0
 69 68  1  0
 70 71  1  0
 70 69  1  0
 71 67  1  0
 72 73  2  0
 73 74  1  0
 75 74  2  0
 76 75  1  0
 77 51  1  0
 77 82  1  0
 77 78  1  0
 78 81  1  1
 78 79  1  0
 80 78  1  0
 82 85  1  0
 83 87  1  0
 83 82  1  0
 84 83  2  0
 87 86  1  0
 89 87  1  0
 89 90  1  0
 89 88  1  0
M  ISO  4  11 100  19 100  49 101  50 101
M  END
>  <TORSDO>  (28) 
F 19

>  <SCORE>  (28) 
-13.912

>  <name>  (28) 
27

>  <ligand_id>  (28) 
27

>  <original_smiles>  (28) 
[H]c1c(N([H])C(=O)C([H])([H])Oc2c([H])c([H])c3c(c2[H])C([H])([H])N(C(=O)C([H])(N([H])C(=O)C([H])(N([H])C([H])([H])[H])C([H])([H])[H])C(C([H])([H])[H])(C([H])([H])[H])C([H])([H])[H])C([H])(C(=O)N([H])C2([H])c4c([H])c([H])c([H])c([H])c4C([H])([H])C([H])([H])C2([H])[H])C3([H])[H])oc(C([H])([H])N([H])C(=O)N2C([H])([H])C([H])([H])C([H])([H])C([H])(n3nc(-c4c([H])c([H])c(Oc5c([H])c([H])c(F)c([H])c5F)c([H])c4[H])c(C(=O)N([H])[H])c3N([H])[H])C2([H])[H])c1[H]

>  <smiles>  (28) 
[H]c1c(N([H])C(=O)C([H])([H])Oc2c([H])c([H])c3c(c2[H])C([H])([H])N(C(=O)C([H])(N([H])C(=O)C([H])(N([H])C([H])([H])[H])C([H])([H])[H])C(C([H])([H])[H])(C([H])([H])[H])C([H])([H])[H])C([H])(C(=O)N([H])C2([H])c4c([H])c([H])c([H])c([H])c4C([H])([H])C([H])([H])C2([H])[H])C3([H])[H])oc(C([H])([H])N([H])C(=O)N2C([H])([H])C([H])([H])C([H])([H])C([H])(n3nc(-c4c([H])c([H])c(Oc5c([H])c([H])c(F)c([H])c5F)c([H])c4[H])c(C(=O)N([H])[H])c3N([H])[H])C2([H])[H])c1[H]

$$$$
28:0:0
     RDKit          3D

 93101  0  0  1  0  0  0  0  0999 V2000
  -27.8790  -20.8640   21.8760 C   0  0  0  0  0  1  0  0  0  0  0  0
  -28.8170  -21.0120   20.7510 N   0  0  0  0  0  0  0  0  0  0  0  0
  -29.3130  -17.5530   19.4010 C   0  0  0  0  0  3  0  0  0  0  0  0
  -28.6310  -18.8390   19.4140 C   0  0  0  0  0  0  0  0  0  0  0  0
  -30.3560  -17.5960   20.2840 C   0  0  0  0  0  0  0  0  0  0  0  0
  -29.3250  -19.7030   20.2440 C   0  0  0  0  0  0  0  0  0  0  0  0
  -30.3820  -18.9310   20.8060 O   0  0  0  0  0  0  0  0  0  0  0  0
  -31.5420  -15.2150   20.3500 C   0  0  0  0  0  0  0  0  0  0  0  0
  -31.1180  -12.8240   19.6300 C   0  0  0  0  0  2  0  0  0  0  0  0
  -30.3170  -12.7390   18.3180 C   0  0  0  0  0  2  0  0  0  0  0  0
  -28.8220  -12.6460   18.6600 C   0  0  0  0  0  2  0  0  0  0  0  0
  -28.3960  -13.6860   19.7280 C   0  0  0  0  0  3  0  0  0  0  0  0
  -29.3840  -13.8780   20.9040 C   0  0  0  0  0  2  0  0  0  0  0  0
  -30.7190  -14.0850   20.3390 N   0  0  0  0  0  0  0  0  0  0  0  0
  -32.7080  -15.0490   20.0030 O   0  0  0  0  0  0  0  0  0  0  0  0
  -31.2020  -16.5300   20.7090 N   0  0  0  0  0  0  0  0  0  0  0  0
  -32.0930  -16.9350   20.9950 H   0  0  0  0  0  0  0  0  0  0  0  0
  -26.0500  -14.4190   20.4150 C   0  0  0  0  0  0  0  0  0  0  0  0
  -24.9200  -13.7260   20.7280 C   0  0  0  0  0  0  0  0  0  0  0  0
  -25.2860  -12.3480   20.6860 C   0  0  0  0  0  0  0  0  0  0  0  0
  -27.0350  -13.4740   20.1870 N   0  0  0  0  0  0  0  0  0  0  0  0
  -26.5830  -12.2150   20.4250 N   0  0  0  0  0  0  0  0  0  0  0  0
  -24.4560  -11.1490   20.8230 C   0  0  0  0  0  0  0  0  0  0  0  0
  -24.7880  -10.1200   21.7290 C   0  0  0  0  0  3  0  0  0  0  0  0
  -23.9530   -8.9910   21.8630 C   0  0  0  0  0  3  0  0  0  0  0  0
  -22.7780   -8.8790   21.0840 C   0  0  0  0  0  0  0  0  0  0  0  0
  -22.4670   -9.8940   20.1630 C   0  0  0  0  0  3  0  0  0  0  0  0
  -23.3020  -11.0160   20.0260 C   0  0  0  0  0  3  0  0  0  0  0  0
  -21.9280   -7.8020   21.1260 O   0  0  0  0  0  0  0  0  0  0  0  0
  -21.7990   -7.0310   22.2530 C   0  0  0  0  0  0  0  0  0  0  0  0
  -21.3910   -7.5760   23.4880 C   0  0  0  0  0  3  0  0  0  0  0  0
  -21.2070   -6.7360   24.6050 C   0  0  0  0  0  3  0  0  0  0  0  0
  -21.4210   -5.3500   24.4850 C   0  0  0  0  0  0  0  0  0  0  0  0
  -21.8170   -4.8020   23.2510 C   0  0  0  0  0  3  0  0  0  0  0  0
  -22.0050   -5.6410   22.1380 C   0  0  0  0  0  0  0  0  0  0  0  0
  -22.3710   -5.1030   20.9500 F   0  0  0  0  0  0  0  0  0  0  0  0
  -21.2330   -4.5420   25.5540 F   0  0  0  0  0  0  0  0  0  0  0  0
  -23.5600  -14.3140   20.9410 C   0  0  0  0  0  0  0  0  0  0  0  0
  -22.7600  -13.6920   21.7970 N   0  0  0  0  0  0  0  0  0  0  0  0
  -23.2210  -15.3670   20.4060 O   0  0  0  0  0  0  0  0  0  0  0  0
  -23.0600  -12.8480   22.2590 H   0  0  0  0  0  0  0  0  0  0  0  0
  -21.8390  -14.0560   21.9870 H   0  0  0  0  0  0  0  0  0  0  0  0
  -26.2880  -15.7750   20.2760 N   0  0  0  0  0  0  0  0  0  0  0  0
  -25.5140  -16.4280   20.3660 H   0  0  0  0  0  0  0  0  0  0  0  0
  -27.1260  -16.2230   19.9310 H   0  0  0  0  0  0  0  0  0  0  0  0
  -27.3280  -19.1830   18.7710 C   0  0  0  0  0  0  0  0  0  0  0  0
  -27.1540  -20.5300   18.0640 C   0  0  0  0  0  1  0  0  0  0  0  0
  -26.3890  -18.4020   18.7480 O   0  0  0  0  0  0  0  0  0  0  0  0
  -29.4390  -22.4210   20.6470 C   0  0  0  0  0  2  0  0  0  0  0  0
  -28.6710  -23.7710   20.0700 C   0  0  0  0  0  0  0  0  0  0  0  0
  -28.1310  -23.6780   18.9610 O   0  0  0  0  0  0  0  0  0  0  0  0
  -28.6240  -25.2260   20.8260 C   0  0  0  0  0  2  0  0  0  0  0  0
  -28.6090  -26.5900   20.1020 O   0  0  0  0  0  0  0  0  0  0  0  0
  -24.6610  -31.9390   23.2390 C   0  0  0  0  0  0  0  0  0  0  0  0
  -27.4860  -27.4780   20.1310 C   0  0  0  0  0  0  0  0  0  0  0  0
  -23.5530  -30.5470   21.5220 C   0  0  0  0  0  3  0  0  0  0  0  0
  -25.0890  -29.0910   20.0800 C   0  0  0  0  0  0  0  0  0  0  0  0
  -26.0870  -30.9450   21.4150 C   0  0  0  0  0  2  0  0  0  0  0  0
  -26.2330  -29.5850   20.7250 C   0  0  0  0  0  0  0  0  0  0  0  0
  -27.4450  -28.8020   20.7150 C   0  0  0  0  0  3  0  0  0  0  0  0
  -26.3150  -27.0650   19.4650 C   0  0  0  0  0  3  0  0  0  0  0  0
  -25.1360  -27.8400   19.4410 C   0  0  0  0  0  3  0  0  0  0  0  0
  -23.8150  -29.9050   20.1330 C   0  0  0  0  0  2  0  0  0  0  0  0
  -24.7870  -31.1680   22.1140 N   0  0  0  0  0  0  0  0  0  0  0  0
  -23.5610  -32.1540   23.7560 O   0  0  0  0  0  0  0  0  0  0  0  0
  -22.9110  -29.4800   22.4530 C   0  0  0  0  0  0  0  0  0  0  0  0
  -21.5980  -29.2460   22.2680 N   0  0  0  0  0  0  0  0  0  0  0  0
  -23.5820  -28.8910   23.2940 O   0  0  0  0  0  0  0  0  0  0  0  0
  -21.0980  -29.7590   21.5660 H   0  0  0  0  0  0  0  0  0  0  0  0
  -18.2820  -27.8300   22.6620 C   0  0  0  0  0  0  0  0  0  0  0  0
  -20.8060  -28.2550   23.0150 C   0  0  0  0  0  3  0  0  0  0  0  0
  -21.0200  -26.8440   22.4100 C   0  0  0  0  0  2  0  0  0  0  0  0
  -19.9590  -26.4570   21.3860 C   0  0  0  0  0  2  0  0  0  0  0  0
  -18.5570  -26.5080   21.9850 C   0  0  0  0  0  2  0  0  0  0  0  0
  -19.3320  -28.6490   23.1510 C   0  0  0  0  0  0  0  0  0  0  0  0
  -19.0000  -29.8690   23.7830 C   0  0  0  0  0  3  0  0  0  0  0  0
  -17.6730  -30.2940   23.8710 C   0  0  0  0  0  3  0  0  0  0  0  0
  -16.6380  -29.4920   23.3700 C   0  0  0  0  0  3  0  0  0  0  0  0
  -16.9500  -28.2590   22.7800 C   0  0  0  0  0  3  0  0  0  0  0  0
  -25.9090  -32.6030   23.9110 C   0  0  0  0  0  3  0  0  0  0  0  0
  -25.5540  -33.9980   24.2210 N   0  0  0  0  0  0  0  0  0  0  0  0
  -25.8960  -35.0570   23.4760 C   0  0  0  0  0  0  0  0  0  0  0  0
  -26.6150  -34.9660   22.4760 O   0  0  0  0  0  0  0  0  0  0  0  0
  -24.9180  -34.1400   24.9940 H   0  0  0  0  0  0  0  0  0  0  0  0
  -24.1460  -36.8120   23.0560 C   0  0  0  0  0  1  0  0  0  0  0  0
  -25.3670  -36.4400   23.9100 C   0  0  0  0  0  3  0  0  0  0  0  0
  -27.4510  -37.3700   24.8180 C   0  0  0  0  0  1  0  0  0  0  0  0
  -26.3860  -37.5100   23.8280 N   0  0  0  0  0  0  0  0  0  0  0  0
  -25.9550  -38.4220   23.9520 H   0  0  0  0  0  0  0  0  0  0  0  0
  -26.3900  -31.8560   25.2130 C   0  0  1  0  0  0  0  0  0  0  0  0
  -25.2590  -31.5840   26.2310 C   0  0  0  0  0  1  0  0  0  0  0  0
  -27.0350  -30.4970   24.8630 C   0  0  0  0  0  1  0  0  0  0  0  0
  -27.4880  -32.6910   25.9160 C   0  0  0  0  0  1  0  0  0  0  0  0
  2  1  1  0
  3  4  1  0
  3  5  2  0
  4  6  2  0
  5 16  1  0
  5  7  1  0
  6  2  1  0
  6  7  1  0
  8 16  1  0
  9 14  1  0
 10 11  1  0
 10  9  1  0
 12 11  1  0
 12 21  1  0
 12 13  1  0
 14  8  1  0
 14 13  1  0
 15  8  2  0
 16 17  1  0
 18 19  2  0
 19 38  1  0
 20 19  1  0
 20 23  1  0
 21 18  1  0
 21 22  1  0
 22 20  2  0
 23 24  1  0
 24 25  2  0
 26 29  1  0
 26 25  1  0
 27 26  2  0
 28 27  1  0
 28 23  2  0
 29 30  1  0
 30 31  1  0
 31 32  2  0
 33 32  1  0
 33 37  1  0
 34 33  2  0
 35 30  2  0
 35 34  1  0
 36 35  1  0
 38 39  1  0
 39 42  1  0
 39 41  1  0
 40 38  2  0
 43 44  1  0
 43 18  1  0
 45 43  1  0
 46  4  1  0
 47 46  1  0
 48 46  2  0
 49  2  1  0
 50 49  1  0
 50 52  1  0
 51 50  2  0
 53 55  1  0
 53 52  1  0
 54 65  2  0
 55 60  1  0
 56 64  1  0
 56 66  1  0
 57 63  1  0
 57 59  1  0
 58 64  1  0
 59 58  1  0
 60 59  2  0
 61 55  2  0
 62 61  1  0
 62 57  2  0
 63 56  1  0
 64 54  1  0
 66 68  2  0
 67 66  1  0
 69 67  1  0
 70 79  2  0
 70 75  1  0
 71 67  1  0
 71 75  1  0
 72 71  1  0
 73 74  1  0
 73 72  1  0
 74 70  1  0
 75 76  2  0
 76 77  1  0
 78 77  2  0
 79 78  1  0
 80 54  1  0
 80 81  1  0
 80 90  1  0
 81 84  1  0
 82 86  1  0
 82 81  1  0
 83 82  2  0
 86 85  1  0
 88 86  1  0
 88 89  1  0
 88 87  1  0
 90 93  1  1
 90 91  1  0
 92 90  1  0
M  ISO  4   8 100  16 100  52 101  53 101
M  END
>  <TORSDO>  (29) 
F 21

>  <SCORE>  (29) 
-11.208

>  <name>  (29) 
28

>  <ligand_id>  (29) 
28

>  <original_smiles>  (29) 
[H]c1c([H])c([H])c2c(c1[H])C([H])([H])C([H])([H])C([H])([H])C2([H])N([H])C(=O)C1([H])N(C(=O)C([H])(N([H])C(=O)C([H])(N([H])C([H])([H])[H])C([H])([H])[H])C(C([H])([H])[H])(C([H])([H])[H])C([H])([H])[H])C([H])([H])c2c([H])c(OC([H])([H])C(=O)C([H])([H])N(c3oc(N([H])C(=O)N4C([H])([H])C([H])([H])C([H])([H])C([H])(n5nc(-c6c([H])c([H])c(Oc7c([H])c([H])c(F)c([H])c7F)c([H])c6[H])c(C(=O)N([H])[H])c5N([H])[H])C4([H])[H])c([H])c3C(=O)C([H])([H])[H])C([H])([H])[H])c([H])c([H])c2C1([H])[H]

>  <smiles>  (29) 
[H]c1c([H])c([H])c2c(c1[H])C([H])([H])C([H])([H])C([H])([H])C2([H])N([H])C(=O)C1([H])N(C(=O)C([H])(N([H])C(=O)C([H])(N([H])C([H])([H])[H])C([H])([H])[H])C(C([H])([H])[H])(C([H])([H])[H])C([H])([H])[H])C([H])([H])c2c([H])c(OC([H])([H])C(=O)C([H])([H])N(c3oc(N([H])C(=O)N4C([H])([H])C([H])([H])C([H])([H])C([H])(n5nc(-c6c([H])c([H])c(Oc7c([H])c([H])c(F)c([H])c7F)c([H])c6[H])c(C(=O)N([H])[H])c5N([H])[H])C4([H])[H])c([H])c3C(=O)C([H])([H])[H])C([H])([H])[H])c([H])c([H])c2C1([H])[H]

$$$$
29:0:0
     RDKit          3D

 94102  0  0  1  0  0  0  0  0999 V2000
  -28.1150  -20.4550   20.0180 C   0  0  0  0  0  3  0  0  0  0  0  0
  -28.4000  -19.0230   20.0590 C   0  0  0  0  0  0  0  0  0  0  0  0
  -29.7140  -18.6720   20.3490 C   0  0  0  0  0  0  0  0  0  0  0  0
  -29.1860  -21.3050   20.1940 C   0  0  0  0  0  0  0  0  0  0  0  0
  -30.5920  -20.2370   20.4760 S   0  0  0  0  0  0  0  0  0  0  0  0
  -30.7200  -14.8220   20.4410 C   0  0  0  0  0  0  0  0  0  0  0  0
  -30.4550  -12.5270   19.4830 C   0  0  0  0  0  2  0  0  0  0  0  0
  -29.5350  -12.5430   18.2460 C   0  0  0  0  0  2  0  0  0  0  0  0
  -28.0650  -12.3710   18.6720 C   0  0  0  0  0  2  0  0  0  0  0  0
  -27.6650  -13.2990   19.8510 C   0  0  0  0  0  3  0  0  0  0  0  0
  -28.7190  -13.3060   20.9790 C   0  0  0  0  0  2  0  0  0  0  0  0
  -30.0180  -13.6300   20.3740 N   0  0  0  0  0  0  0  0  0  0  0  0
  -31.9300  -14.7810   20.2150 O   0  0  0  0  0  0  0  0  0  0  0  0
  -30.5540  -17.3490   20.4760 C   0  0  0  0  0  0  0  0  0  0  0  0
  -30.0420  -16.0460   20.5110 N   0  0  0  0  0  0  0  0  0  0  0  0
  -31.7720  -17.5300   20.5610 O   0  0  0  0  0  0  0  0  0  0  0  0
  -29.0300  -16.0010   20.5040 H   0  0  0  0  0  0  0  0  0  0  0  0
  -25.2640  -13.8570   20.5740 C   0  0  0  0  0  0  0  0  0  0  0  0
  -24.2010  -13.0800   20.9270 C   0  0  0  0  0  0  0  0  0  0  0  0
  -24.6750  -11.7370   20.8910 C   0  0  0  0  0  0  0  0  0  0  0  0
  -26.3230  -12.9940   20.3420 N   0  0  0  0  0  0  0  0  0  0  0  0
  -25.9720  -11.7060   20.6000 N   0  0  0  0  0  0  0  0  0  0  0  0
  -23.9450  -10.4770   21.0650 C   0  0  0  0  0  0  0  0  0  0  0  0
  -24.3560   -9.5120   22.0090 C   0  0  0  0  0  3  0  0  0  0  0  0
  -23.6250   -8.3180   22.1750 C   0  0  0  0  0  3  0  0  0  0  0  0
  -22.4680   -8.0810   21.3960 C   0  0  0  0  0  0  0  0  0  0  0  0
  -22.0760   -9.0350   20.4400 C   0  0  0  0  0  3  0  0  0  0  0  0
  -22.8090  -10.2220   20.2740 C   0  0  0  0  0  3  0  0  0  0  0  0
  -21.7100   -6.9380   21.4710 O   0  0  0  0  0  0  0  0  0  0  0  0
  -21.6200   -6.2100   22.6290 C   0  0  0  0  0  0  0  0  0  0  0  0
  -21.1270   -6.7720   23.8270 C   0  0  0  0  0  3  0  0  0  0  0  0
  -20.9840   -5.9680   24.9750 C   0  0  0  0  0  3  0  0  0  0  0  0
  -21.3260   -4.6030   24.9270 C   0  0  0  0  0  0  0  0  0  0  0  0
  -21.8130   -4.0400   23.7320 C   0  0  0  0  0  3  0  0  0  0  0  0
  -21.9580   -4.8420   22.5870 C   0  0  0  0  0  0  0  0  0  0  0  0
  -22.4070   -4.2900   21.4340 F   0  0  0  0  0  0  0  0  0  0  0  0
  -21.1820   -3.8270   26.0270 F   0  0  0  0  0  0  0  0  0  0  0  0
  -22.8020  -13.5610   21.1820 C   0  0  0  0  0  0  0  0  0  0  0  0
  -22.0650  -12.8580   22.0350 N   0  0  0  0  0  0  0  0  0  0  0  0
  -22.3730  -14.5940   20.6680 O   0  0  0  0  0  0  0  0  0  0  0  0
  -22.4230  -12.0220   22.4710 H   0  0  0  0  0  0  0  0  0  0  0  0
  -21.1240  -13.1570   22.2540 H   0  0  0  0  0  0  0  0  0  0  0  0
  -25.3850  -15.2220   20.4150 N   0  0  0  0  0  0  0  0  0  0  0  0
  -24.6040  -15.8480   20.5750 H   0  0  0  0  0  0  0  0  0  0  0  0
  -26.2520  -15.7100   20.1840 H   0  0  0  0  0  0  0  0  0  0  0  0
  -28.4190  -23.7460   20.3530 C   0  0  0  0  0  0  0  0  0  0  0  0
  -29.2620  -22.6950   20.0210 N   0  0  0  0  0  0  0  0  0  0  0  0
  -27.5070  -23.5970   21.1730 O   0  0  0  0  0  0  0  0  0  0  0  0
  -30.0660  -22.9930   19.4850 H   0  0  0  0  0  0  0  0  0  0  0  0
  -28.6170  -25.1770   19.6520 C   0  0  0  0  0  2  0  0  0  0  0  0
  -28.3950  -26.4510   20.4090 O   0  0  0  0  0  0  0  0  0  0  0  0
  -24.5890  -31.8960   23.2580 C   0  0  0  0  0  0  0  0  0  0  0  0
  -27.2650  -27.2890   20.2790 C   0  0  0  0  0  0  0  0  0  0  0  0
  -23.4210  -30.4760   21.6090 C   0  0  0  0  0  3  0  0  0  0  0  0
  -24.9010  -28.9170   20.2140 C   0  0  0  0  0  0  0  0  0  0  0  0
  -25.9620  -30.7980   21.4650 C   0  0  0  0  0  2  0  0  0  0  0  0
  -26.0560  -29.4100   20.8310 C   0  0  0  0  0  0  0  0  0  0  0  0
  -27.2350  -28.6020   20.8600 C   0  0  0  0  0  3  0  0  0  0  0  0
  -26.0840  -26.8540   19.6380 C   0  0  0  0  0  3  0  0  0  0  0  0
  -24.9190  -27.6490   19.6100 C   0  0  0  0  0  3  0  0  0  0  0  0
  -23.6600  -29.7830   20.2400 C   0  0  0  0  0  2  0  0  0  0  0  0
  -24.6760  -31.0760   22.1690 N   0  0  0  0  0  0  0  0  0  0  0  0
  -23.4960  -32.1720   23.7730 O   0  0  0  0  0  0  0  0  0  0  0  0
  -22.7430  -29.4700   22.5720 C   0  0  0  0  0  0  0  0  0  0  0  0
  -21.4170  -29.2980   22.4340 N   0  0  0  0  0  0  0  0  0  0  0  0
  -23.4110  -28.8470   23.4010 O   0  0  0  0  0  0  0  0  0  0  0  0
  -20.9390  -29.8450   21.7340 H   0  0  0  0  0  0  0  0  0  0  0  0
  -18.0250  -28.1440   22.9370 C   0  0  0  0  0  0  0  0  0  0  0  0
  -20.5880  -28.3670   23.2020 C   0  0  0  0  0  3  0  0  0  0  0  0
  -20.6680  -26.9380   22.6150 C   0  0  0  0  0  2  0  0  0  0  0  0
  -19.5620  -26.6410   21.6000 C   0  0  0  0  0  2  0  0  0  0  0  0
  -18.1820  -26.7990   22.2490 C   0  0  0  0  0  2  0  0  0  0  0  0
  -19.1550  -28.8880   23.3700 C   0  0  0  0  0  0  0  0  0  0  0  0
  -18.9520  -30.1490   23.9730 C   0  0  0  0  0  3  0  0  0  0  0  0
  -17.6550  -30.6640   24.1480 C   0  0  0  0  0  3  0  0  0  0  0  0
  -16.5410  -29.9160   23.7340 C   0  0  0  0  0  3  0  0  0  0  0  0
  -16.7260  -28.6570   23.1330 C   0  0  0  0  0  3  0  0  0  0  0  0
  -25.8590  -32.5400   23.8990 C   0  0  0  0  0  3  0  0  0  0  0  0
  -26.3500  -31.7880   25.1960 C   0  0  1  0  0  0  0  0  0  0  0  0
  -25.2370  -31.5620   26.2460 C   0  0  0  0  0  1  0  0  0  0  0  0
  -26.9440  -30.4070   24.8360 C   0  0  0  0  0  1  0  0  0  0  0  0
  -27.4870  -32.5940   25.8680 C   0  0  0  0  0  1  0  0  0  0  0  0
  -25.5410  -33.9430   24.2040 N   0  0  0  0  0  0  0  0  0  0  0  0
  -25.8920  -34.9870   23.4410 C   0  0  0  0  0  0  0  0  0  0  0  0
  -26.5820  -34.8700   22.4240 O   0  0  0  0  0  0  0  0  0  0  0  0
  -24.9310  -34.1090   24.9920 H   0  0  0  0  0  0  0  0  0  0  0  0
  -24.1850  -36.7840   23.0200 C   0  0  0  0  0  1  0  0  0  0  0  0
  -25.4010  -36.3820   23.8720 C   0  0  0  0  0  3  0  0  0  0  0  0
  -27.5110  -37.2650   24.7620 C   0  0  0  0  0  1  0  0  0  0  0  0
  -26.4430  -37.4280   23.7790 N   0  0  0  0  0  0  0  0  0  0  0  0
  -26.0380  -38.3530   23.9020 H   0  0  0  0  0  0  0  0  0  0  0  0
  -27.3810  -18.0260   19.7740 C   0  0  0  0  0  0  0  0  0  0  0  0
  -26.0440  -18.5240   19.2420 C   0  0  0  0  0  1  0  0  0  0  0  0
  -27.5390  -16.8150   19.9040 O   0  0  0  0  0  0  0  0  0  0  0  0
  1  2  1  0
  1  4  2  0
  2  3  2  0
  3  5  1  0
  3 14  1  0
  4  5  1  0
  6 15  1  0
  7 12  1  0
  8  9  1  0
  8  7  1  0
 10  9  1  0
 10 21  1  0
 10 11  1  0
 12  6  1  0
 12 11  1  0
 13  6  2  0
 14 15  1  0
 14 16  2  0
 17 15  1  0
 18 19  2  0
 19 38  1  0
 20 19  1  0
 20 23  1  0
 21 18  1  0
 21 22  1  0
 22 20  2  0
 23 24  1  0
 24 25  2  0
 26 29  1  0
 26 25  1  0
 27 26  2  0
 28 27  1  0
 28 23  2  0
 29 30  1  0
 30 31  1  0
 31 32  2  0
 33 32  1  0
 33 37  1  0
 34 33  2  0
 35 30  2  0
 35 34  1  0
 36 35  1  0
 38 39  1  0
 39 42  1  0
 39 41  1  0
 40 38  2  0
 43 18  1  0
 43 44  1  0
 45 43  1  0
 46 48  2  0
 47  4  1  0
 47 46  1  0
 49 47  1  0
 50 46  1  0
 50 51  1  0
 52 63  2  0
 53 51  1  0
 53 58  1  0
 54 62  1  0
 54 64  1  0
 55 61  1  0
 55 57  1  0
 56 62  1  0
 57 58  2  0
 57 56  1  0
 59 53  2  0
 60 59  1  0
 60 55  2  0
 61 54  1  0
 62 52  1  0
 64 66  2  0
 65 64  1  0
 67 65  1  0
 68 77  2  0
 68 73  1  0
 69 65  1  0
 69 73  1  0
 70 69  1  0
 71 72  1  0
 71 70  1  0
 72 68  1  0
 73 74  2  0
 74 75  1  0
 76 75  2  0
 77 76  1  0
 78 52  1  0
 78 83  1  0
 78 79  1  0
 79 82  1  1
 79 80  1  0
 81 79  1  0
 83 86  1  0
 84 88  1  0
 84 83  1  0
 85 84  2  0
 88 87  1  0
 90 88  1  0
 90 91  1  0
 90 89  1  0
 92 94  2  0
 92  2  1  0
 93 92  1  0
M  ISO  4   6 100  15 100  50 101  51 101
M  END
>  <TORSDO>  (30) 
F 19

>  <SCORE>  (30) 
-14.279

>  <name>  (30) 
29

>  <ligand_id>  (30) 
29

>  <original_smiles>  (30) 
[H]c1c([H])c([H])c2c(c1[H])C([H])([H])C([H])([H])C([H])([H])C2([H])N([H])C(=O)C1([H])N(C(=O)C([H])(N([H])C(=O)C([H])(N([H])C([H])([H])[H])C([H])([H])[H])C(C([H])([H])[H])(C([H])([H])[H])C([H])([H])[H])C([H])([H])c2c([H])c(OC([H])([H])C(=O)N([H])c3sc(C(=O)N([H])C(=O)N4C([H])([H])C([H])([H])C([H])([H])C([H])(n5nc(-c6c([H])c([H])c(Oc7c([H])c([H])c(F)c([H])c7F)c([H])c6[H])c(C(=O)N([H])[H])c5N([H])[H])C4([H])[H])c(C(=O)C([H])([H])[H])c3[H])c([H])c([H])c2C1([H])[H]

>  <smiles>  (30) 
[H]c1c([H])c([H])c2c(c1[H])C([H])([H])C([H])([H])C([H])([H])C2([H])N([H])C(=O)C1([H])N(C(=O)C([H])(N([H])C(=O)C([H])(N([H])C([H])([H])[H])C([H])([H])[H])C(C([H])([H])[H])(C([H])([H])[H])C([H])([H])[H])C([H])([H])c2c([H])c(OC([H])([H])C(=O)N([H])c3sc(C(=O)N([H])C(=O)N4C([H])([H])C([H])([H])C([H])([H])C([H])(n5nc(-c6c([H])c([H])c(Oc7c([H])c([H])c(F)c([H])c7F)c([H])c6[H])c(C(=O)N([H])[H])c5N([H])[H])C4([H])[H])c(C(=O)C([H])([H])[H])c3[H])c([H])c([H])c2C1([H])[H]

$$$$
30:0:0
     RDKit          3D

 92101  0  0  1  0  0  0  0  0999 V2000
  -29.1450  -21.0000   19.6800 N   0  0  0  0  0  0  0  0  0  0  0  0
  -28.8360  -21.2170   18.7340 H   0  0  0  0  0  0  0  0  0  0  0  0
  -30.5580  -14.7660   19.3220 C   0  0  0  0  0  0  0  0  0  0  0  0
  -30.0780  -12.6150   18.1170 C   0  0  0  0  0  2  0  0  0  0  0  0
  -28.9310  -12.8200   17.1020 C   0  0  0  0  0  2  0  0  0  0  0  0
  -27.5620  -12.6260   17.7800 C   0  0  0  0  0  2  0  0  0  0  0  0
  -27.4500  -13.3860   19.1270 C   0  0  0  0  0  3  0  0  0  0  0  0
  -28.6920  -13.1700   20.0130 C   0  0  0  0  0  2  0  0  0  0  0  0
  -29.8720  -13.5690   19.2350 N   0  0  0  0  0  0  0  0  0  0  0  0
  -31.5940  -14.9120   18.6670 O   0  0  0  0  0  0  0  0  0  0  0  0
  -29.3800  -18.4270   19.2200 C   0  0  0  0  0  3  0  0  0  0  0  0
  -29.8430  -17.2440   19.9420 C   0  0  0  0  0  0  0  0  0  0  0  0
  -30.2790  -17.5460   21.2370 C   0  0  0  0  0  0  0  0  0  0  0  0
  -29.4890  -19.6180   20.0170 C   0  0  0  0  0  0  0  0  0  0  0  0
  -30.5980  -16.1210   21.5360 C   0  0  1  0  0  0  0  0  0  0  0  0
  -32.0990  -15.8700   21.7200 C   0  0  0  0  0  1  0  0  0  0  0  0
  -29.7460  -15.5090   22.6460 C   0  0  0  0  0  1  0  0  0  0  0  0
  -30.0640  -15.7870   20.1350 N   0  0  0  0  0  0  0  0  0  0  0  0
  -30.1640  -19.2330   21.6540 S   0  0  0  0  0  0  0  0  0  0  0  0
  -25.2570  -13.9290   20.3400 C   0  0  0  0  0  0  0  0  0  0  0  0
  -24.2520  -13.1360   20.8220 C   0  0  0  0  0  0  0  0  0  0  0  0
  -24.6570  -11.7890   20.5750 C   0  0  0  0  0  0  0  0  0  0  0  0
  -26.2100  -13.0650   19.8280 N   0  0  0  0  0  0  0  0  0  0  0  0
  -25.8680  -11.7660   20.0300 N   0  0  0  0  0  0  0  0  0  0  0  0
  -23.9370  -10.5240   20.7740 C   0  0  0  0  0  0  0  0  0  0  0  0
  -24.4880   -9.4700   21.5340 C   0  0  0  0  0  3  0  0  0  0  0  0
  -23.7670   -8.2710   21.7280 C   0  0  0  0  0  3  0  0  0  0  0  0
  -22.4790   -8.1190   21.1620 C   0  0  0  0  0  0  0  0  0  0  0  0
  -21.9440   -9.1630   20.3860 C   0  0  0  0  0  3  0  0  0  0  0  0
  -22.6660  -10.3520   20.1890 C   0  0  0  0  0  3  0  0  0  0  0  0
  -21.7160   -6.9830   21.2770 O   0  0  0  0  0  0  0  0  0  0  0  0
  -21.8200   -6.1500   22.3610 C   0  0  0  0  0  0  0  0  0  0  0  0
  -21.6170   -6.6160   23.6780 C   0  0  0  0  0  3  0  0  0  0  0  0
  -21.6650   -5.7120   24.7590 C   0  0  0  0  0  3  0  0  0  0  0  0
  -21.9080   -4.3460   24.5260 C   0  0  0  0  0  0  0  0  0  0  0  0
  -22.1030   -3.8790   23.2140 C   0  0  0  0  0  3  0  0  0  0  0  0
  -22.0570   -4.7780   22.1350 C   0  0  0  0  0  0  0  0  0  0  0  0
  -22.2270   -4.3190   20.8700 F   0  0  0  0  0  0  0  0  0  0  0  0
  -21.9440   -3.4770   25.5630 F   0  0  0  0  0  0  0  0  0  0  0  0
  -22.9440  -13.6020   21.3940 C   0  0  0  0  0  0  0  0  0  0  0  0
  -22.3710  -12.8380   22.3190 N   0  0  0  0  0  0  0  0  0  0  0  0
  -22.4450  -14.6750   21.0570 O   0  0  0  0  0  0  0  0  0  0  0  0
  -22.7900  -11.9670   22.6080 H   0  0  0  0  0  0  0  0  0  0  0  0
  -21.5000  -13.1270   22.7390 H   0  0  0  0  0  0  0  0  0  0  0  0
  -25.4320  -15.3090   20.2740 N   0  0  0  0  0  0  0  0  0  0  0  0
  -24.7290  -15.9610   20.6050 H   0  0  0  0  0  0  0  0  0  0  0  0
  -26.2440  -15.7710   19.8830 H   0  0  0  0  0  0  0  0  0  0  0  0
  -28.9760  -22.1780   20.6400 C   0  0  0  0  0  2  0  0  0  0  0  0
  -28.9790  -23.7030   20.0960 C   0  0  0  0  0  0  0  0  0  0  0  0
  -29.5120  -23.9330   19.0060 O   0  0  0  0  0  0  0  0  0  0  0  0
  -28.2950  -24.9060   20.9220 C   0  0  0  0  0  2  0  0  0  0  0  0
  -28.5830  -26.3530   20.5730 O   0  0  0  0  0  0  0  0  0  0  0  0
  -24.6620  -31.8560   23.3310 C   0  0  0  0  0  0  0  0  0  0  0  0
  -27.4830  -27.2410   20.4960 C   0  0  0  0  0  0  0  0  0  0  0  0
  -23.5660  -30.4090   21.6610 C   0  0  0  0  0  3  0  0  0  0  0  0
  -25.1090  -28.8530   20.3350 C   0  0  0  0  0  0  0  0  0  0  0  0
  -26.1110  -30.7560   21.5970 C   0  0  0  0  0  2  0  0  0  0  0  0
  -26.2450  -29.3630   20.9780 C   0  0  0  0  0  0  0  0  0  0  0  0
  -27.4400  -28.5700   21.0430 C   0  0  0  0  0  3  0  0  0  0  0  0
  -26.3250  -26.8020   19.8230 C   0  0  0  0  0  3  0  0  0  0  0  0
  -25.1550  -27.5810   19.7430 C   0  0  0  0  0  3  0  0  0  0  0  0
  -23.8600  -29.7120   20.3050 C   0  0  0  0  0  2  0  0  0  0  0  0
  -24.7970  -31.0270   22.2540 N   0  0  0  0  0  0  0  0  0  0  0  0
  -23.5480  -32.1230   23.8050 O   0  0  0  0  0  0  0  0  0  0  0  0
  -22.8700  -29.4010   22.6080 C   0  0  0  0  0  0  0  0  0  0  0  0
  -21.5540  -29.2000   22.4190 N   0  0  0  0  0  0  0  0  0  0  0  0
  -23.5140  -28.8040   23.4730 O   0  0  0  0  0  0  0  0  0  0  0  0
  -21.0960  -29.7300   21.6910 H   0  0  0  0  0  0  0  0  0  0  0  0
  -18.1870  -27.9200   22.7540 C   0  0  0  0  0  0  0  0  0  0  0  0
  -20.7160  -28.2600   23.1640 C   0  0  0  0  0  3  0  0  0  0  0  0
  -20.8880  -26.8180   22.6330 C   0  0  0  0  0  2  0  0  0  0  0  0
  -19.8590  -26.4420   21.5660 C   0  0  0  0  0  2  0  0  0  0  0  0
  -18.4410  -26.5590   22.1300 C   0  0  0  0  0  2  0  0  0  0  0  0
  -19.2570  -28.7250   23.2290 C   0  0  0  0  0  0  0  0  0  0  0  0
  -18.9680  -29.9960   23.7720 C   0  0  0  0  0  3  0  0  0  0  0  0
  -17.6410  -30.4600   23.8520 C   0  0  0  0  0  3  0  0  0  0  0  0
  -16.5860  -29.6520   23.3940 C   0  0  0  0  0  3  0  0  0  0  0  0
  -16.8600  -28.3840   22.8520 C   0  0  0  0  0  3  0  0  0  0  0  0
  -25.8990  -32.5260   24.0060 C   0  0  0  0  0  3  0  0  0  0  0  0
  -26.3420  -31.8090   25.3400 C   0  0  1  0  0  0  0  0  0  0  0  0
  -25.1880  -31.5940   26.3490 C   0  0  0  0  0  1  0  0  0  0  0  0
  -26.9630  -30.4270   25.0360 C   0  0  0  0  0  1  0  0  0  0  0  0
  -27.4390  -32.6420   26.0430 C   0  0  0  0  0  1  0  0  0  0  0  0
  -25.5570  -33.9330   24.2660 N   0  0  0  0  0  0  0  0  0  0  0  0
  -25.9180  -34.9620   23.4870 C   0  0  0  0  0  0  0  0  0  0  0  0
  -26.6390  -34.8270   22.4950 O   0  0  0  0  0  0  0  0  0  0  0  0
  -24.9240  -34.1080   25.0320 H   0  0  0  0  0  0  0  0  0  0  0  0
  -24.1880  -36.7200   22.9930 C   0  0  0  0  0  1  0  0  0  0  0  0
  -25.3980  -36.3620   23.8700 C   0  0  0  0  0  3  0  0  0  0  0  0
  -27.4890  -37.2990   24.7510 C   0  0  0  0  0  1  0  0  0  0  0  0
  -26.4250  -37.4210   23.7590 N   0  0  0  0  0  0  0  0  0  0  0  0
  -26.0030  -38.3410   23.8560 H   0  0  0  0  0  0  0  0  0  0  0  0
  1 14  1  0
  1 48  1  0
  2  1  1  0
  3 18  1  0
  4  9  1  0
  5  6  1  0
  5  4  1  0
  7  6  1  0
  7 23  1  0
  7  8  1  0
  9  3  1  0
  9  8  1  0
 10  3  2  0
 11 12  1  0
 11 14  2  0
 12 18  1  0
 12 13  2  0
 13 15  1  0
 13 19  1  0
 14 19  1  0
 15 16  1  6
 15 17  1  0
 18 15  1  0
 20 21  2  0
 21 40  1  0
 22 25  1  0
 22 21  1  0
 23 24  1  0
 23 20  1  0
 24 22  2  0
 25 26  1  0
 26 27  2  0
 28 31  1  0
 28 27  1  0
 29 28  2  0
 30 29  1  0
 30 25  2  0
 31 32  1  0
 32 33  1  0
 33 34  2  0
 35 34  1  0
 35 39  1  0
 36 35  2  0
 37 32  2  0
 37 36  1  0
 38 37  1  0
 40 41  1  0
 41 43  1  0
 41 44  1  0
 42 40  2  0
 45 20  1  0
 45 46  1  0
 47 45  1  0
 49 48  1  0
 49 51  1  0
 50 49  2  0
 52 51  1  0
 53 64  2  0
 54 52  1  0
 54 59  1  0
 55 63  1  0
 55 65  1  0
 56 58  1  0
 57 63  1  0
 58 59  2  0
 58 57  1  0
 60 54  2  0
 61 60  1  0
 61 56  2  0
 62 56  1  0
 62 55  1  0
 63 53  1  0
 65 67  2  0
 66 65  1  0
 68 66  1  0
 69 78  2  0
 69 74  1  0
 70 66  1  0
 70 74  1  0
 71 70  1  0
 72 73  1  0
 72 71  1  0
 73 69  1  0
 74 75  2  0
 75 76  1  0
 77 76  2  0
 78 77  1  0
 79 53  1  0
 79 84  1  0
 79 80  1  0
 80 83  1  1
 80 81  1  0
 82 80  1  0
 84 87  1  0
 85 89  1  0
 85 84  1  0
 86 85  2  0
 89 88  1  0
 91 92  1  0
 91 89  1  0
 91 90  1  0
M  ISO  4   3 100  18 100  51 101  52 101
M  END
>  <TORSDO>  (31) 
F 19

>  <SCORE>  (31) 
-8.645

>  <name>  (31) 
30

>  <ligand_id>  (31) 
30

>  <original_smiles>  (31) 
[H]c1c([H])c([H])c2c(c1[H])C([H])([H])C([H])([H])C([H])([H])C2([H])N([H])C(=O)C1([H])N(C(=O)C([H])(N([H])C(=O)C([H])(N([H])C([H])([H])[H])C([H])([H])[H])C(C([H])([H])[H])(C([H])([H])[H])C([H])([H])[H])C([H])([H])c2c([H])c(OC([H])([H])C(=O)C([H])([H])N([H])c3sc4c(c3[H])N(C(=O)N3C([H])([H])C([H])([H])C([H])([H])C([H])(n5nc(-c6c([H])c([H])c(Oc7c([H])c([H])c(F)c([H])c7F)c([H])c6[H])c(C(=O)N([H])[H])c5N([H])[H])C3([H])[H])C4(C([H])([H])[H])C([H])([H])[H])c([H])c([H])c2C1([H])[H]

>  <smiles>  (31) 
[H]c1c([H])c([H])c2c(c1[H])C([H])([H])C([H])([H])C([H])([H])C2([H])N([H])C(=O)C1([H])N(C(=O)C([H])(N([H])C(=O)C([H])(N([H])C([H])([H])[H])C([H])([H])[H])C(C([H])([H])[H])(C([H])([H])[H])C([H])([H])[H])C([H])([H])c2c([H])c(OC([H])([H])C(=O)C([H])([H])N([H])c3sc4c(c3[H])N(C(=O)N3C([H])([H])C([H])([H])C([H])([H])C([H])(n5nc(-c6c([H])c([H])c(Oc7c([H])c([H])c(F)c([H])c7F)c([H])c6[H])c(C(=O)N([H])[H])c5N([H])[H])C3([H])[H])C4(C([H])([H])[H])C([H])([H])[H])c([H])c([H])c2C1([H])[H]

$$$$
31:0:0
     RDKit          3D

101110  0  0  1  0  0  0  0  0999 V2000
  -31.1360  -19.6990   19.5630 C   0  0  0  0  0  3  0  0  0  0  0  0
  -29.8500  -18.1020   20.8450 C   0  0  0  0  0  3  0  0  0  0  0  0
  -31.4930  -17.2860   19.2010 C   0  0  0  0  0  0  0  0  0  0  0  0
  -30.1060  -19.4490   20.4850 C   0  0  0  0  0  0  0  0  0  0  0  0
  -31.8300  -18.6500   18.9390 C   0  0  0  0  0  0  0  0  0  0  0  0
  -30.5480  -17.0100   20.2560 C   0  0  0  0  0  0  0  0  0  0  0  0
  -30.9430  -14.6600   21.0690 C   0  0  0  0  0  0  0  0  0  0  0  0
  -30.8090  -12.3250   20.3420 C   0  0  0  0  0  2  0  0  0  0  0  0
  -30.0550  -12.3350   19.0010 C   0  0  0  0  0  2  0  0  0  0  0  0
  -28.5270  -12.2810   19.2060 C   0  0  0  0  0  2  0  0  0  0  0  0
  -28.0110  -13.2640   20.2910 C   0  0  0  0  0  3  0  0  0  0  0  0
  -28.9130  -13.2470   21.5480 C   0  0  0  0  0  2  0  0  0  0  0  0
  -30.3030  -13.4620   21.1170 N   0  0  0  0  0  0  0  0  0  0  0  0
  -32.1710  -14.7680   21.0730 O   0  0  0  0  0  0  0  0  0  0  0  0
  -30.1560  -15.6920   20.6860 N   0  0  0  0  0  0  0  0  0  0  0  0
  -29.1650  -15.5150   20.7370 H   0  0  0  0  0  0  0  0  0  0  0  0
  -25.5680  -13.9280   20.7530 C   0  0  0  0  0  0  0  0  0  0  0  0
  -24.4450  -13.1800   20.9820 C   0  0  0  0  0  0  0  0  0  0  0  0
  -24.8720  -11.8160   20.9810 C   0  0  0  0  0  0  0  0  0  0  0  0
  -26.6080  -13.0200   20.6230 N   0  0  0  0  0  0  0  0  0  0  0  0
  -26.1880  -11.7450   20.8250 N   0  0  0  0  0  0  0  0  0  0  0  0
  -24.0970  -10.5700   21.0560 C   0  0  0  0  0  0  0  0  0  0  0  0
  -24.4240   -9.5530   21.9790 C   0  0  0  0  0  3  0  0  0  0  0  0
  -23.6530   -8.3730   22.0490 C   0  0  0  0  0  3  0  0  0  0  0  0
  -22.5410   -8.2020   21.1920 C   0  0  0  0  0  0  0  0  0  0  0  0
  -22.2330   -9.2070   20.2580 C   0  0  0  0  0  3  0  0  0  0  0  0
  -23.0060  -10.3780   20.1860 C   0  0  0  0  0  3  0  0  0  0  0  0
  -21.7500   -7.0770   21.1700 O   0  0  0  0  0  0  0  0  0  0  0  0
  -21.5640   -6.3070   22.2900 C   0  0  0  0  0  0  0  0  0  0  0  0
  -21.0300   -6.8450   23.4820 C   0  0  0  0  0  3  0  0  0  0  0  0
  -20.7880   -6.0040   24.5860 C   0  0  0  0  0  3  0  0  0  0  0  0
  -21.0710   -4.6270   24.5000 C   0  0  0  0  0  0  0  0  0  0  0  0
  -21.5990   -4.0900   23.3120 C   0  0  0  0  0  3  0  0  0  0  0  0
  -21.8410   -4.9270   22.2100 C   0  0  0  0  0  0  0  0  0  0  0  0
  -22.3300   -4.4010   21.0610 F   0  0  0  0  0  0  0  0  0  0  0  0
  -20.8290   -3.8170   25.5570 F   0  0  0  0  0  0  0  0  0  0  0  0
  -23.0370  -13.6890   21.0950 C   0  0  0  0  0  0  0  0  0  0  0  0
  -22.2000  -13.0120   21.8730 N   0  0  0  0  0  0  0  0  0  0  0  0
  -22.6820  -14.7220   20.5280 O   0  0  0  0  0  0  0  0  0  0  0  0
  -22.4920  -12.1710   22.3490 H   0  0  0  0  0  0  0  0  0  0  0  0
  -21.2500  -13.3380   21.9890 H   0  0  0  0  0  0  0  0  0  0  0  0
  -25.7920  -15.2960   20.6190 N   0  0  0  0  0  0  0  0  0  0  0  0
  -25.0410  -15.9780   20.6530 H   0  0  0  0  0  0  0  0  0  0  0  0
  -26.6800  -15.7080   20.3710 H   0  0  0  0  0  0  0  0  0  0  0  0
  -32.0820  -14.1680   16.9910 C   0  0  0  0  0  2  0  0  0  0  0  0
  -33.5190  -14.4470   17.4860 C   0  0  0  0  0  2  0  0  0  0  0  0
  -31.1450  -15.0960   17.7880 C   0  0  0  0  0  2  0  0  0  0  0  0
  -33.4160  -15.5650   18.5350 C   0  0  0  0  0  2  0  0  0  0  0  0
  -32.0710  -16.2240   18.2300 C   0  0  0  0  0  3  0  0  0  0  0  0
  -32.8310  -19.0290   18.0330 N   0  0  0  0  0  0  0  0  0  0  0  0
  -32.9280  -19.9940   17.7330 H   0  0  0  0  0  0  0  0  0  0  0  0
  -33.2590  -18.3550   17.4080 H   0  0  0  0  0  0  0  0  0  0  0  0
  -29.3250  -20.5040   21.0000 N   0  0  0  0  0  0  0  0  0  0  0  0
  -28.3700  -20.2680   21.2560 H   0  0  0  0  0  0  0  0  0  0  0  0
  -31.3630  -22.2430   21.1500 O   0  0  0  0  0  0  0  0  0  0  0  0
  -29.8530  -22.2030   21.4130 S   0  0  0  0  0  0  0  0  0  0  0  0
  -28.9880  -23.1430   20.0490 C   0  0  0  0  0  2  0  0  0  0  0  0
  -29.0070  -24.6820   20.2160 C   0  0  0  0  0  0  0  0  0  0  0  0
  -29.7940  -25.2600   20.9770 O   0  0  0  0  0  0  0  0  0  0  0  0
  -27.9720  -25.4690   19.3870 C   0  0  0  0  0  2  0  0  0  0  0  0
  -28.1120  -26.9020   19.5220 O   0  0  0  0  0  0  0  0  0  0  0  0
  -24.4800  -31.8440   23.1400 C   0  0  0  0  0  0  0  0  0  0  0  0
  -26.9400  -27.6360   19.5970 C   0  0  0  0  0  0  0  0  0  0  0  0
  -23.1780  -30.5570   21.4780 C   0  0  0  0  0  3  0  0  0  0  0  0
  -24.5440  -29.1370   19.8560 C   0  0  0  0  0  0  0  0  0  0  0  0
  -25.6870  -30.9420   21.1510 C   0  0  0  0  0  2  0  0  0  0  0  0
  -25.7350  -29.6190   20.4110 C   0  0  0  0  0  0  0  0  0  0  0  0
  -26.9340  -28.8780   20.2770 C   0  0  0  0  0  3  0  0  0  0  0  0
  -25.7280  -27.1800   19.0240 C   0  0  0  0  0  3  0  0  0  0  0  0
  -24.5370  -27.9180   19.1570 C   0  0  0  0  0  3  0  0  0  0  0  0
  -23.3020  -29.9800   20.0420 C   0  0  0  0  0  2  0  0  0  0  0  0
  -24.4700  -31.1250   21.9800 N   0  0  0  0  0  0  0  0  0  0  0  0
  -23.4330  -32.0700   23.7630 O   0  0  0  0  0  0  0  0  0  0  0  0
  -22.5890  -29.4650   22.3990 C   0  0  0  0  0  0  0  0  0  0  0  0
  -21.2670  -29.2480   22.3030 N   0  0  0  0  0  0  0  0  0  0  0  0
  -23.3170  -28.8180   23.1570 O   0  0  0  0  0  0  0  0  0  0  0  0
  -20.7390  -29.8240   21.6630 H   0  0  0  0  0  0  0  0  0  0  0  0
  -17.9640  -27.8590   22.7680 C   0  0  0  0  0  0  0  0  0  0  0  0
  -20.5050  -28.2440   23.0440 C   0  0  0  0  0  3  0  0  0  0  0  0
  -20.6820  -26.8390   22.4220 C   0  0  0  0  0  2  0  0  0  0  0  0
  -19.5960  -26.4910   21.4000 C   0  0  0  0  0  2  0  0  0  0  0  0
  -18.2090  -26.5430   22.0510 C   0  0  0  0  0  2  0  0  0  0  0  0
  -19.0420  -28.6660   23.2200 C   0  0  0  0  0  0  0  0  0  0  0  0
  -18.7580  -29.8980   23.8500 C   0  0  0  0  0  3  0  0  0  0  0  0
  -17.4290  -30.3240   24.0320 C   0  0  0  0  0  3  0  0  0  0  0  0
  -16.3660  -29.5140   23.5960 C   0  0  0  0  0  3  0  0  0  0  0  0
  -16.6340  -28.2840   22.9690 C   0  0  0  0  0  3  0  0  0  0  0  0
  -25.8000  -32.4380   23.7240 C   0  0  0  0  0  3  0  0  0  0  0  0
  -25.5320  -33.8350   24.0910 N   0  0  0  0  0  0  0  0  0  0  0  0
  -25.9030  -34.8970   23.3640 C   0  0  0  0  0  0  0  0  0  0  0  0
  -26.5760  -34.8010   22.3340 O   0  0  0  0  0  0  0  0  0  0  0  0
  -24.9380  -33.9850   24.8930 H   0  0  0  0  0  0  0  0  0  0  0  0
  -24.2420  -36.7570   23.0370 C   0  0  0  0  0  1  0  0  0  0  0  0
  -25.4540  -36.2860   23.8560 C   0  0  0  0  0  3  0  0  0  0  0  0
  -27.6030  -37.0700   24.7470 C   0  0  0  0  0  1  0  0  0  0  0  0
  -26.5230  -37.3060   23.7930 N   0  0  0  0  0  0  0  0  0  0  0  0
  -26.1460  -38.2350   23.9640 H   0  0  0  0  0  0  0  0  0  0  0  0
  -26.3490  -31.6300   24.9630 C   0  0  1  0  0  0  0  0  0  0  0  0
  -25.2980  -31.4010   26.0730 C   0  0  0  0  0  1  0  0  0  0  0  0
  -26.8770  -30.2460   24.5200 C   0  0  0  0  0  1  0  0  0  0  0  0
  -27.5470  -32.3830   25.5900 C   0  0  0  0  0  1  0  0  0  0  0  0
  1  4  1  0
  3  6  2  0
  4  2  2  0
  4 53  1  0
  5  3  1  0
  5  1  2  0
  6 15  1  0
  6  2  1  0
  7 14  2  0
  7 13  1  0
  8 13  1  0
  9 10  1  0
  9  8  1  0
 11 10  1  0
 11 20  1  0
 11 12  1  0
 13 12  1  0
 15 16  1  0
 15  7  1  0
 17 18  2  0
 18 37  1  0
 19 18  1  0
 19 22  1  0
 20 17  1  0
 20 21  1  0
 21 19  2  0
 22 23  1  0
 23 24  2  0
 25 24  1  0
 26 25  2  0
 27 26  1  0
 27 22  2  0
 28 25  1  0
 28 29  1  0
 29 30  1  0
 30 31  2  0
 32 31  1  0
 32 36  1  0
 33 32  2  0
 34 29  2  0
 34 33  1  0
 35 34  1  0
 37 38  1  0
 38 41  1  0
 38 40  1  0
 39 37  2  0
 42 43  1  0
 42 17  1  0
 44 42  1  0
 45 46  1  0
 45 47  1  0
 46 48  1  0
 47 49  1  0
 49 48  1  0
 49  3  1  0
 50  5  1  0
 51 50  1  0
 52 50  1  0
 53 54  1  0
 53 56  1  0
 56 55  2  0
 57 58  1  0
 57 56  1  0
 58 59  2  0
 60 61  1  0
 60 58  1  0
 61 63  1  0
 62 73  2  0
 63 68  1  0
 64 72  1  0
 64 74  1  0
 65 71  1  0
 65 67  1  0
 66 72  1  0
 67 66  1  0
 68 67  2  0
 69 70  1  0
 69 63  2  0
 70 65  2  0
 71 64  1  0
 72 62  1  0
 74 76  2  0
 75 74  1  0
 77 75  1  0
 78 87  2  0
 78 83  1  0
 79 75  1  0
 79 83  1  0
 80 79  1  0
 81 82  1  0
 81 80  1  0
 82 78  1  0
 83 84  2  0
 84 85  1  0
 86 85  2  0
 87 86  1  0
 88 62  1  0
 88 89  1  0
 88 98  1  0
 89 92  1  0
 90 94  1  0
 90 89  1  0
 91 90  2  0
 94 93  1  0
 96 94  1  0
 96 97  1  0
 96 95  1  0
 98101  1  1
 98 99  1  0
100 98  1  0
M  ISO  4   7 100  15 100  60 101  61 101
M  END
>  <TORSDO>  (32) 
F 23

>  <SCORE>  (32) 
-12.252

>  <name>  (32) 
31

>  <ligand_id>  (32) 
31

>  <original_smiles>  (32) 
[H]c1c([H])c([H])c2c(c1[H])C([H])([H])C([H])([H])C([H])([H])C2([H])N([H])C(=O)C1([H])N(C(=O)C([H])(N([H])C(=O)C([H])(N([H])C([H])([H])[H])C([H])([H])[H])C(C([H])([H])[H])(C([H])([H])[H])C([H])([H])[H])C([H])([H])c2c([H])c(OC([H])([H])C(=O)C([H])([H])S(=O)N([H])c3c([H])c(N([H])[H])c(C4([H])C([H])([H])C([H])([H])C([H])([H])C4([H])[H])c(N([H])C(=O)N4C([H])([H])C([H])([H])C([H])([H])C([H])(n5nc(-c6c([H])c([H])c(Oc7c([H])c([H])c(F)c([H])c7F)c([H])c6[H])c(C(=O)N([H])[H])c5N([H])[H])C4([H])[H])c3[H])c([H])c([H])c2C1([H])[H]

>  <smiles>  (32) 
[H]c1c([H])c([H])c2c(c1[H])C([H])([H])C([H])([H])C([H])([H])C2([H])N([H])C(=O)C1([H])N(C(=O)C([H])(N([H])C(=O)C([H])(N([H])C([H])([H])[H])C([H])([H])[H])C(C([H])([H])[H])(C([H])([H])[H])C([H])([H])[H])C([H])([H])c2c([H])c(OC([H])([H])C(=O)C([H])([H])S(=O)N([H])c3c([H])c(N([H])[H])c(C4([H])C([H])([H])C([H])([H])C([H])([H])C4([H])[H])c(N([H])C(=O)N4C([H])([H])C([H])([H])C([H])([H])C([H])(n5nc(-c6c([H])c([H])c(Oc7c([H])c([H])c(F)c([H])c7F)c([H])c6[H])c(C(=O)N([H])[H])c5N([H])[H])C4([H])[H])c3[H])c([H])c([H])c2C1([H])[H]

$$$$
32:0:0
     RDKit          3D

 90 99  0  0  1  0  0  0  0  0999 V2000
  -28.2960  -23.8380   20.7660 C   0  0  0  0  0  0  0  0  0  0  0  0
  -27.9900  -25.2080   20.7740 C   0  0  0  0  0  2  0  0  0  0  0  0
  -27.5230  -22.9760   21.7490 C   0  0  0  0  0  3  0  0  0  0  0  0
  -29.2130  -22.7930   20.0070 C   0  0  0  0  0  3  0  0  0  0  0  0
  -28.0210  -21.5240   21.6810 C   0  0  0  0  0  3  0  0  0  0  0  0
  -28.9550  -21.4030   20.5720 N   0  0  0  0  0  0  0  0  0  0  0  0
  -30.5690  -19.6750   19.4530 C   0  0  0  0  0  3  0  0  0  0  0  0
  -30.8530  -18.2370   19.4350 C   0  0  0  0  0  3  0  0  0  0  0  0
  -29.5270  -20.0840   20.2630 C   0  0  0  0  0  0  0  0  0  0  0  0
  -30.0400  -17.4280   20.2160 C   0  0  0  0  0  0  0  0  0  0  0  0
  -28.9010  -18.5680   21.0040 S   0  0  0  0  0  0  0  0  0  0  0  0
  -30.7570  -14.9480   19.9930 C   0  0  0  0  0  0  0  0  0  0  0  0
  -30.5590  -12.6650   18.9720 C   0  0  0  0  0  2  0  0  0  0  0  0
  -29.5510  -12.7360   17.8020 C   0  0  0  0  0  2  0  0  0  0  0  0
  -28.1090  -12.5350   18.3080 C   0  0  0  0  0  2  0  0  0  0  0  0
  -27.7920  -13.4010   19.5550 C   0  0  0  0  0  3  0  0  0  0  0  0
  -28.9120  -13.3070   20.6160 C   0  0  0  0  0  2  0  0  0  0  0  0
  -30.1720  -13.6970   19.9650 N   0  0  0  0  0  0  0  0  0  0  0  0
  -31.8990  -15.0960   19.5420 O   0  0  0  0  0  0  0  0  0  0  0  0
  -29.9750  -16.0260   20.3980 N   0  0  0  0  0  0  0  0  0  0  0  0
  -29.1290  -15.7180   20.8530 H   0  0  0  0  0  0  0  0  0  0  0  0
  -25.4490  -13.9600   20.4400 C   0  0  0  0  0  0  0  0  0  0  0  0
  -24.4080  -13.1720   20.8460 C   0  0  0  0  0  0  0  0  0  0  0  0
  -24.8690  -11.8240   20.7420 C   0  0  0  0  0  0  0  0  0  0  0  0
  -26.4790  -13.0930   20.1130 N   0  0  0  0  0  0  0  0  0  0  0  0
  -26.1390  -11.8010   20.3560 N   0  0  0  0  0  0  0  0  0  0  0  0
  -24.1550  -10.5550   20.9320 C   0  0  0  0  0  0  0  0  0  0  0  0
  -24.5810   -9.6020   21.8840 C   0  0  0  0  0  3  0  0  0  0  0  0
  -23.8660   -8.3980   22.0620 C   0  0  0  0  0  3  0  0  0  0  0  0
  -22.7110   -8.1360   21.2870 C   0  0  0  0  0  0  0  0  0  0  0  0
  -22.3050   -9.0770   20.3250 C   0  0  0  0  0  3  0  0  0  0  0  0
  -23.0210  -10.2730   20.1450 C   0  0  0  0  0  3  0  0  0  0  0  0
  -21.9700   -6.9830   21.3730 O   0  0  0  0  0  0  0  0  0  0  0  0
  -21.8230   -6.3080   22.5580 C   0  0  0  0  0  0  0  0  0  0  0  0
  -21.2580   -6.9200   23.6980 C   0  0  0  0  0  3  0  0  0  0  0  0
  -21.0600   -6.1700   24.8740 C   0  0  0  0  0  3  0  0  0  0  0  0
  -21.4190   -4.8080   24.9110 C   0  0  0  0  0  0  0  0  0  0  0  0
  -21.9760   -4.1960   23.7750 C   0  0  0  0  0  3  0  0  0  0  0  0
  -22.1750   -4.9440   22.6010 C   0  0  0  0  0  0  0  0  0  0  0  0
  -22.6930   -4.3440   21.5020 F   0  0  0  0  0  0  0  0  0  0  0  0
  -21.2220   -4.0860   26.0380 F   0  0  0  0  0  0  0  0  0  0  0  0
  -23.0290  -13.6370   21.2160 C   0  0  0  0  0  0  0  0  0  0  0  0
  -22.3520  -12.9080   22.0970 N   0  0  0  0  0  0  0  0  0  0  0  0
  -22.5630  -14.6800   20.7620 O   0  0  0  0  0  0  0  0  0  0  0  0
  -22.7440  -12.0630   22.4870 H   0  0  0  0  0  0  0  0  0  0  0  0
  -21.4300  -13.2000   22.3870 H   0  0  0  0  0  0  0  0  0  0  0  0
  -25.6010  -15.3370   20.2990 N   0  0  0  0  0  0  0  0  0  0  0  0
  -24.8370  -15.9810   20.4670 H   0  0  0  0  0  0  0  0  0  0  0  0
  -26.4190  -15.7890   19.9080 H   0  0  0  0  0  0  0  0  0  0  0  0
  -28.3410  -26.4160   20.0960 O   0  0  0  0  0  0  0  0  0  0  0  0
  -24.6650  -31.9250   23.1560 C   0  0  0  0  0  0  0  0  0  0  0  0
  -27.3020  -27.3820   20.0380 C   0  0  0  0  0  0  0  0  0  0  0  0
  -23.4690  -30.5320   21.5080 C   0  0  0  0  0  3  0  0  0  0  0  0
  -24.9330  -29.0140   20.0500 C   0  0  0  0  0  0  0  0  0  0  0  0
  -26.0090  -30.8670   21.3190 C   0  0  0  0  0  2  0  0  0  0  0  0
  -26.1040  -29.4940   20.6520 C   0  0  0  0  0  0  0  0  0  0  0  0
  -27.2940  -28.6890   20.6400 C   0  0  0  0  0  3  0  0  0  0  0  0
  -26.1110  -26.9810   19.3970 C   0  0  0  0  0  3  0  0  0  0  0  0
  -24.9410  -27.7660   19.4090 C   0  0  0  0  0  3  0  0  0  0  0  0
  -23.6860  -29.8770   20.1180 C   0  0  0  0  0  2  0  0  0  0  0  0
  -24.7350  -31.1260   22.0510 N   0  0  0  0  0  0  0  0  0  0  0  0
  -23.5800  -32.1850   23.6990 O   0  0  0  0  0  0  0  0  0  0  0  0
  -22.8190  -29.5000   22.4610 C   0  0  0  0  0  0  0  0  0  0  0  0
  -21.4910  -29.3220   22.3520 N   0  0  0  0  0  0  0  0  0  0  0  0
  -23.5100  -28.8640   23.2610 O   0  0  0  0  0  0  0  0  0  0  0  0
  -20.9910  -29.8870   21.6810 H   0  0  0  0  0  0  0  0  0  0  0  0
  -18.1250  -28.1000   22.8830 C   0  0  0  0  0  0  0  0  0  0  0  0
  -20.6870  -28.3690   23.1190 C   0  0  0  0  0  3  0  0  0  0  0  0
  -20.7870  -26.9460   22.5210 C   0  0  0  0  0  2  0  0  0  0  0  0
  -19.6720  -26.6330   21.5180 C   0  0  0  0  0  2  0  0  0  0  0  0
  -18.2980  -26.7620   22.1830 C   0  0  0  0  0  2  0  0  0  0  0  0
  -19.2460  -28.8610   23.3080 C   0  0  0  0  0  0  0  0  0  0  0  0
  -19.0290  -30.1130   23.9240 C   0  0  0  0  0  3  0  0  0  0  0  0
  -17.7240  -30.6030   24.1170 C   0  0  0  0  0  3  0  0  0  0  0  0
  -16.6180  -29.8400   23.7080 C   0  0  0  0  0  3  0  0  0  0  0  0
  -16.8200  -28.5890   23.0950 C   0  0  0  0  0  3  0  0  0  0  0  0
  -25.9420  -32.5680   23.7790 C   0  0  0  0  0  3  0  0  0  0  0  0
  -25.6150  -33.9570   24.1330 N   0  0  0  0  0  0  0  0  0  0  0  0
  -25.9290  -35.0280   23.3930 C   0  0  0  0  0  0  0  0  0  0  0  0
  -26.5930  -34.9510   22.3550 O   0  0  0  0  0  0  0  0  0  0  0  0
  -25.0260  -34.0900   24.9430 H   0  0  0  0  0  0  0  0  0  0  0  0
  -24.1820  -36.8110   23.0760 C   0  0  0  0  0  1  0  0  0  0  0  0
  -25.4290  -36.4030   23.8780 C   0  0  0  0  0  3  0  0  0  0  0  0
  -27.5530  -37.2970   24.7270 C   0  0  0  0  0  1  0  0  0  0  0  0
  -26.4500  -37.4680   23.7830 N   0  0  0  0  0  0  0  0  0  0  0  0
  -26.0350  -38.3820   23.9450 H   0  0  0  0  0  0  0  0  0  0  0  0
  -26.4770  -31.7870   25.0420 C   0  0  1  0  0  0  0  0  0  0  0  0
  -25.3950  -31.5200   26.1130 C   0  0  0  0  0  1  0  0  0  0  0  0
  -27.0770  -30.4230   24.6290 C   0  0  0  0  0  1  0  0  0  0  0  0
  -27.6210  -32.5890   25.7080 C   0  0  0  0  0  1  0  0  0  0  0  0
  1  2  1  0
  1  3  1  0
  4  6  1  0
  4  1  2  0
  5  3  2  0
  6  5  1  0
  7  9  2  0
  8  7  1  0
  8 10  2  0
  9  6  1  0
  9 11  1  0
 10 20  1  0
 10 11  1  0
 12 20  1  0
 13 18  1  0
 14 15  1  0
 14 13  1  0
 16 15  1  0
 16 25  1  0
 16 17  1  0
 18 12  1  0
 18 17  1  0
 19 12  2  0
 20 21  1  0
 22 23  2  0
 23 42  1  0
 24 23  1  0
 24 27  1  0
 25 26  1  0
 25 22  1  0
 26 24  2  0
 27 28  1  0
 28 29  2  0
 30 33  1  0
 30 29  1  0
 31 30  2  0
 32 31  1  0
 32 27  2  0
 33 34  1  0
 34 39  2  0
 34 35  1  0
 35 36  2  0
 36 37  1  0
 37 41  1  0
 38 37  2  0
 39 38  1  0
 40 39  1  0
 42 43  1  0
 43 46  1  0
 43 45  1  0
 44 42  2  0
 47 22  1  0
 47 48  1  0
 49 47  1  0
 50  2  1  0
 51 62  2  0
 52 50  1  0
 52 57  1  0
 53 61  1  0
 53 63  1  0
 54 60  1  0
 54 56  1  0
 55 61  1  0
 56 55  1  0
 57 56  2  0
 58 59  1  0
 58 52  2  0
 59 54  2  0
 60 53  1  0
 61 51  1  0
 63 65  2  0
 64 63  1  0
 66 64  1  0
 67 76  2  0
 67 72  1  0
 68 64  1  0
 68 72  1  0
 69 68  1  0
 70 71  1  0
 70 69  1  0
 71 67  1  0
 72 73  2  0
 73 74  1  0
 75 74  2  0
 76 75  1  0
 77 51  1  0
 77 78  1  0
 77 87  1  0
 78 81  1  0
 79 83  1  0
 79 78  1  0
 80 79  2  0
 83 82  1  0
 85 83  1  0
 85 86  1  0
 85 84  1  0
 87 90  1  1
 87 88  1  0
 89 87  1  0
M  ISO  4   2 101  12 100  20 100  50 101
M  END
>  <TORSDO>  (33) 
F 17

>  <SCORE>  (33) 
-14.146

>  <name>  (33) 
32

>  <ligand_id>  (33) 
32

>  <original_smiles>  (33) 
[H]C(Oc1c([H])c([H])c2c(c1[H])C([H])([H])N(C(=O)C([H])(N([H])C(=O)C([H])(N([H])C([H])([H])[H])C([H])([H])[H])C(C([H])([H])[H])(C([H])([H])[H])C([H])([H])[H])C([H])(C(=O)N([H])C1([H])c3c([H])c([H])c([H])c([H])c3C([H])([H])C([H])([H])C1([H])[H])C2([H])[H])=C1C([H])([H])N(c2sc(N([H])C(=O)N3C([H])([H])C([H])([H])C([H])([H])C([H])(n4nc(-c5c([H])c([H])c(Oc6c([H])c([H])c(F)c([H])c6F)c([H])c5[H])c(C(=O)N([H])[H])c4N([H])[H])C3([H])[H])c([H])c2[H])C([H])([H])C1([H])[H]

>  <smiles>  (33) 
[H]C(Oc1c([H])c([H])c2c(c1[H])C([H])([H])N(C(=O)C([H])(N([H])C(=O)C([H])(N([H])C([H])([H])[H])C([H])([H])[H])C(C([H])([H])[H])(C([H])([H])[H])C([H])([H])[H])C([H])(C(=O)N([H])C1([H])c3c([H])c([H])c([H])c([H])c3C([H])([H])C([H])([H])C1([H])[H])C2([H])[H])=C1C([H])([H])N(c2sc(N([H])C(=O)N3C([H])([H])C([H])([H])C([H])([H])C([H])(n4nc(-c5c([H])c([H])c(Oc6c([H])c([H])c(F)c([H])c6F)c([H])c5[H])c(C(=O)N([H])[H])c4N([H])[H])C3([H])[H])c([H])c2[H])C([H])([H])C1([H])[H]

$$$$
33:0:0
     RDKit          3D

 95104  0  0  1  0  0  0  0  0999 V2000
  -28.3530  -23.8460   19.8470 C   0  0  0  0  0  0  0  0  0  0  0  0
  -29.1930  -22.7190   20.0200 C   0  0  0  0  0  0  0  0  0  0  0  0
  -26.6980  -21.4110   18.8390 C   0  0  0  0  0  0  0  0  0  0  0  0
  -26.8500  -23.8340   19.4330 C   0  0  0  0  0  2  0  0  0  0  0  0
  -25.9930  -22.5710   19.4820 C   0  0  0  0  0  2  0  0  0  0  0  0
  -27.5980  -20.6700   19.7920 C   0  0  0  0  0  2  0  0  0  0  0  0
  -30.6730  -23.0460   20.2200 C   0  0  0  0  0  1  0  0  0  0  0  0
  -28.9430  -21.2560   19.9380 N   0  0  0  0  0  0  0  0  0  0  0  0
  -26.5790  -21.1170   17.6450 O   0  0  0  0  0  0  0  0  0  0  0  0
  -31.8680  -19.3440   21.4600 C   0  0  0  0  0  3  0  0  0  0  0  0
  -30.9670  -20.3620   21.0800 C   0  0  0  0  0  3  0  0  0  0  0  0
  -31.6160  -17.9940   21.1650 C   0  0  0  0  0  3  0  0  0  0  0  0
  -29.5680  -18.6860   20.0630 C   0  0  0  0  0  3  0  0  0  0  0  0
  -29.8100  -20.1170   20.3090 C   0  0  0  0  0  0  0  0  0  0  0  0
  -30.4290  -17.5990   20.5110 C   0  0  0  0  0  0  0  0  0  0  0  0
  -30.8840  -15.0300   20.1930 C   0  0  0  0  0  0  0  0  0  0  0  0
  -30.6660  -12.7520   19.1960 C   0  0  0  0  0  2  0  0  0  0  0  0
  -29.6960  -12.7900   17.9920 C   0  0  0  0  0  2  0  0  0  0  0  0
  -28.2360  -12.6260   18.4580 C   0  0  0  0  0  2  0  0  0  0  0  0
  -27.8880  -13.5450   19.6610 C   0  0  0  0  0  3  0  0  0  0  0  0
  -28.9670  -13.4610   20.7620 C   0  0  0  0  0  2  0  0  0  0  0  0
  -30.2500  -13.8110   20.1420 N   0  0  0  0  0  0  0  0  0  0  0  0
  -32.0630  -15.1210   19.8410 O   0  0  0  0  0  0  0  0  0  0  0  0
  -30.0920  -16.1550   20.4030 N   0  0  0  0  0  0  0  0  0  0  0  0
  -29.1170  -15.9370   20.5410 H   0  0  0  0  0  0  0  0  0  0  0  0
  -25.5450  -14.1720   20.4980 C   0  0  0  0  0  0  0  0  0  0  0  0
  -24.4670  -13.4100   20.8580 C   0  0  0  0  0  0  0  0  0  0  0  0
  -24.8880  -12.0490   20.7430 C   0  0  0  0  0  0  0  0  0  0  0  0
  -26.5520  -13.2750   20.1800 N   0  0  0  0  0  0  0  0  0  0  0  0
  -26.1660  -11.9910   20.3930 N   0  0  0  0  0  0  0  0  0  0  0  0
  -24.1310  -10.8000   20.8870 C   0  0  0  0  0  0  0  0  0  0  0  0
  -24.5270   -9.7940   21.7950 C   0  0  0  0  0  3  0  0  0  0  0  0
  -23.7680   -8.6120   21.9320 C   0  0  0  0  0  3  0  0  0  0  0  0
  -22.6010   -8.4260   21.1540 C   0  0  0  0  0  0  0  0  0  0  0  0
  -22.2240   -9.4180   20.2310 C   0  0  0  0  0  3  0  0  0  0  0  0
  -22.9840  -10.5920   20.0940 C   0  0  0  0  0  3  0  0  0  0  0  0
  -21.8180   -7.2990   21.1980 O   0  0  0  0  0  0  0  0  0  0  0  0
  -21.6960   -6.5490   22.3410 C   0  0  0  0  0  0  0  0  0  0  0  0
  -21.1950   -7.0970   23.5410 C   0  0  0  0  0  3  0  0  0  0  0  0
  -21.0260   -6.2740   24.6730 C   0  0  0  0  0  3  0  0  0  0  0  0
  -21.3440   -4.9050   24.6020 C   0  0  0  0  0  0  0  0  0  0  0  0
  -21.8400   -4.3570   23.4060 C   0  0  0  0  0  3  0  0  0  0  0  0
  -22.0100   -5.1760   22.2770 C   0  0  0  0  0  0  0  0  0  0  0  0
  -22.4670   -4.6400   21.1190 F   0  0  0  0  0  0  0  0  0  0  0  0
  -21.1720   -4.1120   25.6860 F   0  0  0  0  0  0  0  0  0  0  0  0
  -23.0920  -13.9120   21.1940 C   0  0  0  0  0  0  0  0  0  0  0  0
  -22.3760  -13.2040   22.0620 N   0  0  0  0  0  0  0  0  0  0  0  0
  -22.6630  -14.9650   20.7240 O   0  0  0  0  0  0  0  0  0  0  0  0
  -22.7420  -12.3540   22.4660 H   0  0  0  0  0  0  0  0  0  0  0  0
  -21.4500  -13.5110   22.3220 H   0  0  0  0  0  0  0  0  0  0  0  0
  -25.7380  -15.5460   20.3860 N   0  0  0  0  0  0  0  0  0  0  0  0
  -24.9790  -16.1990   20.5540 H   0  0  0  0  0  0  0  0  0  0  0  0
  -26.5690  -15.9910   20.0220 H   0  0  0  0  0  0  0  0  0  0  0  0
  -28.8940  -25.3730   19.7570 C   0  0  0  0  0  2  0  0  0  0  0  0
  -28.6390  -26.6920   20.4640 O   0  0  0  0  0  0  0  0  0  0  0  0
  -24.5780  -31.9780   23.3000 C   0  0  0  0  0  0  0  0  0  0  0  0
  -27.4850  -27.5090   20.3280 C   0  0  0  0  0  0  0  0  0  0  0  0
  -23.4970  -30.5470   21.6000 C   0  0  0  0  0  3  0  0  0  0  0  0
  -25.0690  -29.0610   20.2340 C   0  0  0  0  0  0  0  0  0  0  0  0
  -26.0360  -30.9500   21.5390 C   0  0  0  0  0  2  0  0  0  0  0  0
  -26.1940  -29.5810   20.8810 C   0  0  0  0  0  0  0  0  0  0  0  0
  -27.4040  -28.8170   20.9190 C   0  0  0  0  0  3  0  0  0  0  0  0
  -26.3330  -27.0590   19.6480 C   0  0  0  0  0  3  0  0  0  0  0  0
  -25.1400  -27.8050   19.6100 C   0  0  0  0  0  3  0  0  0  0  0  0
  -23.8030  -29.8890   20.2290 C   0  0  0  0  0  2  0  0  0  0  0  0
  -24.7190  -31.1810   22.2000 N   0  0  0  0  0  0  0  0  0  0  0  0
  -23.4660  -32.2110   23.7930 O   0  0  0  0  0  0  0  0  0  0  0  0
  -22.8280  -29.5040   22.5290 C   0  0  0  0  0  0  0  0  0  0  0  0
  -21.5090  -29.2940   22.3620 N   0  0  0  0  0  0  0  0  0  0  0  0
  -23.5010  -28.8890   23.3610 O   0  0  0  0  0  0  0  0  0  0  0  0
  -21.0190  -29.8550   21.6770 H   0  0  0  0  0  0  0  0  0  0  0  0
  -18.1360  -28.0670   22.8130 C   0  0  0  0  0  0  0  0  0  0  0  0
  -20.6900  -28.3280   23.0970 C   0  0  0  0  0  3  0  0  0  0  0  0
  -20.8030  -26.9130   22.4790 C   0  0  0  0  0  2  0  0  0  0  0  0
  -19.7050  -26.6190   21.4520 C   0  0  0  0  0  2  0  0  0  0  0  0
  -18.3210  -26.7440   22.0890 C   0  0  0  0  0  2  0  0  0  0  0  0
  -19.2500  -28.8190   23.2690 C   0  0  0  0  0  0  0  0  0  0  0  0
  -19.0230  -30.0590   23.9050 C   0  0  0  0  0  3  0  0  0  0  0  0
  -17.7170  -30.5500   24.0860 C   0  0  0  0  0  3  0  0  0  0  0  0
  -16.6180  -29.7950   23.6420 C   0  0  0  0  0  3  0  0  0  0  0  0
  -16.8270  -28.5540   23.0130 C   0  0  0  0  0  3  0  0  0  0  0  0
  -25.8110  -32.6540   23.9760 C   0  0  0  0  0  3  0  0  0  0  0  0
  -25.4660  -34.0580   24.2380 N   0  0  0  0  0  0  0  0  0  0  0  0
  -25.8270  -35.0930   23.4650 C   0  0  0  0  0  0  0  0  0  0  0  0
  -26.5570  -34.9670   22.4770 O   0  0  0  0  0  0  0  0  0  0  0  0
  -24.8290  -34.2290   25.0020 H   0  0  0  0  0  0  0  0  0  0  0  0
  -24.1010  -36.8500   22.9600 C   0  0  0  0  0  1  0  0  0  0  0  0
  -25.2980  -36.4860   23.8510 C   0  0  0  0  0  3  0  0  0  0  0  0
  -27.3630  -37.4360   24.7830 C   0  0  0  0  0  1  0  0  0  0  0  0
  -26.3210  -37.5490   23.7660 N   0  0  0  0  0  0  0  0  0  0  0  0
  -25.8910  -38.4640   23.8560 H   0  0  0  0  0  0  0  0  0  0  0  0
  -26.2690  -31.9340   25.3030 C   0  0  1  0  0  0  0  0  0  0  0  0
  -25.1110  -31.6790   26.2950 C   0  0  0  0  0  1  0  0  0  0  0  0
  -26.9320  -30.5710   24.9990 C   0  0  0  0  0  1  0  0  0  0  0  0
  -27.3350  -32.7910   26.0260 C   0  0  0  0  0  1  0  0  0  0  0  0
  1  2  2  0
  2  7  1  0
  3  5  1  0
  3  6  1  0
  4  5  1  0
  4  1  1  0
  6  8  1  0
  8  2  1  0
  8 14  1  0
  9  3  2  0
 11 10  2  0
 12 10  1  0
 13 14  2  0
 13 15  1  0
 14 11  1  0
 15 12  2  0
 16 24  1  0
 17 22  1  0
 18 19  1  0
 18 17  1  0
 20 19  1  0
 20 29  1  0
 20 21  1  0
 22 16  1  0
 22 21  1  0
 23 16  2  0
 24 15  1  0
 24 25  1  0
 26 27  2  0
 27 46  1  0
 28 27  1  0
 28 31  1  0
 29 30  1  0
 29 26  1  0
 30 28  2  0
 31 32  1  0
 32 33  2  0
 34 37  1  0
 34 33  1  0
 35 34  2  0
 36 35  1  0
 36 31  2  0
 37 38  1  0
 38 39  1  0
 39 40  2  0
 41 40  1  0
 41 45  1  0
 42 41  2  0
 43 38  2  0
 43 42  1  0
 44 43  1  0
 46 47  1  0
 47 50  1  0
 47 49  1  0
 48 46  2  0
 51 26  1  0
 51 52  1  0
 53 51  1  0
 54  1  1  0
 54 55  1  0
 56 67  2  0
 57 55  1  0
 57 62  1  0
 58 66  1  0
 58 68  1  0
 59 61  1  0
 60 66  1  0
 61 62  2  0
 61 60  1  0
 63 57  2  0
 64 63  1  0
 64 59  2  0
 65 59  1  0
 65 58  1  0
 66 56  1  0
 68 70  2  0
 69 68  1  0
 71 69  1  0
 72 81  2  0
 72 77  1  0
 73 69  1  0
 73 77  1  0
 74 73  1  0
 75 76  1  0
 75 74  1  0
 76 72  1  0
 77 78  2  0
 78 79  1  0
 80 79  2  0
 81 80  1  0
 82 56  1  0
 82 83  1  0
 82 92  1  0
 83 86  1  0
 84 88  1  0
 84 83  1  0
 85 84  2  0
 88 87  1  0
 90 88  1  0
 90 91  1  0
 90 89  1  0
 92 95  1  1
 92 93  1  0
 94 92  1  0
M  ISO  4  16 100  24 100  54 101  55 101
M  END
>  <TORSDO>  (34) 
F 18

>  <SCORE>  (34) 
-14.625

>  <name>  (34) 
33

>  <ligand_id>  (34) 
33

>  <original_smiles>  (34) 
[H]c1c([H])c(N([H])C(=O)N2C([H])([H])C([H])([H])C([H])([H])C([H])(n3nc(-c4c([H])c([H])c(Oc5c([H])c([H])c(F)c([H])c5F)c([H])c4[H])c(C(=O)N([H])[H])c3N([H])[H])C2([H])[H])c([H])c(N2C(C([H])([H])[H])=C(C([H])([H])Oc3c([H])c([H])c4c(c3[H])C([H])([H])N(C(=O)C([H])(N([H])C(=O)C([H])(N([H])C([H])([H])[H])C([H])([H])[H])C(C([H])([H])[H])(C([H])([H])[H])C([H])([H])[H])C([H])(C(=O)N([H])C3([H])c5c([H])c([H])c([H])c([H])c5C([H])([H])C([H])([H])C3([H])[H])C4([H])[H])C([H])([H])C([H])([H])C(=O)C2([H])[H])c1[H]

>  <smiles>  (34) 
[H]c1c([H])c(N([H])C(=O)N2C([H])([H])C([H])([H])C([H])([H])C([H])(n3nc(-c4c([H])c([H])c(Oc5c([H])c([H])c(F)c([H])c5F)c([H])c4[H])c(C(=O)N([H])[H])c3N([H])[H])C2([H])[H])c([H])c(N2C(C([H])([H])[H])=C(C([H])([H])Oc3c([H])c([H])c4c(c3[H])C([H])([H])N(C(=O)C([H])(N([H])C(=O)C([H])(N([H])C([H])([H])[H])C([H])([H])[H])C(C([H])([H])[H])(C([H])([H])[H])C([H])([H])[H])C([H])(C(=O)N([H])C3([H])c5c([H])c([H])c([H])c([H])c5C([H])([H])C([H])([H])C3([H])[H])C4([H])[H])C([H])([H])C([H])([H])C(=O)C2([H])[H])c1[H]

$$$$
34:0:0
     RDKit          3D

 91100  0  0  1  0  0  0  0  0999 V2000
  -30.6230  -14.8550   20.3960 C   0  0  0  0  0  0  0  0  0  0  0  0
  -30.4080  -12.5420   19.4360 C   0  0  0  0  0  2  0  0  0  0  0  0
  -29.4960  -12.5620   18.1900 C   0  0  0  0  0  2  0  0  0  0  0  0
  -28.0220  -12.3960   18.6030 C   0  0  0  0  0  2  0  0  0  0  0  0
  -27.6250  -13.3210   19.7860 C   0  0  0  0  0  3  0  0  0  0  0  0
  -28.6650  -13.2970   20.9250 C   0  0  0  0  0  2  0  0  0  0  0  0
  -29.9600  -13.6420   20.3290 N   0  0  0  0  0  0  0  0  0  0  0  0
  -31.8320  -14.8610   20.1390 O   0  0  0  0  0  0  0  0  0  0  0  0
  -29.4480  -18.4500   20.8800 C   0  0  0  0  0  0  0  0  0  0  0  0
  -29.7780  -18.4230   19.5930 C   0  0  0  0  0  0  0  0  0  0  0  0
  -29.1870  -20.7740   20.4270 C   0  0  0  0  0  0  0  0  0  0  0  0
  -29.5290  -17.0080   21.4410 C   0  0  0  0  0  3  0  0  0  0  0  0
  -30.1130  -17.0100   19.1360 C   0  0  0  0  0  3  0  0  0  0  0  0
  -29.1090  -19.7680   21.3670 N   0  0  0  0  0  0  0  0  0  0  0  0
  -29.9010  -16.0630   20.3030 N   0  0  0  0  0  0  0  0  0  0  0  0
  -28.8950  -22.1930   20.6600 N   0  0  0  0  0  0  0  0  0  0  0  0
  -29.7060  -20.0440   18.8560 S   0  0  0  0  0  0  0  0  0  0  0  0
  -28.6200  -22.3190   21.6270 H   0  0  0  0  0  0  0  0  0  0  0  0
  -25.2370  -13.9300   20.4760 C   0  0  0  0  0  0  0  0  0  0  0  0
  -24.1600  -13.1680   20.8380 C   0  0  0  0  0  0  0  0  0  0  0  0
  -24.6150  -11.8140   20.8350 C   0  0  0  0  0  0  0  0  0  0  0  0
  -26.2770  -13.0410   20.2660 N   0  0  0  0  0  0  0  0  0  0  0  0
  -25.9110  -11.7650   20.5480 N   0  0  0  0  0  0  0  0  0  0  0  0
  -23.8760  -10.5590   21.0300 C   0  0  0  0  0  0  0  0  0  0  0  0
  -24.2990   -9.5900   21.9670 C   0  0  0  0  0  3  0  0  0  0  0  0
  -23.5590   -8.4020   22.1500 C   0  0  0  0  0  3  0  0  0  0  0  0
  -22.3830   -8.1730   21.3960 C   0  0  0  0  0  0  0  0  0  0  0  0
  -21.9800   -9.1310   20.4480 C   0  0  0  0  0  3  0  0  0  0  0  0
  -22.7200  -10.3110   20.2630 C   0  0  0  0  0  3  0  0  0  0  0  0
  -21.6160   -7.0370   21.4900 O   0  0  0  0  0  0  0  0  0  0  0  0
  -21.5720   -6.2910   22.6400 C   0  0  0  0  0  0  0  0  0  0  0  0
  -21.1900   -6.8520   23.8780 C   0  0  0  0  0  3  0  0  0  0  0  0
  -21.0900   -6.0330   25.0200 C   0  0  0  0  0  3  0  0  0  0  0  0
  -21.3620   -4.6560   24.9260 C   0  0  0  0  0  0  0  0  0  0  0  0
  -21.7360   -4.0940   23.6930 C   0  0  0  0  0  3  0  0  0  0  0  0
  -21.8380   -4.9090   22.5530 C   0  0  0  0  0  0  0  0  0  0  0  0
  -22.1780   -4.3590   21.3620 F   0  0  0  0  0  0  0  0  0  0  0  0
  -21.2590   -3.8680   26.0220 F   0  0  0  0  0  0  0  0  0  0  0  0
  -22.7610  -13.6590   21.0750 C   0  0  0  0  0  0  0  0  0  0  0  0
  -22.0140  -12.9850   21.9410 N   0  0  0  0  0  0  0  0  0  0  0  0
  -22.3400  -14.6770   20.5270 O   0  0  0  0  0  0  0  0  0  0  0  0
  -22.3680  -12.1620   22.4070 H   0  0  0  0  0  0  0  0  0  0  0  0
  -21.0740  -13.2960   22.1430 H   0  0  0  0  0  0  0  0  0  0  0  0
  -25.4140  -15.2980   20.2820 N   0  0  0  0  0  0  0  0  0  0  0  0
  -24.6520  -15.9610   20.3760 H   0  0  0  0  0  0  0  0  0  0  0  0
  -26.2750  -15.7260   19.9680 H   0  0  0  0  0  0  0  0  0  0  0  0
  -28.8720  -23.5630   19.9560 C   0  0  0  0  0  2  0  0  0  0  0  0
  -29.3340  -25.1310   21.9330 C   0  0  0  0  0  1  0  0  0  0  0  0
  -26.9760  -24.5960   21.3550 C   0  0  0  0  0  1  0  0  0  0  0  0
  -28.3650  -24.9200   20.7590 C   0  0  2  0  0  0  0  0  0  0  0  0
  -28.4110  -26.3170   20.1160 O   0  0  0  0  0  0  0  0  0  0  0  0
  -24.7150  -31.8630   23.1740 C   0  0  0  0  0  0  0  0  0  0  0  0
  -27.3230  -27.2400   20.1210 C   0  0  0  0  0  0  0  0  0  0  0  0
  -23.5170  -30.4600   21.5370 C   0  0  0  0  0  3  0  0  0  0  0  0
  -24.9720  -28.9130   20.0990 C   0  0  0  0  0  0  0  0  0  0  0  0
  -26.0610  -30.7690   21.3550 C   0  0  0  0  0  2  0  0  0  0  0  0
  -26.1450  -29.3830   20.7060 C   0  0  0  0  0  0  0  0  0  0  0  0
  -27.3240  -28.5600   20.7050 C   0  0  0  0  0  3  0  0  0  0  0  0
  -26.1390  -26.8670   19.4530 C   0  0  0  0  0  3  0  0  0  0  0  0
  -24.9770  -27.6640   19.4580 C   0  0  0  0  0  3  0  0  0  0  0  0
  -23.7350  -29.7900   20.1540 C   0  0  0  0  0  2  0  0  0  0  0  0
  -24.7840  -31.0510   22.0760 N   0  0  0  0  0  0  0  0  0  0  0  0
  -23.6310  -32.1340   23.7110 O   0  0  0  0  0  0  0  0  0  0  0  0
  -22.8600  -29.4400   22.4980 C   0  0  0  0  0  0  0  0  0  0  0  0
  -21.5320  -29.2640   22.3860 N   0  0  0  0  0  0  0  0  0  0  0  0
  -23.5460  -28.8090   23.3070 O   0  0  0  0  0  0  0  0  0  0  0  0
  -21.0360  -29.8250   21.7070 H   0  0  0  0  0  0  0  0  0  0  0  0
  -18.1600  -28.0600   22.9230 C   0  0  0  0  0  0  0  0  0  0  0  0
  -20.7220  -28.3210   23.1600 C   0  0  0  0  0  3  0  0  0  0  0  0
  -20.8160  -26.8940   22.5740 C   0  0  0  0  0  2  0  0  0  0  0  0
  -19.7020  -26.5780   21.5710 C   0  0  0  0  0  2  0  0  0  0  0  0
  -18.3290  -26.7170   22.2350 C   0  0  0  0  0  2  0  0  0  0  0  0
  -19.2830  -28.8210   23.3440 C   0  0  0  0  0  0  0  0  0  0  0  0
  -19.0700  -30.0780   23.9490 C   0  0  0  0  0  3  0  0  0  0  0  0
  -17.7670  -30.5750   24.1380 C   0  0  0  0  0  3  0  0  0  0  0  0
  -16.6580  -29.8120   23.7320 C   0  0  0  0  0  3  0  0  0  0  0  0
  -16.8550  -28.5560   23.1300 C   0  0  0  0  0  3  0  0  0  0  0  0
  -25.9940  -32.5070   23.7930 C   0  0  0  0  0  3  0  0  0  0  0  0
  -25.6630  -33.8920   24.1600 N   0  0  0  0  0  0  0  0  0  0  0  0
  -25.9600  -34.9690   23.4210 C   0  0  0  0  0  0  0  0  0  0  0  0
  -26.6090  -34.9020   22.3730 O   0  0  0  0  0  0  0  0  0  0  0  0
  -25.0830  -34.0160   24.9760 H   0  0  0  0  0  0  0  0  0  0  0  0
  -24.1880  -36.7350   23.1520 C   0  0  0  0  0  1  0  0  0  0  0  0
  -25.4580  -36.3380   23.9210 C   0  0  0  0  0  3  0  0  0  0  0  0
  -27.5980  -37.2470   24.7120 C   0  0  0  0  0  1  0  0  0  0  0  0
  -26.4660  -37.4140   23.8030 N   0  0  0  0  0  0  0  0  0  0  0  0
  -26.0480  -38.3220   23.9820 H   0  0  0  0  0  0  0  0  0  0  0  0
  -26.5380  -31.7180   25.0470 C   0  0  1  0  0  0  0  0  0  0  0  0
  -25.4650  -31.4470   26.1270 C   0  0  0  0  0  1  0  0  0  0  0  0
  -27.1350  -30.3550   24.6250 C   0  0  0  0  0  1  0  0  0  0  0  0
  -27.6870  -32.5170   25.7080 C   0  0  0  0  0  1  0  0  0  0  0  0
  2  7  1  0
  3  4  1  0
  3  2  1  0
  5  4  1  0
  5 22  1  0
  5  6  1  0
  7  1  1  0
  7  6  1  0
  8  1  2  0
  9 14  1  0
  9 12  2  0
 10  9  1  0
 11 16  1  0
 11 14  2  0
 13 10  2  0
 13 15  1  0
 15  1  1  0
 15 12  1  0
 16 18  1  0
 17 10  1  0
 17 11  1  0
 19 20  2  0
 20 39  1  0
 21 20  1  0
 21 24  1  0
 22 19  1  0
 22 23  1  0
 23 21  2  0
 24 25  1  0
 25 26  2  0
 27 30  1  0
 27 26  1  0
 28 27  2  0
 29 28  1  0
 29 24  2  0
 30 31  1  0
 31 32  1  0
 32 33  2  0
 34 33  1  0
 34 38  1  0
 35 34  2  0
 36 31  2  0
 36 35  1  0
 37 36  1  0
 39 40  1  0
 40 43  1  0
 40 42  1  0
 41 39  2  0
 44 45  1  0
 44 19  1  0
 46 44  1  0
 47 16  1  0
 47 50  1  0
 50 49  1  1
 50 48  1  0
 51 53  1  0
 51 50  1  0
 52 63  2  0
 53 58  1  0
 54 62  1  0
 54 64  1  0
 55 61  1  0
 55 57  1  0
 56 62  1  0
 57 56  1  0
 58 57  2  0
 59 60  1  0
 59 53  2  0
 60 55  2  0
 61 54  1  0
 62 52  1  0
 64 66  2  0
 65 64  1  0
 67 65  1  0
 68 77  2  0
 68 73  1  0
 69 65  1  0
 69 73  1  0
 70 69  1  0
 71 72  1  0
 71 70  1  0
 72 68  1  0
 73 74  2  0
 74 75  1  0
 76 75  2  0
 77 76  1  0
 78 52  1  0
 78 79  1  0
 78 88  1  0
 79 82  1  0
 80 84  1  0
 80 79  1  0
 81 80  2  0
 84 83  1  0
 86 84  1  0
 86 87  1  0
 86 85  1  0
 88 91  1  1
 88 89  1  0
 90 88  1  0
M  ISO  4   1 100  15 100  50 101  51 101
M  END
>  <TORSDO>  (35) 
F 17

>  <SCORE>  (35) 
-14.703

>  <name>  (35) 
34

>  <ligand_id>  (35) 
34

>  <original_smiles>  (35) 
[H]c1c([H])c([H])c2c(c1[H])C([H])([H])C([H])([H])C([H])([H])C2([H])N([H])C(=O)C1([H])N(C(=O)C([H])(N([H])C(=O)C([H])(N([H])C([H])([H])[H])C([H])([H])[H])C(C([H])([H])[H])(C([H])([H])[H])C([H])([H])[H])C([H])([H])c2c([H])c(OC(C([H])([H])[H])(C([H])([H])[H])C([H])([H])N([H])c3nc4c(s3)C([H])([H])N(C(=O)N3C([H])([H])C([H])([H])C([H])([H])C([H])(n5nc(-c6c([H])c([H])c(Oc7c([H])c([H])c(F)c([H])c7F)c([H])c6[H])c(C(=O)N([H])[H])c5N([H])[H])C3([H])[H])C4([H])[H])c([H])c([H])c2C1([H])[H]

>  <smiles>  (35) 
[H]c1c([H])c([H])c2c(c1[H])C([H])([H])C([H])([H])C([H])([H])C2([H])N([H])C(=O)C1([H])N(C(=O)C([H])(N([H])C(=O)C([H])(N([H])C([H])([H])[H])C([H])([H])[H])C(C([H])([H])[H])(C([H])([H])[H])C([H])([H])[H])C([H])([H])c2c([H])c(OC(C([H])([H])[H])(C([H])([H])[H])C([H])([H])N([H])c3nc4c(s3)C([H])([H])N(C(=O)N3C([H])([H])C([H])([H])C([H])([H])C([H])(n5nc(-c6c([H])c([H])c(Oc7c([H])c([H])c(F)c([H])c7F)c([H])c6[H])c(C(=O)N([H])[H])c5N([H])[H])C3([H])[H])C4([H])[H])c([H])c([H])c2C1([H])[H]

$$$$
35:0:0
     RDKit          3D

 95104  0  0  1  0  0  0  0  0999 V2000
  -28.3080  -23.3550   19.0380 C   0  0  0  0  0  2  0  0  0  0  0  0
  -28.8740  -21.9020   18.9630 C   0  0  0  0  0  2  0  0  0  0  0  0
  -29.7460  -22.9530   20.9040 C   0  0  0  0  0  2  0  0  0  0  0  0
  -29.2100  -24.1270   20.0310 C   0  0  1  0  0  0  0  0  0  0  0  0
  -30.0050  -21.8790   19.9130 N   0  0  1  0  0  4  0  0  0  0  0  0
  -30.7140  -22.3590   19.3730 H   0  0  0  0  0  0  0  0  0  0  0  0
  -32.0900  -20.6080   19.5930 C   0  0  0  0  0  1  0  0  0  0  0  0
  -30.7380  -20.6180   20.3250 C   0  0  0  0  0  3  0  0  0  0  0  0
  -30.6610  -17.9570   20.2870 C   0  0  0  0  0  3  0  0  0  0  0  0
  -28.4300  -17.3300   20.5820 C   0  0  0  0  0  3  0  0  0  0  0  0
  -29.7200  -16.8790   20.4820 C   0  0  0  0  0  0  0  0  0  0  0  0
  -30.0680  -19.2270   20.2880 C   0  0  0  0  0  0  0  0  0  0  0  0
  -28.3370  -19.0690   20.4820 S   0  0  0  0  0  0  0  0  0  0  0  0
  -30.7540  -14.5180   20.1090 C   0  0  0  0  0  0  0  0  0  0  0  0
  -30.5690  -12.2430   19.1210 C   0  0  0  0  0  2  0  0  0  0  0  0
  -29.5820  -12.3230   17.9320 C   0  0  0  0  0  2  0  0  0  0  0  0
  -28.1150  -12.1970   18.4000 C   0  0  0  0  0  2  0  0  0  0  0  0
  -27.8010  -13.1150   19.6100 C   0  0  0  0  0  3  0  0  0  0  0  0
  -28.8790  -12.9400   20.7040 C   0  0  0  0  0  2  0  0  0  0  0  0
  -30.1840  -13.2750   20.0990 N   0  0  0  0  0  0  0  0  0  0  0  0
  -31.8550  -14.7520   19.5960 O   0  0  0  0  0  0  0  0  0  0  0  0
  -29.9460  -15.4610   20.6670 N   0  0  0  0  0  0  0  0  0  0  0  0
  -29.1700  -15.0010   21.1160 H   0  0  0  0  0  0  0  0  0  0  0  0
  -25.4530  -13.8080   20.4080 C   0  0  0  0  0  0  0  0  0  0  0  0
  -24.3730  -13.0710   20.8140 C   0  0  0  0  0  0  0  0  0  0  0  0
  -24.7820  -11.7040   20.7480 C   0  0  0  0  0  0  0  0  0  0  0  0
  -26.4540  -12.8890   20.1300 N   0  0  0  0  0  0  0  0  0  0  0  0
  -26.0550  -11.6180   20.3900 N   0  0  0  0  0  0  0  0  0  0  0  0
  -24.0170  -10.4660   20.9490 C   0  0  0  0  0  0  0  0  0  0  0  0
  -24.4230   -9.4930   21.8890 C   0  0  0  0  0  3  0  0  0  0  0  0
  -23.6630   -8.3200   22.0760 C   0  0  0  0  0  3  0  0  0  0  0  0
  -22.4820   -8.1120   21.3250 C   0  0  0  0  0  0  0  0  0  0  0  0
  -22.0960   -9.0730   20.3730 C   0  0  0  0  0  3  0  0  0  0  0  0
  -22.8570  -10.2390   20.1840 C   0  0  0  0  0  3  0  0  0  0  0  0
  -21.6940   -6.9910   21.4220 O   0  0  0  0  0  0  0  0  0  0  0  0
  -21.5870   -6.2860   22.5950 C   0  0  0  0  0  0  0  0  0  0  0  0
  -21.1250   -6.8870   23.7850 C   0  0  0  0  0  3  0  0  0  0  0  0
  -20.9640   -6.1100   24.9500 C   0  0  0  0  0  3  0  0  0  0  0  0
  -21.2540   -4.7320   24.9240 C   0  0  0  0  0  0  0  0  0  0  0  0
  -21.7090   -4.1320   23.7370 C   0  0  0  0  0  3  0  0  0  0  0  0
  -21.8710   -4.9060   22.5750 C   0  0  0  0  0  0  0  0  0  0  0  0
  -22.2900   -4.3180   21.4280 F   0  0  0  0  0  0  0  0  0  0  0  0
  -21.0920   -3.9840   26.0390 F   0  0  0  0  0  0  0  0  0  0  0  0
  -23.0050  -13.5960   21.1460 C   0  0  0  0  0  0  0  0  0  0  0  0
  -22.2890  -12.9160   22.0360 N   0  0  0  0  0  0  0  0  0  0  0  0
  -22.5830  -14.6410   20.6540 O   0  0  0  0  0  0  0  0  0  0  0  0
  -22.6440  -12.0680   22.4540 H   0  0  0  0  0  0  0  0  0  0  0  0
  -21.3730  -13.2470   22.3030 H   0  0  0  0  0  0  0  0  0  0  0  0
  -25.6600  -15.1720   20.2300 N   0  0  0  0  0  0  0  0  0  0  0  0
  -24.8960  -15.8330   20.3140 H   0  0  0  0  0  0  0  0  0  0  0  0
  -26.4580  -15.5560   19.7380 H   0  0  0  0  0  0  0  0  0  0  0  0
  -30.3430  -24.6300   19.3390 O   0  0  0  0  0  0  0  0  0  0  0  0
  -30.0890  -25.4840   18.9930 H   0  0  0  0  0  0  0  0  0  0  0  0
  -28.5770  -25.3520   20.8030 C   0  0  0  0  0  2  0  0  0  0  0  0
  -28.5730  -26.6240   20.0900 O   0  0  0  0  0  0  0  0  0  0  0  0
  -24.4910  -31.6590   23.2140 C   0  0  0  0  0  0  0  0  0  0  0  0
  -27.3930  -27.3550   20.1180 C   0  0  0  0  0  0  0  0  0  0  0  0
  -23.3890  -30.2490   21.5090 C   0  0  0  0  0  3  0  0  0  0  0  0
  -24.9440  -28.7950   20.0930 C   0  0  0  0  0  0  0  0  0  0  0  0
  -25.9060  -30.7020   21.3910 C   0  0  0  0  0  2  0  0  0  0  0  0
  -26.0670  -29.3450   20.7240 C   0  0  0  0  0  0  0  0  0  0  0  0
  -27.2980  -28.6380   20.7250 C   0  0  0  0  0  3  0  0  0  0  0  0
  -26.2510  -26.8300   19.4800 C   0  0  0  0  0  3  0  0  0  0  0  0
  -25.0330  -27.5400   19.4640 C   0  0  0  0  0  3  0  0  0  0  0  0
  -23.6650  -29.6030   20.1240 C   0  0  0  0  0  2  0  0  0  0  0  0
  -24.6110  -30.8850   22.0970 N   0  0  0  0  0  0  0  0  0  0  0  0
  -23.3860  -31.8780   23.7280 O   0  0  0  0  0  0  0  0  0  0  0  0
  -22.7480  -29.1830   22.4290 C   0  0  0  0  0  0  0  0  0  0  0  0
  -21.4330  -28.9620   22.2680 N   0  0  0  0  0  0  0  0  0  0  0  0
  -23.4330  -28.5580   23.2430 O   0  0  0  0  0  0  0  0  0  0  0  0
  -20.9380  -29.5250   21.5900 H   0  0  0  0  0  0  0  0  0  0  0  0
  -18.0880  -27.6450   22.6670 C   0  0  0  0  0  0  0  0  0  0  0  0
  -20.6320  -27.9740   22.9920 C   0  0  0  0  0  3  0  0  0  0  0  0
  -20.7870  -26.5660   22.3730 C   0  0  0  0  0  2  0  0  0  0  0  0
  -19.7130  -26.2420   21.3280 C   0  0  0  0  0  2  0  0  0  0  0  0
  -18.3160  -26.3240   21.9520 C   0  0  0  0  0  2  0  0  0  0  0  0
  -19.1750  -28.4280   23.1410 C   0  0  0  0  0  0  0  0  0  0  0  0
  -18.9080  -29.6650   23.7650 C   0  0  0  0  0  3  0  0  0  0  0  0
  -17.5860  -30.1210   23.9210 C   0  0  0  0  0  3  0  0  0  0  0  0
  -16.5130  -29.3350   23.4650 C   0  0  0  0  0  3  0  0  0  0  0  0
  -16.7660  -28.1000   22.8420 C   0  0  0  0  0  3  0  0  0  0  0  0
  -25.7320  -32.3250   23.8890 C   0  0  0  0  0  3  0  0  0  0  0  0
  -26.2290  -31.5550   25.1740 C   0  0  1  0  0  0  0  0  0  0  0  0
  -25.1060  -31.2710   26.1990 C   0  0  0  0  0  1  0  0  0  0  0  0
  -26.8700  -30.2030   24.7860 C   0  0  0  0  0  1  0  0  0  0  0  0
  -27.3330  -32.3780   25.8800 C   0  0  0  0  0  1  0  0  0  0  0  0
  -25.3680  -33.7090   24.2190 N   0  0  0  0  0  0  0  0  0  0  0  0
  -25.6840  -34.7770   23.4750 C   0  0  0  0  0  0  0  0  0  0  0  0
  -26.3840  -34.7050   22.4620 O   0  0  0  0  0  0  0  0  0  0  0  0
  -24.7500  -33.8390   25.0070 H   0  0  0  0  0  0  0  0  0  0  0  0
  -23.9060  -36.5120   23.0870 C   0  0  0  0  0  1  0  0  0  0  0  0
  -25.1390  -36.1440   23.9280 C   0  0  0  0  0  3  0  0  0  0  0  0
  -27.2170  -37.0990   24.8230 C   0  0  0  0  0  1  0  0  0  0  0  0
  -26.1360  -37.2330   23.8490 N   0  0  0  0  0  0  0  0  0  0  0  0
  -25.6940  -38.1380   23.9840 H   0  0  0  0  0  0  0  0  0  0  0  0
  1  4  1  0
  2  1  1  0
  2  5  1  0
  4 54  1  1
  4  3  1  0
  5  8  1  0
  5  3  1  0
  5  6  1  6
  8  7  1  0
  9 12  2  0
  9 11  1  0
 11 10  2  0
 11 22  1  0
 12  8  1  0
 12 13  1  0
 13 10  1  0
 14 22  1  0
 15 20  1  0
 16 17  1  0
 16 15  1  0
 18 17  1  0
 18 27  1  0
 18 19  1  0
 20 14  1  0
 20 19  1  0
 21 14  2  0
 22 23  1  0
 24 25  2  0
 25 44  1  0
 26 25  1  0
 26 29  1  0
 27 28  1  0
 27 24  1  0
 28 26  2  0
 29 30  1  0
 30 31  2  0
 32 35  1  0
 32 31  1  0
 33 32  2  0
 34 33  1  0
 34 29  2  0
 35 36  1  0
 36 37  1  0
 37 38  2  0
 39 38  1  0
 39 43  1  0
 40 39  2  0
 41 36  2  0
 41 40  1  0
 42 41  1  0
 44 45  1  0
 45 48  1  0
 45 47  1  0
 46 44  2  0
 49 50  1  0
 49 24  1  0
 51 49  1  0
 52  4  1  0
 53 52  1  0
 55 57  1  0
 55 54  1  0
 56 67  2  0
 57 62  1  0
 58 66  1  0
 58 68  1  0
 59 65  1  0
 59 61  1  0
 60 66  1  0
 61 62  2  0
 61 60  1  0
 63 57  2  0
 64 63  1  0
 64 59  2  0
 65 58  1  0
 66 56  1  0
 68 70  2  0
 69 68  1  0
 71 69  1  0
 72 81  2  0
 72 77  1  0
 73 69  1  0
 73 77  1  0
 74 73  1  0
 75 76  1  0
 75 74  1  0
 76 72  1  0
 77 78  2  0
 78 79  1  0
 80 79  2  0
 81 80  1  0
 82 56  1  0
 82 87  1  0
 82 83  1  0
 83 86  1  1
 83 84  1  0
 85 83  1  0
 87 90  1  0
 88 92  1  0
 88 87  1  0
 89 88  2  0
 92 91  1  0
 94 92  1  0
 94 95  1  0
 94 93  1  0
M  ISO  4  14 100  22 100  54 101  55 101
M  END
>  <TORSDO>  (36) 
F 20

>  <SCORE>  (36) 
-13.682

>  <name>  (36) 
35

>  <ligand_id>  (36) 
35

>  <original_smiles>  (36) 
[H]OC1(C([H])([H])Oc2c([H])c([H])c3c(c2[H])C([H])([H])N(C(=O)C([H])(N([H])C(=O)C([H])(N([H])C([H])([H])[H])C([H])([H])[H])C(C([H])([H])[H])(C([H])([H])[H])C([H])([H])[H])C([H])(C(=O)N([H])C2([H])c4c([H])c([H])c([H])c([H])c4C([H])([H])C([H])([H])C2([H])[H])C3([H])[H])C([H])([H])C([H])([H])[N+]([H])(C([H])(c2sc([H])c(N([H])C(=O)N3C([H])([H])C([H])([H])C([H])([H])C([H])(n4nc(-c5c([H])c([H])c(Oc6c([H])c([H])c(F)c([H])c6F)c([H])c5[H])c(C(=O)N([H])[H])c4N([H])[H])C3([H])[H])c2[H])C([H])([H])[H])C1([H])[H]

>  <smiles>  (36) 
[H]OC1(C([H])([H])Oc2c([H])c([H])c3c(c2[H])C([H])([H])N(C(=O)C([H])(N([H])C(=O)C([H])(N([H])C([H])([H])[H])C([H])([H])[H])C(C([H])([H])[H])(C([H])([H])[H])C([H])([H])[H])C([H])(C(=O)N([H])C2([H])c4c([H])c([H])c([H])c([H])c4C([H])([H])C([H])([H])C2([H])[H])C3([H])[H])C([H])([H])C([H])([H])[N+]([H])(C([H])(c2sc([H])c(N([H])C(=O)N3C([H])([H])C([H])([H])C([H])([H])C([H])(n4nc(-c5c([H])c([H])c(Oc6c([H])c([H])c(F)c([H])c6F)c([H])c5[H])c(C(=O)N([H])[H])c4N([H])[H])C3([H])[H])c2[H])C([H])([H])[H])C1([H])[H]

$$$$
36:0:0
     RDKit          3D

 95104  0  0  1  0  0  0  0  0999 V2000
  -29.5680  -21.0840   20.7780 C   0  0  0  0  0  3  0  0  0  0  0  0
  -27.8240  -24.0050   18.9820 C   0  0  0  0  0  2  0  0  0  0  0  0
  -28.0390  -22.4680   19.1960 C   0  0  0  0  0  2  0  0  0  0  0  0
  -29.2710  -23.7400   20.7710 C   0  0  0  0  0  2  0  0  0  0  0  0
  -28.0710  -24.7310   20.3370 C   0  0  2  0  0  0  0  0  0  0  0  0
  -26.9290  -24.4750   21.3520 C   0  0  0  0  0  1  0  0  0  0  0  0
  -29.0040  -22.2990   20.2940 N   0  0  0  0  0  0  0  0  0  0  0  0
  -30.4500  -21.2500   21.7750 N   0  0  0  0  0  0  0  0  0  0  0  0
  -30.8650  -20.4430   22.2140 H   0  0  0  0  0  0  0  0  0  0  0  0
  -30.7080  -22.1610   22.1190 H   0  0  0  0  0  0  0  0  0  0  0  0
  -30.2390  -18.4250   20.7280 C   0  0  0  0  0  3  0  0  0  0  0  0
  -29.3600  -19.5730   20.4150 C   0  0  0  0  0  0  0  0  0  0  0  0
  -28.2300  -18.9680   19.9080 C   0  0  0  0  0  0  0  0  0  0  0  0
  -29.5950  -17.2250   20.3830 C   0  0  0  0  0  0  0  0  0  0  0  0
  -26.8830  -19.4390   19.4770 C   0  0  0  0  0  1  0  0  0  0  0  0
  -28.3710  -17.5880   19.8920 O   0  0  0  0  0  0  0  0  0  0  0  0
  -30.5820  -14.8070   20.3110 C   0  0  0  0  0  0  0  0  0  0  0  0
  -30.4200  -12.5060   19.3070 C   0  0  0  0  0  2  0  0  0  0  0  0
  -29.4780  -12.5730   18.0810 C   0  0  0  0  0  2  0  0  0  0  0  0
  -28.0080  -12.3980   18.5070 C   0  0  0  0  0  2  0  0  0  0  0  0
  -27.6380  -13.2880   19.7230 C   0  0  0  0  0  3  0  0  0  0  0  0
  -28.6930  -13.1830   20.8460 C   0  0  0  0  0  2  0  0  0  0  0  0
  -29.9940  -13.5540   20.2680 N   0  0  0  0  0  0  0  0  0  0  0  0
  -31.7400  -14.9470   19.9010 O   0  0  0  0  0  0  0  0  0  0  0  0
  -29.7980  -15.8720   20.7530 N   0  0  0  0  0  0  0  0  0  0  0  0
  -28.9550  -15.4780   21.1420 H   0  0  0  0  0  0  0  0  0  0  0  0
  -25.2510  -13.9080   20.4340 C   0  0  0  0  0  0  0  0  0  0  0  0
  -24.1770  -13.1470   20.8050 C   0  0  0  0  0  0  0  0  0  0  0  0
  -24.6290  -11.7920   20.7900 C   0  0  0  0  0  0  0  0  0  0  0  0
  -26.2890  -13.0160   20.2080 N   0  0  0  0  0  0  0  0  0  0  0  0
  -25.9190  -11.7390   20.4850 N   0  0  0  0  0  0  0  0  0  0  0  0
  -23.8900  -10.5370   20.9900 C   0  0  0  0  0  0  0  0  0  0  0  0
  -24.3160   -9.5680   21.9250 C   0  0  0  0  0  3  0  0  0  0  0  0
  -23.5780   -8.3800   22.1140 C   0  0  0  0  0  3  0  0  0  0  0  0
  -22.3980   -8.1530   21.3660 C   0  0  0  0  0  0  0  0  0  0  0  0
  -21.9900   -9.1090   20.4200 C   0  0  0  0  0  3  0  0  0  0  0  0
  -22.7290  -10.2890   20.2300 C   0  0  0  0  0  3  0  0  0  0  0  0
  -21.6310   -7.0160   21.4640 O   0  0  0  0  0  0  0  0  0  0  0  0
  -21.5880   -6.2730   22.6170 C   0  0  0  0  0  0  0  0  0  0  0  0
  -21.1790   -6.8320   23.8480 C   0  0  0  0  0  3  0  0  0  0  0  0
  -21.0820   -6.0180   24.9930 C   0  0  0  0  0  3  0  0  0  0  0  0
  -21.3820   -4.6450   24.9080 C   0  0  0  0  0  0  0  0  0  0  0  0
  -21.7810   -4.0850   23.6820 C   0  0  0  0  0  3  0  0  0  0  0  0
  -21.8810   -4.8970   22.5390 C   0  0  0  0  0  0  0  0  0  0  0  0
  -22.2480   -4.3490   21.3560 F   0  0  0  0  0  0  0  0  0  0  0  0
  -21.2800   -3.8600   26.0060 F   0  0  0  0  0  0  0  0  0  0  0  0
  -22.7830  -13.6400   21.0660 C   0  0  0  0  0  0  0  0  0  0  0  0
  -22.0450  -12.9600   21.9370 N   0  0  0  0  0  0  0  0  0  0  0  0
  -22.3570  -14.6650   20.5350 O   0  0  0  0  0  0  0  0  0  0  0  0
  -22.4000  -12.1300   22.3870 H   0  0  0  0  0  0  0  0  0  0  0  0
  -21.1100  -13.2740   22.1560 H   0  0  0  0  0  0  0  0  0  0  0  0
  -25.4290  -15.2760   20.2470 N   0  0  0  0  0  0  0  0  0  0  0  0
  -24.6700  -15.9380   20.3730 H   0  0  0  0  0  0  0  0  0  0  0  0
  -26.2830  -15.7120   19.9220 H   0  0  0  0  0  0  0  0  0  0  0  0
  -28.2810  -26.2620   20.2690 O   0  0  0  0  0  0  0  0  0  0  0  0
  -24.6040  -31.8490   23.2420 C   0  0  0  0  0  0  0  0  0  0  0  0
  -27.2050  -27.2060   20.1910 C   0  0  0  0  0  0  0  0  0  0  0  0
  -23.4090  -30.4580   21.5960 C   0  0  0  0  0  3  0  0  0  0  0  0
  -24.8640  -28.9090   20.1650 C   0  0  0  0  0  0  0  0  0  0  0  0
  -25.9590  -30.7460   21.4330 C   0  0  0  0  0  2  0  0  0  0  0  0
  -26.0380  -29.3630   20.7770 C   0  0  0  0  0  0  0  0  0  0  0  0
  -27.2100  -28.5270   20.7780 C   0  0  0  0  0  3  0  0  0  0  0  0
  -26.0100  -26.8550   19.5240 C   0  0  0  0  0  3  0  0  0  0  0  0
  -24.8580  -27.6630   19.5270 C   0  0  0  0  0  3  0  0  0  0  0  0
  -23.6320  -29.7940   20.2130 C   0  0  0  0  0  2  0  0  0  0  0  0
  -24.6760  -31.0360   22.1460 N   0  0  0  0  0  0  0  0  0  0  0  0
  -23.5180  -32.1280   23.7700 O   0  0  0  0  0  0  0  0  0  0  0  0
  -22.7360  -29.4400   22.5490 C   0  0  0  0  0  0  0  0  0  0  0  0
  -21.4080  -29.2700   22.4220 N   0  0  0  0  0  0  0  0  0  0  0  0
  -23.4080  -28.8070   23.3660 O   0  0  0  0  0  0  0  0  0  0  0  0
  -20.9230  -29.8310   21.7350 H   0  0  0  0  0  0  0  0  0  0  0  0
  -18.0230  -28.0900   22.9290 C   0  0  0  0  0  0  0  0  0  0  0  0
  -20.5840  -28.3320   23.1890 C   0  0  0  0  0  3  0  0  0  0  0  0
  -20.6740  -26.9050   22.6010 C   0  0  0  0  0  2  0  0  0  0  0  0
  -19.5650  -26.5970   21.5900 C   0  0  0  0  0  2  0  0  0  0  0  0
  -18.1870  -26.7460   22.2410 C   0  0  0  0  0  2  0  0  0  0  0  0
  -19.1480  -28.8420   23.3600 C   0  0  0  0  0  0  0  0  0  0  0  0
  -18.9390  -30.1010   23.9650 C   0  0  0  0  0  3  0  0  0  0  0  0
  -17.6380  -30.6070   24.1420 C   0  0  0  0  0  3  0  0  0  0  0  0
  -16.5270  -29.8530   23.7260 C   0  0  0  0  0  3  0  0  0  0  0  0
  -16.7200  -28.5960   23.1260 C   0  0  0  0  0  3  0  0  0  0  0  0
  -25.8820  -32.4810   23.8720 C   0  0  0  0  0  3  0  0  0  0  0  0
  -25.5730  -33.8820   24.1940 N   0  0  0  0  0  0  0  0  0  0  0  0
  -25.9090  -34.9330   23.4330 C   0  0  0  0  0  0  0  0  0  0  0  0
  -26.5800  -34.8230   22.4040 O   0  0  0  0  0  0  0  0  0  0  0  0
  -24.9790  -34.0410   24.9940 H   0  0  0  0  0  0  0  0  0  0  0  0
  -24.1860  -36.7300   23.0710 C   0  0  0  0  0  1  0  0  0  0  0  0
  -25.4240  -36.3240   23.8850 C   0  0  0  0  0  3  0  0  0  0  0  0
  -27.5600  -37.2100   24.7150 C   0  0  0  0  0  1  0  0  0  0  0  0
  -26.4600  -37.3750   23.7680 N   0  0  0  0  0  0  0  0  0  0  0  0
  -26.0550  -38.2970   23.9070 H   0  0  0  0  0  0  0  0  0  0  0  0
  -26.3820  -31.7170   25.1600 C   0  0  1  0  0  0  0  0  0  0  0  0
  -25.2760  -31.4920   26.2170 C   0  0  0  0  0  1  0  0  0  0  0  0
  -26.9640  -30.3340   24.7860 C   0  0  0  0  0  1  0  0  0  0  0  0
  -27.5290  -32.5110   25.8280 C   0  0  0  0  0  1  0  0  0  0  0  0
  1  8  1  0
  2  3  1  0
  2  5  1  0
  3  7  1  0
  5  4  1  0
  5  6  1  1
  7  4  1  0
  7  1  1  0
  8 10  1  0
  8  9  1  0
 12 11  1  0
 12  1  1  0
 13 12  2  0
 14 11  2  0
 14 25  1  0
 15 13  1  0
 16 13  1  0
 16 14  1  0
 17 25  1  0
 18 23  1  0
 19 20  1  0
 19 18  1  0
 21 20  1  0
 21 30  1  0
 21 22  1  0
 23 17  1  0
 23 22  1  0
 24 17  2  0
 25 26  1  0
 27 28  2  0
 28 47  1  0
 29 28  1  0
 29 32  1  0
 30 27  1  0
 30 31  1  0
 31 29  2  0
 32 33  1  0
 33 34  2  0
 35 38  1  0
 35 34  1  0
 36 35  2  0
 37 36  1  0
 37 32  2  0
 38 39  1  0
 39 40  1  0
 40 41  2  0
 42 41  1  0
 42 46  1  0
 43 42  2  0
 44 39  2  0
 44 43  1  0
 45 44  1  0
 47 48  1  0
 48 51  1  0
 48 50  1  0
 49 47  2  0
 52 53  1  0
 52 27  1  0
 54 52  1  0
 55  5  1  0
 56 67  2  0
 57 55  1  0
 57 62  1  0
 58 66  1  0
 58 68  1  0
 59 65  1  0
 59 61  1  0
 60 66  1  0
 61 62  2  0
 61 60  1  0
 63 64  1  0
 63 57  2  0
 64 59  2  0
 65 58  1  0
 66 56  1  0
 68 70  2  0
 69 68  1  0
 71 69  1  0
 72 81  2  0
 72 77  1  0
 73 69  1  0
 73 77  1  0
 74 73  1  0
 75 76  1  0
 75 74  1  0
 76 72  1  0
 77 78  2  0
 78 79  1  0
 80 79  2  0
 81 80  1  0
 82 56  1  0
 82 83  1  0
 82 92  1  0
 83 86  1  0
 84 88  1  0
 84 83  1  0
 85 84  2  0
 88 87  1  0
 90 88  1  0
 90 91  1  0
 90 89  1  0
 92 95  1  1
 92 93  1  0
 94 92  1  0
M  ISO  4   5 101  17 100  25 100  55 101
M  END
>  <TORSDO>  (37) 
F 17

>  <SCORE>  (37) 
-15.221

>  <name>  (37) 
36

>  <ligand_id>  (37) 
36

>  <original_smiles>  (37) 
[H]c1c([H])c([H])c2c(c1[H])C([H])([H])C([H])([H])C([H])([H])C2([H])N([H])C(=O)C1([H])N(C(=O)C([H])(N([H])C(=O)C([H])(N([H])C([H])([H])[H])C([H])([H])[H])C(C([H])([H])[H])(C([H])([H])[H])C([H])([H])[H])C([H])([H])c2c([H])c(OC3(C([H])([H])[H])C([H])([H])N(C(c4c(C([H])([H])[H])oc(N([H])C(=O)N5C([H])([H])C([H])([H])C([H])([H])C([H])(n6nc(-c7c([H])c([H])c(Oc8c([H])c([H])c(F)c([H])c8F)c([H])c7[H])c(C(=O)N([H])[H])c6N([H])[H])C5([H])[H])c4[H])=[N+]([H])[H])C([H])([H])C3([H])[H])c([H])c([H])c2C1([H])[H]

>  <smiles>  (37) 
[H]c1c([H])c([H])c2c(c1[H])C([H])([H])C([H])([H])C([H])([H])C2([H])N([H])C(=O)C1([H])N(C(=O)C([H])(N([H])C(=O)C([H])(N([H])C([H])([H])[H])C([H])([H])[H])C(C([H])([H])[H])(C([H])([H])[H])C([H])([H])[H])C([H])([H])c2c([H])c(OC3(C([H])([H])[H])C([H])([H])N(C(c4c(C([H])([H])[H])oc(N([H])C(=O)N5C([H])([H])C([H])([H])C([H])([H])C([H])(n6nc(-c7c([H])c([H])c(Oc8c([H])c([H])c(F)c([H])c8F)c([H])c7[H])c(C(=O)N([H])[H])c6N([H])[H])C5([H])[H])c4[H])=[N+]([H])[H])C([H])([H])C3([H])[H])c([H])c([H])c2C1([H])[H]

$$$$
37:0:0
     RDKit          3D

 91100  0  0  1  0  0  0  0  0999 V2000
  -28.3960  -23.7040   20.0590 C   0  0  0  0  0  0  0  0  0  0  0  0
  -28.8410  -22.5500   20.7130 N   0  0  0  0  0  0  0  0  0  0  0  0
  -28.0870  -23.6860   18.8650 O   0  0  0  0  0  0  0  0  0  0  0  0
  -29.1060  -22.7460   21.6690 H   0  0  0  0  0  0  0  0  0  0  0  0
  -30.6020  -14.8940   20.3700 C   0  0  0  0  0  0  0  0  0  0  0  0
  -30.4320  -12.5830   19.4100 C   0  0  0  0  0  2  0  0  0  0  0  0
  -29.5010  -12.5670   18.1780 C   0  0  0  0  0  2  0  0  0  0  0  0
  -28.0300  -12.3970   18.6060 C   0  0  0  0  0  2  0  0  0  0  0  0
  -27.6310  -13.3180   19.7910 C   0  0  0  0  0  3  0  0  0  0  0  0
  -28.6850  -13.3050   20.9160 C   0  0  0  0  0  2  0  0  0  0  0  0
  -29.9660  -13.6690   20.3050 N   0  0  0  0  0  0  0  0  0  0  0  0
  -31.8270  -14.9300   20.2090 O   0  0  0  0  0  0  0  0  0  0  0  0
  -29.4620  -20.1060   21.1290 C   0  0  0  0  0  3  0  0  0  0  0  0
  -29.4430  -18.7470   20.5390 C   0  0  0  0  0  0  0  0  0  0  0  0
  -28.9190  -18.8240   19.2870 C   0  0  0  0  0  0  0  0  0  0  0  0
  -28.9700  -21.1850   20.3580 C   0  0  0  0  0  0  0  0  0  0  0  0
  -29.8810  -17.3180   21.0940 C   0  0  0  0  0  2  0  0  0  0  0  0
  -28.7620  -17.6110   18.4270 C   0  0  0  0  0  2  0  0  0  0  0  0
  -29.8120  -16.5150   18.7640 C   0  0  0  0  0  2  0  0  0  0  0  0
  -29.8530  -16.0740   20.1820 N   0  0  0  0  0  0  0  0  0  0  0  0
  -28.4940  -20.4790   18.8120 S   0  0  0  0  0  0  0  0  0  0  0  0
  -25.2440  -13.9000   20.5120 C   0  0  0  0  0  0  0  0  0  0  0  0
  -24.1790  -13.1230   20.8750 C   0  0  0  0  0  0  0  0  0  0  0  0
  -24.6510  -11.7730   20.8590 C   0  0  0  0  0  0  0  0  0  0  0  0
  -26.2920  -13.0240   20.2860 N   0  0  0  0  0  0  0  0  0  0  0  0
  -25.9430  -11.7400   20.5640 N   0  0  0  0  0  0  0  0  0  0  0  0
  -23.9280  -10.5080   21.0500 C   0  0  0  0  0  0  0  0  0  0  0  0
  -24.3580   -9.5460   21.9910 C   0  0  0  0  0  3  0  0  0  0  0  0
  -23.6350   -8.3470   22.1690 C   0  0  0  0  0  3  0  0  0  0  0  0
  -22.4680   -8.1020   21.4070 C   0  0  0  0  0  0  0  0  0  0  0  0
  -22.0580   -9.0510   20.4560 C   0  0  0  0  0  3  0  0  0  0  0  0
  -22.7820  -10.2430   20.2750 C   0  0  0  0  0  3  0  0  0  0  0  0
  -21.7160   -6.9550   21.4940 O   0  0  0  0  0  0  0  0  0  0  0  0
  -21.6600   -6.2170   22.6480 C   0  0  0  0  0  0  0  0  0  0  0  0
  -21.2100   -6.7710   23.8670 C   0  0  0  0  0  3  0  0  0  0  0  0
  -21.1040   -5.9590   25.0130 C   0  0  0  0  0  3  0  0  0  0  0  0
  -21.4380   -4.5920   24.9420 C   0  0  0  0  0  0  0  0  0  0  0  0
  -21.8820   -4.0380   23.7290 C   0  0  0  0  0  3  0  0  0  0  0  0
  -21.9890   -4.8480   22.5850 C   0  0  0  0  0  0  0  0  0  0  0  0
  -22.3970   -4.3030   21.4130 F   0  0  0  0  0  0  0  0  0  0  0  0
  -21.3280   -3.8100   26.0410 F   0  0  0  0  0  0  0  0  0  0  0  0
  -22.7770  -13.5930   21.1290 C   0  0  0  0  0  0  0  0  0  0  0  0
  -22.0430  -12.8980   21.9890 N   0  0  0  0  0  0  0  0  0  0  0  0
  -22.3400  -14.6150   20.5990 O   0  0  0  0  0  0  0  0  0  0  0  0
  -22.4120  -12.0720   22.4380 H   0  0  0  0  0  0  0  0  0  0  0  0
  -21.1010  -13.1940   22.2030 H   0  0  0  0  0  0  0  0  0  0  0  0
  -25.4070  -15.2710   20.3300 N   0  0  0  0  0  0  0  0  0  0  0  0
  -24.6440  -15.9290   20.4460 H   0  0  0  0  0  0  0  0  0  0  0  0
  -26.2690  -15.7110   20.0380 H   0  0  0  0  0  0  0  0  0  0  0  0
  -28.2410  -25.1000   20.8630 C   0  0  0  0  0  2  0  0  0  0  0  0
  -28.3170  -26.4300   20.1510 O   0  0  0  0  0  0  0  0  0  0  0  0
  -24.5960  -31.9090   23.2240 C   0  0  0  0  0  0  0  0  0  0  0  0
  -27.2120  -27.3110   20.1810 C   0  0  0  0  0  0  0  0  0  0  0  0
  -23.3950  -30.5020   21.5890 C   0  0  0  0  0  3  0  0  0  0  0  0
  -24.8510  -28.9470   20.1650 C   0  0  0  0  0  0  0  0  0  0  0  0
  -25.9350  -30.8230   21.3990 C   0  0  0  0  0  2  0  0  0  0  0  0
  -26.0230  -29.4360   20.7560 C   0  0  0  0  0  0  0  0  0  0  0  0
  -27.2100  -28.6320   20.7490 C   0  0  0  0  0  3  0  0  0  0  0  0
  -26.0180  -26.8830   19.5680 C   0  0  0  0  0  3  0  0  0  0  0  0
  -24.8530  -27.6770   19.5620 C   0  0  0  0  0  3  0  0  0  0  0  0
  -23.6120  -29.8220   20.2110 C   0  0  0  0  0  2  0  0  0  0  0  0
  -24.6620  -31.0960   22.1280 N   0  0  0  0  0  0  0  0  0  0  0  0
  -23.5130  -32.1850   23.7590 O   0  0  0  0  0  0  0  0  0  0  0  0
  -22.7360  -29.4850   22.5550 C   0  0  0  0  0  0  0  0  0  0  0  0
  -21.4100  -29.3020   22.4340 N   0  0  0  0  0  0  0  0  0  0  0  0
  -23.4190  -28.8650   23.3720 O   0  0  0  0  0  0  0  0  0  0  0  0
  -20.9170  -29.8580   21.7540 H   0  0  0  0  0  0  0  0  0  0  0  0
  -18.0420  -28.0830   22.9490 C   0  0  0  0  0  0  0  0  0  0  0  0
  -20.6010  -28.3600   23.2090 C   0  0  0  0  0  3  0  0  0  0  0  0
  -20.7090  -26.9270   22.6350 C   0  0  0  0  0  2  0  0  0  0  0  0
  -19.6070  -26.5960   21.6250 C   0  0  0  0  0  2  0  0  0  0  0  0
  -18.2250  -26.7330   22.2720 C   0  0  0  0  0  2  0  0  0  0  0  0
  -19.1580  -28.8510   23.3740 C   0  0  0  0  0  0  0  0  0  0  0  0
  -18.9350  -30.1110   23.9710 C   0  0  0  0  0  3  0  0  0  0  0  0
  -17.6290  -30.6070   24.1390 C   0  0  0  0  0  3  0  0  0  0  0  0
  -16.5280  -29.8360   23.7300 C   0  0  0  0  0  3  0  0  0  0  0  0
  -16.7340  -28.5750   23.1420 C   0  0  0  0  0  3  0  0  0  0  0  0
  -25.8770  -32.5490   23.8420 C   0  0  0  0  0  3  0  0  0  0  0  0
  -25.5650  -33.9510   24.1610 N   0  0  0  0  0  0  0  0  0  0  0  0
  -25.8940  -34.9970   23.3910 C   0  0  0  0  0  0  0  0  0  0  0  0
  -26.5570  -34.8840   22.3570 O   0  0  0  0  0  0  0  0  0  0  0  0
  -24.9770  -34.1120   24.9660 H   0  0  0  0  0  0  0  0  0  0  0  0
  -24.1660  -36.7880   23.0230 C   0  0  0  0  0  1  0  0  0  0  0  0
  -25.4060  -36.3890   23.8390 C   0  0  0  0  0  3  0  0  0  0  0  0
  -27.5390  -37.2780   24.6660 C   0  0  0  0  0  1  0  0  0  0  0  0
  -26.4390  -37.4410   23.7200 N   0  0  0  0  0  0  0  0  0  0  0  0
  -26.0330  -38.3620   23.8650 H   0  0  0  0  0  0  0  0  0  0  0  0
  -26.3930  -31.7910   25.1270 C   0  0  1  0  0  0  0  0  0  0  0  0
  -25.2970  -31.5640   26.1950 C   0  0  0  0  0  1  0  0  0  0  0  0
  -26.9770  -30.4080   24.7520 C   0  0  0  0  0  1  0  0  0  0  0  0
  -27.5430  -32.5910   25.7840 C   0  0  0  0  0  1  0  0  0  0  0  0
  1  2  1  0
  1 50  1  0
  2  4  1  0
  3  1  2  0
  6 11  1  0
  7  8  1  0
  7  6  1  0
  9  8  1  0
  9 25  1  0
  9 10  1  0
 11  5  1  0
 11 10  1  0
 12  5  2  0
 14 17  1  0
 14 13  1  0
 15 14  2  0
 16  2  1  0
 16 13  2  0
 18 19  1  0
 18 15  1  0
 19 20  1  0
 20  5  1  0
 20 17  1  0
 21 15  1  0
 21 16  1  0
 22 23  2  0
 23 42  1  0
 24 23  1  0
 24 27  1  0
 25 22  1  0
 25 26  1  0
 26 24  2  0
 27 28  1  0
 28 29  2  0
 30 33  1  0
 30 29  1  0
 31 30  2  0
 32 31  1  0
 32 27  2  0
 33 34  1  0
 34 35  1  0
 35 36  2  0
 37 36  1  0
 37 41  1  0
 38 37  2  0
 39 34  2  0
 39 38  1  0
 40 39  1  0
 42 43  1  0
 43 46  1  0
 43 45  1  0
 44 42  2  0
 47 48  1  0
 47 22  1  0
 49 47  1  0
 51 53  1  0
 51 50  1  0
 52 63  2  0
 53 58  1  0
 54 62  1  0
 54 64  1  0
 55 61  1  0
 55 57  1  0
 56 62  1  0
 57 56  1  0
 58 57  2  0
 59 53  2  0
 60 59  1  0
 60 55  2  0
 61 54  1  0
 62 52  1  0
 64 66  2  0
 65 64  1  0
 67 65  1  0
 68 77  2  0
 68 73  1  0
 69 65  1  0
 69 73  1  0
 70 69  1  0
 71 72  1  0
 71 70  1  0
 72 68  1  0
 73 74  2  0
 74 75  1  0
 76 75  2  0
 77 76  1  0
 78 52  1  0
 78 79  1  0
 78 88  1  0
 79 82  1  0
 80 84  1  0
 80 79  1  0
 81 80  2  0
 84 83  1  0
 86 84  1  0
 86 87  1  0
 86 85  1  0
 88 91  1  1
 88 89  1  0
 90 88  1  0
M  ISO  4   5 100  20 100  50 101  51 101
M  END
>  <TORSDO>  (38) 
F 17

>  <SCORE>  (38) 
-15.012

>  <name>  (38) 
37

>  <ligand_id>  (38) 
37

>  <original_smiles>  (38) 
[H]c1c([H])c([H])c2c(c1[H])C([H])([H])C([H])([H])C([H])([H])C2([H])N([H])C(=O)C1([H])N(C(=O)C([H])(N([H])C(=O)C([H])(N([H])C([H])([H])[H])C([H])([H])[H])C(C([H])([H])[H])(C([H])([H])[H])C([H])([H])[H])C([H])([H])c2c([H])c(OC([H])([H])C(=O)N([H])c3sc4c(c3[H])C([H])([H])N(C(=O)N3C([H])([H])C([H])([H])C([H])([H])C([H])(n5nc(-c6c([H])c([H])c(Oc7c([H])c([H])c(F)c([H])c7F)c([H])c6[H])c(C(=O)N([H])[H])c5N([H])[H])C3([H])[H])C([H])([H])C4([H])[H])c([H])c([H])c2C1([H])[H]

>  <smiles>  (38) 
[H]c1c([H])c([H])c2c(c1[H])C([H])([H])C([H])([H])C([H])([H])C2([H])N([H])C(=O)C1([H])N(C(=O)C([H])(N([H])C(=O)C([H])(N([H])C([H])([H])[H])C([H])([H])[H])C(C([H])([H])[H])(C([H])([H])[H])C([H])([H])[H])C([H])([H])c2c([H])c(OC([H])([H])C(=O)N([H])c3sc4c(c3[H])C([H])([H])N(C(=O)N3C([H])([H])C([H])([H])C([H])([H])C([H])(n5nc(-c6c([H])c([H])c(Oc7c([H])c([H])c(F)c([H])c7F)c([H])c6[H])c(C(=O)N([H])[H])c5N([H])[H])C3([H])[H])C([H])([H])C4([H])[H])c([H])c([H])c2C1([H])[H]

$$$$
38:0:0
     RDKit          3D

 98109  0  0  1  0  0  0  0  0999 V2000
  -29.3930  -18.2880   20.7450 C   0  0  0  0  0  3  0  0  0  0  0  0
  -30.3060  -17.9810   18.5740 C   0  0  0  0  0  3  0  0  0  0  0  0
  -29.3060  -19.6890   20.4980 C   0  0  0  0  0  0  0  0  0  0  0  0
  -29.8930  -17.3720   19.7880 C   0  0  0  0  0  0  0  0  0  0  0  0
  -29.7030  -20.2010   19.2310 C   0  0  0  0  0  0  0  0  0  0  0  0
  -29.0180  -23.8570   18.7190 C   0  0  0  0  0  0  0  0  0  0  0  0
  -28.5970  -22.5720   18.9320 C   0  0  0  0  0  0  0  0  0  0  0  0
  -30.5080  -23.8380   18.4810 C   0  0  0  0  0  3  0  0  0  0  0  0
  -30.8690  -22.3160   18.5540 C   0  0  0  0  0  3  0  0  0  0  0  0
  -30.2200  -19.3300   18.3150 N   0  0  0  0  0  0  0  0  0  0  0  0
  -29.6290  -21.6040   18.8710 N   0  0  0  0  0  0  0  0  0  0  0  0
  -30.7100  -14.8730   19.8160 C   0  0  0  0  0  0  0  0  0  0  0  0
  -30.5310  -12.4820   19.1210 C   0  0  0  0  0  2  0  0  0  0  0  0
  -29.5400  -12.3930   17.9390 C   0  0  0  0  0  2  0  0  0  0  0  0
  -28.0850  -12.2810   18.4400 C   0  0  0  0  0  2  0  0  0  0  0  0
  -27.7530  -13.3250   19.5390 C   0  0  0  0  0  3  0  0  0  0  0  0
  -28.8520  -13.3520   20.6270 C   0  0  0  0  0  2  0  0  0  0  0  0
  -30.1350  -13.6330   19.9590 N   0  0  0  0  0  0  0  0  0  0  0  0
  -31.8330  -15.0090   19.3230 O   0  0  0  0  0  0  0  0  0  0  0  0
  -29.9040  -15.9390   20.1310 N   0  0  0  0  0  0  0  0  0  0  0  0
  -29.0740  -15.6290   20.6150 H   0  0  0  0  0  0  0  0  0  0  0  0
  -25.4590  -14.0510   20.4420 C   0  0  0  0  0  0  0  0  0  0  0  0
  -24.3700  -13.3360   20.8610 C   0  0  0  0  0  0  0  0  0  0  0  0
  -24.7360  -11.9590   20.7520 C   0  0  0  0  0  0  0  0  0  0  0  0
  -26.4240  -13.1130   20.1060 N   0  0  0  0  0  0  0  0  0  0  0  0
  -25.9970  -11.8480   20.3520 N   0  0  0  0  0  0  0  0  0  0  0  0
  -23.9420  -10.7400   20.9510 C   0  0  0  0  0  0  0  0  0  0  0  0
  -24.3780   -9.7050   21.8060 C   0  0  0  0  0  3  0  0  0  0  0  0
  -23.5870   -8.5510   21.9950 C   0  0  0  0  0  3  0  0  0  0  0  0
  -22.3450   -8.4250   21.3290 C   0  0  0  0  0  0  0  0  0  0  0  0
  -21.9260   -9.4490   20.4620 C   0  0  0  0  0  3  0  0  0  0  0  0
  -22.7160  -10.5930   20.2690 C   0  0  0  0  0  3  0  0  0  0  0  0
  -21.5230   -7.3290   21.4330 O   0  0  0  0  0  0  0  0  0  0  0  0
  -21.5180   -6.5350   22.5510 C   0  0  0  0  0  0  0  0  0  0  0  0
  -21.1920   -7.0460   23.8260 C   0  0  0  0  0  3  0  0  0  0  0  0
  -21.1330   -6.1800   24.9370 C   0  0  0  0  0  3  0  0  0  0  0  0
  -21.3890   -4.8060   24.7750 C   0  0  0  0  0  0  0  0  0  0  0  0
  -21.7090   -4.2950   23.5040 C   0  0  0  0  0  3  0  0  0  0  0  0
  -21.7700   -5.1560   22.3950 C   0  0  0  0  0  0  0  0  0  0  0  0
  -22.0570   -4.6560   21.1700 F   0  0  0  0  0  0  0  0  0  0  0  0
  -21.3240   -3.9720   25.8390 F   0  0  0  0  0  0  0  0  0  0  0  0
  -23.0300  -13.8910   21.2470 C   0  0  0  0  0  0  0  0  0  0  0  0
  -22.3320  -13.2290   22.1630 N   0  0  0  0  0  0  0  0  0  0  0  0
  -22.6150  -14.9480   20.7710 O   0  0  0  0  0  0  0  0  0  0  0  0
  -22.6820  -12.3740   22.5690 H   0  0  0  0  0  0  0  0  0  0  0  0
  -21.4350  -13.5830   22.4630 H   0  0  0  0  0  0  0  0  0  0  0  0
  -25.7030  -15.4140   20.2970 N   0  0  0  0  0  0  0  0  0  0  0  0
  -24.9820  -16.1070   20.4650 H   0  0  0  0  0  0  0  0  0  0  0  0
  -26.5340  -15.8040   19.8730 H   0  0  0  0  0  0  0  0  0  0  0  0
  -25.3660  -21.4500   18.1860 C   0  0  0  0  0  2  0  0  0  0  0  0
  -26.0970  -22.7940   18.2350 C   0  0  0  0  0  2  0  0  0  0  0  0
  -26.7160  -20.7960   18.4940 C   0  0  0  0  0  2  0  0  0  0  0  0
  -27.1460  -22.1260   19.1420 C   0  0  0  0  0  3  0  0  0  0  0  0
  -29.0700  -22.0540   21.6490 C   0  0  0  0  0  2  0  0  0  0  0  0
  -29.7340  -21.1350   22.6440 C   0  0  0  0  0  2  0  0  0  0  0  0
  -28.7930  -20.5680   21.6040 C   0  0  0  0  0  3  0  0  0  0  0  0
  -28.1310  -25.1680   18.7040 C   0  0  0  0  0  2  0  0  0  0  0  0
  -28.5600  -26.5100   19.2030 O   0  0  0  0  0  0  0  0  0  0  0  0
  -25.3790  -31.0410   23.9030 C   0  0  0  0  0  0  0  0  0  0  0  0
  -27.5250  -27.4430   19.4680 C   0  0  0  0  0  0  0  0  0  0  0  0
  -24.0030  -30.2340   22.0220 C   0  0  0  0  0  3  0  0  0  0  0  0
  -25.2750  -29.1170   20.1060 C   0  0  0  0  0  0  0  0  0  0  0  0
  -26.5480  -30.4710   21.7600 C   0  0  0  0  0  2  0  0  0  0  0  0
  -26.5050  -29.3400   20.7360 C   0  0  0  0  0  0  0  0  0  0  0  0
  -27.6320  -28.5140   20.4180 C   0  0  0  0  0  3  0  0  0  0  0  0
  -26.2710  -27.3170   18.8160 C   0  0  0  0  0  3  0  0  0  0  0  0
  -25.1610  -28.1130   19.1400 C   0  0  0  0  0  3  0  0  0  0  0  0
  -24.0990  -29.9900   20.4950 C   0  0  0  0  0  2  0  0  0  0  0  0
  -25.3330  -30.5820   22.6190 N   0  0  0  0  0  0  0  0  0  0  0  0
  -24.3460  -31.1970   24.5690 O   0  0  0  0  0  0  0  0  0  0  0  0
  -23.3340  -29.0070   22.6890 C   0  0  0  0  0  0  0  0  0  0  0  0
  -22.0290  -28.8140   22.4330 N   0  0  0  0  0  0  0  0  0  0  0  0
  -23.9910  -28.2440   23.4020 O   0  0  0  0  0  0  0  0  0  0  0  0
  -21.5570  -29.4890   21.8480 H   0  0  0  0  0  0  0  0  0  0  0  0
  -18.7560  -27.2840   22.2330 C   0  0  0  0  0  0  0  0  0  0  0  0
  -21.2110  -27.7050   22.9270 C   0  0  0  0  0  3  0  0  0  0  0  0
  -21.5390  -26.3940   22.1750 C   0  0  0  0  0  2  0  0  0  0  0  0
  -20.6290  -26.1450   20.9690 C   0  0  0  0  0  2  0  0  0  0  0  0
  -19.1640  -26.0750   21.4070 C   0  0  0  0  0  2  0  0  0  0  0  0
  -19.7180  -28.0570   22.9330 C   0  0  0  0  0  0  0  0  0  0  0  0
  -19.2900  -29.1900   23.6590 C   0  0  0  0  0  3  0  0  0  0  0  0
  -17.9290  -29.5510   23.6920 C   0  0  0  0  0  3  0  0  0  0  0  0
  -16.9790  -28.7740   23.0080 C   0  0  0  0  0  3  0  0  0  0  0  0
  -17.3920  -27.6400   22.2850 C   0  0  0  0  0  3  0  0  0  0  0  0
  -26.7310  -31.4110   24.5860 C   0  0  0  0  0  3  0  0  0  0  0  0
  -27.1530  -30.3940   25.7170 C   0  0  1  0  0  0  0  0  0  0  0  0
  -26.0470  -30.1370   26.7670 C   0  0  0  0  0  1  0  0  0  0  0  0
  -27.5480  -29.0290   25.1090 C   0  0  0  0  0  1  0  0  0  0  0  0
  -28.4020  -30.9260   26.4580 C   0  0  0  0  0  1  0  0  0  0  0  0
  -26.5930  -32.7680   25.1360 N   0  0  0  0  0  0  0  0  0  0  0  0
  -27.1270  -33.8690   24.5910 C   0  0  0  0  0  0  0  0  0  0  0  0
  -27.8550  -33.8360   23.5950 O   0  0  0  0  0  0  0  0  0  0  0  0
  -25.9640  -32.8760   25.9180 H   0  0  0  0  0  0  0  0  0  0  0  0
  -25.7650  -35.9760   24.4100 C   0  0  0  0  0  1  0  0  0  0  0  0
  -26.8030  -35.2210   25.2550 C   0  0  0  0  0  3  0  0  0  0  0  0
  -28.9060  -35.5560   26.4770 C   0  0  0  0  0  1  0  0  0  0  0  0
  -27.9920  -36.0750   25.4620 N   0  0  0  0  0  0  0  0  0  0  0  0
  -27.7170  -37.0150   25.7330 H   0  0  0  0  0  0  0  0  0  0  0  0
  2  4  1  0
  3  1  1  0
  3 56  1  0
  4 20  1  0
  4  1  2  0
  5  3  2  0
  6  7  2  0
  7 53  1  0
  8  9  2  0
  8  6  1  0
  9 11  1  0
 10  2  2  0
 10  5  1  0
 11  7  1  0
 11  5  1  0
 12 18  1  0
 12 20  1  0
 13 18  1  0
 14 15  1  0
 14 13  1  0
 16 15  1  0
 16 25  1  0
 16 17  1  0
 18 17  1  0
 19 12  2  0
 20 21  1  0
 22 23  2  0
 23 42  1  0
 24 23  1  0
 24 27  1  0
 25 26  1  0
 25 22  1  0
 26 24  2  0
 27 28  1  0
 28 29  2  0
 30 33  1  0
 30 29  1  0
 31 30  2  0
 32 31  1  0
 32 27  2  0
 33 34  1  0
 34 35  1  0
 35 36  2  0
 37 36  1  0
 37 41  1  0
 38 37  2  0
 39 34  2  0
 39 38  1  0
 40 39  1  0
 42 43  1  0
 43 46  1  0
 43 45  1  0
 44 42  2  0
 47 22  1  0
 47 48  1  0
 49 47  1  0
 50 51  1  0
 50 52  1  0
 51 53  1  0
 52 53  1  0
 54 55  1  0
 56 54  1  0
 56 55  1  0
 57  6  1  0
 57 58  1  0
 58 60  1  0
 59 70  2  0
 60 65  1  0
 61 69  1  0
 61 71  1  0
 62 68  1  0
 62 64  1  0
 63 69  1  0
 64 63  1  0
 65 64  2  0
 66 67  1  0
 66 60  2  0
 67 62  2  0
 68 61  1  0
 69 59  1  0
 71 73  2  0
 72 71  1  0
 74 72  1  0
 75 84  2  0
 75 80  1  0
 76 72  1  0
 76 80  1  0
 77 76  1  0
 78 79  1  0
 78 77  1  0
 79 75  1  0
 80 81  2  0
 81 82  1  0
 83 82  2  0
 84 83  1  0
 85 59  1  0
 85 90  1  0
 85 86  1  0
 86 89  1  1
 86 87  1  0
 88 86  1  0
 90 93  1  0
 91 90  1  0
 91 95  1  0
 92 91  2  0
 95 94  1  0
 95 97  1  0
 97 98  1  0
 97 96  1  0
M  ISO  4  12 100  20 100  57 101  58 101
M  END
>  <TORSDO>  (39) 
F 19

>  <SCORE>  (39) 
-11.904

>  <name>  (39) 
38

>  <ligand_id>  (39) 
38

>  <original_smiles>  (39) 
[H]c1nc(N2C(C3([H])C([H])([H])C([H])([H])C3([H])[H])=C(C([H])([H])Oc3c([H])c([H])c4c(c3[H])C([H])([H])N(C(=O)C([H])(N([H])C(=O)C([H])(N([H])C([H])([H])[H])C([H])([H])[H])C(C([H])([H])[H])(C([H])([H])[H])C([H])([H])[H])C([H])(C(=O)N([H])C3([H])c5c([H])c([H])c([H])c([H])c5C([H])([H])C([H])([H])C3([H])[H])C4([H])[H])C([H])([H])C2([H])[H])c(C2([H])C([H])([H])C2([H])[H])c([H])c1N([H])C(=O)N1C([H])([H])C([H])([H])C([H])([H])C([H])(n2nc(-c3c([H])c([H])c(Oc4c([H])c([H])c(F)c([H])c4F)c([H])c3[H])c(C(=O)N([H])[H])c2N([H])[H])C1([H])[H]

>  <smiles>  (39) 
[H]c1nc(N2C(C3([H])C([H])([H])C([H])([H])C3([H])[H])=C(C([H])([H])Oc3c([H])c([H])c4c(c3[H])C([H])([H])N(C(=O)C([H])(N([H])C(=O)C([H])(N([H])C([H])([H])[H])C([H])([H])[H])C(C([H])([H])[H])(C([H])([H])[H])C([H])([H])[H])C([H])(C(=O)N([H])C3([H])c5c([H])c([H])c([H])c([H])c5C([H])([H])C([H])([H])C3([H])[H])C4([H])[H])C([H])([H])C2([H])[H])c(C2([H])C([H])([H])C2([H])[H])c([H])c1N([H])C(=O)N1C([H])([H])C([H])([H])C([H])([H])C([H])(n2nc(-c3c([H])c([H])c(Oc4c([H])c([H])c(F)c([H])c4F)c([H])c3[H])c(C(=O)N([H])[H])c2N([H])[H])C1([H])[H]

$$$$
39:0:0
     RDKit          3D

 86 94  0  0  1  0  0  0  0  0999 V2000
  -28.8100  -20.3590   20.0960 C   0  0  0  0  0  0  0  0  0  0  0  0
  -29.9690  -17.6900   21.7160 C   0  0  0  0  0  2  0  0  0  0  0  0
  -29.5130  -17.2990   20.3020 C   0  0  0  0  0  3  0  0  0  0  0  0
  -30.7910  -18.8660   21.1350 C   0  0  0  0  0  3  0  0  0  0  0  0
  -31.1080  -20.0780   22.0090 C   0  0  0  0  0  1  0  0  0  0  0  0
  -29.7440  -19.0020   20.1200 N   0  0  0  0  0  0  0  0  0  0  0  0
  -27.6130  -20.0870   19.9890 O   0  0  0  0  0  0  0  0  0  0  0  0
  -30.3780  -15.6680   19.9850 C   0  0  0  0  0  0  0  0  0  0  0  0
  -30.4620  -13.1500   19.0880 C   0  0  0  0  0  2  0  0  0  0  0  0
  -29.4970  -12.8340   17.9080 C   0  0  0  0  0  2  0  0  0  0  0  0
  -28.0920  -12.4760   18.4190 C   0  0  0  0  0  2  0  0  0  0  0  0
  -27.6520  -13.4260   19.5560 C   0  0  0  0  0  3  0  0  0  0  0  0
  -28.7450  -13.6640   20.6210 C   0  0  0  0  0  2  0  0  0  0  0  0
  -29.9030  -14.2880   19.9440 N   0  0  0  0  0  0  0  0  0  0  0  0
  -31.5840  -15.6520   19.6690 O   0  0  0  0  0  0  0  0  0  0  0  0
  -25.3380  -13.9220   20.4800 C   0  0  0  0  0  0  0  0  0  0  0  0
  -24.3030  -13.1260   20.8820 C   0  0  0  0  0  0  0  0  0  0  0  0
  -24.7740  -11.7810   20.7730 C   0  0  0  0  0  0  0  0  0  0  0  0
  -26.3660  -13.0660   20.1380 N   0  0  0  0  0  0  0  0  0  0  0  0
  -26.0470  -11.7670   20.3820 N   0  0  0  0  0  0  0  0  0  0  0  0
  -24.0620  -10.5090   20.9610 C   0  0  0  0  0  0  0  0  0  0  0  0
  -24.4950   -9.5480   21.9020 C   0  0  0  0  0  3  0  0  0  0  0  0
  -23.7780   -8.3440   22.0790 C   0  0  0  0  0  3  0  0  0  0  0  0
  -22.6140   -8.0920   21.3140 C   0  0  0  0  0  0  0  0  0  0  0  0
  -22.2000   -9.0410   20.3620 C   0  0  0  0  0  3  0  0  0  0  0  0
  -22.9170  -10.2350   20.1840 C   0  0  0  0  0  3  0  0  0  0  0  0
  -21.8690   -6.9400   21.3990 O   0  0  0  0  0  0  0  0  0  0  0  0
  -21.7390   -6.2510   22.5790 C   0  0  0  0  0  0  0  0  0  0  0  0
  -21.1890   -6.8490   23.7330 C   0  0  0  0  0  3  0  0  0  0  0  0
  -21.0090   -6.0850   24.9040 C   0  0  0  0  0  3  0  0  0  0  0  0
  -21.3720   -4.7250   24.9200 C   0  0  0  0  0  0  0  0  0  0  0  0
  -21.9150   -4.1270   23.7700 C   0  0  0  0  0  3  0  0  0  0  0  0
  -22.0960   -4.8880   22.6020 C   0  0  0  0  0  0  0  0  0  0  0  0
  -22.5990   -4.3010   21.4900 F   0  0  0  0  0  0  0  0  0  0  0  0
  -21.1920   -3.9890   26.0420 F   0  0  0  0  0  0  0  0  0  0  0  0
  -22.9220  -13.5860   21.2460 C   0  0  0  0  0  0  0  0  0  0  0  0
  -22.2490  -12.8640   22.1330 N   0  0  0  0  0  0  0  0  0  0  0  0
  -22.4510  -14.6220   20.7770 O   0  0  0  0  0  0  0  0  0  0  0  0
  -22.6460  -12.0260   22.5350 H   0  0  0  0  0  0  0  0  0  0  0  0
  -21.3240  -13.1530   22.4180 H   0  0  0  0  0  0  0  0  0  0  0  0
  -25.4850  -15.3000   20.3460 N   0  0  0  0  0  0  0  0  0  0  0  0
  -24.7230  -15.9450   20.5280 H   0  0  0  0  0  0  0  0  0  0  0  0
  -26.3080  -15.7560   19.9770 H   0  0  0  0  0  0  0  0  0  0  0  0
  -29.0680  -22.2000   20.2140 C   0  0  0  0  0  3  0  0  0  0  0  0
  -28.0660  -23.8510   20.0780 C   0  0  0  0  0  3  0  0  0  0  0  0
  -28.2330  -25.5930   20.2290 O   0  0  0  0  0  0  0  0  0  0  0  0
  -24.7300  -31.8170   23.2290 C   0  0  0  0  0  0  0  0  0  0  0  0
  -27.2490  -26.7880   20.1820 C   0  0  0  0  0  0  0  0  0  0  0  0
  -23.5330  -30.4320   21.5890 C   0  0  0  0  0  3  0  0  0  0  0  0
  -24.9730  -28.8010   20.1530 C   0  0  0  0  0  0  0  0  0  0  0  0
  -26.1090  -30.5860   21.4500 C   0  0  0  0  0  2  0  0  0  0  0  0
  -26.1720  -29.1610   20.7820 C   0  0  0  0  0  0  0  0  0  0  0  0
  -27.2940  -28.1820   20.7630 C   0  0  0  0  0  3  0  0  0  0  0  0
  -26.0150  -26.6310   19.5010 C   0  0  0  0  0  3  0  0  0  0  0  0
  -24.9320  -27.5620   19.4900 C   0  0  0  0  0  3  0  0  0  0  0  0
  -23.7630  -29.7460   20.2110 C   0  0  0  0  0  2  0  0  0  0  0  0
  -24.8150  -30.9770   22.1420 N   0  0  0  0  0  0  0  0  0  0  0  0
  -23.6400  -32.1110   23.7510 O   0  0  0  0  0  0  0  0  0  0  0  0
  -22.8250  -29.4450   22.5560 C   0  0  0  0  0  0  0  0  0  0  0  0
  -21.4930  -29.2820   22.4310 N   0  0  0  0  0  0  0  0  0  0  0  0
  -23.4850  -28.8240   23.3920 O   0  0  0  0  0  0  0  0  0  0  0  0
  -21.0100  -29.8340   21.7350 H   0  0  0  0  0  0  0  0  0  0  0  0
  -18.1140  -28.0460   22.9360 C   0  0  0  0  0  0  0  0  0  0  0  0
  -20.6720  -28.3390   23.2000 C   0  0  0  0  0  3  0  0  0  0  0  0
  -20.7860  -26.9080   22.6250 C   0  0  0  0  0  2  0  0  0  0  0  0
  -19.6890  -26.5760   21.6080 C   0  0  0  0  0  2  0  0  0  0  0  0
  -18.3050  -26.7030   22.2520 C   0  0  0  0  0  2  0  0  0  0  0  0
  -19.2240  -28.8210   23.3670 C   0  0  0  0  0  0  0  0  0  0  0  0
  -18.9880  -30.0750   23.9720 C   0  0  0  0  0  3  0  0  0  0  0  0
  -17.6760  -30.5550   24.1470 C   0  0  0  0  0  3  0  0  0  0  0  0
  -16.5810  -29.7790   23.7280 C   0  0  0  0  0  3  0  0  0  0  0  0
  -16.8010  -28.5250   23.1310 C   0  0  0  0  0  3  0  0  0  0  0  0
  -25.9980  -32.4620   23.8690 C   0  0  0  0  0  3  0  0  0  0  0  0
  -25.6780  -33.8620   24.2110 N   0  0  0  0  0  0  0  0  0  0  0  0
  -25.9760  -34.9290   23.4570 C   0  0  0  0  0  0  0  0  0  0  0  0
  -26.6060  -34.8390   22.4000 O   0  0  0  0  0  0  0  0  0  0  0  0
  -25.1130  -34.0040   25.0340 H   0  0  0  0  0  0  0  0  0  0  0  0
  -24.2060  -36.7080   23.2270 C   0  0  0  0  0  1  0  0  0  0  0  0
  -25.5060  -36.3150   23.9480 C   0  0  0  0  0  3  0  0  0  0  0  0
  -27.6770  -37.2380   24.6360 C   0  0  0  0  0  1  0  0  0  0  0  0
  -26.5140  -37.3820   23.7630 N   0  0  0  0  0  0  0  0  0  0  0  0
  -26.1050  -38.2980   23.9300 H   0  0  0  0  0  0  0  0  0  0  0  0
  -26.4980  -31.6970   25.1570 C   0  0  1  0  0  0  0  0  0  0  0  0
  -25.3940  -31.4730   26.2180 C   0  0  0  0  0  1  0  0  0  0  0  0
  -27.0790  -30.3140   24.7920 C   0  0  0  0  0  1  0  0  0  0  0  0
  -27.6460  -32.4910   25.8250 C   0  0  0  0  0  1  0  0  0  0  0  0
  1  6  1  0
  1 44  1  0
  3  8  1  0
  3  2  1  0
  4  2  1  0
  4  5  1  0
  6  3  1  0
  6  4  1  0
  7  1  2  0
  9 14  1  0
 10 11  1  0
 10  9  1  0
 12 11  1  0
 12 19  1  0
 12 13  1  0
 14  8  1  0
 14 13  1  0
 15  8  2  0
 16 17  2  0
 17 36  1  0
 18 17  1  0
 18 21  1  0
 19 20  1  0
 19 16  1  0
 20 18  2  0
 21 22  1  0
 22 23  2  0
 24 27  1  0
 24 23  1  0
 25 24  2  0
 26 25  1  0
 26 21  2  0
 27 28  1  0
 28 33  2  0
 28 29  1  0
 29 30  2  0
 30 31  1  0
 31 35  1  0
 32 31  2  0
 33 32  1  0
 34 33  1  0
 36 37  1  0
 37 40  1  0
 37 39  1  0
 38 36  2  0
 41 16  1  0
 41 42  1  0
 43 41  1  0
 45 44  2  0
 45 46  1  0
 47 58  2  0
 48 46  1  0
 48 53  1  0
 49 57  1  0
 49 59  1  0
 50 56  1  0
 50 52  1  0
 51 57  1  0
 52 51  1  0
 53 52  2  0
 54 48  2  0
 55 54  1  0
 55 50  2  0
 56 49  1  0
 57 47  1  0
 59 61  2  0
 60 59  1  0
 62 60  1  0
 63 72  2  0
 63 68  1  0
 64 60  1  0
 64 68  1  0
 65 64  1  0
 66 67  1  0
 66 65  1  0
 67 63  1  0
 68 69  2  0
 69 70  1  0
 71 70  2  0
 72 71  1  0
 73 47  1  0
 73 74  1  0
 73 83  1  0
 74 77  1  0
 75 79  1  0
 75 74  1  0
 76 75  2  0
 79 78  1  0
 81 82  1  0
 81 79  1  0
 81 80  1  0
 83 86  1  1
 83 84  1  0
 85 83  1  0
M  ISO  4   3 100   8 100  45 101  46 101
M  END
>  <TORSDO>  (40) 
F 18

>  <SCORE>  (40) 
-16.311

>  <name>  (40) 
39

>  <ligand_id>  (40) 
39

>  <original_smiles>  (40) 
[H]c1c([H])c([H])c2c(c1[H])C([H])([H])C([H])([H])C([H])([H])C2([H])N([H])C(=O)C1([H])N(C(=O)C([H])(N([H])C(=O)C([H])(N([H])C([H])([H])[H])C([H])([H])[H])C(C([H])([H])[H])(C([H])([H])[H])C([H])([H])[H])C([H])([H])c2c([H])c(OC([H])([H])C([H])([H])C(=O)N3C([H])(C(=O)N4C([H])([H])C([H])([H])C([H])([H])C([H])(n5nc(-c6c([H])c([H])c(Oc7c([H])c([H])c(F)c([H])c7F)c([H])c6[H])c(C(=O)N([H])[H])c5N([H])[H])C4([H])[H])C([H])([H])C3([H])C([H])([H])[H])c([H])c([H])c2C1([H])[H]

>  <smiles>  (40) 
[H]c1c([H])c([H])c2c(c1[H])C([H])([H])C([H])([H])C([H])([H])C2([H])N([H])C(=O)C1([H])N(C(=O)C([H])(N([H])C(=O)C([H])(N([H])C([H])([H])[H])C([H])([H])[H])C(C([H])([H])[H])(C([H])([H])[H])C([H])([H])[H])C([H])([H])c2c([H])c(OC([H])([H])C([H])([H])C(=O)N3C([H])(C(=O)N4C([H])([H])C([H])([H])C([H])([H])C([H])(n5nc(-c6c([H])c([H])c(Oc7c([H])c([H])c(F)c([H])c7F)c([H])c6[H])c(C(=O)N([H])[H])c5N([H])[H])C4([H])[H])C([H])([H])C3([H])C([H])([H])[H])c([H])c([H])c2C1([H])[H]

$$$$
40:0:0
     RDKit          3D

 92101  0  0  1  0  0  0  0  0999 V2000
  -28.6190  -21.8150   21.8960 C   0  0  0  0  0  2  0  0  0  0  0  0
  -28.1110  -23.2580   21.6460 C   0  0  0  0  0  2  0  0  0  0  0  0
  -28.8660  -21.2440   20.4890 C   0  0  0  0  0  3  0  0  0  0  0  0
  -28.9820  -23.7850   20.4870 C   0  0  0  0  0  3  0  0  0  0  0  0
  -29.3300  -22.4880   19.7360 N   0  0  0  0  0  4  0  0  0  0  0  0
  -28.9360  -22.4700   18.8090 H   0  0  0  0  0  0  0  0  0  0  0  0
  -30.3310  -22.4420   19.6350 H   0  0  0  0  0  0  0  0  0  0  0  0
  -29.1660  -18.5290   20.4020 C   0  0  0  0  0  3  0  0  0  0  0  0
  -31.4320  -17.9990   20.4930 C   0  0  0  0  0  3  0  0  0  0  0  0
  -30.1720  -17.4530   20.4380 C   0  0  0  0  0  0  0  0  0  0  0  0
  -29.6450  -19.8560   20.4360 C   0  0  0  0  0  0  0  0  0  0  0  0
  -31.3970  -19.7660   20.5010 S   0  0  0  0  0  0  0  0  0  0  0  0
  -30.6650  -14.8680   20.1950 C   0  0  0  0  0  0  0  0  0  0  0  0
  -30.4230  -12.6150   19.1360 C   0  0  0  0  0  2  0  0  0  0  0  0
  -29.4400  -12.7150   17.9480 C   0  0  0  0  0  2  0  0  0  0  0  0
  -27.9860  -12.5360   18.4250 C   0  0  0  0  0  2  0  0  0  0  0  0
  -27.6590  -13.3930   19.6780 C   0  0  0  0  0  3  0  0  0  0  0  0
  -28.7580  -13.2780   20.7580 C   0  0  0  0  0  2  0  0  0  0  0  0
  -30.0330  -13.6440   20.1250 N   0  0  0  0  0  0  0  0  0  0  0  0
  -31.8440  -14.9620   19.8390 O   0  0  0  0  0  0  0  0  0  0  0  0
  -29.8860  -15.9890   20.4580 N   0  0  0  0  0  0  0  0  0  0  0  0
  -28.9230  -15.7570   20.6460 H   0  0  0  0  0  0  0  0  0  0  0  0
  -25.2900  -13.9640   20.4780 C   0  0  0  0  0  0  0  0  0  0  0  0
  -24.2380  -13.1800   20.8650 C   0  0  0  0  0  0  0  0  0  0  0  0
  -24.7030  -11.8320   20.8000 C   0  0  0  0  0  0  0  0  0  0  0  0
  -26.3290  -13.0920   20.2000 N   0  0  0  0  0  0  0  0  0  0  0  0
  -25.9850  -11.8040   20.4580 N   0  0  0  0  0  0  0  0  0  0  0  0
  -23.9860  -10.5630   20.9870 C   0  0  0  0  0  0  0  0  0  0  0  0
  -24.4250   -9.6000   21.9210 C   0  0  0  0  0  3  0  0  0  0  0  0
  -23.7090   -8.3980   22.0980 C   0  0  0  0  0  3  0  0  0  0  0  0
  -22.5380   -8.1500   21.3420 C   0  0  0  0  0  0  0  0  0  0  0  0
  -22.1190   -9.1020   20.3980 C   0  0  0  0  0  3  0  0  0  0  0  0
  -22.8360  -10.2970   20.2180 C   0  0  0  0  0  3  0  0  0  0  0  0
  -21.7920   -6.9990   21.4300 O   0  0  0  0  0  0  0  0  0  0  0  0
  -21.7150   -6.2790   22.5950 C   0  0  0  0  0  0  0  0  0  0  0  0
  -21.2080   -6.8380   23.7880 C   0  0  0  0  0  3  0  0  0  0  0  0
  -21.0870   -6.0410   24.9430 C   0  0  0  0  0  3  0  0  0  0  0  0
  -21.4600   -4.6840   24.9050 C   0  0  0  0  0  0  0  0  0  0  0  0
  -21.9570   -4.1230   23.7160 C   0  0  0  0  0  3  0  0  0  0  0  0
  -22.0820   -4.9190   22.5640 C   0  0  0  0  0  0  0  0  0  0  0  0
  -22.5450   -4.3680   21.4150 F   0  0  0  0  0  0  0  0  0  0  0  0
  -21.3350   -3.9150   26.0120 F   0  0  0  0  0  0  0  0  0  0  0  0
  -22.8480  -13.6480   21.1850 C   0  0  0  0  0  0  0  0  0  0  0  0
  -22.1460  -12.9290   22.0540 N   0  0  0  0  0  0  0  0  0  0  0  0
  -22.3960  -14.6830   20.6980 O   0  0  0  0  0  0  0  0  0  0  0  0
  -22.5260  -12.0880   22.4650 H   0  0  0  0  0  0  0  0  0  0  0  0
  -21.2170  -13.2250   22.3160 H   0  0  0  0  0  0  0  0  0  0  0  0
  -25.4440  -15.3360   20.3120 N   0  0  0  0  0  0  0  0  0  0  0  0
  -24.6760  -15.9840   20.4550 H   0  0  0  0  0  0  0  0  0  0  0  0
  -26.2610  -15.7790   19.9150 H   0  0  0  0  0  0  0  0  0  0  0  0
  -28.3710  -25.0600   19.6720 C   0  0  0  0  0  2  0  0  0  0  0  0
  -28.3720  -26.4760   20.2240 O   0  0  0  0  0  0  0  0  0  0  0  0
  -24.6230  -31.9450   23.2330 C   0  0  0  0  0  0  0  0  0  0  0  0
  -27.2570  -27.3570   20.1490 C   0  0  0  0  0  0  0  0  0  0  0  0
  -23.4340  -30.5450   21.5920 C   0  0  0  0  0  3  0  0  0  0  0  0
  -24.8930  -29.0100   20.1520 C   0  0  0  0  0  0  0  0  0  0  0  0
  -25.9800  -30.8580   21.4200 C   0  0  0  0  0  2  0  0  0  0  0  0
  -26.0620  -29.4800   20.7610 C   0  0  0  0  0  0  0  0  0  0  0  0
  -27.2430  -28.6650   20.7520 C   0  0  0  0  0  3  0  0  0  0  0  0
  -26.0580  -26.9690   19.5000 C   0  0  0  0  0  3  0  0  0  0  0  0
  -24.8990  -27.7640   19.5150 C   0  0  0  0  0  3  0  0  0  0  0  0
  -23.6550  -29.8840   20.2070 C   0  0  0  0  0  2  0  0  0  0  0  0
  -24.6990  -31.1360   22.1360 N   0  0  0  0  0  0  0  0  0  0  0  0
  -23.5370  -32.2150   23.7660 O   0  0  0  0  0  0  0  0  0  0  0  0
  -22.7750  -29.5180   22.5430 C   0  0  0  0  0  0  0  0  0  0  0  0
  -21.4500  -29.3310   22.4150 N   0  0  0  0  0  0  0  0  0  0  0  0
  -23.4560  -28.8930   23.3610 O   0  0  0  0  0  0  0  0  0  0  0  0
  -20.9580  -29.8850   21.7280 H   0  0  0  0  0  0  0  0  0  0  0  0
  -18.0770  -28.1260   22.9310 C   0  0  0  0  0  0  0  0  0  0  0  0
  -20.6390  -28.3870   23.1840 C   0  0  0  0  0  3  0  0  0  0  0  0
  -20.7370  -26.9620   22.5940 C   0  0  0  0  0  2  0  0  0  0  0  0
  -19.6290  -26.6460   21.5840 C   0  0  0  0  0  2  0  0  0  0  0  0
  -18.2510  -26.7840   22.2360 C   0  0  0  0  0  2  0  0  0  0  0  0
  -19.1990  -28.8840   23.3600 C   0  0  0  0  0  0  0  0  0  0  0  0
  -18.9820  -30.1400   23.9680 C   0  0  0  0  0  3  0  0  0  0  0  0
  -17.6780  -30.6380   24.1480 C   0  0  0  0  0  3  0  0  0  0  0  0
  -16.5710  -29.8750   23.7360 C   0  0  0  0  0  3  0  0  0  0  0  0
  -16.7710  -28.6210   23.1340 C   0  0  0  0  0  3  0  0  0  0  0  0
  -25.9000  -32.5840   23.8600 C   0  0  0  0  0  3  0  0  0  0  0  0
  -25.5820  -33.9830   24.1850 N   0  0  0  0  0  0  0  0  0  0  0  0
  -25.9040  -35.0370   23.4220 C   0  0  0  0  0  0  0  0  0  0  0  0
  -26.5750  -34.9340   22.3900 O   0  0  0  0  0  0  0  0  0  0  0  0
  -24.9860  -34.1380   24.9860 H   0  0  0  0  0  0  0  0  0  0  0  0
  -24.1730  -36.8240   23.0580 C   0  0  0  0  0  1  0  0  0  0  0  0
  -25.4090  -36.4240   23.8780 C   0  0  0  0  0  3  0  0  0  0  0  0
  -27.5270  -37.3230   24.7340 C   0  0  0  0  0  1  0  0  0  0  0  0
  -26.4380  -37.4820   23.7720 N   0  0  0  0  0  0  0  0  0  0  0  0
  -26.0260  -38.4010   23.9060 H   0  0  0  0  0  0  0  0  0  0  0  0
  -26.4100  -31.8240   25.1440 C   0  0  1  0  0  0  0  0  0  0  0  0
  -25.3080  -31.5840   26.2030 C   0  0  0  0  0  1  0  0  0  0  0  0
  -27.0040  -30.4470   24.7680 C   0  0  0  0  0  1  0  0  0  0  0  0
  -27.5530  -32.6260   25.8090 C   0  0  0  0  0  1  0  0  0  0  0  0
  2  1  1  0
  3 11  1  0
  3  1  1  0
  4 51  1  0
  4  2  1  0
  5  4  1  0
  5  3  1  0
  6  5  1  0
  7  5  1  0
  8 11  2  0
  8 10  1  0
  9 12  1  0
 10 21  1  0
 10  9  2  0
 11 12  1  0
 13 21  1  0
 14 19  1  0
 15 16  1  0
 15 14  1  0
 17 16  1  0
 17 26  1  0
 17 18  1  0
 19 13  1  0
 19 18  1  0
 20 13  2  0
 21 22  1  0
 23 24  2  0
 24 43  1  0
 25 24  1  0
 25 28  1  0
 26 27  1  0
 26 23  1  0
 27 25  2  0
 28 29  1  0
 29 30  2  0
 31 34  1  0
 31 30  1  0
 32 31  2  0
 33 32  1  0
 33 28  2  0
 34 35  1  0
 35 36  1  0
 36 37  2  0
 38 37  1  0
 38 42  1  0
 39 38  2  0
 40 35  2  0
 40 39  1  0
 41 40  1  0
 43 44  1  0
 44 47  1  0
 44 46  1  0
 45 43  2  0
 48 49  1  0
 48 23  1  0
 50 48  1  0
 51 52  1  0
 53 64  2  0
 54 52  1  0
 54 59  1  0
 55 63  1  0
 55 65  1  0
 56 62  1  0
 56 58  1  0
 57 63  1  0
 58 57  1  0
 59 58  2  0
 60 61  1  0
 60 54  2  0
 61 56  2  0
 62 55  1  0
 63 53  1  0
 65 67  2  0
 66 65  1  0
 68 66  1  0
 69 78  2  0
 69 74  1  0
 70 66  1  0
 70 74  1  0
 71 70  1  0
 72 73  1  0
 72 71  1  0
 73 69  1  0
 74 75  2  0
 75 76  1  0
 77 76  2  0
 78 77  1  0
 79 53  1  0
 79 80  1  0
 79 89  1  0
 80 83  1  0
 81 85  1  0
 81 80  1  0
 82 81  2  0
 85 84  1  0
 87 85  1  0
 87 88  1  0
 87 86  1  0
 89 92  1  1
 89 90  1  0
 91 89  1  0
M  ISO  4  13 100  21 100  51 101  52 101
M  END
>  <TORSDO>  (41) 
F 18

>  <SCORE>  (41) 
-14.849

>  <name>  (41) 
40

>  <ligand_id>  (41) 
40

>  <original_smiles>  (41) 
[H]c1sc(C2([H])C([H])([H])C([H])([H])C([H])(C([H])([H])Oc3c([H])c([H])c4c(c3[H])C([H])([H])N(C(=O)C([H])(N([H])C(=O)C([H])(N([H])C([H])([H])[H])C([H])([H])[H])C(C([H])([H])[H])(C([H])([H])[H])C([H])([H])[H])C([H])(C(=O)N([H])C3([H])c5c([H])c([H])c([H])c([H])c5C([H])([H])C([H])([H])C3([H])[H])C4([H])[H])[N+]2([H])[H])c([H])c1N([H])C(=O)N1C([H])([H])C([H])([H])C([H])([H])C([H])(n2nc(-c3c([H])c([H])c(Oc4c([H])c([H])c(F)c([H])c4F)c([H])c3[H])c(C(=O)N([H])[H])c2N([H])[H])C1([H])[H]

>  <smiles>  (41) 
[H]c1sc(C2([H])C([H])([H])C([H])([H])C([H])(C([H])([H])Oc3c([H])c([H])c4c(c3[H])C([H])([H])N(C(=O)C([H])(N([H])C(=O)C([H])(N([H])C([H])([H])[H])C([H])([H])[H])C(C([H])([H])[H])(C([H])([H])[H])C([H])([H])[H])C([H])(C(=O)N([H])C3([H])c5c([H])c([H])c([H])c([H])c5C([H])([H])C([H])([H])C3([H])[H])C4([H])[H])[N+]2([H])[H])c([H])c1N([H])C(=O)N1C([H])([H])C([H])([H])C([H])([H])C([H])(n2nc(-c3c([H])c([H])c(Oc4c([H])c([H])c(F)c([H])c4F)c([H])c3[H])c(C(=O)N([H])[H])c2N([H])[H])C1([H])[H]

$$$$
41:0:0
     RDKit          3D

 92101  0  0  1  0  0  0  0  0999 V2000
  -28.8830  -23.8950   20.3730 C   0  0  0  0  0  0  0  0  0  0  0  0
  -28.5390  -25.1280   19.8060 C   0  0  0  0  0  2  0  0  0  0  0  0
  -29.2790  -23.5500   21.8010 C   0  0  0  0  0  3  0  0  0  0  0  0
  -28.9670  -22.5200   19.6380 C   0  0  0  0  0  3  0  0  0  0  0  0
  -29.5740  -22.0000   21.8810 C   0  0  0  0  0  3  0  0  0  0  0  0
  -29.3150  -21.3920   20.5720 N   0  0  0  0  0  0  0  0  0  0  0  0
  -30.3940  -18.6290   18.2690 C   0  0  0  0  0  3  0  0  0  0  0  0
  -30.0590  -19.8740   18.8170 C   0  0  0  0  0  3  0  0  0  0  0  0
  -29.7370  -18.7840   20.9580 C   0  0  0  0  0  3  0  0  0  0  0  0
  -30.3830  -17.4400   19.0230 C   0  0  0  0  0  0  0  0  0  0  0  0
  -29.6980  -20.0300   20.1700 C   0  0  0  0  0  0  0  0  0  0  0  0
  -30.0900  -17.4540   20.4200 C   0  0  0  0  0  0  0  0  0  0  0  0
  -30.5980  -16.1630   18.2320 C   0  0  0  0  0  1  0  0  0  0  0  0
  -30.8050  -14.9880   21.1360 C   0  0  0  0  0  0  0  0  0  0  0  0
  -30.7730  -12.6200   20.3170 C   0  0  0  0  0  2  0  0  0  0  0  0
  -29.9910  -12.5260   18.9860 C   0  0  0  0  0  2  0  0  0  0  0  0
  -28.4750  -12.4060   19.2350 C   0  0  0  0  0  2  0  0  0  0  0  0
  -27.9480  -13.3690   20.3340 C   0  0  0  0  0  3  0  0  0  0  0  0
  -28.8640  -13.3910   21.5750 C   0  0  0  0  0  2  0  0  0  0  0  0
  -30.2120  -13.7400   21.1120 N   0  0  0  0  0  0  0  0  0  0  0  0
  -32.0270  -15.0670   20.9770 O   0  0  0  0  0  0  0  0  0  0  0  0
  -30.0020  -16.1390   21.1620 N   0  0  0  0  0  0  0  0  0  0  0  0
  -29.0930  -15.9660   21.5640 H   0  0  0  0  0  0  0  0  0  0  0  0
  -25.4920  -13.9580   20.7820 C   0  0  0  0  0  0  0  0  0  0  0  0
  -24.3950  -13.1870   21.0500 C   0  0  0  0  0  0  0  0  0  0  0  0
  -24.8630  -11.8380   21.1060 C   0  0  0  0  0  0  0  0  0  0  0  0
  -26.5600  -13.0810   20.6840 N   0  0  0  0  0  0  0  0  0  0  0  0
  -26.1810  -11.8020   20.9450 N   0  0  0  0  0  0  0  0  0  0  0  0
  -24.1250  -10.5760   21.2430 C   0  0  0  0  0  0  0  0  0  0  0  0
  -24.4820   -9.6100   22.2090 C   0  0  0  0  0  3  0  0  0  0  0  0
  -23.7440   -8.4130   22.3330 C   0  0  0  0  0  3  0  0  0  0  0  0
  -22.6320   -8.1740   21.4910 C   0  0  0  0  0  0  0  0  0  0  0  0
  -22.2940   -9.1290   20.5160 C   0  0  0  0  0  3  0  0  0  0  0  0
  -23.0330  -10.3160   20.3900 C   0  0  0  0  0  3  0  0  0  0  0  0
  -21.8720   -7.0290   21.5240 O   0  0  0  0  0  0  0  0  0  0  0  0
  -21.7590   -6.2730   22.6620 C   0  0  0  0  0  0  0  0  0  0  0  0
  -21.2220   -6.8000   23.8560 C   0  0  0  0  0  3  0  0  0  0  0  0
  -21.0590   -5.9680   24.9820 C   0  0  0  0  0  3  0  0  0  0  0  0
  -21.4210   -4.6090   24.9140 C   0  0  0  0  0  0  0  0  0  0  0  0
  -21.9520   -4.0820   23.7240 C   0  0  0  0  0  3  0  0  0  0  0  0
  -22.1160   -4.9100   22.6000 C   0  0  0  0  0  0  0  0  0  0  0  0
  -22.6080   -4.3910   21.4490 F   0  0  0  0  0  0  0  0  0  0  0  0
  -21.2580   -3.8090   25.9930 F   0  0  0  0  0  0  0  0  0  0  0  0
  -22.9750  -13.6620   21.1490 C   0  0  0  0  0  0  0  0  0  0  0  0
  -22.1560  -12.9850   21.9470 N   0  0  0  0  0  0  0  0  0  0  0  0
  -22.5960  -14.6700   20.5550 O   0  0  0  0  0  0  0  0  0  0  0  0
  -22.4710  -12.1700   22.4500 H   0  0  0  0  0  0  0  0  0  0  0  0
  -21.1990  -13.2890   22.0570 H   0  0  0  0  0  0  0  0  0  0  0  0
  -25.6710  -15.3240   20.5890 N   0  0  0  0  0  0  0  0  0  0  0  0
  -24.8930  -15.9760   20.5930 H   0  0  0  0  0  0  0  0  0  0  0  0
  -26.5470  -15.7580   20.3270 H   0  0  0  0  0  0  0  0  0  0  0  0
  -28.5300  -26.4640   20.3270 O   0  0  0  0  0  0  0  0  0  0  0  0
  -24.6090  -31.8600   23.2110 C   0  0  0  0  0  0  0  0  0  0  0  0
  -27.4180  -27.3390   20.1950 C   0  0  0  0  0  0  0  0  0  0  0  0
  -23.4850  -30.4300   21.5450 C   0  0  0  0  0  3  0  0  0  0  0  0
  -25.0110  -28.9280   20.1340 C   0  0  0  0  0  0  0  0  0  0  0  0
  -26.0200  -30.8130   21.4160 C   0  0  0  0  0  2  0  0  0  0  0  0
  -26.1560  -29.4360   20.7610 C   0  0  0  0  0  0  0  0  0  0  0  0
  -27.3580  -28.6520   20.7830 C   0  0  0  0  0  3  0  0  0  0  0  0
  -26.2440  -26.9050   19.5370 C   0  0  0  0  0  3  0  0  0  0  0  0
  -25.0630  -27.6720   19.5100 C   0  0  0  0  0  3  0  0  0  0  0  0
  -23.7480  -29.7680   20.1660 C   0  0  0  0  0  2  0  0  0  0  0  0
  -24.7230  -31.0540   22.1140 N   0  0  0  0  0  0  0  0  0  0  0  0
  -23.5060  -32.1020   23.7250 O   0  0  0  0  0  0  0  0  0  0  0  0
  -22.8330  -29.3910   22.4900 C   0  0  0  0  0  0  0  0  0  0  0  0
  -21.5080  -29.1990   22.3650 N   0  0  0  0  0  0  0  0  0  0  0  0
  -23.5200  -28.7610   23.2990 O   0  0  0  0  0  0  0  0  0  0  0  0
  -21.0120  -29.7590   21.6870 H   0  0  0  0  0  0  0  0  0  0  0  0
  -18.1430  -27.9730   22.8840 C   0  0  0  0  0  0  0  0  0  0  0  0
  -20.7030  -28.2390   23.1230 C   0  0  0  0  0  3  0  0  0  0  0  0
  -20.8020  -26.8230   22.5090 C   0  0  0  0  0  2  0  0  0  0  0  0
  -19.6880  -26.5210   21.5020 C   0  0  0  0  0  2  0  0  0  0  0  0
  -18.3150  -26.6440   22.1690 C   0  0  0  0  0  2  0  0  0  0  0  0
  -19.2640  -28.7300   23.3180 C   0  0  0  0  0  0  0  0  0  0  0  0
  -19.0480  -29.9740   23.9480 C   0  0  0  0  0  3  0  0  0  0  0  0
  -17.7430  -30.4630   24.1470 C   0  0  0  0  0  3  0  0  0  0  0  0
  -16.6360  -29.7040   23.7280 C   0  0  0  0  0  3  0  0  0  0  0  0
  -16.8370  -28.4610   23.1030 C   0  0  0  0  0  3  0  0  0  0  0  0
  -25.8570  -32.5340   23.8600 C   0  0  0  0  0  3  0  0  0  0  0  0
  -25.4950  -33.9210   24.1880 N   0  0  0  0  0  0  0  0  0  0  0  0
  -25.8960  -34.9980   23.4990 C   0  0  0  0  0  0  0  0  0  0  0  0
  -26.6760  -34.9290   22.5460 O   0  0  0  0  0  0  0  0  0  0  0  0
  -24.8130  -34.0480   24.9220 H   0  0  0  0  0  0  0  0  0  0  0  0
  -24.2270  -36.8080   22.9770 C   0  0  0  0  0  1  0  0  0  0  0  0
  -25.3450  -36.3690   23.9370 C   0  0  0  0  0  3  0  0  0  0  0  0
  -27.3370  -37.2210   25.0930 C   0  0  0  0  0  1  0  0  0  0  0  0
  -26.3800  -37.4240   24.0100 N   0  0  0  0  0  0  0  0  0  0  0  0
  -25.9540  -38.3390   24.1290 H   0  0  0  0  0  0  0  0  0  0  0  0
  -26.3710  -31.7780   25.1460 C   0  0  1  0  0  0  0  0  0  0  0  0
  -25.2670  -31.5100   26.1950 C   0  0  0  0  0  1  0  0  0  0  0  0
  -27.0000  -30.4170   24.7690 C   0  0  0  0  0  1  0  0  0  0  0  0
  -27.4880  -32.6050   25.8280 C   0  0  0  0  0  1  0  0  0  0  0  0
  1  3  1  0
  2 52  1  0
  2  1  1  0
  3  5  2  0
  4  1  2  0
  4  6  1  0
  6  5  1  0
  7  8  2  0
  7 10  1  0
  8 11  1  0
 10 12  2  0
 11  6  1  0
 11  9  2  0
 12  9  1  0
 12 22  1  0
 13 10  1  0
 14 22  1  0
 15 20  1  0
 16 17  1  0
 16 15  1  0
 18 17  1  0
 18 27  1  0
 18 19  1  0
 20 14  1  0
 20 19  1  0
 21 14  2  0
 22 23  1  0
 24 25  2  0
 25 26  1  0
 25 44  1  0
 26 29  1  0
 27 24  1  0
 27 28  1  0
 28 26  2  0
 29 30  1  0
 30 31  2  0
 32 35  1  0
 32 31  1  0
 33 32  2  0
 34 33  1  0
 34 29  2  0
 35 36  1  0
 36 37  1  0
 37 38  2  0
 39 38  1  0
 39 43  1  0
 40 39  2  0
 41 36  2  0
 41 40  1  0
 42 41  1  0
 44 45  1  0
 45 48  1  0
 45 47  1  0
 46 44  2  0
 49 50  1  0
 49 24  1  0
 51 49  1  0
 53 64  2  0
 54 52  1  0
 54 59  1  0
 55 63  1  0
 55 65  1  0
 56 62  1  0
 56 58  1  0
 57 63  1  0
 58 59  2  0
 58 57  1  0
 60 54  2  0
 61 60  1  0
 61 56  2  0
 62 55  1  0
 63 53  1  0
 65 67  2  0
 66 65  1  0
 68 66  1  0
 69 78  2  0
 69 74  1  0
 70 66  1  0
 70 74  1  0
 71 70  1  0
 72 73  1  0
 72 71  1  0
 73 69  1  0
 74 75  2  0
 75 76  1  0
 77 76  2  0
 78 77  1  0
 79 53  1  0
 79 80  1  0
 79 89  1  0
 80 83  1  0
 81 85  1  0
 81 80  1  0
 82 81  2  0
 85 84  1  0
 85 87  1  0
 87 88  1  0
 87 86  1  0
 89 92  1  1
 89 90  1  0
 91 89  1  0
M  ISO  4   2 101  14 100  22 100  52 101
M  END
>  <TORSDO>  (42) 
F 17

>  <SCORE>  (42) 
-14.442

>  <name>  (42) 
41

>  <ligand_id>  (42) 
41

>  <original_smiles>  (42) 
[H]C(Oc1c([H])c([H])c2c(c1[H])C([H])([H])N(C(=O)C([H])(N([H])C(=O)C([H])(N([H])C([H])([H])[H])C([H])([H])[H])C(C([H])([H])[H])(C([H])([H])[H])C([H])([H])[H])C([H])(C(=O)N([H])C1([H])c3c([H])c([H])c([H])c([H])c3C([H])([H])C([H])([H])C1([H])[H])C2([H])[H])=C1C([H])([H])N(c2c([H])c([H])c(C([H])([H])[H])c(N([H])C(=O)N3C([H])([H])C([H])([H])C([H])([H])C([H])(n4nc(-c5c([H])c([H])c(Oc6c([H])c([H])c(F)c([H])c6F)c([H])c5[H])c(C(=O)N([H])[H])c4N([H])[H])C3([H])[H])c2[H])C([H])([H])C1([H])[H]

>  <smiles>  (42) 
[H]C(Oc1c([H])c([H])c2c(c1[H])C([H])([H])N(C(=O)C([H])(N([H])C(=O)C([H])(N([H])C([H])([H])[H])C([H])([H])[H])C(C([H])([H])[H])(C([H])([H])[H])C([H])([H])[H])C([H])(C(=O)N([H])C1([H])c3c([H])c([H])c([H])c([H])c3C([H])([H])C([H])([H])C1([H])[H])C2([H])[H])=C1C([H])([H])N(c2c([H])c([H])c(C([H])([H])[H])c(N([H])C(=O)N3C([H])([H])C([H])([H])C([H])([H])C([H])(n4nc(-c5c([H])c([H])c(Oc6c([H])c([H])c(F)c([H])c6F)c([H])c5[H])c(C(=O)N([H])[H])c4N([H])[H])C3([H])[H])c2[H])C([H])([H])C1([H])[H]

$$$$
42:0:0
     RDKit          3D

 94103  0  0  1  0  0  0  0  0999 V2000
  -31.2140  -20.0290   20.6180 C   0  0  0  0  0  3  0  0  0  0  0  0
  -29.3940  -18.4120   20.4800 C   0  0  0  0  0  3  0  0  0  0  0  0
  -31.6680  -17.6270   20.8070 C   0  0  0  0  0  3  0  0  0  0  0  0
  -29.8330  -19.7980   20.4740 C   0  0  0  0  0  0  0  0  0  0  0  0
  -32.1160  -18.9640   20.7840 C   0  0  0  0  0  0  0  0  0  0  0  0
  -30.3030  -17.2880   20.6280 C   0  0  0  0  0  0  0  0  0  0  0  0
  -30.6020  -14.7080   20.3860 C   0  0  0  0  0  0  0  0  0  0  0  0
  -30.3360  -12.4580   19.3520 C   0  0  0  0  0  2  0  0  0  0  0  0
  -29.4070  -12.5680   18.1250 C   0  0  0  0  0  2  0  0  0  0  0  0
  -27.9350  -12.4120   18.5500 C   0  0  0  0  0  2  0  0  0  0  0  0
  -27.5710  -13.2890   19.7780 C   0  0  0  0  0  3  0  0  0  0  0  0
  -28.6260  -13.1870   20.9000 C   0  0  0  0  0  2  0  0  0  0  0  0
  -29.9300  -13.5120   20.3090 N   0  0  0  0  0  0  0  0  0  0  0  0
  -31.7840  -14.7550   20.0390 O   0  0  0  0  0  0  0  0  0  0  0  0
  -29.8760  -15.8650   20.6270 N   0  0  0  0  0  0  0  0  0  0  0  0
  -28.8890  -15.7100   20.7600 H   0  0  0  0  0  0  0  0  0  0  0  0
  -25.1800  -13.8850   20.4930 C   0  0  0  0  0  0  0  0  0  0  0  0
  -24.1120  -13.1120   20.8630 C   0  0  0  0  0  0  0  0  0  0  0  0
  -24.5760  -11.7620   20.8420 C   0  0  0  0  0  0  0  0  0  0  0  0
  -26.2240  -13.0040   20.2650 N   0  0  0  0  0  0  0  0  0  0  0  0
  -25.8680  -11.7220   20.5380 N   0  0  0  0  0  0  0  0  0  0  0  0
  -23.8480  -10.5000   21.0330 C   0  0  0  0  0  0  0  0  0  0  0  0
  -24.2810   -9.5320   21.9670 C   0  0  0  0  0  3  0  0  0  0  0  0
  -23.5530   -8.3360   22.1470 C   0  0  0  0  0  3  0  0  0  0  0  0
  -22.3780   -8.1000   21.3940 C   0  0  0  0  0  0  0  0  0  0  0  0
  -21.9650   -9.0560   20.4480 C   0  0  0  0  0  3  0  0  0  0  0  0
  -22.6940  -10.2430   20.2660 C   0  0  0  0  0  3  0  0  0  0  0  0
  -21.6200   -6.9570   21.4840 O   0  0  0  0  0  0  0  0  0  0  0  0
  -21.5770   -6.2110   22.6330 C   0  0  0  0  0  0  0  0  0  0  0  0
  -21.1660   -6.7640   23.8660 C   0  0  0  0  0  3  0  0  0  0  0  0
  -21.0690   -5.9450   25.0080 C   0  0  0  0  0  3  0  0  0  0  0  0
  -21.3730   -4.5740   24.9190 C   0  0  0  0  0  0  0  0  0  0  0  0
  -21.7770   -4.0200   23.6920 C   0  0  0  0  0  3  0  0  0  0  0  0
  -21.8760   -4.8360   22.5520 C   0  0  0  0  0  0  0  0  0  0  0  0
  -22.2450   -4.2920   21.3670 F   0  0  0  0  0  0  0  0  0  0  0  0
  -21.2730   -3.7850   26.0160 F   0  0  0  0  0  0  0  0  0  0  0  0
  -22.7140  -13.5910   21.1240 C   0  0  0  0  0  0  0  0  0  0  0  0
  -21.9810  -12.8980   21.9880 N   0  0  0  0  0  0  0  0  0  0  0  0
  -22.2800  -14.6140   20.5970 O   0  0  0  0  0  0  0  0  0  0  0  0
  -22.3440  -12.0700   22.4350 H   0  0  0  0  0  0  0  0  0  0  0  0
  -21.0410  -13.2000   22.2060 H   0  0  0  0  0  0  0  0  0  0  0  0
  -25.3400  -15.2550   20.3070 N   0  0  0  0  0  0  0  0  0  0  0  0
  -24.5650  -15.9020   20.4050 H   0  0  0  0  0  0  0  0  0  0  0  0
  -26.1770  -15.6940   19.9430 H   0  0  0  0  0  0  0  0  0  0  0  0
  -29.0550  -21.7890   18.9150 C   0  0  0  0  0  2  0  0  0  0  0  0
  -28.5100  -23.2480   19.0240 C   0  0  0  0  0  2  0  0  0  0  0  0
  -28.9050  -21.0620   20.2740 C   0  0  0  0  0  3  0  0  0  0  0  0
  -29.0240  -23.9000   20.3210 C   0  0  0  0  0  3  0  0  0  0  0  0
  -29.1470  -22.4500   21.4890 S   0  0  0  0  0  0  0  0  0  0  0  0
  -28.1950  -25.1640   20.8490 C   0  0  0  0  0  2  0  0  0  0  0  0
  -28.3840  -26.5090   20.2550 O   0  0  0  0  0  0  0  0  0  0  0  0
  -24.6110  -31.8960   23.2370 C   0  0  0  0  0  0  0  0  0  0  0  0
  -27.2660  -27.3510   20.2240 C   0  0  0  0  0  0  0  0  0  0  0  0
  -23.4230  -30.4870   21.5920 C   0  0  0  0  0  3  0  0  0  0  0  0
  -24.8910  -28.9370   20.1810 C   0  0  0  0  0  0  0  0  0  0  0  0
  -25.9570  -30.8250   21.4170 C   0  0  0  0  0  2  0  0  0  0  0  0
  -26.0520  -29.4410   20.7830 C   0  0  0  0  0  0  0  0  0  0  0  0
  -27.2470  -28.6620   20.7930 C   0  0  0  0  0  3  0  0  0  0  0  0
  -26.0900  -26.8990   19.5900 C   0  0  0  0  0  3  0  0  0  0  0  0
  -24.9120  -27.6710   19.5720 C   0  0  0  0  0  3  0  0  0  0  0  0
  -23.6490  -29.8040   20.2150 C   0  0  0  0  0  2  0  0  0  0  0  0
  -24.6810  -31.0870   22.1390 N   0  0  0  0  0  0  0  0  0  0  0  0
  -23.5250  -32.1720   23.7640 O   0  0  0  0  0  0  0  0  0  0  0  0
  -22.7580  -29.4730   22.5530 C   0  0  0  0  0  0  0  0  0  0  0  0
  -21.4310  -29.3000   22.4240 N   0  0  0  0  0  0  0  0  0  0  0  0
  -23.4340  -28.8440   23.3710 O   0  0  0  0  0  0  0  0  0  0  0  0
  -20.9450  -29.8610   21.7400 H   0  0  0  0  0  0  0  0  0  0  0  0
  -18.0470  -28.1260   22.9330 C   0  0  0  0  0  0  0  0  0  0  0  0
  -20.6090  -28.3640   23.1920 C   0  0  0  0  0  3  0  0  0  0  0  0
  -20.6950  -26.9340   22.6080 C   0  0  0  0  0  2  0  0  0  0  0  0
  -19.5860  -26.6280   21.5960 C   0  0  0  0  0  2  0  0  0  0  0  0
  -18.2090  -26.7800   22.2480 C   0  0  0  0  0  2  0  0  0  0  0  0
  -19.1750  -28.8760   23.3620 C   0  0  0  0  0  0  0  0  0  0  0  0
  -18.9690  -30.1370   23.9630 C   0  0  0  0  0  3  0  0  0  0  0  0
  -17.6690  -30.6490   24.1370 C   0  0  0  0  0  3  0  0  0  0  0  0
  -16.5560  -29.8950   23.7240 C   0  0  0  0  0  3  0  0  0  0  0  0
  -16.7460  -28.6350   23.1280 C   0  0  0  0  0  3  0  0  0  0  0  0
  -25.8900  -32.5320   23.8660 C   0  0  0  0  0  3  0  0  0  0  0  0
  -26.4000  -31.7670   25.1480 C   0  0  1  0  0  0  0  0  0  0  0  0
  -25.2990  -31.5310   26.2100 C   0  0  0  0  0  1  0  0  0  0  0  0
  -26.9860  -30.3890   24.7620 C   0  0  0  0  0  1  0  0  0  0  0  0
  -27.5460  -32.5630   25.8140 C   0  0  0  0  0  1  0  0  0  0  0  0
  -25.5760  -33.9310   24.1910 N   0  0  0  0  0  0  0  0  0  0  0  0
  -25.9110  -34.9830   23.4310 C   0  0  0  0  0  0  0  0  0  0  0  0
  -26.5890  -34.8790   22.4050 O   0  0  0  0  0  0  0  0  0  0  0  0
  -24.9740  -34.0860   24.9860 H   0  0  0  0  0  0  0  0  0  0  0  0
  -24.1840  -36.7730   23.0600 C   0  0  0  0  0  1  0  0  0  0  0  0
  -25.4190  -36.3710   23.8820 C   0  0  0  0  0  3  0  0  0  0  0  0
  -27.5490  -37.2610   24.7210 C   0  0  0  0  0  1  0  0  0  0  0  0
  -26.4520  -37.4240   23.7710 N   0  0  0  0  0  0  0  0  0  0  0  0
  -26.0450  -38.3450   23.9150 H   0  0  0  0  0  0  0  0  0  0  0  0
  -33.4740  -19.2410   20.9140 N   0  0  0  0  0  0  0  0  0  0  0  0
  -33.8020  -20.1150   20.5120 H   0  0  0  0  0  0  0  0  0  0  0  0
  -34.1200  -18.4780   20.7330 H   0  0  0  0  0  0  0  0  0  0  0  0
  1  5  1  0
  2  6  2  0
  4  2  1  0
  4  1  2  0
  5  3  2  0
  5 92  1  0
  6  3  1  0
  7 15  1  0
  8 13  1  0
  9 10  1  0
  9  8  1  0
 11 10  1  0
 11 20  1  0
 11 12  1  0
 13  7  1  0
 13 12  1  0
 14  7  2  0
 15  6  1  0
 15 16  1  0
 17 18  2  0
 18 37  1  0
 19 18  1  0
 19 22  1  0
 20 17  1  0
 20 21  1  0
 21 19  2  0
 22 23  1  0
 23 24  2  0
 25 28  1  0
 25 24  1  0
 26 25  2  0
 27 26  1  0
 27 22  2  0
 28 29  1  0
 29 30  1  0
 30 31  2  0
 32 31  1  0
 32 36  1  0
 33 32  2  0
 34 29  2  0
 34 33  1  0
 35 34  1  0
 37 38  1  0
 38 41  1  0
 38 40  1  0
 39 37  2  0
 42 43  1  0
 42 17  1  0
 44 42  1  0
 45 46  1  0
 45 47  1  0
 46 48  1  0
 47  4  1  0
 47 49  1  0
 48 50  1  0
 48 49  1  0
 51 50  1  0
 52 63  2  0
 53 51  1  0
 53 58  1  0
 54 62  1  0
 54 64  1  0
 55 61  1  0
 55 57  1  0
 56 62  1  0
 57 58  2  0
 57 56  1  0
 59 53  2  0
 60 59  1  0
 60 55  2  0
 61 54  1  0
 62 52  1  0
 64 66  2  0
 65 64  1  0
 67 65  1  0
 68 77  2  0
 68 73  1  0
 69 65  1  0
 69 73  1  0
 70 69  1  0
 71 72  1  0
 71 70  1  0
 72 68  1  0
 73 74  2  0
 74 75  1  0
 76 75  2  0
 77 76  1  0
 78 52  1  0
 78 83  1  0
 78 79  1  0
 79 82  1  1
 79 80  1  0
 81 79  1  0
 83 86  1  0
 84 88  1  0
 84 83  1  0
 85 84  2  0
 88 87  1  0
 90 88  1  0
 90 91  1  0
 90 89  1  0
 93 92  1  0
 94 92  1  0
M  ISO  4   7 100  15 100  50 101  51 101
M  END
>  <TORSDO>  (43) 
F 19

>  <SCORE>  (43) 
-14.777

>  <name>  (43) 
42

>  <ligand_id>  (43) 
42

>  <original_smiles>  (43) 
[H]c1c([H])c([H])c2c(c1[H])C([H])([H])C([H])([H])C([H])([H])C2([H])N([H])C(=O)C1([H])N(C(=O)C([H])(N([H])C(=O)C([H])(N([H])C([H])([H])[H])C([H])([H])[H])C(C([H])([H])[H])(C([H])([H])[H])C([H])([H])[H])C([H])([H])c2c([H])c(OC([H])([H])C3([H])SC([H])(c4c([H])c(N([H])[H])c([H])c(N([H])C(=O)N5C([H])([H])C([H])([H])C([H])([H])C([H])(n6nc(-c7c([H])c([H])c(Oc8c([H])c([H])c(F)c([H])c8F)c([H])c7[H])c(C(=O)N([H])[H])c6N([H])[H])C5([H])[H])c4[H])C([H])([H])C3([H])[H])c([H])c([H])c2C1([H])[H]

>  <smiles>  (43) 
[H]c1c([H])c([H])c2c(c1[H])C([H])([H])C([H])([H])C([H])([H])C2([H])N([H])C(=O)C1([H])N(C(=O)C([H])(N([H])C(=O)C([H])(N([H])C([H])([H])[H])C([H])([H])[H])C(C([H])([H])[H])(C([H])([H])[H])C([H])([H])[H])C([H])([H])c2c([H])c(OC([H])([H])C3([H])SC([H])(c4c([H])c(N([H])[H])c([H])c(N([H])C(=O)N5C([H])([H])C([H])([H])C([H])([H])C([H])(n6nc(-c7c([H])c([H])c(Oc8c([H])c([H])c(F)c([H])c8F)c([H])c7[H])c(C(=O)N([H])[H])c6N([H])[H])C5([H])[H])c4[H])C([H])([H])C3([H])[H])c([H])c([H])c2C1([H])[H]

$$$$
43:0:0
     RDKit          3D

 94103  0  0  1  0  0  0  0  0999 V2000
  -28.7330  -23.4750   20.1130 C   0  0  0  0  0  0  0  0  0  0  0  0
  -29.9830  -21.2070   19.1290 C   0  0  0  0  0  3  0  0  0  0  0  0
  -29.4900  -24.9520   18.4060 C   0  0  0  0  0  2  0  0  0  0  0  0
  -29.8390  -23.4890   18.0570 C   0  0  0  0  0  2  0  0  0  0  0  0
  -28.3520  -24.8900   19.4090 C   0  0  0  0  0  3  0  0  0  0  0  0
  -29.5240  -22.5750   19.1960 N   0  0  0  0  0  0  0  0  0  0  0  0
  -30.7200  -20.9350   18.0310 N   0  0  0  0  0  0  0  0  0  0  0  0
  -28.3530  -23.1280   21.2390 O   0  0  0  0  0  0  0  0  0  0  0  0
  -31.1040  -20.0110   17.9070 H   0  0  0  0  0  0  0  0  0  0  0  0
  -30.9310  -21.6260   17.3300 H   0  0  0  0  0  0  0  0  0  0  0  0
  -30.1910  -18.5020   19.4480 C   0  0  0  0  0  3  0  0  0  0  0  0
  -29.5150  -19.8110   21.2730 C   0  0  0  0  0  3  0  0  0  0  0  0
  -29.8830  -19.8850   19.9590 C   0  0  0  0  0  0  0  0  0  0  0  0
  -30.0470  -17.4100   20.3420 C   0  0  0  0  0  0  0  0  0  0  0  0
  -29.5170  -18.1410   21.8590 S   0  0  0  0  0  0  0  0  0  0  0  0
  -30.8700  -14.9220   19.8820 C   0  0  0  0  0  0  0  0  0  0  0  0
  -30.6690  -12.6300   18.8470 C   0  0  0  0  0  2  0  0  0  0  0  0
  -29.6420  -12.6950   17.6910 C   0  0  0  0  0  2  0  0  0  0  0  0
  -28.2040  -12.5120   18.2160 C   0  0  0  0  0  2  0  0  0  0  0  0
  -27.9130  -13.3840   19.4640 C   0  0  0  0  0  3  0  0  0  0  0  0
  -29.0430  -13.2640   20.5110 C   0  0  0  0  0  2  0  0  0  0  0  0
  -30.2950  -13.6620   19.8470 N   0  0  0  0  0  0  0  0  0  0  0  0
  -32.0200  -15.0700   19.4500 O   0  0  0  0  0  0  0  0  0  0  0  0
  -30.0380  -15.9860   20.2560 N   0  0  0  0  0  0  0  0  0  0  0  0
  -29.2020  -15.5990   20.6660 H   0  0  0  0  0  0  0  0  0  0  0  0
  -25.5890  -13.9980   20.3610 C   0  0  0  0  0  0  0  0  0  0  0  0
  -24.5360  -13.2340   20.7830 C   0  0  0  0  0  0  0  0  0  0  0  0
  -24.9700  -11.8750   20.6870 C   0  0  0  0  0  0  0  0  0  0  0  0
  -26.5980  -13.1060   20.0340 N   0  0  0  0  0  0  0  0  0  0  0  0
  -26.2370  -11.8230   20.2910 N   0  0  0  0  0  0  0  0  0  0  0  0
  -24.2330  -10.6220   20.8890 C   0  0  0  0  0  0  0  0  0  0  0  0
  -24.6480   -9.6650   21.8410 C   0  0  0  0  0  3  0  0  0  0  0  0
  -23.9100   -8.4770   22.0310 C   0  0  0  0  0  3  0  0  0  0  0  0
  -22.7420   -8.2360   21.2670 C   0  0  0  0  0  0  0  0  0  0  0  0
  -22.3470   -9.1820   20.3040 C   0  0  0  0  0  3  0  0  0  0  0  0
  -23.0860  -10.3610   20.1120 C   0  0  0  0  0  3  0  0  0  0  0  0
  -21.9780   -7.0980   21.3660 O   0  0  0  0  0  0  0  0  0  0  0  0
  -21.8320   -6.4310   22.5550 C   0  0  0  0  0  0  0  0  0  0  0  0
  -21.3100   -7.0610   23.7060 C   0  0  0  0  0  3  0  0  0  0  0  0
  -21.1100   -6.3190   24.8870 C   0  0  0  0  0  3  0  0  0  0  0  0
  -21.4250   -4.9480   24.9190 C   0  0  0  0  0  0  0  0  0  0  0  0
  -21.9410   -4.3170   23.7730 C   0  0  0  0  0  3  0  0  0  0  0  0
  -22.1410   -5.0560   22.5940 C   0  0  0  0  0  0  0  0  0  0  0  0
  -22.6190   -4.4390   21.4860 F   0  0  0  0  0  0  0  0  0  0  0  0
  -21.2280   -4.2310   26.0500 F   0  0  0  0  0  0  0  0  0  0  0  0
  -23.1690  -13.7280   21.1580 C   0  0  0  0  0  0  0  0  0  0  0  0
  -22.4940  -13.0340   22.0680 N   0  0  0  0  0  0  0  0  0  0  0  0
  -22.7110  -14.7660   20.6810 O   0  0  0  0  0  0  0  0  0  0  0  0
  -22.8780  -12.1930   22.4740 H   0  0  0  0  0  0  0  0  0  0  0  0
  -21.5800  -13.3480   22.3620 H   0  0  0  0  0  0  0  0  0  0  0  0
  -25.7660  -15.3700   20.2030 N   0  0  0  0  0  0  0  0  0  0  0  0
  -25.0100  -16.0280   20.3590 H   0  0  0  0  0  0  0  0  0  0  0  0
  -26.5770  -15.8000   19.7780 H   0  0  0  0  0  0  0  0  0  0  0  0
  -28.2580  -26.2470   20.1300 O   0  0  0  0  0  0  0  0  0  0  0  0
  -24.5270  -31.8040   23.0930 C   0  0  0  0  0  0  0  0  0  0  0  0
  -27.1590  -27.1630   20.0320 C   0  0  0  0  0  0  0  0  0  0  0  0
  -23.3320  -30.3890   21.4650 C   0  0  0  0  0  3  0  0  0  0  0  0
  -24.7900  -28.8420   20.0290 C   0  0  0  0  0  0  0  0  0  0  0  0
  -25.8770  -30.7000   21.2770 C   0  0  0  0  0  2  0  0  0  0  0  0
  -25.9650  -29.3140   20.6250 C   0  0  0  0  0  0  0  0  0  0  0  0
  -27.1440  -28.4880   20.6170 C   0  0  0  0  0  3  0  0  0  0  0  0
  -25.9490  -26.7800   19.4080 C   0  0  0  0  0  3  0  0  0  0  0  0
  -24.7920  -27.5850   19.4100 C   0  0  0  0  0  3  0  0  0  0  0  0
  -23.5490  -29.7160   20.0850 C   0  0  0  0  0  2  0  0  0  0  0  0
  -24.5990  -30.9850   22.0000 N   0  0  0  0  0  0  0  0  0  0  0  0
  -23.4410  -32.0710   23.6300 O   0  0  0  0  0  0  0  0  0  0  0  0
  -22.6790  -29.3710   22.4330 C   0  0  0  0  0  0  0  0  0  0  0  0
  -21.3540  -29.1760   22.3140 N   0  0  0  0  0  0  0  0  0  0  0  0
  -23.3670  -28.7590   23.2540 O   0  0  0  0  0  0  0  0  0  0  0  0
  -20.8540  -29.7220   21.6270 H   0  0  0  0  0  0  0  0  0  0  0  0
  -17.9980  -27.9200   22.8340 C   0  0  0  0  0  0  0  0  0  0  0  0
  -20.5530  -28.2290   23.0940 C   0  0  0  0  0  3  0  0  0  0  0  0
  -20.6790  -26.7950   22.5300 C   0  0  0  0  0  2  0  0  0  0  0  0
  -19.5810  -26.4440   21.5210 C   0  0  0  0  0  2  0  0  0  0  0  0
  -18.1970  -26.5700   22.1660 C   0  0  0  0  0  2  0  0  0  0  0  0
  -19.1040  -28.7060   23.2560 C   0  0  0  0  0  0  0  0  0  0  0  0
  -18.8640  -29.9680   23.8400 C   0  0  0  0  0  3  0  0  0  0  0  0
  -17.5510  -30.4460   24.0090 C   0  0  0  0  0  3  0  0  0  0  0  0
  -16.4600  -29.6590   23.6010 C   0  0  0  0  0  3  0  0  0  0  0  0
  -16.6840  -28.3990   23.0190 C   0  0  0  0  0  3  0  0  0  0  0  0
  -25.8010  -32.4590   23.7070 C   0  0  0  0  0  3  0  0  0  0  0  0
  -25.4670  -33.8470   24.0560 N   0  0  0  0  0  0  0  0  0  0  0  0
  -25.7620  -34.9160   23.3040 C   0  0  0  0  0  0  0  0  0  0  0  0
  -26.4110  -34.8380   22.2580 O   0  0  0  0  0  0  0  0  0  0  0  0
  -24.8860  -33.9820   24.8710 H   0  0  0  0  0  0  0  0  0  0  0  0
  -23.9870  -36.6770   23.0130 C   0  0  0  0  0  1  0  0  0  0  0  0
  -25.2550  -36.2890   23.7900 C   0  0  0  0  0  3  0  0  0  0  0  0
  -27.3870  -37.2140   24.5830 C   0  0  0  0  0  1  0  0  0  0  0  0
  -26.2620  -37.3650   23.6640 N   0  0  0  0  0  0  0  0  0  0  0  0
  -25.8380  -38.2750   23.8310 H   0  0  0  0  0  0  0  0  0  0  0  0
  -26.3440  -31.6880   24.9720 C   0  0  1  0  0  0  0  0  0  0  0  0
  -25.2670  -31.4220   26.0480 C   0  0  0  0  0  1  0  0  0  0  0  0
  -26.9510  -30.3250   24.5650 C   0  0  0  0  0  1  0  0  0  0  0  0
  -27.4860  -32.4990   25.6280 C   0  0  0  0  0  1  0  0  0  0  0  0
  1  8  2  0
  2  7  1  0
  2  6  1  0
  2 13  1  0
  3  5  1  0
  4  3  1  0
  4  6  1  0
  5  1  1  0
  5 54  1  0
  6  1  1  0
  9  7  1  0
 10  7  1  0
 11 13  1  0
 11 14  2  0
 12 15  1  0
 13 12  2  0
 14 15  1  0
 16 24  1  0
 17 22  1  0
 18 19  1  0
 18 17  1  0
 20 19  1  0
 20 29  1  0
 20 21  1  0
 22 16  1  0
 22 21  1  0
 23 16  2  0
 24 14  1  0
 24 25  1  0
 26 27  2  0
 27 46  1  0
 28 27  1  0
 28 31  1  0
 29 30  1  0
 29 26  1  0
 30 28  2  0
 31 32  1  0
 32 33  2  0
 34 37  1  0
 34 33  1  0
 35 34  2  0
 36 35  1  0
 36 31  2  0
 37 38  1  0
 38 43  2  0
 38 39  1  0
 39 40  2  0
 40 41  1  0
 41 45  1  0
 42 41  2  0
 43 42  1  0
 44 43  1  0
 46 47  1  0
 47 50  1  0
 47 49  1  0
 48 46  2  0
 51 52  1  0
 51 26  1  0
 53 51  1  0
 55 66  2  0
 56 54  1  0
 56 61  1  0
 57 65  1  0
 57 67  1  0
 58 64  1  0
 58 60  1  0
 59 65  1  0
 60 59  1  0
 61 60  2  0
 62 63  1  0
 62 56  2  0
 63 58  2  0
 64 57  1  0
 65 55  1  0
 67 69  2  0
 68 67  1  0
 70 68  1  0
 71 80  2  0
 71 76  1  0
 72 68  1  0
 72 76  1  0
 73 72  1  0
 74 75  1  0
 74 73  1  0
 75 71  1  0
 76 77  2  0
 77 78  1  0
 79 78  2  0
 80 79  1  0
 81 55  1  0
 81 82  1  0
 81 91  1  0
 82 85  1  0
 83 87  1  0
 83 82  1  0
 84 83  2  0
 87 86  1  0
 89 87  1  0
 89 90  1  0
 89 88  1  0
 91 94  1  1
 91 92  1  0
 93 91  1  0
M  ISO  4   5 101  16 100  24 100  54 101
M  END
>  <TORSDO>  (44) 
F 17

>  <SCORE>  (44) 
-13.517

>  <name>  (44) 
43

>  <ligand_id>  (44) 
43

>  <original_smiles>  (44) 
[H]c1sc(N([H])C(=O)N2C([H])([H])C([H])([H])C([H])([H])C([H])(n3nc(-c4c([H])c([H])c(Oc5c([H])c([H])c(F)c([H])c5F)c([H])c4[H])c(C(=O)N([H])[H])c3N([H])[H])C2([H])[H])c([H])c1C(N1C(=O)C([H])(Oc2c([H])c([H])c3c(c2[H])C([H])([H])N(C(=O)C([H])(N([H])C(=O)C([H])(N([H])C([H])([H])[H])C([H])([H])[H])C(C([H])([H])[H])(C([H])([H])[H])C([H])([H])[H])C([H])(C(=O)N([H])C2([H])c4c([H])c([H])c([H])c([H])c4C([H])([H])C([H])([H])C2([H])[H])C3([H])[H])C([H])([H])C1([H])[H])=[N+]([H])[H]

>  <smiles>  (44) 
[H]c1sc(N([H])C(=O)N2C([H])([H])C([H])([H])C([H])([H])C([H])(n3nc(-c4c([H])c([H])c(Oc5c([H])c([H])c(F)c([H])c5F)c([H])c4[H])c(C(=O)N([H])[H])c3N([H])[H])C2([H])[H])c([H])c1C(N1C(=O)C([H])(Oc2c([H])c([H])c3c(c2[H])C([H])([H])N(C(=O)C([H])(N([H])C(=O)C([H])(N([H])C([H])([H])[H])C([H])([H])[H])C(C([H])([H])[H])(C([H])([H])[H])C([H])([H])[H])C([H])(C(=O)N([H])C2([H])c4c([H])c([H])c([H])c([H])c4C([H])([H])C([H])([H])C2([H])[H])C3([H])[H])C([H])([H])C1([H])[H])=[N+]([H])[H]

$$$$
44:0:0
     RDKit          3D

 94103  0  0  1  0  0  0  0  0999 V2000
  -30.2950  -23.4620   19.4880 C   0  0  0  0  0  2  0  0  0  0  0  0
  -30.4270  -21.9300   19.2200 C   0  0  0  0  0  2  0  0  0  0  0  0
  -28.7170  -22.1320   20.7240 C   0  0  0  0  0  2  0  0  0  0  0  0
  -29.1550  -23.6750   20.5080 C   0  0  0  0  0  3  0  0  0  0  0  0
  -29.9420  -21.1060   20.4560 C   0  0  1  0  0  0  0  0  0  0  0  0
  -29.3870  -18.9710   18.8640 C   0  0  0  0  0  3  0  0  0  0  0  0
  -29.4930  -17.5400   18.9690 C   0  0  0  0  0  3  0  0  0  0  0  0
  -29.6990  -19.5590   20.0690 C   0  0  0  0  0  0  0  0  0  0  0  0
  -29.8520  -17.2350   20.2530 C   0  0  0  0  0  0  0  0  0  0  0  0
  -29.9190  -18.4650   20.9630 O   0  0  0  0  0  0  0  0  0  0  0  0
  -30.6070  -14.7990   20.3900 C   0  0  0  0  0  0  0  0  0  0  0  0
  -30.4080  -12.4950   19.4230 C   0  0  0  0  0  2  0  0  0  0  0  0
  -29.4860  -12.5790   18.1850 C   0  0  0  0  0  2  0  0  0  0  0  0
  -28.0100  -12.4150   18.6000 C   0  0  0  0  0  2  0  0  0  0  0  0
  -27.6330  -13.3000   19.8210 C   0  0  0  0  0  3  0  0  0  0  0  0
  -28.6870  -13.2090   20.9490 C   0  0  0  0  0  2  0  0  0  0  0  0
  -29.9910  -13.5610   20.3670 N   0  0  0  0  0  0  0  0  0  0  0  0
  -31.7680  -14.9020   19.9830 O   0  0  0  0  0  0  0  0  0  0  0  0
  -29.8720  -15.9230   20.7720 N   0  0  0  0  0  0  0  0  0  0  0  0
  -29.0310  -15.6750   21.2660 H   0  0  0  0  0  0  0  0  0  0  0  0
  -25.2420  -13.8970   20.5400 C   0  0  0  0  0  0  0  0  0  0  0  0
  -24.1720  -13.1290   20.9060 C   0  0  0  0  0  0  0  0  0  0  0  0
  -24.6280  -11.7740   20.8740 C   0  0  0  0  0  0  0  0  0  0  0  0
  -26.2830  -13.0140   20.3040 N   0  0  0  0  0  0  0  0  0  0  0  0
  -25.9200  -11.7310   20.5690 N   0  0  0  0  0  0  0  0  0  0  0  0
  -23.8940  -10.5160   21.0610 C   0  0  0  0  0  0  0  0  0  0  0  0
  -24.3200   -9.5420   21.9910 C   0  0  0  0  0  3  0  0  0  0  0  0
  -23.5860   -8.3490   22.1680 C   0  0  0  0  0  3  0  0  0  0  0  0
  -22.4090   -8.1240   21.4160 C   0  0  0  0  0  0  0  0  0  0  0  0
  -21.9990   -9.0860   20.4770 C   0  0  0  0  0  3  0  0  0  0  0  0
  -22.7330  -10.2700   20.2970 C   0  0  0  0  0  3  0  0  0  0  0  0
  -21.6440   -6.9850   21.5020 O   0  0  0  0  0  0  0  0  0  0  0  0
  -21.5950   -6.2380   22.6510 C   0  0  0  0  0  0  0  0  0  0  0  0
  -21.1730   -6.7890   23.8810 C   0  0  0  0  0  3  0  0  0  0  0  0
  -21.0700   -5.9660   25.0210 C   0  0  0  0  0  3  0  0  0  0  0  0
  -21.3780   -4.5960   24.9320 C   0  0  0  0  0  0  0  0  0  0  0  0
  -21.7930   -4.0450   23.7060 C   0  0  0  0  0  3  0  0  0  0  0  0
  -21.8970   -4.8630   22.5680 C   0  0  0  0  0  0  0  0  0  0  0  0
  -22.2750   -4.3230   21.3850 F   0  0  0  0  0  0  0  0  0  0  0  0
  -21.2710   -3.8040   26.0260 F   0  0  0  0  0  0  0  0  0  0  0  0
  -22.7760  -13.6160   21.1680 C   0  0  0  0  0  0  0  0  0  0  0  0
  -22.0350  -12.9280   22.0310 N   0  0  0  0  0  0  0  0  0  0  0  0
  -22.3500  -14.6430   20.6430 O   0  0  0  0  0  0  0  0  0  0  0  0
  -22.3930  -12.1010   22.4830 H   0  0  0  0  0  0  0  0  0  0  0  0
  -21.0980  -13.2400   22.2460 H   0  0  0  0  0  0  0  0  0  0  0  0
  -25.4150  -15.2670   20.3630 N   0  0  0  0  0  0  0  0  0  0  0  0
  -24.6520  -15.9250   20.4790 H   0  0  0  0  0  0  0  0  0  0  0  0
  -26.2630  -15.6980   20.0210 H   0  0  0  0  0  0  0  0  0  0  0  0
  -30.5260  -20.8470   22.9040 C   0  0  0  0  0  1  0  0  0  0  0  0
  -32.2920  -20.5680   21.2230 C   0  0  0  0  0  1  0  0  0  0  0  0
  -30.9840  -21.2100   21.5370 N   0  0  1  0  0  4  0  0  0  0  0  0
  -31.1920  -22.1930   21.5990 H   0  0  0  0  0  0  0  0  0  0  0  0
  -28.0730  -24.8490   20.1340 C   0  0  0  0  0  2  0  0  0  0  0  0
  -28.3080  -26.3430   20.2780 O   0  0  0  0  0  0  0  0  0  0  0  0
  -24.5940  -31.8700   23.2500 C   0  0  0  0  0  0  0  0  0  0  0  0
  -27.2100  -27.2470   20.2110 C   0  0  0  0  0  0  0  0  0  0  0  0
  -23.3950  -30.4740   21.6060 C   0  0  0  0  0  3  0  0  0  0  0  0
  -24.8520  -28.9120   20.1890 C   0  0  0  0  0  0  0  0  0  0  0  0
  -25.9430  -30.7700   21.4360 C   0  0  0  0  0  2  0  0  0  0  0  0
  -26.0250  -29.3870   20.7860 C   0  0  0  0  0  0  0  0  0  0  0  0
  -27.2080  -28.5710   20.7790 C   0  0  0  0  0  3  0  0  0  0  0  0
  -26.0070  -26.8460   19.5840 C   0  0  0  0  0  3  0  0  0  0  0  0
  -24.8480  -27.6490   19.5790 C   0  0  0  0  0  3  0  0  0  0  0  0
  -23.6160  -29.7930   20.2300 C   0  0  0  0  0  2  0  0  0  0  0  0
  -24.6630  -31.0590   22.1520 N   0  0  0  0  0  0  0  0  0  0  0  0
  -23.5110  -32.1480   23.7830 O   0  0  0  0  0  0  0  0  0  0  0  0
  -22.7240  -29.4610   22.5640 C   0  0  0  0  0  0  0  0  0  0  0  0
  -21.3980  -29.2820   22.4320 N   0  0  0  0  0  0  0  0  0  0  0  0
  -23.3970  -28.8360   23.3880 O   0  0  0  0  0  0  0  0  0  0  0  0
  -20.9100  -29.8300   21.7360 H   0  0  0  0  0  0  0  0  0  0  0  0
  -18.0250  -28.0690   22.9200 C   0  0  0  0  0  0  0  0  0  0  0  0
  -20.5800  -28.3440   23.2040 C   0  0  0  0  0  3  0  0  0  0  0  0
  -20.6940  -26.9090   22.6380 C   0  0  0  0  0  2  0  0  0  0  0  0
  -19.6020  -26.5760   21.6170 C   0  0  0  0  0  2  0  0  0  0  0  0
  -18.2140  -26.7180   22.2510 C   0  0  0  0  0  2  0  0  0  0  0  0
  -19.1370  -28.8390   23.3550 C   0  0  0  0  0  0  0  0  0  0  0  0
  -18.9070  -30.1030   23.9400 C   0  0  0  0  0  3  0  0  0  0  0  0
  -17.5990  -30.5990   24.0940 C   0  0  0  0  0  3  0  0  0  0  0  0
  -16.5010  -29.8250   23.6780 C   0  0  0  0  0  3  0  0  0  0  0  0
  -16.7150  -28.5620   23.0980 C   0  0  0  0  0  3  0  0  0  0  0  0
  -25.8750  -32.5060   23.8740 C   0  0  0  0  0  3  0  0  0  0  0  0
  -26.3850  -31.7400   25.1570 C   0  0  1  0  0  0  0  0  0  0  0  0
  -25.2860  -31.5120   26.2220 C   0  0  0  0  0  1  0  0  0  0  0  0
  -26.9640  -30.3580   24.7810 C   0  0  0  0  0  1  0  0  0  0  0  0
  -27.5320  -32.5370   25.8220 C   0  0  0  0  0  1  0  0  0  0  0  0
  -25.5660  -33.9060   24.2010 N   0  0  0  0  0  0  0  0  0  0  0  0
  -25.8910  -34.9560   23.4340 C   0  0  0  0  0  0  0  0  0  0  0  0
  -26.5500  -34.8470   22.3970 O   0  0  0  0  0  0  0  0  0  0  0  0
  -24.9830  -34.0650   25.0090 H   0  0  0  0  0  0  0  0  0  0  0  0
  -24.1570  -36.7470   23.0930 C   0  0  0  0  0  1  0  0  0  0  0  0
  -25.4080  -36.3460   23.8900 C   0  0  0  0  0  3  0  0  0  0  0  0
  -27.5510  -37.2430   24.6910 C   0  0  0  0  0  1  0  0  0  0  0  0
  -26.4380  -37.4000   23.7580 N   0  0  0  0  0  0  0  0  0  0  0  0
  -26.0320  -38.3200   23.9030 H   0  0  0  0  0  0  0  0  0  0  0  0
  1  4  1  0
  2  1  1  0
  2  5  1  0
  4 53  1  0
  4  3  1  0
  5  3  1  0
  5 51  1  0
  6  7  1  0
  6  8  2  0
  7  9  2  0
  5  8  1  6
  8 10  1  0
  9 19  1  0
  9 10  1  0
 11 19  1  0
 12 17  1  0
 13 14  1  0
 13 12  1  0
 15 14  1  0
 15 24  1  0
 15 16  1  0
 17 11  1  0
 17 16  1  0
 18 11  2  0
 19 20  1  0
 21 22  2  0
 22 41  1  0
 23 22  1  0
 23 26  1  0
 24 21  1  0
 24 25  1  0
 25 23  2  0
 26 27  1  0
 27 28  2  0
 29 32  1  0
 29 28  1  0
 30 29  2  0
 31 30  1  0
 31 26  2  0
 32 33  1  0
 33 34  1  0
 34 35  2  0
 36 35  1  0
 36 40  1  0
 37 36  2  0
 38 33  2  0
 38 37  1  0
 39 38  1  0
 41 42  1  0
 42 45  1  0
 42 44  1  0
 43 41  2  0
 46 47  1  0
 46 21  1  0
 48 46  1  0
 50 51  1  0
 51 52  1  1
 51 49  1  0
 53 54  1  0
 55 66  2  0
 56 54  1  0
 56 61  1  0
 57 65  1  0
 57 67  1  0
 58 64  1  0
 58 60  1  0
 59 65  1  0
 60 59  1  0
 61 60  2  0
 62 56  2  0
 63 62  1  0
 63 58  2  0
 64 57  1  0
 65 55  1  0
 67 69  2  0
 68 67  1  0
 70 68  1  0
 71 80  2  0
 71 76  1  0
 72 68  1  0
 72 76  1  0
 73 72  1  0
 74 75  1  0
 74 73  1  0
 75 71  1  0
 76 77  2  0
 77 78  1  0
 79 78  2  0
 80 79  1  0
 81 55  1  0
 81 86  1  0
 81 82  1  0
 82 85  1  1
 82 83  1  0
 84 82  1  0
 86 89  1  0
 87 91  1  0
 87 86  1  0
 88 87  2  0
 91 90  1  0
 93 91  1  0
 93 94  1  0
 93 92  1  0
M  ISO  4  11 100  19 100  53 101  54 101
M  END
>  <TORSDO>  (45) 
F 19

>  <SCORE>  (45) 
-14.471

>  <name>  (45) 
44

>  <ligand_id>  (45) 
44

>  <original_smiles>  (45) 
[H]c1c(N([H])C(=O)N2C([H])([H])C([H])([H])C([H])([H])C([H])(n3nc(-c4c([H])c([H])c(Oc5c([H])c([H])c(F)c([H])c5F)c([H])c4[H])c(C(=O)N([H])[H])c3N([H])[H])C2([H])[H])oc(C2([N+]([H])(C([H])([H])[H])C([H])([H])[H])C([H])([H])C([H])([H])C([H])(C([H])([H])Oc3c([H])c([H])c4c(c3[H])C([H])([H])N(C(=O)C([H])(N([H])C(=O)C([H])(N([H])C([H])([H])[H])C([H])([H])[H])C(C([H])([H])[H])(C([H])([H])[H])C([H])([H])[H])C([H])(C(=O)N([H])C3([H])c5c([H])c([H])c([H])c([H])c5C([H])([H])C([H])([H])C3([H])[H])C4([H])[H])C2([H])[H])c1[H]

>  <smiles>  (45) 
[H]c1c(N([H])C(=O)N2C([H])([H])C([H])([H])C([H])([H])C([H])(n3nc(-c4c([H])c([H])c(Oc5c([H])c([H])c(F)c([H])c5F)c([H])c4[H])c(C(=O)N([H])[H])c3N([H])[H])C2([H])[H])oc(C2([N+]([H])(C([H])([H])[H])C([H])([H])[H])C([H])([H])C([H])([H])C([H])(C([H])([H])Oc3c([H])c([H])c4c(c3[H])C([H])([H])N(C(=O)C([H])(N([H])C(=O)C([H])(N([H])C([H])([H])[H])C([H])([H])[H])C(C([H])([H])[H])(C([H])([H])[H])C([H])([H])[H])C([H])(C(=O)N([H])C3([H])c5c([H])c([H])c([H])c([H])c5C([H])([H])C([H])([H])C3([H])[H])C4([H])[H])C2([H])[H])c1[H]

$$$$
45:0:0
     RDKit          3D

 92101  0  0  1  0  0  0  0  0999 V2000
  -28.9190  -23.0920   21.4670 C   0  0  0  0  0  2  0  0  0  0  0  0
  -29.4320  -21.6170   21.4040 C   0  0  0  0  0  2  0  0  0  0  0  0
  -28.7070  -22.3020   19.2720 C   0  0  0  0  0  2  0  0  0  0  0  0
  -28.9970  -23.6810   20.0410 C   0  0  2  0  0  0  0  0  0  0  0  0
  -30.4270  -24.1560   19.7200 C   0  0  0  0  0  1  0  0  0  0  0  0
  -29.1840  -21.1060   20.0590 N   0  0  0  0  0  0  0  0  0  0  0  0
  -30.5270  -14.8510   20.4130 C   0  0  0  0  0  0  0  0  0  0  0  0
  -30.3890  -12.5120   19.5290 C   0  0  0  0  0  2  0  0  0  0  0  0
  -29.5010  -12.5340   18.2640 C   0  0  0  0  0  2  0  0  0  0  0  0
  -28.0180  -12.3580   18.6490 C   0  0  0  0  0  2  0  0  0  0  0  0
  -27.5920  -13.2840   19.8190 C   0  0  0  0  0  3  0  0  0  0  0  0
  -28.6120  -13.2590   20.9790 C   0  0  0  0  0  2  0  0  0  0  0  0
  -29.9250  -13.6050   20.4200 N   0  0  0  0  0  0  0  0  0  0  0  0
  -31.7140  -14.9350   20.0780 O   0  0  0  0  0  0  0  0  0  0  0  0
  -29.2240  -19.1970   18.3710 C   0  0  0  0  0  0  0  0  0  0  0  0
  -29.3290  -19.6840   19.6670 C   0  0  0  0  0  0  0  0  0  0  0  0
  -29.7200  -17.3110   19.9870 C   0  0  0  0  0  0  0  0  0  0  0  0
  -28.9220  -19.9610   17.1190 C   0  0  0  0  0  1  0  0  0  0  0  0
  -29.5830  -18.5630   20.5600 N   0  0  0  0  0  0  0  0  0  0  0  0
  -29.7720  -15.9920   20.6810 N   0  0  0  0  0  0  0  0  0  0  0  0
  -29.4880  -17.4490   18.2470 S   0  0  0  0  0  0  0  0  0  0  0  0
  -28.9260  -15.7940   21.1920 H   0  0  0  0  0  0  0  0  0  0  0  0
  -25.1830  -13.8790   20.4730 C   0  0  0  0  0  0  0  0  0  0  0  0
  -24.1100  -13.1080   20.8220 C   0  0  0  0  0  0  0  0  0  0  0  0
  -24.5730  -11.7580   20.8270 C   0  0  0  0  0  0  0  0  0  0  0  0
  -26.2340  -12.9980   20.2770 N   0  0  0  0  0  0  0  0  0  0  0  0
  -25.8730  -11.7180   20.5550 N   0  0  0  0  0  0  0  0  0  0  0  0
  -23.8410  -10.4980   21.0150 C   0  0  0  0  0  0  0  0  0  0  0  0
  -24.2540   -9.5450   21.9720 C   0  0  0  0  0  3  0  0  0  0  0  0
  -23.5280   -8.3480   22.1510 C   0  0  0  0  0  3  0  0  0  0  0  0
  -22.3760   -8.0940   21.3720 C   0  0  0  0  0  0  0  0  0  0  0  0
  -21.9790   -9.0370   20.4070 C   0  0  0  0  0  3  0  0  0  0  0  0
  -22.7040  -10.2260   20.2260 C   0  0  0  0  0  3  0  0  0  0  0  0
  -21.6210   -6.9490   21.4580 O   0  0  0  0  0  0  0  0  0  0  0  0
  -21.5550   -6.2160   22.6170 C   0  0  0  0  0  0  0  0  0  0  0  0
  -21.1140   -6.7840   23.8310 C   0  0  0  0  0  3  0  0  0  0  0  0
  -20.9940   -5.9770   24.9820 C   0  0  0  0  0  3  0  0  0  0  0  0
  -21.3060   -4.6060   24.9160 C   0  0  0  0  0  0  0  0  0  0  0  0
  -21.7420   -4.0380   23.7060 C   0  0  0  0  0  3  0  0  0  0  0  0
  -21.8640   -4.8420   22.5580 C   0  0  0  0  0  0  0  0  0  0  0  0
  -22.2650   -4.2860   21.3890 F   0  0  0  0  0  0  0  0  0  0  0  0
  -21.1830   -3.8300   26.0180 F   0  0  0  0  0  0  0  0  0  0  0  0
  -22.7020  -13.5880   21.0370 C   0  0  0  0  0  0  0  0  0  0  0  0
  -21.9480  -12.9090   21.8950 N   0  0  0  0  0  0  0  0  0  0  0  0
  -22.2780  -14.5970   20.4790 O   0  0  0  0  0  0  0  0  0  0  0  0
  -22.3030  -12.0940   22.3740 H   0  0  0  0  0  0  0  0  0  0  0  0
  -21.0020  -13.2110   22.0780 H   0  0  0  0  0  0  0  0  0  0  0  0
  -25.3550  -15.2470   20.2810 N   0  0  0  0  0  0  0  0  0  0  0  0
  -24.5820  -15.9000   20.3620 H   0  0  0  0  0  0  0  0  0  0  0  0
  -26.2000  -15.6750   19.9230 H   0  0  0  0  0  0  0  0  0  0  0  0
  -28.0000  -24.9360   19.7410 C   0  0  0  0  0  2  0  0  0  0  0  0
  -28.2440  -26.3670   20.1700 O   0  0  0  0  0  0  0  0  0  0  0  0
  -24.6350  -31.9170   23.2390 C   0  0  0  0  0  0  0  0  0  0  0  0
  -27.1670  -27.2950   20.1350 C   0  0  0  0  0  0  0  0  0  0  0  0
  -23.4060  -30.5310   21.6130 C   0  0  0  0  0  3  0  0  0  0  0  0
  -24.8290  -28.9760   20.1640 C   0  0  0  0  0  0  0  0  0  0  0  0
  -25.9520  -30.8110   21.4130 C   0  0  0  0  0  2  0  0  0  0  0  0
  -26.0130  -29.4310   20.7590 C   0  0  0  0  0  0  0  0  0  0  0  0
  -27.1810  -28.6000   20.7440 C   0  0  0  0  0  3  0  0  0  0  0  0
  -25.9580  -26.9240   19.5010 C   0  0  0  0  0  3  0  0  0  0  0  0
  -24.8080  -27.7290   19.5280 C   0  0  0  0  0  3  0  0  0  0  0  0
  -23.6020  -29.8640   20.2280 C   0  0  0  0  0  2  0  0  0  0  0  0
  -24.6840  -31.1060   22.1430 N   0  0  0  0  0  0  0  0  0  0  0  0
  -23.5590  -32.1990   23.7880 O   0  0  0  0  0  0  0  0  0  0  0  0
  -22.7500  -29.5110   22.5760 C   0  0  0  0  0  0  0  0  0  0  0  0
  -21.4230  -29.3300   22.4590 N   0  0  0  0  0  0  0  0  0  0  0  0
  -23.4360  -28.8870   23.3890 O   0  0  0  0  0  0  0  0  0  0  0  0
  -20.9280  -29.8780   21.7670 H   0  0  0  0  0  0  0  0  0  0  0  0
  -18.0510  -28.1300   22.9760 C   0  0  0  0  0  0  0  0  0  0  0  0
  -20.6090  -28.3990   23.2420 C   0  0  0  0  0  3  0  0  0  0  0  0
  -20.7170  -26.9630   22.6790 C   0  0  0  0  0  2  0  0  0  0  0  0
  -19.6160  -26.6300   21.6680 C   0  0  0  0  0  2  0  0  0  0  0  0
  -18.2320  -26.7770   22.3090 C   0  0  0  0  0  2  0  0  0  0  0  0
  -19.1680  -28.8980   23.4010 C   0  0  0  0  0  0  0  0  0  0  0  0
  -18.9450  -30.1650   23.9810 C   0  0  0  0  0  3  0  0  0  0  0  0
  -17.6390  -30.6630   24.1450 C   0  0  0  0  0  3  0  0  0  0  0  0
  -16.5370  -29.8910   23.7400 C   0  0  0  0  0  3  0  0  0  0  0  0
  -16.7440  -28.6280   23.1590 C   0  0  0  0  0  3  0  0  0  0  0  0
  -25.9270  -32.5470   23.8420 C   0  0  0  0  0  3  0  0  0  0  0  0
  -25.6230  -33.9450   24.1800 N   0  0  0  0  0  0  0  0  0  0  0  0
  -25.9320  -34.9990   23.4150 C   0  0  0  0  0  0  0  0  0  0  0  0
  -26.5760  -34.8990   22.3670 O   0  0  0  0  0  0  0  0  0  0  0  0
  -25.0490  -34.0990   24.9960 H   0  0  0  0  0  0  0  0  0  0  0  0
  -24.1840  -36.7830   23.1150 C   0  0  0  0  0  1  0  0  0  0  0  0
  -25.4510  -36.3840   23.8870 C   0  0  0  0  0  3  0  0  0  0  0  0
  -27.6120  -37.2750   24.6460 C   0  0  0  0  0  1  0  0  0  0  0  0
  -26.4730  -37.4440   23.7460 N   0  0  0  0  0  0  0  0  0  0  0  0
  -26.0650  -38.3590   23.9170 H   0  0  0  0  0  0  0  0  0  0  0  0
  -26.4590  -31.7710   25.1090 C   0  0  1  0  0  0  0  0  0  0  0  0
  -25.3770  -31.5430   26.1900 C   0  0  0  0  0  1  0  0  0  0  0  0
  -27.0300  -30.3880   24.7170 C   0  0  0  0  0  1  0  0  0  0  0  0
  -27.6190  -32.5620   25.7550 C   0  0  0  0  0  1  0  0  0  0  0  0
  2  1  1  0
  3  4  1  0
  3  6  1  0
  4  5  1  6
  4  1  1  0
  6  2  1  0
  7 13  1  0
  7 20  1  0
  8 13  1  0
  9 10  1  0
  9  8  1  0
 11 10  1  0
 11 26  1  0
 11 12  1  0
 13 12  1  0
 14  7  2  0
 15 16  2  0
 16  6  1  0
 16 19  1  0
 17 19  2  0
 17 20  1  0
 18 15  1  0
 20 22  1  0
 21 15  1  0
 21 17  1  0
 23 24  2  0
 24 25  1  0
 24 43  1  0
 25 28  1  0
 26 23  1  0
 26 27  1  0
 27 25  2  0
 28 29  1  0
 29 30  2  0
 31 34  1  0
 31 30  1  0
 32 31  2  0
 33 32  1  0
 33 28  2  0
 34 35  1  0
 35 36  1  0
 36 37  2  0
 38 37  1  0
 38 42  1  0
 39 38  2  0
 40 35  2  0
 40 39  1  0
 41 40  1  0
 43 44  1  0
 44 47  1  0
 44 46  1  0
 45 43  2  0
 48 49  1  0
 48 23  1  0
 50 48  1  0
 51  4  1  0
 51 52  1  0
 53 64  2  0
 54 52  1  0
 54 59  1  0
 55 63  1  0
 55 65  1  0
 56 62  1  0
 56 58  1  0
 57 63  1  0
 58 57  1  0
 59 58  2  0
 60 61  1  0
 60 54  2  0
 61 56  2  0
 62 55  1  0
 63 53  1  0
 65 67  2  0
 66 65  1  0
 68 66  1  0
 69 78  2  0
 69 74  1  0
 70 66  1  0
 70 74  1  0
 71 70  1  0
 72 73  1  0
 72 71  1  0
 73 69  1  0
 74 75  2  0
 75 76  1  0
 77 76  2  0
 78 77  1  0
 79 53  1  0
 79 80  1  0
 79 89  1  0
 80 83  1  0
 81 85  1  0
 81 80  1  0
 82 81  2  0
 85 84  1  0
 87 85  1  0
 87 88  1  0
 87 86  1  0
 89 92  1  1
 89 90  1  0
 91 89  1  0
M  ISO  4   7 100  20 100  51 101  52 101
M  END
>  <TORSDO>  (46) 
F 17

>  <SCORE>  (46) 
-14.879

>  <name>  (46) 
45

>  <ligand_id>  (46) 
45

>  <original_smiles>  (46) 
[H]c1c([H])c([H])c2c(c1[H])C([H])([H])C([H])([H])C([H])([H])C2([H])N([H])C(=O)C1([H])N(C(=O)C([H])(N([H])C(=O)C([H])(N([H])C([H])([H])[H])C([H])([H])[H])C(C([H])([H])[H])(C([H])([H])[H])C([H])([H])[H])C([H])([H])c2c([H])c(OC([H])([H])C3(C([H])([H])[H])C([H])([H])N(c4nc(N([H])C(=O)N5C([H])([H])C([H])([H])C([H])([H])C([H])(n6nc(-c7c([H])c([H])c(Oc8c([H])c([H])c(F)c([H])c8F)c([H])c7[H])c(C(=O)N([H])[H])c6N([H])[H])C5([H])[H])sc4C([H])([H])[H])C([H])([H])C3([H])[H])c([H])c([H])c2C1([H])[H]

>  <smiles>  (46) 
[H]c1c([H])c([H])c2c(c1[H])C([H])([H])C([H])([H])C([H])([H])C2([H])N([H])C(=O)C1([H])N(C(=O)C([H])(N([H])C(=O)C([H])(N([H])C([H])([H])[H])C([H])([H])[H])C(C([H])([H])[H])(C([H])([H])[H])C([H])([H])[H])C([H])([H])c2c([H])c(OC([H])([H])C3(C([H])([H])[H])C([H])([H])N(c4nc(N([H])C(=O)N5C([H])([H])C([H])([H])C([H])([H])C([H])(n6nc(-c7c([H])c([H])c(Oc8c([H])c([H])c(F)c([H])c8F)c([H])c7[H])c(C(=O)N([H])[H])c6N([H])[H])C5([H])[H])sc4C([H])([H])[H])C([H])([H])C3([H])[H])c([H])c([H])c2C1([H])[H]

$$$$
46:0:0
     RDKit          3D

 97106  0  0  1  0  0  0  0  0999 V2000
  -31.0690  -20.5940   19.4360 C   0  0  0  0  0  3  0  0  0  0  0  0
  -30.5660  -24.2510   18.6720 C   0  0  0  0  0  2  0  0  0  0  0  0
  -31.3840  -22.9430   18.6600 C   0  0  0  0  0  2  0  0  0  0  0  0
  -29.3220  -22.5710   19.7950 C   0  0  0  0  0  2  0  0  0  0  0  0
  -29.6040  -24.1390   19.8680 C   0  0  1  0  0  0  0  0  0  0  0  0
  -30.5870  -21.9000   19.3480 N   0  0  0  0  0  0  0  0  0  0  0  0
  -32.2830  -20.3690   18.8990 N   0  0  0  0  0  0  0  0  0  0  0  0
  -32.7070  -19.4570   18.9670 H   0  0  0  0  0  0  0  0  0  0  0  0
  -32.8120  -21.0970   18.4450 H   0  0  0  0  0  0  0  0  0  0  0  0
  -30.7550  -18.0310   19.7730 C   0  0  0  0  0  3  0  0  0  0  0  0
  -29.2850  -17.7390   21.5590 C   0  0  0  0  0  3  0  0  0  0  0  0
  -30.0840  -17.0920   20.6490 C   0  0  0  0  0  0  0  0  0  0  0  0
  -30.4760  -19.3780   20.0490 C   0  0  0  0  0  0  0  0  0  0  0  0
  -29.3670  -19.4820   21.3940 S   0  0  0  0  0  0  0  0  0  0  0  0
  -30.8440  -14.6690   20.0340 C   0  0  0  0  0  0  0  0  0  0  0  0
  -30.5980  -12.4530   18.9250 C   0  0  0  0  0  2  0  0  0  0  0  0
  -29.5780  -12.6000   17.7730 C   0  0  0  0  0  2  0  0  0  0  0  0
  -28.1330  -12.4270   18.2830 C   0  0  0  0  0  2  0  0  0  0  0  0
  -27.8460  -13.2640   19.5570 C   0  0  0  0  0  3  0  0  0  0  0  0
  -28.9680  -13.0680   20.6030 C   0  0  0  0  0  2  0  0  0  0  0  0
  -30.2480  -13.4360   19.9680 N   0  0  0  0  0  0  0  0  0  0  0  0
  -31.9380  -14.8960   19.5060 O   0  0  0  0  0  0  0  0  0  0  0  0
  -30.0900  -15.6340   20.6390 N   0  0  0  0  0  0  0  0  0  0  0  0
  -29.3140  -15.2210   21.1320 H   0  0  0  0  0  0  0  0  0  0  0  0
  -25.5030  -13.8510   20.4440 C   0  0  0  0  0  0  0  0  0  0  0  0
  -24.4560  -13.0700   20.8530 C   0  0  0  0  0  0  0  0  0  0  0  0
  -24.9050  -11.7190   20.7440 C   0  0  0  0  0  0  0  0  0  0  0  0
  -26.5250  -12.9750   20.1130 N   0  0  0  0  0  0  0  0  0  0  0  0
  -26.1720  -11.6850   20.3510 N   0  0  0  0  0  0  0  0  0  0  0  0
  -24.1840  -10.4530   20.9370 C   0  0  0  0  0  0  0  0  0  0  0  0
  -24.6120   -9.4960   21.8830 C   0  0  0  0  0  3  0  0  0  0  0  0
  -23.8920   -8.2960   22.0630 C   0  0  0  0  0  3  0  0  0  0  0  0
  -22.7280   -8.0440   21.2980 C   0  0  0  0  0  0  0  0  0  0  0  0
  -22.3180   -8.9910   20.3430 C   0  0  0  0  0  3  0  0  0  0  0  0
  -23.0390  -10.1830   20.1610 C   0  0  0  0  0  3  0  0  0  0  0  0
  -21.9800   -6.8950   21.3850 O   0  0  0  0  0  0  0  0  0  0  0  0
  -21.8520   -6.2090   22.5650 C   0  0  0  0  0  0  0  0  0  0  0  0
  -21.2720   -6.7980   23.7100 C   0  0  0  0  0  3  0  0  0  0  0  0
  -21.0940   -6.0340   24.8810 C   0  0  0  0  0  3  0  0  0  0  0  0
  -21.4870   -4.6820   24.9080 C   0  0  0  0  0  0  0  0  0  0  0  0
  -22.0610   -4.0940   23.7670 C   0  0  0  0  0  3  0  0  0  0  0  0
  -22.2400   -4.8550   22.5990 C   0  0  0  0  0  0  0  0  0  0  0  0
  -22.7730   -4.2760   21.4950 F   0  0  0  0  0  0  0  0  0  0  0  0
  -21.3110   -3.9470   26.0300 F   0  0  0  0  0  0  0  0  0  0  0  0
  -23.0810  -13.5450   21.2290 C   0  0  0  0  0  0  0  0  0  0  0  0
  -22.4060  -12.8270   22.1190 N   0  0  0  0  0  0  0  0  0  0  0  0
  -22.6150  -14.5870   20.7700 O   0  0  0  0  0  0  0  0  0  0  0  0
  -22.7960  -11.9840   22.5160 H   0  0  0  0  0  0  0  0  0  0  0  0
  -21.4870  -13.1270   22.4120 H   0  0  0  0  0  0  0  0  0  0  0  0
  -25.6640  -15.2270   20.3080 N   0  0  0  0  0  0  0  0  0  0  0  0
  -24.9050  -15.8760   20.4850 H   0  0  0  0  0  0  0  0  0  0  0  0
  -26.4960  -15.6780   19.9490 H   0  0  0  0  0  0  0  0  0  0  0  0
  -30.3330  -24.4790   21.1970 C   0  0  0  0  0  0  0  0  0  0  0  0
  -30.8670  -25.8920   21.4080 C   0  0  0  0  0  1  0  0  0  0  0  0
  -30.5200  -23.6280   22.0700 O   0  0  0  0  0  0  0  0  0  0  0  0
  -28.3270  -25.0730   19.6960 C   0  0  0  0  0  2  0  0  0  0  0  0
  -28.4790  -26.5410   19.6940 O   0  0  0  0  0  0  0  0  0  0  0  0
  -24.6580  -31.6680   23.0190 C   0  0  0  0  0  0  0  0  0  0  0  0
  -27.3170  -27.3260   19.7220 C   0  0  0  0  0  0  0  0  0  0  0  0
  -23.4560  -30.3260   21.3320 C   0  0  0  0  0  3  0  0  0  0  0  0
  -24.9130  -28.8690   19.8230 C   0  0  0  0  0  0  0  0  0  0  0  0
  -25.9850  -30.7030   21.1310 C   0  0  0  0  0  2  0  0  0  0  0  0
  -26.0800  -29.3590   20.4220 C   0  0  0  0  0  0  0  0  0  0  0  0
  -27.2850  -28.6010   20.3600 C   0  0  0  0  0  3  0  0  0  0  0  0
  -26.1210  -26.8760   19.1160 C   0  0  0  0  0  3  0  0  0  0  0  0
  -24.9340  -27.6320   19.1630 C   0  0  0  0  0  3  0  0  0  0  0  0
  -23.6600  -29.7150   19.9220 C   0  0  0  0  0  2  0  0  0  0  0  0
  -24.7190  -30.9140   21.8850 N   0  0  0  0  0  0  0  0  0  0  0  0
  -23.5780  -31.9040   23.5790 O   0  0  0  0  0  0  0  0  0  0  0  0
  -22.8230  -29.2560   22.2540 C   0  0  0  0  0  0  0  0  0  0  0  0
  -21.4930  -29.0870   22.1550 N   0  0  0  0  0  0  0  0  0  0  0  0
  -23.5250  -28.5830   23.0130 O   0  0  0  0  0  0  0  0  0  0  0  0
  -20.9860  -29.6790   21.5130 H   0  0  0  0  0  0  0  0  0  0  0  0
  -18.1250  -27.8990   22.7180 C   0  0  0  0  0  0  0  0  0  0  0  0
  -20.6960  -28.1090   22.8980 C   0  0  0  0  0  3  0  0  0  0  0  0
  -20.7530  -26.7180   22.2240 C   0  0  0  0  0  2  0  0  0  0  0  0
  -19.6040  -26.4770   21.2390 C   0  0  0  0  0  2  0  0  0  0  0  0
  -18.2530  -26.5960   21.9490 C   0  0  0  0  0  2  0  0  0  0  0  0
  -19.2710  -28.6180   23.1500 C   0  0  0  0  0  0  0  0  0  0  0  0
  -19.0950  -29.8420   23.8320 C   0  0  0  0  0  3  0  0  0  0  0  0
  -17.8050  -30.3440   24.0880 C   0  0  0  0  0  3  0  0  0  0  0  0
  -16.6740  -29.6210   23.6710 C   0  0  0  0  0  3  0  0  0  0  0  0
  -16.8350  -28.4000   22.9920 C   0  0  0  0  0  3  0  0  0  0  0  0
  -25.9400  -32.2910   23.6550 C   0  0  0  0  0  3  0  0  0  0  0  0
  -26.5000  -31.4550   24.8700 C   0  0  1  0  0  0  0  0  0  0  0  0
  -25.4360  -31.1310   25.9440 C   0  0  0  0  0  1  0  0  0  0  0  0
  -27.1030  -30.1160   24.3830 C   0  0  0  0  0  1  0  0  0  0  0  0
  -27.6470  -32.2340   25.5570 C   0  0  0  0  0  1  0  0  0  0  0  0
  -25.6050  -33.6580   24.0780 N   0  0  0  0  0  0  0  0  0  0  0  0
  -25.9180  -34.7660   23.3920 C   0  0  0  0  0  0  0  0  0  0  0  0
  -26.5900  -34.7440   22.3580 O   0  0  0  0  0  0  0  0  0  0  0  0
  -25.0060  -33.7470   24.8850 H   0  0  0  0  0  0  0  0  0  0  0  0
  -24.1720  -36.5600   23.1440 C   0  0  0  0  0  1  0  0  0  0  0  0
  -25.4060  -36.1100   23.9440 C   0  0  0  0  0  3  0  0  0  0  0  0
  -27.5080  -36.9660   24.8830 C   0  0  0  0  0  1  0  0  0  0  0  0
  -26.4260  -37.1810   23.9260 N   0  0  0  0  0  0  0  0  0  0  0  0
  -26.0030  -38.0840   24.1240 H   0  0  0  0  0  0  0  0  0  0  0  0
  1  7  1  0
  1 13  1  0
  2  5  1  0
  3  2  1  0
  3  6  1  0
  4  5  1  0
  5 56  1  6
  5 53  1  0
  6  1  1  0
  6  4  1  0
  7  8  1  0
  9  7  1  0
 10 13  2  0
 10 12  1  0
 12 11  2  0
 13 14  1  0
 14 11  1  0
 15 23  1  0
 16 21  1  0
 17 18  1  0
 17 16  1  0
 19 18  1  0
 19 28  1  0
 19 20  1  0
 21 15  1  0
 21 20  1  0
 22 15  2  0
 23 12  1  0
 23 24  1  0
 25 26  2  0
 26 45  1  0
 27 26  1  0
 27 30  1  0
 28 29  1  0
 28 25  1  0
 29 27  2  0
 30 31  1  0
 31 32  2  0
 33 36  1  0
 33 32  1  0
 34 33  2  0
 35 34  1  0
 35 30  2  0
 36 37  1  0
 37 42  2  0
 37 38  1  0
 38 39  2  0
 39 40  1  0
 40 44  1  0
 41 40  2  0
 42 41  1  0
 43 42  1  0
 45 46  1  0
 46 49  1  0
 46 48  1  0
 47 45  2  0
 50 25  1  0
 50 51  1  0
 52 50  1  0
 53 54  1  0
 53 55  2  0
 57 56  1  0
 57 59  1  0
 58 69  2  0
 59 64  1  0
 60 68  1  0
 60 70  1  0
 61 67  1  0
 61 63  1  0
 62 68  1  0
 63 62  1  0
 64 63  2  0
 65 66  1  0
 65 59  2  0
 66 61  2  0
 67 60  1  0
 68 58  1  0
 70 72  2  0
 71 70  1  0
 73 71  1  0
 74 83  2  0
 74 79  1  0
 75 71  1  0
 75 79  1  0
 76 75  1  0
 77 78  1  0
 77 76  1  0
 78 74  1  0
 79 80  2  0
 80 81  1  0
 82 81  2  0
 83 82  1  0
 84 58  1  0
 84 89  1  0
 84 85  1  0
 85 88  1  1
 85 86  1  0
 87 85  1  0
 89 92  1  0
 90 94  1  0
 90 89  1  0
 91 90  2  0
 94 93  1  0
 96 94  1  0
 96 97  1  0
 96 95  1  0
M  ISO  4  15 100  23 100  56 101  57 101
M  END
>  <TORSDO>  (47) 
F 19

>  <SCORE>  (47) 
-12.815

>  <name>  (47) 
46

>  <ligand_id>  (47) 
46

>  <original_smiles>  (47) 
[H]c1sc(C(N2C([H])([H])C([H])([H])C(C(=O)C([H])([H])[H])(C([H])([H])Oc3c([H])c([H])c4c(c3[H])C([H])([H])N(C(=O)C([H])(N([H])C(=O)C([H])(N([H])C([H])([H])[H])C([H])([H])[H])C(C([H])([H])[H])(C([H])([H])[H])C([H])([H])[H])C([H])(C(=O)N([H])C3([H])c5c([H])c([H])c([H])c([H])c5C([H])([H])C([H])([H])C3([H])[H])C4([H])[H])C2([H])[H])=[N+]([H])[H])c([H])c1N([H])C(=O)N1C([H])([H])C([H])([H])C([H])([H])C([H])(n2nc(-c3c([H])c([H])c(Oc4c([H])c([H])c(F)c([H])c4F)c([H])c3[H])c(C(=O)N([H])[H])c2N([H])[H])C1([H])[H]

>  <smiles>  (47) 
[H]c1sc(C(N2C([H])([H])C([H])([H])C(C(=O)C([H])([H])[H])(C([H])([H])Oc3c([H])c([H])c4c(c3[H])C([H])([H])N(C(=O)C([H])(N([H])C(=O)C([H])(N([H])C([H])([H])[H])C([H])([H])[H])C(C([H])([H])[H])(C([H])([H])[H])C([H])([H])[H])C([H])(C(=O)N([H])C3([H])c5c([H])c([H])c([H])c([H])c5C([H])([H])C([H])([H])C3([H])[H])C4([H])[H])C2([H])[H])=[N+]([H])[H])c([H])c1N([H])C(=O)N1C([H])([H])C([H])([H])C([H])([H])C([H])(n2nc(-c3c([H])c([H])c(Oc4c([H])c([H])c(F)c([H])c4F)c([H])c3[H])c(C(=O)N([H])[H])c2N([H])[H])C1([H])[H]

$$$$
47:0:0
     RDKit          3D

 98107  0  0  1  0  0  0  0  0999 V2000
  -28.7100  -21.1800   20.2170 C   0  0  0  0  0  3  0  0  0  0  0  0
  -30.1350  -23.7340   22.1500 C   0  0  0  0  0  2  0  0  0  0  0  0
  -28.6430  -24.1310   22.0620 C   0  0  0  0  0  2  0  0  0  0  0  0
  -30.4200  -22.8570   20.9210 C   0  0  0  0  0  2  0  0  0  0  0  0
  -28.2390  -23.8000   20.6240 C   0  0  0  0  0  3  0  0  0  0  0  0
  -29.0820  -22.5180   20.4150 N   0  0  0  0  0  0  0  0  0  0  0  0
  -27.4050  -20.9470   20.1270 N   0  0  0  0  0  0  0  0  0  0  0  0
  -27.0950  -19.9990   19.9910 H   0  0  0  0  0  0  0  0  0  0  0  0
  -26.7070  -21.6660   20.2130 H   0  0  0  0  0  0  0  0  0  0  0  0
  -30.7930  -20.1380   19.2970 C   0  0  0  0  0  3  0  0  0  0  0  0
  -29.3270  -18.5710   20.4650 C   0  0  0  0  0  3  0  0  0  0  0  0
  -31.3300  -17.7390   19.3760 C   0  0  0  0  0  3  0  0  0  0  0  0
  -29.6170  -19.9460   20.0500 C   0  0  0  0  0  0  0  0  0  0  0  0
  -31.6320  -19.0610   18.9700 C   0  0  0  0  0  0  0  0  0  0  0  0
  -30.1710  -17.4170   20.1330 C   0  0  0  0  0  0  0  0  0  0  0  0
  -30.6040  -14.8090   20.2960 C   0  0  0  0  0  0  0  0  0  0  0  0
  -30.3880  -12.5240   19.3050 C   0  0  0  0  0  2  0  0  0  0  0  0
  -29.4590  -12.5950   18.0730 C   0  0  0  0  0  2  0  0  0  0  0  0
  -27.9820  -12.4370   18.4920 C   0  0  0  0  0  2  0  0  0  0  0  0
  -27.6110  -13.3060   19.7220 C   0  0  0  0  0  3  0  0  0  0  0  0
  -28.6710  -13.2310   20.8430 C   0  0  0  0  0  2  0  0  0  0  0  0
  -29.9610  -13.5900   20.2420 N   0  0  0  0  0  0  0  0  0  0  0  0
  -31.8040  -14.8450   20.0120 O   0  0  0  0  0  0  0  0  0  0  0  0
  -29.8650  -15.9820   20.4770 N   0  0  0  0  0  0  0  0  0  0  0  0
  -28.9250  -15.8230   20.8070 H   0  0  0  0  0  0  0  0  0  0  0  0
  -25.2250  -13.8850   20.4460 C   0  0  0  0  0  0  0  0  0  0  0  0
  -24.1630  -13.1110   20.8200 C   0  0  0  0  0  0  0  0  0  0  0  0
  -24.6310  -11.7610   20.7980 C   0  0  0  0  0  0  0  0  0  0  0  0
  -26.2700  -13.0100   20.2150 N   0  0  0  0  0  0  0  0  0  0  0  0
  -25.9230  -11.7250   20.4960 N   0  0  0  0  0  0  0  0  0  0  0  0
  -23.9050  -10.4960   20.9940 C   0  0  0  0  0  0  0  0  0  0  0  0
  -24.3310   -9.5380   21.9400 C   0  0  0  0  0  3  0  0  0  0  0  0
  -23.6050   -8.3410   22.1240 C   0  0  0  0  0  3  0  0  0  0  0  0
  -22.4410   -8.0900   21.3600 C   0  0  0  0  0  0  0  0  0  0  0  0
  -22.0300   -9.0390   20.4070 C   0  0  0  0  0  3  0  0  0  0  0  0
  -22.7560  -10.2280   20.2210 C   0  0  0  0  0  3  0  0  0  0  0  0
  -21.6890   -6.9440   21.4510 O   0  0  0  0  0  0  0  0  0  0  0  0
  -21.6300   -6.2130   22.6110 C   0  0  0  0  0  0  0  0  0  0  0  0
  -21.1820   -6.7770   23.8250 C   0  0  0  0  0  3  0  0  0  0  0  0
  -21.0690   -5.9730   24.9740 C   0  0  0  0  0  3  0  0  0  0  0  0
  -21.3970   -4.6040   24.9150 C   0  0  0  0  0  0  0  0  0  0  0  0
  -21.8390   -4.0400   23.7040 C   0  0  0  0  0  3  0  0  0  0  0  0
  -21.9520   -4.8410   22.5560 C   0  0  0  0  0  0  0  0  0  0  0  0
  -22.3580   -4.2880   21.3880 F   0  0  0  0  0  0  0  0  0  0  0  0
  -21.2810   -3.8290   26.0180 F   0  0  0  0  0  0  0  0  0  0  0  0
  -22.7610  -13.5840   21.0770 C   0  0  0  0  0  0  0  0  0  0  0  0
  -22.0360  -12.8930   21.9460 N   0  0  0  0  0  0  0  0  0  0  0  0
  -22.3250  -14.6030   20.5420 O   0  0  0  0  0  0  0  0  0  0  0  0
  -22.4040  -12.0730   22.4020 H   0  0  0  0  0  0  0  0  0  0  0  0
  -21.0940  -13.1920   22.1610 H   0  0  0  0  0  0  0  0  0  0  0  0
  -25.3780  -15.2560   20.2560 N   0  0  0  0  0  0  0  0  0  0  0  0
  -24.5950  -15.8950   20.3450 H   0  0  0  0  0  0  0  0  0  0  0  0
  -26.2060  -15.6940   19.8730 H   0  0  0  0  0  0  0  0  0  0  0  0
  -32.7810  -19.3150   18.2170 N   0  0  0  0  0  0  0  0  0  0  0  0
  -33.2400  -18.5220   17.7760 H   0  0  0  0  0  0  0  0  0  0  0  0
  -32.7950  -20.1460   17.6350 H   0  0  0  0  0  0  0  0  0  0  0  0
  -28.5210  -25.1050   19.6970 C   0  0  0  0  0  2  0  0  0  0  0  0
  -28.4150  -26.5100   20.2200 O   0  0  0  0  0  0  0  0  0  0  0  0
  -24.6200  -31.8880   23.2480 C   0  0  0  0  0  0  0  0  0  0  0  0
  -27.2650  -27.3210   20.1680 C   0  0  0  0  0  0  0  0  0  0  0  0
  -23.4230  -30.4800   21.6100 C   0  0  0  0  0  3  0  0  0  0  0  0
  -24.8790  -28.9200   20.1940 C   0  0  0  0  0  0  0  0  0  0  0  0
  -25.9650  -30.7960   21.4360 C   0  0  0  0  0  2  0  0  0  0  0  0
  -26.0500  -29.4200   20.7770 C   0  0  0  0  0  0  0  0  0  0  0  0
  -27.2410  -28.6310   20.7530 C   0  0  0  0  0  3  0  0  0  0  0  0
  -26.0660  -26.8770   19.5670 C   0  0  0  0  0  3  0  0  0  0  0  0
  -24.8890  -27.6540   19.5860 C   0  0  0  0  0  3  0  0  0  0  0  0
  -23.6420  -29.7900   20.2380 C   0  0  0  0  0  2  0  0  0  0  0  0
  -24.6890  -31.0750   22.1530 N   0  0  0  0  0  0  0  0  0  0  0  0
  -23.5360  -32.1620   23.7830 O   0  0  0  0  0  0  0  0  0  0  0  0
  -22.7630  -29.4680   22.5740 C   0  0  0  0  0  0  0  0  0  0  0  0
  -21.4390  -29.2890   22.4400 N   0  0  0  0  0  0  0  0  0  0  0  0
  -23.4400  -28.8450   23.3960 O   0  0  0  0  0  0  0  0  0  0  0  0
  -20.9570  -29.8320   21.7380 H   0  0  0  0  0  0  0  0  0  0  0  0
  -18.0650  -28.0830   22.9330 C   0  0  0  0  0  0  0  0  0  0  0  0
  -20.6200  -28.3500   23.2080 C   0  0  0  0  0  3  0  0  0  0  0  0
  -20.7310  -26.9210   22.6280 C   0  0  0  0  0  2  0  0  0  0  0  0
  -19.6330  -26.5930   21.6130 C   0  0  0  0  0  2  0  0  0  0  0  0
  -18.2480  -26.7340   22.2570 C   0  0  0  0  0  2  0  0  0  0  0  0
  -19.1800  -28.8490   23.3640 C   0  0  0  0  0  0  0  0  0  0  0  0
  -18.9560  -30.1100   23.9590 C   0  0  0  0  0  3  0  0  0  0  0  0
  -17.6500  -30.6080   24.1240 C   0  0  0  0  0  3  0  0  0  0  0  0
  -16.5490  -29.8380   23.7100 C   0  0  0  0  0  3  0  0  0  0  0  0
  -16.7570  -28.5770   23.1210 C   0  0  0  0  0  3  0  0  0  0  0  0
  -25.9020  -32.5240   23.8690 C   0  0  0  0  0  3  0  0  0  0  0  0
  -26.4120  -31.7640   25.1550 C   0  0  1  0  0  0  0  0  0  0  0  0
  -25.3120  -31.5380   26.2180 C   0  0  0  0  0  1  0  0  0  0  0  0
  -26.9950  -30.3810   24.7840 C   0  0  0  0  0  1  0  0  0  0  0  0
  -27.5560  -32.5670   25.8180 C   0  0  0  0  0  1  0  0  0  0  0  0
  -25.5910  -33.9240   24.1890 N   0  0  0  0  0  0  0  0  0  0  0  0
  -25.9220  -34.9730   23.4250 C   0  0  0  0  0  0  0  0  0  0  0  0
  -26.5900  -34.8650   22.3930 O   0  0  0  0  0  0  0  0  0  0  0  0
  -25.0030  -34.0840   24.9930 H   0  0  0  0  0  0  0  0  0  0  0  0
  -24.1930  -36.7640   23.0640 C   0  0  0  0  0  1  0  0  0  0  0  0
  -25.4330  -36.3610   23.8780 C   0  0  0  0  0  3  0  0  0  0  0  0
  -27.5620  -37.2550   24.7160 C   0  0  0  0  0  1  0  0  0  0  0  0
  -26.4650  -37.4160   23.7660 N   0  0  0  0  0  0  0  0  0  0  0  0
  -26.0540  -38.3350   23.9080 H   0  0  0  0  0  0  0  0  0  0  0  0
  1  7  1  0
  1  6  1  0
  3  2  1  0
  4  2  1  0
  5 57  1  0
  5  3  1  0
  6  5  1  0
  6  4  1  0
  7  9  1  0
  8  7  1  0
 10 13  1  0
 12 15  2  0
 13  1  1  0
 13 11  2  0
 14 10  2  0
 14 12  1  0
 15 11  1  0
 15 24  1  0
 16 24  1  0
 17 22  1  0
 18 19  1  0
 18 17  1  0
 20 19  1  0
 20 29  1  0
 20 21  1  0
 22 16  1  0
 22 21  1  0
 23 16  2  0
 24 25  1  0
 26 27  2  0
 27 46  1  0
 28 27  1  0
 28 31  1  0
 29 26  1  0
 29 30  1  0
 30 28  2  0
 31 32  1  0
 32 33  2  0
 34 37  1  0
 34 33  1  0
 35 34  2  0
 36 35  1  0
 36 31  2  0
 37 38  1  0
 38 39  1  0
 39 40  2  0
 41 40  1  0
 41 45  1  0
 42 41  2  0
 43 38  2  0
 43 42  1  0
 44 43  1  0
 46 47  1  0
 47 50  1  0
 47 49  1  0
 48 46  2  0
 51 52  1  0
 51 26  1  0
 53 51  1  0
 54 14  1  0
 55 54  1  0
 56 54  1  0
 57 58  1  0
 59 70  2  0
 60 58  1  0
 60 65  1  0
 61 69  1  0
 61 71  1  0
 62 68  1  0
 62 64  1  0
 63 69  1  0
 64 63  1  0
 65 64  2  0
 66 67  1  0
 66 60  2  0
 67 62  2  0
 68 61  1  0
 69 59  1  0
 71 73  2  0
 72 71  1  0
 74 72  1  0
 75 84  2  0
 75 80  1  0
 76 72  1  0
 76 80  1  0
 77 76  1  0
 78 79  1  0
 78 77  1  0
 79 75  1  0
 80 81  2  0
 81 82  1  0
 83 82  2  0
 84 83  1  0
 85 59  1  0
 85 90  1  0
 85 86  1  0
 86 89  1  1
 86 87  1  0
 88 86  1  0
 90 93  1  0
 91 95  1  0
 91 90  1  0
 92 91  2  0
 95 94  1  0
 97 95  1  0
 97 98  1  0
 97 96  1  0
M  ISO  4  16 100  24 100  57 101  58 101
M  END
>  <TORSDO>  (48) 
F 19

>  <SCORE>  (48) 
-14.715

>  <name>  (48) 
47

>  <ligand_id>  (48) 
47

>  <original_smiles>  (48) 
[H]c1c([H])c([H])c2c(c1[H])C([H])([H])C([H])([H])C([H])([H])C2([H])N([H])C(=O)C1([H])N(C(=O)C([H])(N([H])C(=O)C([H])(N([H])C([H])([H])[H])C([H])([H])[H])C(C([H])([H])[H])(C([H])([H])[H])C([H])([H])[H])C([H])([H])c2c([H])c(OC([H])([H])C3([H])N(C(c4c([H])c(N([H])[H])c([H])c(N([H])C(=O)N5C([H])([H])C([H])([H])C([H])([H])C([H])(n6nc(-c7c([H])c([H])c(Oc8c([H])c([H])c(F)c([H])c8F)c([H])c7[H])c(C(=O)N([H])[H])c6N([H])[H])C5([H])[H])c4[H])=[N+]([H])[H])C([H])([H])C([H])([H])C3([H])[H])c([H])c([H])c2C1([H])[H]

>  <smiles>  (48) 
[H]c1c([H])c([H])c2c(c1[H])C([H])([H])C([H])([H])C([H])([H])C2([H])N([H])C(=O)C1([H])N(C(=O)C([H])(N([H])C(=O)C([H])(N([H])C([H])([H])[H])C([H])([H])[H])C(C([H])([H])[H])(C([H])([H])[H])C([H])([H])[H])C([H])([H])c2c([H])c(OC([H])([H])C3([H])N(C(c4c([H])c(N([H])[H])c([H])c(N([H])C(=O)N5C([H])([H])C([H])([H])C([H])([H])C([H])(n6nc(-c7c([H])c([H])c(Oc8c([H])c([H])c(F)c([H])c8F)c([H])c7[H])c(C(=O)N([H])[H])c6N([H])[H])C5([H])[H])c4[H])=[N+]([H])[H])C([H])([H])C([H])([H])C3([H])[H])c([H])c([H])c2C1([H])[H]

$$$$
48:0:0
     RDKit          3D

 91100  0  0  1  0  0  0  0  0999 V2000
  -30.3780  -23.3230   20.0440 C   0  0  0  0  0  2  0  0  0  0  0  0
  -30.6680  -21.8020   19.7810 C   0  0  0  0  0  2  0  0  0  0  0  0
  -28.3510  -22.1860   19.8960 C   0  0  0  0  0  2  0  0  0  0  0  0
  -28.9480  -23.6320   19.5370 C   0  0  2  0  0  0  0  0  0  0  0  0
  -28.9480  -23.8050   18.0070 C   0  0  0  0  0  1  0  0  0  0  0  0
  -29.3890  -21.0960   19.7980 N   0  0  0  0  0  0  0  0  0  0  0  0
  -30.1030  -18.4750   19.9930 C   0  0  0  0  0  3  0  0  0  0  0  0
  -27.8930  -19.1860   20.2020 C   0  0  0  0  0  3  0  0  0  0  0  0
  -29.1630  -19.6440   19.9910 C   0  0  0  0  0  0  0  0  0  0  0  0
  -29.5130  -17.1930   20.1930 C   0  0  0  0  0  0  0  0  0  0  0  0
  -27.7990  -17.4610   20.4110 S   0  0  0  0  0  0  0  0  0  0  0  0
  -30.6780  -14.8320   19.7790 C   0  0  0  0  0  0  0  0  0  0  0  0
  -30.5600  -12.4920   18.8610 C   0  0  0  0  0  2  0  0  0  0  0  0
  -29.5080  -12.4700   17.7240 C   0  0  0  0  0  2  0  0  0  0  0  0
  -28.0830  -12.2720   18.2800 C   0  0  0  0  0  2  0  0  0  0  0  0
  -27.7850  -13.1940   19.4900 C   0  0  0  0  0  3  0  0  0  0  0  0
  -28.9350  -13.1400   20.5220 C   0  0  0  0  0  2  0  0  0  0  0  0
  -30.1700  -13.5470   19.8250 N   0  0  0  0  0  0  0  0  0  0  0  0
  -31.7800  -15.0500   19.2640 O   0  0  0  0  0  0  0  0  0  0  0  0
  -29.8170  -15.8120   20.2550 N   0  0  0  0  0  0  0  0  0  0  0  0
  -29.0770  -15.3240   20.7360 H   0  0  0  0  0  0  0  0  0  0  0  0
  -25.4980  -13.7870   20.4970 C   0  0  0  0  0  0  0  0  0  0  0  0
  -24.4560  -13.0130   20.9270 C   0  0  0  0  0  0  0  0  0  0  0  0
  -24.8740  -11.6580   20.7570 C   0  0  0  0  0  0  0  0  0  0  0  0
  -26.4880  -12.9050   20.0950 N   0  0  0  0  0  0  0  0  0  0  0  0
  -26.1240  -11.6140   20.3090 N   0  0  0  0  0  0  0  0  0  0  0  0
  -24.1370  -10.4010   20.9380 C   0  0  0  0  0  0  0  0  0  0  0  0
  -24.5630   -9.4220   21.8620 C   0  0  0  0  0  3  0  0  0  0  0  0
  -23.8260   -8.2300   22.0310 C   0  0  0  0  0  3  0  0  0  0  0  0
  -22.6490   -8.0090   21.2770 C   0  0  0  0  0  0  0  0  0  0  0  0
  -22.2420   -8.9770   20.3420 C   0  0  0  0  0  3  0  0  0  0  0  0
  -22.9790  -10.1610   20.1710 C   0  0  0  0  0  3  0  0  0  0  0  0
  -21.8850   -6.8700   21.3560 O   0  0  0  0  0  0  0  0  0  0  0  0
  -21.7450   -6.1770   22.5310 C   0  0  0  0  0  0  0  0  0  0  0  0
  -21.2020   -6.7760   23.6890 C   0  0  0  0  0  3  0  0  0  0  0  0
  -21.0130   -6.0070   24.8550 C   0  0  0  0  0  3  0  0  0  0  0  0
  -21.3560   -4.6420   24.8640 C   0  0  0  0  0  0  0  0  0  0  0  0
  -21.8920   -4.0430   23.7110 C   0  0  0  0  0  3  0  0  0  0  0  0
  -22.0830   -4.8090   22.5460 C   0  0  0  0  0  0  0  0  0  0  0  0
  -22.5800   -4.2220   21.4310 F   0  0  0  0  0  0  0  0  0  0  0  0
  -21.1670   -3.9020   25.9810 F   0  0  0  0  0  0  0  0  0  0  0  0
  -23.1080  -13.5000   21.3780 C   0  0  0  0  0  0  0  0  0  0  0  0
  -22.4620  -12.7680   22.2790 N   0  0  0  0  0  0  0  0  0  0  0  0
  -22.6420  -14.5620   20.9670 O   0  0  0  0  0  0  0  0  0  0  0  0
  -22.8550  -11.9080   22.6320 H   0  0  0  0  0  0  0  0  0  0  0  0
  -21.5630  -13.0750   22.6230 H   0  0  0  0  0  0  0  0  0  0  0  0
  -25.6770  -15.1630   20.3910 N   0  0  0  0  0  0  0  0  0  0  0  0
  -24.9400  -15.8200   20.6240 H   0  0  0  0  0  0  0  0  0  0  0  0
  -26.4880  -15.6090   19.9830 H   0  0  0  0  0  0  0  0  0  0  0  0
  -28.1890  -24.9450   20.1710 C   0  0  0  0  0  2  0  0  0  0  0  0
  -28.3850  -26.3900   19.7560 O   0  0  0  0  0  0  0  0  0  0  0  0
  -24.6790  -31.7650   23.0220 C   0  0  0  0  0  0  0  0  0  0  0  0
  -27.2790  -27.2800   19.7880 C   0  0  0  0  0  0  0  0  0  0  0  0
  -23.4630  -30.4070   21.3580 C   0  0  0  0  0  3  0  0  0  0  0  0
  -24.9060  -28.9090   19.8600 C   0  0  0  0  0  0  0  0  0  0  0  0
  -26.0000  -30.7430   21.1460 C   0  0  0  0  0  2  0  0  0  0  0  0
  -26.0840  -29.3800   20.4540 C   0  0  0  0  0  0  0  0  0  0  0  0
  -27.2750  -28.5820   20.4020 C   0  0  0  0  0  3  0  0  0  0  0  0
  -26.0780  -26.8820   19.1650 C   0  0  0  0  0  3  0  0  0  0  0  0
  -24.9080  -27.6680   19.2030 C   0  0  0  0  0  3  0  0  0  0  0  0
  -23.6630  -29.7760   19.9550 C   0  0  0  0  0  2  0  0  0  0  0  0
  -24.7340  -30.9900   21.8990 N   0  0  0  0  0  0  0  0  0  0  0  0
  -23.6010  -32.0150   23.5820 O   0  0  0  0  0  0  0  0  0  0  0  0
  -22.8220  -29.3580   22.2980 C   0  0  0  0  0  0  0  0  0  0  0  0
  -21.4900  -29.1950   22.2110 N   0  0  0  0  0  0  0  0  0  0  0  0
  -23.5210  -28.6920   23.0660 O   0  0  0  0  0  0  0  0  0  0  0  0
  -20.9830  -29.7850   21.5660 H   0  0  0  0  0  0  0  0  0  0  0  0
  -18.1160  -28.0320   22.8190 C   0  0  0  0  0  0  0  0  0  0  0  0
  -20.6910  -28.2300   22.9690 C   0  0  0  0  0  3  0  0  0  0  0  0
  -20.7330  -26.8330   22.3100 C   0  0  0  0  0  2  0  0  0  0  0  0
  -19.5750  -26.5890   21.3370 C   0  0  0  0  0  2  0  0  0  0  0  0
  -18.2310  -26.7210   22.0590 C   0  0  0  0  0  2  0  0  0  0  0  0
  -19.2720  -28.7480   23.2330 C   0  0  0  0  0  0  0  0  0  0  0  0
  -19.1090  -29.9770   23.9080 C   0  0  0  0  0  3  0  0  0  0  0  0
  -17.8250  -30.4900   24.1710 C   0  0  0  0  0  3  0  0  0  0  0  0
  -16.6850  -29.7700   23.7720 C   0  0  0  0  0  3  0  0  0  0  0  0
  -16.8320  -28.5420   23.1020 C   0  0  0  0  0  3  0  0  0  0  0  0
  -25.9640  -32.3930   23.6440 C   0  0  0  0  0  3  0  0  0  0  0  0
  -25.6330  -33.7630   24.0630 N   0  0  0  0  0  0  0  0  0  0  0  0
  -25.9150  -34.8650   23.3560 C   0  0  0  0  0  0  0  0  0  0  0  0
  -26.5500  -34.8360   22.2980 O   0  0  0  0  0  0  0  0  0  0  0  0
  -25.0640  -33.8570   24.8910 H   0  0  0  0  0  0  0  0  0  0  0  0
  -24.1340  -36.6340   23.1700 C   0  0  0  0  0  1  0  0  0  0  0  0
  -25.4160  -36.2150   23.9090 C   0  0  0  0  0  3  0  0  0  0  0  0
  -27.5560  -37.1100   24.7130 C   0  0  0  0  0  1  0  0  0  0  0  0
  -26.4190  -37.2970   23.8160 N   0  0  0  0  0  0  0  0  0  0  0  0
  -25.9970  -38.1980   24.0230 H   0  0  0  0  0  0  0  0  0  0  0  0
  -26.5320  -31.5640   24.8630 C   0  0  1  0  0  0  0  0  0  0  0  0
  -25.4720  -31.2400   25.9420 C   0  0  0  0  0  1  0  0  0  0  0  0
  -27.1370  -30.2260   24.3810 C   0  0  0  0  0  1  0  0  0  0  0  0
  -27.6790  -32.3490   25.5390 C   0  0  0  0  0  1  0  0  0  0  0  0
  2  6  1  0
  2  1  1  0
  4  5  1  6
  4  3  1  0
  4  1  1  0
  4 50  1  0
  6  3  1  0
  6  9  1  0
  7 10  2  0
  8 11  1  0
  9  7  1  0
  9  8  2  0
 10 20  1  0
 10 11  1  0
 12 18  1  0
 12 20  1  0
 13 18  1  0
 14 15  1  0
 14 13  1  0
 16 15  1  0
 16 25  1  0
 16 17  1  0
 18 17  1  0
 19 12  2  0
 20 21  1  0
 22 23  2  0
 23 42  1  0
 24 23  1  0
 24 27  1  0
 25 26  1  0
 25 22  1  0
 26 24  2  0
 27 28  1  0
 28 29  2  0
 30 33  1  0
 30 29  1  0
 31 30  2  0
 32 31  1  0
 32 27  2  0
 33 34  1  0
 34 39  2  0
 34 35  1  0
 35 36  2  0
 36 37  1  0
 37 41  1  0
 38 37  2  0
 39 38  1  0
 40 39  1  0
 42 43  1  0
 43 46  1  0
 43 45  1  0
 44 42  2  0
 47 22  1  0
 47 48  1  0
 49 47  1  0
 51 53  1  0
 51 50  1  0
 52 63  2  0
 53 58  1  0
 54 62  1  0
 54 64  1  0
 55 61  1  0
 55 57  1  0
 56 62  1  0
 57 56  1  0
 58 57  2  0
 59 60  1  0
 59 53  2  0
 60 55  2  0
 61 54  1  0
 62 52  1  0
 64 66  2  0
 65 64  1  0
 67 65  1  0
 68 77  2  0
 68 73  1  0
 69 65  1  0
 69 73  1  0
 70 69  1  0
 71 72  1  0
 71 70  1  0
 72 68  1  0
 73 74  2  0
 74 75  1  0
 76 75  2  0
 77 76  1  0
 78 52  1  0
 78 79  1  0
 78 88  1  0
 79 82  1  0
 80 84  1  0
 80 79  1  0
 81 80  2  0
 84 83  1  0
 86 84  1  0
 86 87  1  0
 86 85  1  0
 88 91  1  1
 88 89  1  0
 90 88  1  0
M  ISO  4  12 100  20 100  50 101  51 101
M  END
>  <TORSDO>  (49) 
F 18

>  <SCORE>  (49) 
-13.832

>  <name>  (49) 
48

>  <ligand_id>  (49) 
48

>  <original_smiles>  (49) 
[H]c1sc(N([H])C(=O)N2C([H])([H])C([H])([H])C([H])([H])C([H])(n3nc(-c4c([H])c([H])c(Oc5c([H])c([H])c(F)c([H])c5F)c([H])c4[H])c(C(=O)N([H])[H])c3N([H])[H])C2([H])[H])c([H])c1N1C([H])([H])C([H])([H])C(C([H])([H])[H])(C([H])([H])Oc2c([H])c([H])c3c(c2[H])C([H])([H])N(C(=O)C([H])(N([H])C(=O)C([H])(N([H])C([H])([H])[H])C([H])([H])[H])C(C([H])([H])[H])(C([H])([H])[H])C([H])([H])[H])C([H])(C(=O)N([H])C2([H])c4c([H])c([H])c([H])c([H])c4C([H])([H])C([H])([H])C2([H])[H])C3([H])[H])C1([H])[H]

>  <smiles>  (49) 
[H]c1sc(N([H])C(=O)N2C([H])([H])C([H])([H])C([H])([H])C([H])(n3nc(-c4c([H])c([H])c(Oc5c([H])c([H])c(F)c([H])c5F)c([H])c4[H])c(C(=O)N([H])[H])c3N([H])[H])C2([H])[H])c([H])c1N1C([H])([H])C([H])([H])C(C([H])([H])[H])(C([H])([H])Oc2c([H])c([H])c3c(c2[H])C([H])([H])N(C(=O)C([H])(N([H])C(=O)C([H])(N([H])C([H])([H])[H])C([H])([H])[H])C(C([H])([H])[H])(C([H])([H])[H])C([H])([H])[H])C([H])(C(=O)N([H])C2([H])c4c([H])c([H])c([H])c([H])c4C([H])([H])C([H])([H])C2([H])[H])C3([H])[H])C1([H])[H]

$$$$
49:0:0
     RDKit          3D

 92100  0  0  1  0  0  0  0  0999 V2000
  -27.9950  -18.6820   20.3070 C   0  0  0  0  0  3  0  0  0  0  0  0
  -29.3510  -18.6680   20.5210 C   0  0  0  0  0  0  0  0  0  0  0  0
  -28.9540  -21.0180   20.5150 C   0  0  0  0  0  0  0  0  0  0  0  0
  -29.8810  -20.0130   20.6540 N   0  0  0  0  0  0  0  0  0  0  0  0
  -29.1490  -22.4530   20.6160 N   0  0  0  0  0  0  0  0  0  0  0  0
  -27.3540  -20.3250   20.2160 S   0  0  0  0  0  0  0  0  0  0  0  0
  -30.0250  -22.6670   21.0820 H   0  0  0  0  0  0  0  0  0  0  0  0
  -30.6710  -14.8180   20.3840 C   0  0  0  0  0  0  0  0  0  0  0  0
  -30.4900  -12.5320   19.3680 C   0  0  0  0  0  2  0  0  0  0  0  0
  -29.5630  -12.5660   18.1300 C   0  0  0  0  0  2  0  0  0  0  0  0
  -28.0920  -12.3860   18.5530 C   0  0  0  0  0  2  0  0  0  0  0  0
  -27.6950  -13.3020   19.7400 C   0  0  0  0  0  3  0  0  0  0  0  0
  -28.7380  -13.2400   20.8780 C   0  0  0  0  0  2  0  0  0  0  0  0
  -30.0360  -13.5950   20.2960 N   0  0  0  0  0  0  0  0  0  0  0  0
  -31.8730  -14.9120   20.0950 O   0  0  0  0  0  0  0  0  0  0  0  0
  -30.2660  -17.4240   20.5070 C   0  0  0  0  0  0  0  0  0  0  0  0
  -29.8580  -16.0790   20.5520 N   0  0  0  0  0  0  0  0  0  0  0  0
  -31.5670  -17.7370   20.4240 N   0  0  0  0  0  4  0  0  0  0  0  0
  -28.8670  -16.0110   20.6840 H   0  0  0  0  0  0  0  0  0  0  0  0
  -31.8080  -18.7190   20.4230 H   0  0  0  0  0  0  0  0  0  0  0  0
  -32.2900  -17.0330   20.3600 H   0  0  0  0  0  0  0  0  0  0  0  0
  -25.3070  -13.9030   20.4480 C   0  0  0  0  0  0  0  0  0  0  0  0
  -24.2380  -13.1350   20.8170 C   0  0  0  0  0  0  0  0  0  0  0  0
  -24.6990  -11.7830   20.8010 C   0  0  0  0  0  0  0  0  0  0  0  0
  -26.3490  -13.0200   20.2210 N   0  0  0  0  0  0  0  0  0  0  0  0
  -25.9920  -11.7410   20.5030 N   0  0  0  0  0  0  0  0  0  0  0  0
  -23.9680  -10.5250   20.9880 C   0  0  0  0  0  0  0  0  0  0  0  0
  -24.3770   -9.5720   21.9480 C   0  0  0  0  0  3  0  0  0  0  0  0
  -23.6500   -8.3750   22.1250 C   0  0  0  0  0  3  0  0  0  0  0  0
  -22.5000   -8.1240   21.3410 C   0  0  0  0  0  0  0  0  0  0  0  0
  -22.1090   -9.0620   20.3710 C   0  0  0  0  0  3  0  0  0  0  0  0
  -22.8360  -10.2530   20.1940 C   0  0  0  0  0  3  0  0  0  0  0  0
  -21.7460   -6.9770   21.4260 O   0  0  0  0  0  0  0  0  0  0  0  0
  -21.6560   -6.2590   22.5920 C   0  0  0  0  0  0  0  0  0  0  0  0
  -21.1560   -6.8310   23.7820 C   0  0  0  0  0  3  0  0  0  0  0  0
  -21.0150   -6.0370   24.9380 C   0  0  0  0  0  3  0  0  0  0  0  0
  -21.3620   -4.6730   24.9030 C   0  0  0  0  0  0  0  0  0  0  0  0
  -21.8550   -4.1010   23.7180 C   0  0  0  0  0  3  0  0  0  0  0  0
  -22.0000   -4.8930   22.5640 C   0  0  0  0  0  0  0  0  0  0  0  0
  -22.4540   -4.3320   21.4170 F   0  0  0  0  0  0  0  0  0  0  0  0
  -21.2210   -3.9100   26.0110 F   0  0  0  0  0  0  0  0  0  0  0  0
  -22.8390  -13.6140   21.0640 C   0  0  0  0  0  0  0  0  0  0  0  0
  -22.0980  -12.9250   21.9220 N   0  0  0  0  0  0  0  0  0  0  0  0
  -22.4110  -14.6390   20.5370 O   0  0  0  0  0  0  0  0  0  0  0  0
  -22.4600  -12.0970   22.3720 H   0  0  0  0  0  0  0  0  0  0  0  0
  -21.1600  -13.2340   22.1330 H   0  0  0  0  0  0  0  0  0  0  0  0
  -25.4670  -15.2700   20.2510 N   0  0  0  0  0  0  0  0  0  0  0  0
  -24.6220  -15.8310   20.2170 H   0  0  0  0  0  0  0  0  0  0  0  0
  -26.1740  -15.6080   19.6160 H   0  0  0  0  0  0  0  0  0  0  0  0
  -28.5380  -23.7190   20.0200 C   0  0  0  0  0  2  0  0  0  0  0  0
  -28.3950  -25.0840   20.8930 C   0  0  0  0  0  2  0  0  0  0  0  0
  -28.4630  -26.4700   20.3090 O   0  0  0  0  0  0  0  0  0  0  0  0
  -24.5960  -31.8830   23.2370 C   0  0  0  0  0  0  0  0  0  0  0  0
  -27.3340  -27.3120   20.2900 C   0  0  0  0  0  0  0  0  0  0  0  0
  -23.4480  -30.4660   21.5690 C   0  0  0  0  0  3  0  0  0  0  0  0
  -24.9570  -28.9190   20.1880 C   0  0  0  0  0  0  0  0  0  0  0  0
  -25.9880  -30.8110   21.4450 C   0  0  0  0  0  2  0  0  0  0  0  0
  -26.1040  -29.4240   20.8130 C   0  0  0  0  0  0  0  0  0  0  0  0
  -27.2980  -28.6340   20.8470 C   0  0  0  0  0  3  0  0  0  0  0  0
  -26.1690  -26.8670   19.6360 C   0  0  0  0  0  3  0  0  0  0  0  0
  -24.9960  -27.6500   19.5820 C   0  0  0  0  0  3  0  0  0  0  0  0
  -23.7070  -29.7810   20.1980 C   0  0  0  0  0  2  0  0  0  0  0  0
  -24.6950  -31.0710   22.1430 N   0  0  0  0  0  0  0  0  0  0  0  0
  -23.4960  -32.1490   23.7440 O   0  0  0  0  0  0  0  0  0  0  0  0
  -22.7720  -29.4480   22.5200 C   0  0  0  0  0  0  0  0  0  0  0  0
  -21.4440  -29.2820   22.3880 N   0  0  0  0  0  0  0  0  0  0  0  0
  -23.4400  -28.8060   23.3370 O   0  0  0  0  0  0  0  0  0  0  0  0
  -20.9630  -29.8580   21.7110 H   0  0  0  0  0  0  0  0  0  0  0  0
  -18.0510  -28.1200   22.8810 C   0  0  0  0  0  0  0  0  0  0  0  0
  -20.6160  -28.3380   23.1410 C   0  0  0  0  0  3  0  0  0  0  0  0
  -20.6940  -26.9200   22.5280 C   0  0  0  0  0  2  0  0  0  0  0  0
  -19.5840  -26.6410   21.5120 C   0  0  0  0  0  2  0  0  0  0  0  0
  -18.2060  -26.7860   22.1690 C   0  0  0  0  0  2  0  0  0  0  0  0
  -19.1860  -28.8550   23.3230 C   0  0  0  0  0  0  0  0  0  0  0  0
  -18.9890  -30.1060   23.9450 C   0  0  0  0  0  3  0  0  0  0  0  0
  -17.6930  -30.6240   24.1270 C   0  0  0  0  0  3  0  0  0  0  0  0
  -16.5740  -29.8850   23.7050 C   0  0  0  0  0  3  0  0  0  0  0  0
  -16.7560  -28.6360   23.0860 C   0  0  0  0  0  3  0  0  0  0  0  0
  -25.8540  -32.5330   23.8900 C   0  0  0  0  0  3  0  0  0  0  0  0
  -25.5250  -33.9310   24.1970 N   0  0  0  0  0  0  0  0  0  0  0  0
  -25.8560  -34.9790   23.4300 C   0  0  0  0  0  0  0  0  0  0  0  0
  -26.5450  -34.8700   22.4110 O   0  0  0  0  0  0  0  0  0  0  0  0
  -24.9140  -34.0880   24.9850 H   0  0  0  0  0  0  0  0  0  0  0  0
  -24.1250  -36.7590   23.0200 C   0  0  0  0  0  1  0  0  0  0  0  0
  -25.3490  -36.3690   23.8620 C   0  0  0  0  0  3  0  0  0  0  0  0
  -27.4530  -37.2850   24.7380 C   0  0  0  0  0  1  0  0  0  0  0  0
  -26.3760  -37.4290   23.7620 N   0  0  0  0  0  0  0  0  0  0  0  0
  -25.9570  -38.3460   23.8870 H   0  0  0  0  0  0  0  0  0  0  0  0
  -26.3370  -31.7800   25.1910 C   0  0  1  0  0  0  0  0  0  0  0  0
  -25.2150  -31.5520   26.2300 C   0  0  0  0  0  1  0  0  0  0  0  0
  -26.9400  -30.4010   24.8350 C   0  0  0  0  0  1  0  0  0  0  0  0
  -27.4590  -32.5920   25.8800 C   0  0  0  0  0  1  0  0  0  0  0  0
  1  2  2  0
  2  4  1  0
  3  5  1  0
  3  4  2  0
  5  7  1  0
  6  1  1  0
  6  3  1  0
  8 17  1  0
  9 14  1  0
 10 11  1  0
 10  9  1  0
 12 11  1  0
 12 25  1  0
 12 13  1  0
 14  8  1  0
 14 13  1  0
 15  8  2  0
 16  2  1  0
 16 17  1  0
 17 19  1  0
 18 16  2  0
 20 18  1  0
 21 18  1  0
 22 23  2  0
 23 42  1  0
 24 23  1  0
 24 27  1  0
 25 22  1  0
 25 26  1  0
 26 24  2  0
 27 28  1  0
 28 29  2  0
 30 33  1  0
 30 29  1  0
 31 30  2  0
 32 31  1  0
 32 27  2  0
 33 34  1  0
 34 35  1  0
 35 36  2  0
 37 36  1  0
 37 41  1  0
 38 37  2  0
 39 34  2  0
 39 38  1  0
 40 39  1  0
 42 43  1  0
 43 46  1  0
 43 45  1  0
 44 42  2  0
 47 22  1  0
 48 47  1  0
 49 47  1  0
 50  5  1  0
 50 51  1  0
 52 51  1  0
 53 64  2  0
 54 52  1  0
 54 59  1  0
 55 63  1  0
 55 65  1  0
 56 62  1  0
 56 58  1  0
 57 63  1  0
 58 59  2  0
 58 57  1  0
 60 54  2  0
 61 60  1  0
 61 56  2  0
 62 55  1  0
 63 53  1  0
 65 67  2  0
 66 65  1  0
 68 66  1  0
 69 78  2  0
 69 74  1  0
 70 66  1  0
 70 74  1  0
 71 70  1  0
 72 73  1  0
 72 71  1  0
 73 69  1  0
 74 75  2  0
 75 76  1  0
 77 76  2  0
 78 77  1  0
 79 53  1  0
 79 80  1  0
 79 89  1  0
 80 83  1  0
 81 85  1  0
 81 80  1  0
 82 81  2  0
 85 84  1  0
 87 85  1  0
 87 88  1  0
 87 86  1  0
 89 92  1  1
 89 90  1  0
 91 89  1  0
M  ISO  4   8 100  17 100  51 101  52 101
M  END
>  <TORSDO>  (50) 
F 18

>  <SCORE>  (50) 
-14.188

>  <name>  (50) 
49

>  <ligand_id>  (50) 
49

>  <original_smiles>  (50) 
[H]c1sc(N([H])C([H])([H])C([H])([H])Oc2c([H])c([H])c3c(c2[H])C([H])([H])N(C(=O)C([H])(N([H])C(=O)C([H])(N([H])C([H])([H])[H])C([H])([H])[H])C(C([H])([H])[H])(C([H])([H])[H])C([H])([H])[H])C([H])(C(=O)N([H])C2([H])c4c([H])c([H])c([H])c([H])c4C([H])([H])C([H])([H])C2([H])[H])C3([H])[H])nc1C(N([H])C(=O)N1C([H])([H])C([H])([H])C([H])([H])C([H])(n2nc(-c3c([H])c([H])c(Oc4c([H])c([H])c(F)c([H])c4F)c([H])c3[H])c(C(=O)N([H])[H])c2N([H])[H])C1([H])[H])=[N+]([H])[H]

>  <smiles>  (50) 
[H]c1sc(N([H])C([H])([H])C([H])([H])Oc2c([H])c([H])c3c(c2[H])C([H])([H])N(C(=O)C([H])(N([H])C(=O)C([H])(N([H])C([H])([H])[H])C([H])([H])[H])C(C([H])([H])[H])(C([H])([H])[H])C([H])([H])[H])C([H])(C(=O)N([H])C2([H])c4c([H])c([H])c([H])c([H])c4C([H])([H])C([H])([H])C2([H])[H])C3([H])[H])nc1C(N([H])C(=O)N1C([H])([H])C([H])([H])C([H])([H])C([H])(n2nc(-c3c([H])c([H])c(Oc4c([H])c([H])c(F)c([H])c4F)c([H])c3[H])c(C(=O)N([H])[H])c2N([H])[H])C1([H])[H])=[N+]([H])[H]

$$$$
50:0:0
     RDKit          3D

 91100  0  0  1  0  0  0  0  0999 V2000
  -29.0230  -22.5490   19.4800 N   0  0  0  0  0  0  0  0  0  0  0  0
  -29.0590  -22.7240   18.4780 H   0  0  0  0  0  0  0  0  0  0  0  0
  -29.5560  -20.6290   21.1480 C   0  0  0  0  0  2  0  0  0  0  0  0
  -29.8500  -19.2150   21.0440 C   0  0  0  0  0  3  0  0  0  0  0  0
  -29.6340  -18.5620   19.7820 C   0  0  0  0  0  3  0  0  0  0  0  0
  -29.2730  -21.1840   19.8990 C   0  0  0  0  0  3  0  0  0  0  0  0
  -30.5960  -18.0330   21.5960 C   0  0  0  0  0  2  0  0  0  0  0  0
  -30.5660  -17.3680   20.1360 C   0  0  0  0  0  3  0  0  0  0  0  0
  -29.4940  -19.8980   18.6290 S   0  0  0  0  0  0  0  0  0  0  0  0
  -30.8690  -14.7750   19.9200 C   0  0  0  0  0  0  0  0  0  0  0  0
  -30.6180  -12.4790   18.9730 C   0  0  0  0  0  2  0  0  0  0  0  0
  -29.6140  -12.5200   17.8010 C   0  0  0  0  0  2  0  0  0  0  0  0
  -28.1680  -12.3640   18.3140 C   0  0  0  0  0  2  0  0  0  0  0  0
  -27.8610  -13.2830   19.5270 C   0  0  0  0  0  3  0  0  0  0  0  0
  -28.9770  -13.2190   20.5910 C   0  0  0  0  0  2  0  0  0  0  0  0
  -30.2380  -13.5530   19.9170 N   0  0  0  0  0  0  0  0  0  0  0  0
  -32.0400  -14.8650   19.5360 O   0  0  0  0  0  0  0  0  0  0  0  0
  -30.1150  -15.9110   20.1570 N   0  0  0  0  0  0  0  0  0  0  0  0
  -29.1490  -15.7510   20.3980 H   0  0  0  0  0  0  0  0  0  0  0  0
  -25.5420  -13.9030   20.4320 C   0  0  0  0  0  0  0  0  0  0  0  0
  -24.4840  -13.1400   20.8450 C   0  0  0  0  0  0  0  0  0  0  0  0
  -24.9090  -11.7810   20.7360 C   0  0  0  0  0  0  0  0  0  0  0  0
  -26.5450  -13.0090   20.0960 N   0  0  0  0  0  0  0  0  0  0  0  0
  -26.1750  -11.7260   20.3410 N   0  0  0  0  0  0  0  0  0  0  0  0
  -24.1650  -10.5300   20.9280 C   0  0  0  0  0  0  0  0  0  0  0  0
  -24.5740   -9.5640   21.8740 C   0  0  0  0  0  3  0  0  0  0  0  0
  -23.8310   -8.3770   22.0550 C   0  0  0  0  0  3  0  0  0  0  0  0
  -22.6640   -8.1480   21.2880 C   0  0  0  0  0  0  0  0  0  0  0  0
  -22.2740   -9.1010   20.3300 C   0  0  0  0  0  3  0  0  0  0  0  0
  -23.0180  -10.2790   20.1490 C   0  0  0  0  0  3  0  0  0  0  0  0
  -21.8950   -7.0130   21.3760 O   0  0  0  0  0  0  0  0  0  0  0  0
  -21.7530   -6.3290   22.5550 C   0  0  0  0  0  0  0  0  0  0  0  0
  -21.1900   -6.9310   23.7030 C   0  0  0  0  0  3  0  0  0  0  0  0
  -20.9990   -6.1710   24.8740 C   0  0  0  0  0  3  0  0  0  0  0  0
  -21.3610   -4.8110   24.8990 C   0  0  0  0  0  0  0  0  0  0  0  0
  -21.9170   -4.2090   23.7580 C   0  0  0  0  0  3  0  0  0  0  0  0
  -22.1100   -4.9660   22.5880 C   0  0  0  0  0  0  0  0  0  0  0  0
  -22.6270   -4.3760   21.4830 F   0  0  0  0  0  0  0  0  0  0  0  0
  -21.1710   -4.0800   26.0220 F   0  0  0  0  0  0  0  0  0  0  0  0
  -23.1190  -13.6390   21.2230 C   0  0  0  0  0  0  0  0  0  0  0  0
  -22.4290  -12.9270   22.1080 N   0  0  0  0  0  0  0  0  0  0  0  0
  -22.6760  -14.6940   20.7690 O   0  0  0  0  0  0  0  0  0  0  0  0
  -22.8020  -12.0730   22.4950 H   0  0  0  0  0  0  0  0  0  0  0  0
  -21.5160  -13.2420   22.4040 H   0  0  0  0  0  0  0  0  0  0  0  0
  -25.7260  -15.2760   20.2880 N   0  0  0  0  0  0  0  0  0  0  0  0
  -24.9710  -15.9340   20.4570 H   0  0  0  0  0  0  0  0  0  0  0  0
  -26.5380  -15.7070   19.8690 H   0  0  0  0  0  0  0  0  0  0  0  0
  -28.5120  -23.7300   20.2800 C   0  0  0  0  0  2  0  0  0  0  0  0
  -28.3920  -25.2090   18.0990 C   0  0  0  0  0  1  0  0  0  0  0  0
  -28.7260  -25.1900   19.6030 C   0  0  0  0  0  3  0  0  0  0  0  0
  -28.4350  -26.5010   20.2740 O   0  0  0  0  0  0  0  0  0  0  0  0
  -24.5880  -31.8880   23.1800 C   0  0  0  0  0  0  0  0  0  0  0  0
  -27.2710  -27.2960   20.1900 C   0  0  0  0  0  0  0  0  0  0  0  0
  -23.4110  -30.4590   21.5450 C   0  0  0  0  0  3  0  0  0  0  0  0
  -24.8860  -28.9000   20.1480 C   0  0  0  0  0  0  0  0  0  0  0  0
  -25.9500  -30.7940   21.3800 C   0  0  0  0  0  2  0  0  0  0  0  0
  -26.0450  -29.4070   20.7450 C   0  0  0  0  0  0  0  0  0  0  0  0
  -27.2360  -28.6170   20.7530 C   0  0  0  0  0  3  0  0  0  0  0  0
  -26.0760  -26.8350   19.5990 C   0  0  0  0  0  3  0  0  0  0  0  0
  -24.9050  -27.6210   19.5670 C   0  0  0  0  0  3  0  0  0  0  0  0
  -23.6430  -29.7690   20.1750 C   0  0  0  0  0  2  0  0  0  0  0  0
  -24.6680  -31.0660   22.0920 N   0  0  0  0  0  0  0  0  0  0  0  0
  -23.4970  -32.1620   23.7020 O   0  0  0  0  0  0  0  0  0  0  0  0
  -22.7480  -29.4500   22.5120 C   0  0  0  0  0  0  0  0  0  0  0  0
  -21.4230  -29.2680   22.3850 N   0  0  0  0  0  0  0  0  0  0  0  0
  -23.4260  -28.8310   23.3370 O   0  0  0  0  0  0  0  0  0  0  0  0
  -20.9330  -29.8200   21.6940 H   0  0  0  0  0  0  0  0  0  0  0  0
  -18.0430  -28.0860   22.9050 C   0  0  0  0  0  0  0  0  0  0  0  0
  -20.6040  -28.3340   23.1610 C   0  0  0  0  0  3  0  0  0  0  0  0
  -20.6960  -26.9030   22.5830 C   0  0  0  0  0  2  0  0  0  0  0  0
  -19.5870  -26.5850   21.5740 C   0  0  0  0  0  2  0  0  0  0  0  0
  -18.2100  -26.7370   22.2270 C   0  0  0  0  0  2  0  0  0  0  0  0
  -19.1680  -28.8430   23.3290 C   0  0  0  0  0  0  0  0  0  0  0  0
  -18.9580  -30.1060   23.9220 C   0  0  0  0  0  3  0  0  0  0  0  0
  -17.6560  -30.6120   24.0980 C   0  0  0  0  0  3  0  0  0  0  0  0
  -16.5460  -29.8530   23.6910 C   0  0  0  0  0  3  0  0  0  0  0  0
  -16.7410  -28.5920   23.0990 C   0  0  0  0  0  3  0  0  0  0  0  0
  -25.8590  -32.5390   23.8070 C   0  0  0  0  0  3  0  0  0  0  0  0
  -26.3850  -31.7740   25.0830 C   0  0  1  0  0  0  0  0  0  0  0  0
  -25.2910  -31.5110   26.1460 C   0  0  0  0  0  1  0  0  0  0  0  0
  -26.9970  -30.4090   24.6900 C   0  0  0  0  0  1  0  0  0  0  0  0
  -27.5170  -32.5880   25.7530 C   0  0  0  0  0  1  0  0  0  0  0  0
  -25.5260  -33.9310   24.1420 N   0  0  0  0  0  0  0  0  0  0  0  0
  -25.8430  -34.9940   23.3900 C   0  0  0  0  0  0  0  0  0  0  0  0
  -26.5140  -34.9050   22.3580 O   0  0  0  0  0  0  0  0  0  0  0  0
  -24.9300  -34.0730   24.9440 H   0  0  0  0  0  0  0  0  0  0  0  0
  -24.0960  -36.7700   23.0340 C   0  0  0  0  0  1  0  0  0  0  0  0
  -25.3340  -36.3720   23.8540 C   0  0  0  0  0  3  0  0  0  0  0  0
  -27.4430  -37.2810   24.7210 C   0  0  0  0  0  1  0  0  0  0  0  0
  -26.3550  -37.4390   23.7610 N   0  0  0  0  0  0  0  0  0  0  0  0
  -25.9340  -38.3530   23.9060 H   0  0  0  0  0  0  0  0  0  0  0  0
  1 48  1  0
  2  1  1  0
  4  3  1  0
  4  7  1  0
  5  9  1  0
  5  8  1  0
  5  4  1  0
  6  1  1  0
  6  3  1  0
  8 18  1  0
  8  7  1  0
  9  6  1  0
 10 18  1  0
 11 16  1  0
 12 13  1  0
 12 11  1  0
 14 13  1  0
 14 23  1  0
 14 15  1  0
 16 10  1  0
 16 15  1  0
 17 10  2  0
 18 19  1  0
 20 21  2  0
 21 40  1  0
 22 21  1  0
 22 25  1  0
 23 24  1  0
 23 20  1  0
 24 22  2  0
 25 26  1  0
 26 27  2  0
 28 31  1  0
 28 27  1  0
 29 28  2  0
 30 29  1  0
 30 25  2  0
 31 32  1  0
 32 37  2  0
 32 33  1  0
 33 34  2  0
 34 35  1  0
 35 39  1  0
 36 35  2  0
 37 36  1  0
 38 37  1  0
 40 41  1  0
 41 44  1  0
 41 43  1  0
 42 40  2  0
 45 20  1  0
 45 46  1  0
 47 45  1  0
 50 49  1  0
 50 51  1  0
 50 48  1  0
 52 63  2  0
 53 51  1  0
 53 58  1  0
 54 62  1  0
 54 64  1  0
 55 61  1  0
 55 57  1  0
 56 62  1  0
 57 58  2  0
 57 56  1  0
 59 53  2  0
 60 59  1  0
 60 55  2  0
 61 54  1  0
 62 52  1  0
 64 66  2  0
 65 64  1  0
 67 65  1  0
 68 77  2  0
 68 73  1  0
 69 65  1  0
 69 73  1  0
 70 69  1  0
 71 72  1  0
 71 70  1  0
 72 68  1  0
 73 74  2  0
 74 75  1  0
 76 75  2  0
 77 76  1  0
 78 52  1  0
 78 83  1  0
 78 79  1  0
 79 82  1  1
 79 80  1  0
 81 79  1  0
 83 86  1  0
 84 88  1  0
 84 83  1  0
 85 84  2  0
 88 87  1  0
 90 88  1  0
 90 91  1  0
 90 89  1  0
M  ISO  4  10 100  18 100  50 101  51 101
M  END
>  <TORSDO>  (51) 
F 19

>  <SCORE>  (51) 
-13.928

>  <name>  (51) 
50

>  <ligand_id>  (51) 
50

>  <original_smiles>  (51) 
[H]c1c([H])c([H])c2c(c1[H])C([H])([H])C([H])([H])C([H])([H])C2([H])N([H])C(=O)C1([H])N(C(=O)C([H])(N([H])C(=O)C([H])(N([H])C([H])([H])[H])C([H])([H])[H])C(C([H])([H])[H])(C([H])([H])[H])C([H])([H])[H])C([H])([H])c2c([H])c(OC([H])(C([H])([H])[H])C([H])([H])N([H])c3sc4c(c3[H])C([H])([H])C4([H])N([H])C(=O)N3C([H])([H])C([H])([H])C([H])([H])C([H])(n4nc(-c5c([H])c([H])c(Oc6c([H])c([H])c(F)c([H])c6F)c([H])c5[H])c(C(=O)N([H])[H])c4N([H])[H])C3([H])[H])c([H])c([H])c2C1([H])[H]

>  <smiles>  (51) 
[H]c1c([H])c([H])c2c(c1[H])C([H])([H])C([H])([H])C([H])([H])C2([H])N([H])C(=O)C1([H])N(C(=O)C([H])(N([H])C(=O)C([H])(N([H])C([H])([H])[H])C([H])([H])[H])C(C([H])([H])[H])(C([H])([H])[H])C([H])([H])[H])C([H])([H])c2c([H])c(OC([H])(C([H])([H])[H])C([H])([H])N([H])c3sc4c(c3[H])C([H])([H])C4([H])N([H])C(=O)N3C([H])([H])C([H])([H])C([H])([H])C([H])(n4nc(-c5c([H])c([H])c(Oc6c([H])c([H])c(F)c([H])c6F)c([H])c5[H])c(C(=O)N([H])[H])c4N([H])[H])C3([H])[H])c([H])c([H])c2C1([H])[H]

$$$$
51:0:0
     RDKit          3D

 92101  0  0  1  0  0  0  0  0999 V2000
  -26.8760  -21.9350   20.9210 C   0  0  0  0  0  2  0  0  0  0  0  0
  -27.4300  -21.3140   19.6380 C   0  0  0  0  0  2  0  0  0  0  0  0
  -28.1280  -21.3900   21.6080 C   0  0  0  0  0  2  0  0  0  0  0  0
  -28.8610  -21.3660   20.2400 C   0  0  1  0  0  0  0  0  0  0  0  0
  -29.4440  -18.6350   20.5220 C   0  0  0  0  0  3  0  0  0  0  0  0
  -30.5650  -19.8620   18.9290 C   0  0  0  0  0  3  0  0  0  0  0  0
  -29.6360  -19.9850   19.9370 C   0  0  0  0  0  0  0  0  0  0  0  0
  -30.1840  -17.5530   20.0000 C   0  0  0  0  0  0  0  0  0  0  0  0
  -31.2070  -18.2270   18.7490 S   0  0  0  0  0  0  0  0  0  0  0  0
  -30.8790  -15.0720   19.9390 C   0  0  0  0  0  0  0  0  0  0  0  0
  -30.6730  -12.7660   18.9610 C   0  0  0  0  0  2  0  0  0  0  0  0
  -29.6840  -12.7880   17.7700 C   0  0  0  0  0  2  0  0  0  0  0  0
  -28.2400  -12.6100   18.2680 C   0  0  0  0  0  2  0  0  0  0  0  0
  -27.9050  -13.5400   19.4620 C   0  0  0  0  0  3  0  0  0  0  0  0
  -28.9970  -13.4800   20.5520 C   0  0  0  0  0  2  0  0  0  0  0  0
  -30.2730  -13.8330   19.9160 N   0  0  0  0  0  0  0  0  0  0  0  0
  -32.0380  -15.1870   19.5210 O   0  0  0  0  0  0  0  0  0  0  0  0
  -30.1090  -16.1730   20.3060 N   0  0  0  0  0  0  0  0  0  0  0  0
  -29.2570  -15.8950   20.7670 H   0  0  0  0  0  0  0  0  0  0  0  0
  -25.5560  -14.1530   20.2950 C   0  0  0  0  0  0  0  0  0  0  0  0
  -24.4930  -13.3850   20.6960 C   0  0  0  0  0  0  0  0  0  0  0  0
  -24.9400  -12.0300   20.6290 C   0  0  0  0  0  0  0  0  0  0  0  0
  -26.5770  -13.2640   20.0060 N   0  0  0  0  0  0  0  0  0  0  0  0
  -26.2140  -11.9810   20.2690 N   0  0  0  0  0  0  0  0  0  0  0  0
  -24.2080  -10.7710   20.8270 C   0  0  0  0  0  0  0  0  0  0  0  0
  -24.5920   -9.8400   21.8170 C   0  0  0  0  0  3  0  0  0  0  0  0
  -23.8560   -8.6470   22.0010 C   0  0  0  0  0  3  0  0  0  0  0  0
  -22.7240   -8.3810   21.1960 C   0  0  0  0  0  0  0  0  0  0  0  0
  -22.3630   -9.3000   20.1970 C   0  0  0  0  0  3  0  0  0  0  0  0
  -23.0990  -10.4820   20.0110 C   0  0  0  0  0  3  0  0  0  0  0  0
  -21.9700   -7.2330   21.2820 O   0  0  0  0  0  0  0  0  0  0  0  0
  -21.7630   -6.6000   22.4810 C   0  0  0  0  0  0  0  0  0  0  0  0
  -21.1390   -7.2460   23.5710 C   0  0  0  0  0  3  0  0  0  0  0  0
  -20.8840   -6.5360   24.7610 C   0  0  0  0  0  3  0  0  0  0  0  0
  -21.2430   -5.1780   24.8610 C   0  0  0  0  0  0  0  0  0  0  0  0
  -21.8620   -4.5310   23.7760 C   0  0  0  0  0  3  0  0  0  0  0  0
  -22.1170   -5.2400   22.5890 C   0  0  0  0  0  0  0  0  0  0  0  0
  -22.6920   -4.6040   21.5400 F   0  0  0  0  0  0  0  0  0  0  0  0
  -20.9910   -4.4930   26.0010 F   0  0  0  0  0  0  0  0  0  0  0  0
  -23.1130  -13.8770   21.0240 C   0  0  0  0  0  0  0  0  0  0  0  0
  -22.4090  -13.1780   21.9080 N   0  0  0  0  0  0  0  0  0  0  0  0
  -22.6720  -14.9150   20.5330 O   0  0  0  0  0  0  0  0  0  0  0  0
  -22.7810  -12.3360   22.3230 H   0  0  0  0  0  0  0  0  0  0  0  0
  -21.4880  -13.4910   22.1710 H   0  0  0  0  0  0  0  0  0  0  0  0
  -25.7310  -15.5230   20.1260 N   0  0  0  0  0  0  0  0  0  0  0  0
  -24.9780  -16.1890   20.2720 H   0  0  0  0  0  0  0  0  0  0  0  0
  -26.5690  -15.9480   19.7440 H   0  0  0  0  0  0  0  0  0  0  0  0
  -29.6580  -22.7640   20.0050 C   0  0  0  0  0  2  0  0  0  0  0  0
  -28.9490  -24.1200   19.4970 C   0  0  0  0  0  0  0  0  0  0  0  0
  -28.6720  -24.2030   18.2930 O   0  0  0  0  0  0  0  0  0  0  0  0
  -28.6330  -25.3780   20.4360 C   0  0  0  0  0  2  0  0  0  0  0  0
  -28.5950  -26.7440   19.8130 O   0  0  0  0  0  0  0  0  0  0  0  0
  -24.7350  -31.8180   23.2830 C   0  0  0  0  0  0  0  0  0  0  0  0
  -27.4390  -27.5470   19.9040 C   0  0  0  0  0  0  0  0  0  0  0  0
  -23.5530  -30.5260   21.5410 C   0  0  0  0  0  3  0  0  0  0  0  0
  -25.0300  -29.1050   20.0000 C   0  0  0  0  0  0  0  0  0  0  0  0
  -26.0820  -30.9180   21.3610 C   0  0  0  0  0  2  0  0  0  0  0  0
  -26.1920  -29.5860   20.6230 C   0  0  0  0  0  0  0  0  0  0  0  0
  -27.4030  -28.8260   20.5500 C   0  0  0  0  0  3  0  0  0  0  0  0
  -26.2520  -27.1130   19.2770 C   0  0  0  0  0  3  0  0  0  0  0  0
  -25.0660  -27.8800   19.3100 C   0  0  0  0  0  3  0  0  0  0  0  0
  -23.7750  -29.9550   20.1130 C   0  0  0  0  0  2  0  0  0  0  0  0
  -24.8100  -31.1010   22.1210 N   0  0  0  0  0  0  0  0  0  0  0  0
  -23.6480  -32.0240   23.8420 O   0  0  0  0  0  0  0  0  0  0  0  0
  -22.9200  -29.4300   22.4310 C   0  0  0  0  0  0  0  0  0  0  0  0
  -21.6030  -29.2120   22.2740 N   0  0  0  0  0  0  0  0  0  0  0  0
  -23.6110  -28.7760   23.2150 O   0  0  0  0  0  0  0  0  0  0  0  0
  -21.1120  -29.7720   21.5890 H   0  0  0  0  0  0  0  0  0  0  0  0
  -18.2720  -27.8400   22.6400 C   0  0  0  0  0  0  0  0  0  0  0  0
  -20.8130  -28.1920   22.9720 C   0  0  0  0  0  3  0  0  0  0  0  0
  -20.9870  -26.8150   22.2870 C   0  0  0  0  0  2  0  0  0  0  0  0
  -19.9130  -26.5260   21.2410 C   0  0  0  0  0  2  0  0  0  0  0  0
  -18.5160  -26.5590   21.8640 C   0  0  0  0  0  2  0  0  0  0  0  0
  -19.3470  -28.6190   23.1480 C   0  0  0  0  0  0  0  0  0  0  0  0
  -19.0670  -29.8180   23.8380 C   0  0  0  0  0  3  0  0  0  0  0  0
  -17.7360  -30.2430   24.0230 C   0  0  0  0  0  3  0  0  0  0  0  0
  -16.6750  -29.4710   23.5200 C   0  0  0  0  0  3  0  0  0  0  0  0
  -16.9410  -28.2710   22.8380 C   0  0  0  0  0  3  0  0  0  0  0  0
  -26.0060  -32.4300   23.9500 C   0  0  0  0  0  3  0  0  0  0  0  0
  -26.5250  -31.5980   25.1840 C   0  0  1  0  0  0  0  0  0  0  0  0
  -25.4350  -31.2890   26.2360 C   0  0  0  0  0  1  0  0  0  0  0  0
  -27.1190  -30.2500   24.7160 C   0  0  0  0  0  1  0  0  0  0  0  0
  -27.6710  -32.3640   25.8870 C   0  0  0  0  0  1  0  0  0  0  0  0
  -25.6710  -33.8060   24.3550 N   0  0  0  0  0  0  0  0  0  0  0  0
  -26.0150  -34.9050   23.6720 C   0  0  0  0  0  0  0  0  0  0  0  0
  -26.7110  -34.8710   22.6530 O   0  0  0  0  0  0  0  0  0  0  0  0
  -25.0560  -33.9060   25.1480 H   0  0  0  0  0  0  0  0  0  0  0  0
  -24.2840  -36.7060   23.3930 C   0  0  0  0  0  1  0  0  0  0  0  0
  -25.5090  -36.2630   24.2070 C   0  0  0  0  0  3  0  0  0  0  0  0
  -27.6190  -37.1050   25.1410 C   0  0  0  0  0  1  0  0  0  0  0  0
  -26.5400  -37.3250   24.1810 N   0  0  0  0  0  0  0  0  0  0  0  0
  -26.1250  -38.2330   24.3630 H   0  0  0  0  0  0  0  0  0  0  0  0
  1  3  1  0
  2  4  1  0
  2  1  1  0
  4  3  1  0
  6  7  2  0
  7  4  1  0
  7  5  1  0
  8 18  1  0
  8  5  2  0
  9  6  1  0
  9  8  1  0
 10 18  1  0
 11 16  1  0
 12 13  1  0
 12 11  1  0
 14 13  1  0
 14 23  1  0
 14 15  1  0
 16 10  1  0
 16 15  1  0
 17 10  2  0
 18 19  1  0
 20 21  2  0
 21 40  1  0
 22 21  1  0
 22 25  1  0
 23 24  1  0
 23 20  1  0
 24 22  2  0
 25 26  1  0
 26 27  2  0
 28 31  1  0
 28 27  1  0
 29 28  2  0
 30 29  1  0
 30 25  2  0
 31 32  1  0
 32 37  2  0
 32 33  1  0
 33 34  2  0
 34 35  1  0
 35 39  1  0
 36 35  2  0
 37 36  1  0
 38 37  1  0
 40 41  1  0
 41 44  1  0
 41 43  1  0
 42 40  2  0
 45 46  1  0
 45 20  1  0
 47 45  1  0
  4 48  1  6
 49 48  1  0
 49 51  1  0
 50 49  2  0
 52 54  1  0
 52 51  1  0
 53 64  2  0
 54 59  1  0
 55 63  1  0
 55 65  1  0
 56 62  1  0
 56 58  1  0
 57 63  1  0
 58 57  1  0
 59 58  2  0
 60 61  1  0
 60 54  2  0
 61 56  2  0
 62 55  1  0
 63 53  1  0
 65 67  2  0
 66 65  1  0
 68 66  1  0
 69 78  2  0
 69 74  1  0
 70 66  1  0
 70 74  1  0
 71 70  1  0
 72 73  1  0
 72 71  1  0
 73 69  1  0
 74 75  2  0
 75 76  1  0
 77 76  2  0
 78 77  1  0
 79 53  1  0
 79 84  1  0
 79 80  1  0
 80 83  1  1
 80 81  1  0
 82 80  1  0
 84 87  1  0
 85 89  1  0
 85 84  1  0
 86 85  2  0
 89 88  1  0
 91 89  1  0
 91 92  1  0
 91 90  1  0
M  ISO  4  10 100  18 100  51 101  52 101
M  END
>  <TORSDO>  (52) 
F 20

>  <SCORE>  (52) 
-12.285

>  <name>  (52) 
51

>  <ligand_id>  (52) 
51

>  <original_smiles>  (52) 
[H]c1sc(N([H])C(=O)N2C([H])([H])C([H])([H])C([H])([H])C([H])(n3nc(-c4c([H])c([H])c(Oc5c([H])c([H])c(F)c([H])c5F)c([H])c4[H])c(C(=O)N([H])[H])c3N([H])[H])C2([H])[H])c([H])c1C1(C([H])([H])C(=O)C([H])([H])Oc2c([H])c([H])c3c(c2[H])C([H])([H])N(C(=O)C([H])(N([H])C(=O)C([H])(N([H])C([H])([H])[H])C([H])([H])[H])C(C([H])([H])[H])(C([H])([H])[H])C([H])([H])[H])C([H])(C(=O)N([H])C2([H])c4c([H])c([H])c([H])c([H])c4C([H])([H])C([H])([H])C2([H])[H])C3([H])[H])C([H])([H])C([H])([H])C1([H])[H]

>  <smiles>  (52) 
[H]c1sc(N([H])C(=O)N2C([H])([H])C([H])([H])C([H])([H])C([H])(n3nc(-c4c([H])c([H])c(Oc5c([H])c([H])c(F)c([H])c5F)c([H])c4[H])c(C(=O)N([H])[H])c3N([H])[H])C2([H])[H])c([H])c1C1(C([H])([H])C(=O)C([H])([H])Oc2c([H])c([H])c3c(c2[H])C([H])([H])N(C(=O)C([H])(N([H])C(=O)C([H])(N([H])C([H])([H])[H])C([H])([H])[H])C(C([H])([H])[H])(C([H])([H])[H])C([H])([H])[H])C([H])(C(=O)N([H])C2([H])c4c([H])c([H])c([H])c([H])c4C([H])([H])C([H])([H])C2([H])[H])C3([H])[H])C([H])([H])C([H])([H])C1([H])[H]

$$$$
52:0:0
     RDKit          3D

 95104  0  0  1  0  0  0  0  0999 V2000
  -31.0440  -17.9220   19.8380 C   0  0  0  0  0  3  0  0  0  0  0  0
  -28.8540  -18.0250   20.8730 C   0  0  0  0  0  3  0  0  0  0  0  0
  -30.9790  -19.3400   19.6800 C   0  0  0  0  0  0  0  0  0  0  0  0
  -29.8910  -20.1170   20.0830 C   0  0  0  0  0  0  0  0  0  0  0  0
  -29.9600  -17.2260   20.4530 C   0  0  0  0  0  0  0  0  0  0  0  0
  -28.8020  -19.4430   20.7010 C   0  0  0  0  0  0  0  0  0  0  0  0
  -31.3700  -21.5040   19.0470 C   0  0  0  0  0  2  0  0  0  0  0  0
  -31.9570  -20.1590   19.1250 N   0  0  0  0  0  0  0  0  0  0  0  0
  -30.1140  -21.5040   19.8160 N   0  0  0  0  0  0  0  0  0  0  0  0
  -32.4770  -19.8100   18.3220 H   0  0  0  0  0  0  0  0  0  0  0  0
  -30.6580  -14.7180   20.3000 C   0  0  0  0  0  0  0  0  0  0  0  0
  -30.4360  -12.4310   19.3530 C   0  0  0  0  0  2  0  0  0  0  0  0
  -29.5180  -12.5170   18.1120 C   0  0  0  0  0  2  0  0  0  0  0  0
  -28.0340  -12.4050   18.5170 C   0  0  0  0  0  2  0  0  0  0  0  0
  -27.6660  -13.3330   19.7060 C   0  0  0  0  0  3  0  0  0  0  0  0
  -28.7000  -13.2100   20.8490 C   0  0  0  0  0  2  0  0  0  0  0  0
  -30.0290  -13.5000   20.2850 N   0  0  0  0  0  0  0  0  0  0  0  0
  -31.8150  -14.8540   19.8920 O   0  0  0  0  0  0  0  0  0  0  0  0
  -29.8740  -15.7790   20.6630 N   0  0  0  0  0  0  0  0  0  0  0  0
  -29.0010  -15.4730   21.0610 H   0  0  0  0  0  0  0  0  0  0  0  0
  -25.2940  -14.0170   20.4310 C   0  0  0  0  0  0  0  0  0  0  0  0
  -24.1920  -13.2810   20.7760 C   0  0  0  0  0  0  0  0  0  0  0  0
  -24.5950  -11.9110   20.7090 C   0  0  0  0  0  0  0  0  0  0  0  0
  -26.3010  -13.0990   20.1760 N   0  0  0  0  0  0  0  0  0  0  0  0
  -25.8850  -11.8250   20.4020 N   0  0  0  0  0  0  0  0  0  0  0  0
  -23.8150  -10.6770   20.8640 C   0  0  0  0  0  0  0  0  0  0  0  0
  -24.2280   -9.6480   21.7390 C   0  0  0  0  0  3  0  0  0  0  0  0
  -23.4530   -8.4780   21.8840 C   0  0  0  0  0  3  0  0  0  0  0  0
  -22.2480   -8.3290   21.1560 C   0  0  0  0  0  0  0  0  0  0  0  0
  -21.8520   -9.3470   20.2720 C   0  0  0  0  0  3  0  0  0  0  0  0
  -22.6270  -10.5100   20.1240 C   0  0  0  0  0  3  0  0  0  0  0  0
  -21.4430   -7.2170   21.2150 O   0  0  0  0  0  0  0  0  0  0  0  0
  -21.4300   -6.3950   22.3130 C   0  0  0  0  0  0  0  0  0  0  0  0
  -21.1200   -6.8780   23.6030 C   0  0  0  0  0  3  0  0  0  0  0  0
  -21.0510   -5.9850   24.6910 C   0  0  0  0  0  3  0  0  0  0  0  0
  -21.2800   -4.6110   24.4900 C   0  0  0  0  0  0  0  0  0  0  0  0
  -21.5830   -4.1270   23.2050 C   0  0  0  0  0  3  0  0  0  0  0  0
  -21.6560   -5.0180   22.1200 C   0  0  0  0  0  0  0  0  0  0  0  0
  -21.9270   -4.5430   20.8800 F   0  0  0  0  0  0  0  0  0  0  0  0
  -21.2060   -3.7510   25.5330 F   0  0  0  0  0  0  0  0  0  0  0  0
  -22.8150  -13.8100   21.0550 C   0  0  0  0  0  0  0  0  0  0  0  0
  -22.0540  -13.1310   21.9040 N   0  0  0  0  0  0  0  0  0  0  0  0
  -22.4220  -14.8630   20.5530 O   0  0  0  0  0  0  0  0  0  0  0  0
  -22.3810  -12.2790   22.3370 H   0  0  0  0  0  0  0  0  0  0  0  0
  -21.1290  -13.4690   22.1280 H   0  0  0  0  0  0  0  0  0  0  0  0
  -25.5160  -15.3830   20.2920 N   0  0  0  0  0  0  0  0  0  0  0  0
  -24.7710  -16.0600   20.4160 H   0  0  0  0  0  0  0  0  0  0  0  0
  -26.3780  -15.7990   19.9620 H   0  0  0  0  0  0  0  0  0  0  0  0
  -27.6970  -20.1500   21.1770 N   0  0  0  0  0  0  0  0  0  0  0  0
  -27.1570  -19.7240   21.9220 H   0  0  0  0  0  0  0  0  0  0  0  0
  -27.8450  -21.1420   21.3280 H   0  0  0  0  0  0  0  0  0  0  0  0
  -29.0640  -22.5130   19.4530 C   0  0  0  0  0  2  0  0  0  0  0  0
  -29.4240  -24.0590   19.6400 C   0  0  0  0  0  3  0  0  0  0  0  0
  -28.2440  -25.0870   19.3600 C   0  0  0  0  0  3  0  0  0  0  0  0
  -28.4140  -26.5430   19.5750 O   0  0  0  0  0  0  0  0  0  0  0  0
  -24.5570  -31.5790   23.0140 C   0  0  0  0  0  0  0  0  0  0  0  0
  -27.2540  -27.3370   19.6060 C   0  0  0  0  0  0  0  0  0  0  0  0
  -23.3560  -30.2410   21.3190 C   0  0  0  0  0  3  0  0  0  0  0  0
  -24.8230  -28.8440   19.7610 C   0  0  0  0  0  0  0  0  0  0  0  0
  -25.8750  -30.6750   21.0890 C   0  0  0  0  0  2  0  0  0  0  0  0
  -25.9890  -29.3450   20.3530 C   0  0  0  0  0  0  0  0  0  0  0  0
  -27.2060  -28.6050   20.2650 C   0  0  0  0  0  3  0  0  0  0  0  0
  -26.0560  -26.8910   18.9970 C   0  0  0  0  0  3  0  0  0  0  0  0
  -24.8580  -27.6220   19.0760 C   0  0  0  0  0  3  0  0  0  0  0  0
  -23.5540  -29.6600   19.8960 C   0  0  0  0  0  2  0  0  0  0  0  0
  -24.6160  -30.8450   21.8640 N   0  0  0  0  0  0  0  0  0  0  0  0
  -23.4800  -31.7820   23.5930 O   0  0  0  0  0  0  0  0  0  0  0  0
  -22.7590  -29.1430   22.2300 C   0  0  0  0  0  0  0  0  0  0  0  0
  -21.4330  -28.9380   22.1420 N   0  0  0  0  0  0  0  0  0  0  0  0
  -23.4840  -28.4800   22.9750 O   0  0  0  0  0  0  0  0  0  0  0  0
  -20.9030  -29.5250   21.5130 H   0  0  0  0  0  0  0  0  0  0  0  0
  -18.1070  -27.6320   22.6940 C   0  0  0  0  0  0  0  0  0  0  0  0
  -20.6690  -27.9280   22.8760 C   0  0  0  0  0  3  0  0  0  0  0  0
  -20.7740  -26.5460   22.1910 C   0  0  0  0  0  2  0  0  0  0  0  0
  -19.6340  -26.2730   21.2030 C   0  0  0  0  0  2  0  0  0  0  0  0
  -18.2790  -26.3400   21.9140 C   0  0  0  0  0  2  0  0  0  0  0  0
  -19.2280  -28.3860   23.1320 C   0  0  0  0  0  0  0  0  0  0  0  0
  -19.0110  -29.5980   23.8220 C   0  0  0  0  0  3  0  0  0  0  0  0
  -17.7050  -30.0560   24.0800 C   0  0  0  0  0  3  0  0  0  0  0  0
  -16.5990  -29.2980   23.6600 C   0  0  0  0  0  3  0  0  0  0  0  0
  -16.8010  -28.0880   22.9720 C   0  0  0  0  0  3  0  0  0  0  0  0
  -25.8350  -32.2170   23.6390 C   0  0  0  0  0  3  0  0  0  0  0  0
  -26.3950  -31.4040   24.8710 C   0  0  1  0  0  0  0  0  0  0  0  0
  -25.3300  -31.0990   25.9510 C   0  0  0  0  0  1  0  0  0  0  0  0
  -26.9980  -30.0560   24.4100 C   0  0  0  0  0  1  0  0  0  0  0  0
  -27.5440  -32.1930   25.5420 C   0  0  0  0  0  1  0  0  0  0  0  0
  -25.4970  -33.5900   24.0380 N   0  0  0  0  0  0  0  0  0  0  0  0
  -25.7770  -34.6830   23.3170 C   0  0  0  0  0  0  0  0  0  0  0  0
  -26.4200  -34.6440   22.2640 O   0  0  0  0  0  0  0  0  0  0  0  0
  -24.9190  -33.6930   24.8610 H   0  0  0  0  0  0  0  0  0  0  0  0
  -23.9790  -36.4280   23.1020 C   0  0  0  0  0  1  0  0  0  0  0  0
  -25.2650  -36.0360   23.8480 C   0  0  0  0  0  3  0  0  0  0  0  0
  -27.4020  -36.9610   24.6270 C   0  0  0  0  0  1  0  0  0  0  0  0
  -26.2570  -37.1280   23.7360 N   0  0  0  0  0  0  0  0  0  0  0  0
  -25.8280  -38.0270   23.9350 H   0  0  0  0  0  0  0  0  0  0  0  0
  1  5  1  0
  3  1  2  0
  3  4  1  0
  4  6  2  0
  5 19  1  0
  5  2  2  0
  6  2  1  0
  6 49  1  0
  7  8  1  0
  7  9  1  0
  8  3  1  0
  9  4  1  0
 10  8  1  0
 11 19  1  0
 12 17  1  0
 13 14  1  0
 13 12  1  0
 15 14  1  0
 15 24  1  0
 15 16  1  0
 17 11  1  0
 17 16  1  0
 18 11  2  0
 19 20  1  0
 21 22  2  0
 22 41  1  0
 23 22  1  0
 23 26  1  0
 24 25  1  0
 24 21  1  0
 25 23  2  0
 26 27  1  0
 27 28  2  0
 29 32  1  0
 29 28  1  0
 30 29  2  0
 31 30  1  0
 31 26  2  0
 32 33  1  0
 33 34  1  0
 34 35  2  0
 36 35  1  0
 36 40  1  0
 37 36  2  0
 38 33  2  0
 38 37  1  0
 39 38  1  0
 41 42  1  0
 42 45  1  0
 42 44  1  0
 43 41  2  0
 46 47  1  0
 46 21  1  0
 48 46  1  0
 49 51  1  0
 49 50  1  0
 52 53  1  0
 52  9  1  0
 54 55  1  0
 54 53  2  0
 55 57  1  0
 56 67  2  0
 57 62  1  0
 58 66  1  0
 58 68  1  0
 59 65  1  0
 59 61  1  0
 60 66  1  0
 61 60  1  0
 62 61  2  0
 63 64  1  0
 63 57  2  0
 64 59  2  0
 65 58  1  0
 66 56  1  0
 68 70  2  0
 69 68  1  0
 71 69  1  0
 72 81  2  0
 72 77  1  0
 73 69  1  0
 73 77  1  0
 74 73  1  0
 75 76  1  0
 75 74  1  0
 76 72  1  0
 77 78  2  0
 78 79  1  0
 80 79  2  0
 81 80  1  0
 82 56  1  0
 82 87  1  0
 82 83  1  0
 83 86  1  1
 83 84  1  0
 85 83  1  0
 87 90  1  0
 88 92  1  0
 88 87  1  0
 89 88  2  0
 92 91  1  0
 94 92  1  0
 94 95  1  0
 94 93  1  0
M  ISO  4  11 100  19 100  54 101  55 101
M  END
>  <TORSDO>  (53) 
F 20

>  <SCORE>  (53) 
-12.739

>  <name>  (53) 
52

>  <ligand_id>  (53) 
52

>  <original_smiles>  (53) 
[H]c1c([H])c([H])c2c(c1[H])C([H])([H])C([H])([H])C([H])([H])C2([H])N([H])C(=O)C1([H])N(C(=O)C([H])(N([H])C(=O)C([H])(N([H])C([H])([H])[H])C([H])([H])[H])C(C([H])([H])[H])(C([H])([H])[H])C([H])([H])[H])C([H])([H])c2c([H])c(OC([H])([H])C([H])([H])C([H])([H])N3c4c(N([H])[H])c([H])c(N([H])C(=O)N5C([H])([H])C([H])([H])C([H])([H])C([H])(n6nc(-c7c([H])c([H])c(Oc8c([H])c([H])c(F)c([H])c8F)c([H])c7[H])c(C(=O)N([H])[H])c6N([H])[H])C5([H])[H])c([H])c4N([H])C3([H])[H])c([H])c([H])c2C1([H])[H]

>  <smiles>  (53) 
[H]c1c([H])c([H])c2c(c1[H])C([H])([H])C([H])([H])C([H])([H])C2([H])N([H])C(=O)C1([H])N(C(=O)C([H])(N([H])C(=O)C([H])(N([H])C([H])([H])[H])C([H])([H])[H])C(C([H])([H])[H])(C([H])([H])[H])C([H])([H])[H])C([H])([H])c2c([H])c(OC([H])([H])C([H])([H])C([H])([H])N3c4c(N([H])[H])c([H])c(N([H])C(=O)N5C([H])([H])C([H])([H])C([H])([H])C([H])(n6nc(-c7c([H])c([H])c(Oc8c([H])c([H])c(F)c([H])c8F)c([H])c7[H])c(C(=O)N([H])[H])c6N([H])[H])C5([H])[H])c([H])c4N([H])C3([H])[H])c([H])c([H])c2C1([H])[H]

$$$$
53:0:0
     RDKit          3D

 91100  0  0  1  0  0  0  0  0999 V2000
  -27.5210  -22.1990   21.4370 C   0  0  0  0  0  3  0  0  0  0  0  0
  -27.7040  -20.7790   21.5630 C   0  0  0  0  0  3  0  0  0  0  0  0
  -28.5040  -22.6880   20.6150 C   0  0  0  0  0  0  0  0  0  0  0  0
  -28.8200  -20.4290   20.8450 C   0  0  0  0  0  0  0  0  0  0  0  0
  -29.2940  -21.5950   20.2480 O   0  0  0  0  0  0  0  0  0  0  0  0
  -30.9300  -14.9180   19.5820 C   0  0  0  0  0  0  0  0  0  0  0  0
  -30.6390  -12.6900   18.4960 C   0  0  0  0  0  2  0  0  0  0  0  0
  -29.5330  -12.7620   17.4210 C   0  0  0  0  0  2  0  0  0  0  0  0
  -28.1390  -12.5580   18.0440 C   0  0  0  0  0  2  0  0  0  0  0  0
  -27.9290  -13.4030   19.3290 C   0  0  0  0  0  3  0  0  0  0  0  0
  -29.1280  -13.2530   20.2840 C   0  0  0  0  0  2  0  0  0  0  0  0
  -30.3150  -13.6890   19.5410 N   0  0  0  0  0  0  0  0  0  0  0  0
  -32.0350  -15.0480   19.0380 O   0  0  0  0  0  0  0  0  0  0  0  0
  -29.1990  -17.8960   21.5270 C   0  0  0  0  0  2  0  0  0  0  0  0
  -29.4610  -18.5170   19.2080 C   0  0  0  0  0  2  0  0  0  0  0  0
  -29.9150  -16.5030   21.2660 C   0  0  0  0  0  2  0  0  0  0  0  0
  -30.3320  -17.2340   18.9500 C   0  0  0  0  0  2  0  0  0  0  0  0
  -29.5900  -19.0970   20.6180 C   0  0  0  0  0  3  0  0  0  0  0  0
  -30.1700  -16.0590   19.8640 N   0  0  0  0  0  0  0  0  0  0  0  0
  -25.7020  -13.9480   20.4810 C   0  0  0  0  0  0  0  0  0  0  0  0
  -24.6790  -13.1500   20.9220 C   0  0  0  0  0  0  0  0  0  0  0  0
  -25.0880  -11.8070   20.6660 C   0  0  0  0  0  0  0  0  0  0  0  0
  -26.6660  -13.0840   19.9860 N   0  0  0  0  0  0  0  0  0  0  0  0
  -26.3130  -11.7840   20.1560 N   0  0  0  0  0  0  0  0  0  0  0  0
  -24.3600  -10.5390   20.8230 C   0  0  0  0  0  0  0  0  0  0  0  0
  -24.8520   -9.5010   21.6440 C   0  0  0  0  0  3  0  0  0  0  0  0
  -24.1250   -8.3000   21.7950 C   0  0  0  0  0  3  0  0  0  0  0  0
  -22.8900   -8.1320   21.1250 C   0  0  0  0  0  0  0  0  0  0  0  0
  -22.4130   -9.1610   20.2940 C   0  0  0  0  0  3  0  0  0  0  0  0
  -23.1420  -10.3520   20.1390 C   0  0  0  0  0  3  0  0  0  0  0  0
  -22.1260   -6.9910   21.1930 O   0  0  0  0  0  0  0  0  0  0  0  0
  -22.0970   -6.2100   22.3200 C   0  0  0  0  0  0  0  0  0  0  0  0
  -21.7120   -6.7300   23.5750 C   0  0  0  0  0  3  0  0  0  0  0  0
  -21.6270   -5.8770   24.6950 C   0  0  0  0  0  3  0  0  0  0  0  0
  -21.9200   -4.5060   24.5600 C   0  0  0  0  0  0  0  0  0  0  0  0
  -22.2950   -3.9860   23.3090 C   0  0  0  0  0  3  0  0  0  0  0  0
  -22.3820   -4.8350   22.1930 C   0  0  0  0  0  0  0  0  0  0  0  0
  -22.7270   -4.3270   20.9850 F   0  0  0  0  0  0  0  0  0  0  0  0
  -21.8290   -3.6860   25.6320 F   0  0  0  0  0  0  0  0  0  0  0  0
  -23.3570  -13.6140   21.4610 C   0  0  0  0  0  0  0  0  0  0  0  0
  -22.7600  -12.8460   22.3660 N   0  0  0  0  0  0  0  0  0  0  0  0
  -22.8680  -14.6910   21.1190 O   0  0  0  0  0  0  0  0  0  0  0  0
  -23.1680  -11.9730   22.6650 H   0  0  0  0  0  0  0  0  0  0  0  0
  -21.8800  -13.1390   22.7670 H   0  0  0  0  0  0  0  0  0  0  0  0
  -25.8810  -15.3250   20.4320 N   0  0  0  0  0  0  0  0  0  0  0  0
  -25.1540  -15.9790   20.7020 H   0  0  0  0  0  0  0  0  0  0  0  0
  -26.6970  -15.7820   20.0430 H   0  0  0  0  0  0  0  0  0  0  0  0
  -28.7850  -24.0790   20.0790 C   0  0  0  0  0  0  0  0  0  0  0  0
  -29.5610  -24.2140   19.1260 O   0  0  0  0  0  0  0  0  0  0  0  0
  -28.1460  -25.3770   20.7020 C   0  0  0  0  0  2  0  0  0  0  0  0
  -28.4780  -26.6630   20.0360 O   0  0  0  0  0  0  0  0  0  0  0  0
  -24.8450  -31.9460   23.2320 C   0  0  0  0  0  0  0  0  0  0  0  0
  -27.4130  -27.5540   19.9790 C   0  0  0  0  0  0  0  0  0  0  0  0
  -23.6260  -30.6200   21.5410 C   0  0  0  0  0  3  0  0  0  0  0  0
  -25.0640  -29.1500   20.0270 C   0  0  0  0  0  0  0  0  0  0  0  0
  -26.1580  -30.9690   21.3390 C   0  0  0  0  0  2  0  0  0  0  0  0
  -26.2360  -29.6250   20.6310 C   0  0  0  0  0  0  0  0  0  0  0  0
  -27.4240  -28.8400   20.5890 C   0  0  0  0  0  3  0  0  0  0  0  0
  -26.2350  -27.1360   19.3290 C   0  0  0  0  0  3  0  0  0  0  0  0
  -25.0650  -27.9150   19.3620 C   0  0  0  0  0  3  0  0  0  0  0  0
  -23.8230  -30.0110   20.1280 C   0  0  0  0  0  2  0  0  0  0  0  0
  -24.8940  -31.1900   22.0960 N   0  0  0  0  0  0  0  0  0  0  0  0
  -23.7660  -32.1940   23.7900 O   0  0  0  0  0  0  0  0  0  0  0  0
  -22.9810  -29.5560   22.4610 C   0  0  0  0  0  0  0  0  0  0  0  0
  -21.6580  -29.3620   22.3260 N   0  0  0  0  0  0  0  0  0  0  0  0
  -23.6670  -28.9080   23.2550 O   0  0  0  0  0  0  0  0  0  0  0  0
  -21.1580  -29.9410   21.6660 H   0  0  0  0  0  0  0  0  0  0  0  0
  -18.3050  -28.0740   22.7430 C   0  0  0  0  0  0  0  0  0  0  0  0
  -20.8510  -28.3850   23.0600 C   0  0  0  0  0  3  0  0  0  0  0  0
  -20.9940  -26.9710   22.4510 C   0  0  0  0  0  2  0  0  0  0  0  0
  -19.9160  -26.6500   21.4110 C   0  0  0  0  0  2  0  0  0  0  0  0
  -18.5210  -26.7460   22.0370 C   0  0  0  0  0  2  0  0  0  0  0  0
  -19.3970  -28.8500   23.2100 C   0  0  0  0  0  0  0  0  0  0  0  0
  -19.1410  -30.0920   23.8300 C   0  0  0  0  0  3  0  0  0  0  0  0
  -17.8220  -30.5590   23.9870 C   0  0  0  0  0  3  0  0  0  0  0  0
  -16.7410  -29.7780   23.5380 C   0  0  0  0  0  3  0  0  0  0  0  0
  -16.9850  -28.5380   22.9230 C   0  0  0  0  0  3  0  0  0  0  0  0
  -26.1330  -32.5550   23.8670 C   0  0  0  0  0  3  0  0  0  0  0  0
  -25.8240  -33.9390   24.2520 N   0  0  0  0  0  0  0  0  0  0  0  0
  -26.1500  -35.0200   23.5320 C   0  0  0  0  0  0  0  0  0  0  0  0
  -26.8130  -34.9590   22.4940 O   0  0  0  0  0  0  0  0  0  0  0  0
  -25.2300  -34.0590   25.0580 H   0  0  0  0  0  0  0  0  0  0  0  0
  -24.4150  -36.8250   23.2760 C   0  0  0  0  0  1  0  0  0  0  0  0
  -25.6690  -36.3880   24.0530 C   0  0  0  0  0  3  0  0  0  0  0  0
  -27.8130  -37.2460   24.8860 C   0  0  0  0  0  1  0  0  0  0  0  0
  -26.6980  -37.4470   23.9640 N   0  0  0  0  0  0  0  0  0  0  0  0
  -26.2930  -38.3600   24.1530 H   0  0  0  0  0  0  0  0  0  0  0  0
  -26.6630  -31.7350   25.1070 C   0  0  1  0  0  0  0  0  0  0  0  0
  -25.5770  -31.4500   26.1710 C   0  0  0  0  0  1  0  0  0  0  0  0
  -27.2520  -30.3790   24.6570 C   0  0  0  0  0  1  0  0  0  0  0  0
  -27.8100  -32.5120   25.7940 C   0  0  0  0  0  1  0  0  0  0  0  0
  1  2  1  0
  3  1  2  0
  4  2  2  0
  5  3  1  0
  5  4  1  0
  6 19  1  0
  7 12  1  0
  8  9  1  0
  8  7  1  0
 10  9  1  0
 10 23  1  0
 10 11  1  0
 12  6  1  0
 12 11  1  0
 13  6  2  0
 15 18  1  0
 16 14  1  0
 17 15  1  0
 17 19  1  0
 18  4  1  0
 18 14  1  0
 19 16  1  0
 20 21  2  0
 21 40  1  0
 22 25  1  0
 22 21  1  0
 23 24  1  0
 23 20  1  0
 24 22  2  0
 25 26  1  0
 26 27  2  0
 28 31  1  0
 28 27  1  0
 29 28  2  0
 30 29  1  0
 30 25  2  0
 31 32  1  0
 32 33  1  0
 33 34  2  0
 35 34  1  0
 35 39  1  0
 36 35  2  0
 37 32  2  0
 37 36  1  0
 38 37  1  0
 40 41  1  0
 41 43  1  0
 41 44  1  0
 42 40  2  0
 45 20  1  0
 45 46  1  0
 47 45  1  0
 48  3  1  0
 48 50  1  0
 49 48  2  0
 51 50  1  0
 52 63  2  0
 53 51  1  0
 53 58  1  0
 54 62  1  0
 54 64  1  0
 55 61  1  0
 55 57  1  0
 56 62  1  0
 57 56  1  0
 58 57  2  0
 59 60  1  0
 59 53  2  0
 60 55  2  0
 61 54  1  0
 62 52  1  0
 64 66  2  0
 65 64  1  0
 67 65  1  0
 68 77  2  0
 68 73  1  0
 69 65  1  0
 69 73  1  0
 70 69  1  0
 71 72  1  0
 71 70  1  0
 72 68  1  0
 73 74  2  0
 74 75  1  0
 76 75  2  0
 77 76  1  0
 78 52  1  0
 78 79  1  0
 78 88  1  0
 79 82  1  0
 80 84  1  0
 80 79  1  0
 81 80  2  0
 84 83  1  0
 86 84  1  0
 86 87  1  0
 86 85  1  0
 88 91  1  1
 88 89  1  0
 90 88  1  0
M  ISO  4   6 100  19 100  50 101  51 101
M  END
>  <TORSDO>  (54) 
F 18

>  <SCORE>  (54) 
-11.110

>  <name>  (54) 
53

>  <ligand_id>  (54) 
53

>  <original_smiles>  (54) 
[H]c1c(C(=O)C([H])([H])Oc2c([H])c([H])c3c(c2[H])C([H])([H])N(C(=O)C([H])(N([H])C(=O)C([H])(N([H])C([H])([H])[H])C([H])([H])[H])C(C([H])([H])[H])(C([H])([H])[H])C([H])([H])[H])C([H])(C(=O)N([H])C2([H])c4c([H])c([H])c([H])c([H])c4C([H])([H])C([H])([H])C2([H])[H])C3([H])[H])oc(C2([H])C([H])([H])C([H])([H])N(C(=O)N3C([H])([H])C([H])([H])C([H])([H])C([H])(n4nc(-c5c([H])c([H])c(Oc6c([H])c([H])c(F)c([H])c6F)c([H])c5[H])c(C(=O)N([H])[H])c4N([H])[H])C3([H])[H])C([H])([H])C2([H])[H])c1[H]

>  <smiles>  (54) 
[H]c1c(C(=O)C([H])([H])Oc2c([H])c([H])c3c(c2[H])C([H])([H])N(C(=O)C([H])(N([H])C(=O)C([H])(N([H])C([H])([H])[H])C([H])([H])[H])C(C([H])([H])[H])(C([H])([H])[H])C([H])([H])[H])C([H])(C(=O)N([H])C2([H])c4c([H])c([H])c([H])c([H])c4C([H])([H])C([H])([H])C2([H])[H])C3([H])[H])oc(C2([H])C([H])([H])C([H])([H])N(C(=O)N3C([H])([H])C([H])([H])C([H])([H])C([H])(n4nc(-c5c([H])c([H])c(Oc6c([H])c([H])c(F)c([H])c6F)c([H])c5[H])c(C(=O)N([H])[H])c4N([H])[H])C3([H])[H])C([H])([H])C2([H])[H])c1[H]

$$$$
54:0:0
     RDKit          3D

 91 99  0  0  1  0  0  0  0  0999 V2000
  -29.6280  -20.6120   19.4890 C   0  0  0  0  0  3  0  0  0  0  0  0
  -29.1860  -21.8570   20.2010 C   0  0  0  0  0  0  0  0  0  0  0  0
  -29.7000  -19.4120   20.2670 C   0  0  0  0  0  0  0  0  0  0  0  0
  -29.0200  -21.2610   21.4400 C   0  0  0  0  0  0  0  0  0  0  0  0
  -29.2850  -19.8730   21.5030 O   0  0  0  0  0  0  0  0  0  0  0  0
  -28.7490  -21.9260   22.6300 N   0  0  0  0  0  0  0  0  0  0  0  0
  -28.7370  -21.4370   23.5200 H   0  0  0  0  0  0  0  0  0  0  0  0
  -29.0760  -22.8790   22.7530 H   0  0  0  0  0  0  0  0  0  0  0  0
  -29.0990  -23.4530   19.7940 C   0  0  0  0  0  0  0  0  0  0  0  0
  -29.8640  -23.8040   18.8880 O   0  0  0  0  0  0  0  0  0  0  0  0
  -28.1100  -24.6840   20.3520 C   0  0  0  0  0  2  0  0  0  0  0  0
  -28.3360  -26.2230   20.0300 O   0  0  0  0  0  0  0  0  0  0  0  0
  -24.6470  -31.8800   23.1250 C   0  0  0  0  0  0  0  0  0  0  0  0
  -27.2580  -27.1990   20.0310 C   0  0  0  0  0  0  0  0  0  0  0  0
  -23.4430  -30.4700   21.5020 C   0  0  0  0  0  3  0  0  0  0  0  0
  -24.8930  -28.9210   20.0450 C   0  0  0  0  0  0  0  0  0  0  0  0
  -25.9910  -30.7750   21.2940 C   0  0  0  0  0  2  0  0  0  0  0  0
  -26.0780  -29.3820   20.6350 C   0  0  0  0  0  0  0  0  0  0  0  0
  -27.2570  -28.5410   20.6030 C   0  0  0  0  0  3  0  0  0  0  0  0
  -26.0430  -26.8480   19.4010 C   0  0  0  0  0  3  0  0  0  0  0  0
  -24.8900  -27.6670   19.4120 C   0  0  0  0  0  3  0  0  0  0  0  0
  -23.6500  -29.8000   20.1170 C   0  0  0  0  0  2  0  0  0  0  0  0
  -24.7140  -31.0640   22.0260 N   0  0  0  0  0  0  0  0  0  0  0  0
  -23.5640  -32.1450   23.6750 O   0  0  0  0  0  0  0  0  0  0  0  0
  -22.7990  -29.4490   22.4740 C   0  0  0  0  0  0  0  0  0  0  0  0
  -21.4720  -29.2540   22.3700 N   0  0  0  0  0  0  0  0  0  0  0  0
  -23.4970  -28.8390   23.2870 O   0  0  0  0  0  0  0  0  0  0  0  0
  -20.9660  -29.7970   21.6860 H   0  0  0  0  0  0  0  0  0  0  0  0
  -18.1210  -27.9890   22.9290 C   0  0  0  0  0  0  0  0  0  0  0  0
  -20.6800  -28.3000   23.1510 C   0  0  0  0  0  3  0  0  0  0  0  0
  -20.8010  -26.8740   22.5660 C   0  0  0  0  0  2  0  0  0  0  0  0
  -19.6860  -26.5360   21.5720 C   0  0  0  0  0  2  0  0  0  0  0  0
  -18.3120  -26.6490   22.2410 C   0  0  0  0  0  2  0  0  0  0  0  0
  -19.2330  -28.7730   23.3410 C   0  0  0  0  0  0  0  0  0  0  0  0
  -18.9990  -30.0260   23.9480 C   0  0  0  0  0  3  0  0  0  0  0  0
  -17.6870  -30.4960   24.1450 C   0  0  0  0  0  3  0  0  0  0  0  0
  -16.5900  -29.7100   23.7470 C   0  0  0  0  0  3  0  0  0  0  0  0
  -16.8090  -28.4580   23.1440 C   0  0  0  0  0  3  0  0  0  0  0  0
  -25.9260  -32.5320   23.7310 C   0  0  0  0  0  3  0  0  0  0  0  0
  -26.4860  -31.7510   24.9850 C   0  0  1  0  0  0  0  0  0  0  0  0
  -25.4220  -31.4760   26.0730 C   0  0  0  0  0  1  0  0  0  0  0  0
  -27.0880  -30.3900   24.5680 C   0  0  0  0  0  1  0  0  0  0  0  0
  -27.6320  -32.5580   25.6330 C   0  0  0  0  0  1  0  0  0  0  0  0
  -25.5900  -33.9170   24.1040 N   0  0  0  0  0  0  0  0  0  0  0  0
  -25.8700  -34.9970   23.3630 C   0  0  0  0  0  0  0  0  0  0  0  0
  -26.5080  -34.9350   22.3080 O   0  0  0  0  0  0  0  0  0  0  0  0
  -25.0150  -34.0370   24.9260 H   0  0  0  0  0  0  0  0  0  0  0  0
  -24.0890  -36.7580   23.1150 C   0  0  0  0  0  1  0  0  0  0  0  0
  -25.3680  -36.3640   23.8710 C   0  0  0  0  0  3  0  0  0  0  0  0
  -27.5060  -37.2860   24.6540 C   0  0  0  0  0  1  0  0  0  0  0  0
  -26.3720  -37.4450   23.7450 N   0  0  0  0  0  0  0  0  0  0  0  0
  -25.9480  -38.3510   23.9170 H   0  0  0  0  0  0  0  0  0  0  0  0
  -30.4300  -17.9110   20.1060 C   0  0  0  0  0  2  0  0  0  0  0  0
  -30.6470  -15.1680   20.1430 C   0  0  0  0  0  0  0  0  0  0  0  0
  -30.5070  -12.8000   19.2240 C   0  0  0  0  0  2  0  0  0  0  0  0
  -29.5510  -12.7170   18.0110 C   0  0  0  0  0  2  0  0  0  0  0  0
  -28.1020  -12.4840   18.4770 C   0  0  0  0  0  2  0  0  0  0  0  0
  -27.7040  -13.4210   19.6460 C   0  0  0  0  0  3  0  0  0  0  0  0
  -28.7830  -13.4830   20.7450 C   0  0  0  0  0  2  0  0  0  0  0  0
  -30.0320  -13.9100   20.1040 N   0  0  0  0  0  0  0  0  0  0  0  0
  -31.8530  -15.1840   19.8610 O   0  0  0  0  0  0  0  0  0  0  0  0
  -29.9260  -16.4030   20.2820 N   0  0  0  0  0  0  0  0  0  0  0  0
  -28.9380  -16.3040   20.4600 H   0  0  0  0  0  0  0  0  0  0  0  0
  -25.3470  -13.9890   20.4500 C   0  0  0  0  0  0  0  0  0  0  0  0
  -24.2910  -13.2110   20.8390 C   0  0  0  0  0  0  0  0  0  0  0  0
  -24.7540  -11.8620   20.7860 C   0  0  0  0  0  0  0  0  0  0  0  0
  -26.3830  -13.1140   20.1790 N   0  0  0  0  0  0  0  0  0  0  0  0
  -26.0370  -11.8280   20.4460 N   0  0  0  0  0  0  0  0  0  0  0  0
  -24.0310  -10.5980   20.9820 C   0  0  0  0  0  0  0  0  0  0  0  0
  -24.4740   -9.6350   21.9130 C   0  0  0  0  0  3  0  0  0  0  0  0
  -23.7520   -8.4340   22.0980 C   0  0  0  0  0  3  0  0  0  0  0  0
  -22.5710   -8.1940   21.3560 C   0  0  0  0  0  0  0  0  0  0  0  0
  -22.1500   -9.1490   20.4120 C   0  0  0  0  0  3  0  0  0  0  0  0
  -22.8710  -10.3400   20.2260 C   0  0  0  0  0  3  0  0  0  0  0  0
  -21.8170   -7.0480   21.4490 O   0  0  0  0  0  0  0  0  0  0  0  0
  -21.7670   -6.3130   22.6070 C   0  0  0  0  0  0  0  0  0  0  0  0
  -21.3160   -6.8720   23.8220 C   0  0  0  0  0  3  0  0  0  0  0  0
  -21.2120   -6.0660   24.9710 C   0  0  0  0  0  3  0  0  0  0  0  0
  -21.5450   -4.7000   24.9100 C   0  0  0  0  0  0  0  0  0  0  0  0
  -21.9880   -4.1380   23.6990 C   0  0  0  0  0  3  0  0  0  0  0  0
  -22.0940   -4.9420   22.5500 C   0  0  0  0  0  0  0  0  0  0  0  0
  -22.5030   -4.3910   21.3820 F   0  0  0  0  0  0  0  0  0  0  0  0
  -21.4350   -3.9250   26.0150 F   0  0  0  0  0  0  0  0  0  0  0  0
  -22.9000  -13.6870   21.1390 C   0  0  0  0  0  0  0  0  0  0  0  0
  -22.1930  -12.9940   22.0250 N   0  0  0  0  0  0  0  0  0  0  0  0
  -22.4540  -14.7130   20.6260 O   0  0  0  0  0  0  0  0  0  0  0  0
  -22.5690  -12.1690   22.4720 H   0  0  0  0  0  0  0  0  0  0  0  0
  -21.2570  -13.2950   22.2640 H   0  0  0  0  0  0  0  0  0  0  0  0
  -25.5010  -15.3630   20.2820 N   0  0  0  0  0  0  0  0  0  0  0  0
  -24.7370  -16.0180   20.4150 H   0  0  0  0  0  0  0  0  0  0  0  0
  -26.3340  -15.8040   19.9210 H   0  0  0  0  0  0  0  0  0  0  0  0
  1  2  1  0
  1  3  2  0
  2  4  2  0
  3  5  1  0
  4  5  1  0
  4  6  1  0
  6  8  1  0
  6  7  1  0
  9  2  1  0
  9 11  1  0
 10  9  2  0
 12 14  1  0
 12 11  1  0
 13 24  2  0
 14 19  1  0
 15 23  1  0
 15 25  1  0
 16 22  1  0
 16 18  1  0
 17 23  1  0
 18 17  1  0
 19 18  2  0
 20 21  1  0
 20 14  2  0
 21 16  2  0
 22 15  1  0
 23 13  1  0
 25 27  2  0
 26 25  1  0
 28 26  1  0
 29 38  2  0
 29 34  1  0
 30 26  1  0
 30 34  1  0
 31 30  1  0
 32 33  1  0
 32 31  1  0
 33 29  1  0
 34 35  2  0
 35 36  1  0
 37 36  2  0
 38 37  1  0
 39 13  1  0
 39 44  1  0
 39 40  1  0
 40 43  1  1
 40 41  1  0
 42 40  1  0
 44 47  1  0
 45 49  1  0
 45 44  1  0
 46 45  2  0
 49 48  1  0
 51 49  1  0
 51 52  1  0
 51 50  1  0
 53  3  1  0
 53 62  1  0
 54 62  1  0
 55 60  1  0
 56 57  1  0
 56 55  1  0
 58 57  1  0
 58 67  1  0
 58 59  1  0
 60 54  1  0
 60 59  1  0
 61 54  2  0
 62 63  1  0
 64 65  2  0
 65 84  1  0
 66 65  1  0
 66 69  1  0
 67 68  1  0
 67 64  1  0
 68 66  2  0
 69 70  1  0
 70 71  2  0
 72 75  1  0
 72 71  1  0
 73 72  2  0
 74 73  1  0
 74 69  2  0
 75 76  1  0
 76 77  1  0
 77 78  2  0
 79 78  1  0
 79 83  1  0
 80 79  2  0
 81 76  2  0
 81 80  1  0
 82 81  1  0
 84 85  1  0
 85 88  1  0
 85 87  1  0
 86 84  2  0
 89 90  1  0
 89 64  1  0
 91 89  1  0
M  ISO  4  11 101  12 101  54 100  62 100
M  END
>  <TORSDO>  (55) 
F 20

>  <SCORE>  (55) 
-13.872

>  <name>  (55) 
54

>  <ligand_id>  (55) 
54

>  <original_smiles>  (55) 
[H]c1c([H])c([H])c2c(c1[H])C([H])([H])C([H])([H])C([H])([H])C2([H])N([H])C(=O)C1([H])N(C(=O)C([H])(N([H])C(=O)C([H])(N([H])C([H])([H])[H])C([H])([H])[H])C(C([H])([H])[H])(C([H])([H])[H])C([H])([H])[H])C([H])([H])c2c([H])c(OC([H])([H])C(=O)c3c(N([H])[H])oc(C([H])([H])N([H])C(=O)N4C([H])([H])C([H])([H])C([H])([H])C([H])(n5nc(-c6c([H])c([H])c(Oc7c([H])c([H])c(F)c([H])c7F)c([H])c6[H])c(C(=O)N([H])[H])c5N([H])[H])C4([H])[H])c3[H])c([H])c([H])c2C1([H])[H]

>  <smiles>  (55) 
[H]c1c([H])c([H])c2c(c1[H])C([H])([H])C([H])([H])C([H])([H])C2([H])N([H])C(=O)C1([H])N(C(=O)C([H])(N([H])C(=O)C([H])(N([H])C([H])([H])[H])C([H])([H])[H])C(C([H])([H])[H])(C([H])([H])[H])C([H])([H])[H])C([H])([H])c2c([H])c(OC([H])([H])C(=O)c3c(N([H])[H])oc(C([H])([H])N([H])C(=O)N4C([H])([H])C([H])([H])C([H])([H])C([H])(n5nc(-c6c([H])c([H])c(Oc7c([H])c([H])c(F)c([H])c7F)c([H])c6[H])c(C(=O)N([H])[H])c5N([H])[H])C4([H])[H])c3[H])c([H])c([H])c2C1([H])[H]

$$$$
55:0:0
     RDKit          3D

 93102  0  0  1  0  0  0  0  0999 V2000
  -29.2370  -20.4560   20.6390 C   0  0  0  0  0  3  0  0  0  0  0  0
  -30.3880  -19.6250   20.4080 C   0  0  0  0  0  0  0  0  0  0  0  0
  -31.4460  -20.5050   20.4680 C   0  0  0  0  0  0  0  0  0  0  0  0
  -29.6810  -21.7490   20.7220 C   0  0  0  0  0  0  0  0  0  0  0  0
  -32.9210  -20.3190   20.3250 C   0  0  0  0  0  1  0  0  0  0  0  0
  -31.0300  -21.8060   20.6350 O   0  0  0  0  0  0  0  0  0  0  0  0
  -30.6590  -14.6200   20.4250 C   0  0  0  0  0  0  0  0  0  0  0  0
  -30.3600  -12.4030   19.3660 C   0  0  0  0  0  2  0  0  0  0  0  0
  -29.4260  -12.5210   18.1440 C   0  0  0  0  0  2  0  0  0  0  0  0
  -27.9560  -12.3410   18.5720 C   0  0  0  0  0  2  0  0  0  0  0  0
  -27.5780  -13.2230   19.7850 C   0  0  0  0  0  3  0  0  0  0  0  0
  -28.6400  -13.1540   20.9110 C   0  0  0  0  0  2  0  0  0  0  0  0
  -29.9580  -13.4470   20.3250 N   0  0  0  0  0  0  0  0  0  0  0  0
  -31.8630  -14.6740   20.1670 O   0  0  0  0  0  0  0  0  0  0  0  0
  -29.2400  -17.6730   19.2200 C   0  0  0  0  0  2  0  0  0  0  0  0
  -28.9930  -16.2140   19.6000 C   0  0  0  0  0  2  0  0  0  0  0  0
  -30.5250  -17.0460   21.1640 C   0  0  0  0  0  2  0  0  0  0  0  0
  -30.4320  -18.1230   20.0480 C   0  0  0  0  0  3  0  0  0  0  0  0
  -29.9560  -15.7800   20.6220 N   0  0  0  0  0  0  0  0  0  0  0  0
  -25.1910  -13.8570   20.4900 C   0  0  0  0  0  0  0  0  0  0  0  0
  -24.1180  -13.0920   20.8520 C   0  0  0  0  0  0  0  0  0  0  0  0
  -24.5780  -11.7400   20.8390 C   0  0  0  0  0  0  0  0  0  0  0  0
  -26.2320  -12.9650   20.2740 N   0  0  0  0  0  0  0  0  0  0  0  0
  -25.8700  -11.6900   20.5480 N   0  0  0  0  0  0  0  0  0  0  0  0
  -23.8510  -10.4810   21.0260 C   0  0  0  0  0  0  0  0  0  0  0  0
  -24.2700   -9.5260   21.9760 C   0  0  0  0  0  3  0  0  0  0  0  0
  -23.5450   -8.3280   22.1510 C   0  0  0  0  0  3  0  0  0  0  0  0
  -22.3880   -8.0800   21.3750 C   0  0  0  0  0  0  0  0  0  0  0  0
  -21.9900   -9.0250   20.4120 C   0  0  0  0  0  3  0  0  0  0  0  0
  -22.7160  -10.2140   20.2360 C   0  0  0  0  0  3  0  0  0  0  0  0
  -21.6360   -6.9340   21.4590 O   0  0  0  0  0  0  0  0  0  0  0  0
  -21.5600   -6.2080   22.6200 C   0  0  0  0  0  0  0  0  0  0  0  0
  -21.0880   -6.7740   23.8250 C   0  0  0  0  0  3  0  0  0  0  0  0
  -20.9610   -5.9730   24.9760 C   0  0  0  0  0  3  0  0  0  0  0  0
  -21.2950   -4.6060   24.9240 C   0  0  0  0  0  0  0  0  0  0  0  0
  -21.7590   -4.0390   23.7250 C   0  0  0  0  0  3  0  0  0  0  0  0
  -21.8890   -4.8390   22.5750 C   0  0  0  0  0  0  0  0  0  0  0  0
  -22.3170   -4.2820   21.4160 F   0  0  0  0  0  0  0  0  0  0  0  0
  -21.1640   -3.8340   26.0290 F   0  0  0  0  0  0  0  0  0  0  0  0
  -22.7180  -13.5740   21.1010 C   0  0  0  0  0  0  0  0  0  0  0  0
  -21.9760  -12.8810   21.9580 N   0  0  0  0  0  0  0  0  0  0  0  0
  -22.2890  -14.5980   20.5700 O   0  0  0  0  0  0  0  0  0  0  0  0
  -22.3360  -12.0530   22.4080 H   0  0  0  0  0  0  0  0  0  0  0  0
  -21.0350  -13.1840   22.1690 H   0  0  0  0  0  0  0  0  0  0  0  0
  -25.3580  -15.2260   20.3020 N   0  0  0  0  0  0  0  0  0  0  0  0
  -24.5920  -15.8840   20.4050 H   0  0  0  0  0  0  0  0  0  0  0  0
  -26.2140  -15.6620   19.9880 H   0  0  0  0  0  0  0  0  0  0  0  0
  -28.8780  -22.8930   20.8740 N   0  0  0  0  0  0  0  0  0  0  0  0
  -27.8750  -22.7640   20.9720 H   0  0  0  0  0  0  0  0  0  0  0  0
  -29.3030  -24.2580   20.5060 C   0  0  0  0  0  2  0  0  0  0  0  0
  -28.1930  -25.5340   22.4190 C   0  0  0  0  0  1  0  0  0  0  0  0
  -28.2290  -25.3310   20.8930 C   0  0  0  0  0  3  0  0  0  0  0  0
  -28.4000  -26.6380   20.2740 O   0  0  0  0  0  0  0  0  0  0  0  0
  -24.5900  -31.9060   23.2510 C   0  0  0  0  0  0  0  0  0  0  0  0
  -27.2570  -27.4260   20.2190 C   0  0  0  0  0  0  0  0  0  0  0  0
  -23.3970  -30.4960   21.6070 C   0  0  0  0  0  3  0  0  0  0  0  0
  -24.8640  -28.9540   20.1940 C   0  0  0  0  0  0  0  0  0  0  0  0
  -25.9270  -30.8500   21.4270 C   0  0  0  0  0  2  0  0  0  0  0  0
  -26.0200  -29.4760   20.7890 C   0  0  0  0  0  0  0  0  0  0  0  0
  -27.2210  -28.7220   20.7930 C   0  0  0  0  0  3  0  0  0  0  0  0
  -26.0860  -26.9370   19.5980 C   0  0  0  0  0  3  0  0  0  0  0  0
  -24.8940  -27.6860   19.5900 C   0  0  0  0  0  3  0  0  0  0  0  0
  -23.6180  -29.8110   20.2320 C   0  0  0  0  0  2  0  0  0  0  0  0
  -24.6560  -31.1000   22.1530 N   0  0  0  0  0  0  0  0  0  0  0  0
  -23.5060  -32.1790   23.7830 O   0  0  0  0  0  0  0  0  0  0  0  0
  -22.7390  -29.4800   22.5690 C   0  0  0  0  0  0  0  0  0  0  0  0
  -21.4140  -29.3030   22.4410 N   0  0  0  0  0  0  0  0  0  0  0  0
  -23.4180  -28.8530   23.3860 O   0  0  0  0  0  0  0  0  0  0  0  0
  -20.9270  -29.8600   21.7510 H   0  0  0  0  0  0  0  0  0  0  0  0
  -18.0300  -28.1350   22.9490 C   0  0  0  0  0  0  0  0  0  0  0  0
  -20.5910  -28.3690   23.2100 C   0  0  0  0  0  3  0  0  0  0  0  0
  -20.6780  -26.9400   22.6270 C   0  0  0  0  0  2  0  0  0  0  0  0
  -19.5690  -26.6320   21.6160 C   0  0  0  0  0  2  0  0  0  0  0  0
  -18.1920  -26.7880   22.2670 C   0  0  0  0  0  2  0  0  0  0  0  0
  -19.1580  -28.8860   23.3780 C   0  0  0  0  0  0  0  0  0  0  0  0
  -18.9530  -30.1480   23.9750 C   0  0  0  0  0  3  0  0  0  0  0  0
  -17.6550  -30.6600   24.1480 C   0  0  0  0  0  3  0  0  0  0  0  0
  -16.5410  -29.9070   23.7360 C   0  0  0  0  0  3  0  0  0  0  0  0
  -16.7300  -28.6470   23.1420 C   0  0  0  0  0  3  0  0  0  0  0  0
  -25.8710  -32.5420   23.8760 C   0  0  0  0  0  3  0  0  0  0  0  0
  -26.3800  -31.7790   25.1620 C   0  0  1  0  0  0  0  0  0  0  0  0
  -25.2800  -31.5470   26.2230 C   0  0  0  0  0  1  0  0  0  0  0  0
  -26.9660  -30.3990   24.7810 C   0  0  0  0  0  1  0  0  0  0  0  0
  -27.5260  -32.5770   25.8260 C   0  0  0  0  0  1  0  0  0  0  0  0
  -25.5610  -33.9430   24.1930 N   0  0  0  0  0  0  0  0  0  0  0  0
  -25.9030  -34.9880   23.4280 C   0  0  0  0  0  0  0  0  0  0  0  0
  -26.5820  -34.8740   22.4040 O   0  0  0  0  0  0  0  0  0  0  0  0
  -24.9590  -34.1040   24.9870 H   0  0  0  0  0  0  0  0  0  0  0  0
  -24.1850  -36.7830   23.0360 C   0  0  0  0  0  1  0  0  0  0  0  0
  -25.4130  -36.3800   23.8690 C   0  0  0  0  0  3  0  0  0  0  0  0
  -27.5370  -37.2670   24.7260 C   0  0  0  0  0  1  0  0  0  0  0  0
  -26.4510  -37.4300   23.7630 N   0  0  0  0  0  0  0  0  0  0  0  0
  -26.0460  -38.3530   23.8930 H   0  0  0  0  0  0  0  0  0  0  0  0
  1  4  2  0
  2  3  2  0
  2  1  1  0
  3  6  1  0
  4 48  1  0
  5  3  1  0
  6  4  1  0
  7 19  1  0
  8 13  1  0
  9 10  1  0
  9  8  1  0
 11 10  1  0
 11 23  1  0
 11 12  1  0
 13  7  1  0
 13 12  1  0
 14  7  2  0
 15 16  1  0
 15 18  1  0
 16 19  1  0
 18  2  1  0
 18 17  1  0
 19 17  1  0
 20 21  2  0
 21 40  1  0
 22 21  1  0
 22 25  1  0
 23 20  1  0
 23 24  1  0
 24 22  2  0
 25 26  1  0
 26 27  2  0
 28 31  1  0
 28 27  1  0
 29 28  2  0
 30 29  1  0
 30 25  2  0
 31 32  1  0
 32 33  1  0
 33 34  2  0
 35 34  1  0
 35 39  1  0
 36 35  2  0
 37 32  2  0
 37 36  1  0
 38 37  1  0
 40 41  1  0
 41 44  1  0
 41 43  1  0
 42 40  2  0
 45 46  1  0
 45 20  1  0
 47 45  1  0
 48 49  1  0
 50 48  1  0
 50 52  1  0
 52 51  1  0
 53 52  1  0
 54 65  2  0
 55 53  1  0
 55 60  1  0
 56 64  1  0
 56 66  1  0
 57 63  1  0
 57 59  1  0
 58 64  1  0
 59 60  2  0
 59 58  1  0
 61 55  2  0
 62 61  1  0
 62 57  2  0
 63 56  1  0
 64 54  1  0
 66 68  2  0
 67 66  1  0
 69 67  1  0
 70 79  2  0
 70 75  1  0
 71 67  1  0
 71 75  1  0
 72 71  1  0
 73 74  1  0
 73 72  1  0
 74 70  1  0
 75 76  2  0
 76 77  1  0
 78 77  2  0
 79 78  1  0
 80 54  1  0
 80 85  1  0
 80 81  1  0
 81 84  1  1
 81 82  1  0
 83 81  1  0
 85 88  1  0
 86 90  1  0
 86 85  1  0
 87 86  2  0
 90 89  1  0
 92 90  1  0
 92 93  1  0
 92 91  1  0
M  ISO  4   7 100  19 100  52 101  53 101
M  END
>  <TORSDO>  (56) 
F 19

>  <SCORE>  (56) 
-14.541

>  <name>  (56) 
55

>  <ligand_id>  (56) 
55

>  <original_smiles>  (56) 
[H]c1c([H])c([H])c2c(c1[H])C([H])([H])C([H])([H])C([H])([H])C2([H])N([H])C(=O)C1([H])N(C(=O)C([H])(N([H])C(=O)C([H])(N([H])C([H])([H])[H])C([H])([H])[H])C(C([H])([H])[H])(C([H])([H])[H])C([H])([H])[H])C([H])([H])c2c([H])c(OC([H])(C([H])([H])[H])C([H])([H])N([H])c3oc(C([H])([H])[H])c(C4([H])C([H])([H])N(C(=O)N5C([H])([H])C([H])([H])C([H])([H])C([H])(n6nc(-c7c([H])c([H])c(Oc8c([H])c([H])c(F)c([H])c8F)c([H])c7[H])c(C(=O)N([H])[H])c6N([H])[H])C5([H])[H])C([H])([H])C4([H])[H])c3[H])c([H])c([H])c2C1([H])[H]

>  <smiles>  (56) 
[H]c1c([H])c([H])c2c(c1[H])C([H])([H])C([H])([H])C([H])([H])C2([H])N([H])C(=O)C1([H])N(C(=O)C([H])(N([H])C(=O)C([H])(N([H])C([H])([H])[H])C([H])([H])[H])C(C([H])([H])[H])(C([H])([H])[H])C([H])([H])[H])C([H])([H])c2c([H])c(OC([H])(C([H])([H])[H])C([H])([H])N([H])c3oc(C([H])([H])[H])c(C4([H])C([H])([H])N(C(=O)N5C([H])([H])C([H])([H])C([H])([H])C([H])(n6nc(-c7c([H])c([H])c(Oc8c([H])c([H])c(F)c([H])c8F)c([H])c7[H])c(C(=O)N([H])[H])c6N([H])[H])C5([H])[H])C([H])([H])C4([H])[H])c3[H])c([H])c([H])c2C1([H])[H]

$$$$
56:0:0
     RDKit          3D

 94103  0  0  1  0  0  0  0  0999 V2000
  -29.2590  -21.2840   20.3010 C   0  0  0  0  0  3  0  0  0  0  0  0
  -30.3380  -24.2290   22.3580 C   0  0  0  0  0  2  0  0  0  0  0  0
  -30.4640  -24.6810   20.9040 C   0  0  0  0  0  2  0  0  0  0  0  0
  -30.0410  -22.7290   22.2220 C   0  0  0  0  0  2  0  0  0  0  0  0
  -29.2820  -23.9640   20.2430 C   0  0  0  0  0  3  0  0  0  0  0  0
  -29.3910  -22.5550   20.9040 N   0  0  0  0  0  0  0  0  0  0  0  0
  -28.6080  -21.2810   19.1300 N   0  0  0  0  0  0  0  0  0  0  0  0
  -28.4770  -20.4150   18.6320 H   0  0  0  0  0  0  0  0  0  0  0  0
  -28.2360  -22.1220   18.7120 H   0  0  0  0  0  0  0  0  0  0  0  0
  -29.2490  -18.5990   20.4960 C   0  0  0  0  0  3  0  0  0  0  0  0
  -31.3180  -17.9060   21.3450 C   0  0  0  0  0  3  0  0  0  0  0  0
  -30.1310  -17.4490   20.8070 C   0  0  0  0  0  0  0  0  0  0  0  0
  -29.7720  -19.8960   20.7160 C   0  0  0  0  0  0  0  0  0  0  0  0
  -31.3790  -19.6750   21.4030 S   0  0  0  0  0  0  0  0  0  0  0  0
  -30.5420  -14.8480   20.4070 C   0  0  0  0  0  0  0  0  0  0  0  0
  -30.3410  -12.5710   19.3440 C   0  0  0  0  0  2  0  0  0  0  0  0
  -29.3800  -12.5890   18.1340 C   0  0  0  0  0  2  0  0  0  0  0  0
  -27.9220  -12.3800   18.5940 C   0  0  0  0  0  2  0  0  0  0  0  0
  -27.5450  -13.2830   19.8000 C   0  0  0  0  0  3  0  0  0  0  0  0
  -28.6220  -13.2430   20.9080 C   0  0  0  0  0  2  0  0  0  0  0  0
  -29.9020  -13.6280   20.2900 N   0  0  0  0  0  0  0  0  0  0  0  0
  -31.7360  -14.9320   20.1010 O   0  0  0  0  0  0  0  0  0  0  0  0
  -29.7790  -16.0020   20.6040 N   0  0  0  0  0  0  0  0  0  0  0  0
  -28.7900  -15.8250   20.5070 H   0  0  0  0  0  0  0  0  0  0  0  0
  -25.1680  -13.8530   20.5840 C   0  0  0  0  0  0  0  0  0  0  0  0
  -24.1100  -13.0720   20.9520 C   0  0  0  0  0  0  0  0  0  0  0  0
  -24.5740  -11.7200   20.8870 C   0  0  0  0  0  0  0  0  0  0  0  0
  -26.2100  -12.9830   20.3120 N   0  0  0  0  0  0  0  0  0  0  0  0
  -25.8600  -11.6940   20.5600 N   0  0  0  0  0  0  0  0  0  0  0  0
  -23.8520  -10.4530   21.0680 C   0  0  0  0  0  0  0  0  0  0  0  0
  -24.2890   -9.4830   21.9990 C   0  0  0  0  0  3  0  0  0  0  0  0
  -23.5720   -8.2770   22.1670 C   0  0  0  0  0  3  0  0  0  0  0  0
  -22.4060   -8.0360   21.4040 C   0  0  0  0  0  0  0  0  0  0  0  0
  -21.9850   -8.9960   20.4650 C   0  0  0  0  0  3  0  0  0  0  0  0
  -22.7020  -10.1930   20.2960 C   0  0  0  0  0  3  0  0  0  0  0  0
  -21.6580   -6.8860   21.4810 O   0  0  0  0  0  0  0  0  0  0  0  0
  -21.5900   -6.1480   22.6350 C   0  0  0  0  0  0  0  0  0  0  0  0
  -21.0960   -6.6950   23.8400 C   0  0  0  0  0  3  0  0  0  0  0  0
  -20.9810   -5.8810   24.9860 C   0  0  0  0  0  3  0  0  0  0  0  0
  -21.3440   -4.5220   24.9240 C   0  0  0  0  0  0  0  0  0  0  0  0
  -21.8300   -3.9750   23.7220 C   0  0  0  0  0  3  0  0  0  0  0  0
  -21.9470   -4.7870   22.5810 C   0  0  0  0  0  0  0  0  0  0  0  0
  -22.3960   -4.2510   21.4210 F   0  0  0  0  0  0  0  0  0  0  0  0
  -21.2240   -3.7370   26.0210 F   0  0  0  0  0  0  0  0  0  0  0  0
  -22.7150  -13.5370   21.2530 C   0  0  0  0  0  0  0  0  0  0  0  0
  -21.9950  -12.8210   22.1100 N   0  0  0  0  0  0  0  0  0  0  0  0
  -22.2740  -14.5760   20.7640 O   0  0  0  0  0  0  0  0  0  0  0  0
  -22.3710  -11.9840   22.5290 H   0  0  0  0  0  0  0  0  0  0  0  0
  -21.0570  -13.1170   22.3490 H   0  0  0  0  0  0  0  0  0  0  0  0
  -25.3260  -15.2290   20.4420 N   0  0  0  0  0  0  0  0  0  0  0  0
  -24.5630  -15.8720   20.6230 H   0  0  0  0  0  0  0  0  0  0  0  0
  -26.1740  -15.6910   20.1470 H   0  0  0  0  0  0  0  0  0  0  0  0
  -28.0090  -24.9550   20.4350 C   0  0  0  0  0  2  0  0  0  0  0  0
  -28.1950  -26.4330   20.1630 O   0  0  0  0  0  0  0  0  0  0  0  0
  -24.5340  -31.9070   23.2150 C   0  0  0  0  0  0  0  0  0  0  0  0
  -27.0870  -27.3110   20.1330 C   0  0  0  0  0  0  0  0  0  0  0  0
  -23.3080  -30.5240   21.5760 C   0  0  0  0  0  3  0  0  0  0  0  0
  -24.7390  -28.9640   20.1340 C   0  0  0  0  0  0  0  0  0  0  0  0
  -25.8510  -30.8190   21.3790 C   0  0  0  0  0  2  0  0  0  0  0  0
  -25.9170  -29.4390   20.7190 C   0  0  0  0  0  0  0  0  0  0  0  0
  -27.0940  -28.6280   20.7060 C   0  0  0  0  0  3  0  0  0  0  0  0
  -25.8900  -26.9060   19.5050 C   0  0  0  0  0  3  0  0  0  0  0  0
  -24.7290  -27.7050   19.5150 C   0  0  0  0  0  3  0  0  0  0  0  0
  -23.5100  -29.8510   20.1930 C   0  0  0  0  0  2  0  0  0  0  0  0
  -24.5840  -31.1010   22.1130 N   0  0  0  0  0  0  0  0  0  0  0  0
  -23.4570  -32.1880   23.7620 O   0  0  0  0  0  0  0  0  0  0  0  0
  -22.6480  -29.5070   22.5390 C   0  0  0  0  0  0  0  0  0  0  0  0
  -21.3220  -29.3220   22.4100 N   0  0  0  0  0  0  0  0  0  0  0  0
  -23.3270  -28.8870   23.3630 O   0  0  0  0  0  0  0  0  0  0  0  0
  -20.8340  -29.8710   21.7170 H   0  0  0  0  0  0  0  0  0  0  0  0
  -17.9480  -28.1260   22.9240 C   0  0  0  0  0  0  0  0  0  0  0  0
  -20.5060  -28.3830   23.1830 C   0  0  0  0  0  3  0  0  0  0  0  0
  -20.6070  -26.9530   22.6030 C   0  0  0  0  0  2  0  0  0  0  0  0
  -19.5030  -26.6350   21.5920 C   0  0  0  0  0  2  0  0  0  0  0  0
  -18.1220  -26.7790   22.2400 C   0  0  0  0  0  2  0  0  0  0  0  0
  -19.0680  -28.8860   23.3510 C   0  0  0  0  0  0  0  0  0  0  0  0
  -18.8540  -30.1440   23.9510 C   0  0  0  0  0  3  0  0  0  0  0  0
  -17.5510  -30.6470   24.1290 C   0  0  0  0  0  3  0  0  0  0  0  0
  -16.4440  -29.8830   23.7190 C   0  0  0  0  0  3  0  0  0  0  0  0
  -16.6430  -28.6260   23.1220 C   0  0  0  0  0  3  0  0  0  0  0  0
  -25.8250  -32.5290   23.8300 C   0  0  0  0  0  3  0  0  0  0  0  0
  -25.5340  -33.9300   24.1590 N   0  0  0  0  0  0  0  0  0  0  0  0
  -25.8830  -34.9780   23.4050 C   0  0  0  0  0  0  0  0  0  0  0  0
  -26.5510  -34.8670   22.3730 O   0  0  0  0  0  0  0  0  0  0  0  0
  -24.9430  -34.0910   24.9640 H   0  0  0  0  0  0  0  0  0  0  0  0
  -24.1960  -36.8020   23.0250 C   0  0  0  0  0  1  0  0  0  0  0  0
  -25.4120  -36.3750   23.8620 C   0  0  0  0  0  3  0  0  0  0  0  0
  -27.5380  -37.2130   24.7530 C   0  0  0  0  0  1  0  0  0  0  0  0
  -26.4660  -37.4080   23.7810 N   0  0  0  0  0  0  0  0  0  0  0  0
  -26.0750  -38.3350   23.9240 H   0  0  0  0  0  0  0  0  0  0  0  0
  -26.3390  -31.7570   25.1040 C   0  0  1  0  0  0  0  0  0  0  0  0
  -25.2470  -31.5330   26.1760 C   0  0  0  0  0  1  0  0  0  0  0  0
  -26.9080  -30.3740   24.7150 C   0  0  0  0  0  1  0  0  0  0  0  0
  -27.5080  -32.5360   25.7540 C   0  0  0  0  0  1  0  0  0  0  0  0
  1  7  1  0
  1 13  1  0
  1  6  1  0
  3  2  1  0
  4  2  1  0
  5 53  1  0
  5  6  1  0
  5  3  1  0
  6  4  1  0
  8  7  1  0
  9  7  1  0
 10 13  2  0
 10 12  1  0
 11 14  1  0
 12 11  2  0
 13 14  1  0
 15 23  1  0
 16 21  1  0
 17 18  1  0
 17 16  1  0
 19 18  1  0
 19 28  1  0
 19 20  1  0
 21 15  1  0
 21 20  1  0
 22 15  2  0
 23 12  1  0
 24 23  1  0
 25 26  2  0
 26 45  1  0
 27 26  1  0
 27 30  1  0
 28 29  1  0
 28 25  1  0
 29 27  2  0
 30 31  1  0
 31 32  2  0
 33 36  1  0
 33 32  1  0
 34 33  2  0
 35 34  1  0
 35 30  2  0
 36 37  1  0
 37 38  1  0
 38 39  2  0
 40 39  1  0
 40 44  1  0
 41 40  2  0
 42 37  2  0
 42 41  1  0
 43 42  1  0
 45 46  1  0
 46 49  1  0
 46 48  1  0
 47 45  2  0
 50 25  1  0
 50 51  1  0
 52 50  1  0
 54 53  1  0
 55 66  2  0
 56 54  1  0
 56 61  1  0
 57 65  1  0
 57 67  1  0
 58 64  1  0
 58 60  1  0
 59 65  1  0
 60 59  1  0
 61 60  2  0
 62 63  1  0
 62 56  2  0
 63 58  2  0
 64 57  1  0
 65 55  1  0
 67 69  2  0
 68 67  1  0
 70 68  1  0
 71 80  2  0
 71 76  1  0
 72 68  1  0
 72 76  1  0
 73 72  1  0
 74 75  1  0
 74 73  1  0
 75 71  1  0
 76 77  2  0
 77 78  1  0
 79 78  2  0
 80 79  1  0
 81 55  1  0
 81 82  1  0
 81 91  1  0
 82 85  1  0
 83 87  1  0
 83 82  1  0
 84 83  2  0
 87 86  1  0
 89 87  1  0
 89 90  1  0
 89 88  1  0
 91 94  1  1
 91 92  1  0
 93 91  1  0
M  ISO  4  15 100  23 100  53 101  54 101
M  END
>  <TORSDO>  (57) 
F 18

>  <SCORE>  (57) 
-14.731

>  <name>  (57) 
56

>  <ligand_id>  (57) 
56

>  <original_smiles>  (57) 
[H]c1sc(C(N2C([H])([H])C([H])([H])C([H])([H])C2([H])C([H])([H])Oc2c([H])c([H])c3c(c2[H])C([H])([H])N(C(=O)C([H])(N([H])C(=O)C([H])(N([H])C([H])([H])[H])C([H])([H])[H])C(C([H])([H])[H])(C([H])([H])[H])C([H])([H])[H])C([H])(C(=O)N([H])C2([H])c4c([H])c([H])c([H])c([H])c4C([H])([H])C([H])([H])C2([H])[H])C3([H])[H])=[N+]([H])[H])c([H])c1N([H])C(=O)N1C([H])([H])C([H])([H])C([H])([H])C([H])(n2nc(-c3c([H])c([H])c(Oc4c([H])c([H])c(F)c([H])c4F)c([H])c3[H])c(C(=O)N([H])[H])c2N([H])[H])C1([H])[H]

>  <smiles>  (57) 
[H]c1sc(C(N2C([H])([H])C([H])([H])C([H])([H])C2([H])C([H])([H])Oc2c([H])c([H])c3c(c2[H])C([H])([H])N(C(=O)C([H])(N([H])C(=O)C([H])(N([H])C([H])([H])[H])C([H])([H])[H])C(C([H])([H])[H])(C([H])([H])[H])C([H])([H])[H])C([H])(C(=O)N([H])C2([H])c4c([H])c([H])c([H])c([H])c4C([H])([H])C([H])([H])C2([H])[H])C3([H])[H])=[N+]([H])[H])c([H])c1N([H])C(=O)N1C([H])([H])C([H])([H])C([H])([H])C([H])(n2nc(-c3c([H])c([H])c(Oc4c([H])c([H])c(F)c([H])c4F)c([H])c3[H])c(C(=O)N([H])[H])c2N([H])[H])C1([H])[H]

$$$$
57:0:0
     RDKit          3D

 91100  0  0  1  0  0  0  0  0999 V2000
  -28.8620  -23.6460   20.3750 C   0  0  0  0  0  0  0  0  0  0  0  0
  -28.7910  -22.4300   19.7060 N   0  0  0  0  0  0  0  0  0  0  0  0
  -29.5120  -23.7750   21.4160 O   0  0  0  0  0  0  0  0  0  0  0  0
  -28.3370  -22.5340   18.8070 H   0  0  0  0  0  0  0  0  0  0  0  0
  -30.7510  -14.7800   19.9450 C   0  0  0  0  0  0  0  0  0  0  0  0
  -30.4210  -12.5210   18.9220 C   0  0  0  0  0  2  0  0  0  0  0  0
  -29.3990  -12.6090   17.7690 C   0  0  0  0  0  2  0  0  0  0  0  0
  -27.9690  -12.4310   18.3100 C   0  0  0  0  0  2  0  0  0  0  0  0
  -27.6890  -13.3070   19.5610 C   0  0  0  0  0  3  0  0  0  0  0  0
  -28.8310  -13.2280   20.5990 C   0  0  0  0  0  2  0  0  0  0  0  0
  -30.0750  -13.5770   19.9050 N   0  0  0  0  0  0  0  0  0  0  0  0
  -31.8930  -14.8390   19.4770 O   0  0  0  0  0  0  0  0  0  0  0  0
  -29.4520  -20.4020   21.1470 C   0  0  0  0  0  3  0  0  0  0  0  0
  -29.6580  -18.9560   21.0060 C   0  0  0  0  0  0  0  0  0  0  0  0
  -29.5980  -18.5030   19.7230 C   0  0  0  0  0  0  0  0  0  0  0  0
  -29.1750  -21.1000   19.9720 C   0  0  0  0  0  0  0  0  0  0  0  0
  -29.8790  -17.9080   22.0710 C   0  0  0  0  0  2  0  0  0  0  0  0
  -29.7900  -17.0220   19.2750 C   0  0  0  0  0  2  0  0  0  0  0  0
  -30.5960  -16.5980   21.5730 C   0  0  0  0  0  2  0  0  0  0  0  0
  -30.1020  -15.9610   20.3190 N   0  0  0  0  0  0  0  0  0  0  0  0
  -29.2340  -19.8830   18.6660 S   0  0  0  0  0  0  0  0  0  0  0  0
  -25.3820  -13.8810   20.5180 C   0  0  0  0  0  0  0  0  0  0  0  0
  -24.3390  -13.1000   20.9380 C   0  0  0  0  0  0  0  0  0  0  0  0
  -24.7790  -11.7470   20.8040 C   0  0  0  0  0  0  0  0  0  0  0  0
  -26.3890  -13.0040   20.1520 N   0  0  0  0  0  0  0  0  0  0  0  0
  -26.0390  -11.7130   20.3860 N   0  0  0  0  0  0  0  0  0  0  0  0
  -24.0520  -10.4850   20.9940 C   0  0  0  0  0  0  0  0  0  0  0  0
  -24.5080   -9.4970   21.8950 C   0  0  0  0  0  3  0  0  0  0  0  0
  -23.7810   -8.3010   22.0750 C   0  0  0  0  0  3  0  0  0  0  0  0
  -22.5820   -8.0830   21.3540 C   0  0  0  0  0  0  0  0  0  0  0  0
  -22.1450   -9.0600   20.4430 C   0  0  0  0  0  3  0  0  0  0  0  0
  -22.8720  -10.2480   20.2600 C   0  0  0  0  0  3  0  0  0  0  0  0
  -21.8230   -6.9420   21.4460 O   0  0  0  0  0  0  0  0  0  0  0  0
  -21.7520   -6.2170   22.6090 C   0  0  0  0  0  0  0  0  0  0  0  0
  -21.3120   -6.7930   23.8200 C   0  0  0  0  0  3  0  0  0  0  0  0
  -21.1860   -5.9940   24.9740 C   0  0  0  0  0  3  0  0  0  0  0  0
  -21.4900   -4.6210   24.9180 C   0  0  0  0  0  0  0  0  0  0  0  0
  -21.9230   -4.0450   23.7110 C   0  0  0  0  0  3  0  0  0  0  0  0
  -22.0490   -4.8400   22.5590 C   0  0  0  0  0  0  0  0  0  0  0  0
  -22.4460   -4.2750   21.3930 F   0  0  0  0  0  0  0  0  0  0  0  0
  -21.3620   -3.8520   26.0240 F   0  0  0  0  0  0  0  0  0  0  0  0
  -22.9770  -13.5780   21.3480 C   0  0  0  0  0  0  0  0  0  0  0  0
  -22.3230  -12.8620   22.2550 N   0  0  0  0  0  0  0  0  0  0  0  0
  -22.5050  -14.6220   20.9010 O   0  0  0  0  0  0  0  0  0  0  0  0
  -22.7200  -12.0170   22.6390 H   0  0  0  0  0  0  0  0  0  0  0  0
  -21.4120  -13.1620   22.5710 H   0  0  0  0  0  0  0  0  0  0  0  0
  -25.5510  -15.2570   20.3960 N   0  0  0  0  0  0  0  0  0  0  0  0
  -24.8110  -15.9150   20.6100 H   0  0  0  0  0  0  0  0  0  0  0  0
  -26.3910  -15.7040   20.0500 H   0  0  0  0  0  0  0  0  0  0  0  0
  -28.0460  -24.9010   19.7830 C   0  0  0  0  0  2  0  0  0  0  0  0
  -28.2890  -26.3230   20.2500 O   0  0  0  0  0  0  0  0  0  0  0  0
  -24.6310  -31.8670   23.2340 C   0  0  0  0  0  0  0  0  0  0  0  0
  -27.2190  -27.2580   20.1610 C   0  0  0  0  0  0  0  0  0  0  0  0
  -23.4270  -30.4750   21.5940 C   0  0  0  0  0  3  0  0  0  0  0  0
  -24.8740  -28.9340   20.1520 C   0  0  0  0  0  0  0  0  0  0  0  0
  -25.9730  -30.7730   21.4170 C   0  0  0  0  0  2  0  0  0  0  0  0
  -26.0480  -29.3930   20.7610 C   0  0  0  0  0  0  0  0  0  0  0  0
  -27.2210  -28.5660   20.7620 C   0  0  0  0  0  3  0  0  0  0  0  0
  -26.0270  -26.8950   19.4880 C   0  0  0  0  0  3  0  0  0  0  0  0
  -24.8700  -27.6930   19.5030 C   0  0  0  0  0  3  0  0  0  0  0  0
  -23.6400  -29.8130   20.2080 C   0  0  0  0  0  2  0  0  0  0  0  0
  -24.6960  -31.0570   22.1360 N   0  0  0  0  0  0  0  0  0  0  0  0
  -23.5470  -32.1440   23.7690 O   0  0  0  0  0  0  0  0  0  0  0  0
  -22.7630  -29.4530   22.5500 C   0  0  0  0  0  0  0  0  0  0  0  0
  -21.4370  -29.2720   22.4220 N   0  0  0  0  0  0  0  0  0  0  0  0
  -23.4420  -28.8290   23.3680 O   0  0  0  0  0  0  0  0  0  0  0  0
  -20.9480  -29.8280   21.7360 H   0  0  0  0  0  0  0  0  0  0  0  0
  -18.0610  -28.0630   22.9220 C   0  0  0  0  0  0  0  0  0  0  0  0
  -20.6200  -28.3310   23.1930 C   0  0  0  0  0  3  0  0  0  0  0  0
  -20.7260  -26.9000   22.6170 C   0  0  0  0  0  2  0  0  0  0  0  0
  -19.6260  -26.5740   21.6030 C   0  0  0  0  0  2  0  0  0  0  0  0
  -18.2440  -26.7140   22.2470 C   0  0  0  0  0  2  0  0  0  0  0  0
  -19.1780  -28.8280   23.3530 C   0  0  0  0  0  0  0  0  0  0  0  0
  -18.9530  -30.0900   23.9460 C   0  0  0  0  0  3  0  0  0  0  0  0
  -17.6470  -30.5860   24.1120 C   0  0  0  0  0  3  0  0  0  0  0  0
  -16.5450  -29.8160   23.6970 C   0  0  0  0  0  3  0  0  0  0  0  0
  -16.7540  -28.5570   23.1090 C   0  0  0  0  0  3  0  0  0  0  0  0
  -25.9130  -32.5000   23.8560 C   0  0  0  0  0  3  0  0  0  0  0  0
  -25.6080  -33.9030   24.1690 N   0  0  0  0  0  0  0  0  0  0  0  0
  -25.9320  -34.9470   23.3940 C   0  0  0  0  0  0  0  0  0  0  0  0
  -26.5890  -34.8280   22.3550 O   0  0  0  0  0  0  0  0  0  0  0  0
  -25.0220  -34.0690   24.9750 H   0  0  0  0  0  0  0  0  0  0  0  0
  -24.1930  -36.7330   23.0500 C   0  0  0  0  0  1  0  0  0  0  0  0
  -25.4530  -36.3420   23.8390 C   0  0  0  0  0  3  0  0  0  0  0  0
  -27.6040  -37.2440   24.6070 C   0  0  0  0  0  1  0  0  0  0  0  0
  -26.4810  -37.3950   23.6850 N   0  0  0  0  0  0  0  0  0  0  0  0
  -26.0760  -38.3170   23.8250 H   0  0  0  0  0  0  0  0  0  0  0  0
  -26.4160  -31.7410   25.1440 C   0  0  1  0  0  0  0  0  0  0  0  0
  -25.3160  -31.5230   26.2080 C   0  0  0  0  0  1  0  0  0  0  0  0
  -26.9950  -30.3550   24.7760 C   0  0  0  0  0  1  0  0  0  0  0  0
  -27.5680  -32.5370   25.8030 C   0  0  0  0  0  1  0  0  0  0  0  0
  1  3  2  0
  2 16  1  0
  2  1  1  0
  4  2  1  0
  5 20  1  0
  6 11  1  0
  7  8  1  0
  7  6  1  0
  9  8  1  0
  9 25  1  0
  9 10  1  0
 11  5  1  0
 11 10  1  0
 12  5  2  0
 14 13  1  0
 14 17  1  0
 15 14  2  0
 16 13  2  0
 18 15  1  0
 18 20  1  0
 19 17  1  0
 20 19  1  0
 21 15  1  0
 21 16  1  0
 22 23  2  0
 23 42  1  0
 24 23  1  0
 24 27  1  0
 25 26  1  0
 25 22  1  0
 26 24  2  0
 27 28  1  0
 28 29  2  0
 30 33  1  0
 30 29  1  0
 31 30  2  0
 32 31  1  0
 32 27  2  0
 33 34  1  0
 34 35  1  0
 35 36  2  0
 37 36  1  0
 37 41  1  0
 38 37  2  0
 39 34  2  0
 39 38  1  0
 40 39  1  0
 42 43  1  0
 43 46  1  0
 43 45  1  0
 44 42  2  0
 47 22  1  0
 47 48  1  0
 49 47  1  0
 50 51  1  0
 50  1  1  0
 52 63  2  0
 53 51  1  0
 53 58  1  0
 54 62  1  0
 54 64  1  0
 55 61  1  0
 55 57  1  0
 56 62  1  0
 57 58  2  0
 57 56  1  0
 59 60  1  0
 59 53  2  0
 60 55  2  0
 61 54  1  0
 62 52  1  0
 64 66  2  0
 65 64  1  0
 67 65  1  0
 68 77  2  0
 68 73  1  0
 69 65  1  0
 69 73  1  0
 70 69  1  0
 71 72  1  0
 71 70  1  0
 72 68  1  0
 73 74  2  0
 74 75  1  0
 76 75  2  0
 77 76  1  0
 78 52  1  0
 78 79  1  0
 78 88  1  0
 79 82  1  0
 80 84  1  0
 80 79  1  0
 81 80  2  0
 84 83  1  0
 86 87  1  0
 86 84  1  0
 86 85  1  0
 88 91  1  1
 88 89  1  0
 90 88  1  0
M  ISO  4   5 100  20 100  50 101  51 101
M  END
>  <TORSDO>  (58) 
F 17

>  <SCORE>  (58) 
-14.387

>  <name>  (58) 
57

>  <ligand_id>  (58) 
57

>  <original_smiles>  (58) 
[H]c1c([H])c([H])c2c(c1[H])C([H])([H])C([H])([H])C([H])([H])C2([H])N([H])C(=O)C1([H])N(C(=O)C([H])(N([H])C(=O)C([H])(N([H])C([H])([H])[H])C([H])([H])[H])C(C([H])([H])[H])(C([H])([H])[H])C([H])([H])[H])C([H])([H])c2c([H])c(OC([H])([H])C(=O)N([H])c3sc4c(c3[H])C([H])([H])C([H])([H])N(C(=O)N3C([H])([H])C([H])([H])C([H])([H])C([H])(n5nc(-c6c([H])c([H])c(Oc7c([H])c([H])c(F)c([H])c7F)c([H])c6[H])c(C(=O)N([H])[H])c5N([H])[H])C3([H])[H])C4([H])[H])c([H])c([H])c2C1([H])[H]

>  <smiles>  (58) 
[H]c1c([H])c([H])c2c(c1[H])C([H])([H])C([H])([H])C([H])([H])C2([H])N([H])C(=O)C1([H])N(C(=O)C([H])(N([H])C(=O)C([H])(N([H])C([H])([H])[H])C([H])([H])[H])C(C([H])([H])[H])(C([H])([H])[H])C([H])([H])[H])C([H])([H])c2c([H])c(OC([H])([H])C(=O)N([H])c3sc4c(c3[H])C([H])([H])C([H])([H])N(C(=O)N3C([H])([H])C([H])([H])C([H])([H])C([H])(n5nc(-c6c([H])c([H])c(Oc7c([H])c([H])c(F)c([H])c7F)c([H])c6[H])c(C(=O)N([H])[H])c5N([H])[H])C3([H])[H])C4([H])[H])c([H])c([H])c2C1([H])[H]

$$$$
58:0:0
     RDKit          3D

 97106  0  0  1  0  0  0  0  0999 V2000
  -29.7550  -20.2710   19.1430 C   0  0  0  0  0  3  0  0  0  0  0  0
  -28.2950  -23.0780   21.1830 C   0  0  0  0  0  2  0  0  0  0  0  0
  -28.7570  -21.6070   21.0390 C   0  0  0  0  0  2  0  0  0  0  0  0
  -29.2270  -22.8130   19.0250 C   0  0  0  0  0  3  0  0  0  0  0  0
  -29.0900  -23.9030   20.1430 C   0  0  2  0  0  0  0  0  0  0  0  0
  -30.2920  -23.1460   17.9570 C   0  0  0  0  0  1  0  0  0  0  0  0
  -30.4600  -24.3190   20.7220 C   0  0  0  0  0  1  0  0  0  0  0  0
  -29.3520  -21.4760   19.6960 N   0  0  0  0  0  0  0  0  0  0  0  0
  -30.4570  -20.2680   18.0020 N   0  0  0  0  0  0  0  0  0  0  0  0
  -30.6900  -19.4030   17.5410 H   0  0  0  0  0  0  0  0  0  0  0  0
  -30.7370  -21.1360   17.5720 H   0  0  0  0  0  0  0  0  0  0  0  0
  -30.3280  -17.9070   20.1420 C   0  0  0  0  0  3  0  0  0  0  0  0
  -29.3980  -18.9150   19.6590 C   0  0  0  0  0  0  0  0  0  0  0  0
  -28.1280  -18.4250   19.4880 C   0  0  0  0  0  0  0  0  0  0  0  0
  -29.7250  -16.6760   20.4030 C   0  0  0  0  0  0  0  0  0  0  0  0
  -26.9560  -19.0310   18.7830 C   0  0  0  0  0  1  0  0  0  0  0  0
  -28.0070  -16.8120   20.1220 S   0  0  0  0  0  0  0  0  0  0  0  0
  -30.8040  -14.4580   20.1930 C   0  0  0  0  0  0  0  0  0  0  0  0
  -30.5480  -12.1660   19.2720 C   0  0  0  0  0  2  0  0  0  0  0  0
  -29.5990  -12.2250   18.0550 C   0  0  0  0  0  2  0  0  0  0  0  0
  -28.1240  -12.1260   18.4930 C   0  0  0  0  0  2  0  0  0  0  0  0
  -27.7820  -13.0790   19.6700 C   0  0  0  0  0  3  0  0  0  0  0  0
  -28.8430  -12.9720   20.7900 C   0  0  0  0  0  2  0  0  0  0  0  0
  -30.1690  -13.2470   20.2020 N   0  0  0  0  0  0  0  0  0  0  0  0
  -31.8840  -14.6420   19.6220 O   0  0  0  0  0  0  0  0  0  0  0  0
  -30.1620  -15.4520   20.8530 N   0  0  0  0  0  0  0  0  0  0  0  0
  -29.5020  -15.0390   21.4930 H   0  0  0  0  0  0  0  0  0  0  0  0
  -25.4190  -13.7610   20.4280 C   0  0  0  0  0  0  0  0  0  0  0  0
  -24.3360  -13.0270   20.8260 C   0  0  0  0  0  0  0  0  0  0  0  0
  -24.7480  -11.6610   20.7810 C   0  0  0  0  0  0  0  0  0  0  0  0
  -26.4300  -12.8460   20.1770 N   0  0  0  0  0  0  0  0  0  0  0  0
  -26.0290  -11.5760   20.4450 N   0  0  0  0  0  0  0  0  0  0  0  0
  -23.9780  -10.4270   20.9810 C   0  0  0  0  0  0  0  0  0  0  0  0
  -24.3830   -9.4490   21.9150 C   0  0  0  0  0  3  0  0  0  0  0  0
  -23.6180   -8.2780   22.1020 C   0  0  0  0  0  3  0  0  0  0  0  0
  -22.4320   -8.0780   21.3550 C   0  0  0  0  0  0  0  0  0  0  0  0
  -22.0460   -9.0450   20.4110 C   0  0  0  0  0  3  0  0  0  0  0  0
  -22.8120  -10.2080   20.2210 C   0  0  0  0  0  3  0  0  0  0  0  0
  -21.6370   -6.9610   21.4540 O   0  0  0  0  0  0  0  0  0  0  0  0
  -21.5650   -6.2300   22.6120 C   0  0  0  0  0  0  0  0  0  0  0  0
  -21.0990   -6.7950   23.8200 C   0  0  0  0  0  3  0  0  0  0  0  0
  -20.9720   -5.9900   24.9700 C   0  0  0  0  0  3  0  0  0  0  0  0
  -21.3010   -4.6220   24.9110 C   0  0  0  0  0  0  0  0  0  0  0  0
  -21.7610   -4.0570   23.7090 C   0  0  0  0  0  3  0  0  0  0  0  0
  -21.8890   -4.8600   22.5620 C   0  0  0  0  0  0  0  0  0  0  0  0
  -22.3110   -4.3060   21.3990 F   0  0  0  0  0  0  0  0  0  0  0  0
  -21.1700   -3.8470   26.0140 F   0  0  0  0  0  0  0  0  0  0  0  0
  -22.9650  -13.5560   21.1340 C   0  0  0  0  0  0  0  0  0  0  0  0
  -22.2340  -12.8890   22.0200 N   0  0  0  0  0  0  0  0  0  0  0  0
  -22.5510  -14.5970   20.6250 O   0  0  0  0  0  0  0  0  0  0  0  0
  -22.5820  -12.0460   22.4520 H   0  0  0  0  0  0  0  0  0  0  0  0
  -21.3140  -13.2250   22.2660 H   0  0  0  0  0  0  0  0  0  0  0  0
  -25.6170  -15.1240   20.2390 N   0  0  0  0  0  0  0  0  0  0  0  0
  -24.8740  -15.8030   20.3640 H   0  0  0  0  0  0  0  0  0  0  0  0
  -26.4740  -15.5380   19.8950 H   0  0  0  0  0  0  0  0  0  0  0  0
  -28.2910  -25.1500   19.6000 C   0  0  0  0  0  2  0  0  0  0  0  0
  -28.3340  -26.4480   20.2720 O   0  0  0  0  0  0  0  0  0  0  0  0
  -24.5930  -31.8350   23.1830 C   0  0  0  0  0  0  0  0  0  0  0  0
  -27.2050  -27.2690   20.1820 C   0  0  0  0  0  0  0  0  0  0  0  0
  -23.3890  -30.4160   21.5620 C   0  0  0  0  0  3  0  0  0  0  0  0
  -24.8380  -28.8600   20.1580 C   0  0  0  0  0  0  0  0  0  0  0  0
  -25.9270  -30.7370   21.3800 C   0  0  0  0  0  2  0  0  0  0  0  0
  -26.0030  -29.3520   20.7590 C   0  0  0  0  0  0  0  0  0  0  0  0
  -27.1850  -28.5620   20.7790 C   0  0  0  0  0  3  0  0  0  0  0  0
  -26.0210  -26.8440   19.5260 C   0  0  0  0  0  3  0  0  0  0  0  0
  -24.8440  -27.6060   19.5410 C   0  0  0  0  0  3  0  0  0  0  0  0
  -23.6020  -29.7300   20.1890 C   0  0  0  0  0  2  0  0  0  0  0  0
  -24.6550  -31.0130   22.0970 N   0  0  0  0  0  0  0  0  0  0  0  0
  -23.5100  -32.1220   23.7100 O   0  0  0  0  0  0  0  0  0  0  0  0
  -22.7280  -29.4080   22.5300 C   0  0  0  0  0  0  0  0  0  0  0  0
  -21.4040  -29.2260   22.3960 N   0  0  0  0  0  0  0  0  0  0  0  0
  -23.4040  -28.7960   23.3620 O   0  0  0  0  0  0  0  0  0  0  0  0
  -20.9200  -29.7720   21.6990 H   0  0  0  0  0  0  0  0  0  0  0  0
  -18.0160  -28.0800   22.9300 C   0  0  0  0  0  0  0  0  0  0  0  0
  -20.5790  -28.3020   23.1770 C   0  0  0  0  0  3  0  0  0  0  0  0
  -20.6570  -26.8670   22.6060 C   0  0  0  0  0  2  0  0  0  0  0  0
  -19.5420  -26.5570   21.6040 C   0  0  0  0  0  2  0  0  0  0  0  0
  -18.1680  -26.7240   22.2600 C   0  0  0  0  0  2  0  0  0  0  0  0
  -19.1490  -28.8280   23.3470 C   0  0  0  0  0  0  0  0  0  0  0  0
  -18.9540  -30.0970   23.9330 C   0  0  0  0  0  3  0  0  0  0  0  0
  -17.6590  -30.6180   24.1070 C   0  0  0  0  0  3  0  0  0  0  0  0
  -16.5400  -29.8680   23.7070 C   0  0  0  0  0  3  0  0  0  0  0  0
  -16.7200  -28.6000   23.1250 C   0  0  0  0  0  3  0  0  0  0  0  0
  -25.8780  -32.4710   23.7960 C   0  0  0  0  0  3  0  0  0  0  0  0
  -25.5600  -33.8620   24.1450 N   0  0  0  0  0  0  0  0  0  0  0  0
  -25.8580  -34.9240   23.3850 C   0  0  0  0  0  0  0  0  0  0  0  0
  -26.5030  -34.8360   22.3360 O   0  0  0  0  0  0  0  0  0  0  0  0
  -24.9830  -34.0020   24.9620 H   0  0  0  0  0  0  0  0  0  0  0  0
  -24.0970  -36.6960   23.0830 C   0  0  0  0  0  1  0  0  0  0  0  0
  -25.3620  -36.3010   23.8640 C   0  0  0  0  0  3  0  0  0  0  0  0
  -27.4950  -37.2200   24.6620 C   0  0  0  0  0  1  0  0  0  0  0  0
  -26.3780  -37.3690   23.7330 N   0  0  0  0  0  0  0  0  0  0  0  0
  -25.9600  -38.2830   23.8820 H   0  0  0  0  0  0  0  0  0  0  0  0
  -26.4160  -31.6880   25.0570 C   0  0  1  0  0  0  0  0  0  0  0  0
  -25.3350  -31.4130   26.1270 C   0  0  0  0  0  1  0  0  0  0  0  0
  -27.0240  -30.3290   24.6390 C   0  0  0  0  0  1  0  0  0  0  0  0
  -27.5550  -32.4950   25.7240 C   0  0  0  0  0  1  0  0  0  0  0  0
  1  9  1  0
  1 13  1  0
  1  8  1  0
  3  2  1  0
  4  6  1  0
  4  8  1  0
  4  5  1  0
  5  7  1  1
  5  2  1  0
  8  3  1  0
 10  9  1  0
 11  9  1  0
 12 15  2  0
 13 12  1  0
 14 13  2  0
 14 17  1  0
 15 26  1  0
 16 14  1  0
 17 15  1  0
 18 24  1  0
 18 26  1  0
 19 24  1  0
 20 21  1  0
 20 19  1  0
 22 21  1  0
 22 31  1  0
 22 23  1  0
 24 23  1  0
 25 18  2  0
 26 27  1  0
 28 29  2  0
 29 48  1  0
 30 29  1  0
 30 33  1  0
 31 28  1  0
 31 32  1  0
 32 30  2  0
 33 34  1  0
 34 35  2  0
 36 39  1  0
 36 35  1  0
 37 36  2  0
 38 37  1  0
 38 33  2  0
 39 40  1  0
 40 41  1  0
 41 42  2  0
 43 42  1  0
 43 47  1  0
 44 43  2  0
 45 40  2  0
 45 44  1  0
 46 45  1  0
 48 49  1  0
 49 52  1  0
 49 51  1  0
 50 48  2  0
 53 54  1  0
 53 28  1  0
 55 53  1  0
 56  5  1  0
 56 57  1  0
 58 69  2  0
 59 57  1  0
 59 64  1  0
 60 68  1  0
 60 70  1  0
 61 67  1  0
 61 63  1  0
 62 68  1  0
 63 64  2  0
 63 62  1  0
 65 66  1  0
 65 59  2  0
 66 61  2  0
 67 60  1  0
 68 58  1  0
 70 72  2  0
 71 70  1  0
 73 71  1  0
 74 83  2  0
 74 79  1  0
 75 71  1  0
 75 79  1  0
 76 75  1  0
 77 78  1  0
 77 76  1  0
 78 74  1  0
 79 80  2  0
 80 81  1  0
 82 81  2  0
 83 82  1  0
 84 58  1  0
 84 85  1  0
 84 94  1  0
 85 88  1  0
 86 90  1  0
 86 85  1  0
 87 86  2  0
 90 89  1  0
 92 90  1  0
 92 93  1  0
 92 91  1  0
 94 97  1  1
 94 95  1  0
 96 94  1  0
M  ISO  4  18 100  26 100  56 101  57 101
M  END
>  <TORSDO>  (59) 
F 18

>  <SCORE>  (59) 
-14.844

>  <name>  (59) 
58

>  <ligand_id>  (59) 
58

>  <original_smiles>  (59) 
[H]c1c([H])c([H])c2c(c1[H])C([H])([H])C([H])([H])C([H])([H])C2([H])N([H])C(=O)C1([H])N(C(=O)C([H])(N([H])C(=O)C([H])(N([H])C([H])([H])[H])C([H])([H])[H])C(C([H])([H])[H])(C([H])([H])[H])C([H])([H])[H])C([H])([H])c2c([H])c(OC([H])([H])C3(C([H])([H])[H])C([H])([H])C([H])([H])N(C(c4c(C([H])([H])[H])sc(N([H])C(=O)N5C([H])([H])C([H])([H])C([H])([H])C([H])(n6nc(-c7c([H])c([H])c(Oc8c([H])c([H])c(F)c([H])c8F)c([H])c7[H])c(C(=O)N([H])[H])c6N([H])[H])C5([H])[H])c4[H])=[N+]([H])[H])C3([H])C([H])([H])[H])c([H])c([H])c2C1([H])[H]

>  <smiles>  (59) 
[H]c1c([H])c([H])c2c(c1[H])C([H])([H])C([H])([H])C([H])([H])C2([H])N([H])C(=O)C1([H])N(C(=O)C([H])(N([H])C(=O)C([H])(N([H])C([H])([H])[H])C([H])([H])[H])C(C([H])([H])[H])(C([H])([H])[H])C([H])([H])[H])C([H])([H])c2c([H])c(OC([H])([H])C3(C([H])([H])[H])C([H])([H])C([H])([H])N(C(c4c(C([H])([H])[H])sc(N([H])C(=O)N5C([H])([H])C([H])([H])C([H])([H])C([H])(n6nc(-c7c([H])c([H])c(Oc8c([H])c([H])c(F)c([H])c8F)c([H])c7[H])c(C(=O)N([H])[H])c6N([H])[H])C5([H])[H])c4[H])=[N+]([H])[H])C3([H])C([H])([H])[H])c([H])c([H])c2C1([H])[H]

$$$$
59:0:0
     RDKit          3D

 94103  0  0  1  0  0  0  0  0999 V2000
  -29.1490  -22.5490   20.4340 C   0  0  0  0  0  3  0  0  0  0  0  0
  -26.8800  -21.1560   20.5430 C   0  0  0  0  0  2  0  0  0  0  0  0
  -26.4920  -22.6100   20.5560 C   0  0  0  0  0  2  0  0  0  0  0  0
  -27.7680  -22.1790   19.8600 C   0  0  0  0  0  3  0  0  0  0  0  0
  -29.4980  -24.1390   20.1330 C   0  0  0  0  0  0  0  0  0  0  0  0
  -30.5070  -24.4340   19.4870 O   0  0  0  0  0  0  0  0  0  0  0  0
  -28.5590  -25.3440   20.6670 C   0  0  0  0  0  2  0  0  0  0  0  0
  -28.7790  -26.7740   20.1950 O   0  0  0  0  0  0  0  0  0  0  0  0
  -24.7600  -32.0030   23.3160 C   0  0  0  0  0  0  0  0  0  0  0  0
  -27.6610  -27.6470   20.1610 C   0  0  0  0  0  0  0  0  0  0  0  0
  -23.6790  -30.6460   21.5600 C   0  0  0  0  0  3  0  0  0  0  0  0
  -25.2470  -29.2140   20.1200 C   0  0  0  0  0  0  0  0  0  0  0  0
  -26.2130  -31.0570   21.4930 C   0  0  0  0  0  2  0  0  0  0  0  0
  -26.3770  -29.7110   20.7830 C   0  0  0  0  0  0  0  0  0  0  0  0
  -27.5900  -28.9410   20.7890 C   0  0  0  0  0  3  0  0  0  0  0  0
  -26.5050  -27.2250   19.4680 C   0  0  0  0  0  3  0  0  0  0  0  0
  -25.3160  -27.9810   19.4500 C   0  0  0  0  0  3  0  0  0  0  0  0
  -23.9750  -30.0450   20.1600 C   0  0  0  0  0  2  0  0  0  0  0  0
  -24.9000  -31.2550   22.1810 N   0  0  0  0  0  0  0  0  0  0  0  0
  -23.6480  -32.2110   23.8230 O   0  0  0  0  0  0  0  0  0  0  0  0
  -23.0170  -29.5620   22.4440 C   0  0  0  0  0  0  0  0  0  0  0  0
  -21.6990  -29.3580   22.2740 N   0  0  0  0  0  0  0  0  0  0  0  0
  -23.6930  -28.9080   23.2430 O   0  0  0  0  0  0  0  0  0  0  0  0
  -21.2160  -29.9170   21.5860 H   0  0  0  0  0  0  0  0  0  0  0  0
  -18.3350  -28.1060   22.7240 C   0  0  0  0  0  0  0  0  0  0  0  0
  -20.8940  -28.3550   22.9710 C   0  0  0  0  0  3  0  0  0  0  0  0
  -20.9950  -26.9850   22.2610 C   0  0  0  0  0  2  0  0  0  0  0  0
  -19.8740  -26.7420   21.2470 C   0  0  0  0  0  2  0  0  0  0  0  0
  -18.5060  -26.8210   21.9280 C   0  0  0  0  0  2  0  0  0  0  0  0
  -19.4550  -28.8360   23.2010 C   0  0  0  0  0  0  0  0  0  0  0  0
  -19.2370  -30.0460   23.8960 C   0  0  0  0  0  3  0  0  0  0  0  0
  -17.9310  -30.5230   24.1200 C   0  0  0  0  0  3  0  0  0  0  0  0
  -16.8270  -29.7830   23.6620 C   0  0  0  0  0  3  0  0  0  0  0  0
  -17.0290  -28.5760   22.9700 C   0  0  0  0  0  3  0  0  0  0  0  0
  -25.9890  -32.6570   24.0170 C   0  0  0  0  0  3  0  0  0  0  0  0
  -25.6320  -34.0450   24.3450 N   0  0  0  0  0  0  0  0  0  0  0  0
  -25.9650  -35.1130   23.6080 C   0  0  0  0  0  0  0  0  0  0  0  0
  -26.6690  -35.0310   22.5980 O   0  0  0  0  0  0  0  0  0  0  0  0
  -24.9980  -34.1780   25.1200 H   0  0  0  0  0  0  0  0  0  0  0  0
  -24.1910  -36.8550   23.2260 C   0  0  0  0  0  1  0  0  0  0  0  0
  -25.4300  -36.4860   24.0580 C   0  0  0  0  0  3  0  0  0  0  0  0
  -27.5190  -37.4380   24.9300 C   0  0  0  0  0  1  0  0  0  0  0  0
  -26.4340  -37.5690   23.9620 N   0  0  0  0  0  0  0  0  0  0  0  0
  -25.9990  -38.4780   24.0980 H   0  0  0  0  0  0  0  0  0  0  0  0
  -26.4420  -31.8820   25.3140 C   0  0  1  0  0  0  0  0  0  0  0  0
  -25.2920  -31.6010   26.3080 C   0  0  0  0  0  1  0  0  0  0  0  0
  -27.0810  -30.5240   24.9420 C   0  0  0  0  0  1  0  0  0  0  0  0
  -27.5300  -32.6950   26.0520 C   0  0  0  0  0  1  0  0  0  0  0  0
  -30.1790  -21.4620   20.1250 N   0  0  0  0  0  0  0  0  0  0  0  0
  -31.0930  -21.7290   20.4760 H   0  0  0  0  0  0  0  0  0  0  0  0
  -30.5850  -18.9270   20.7720 C   0  0  0  0  0  3  0  0  0  0  0  0
  -30.0630  -20.0080   19.8990 C   0  0  0  0  0  0  0  0  0  0  0  0
  -29.5540  -19.4400   18.7510 C   0  0  0  0  0  0  0  0  0  0  0  0
  -30.4660  -17.6030   20.2880 C   0  0  0  0  0  0  0  0  0  0  0  0
  -28.9360  -20.1060   17.5610 C   0  0  0  0  0  1  0  0  0  0  0  0
  -29.7110  -17.6900   18.7180 S   0  0  0  0  0  0  0  0  0  0  0  0
  -31.3020  -15.2240   20.3110 C   0  0  0  0  0  0  0  0  0  0  0  0
  -31.0740  -12.9200   19.3600 C   0  0  0  0  0  2  0  0  0  0  0  0
  -30.1640  -12.9940   18.1160 C   0  0  0  0  0  2  0  0  0  0  0  0
  -28.6900  -12.8200   18.5250 C   0  0  0  0  0  2  0  0  0  0  0  0
  -28.3030  -13.7490   19.7040 C   0  0  0  0  0  3  0  0  0  0  0  0
  -29.3350  -13.6870   20.8560 C   0  0  0  0  0  2  0  0  0  0  0  0
  -30.6620  -14.0000   20.2960 N   0  0  0  0  0  0  0  0  0  0  0  0
  -32.4340  -15.3360   19.8180 O   0  0  0  0  0  0  0  0  0  0  0  0
  -30.6670  -16.3290   20.8500 N   0  0  0  0  0  0  0  0  0  0  0  0
  -29.9150  -16.0530   21.4610 H   0  0  0  0  0  0  0  0  0  0  0  0
  -25.9260  -14.3960   20.4160 C   0  0  0  0  0  0  0  0  0  0  0  0
  -24.8320  -13.6460   20.7560 C   0  0  0  0  0  0  0  0  0  0  0  0
  -25.2500  -12.2820   20.6910 C   0  0  0  0  0  0  0  0  0  0  0  0
  -26.9420  -13.4880   20.1650 N   0  0  0  0  0  0  0  0  0  0  0  0
  -26.5410  -12.2090   20.3920 N   0  0  0  0  0  0  0  0  0  0  0  0
  -24.4840  -11.0350   20.8420 C   0  0  0  0  0  0  0  0  0  0  0  0
  -24.8300  -10.0710   21.8130 C   0  0  0  0  0  3  0  0  0  0  0  0
  -24.0690   -8.8900   21.9560 C   0  0  0  0  0  3  0  0  0  0  0  0
  -22.9480   -8.6680   21.1250 C   0  0  0  0  0  0  0  0  0  0  0  0
  -22.6150   -9.6220   20.1460 C   0  0  0  0  0  3  0  0  0  0  0  0
  -23.3770  -10.7950   20.0020 C   0  0  0  0  0  3  0  0  0  0  0  0
  -22.1610   -7.5430   21.1760 O   0  0  0  0  0  0  0  0  0  0  0  0
  -21.9460   -6.8610   22.3450 C   0  0  0  0  0  0  0  0  0  0  0  0
  -21.3420   -7.4730   23.4640 C   0  0  0  0  0  3  0  0  0  0  0  0
  -21.0840   -6.7190   24.6250 C   0  0  0  0  0  3  0  0  0  0  0  0
  -21.4180   -5.3530   24.6690 C   0  0  0  0  0  0  0  0  0  0  0  0
  -22.0160   -4.7400   23.5530 C   0  0  0  0  0  3  0  0  0  0  0  0
  -22.2770   -5.4900   22.3950 C   0  0  0  0  0  0  0  0  0  0  0  0
  -22.8350   -4.8900   21.3140 F   0  0  0  0  0  0  0  0  0  0  0  0
  -21.1620   -4.6250   25.7800 F   0  0  0  0  0  0  0  0  0  0  0  0
  -23.4490  -14.1610   21.0320 C   0  0  0  0  0  0  0  0  0  0  0  0
  -22.6930  -13.4600   21.8750 N   0  0  0  0  0  0  0  0  0  0  0  0
  -23.0410  -15.2100   20.5380 O   0  0  0  0  0  0  0  0  0  0  0  0
  -23.0270  -12.6020   22.2890 H   0  0  0  0  0  0  0  0  0  0  0  0
  -21.7660  -13.7860   22.1050 H   0  0  0  0  0  0  0  0  0  0  0  0
  -26.1490  -15.7650   20.2840 N   0  0  0  0  0  0  0  0  0  0  0  0
  -25.4340  -16.4660   20.4380 H   0  0  0  0  0  0  0  0  0  0  0  0
  -27.0400  -16.1660   20.0210 H   0  0  0  0  0  0  0  0  0  0  0  0
  1  5  1  0
  2  3  1  0
  4  1  1  0
  4  2  1  0
  4  3  1  0
  5  7  1  0
  6  5  2  0
  8  7  1  0
  9 20  2  0
 10  8  1  0
 10 15  1  0
 11 19  1  0
 11 21  1  0
 12 18  1  0
 12 14  1  0
 13 19  1  0
 14 15  2  0
 14 13  1  0
 16 10  2  0
 17 16  1  0
 17 12  2  0
 18 11  1  0
 19  9  1  0
 21 23  2  0
 22 21  1  0
 24 22  1  0
 25 34  2  0
 25 30  1  0
 26 22  1  0
 26 30  1  0
 27 26  1  0
 28 29  1  0
 28 27  1  0
 29 25  1  0
 30 31  2  0
 31 32  1  0
 33 32  2  0
 34 33  1  0
 35  9  1  0
 35 36  1  0
 35 45  1  0
 36 39  1  0
 37 41  1  0
 37 36  1  0
 38 37  2  0
 41 40  1  0
 43 41  1  0
 43 44  1  0
 43 42  1  0
 45 48  1  1
 45 46  1  0
 47 45  1  0
 49  1  1  0
 49 50  1  0
 52 49  1  0
 52 51  1  0
 53 52  2  0
 54 51  2  0
 54 65  1  0
 55 53  1  0
 56 53  1  0
 56 54  1  0
 57 65  1  0
 58 63  1  0
 59 60  1  0
 59 58  1  0
 61 60  1  0
 61 70  1  0
 61 62  1  0
 63 57  1  0
 63 62  1  0
 64 57  2  0
 65 66  1  0
 67 68  2  0
 68 87  1  0
 69 68  1  0
 69 72  1  0
 70 71  1  0
 70 67  1  0
 71 69  2  0
 72 73  1  0
 73 74  2  0
 75 78  1  0
 75 74  1  0
 76 75  2  0
 77 76  1  0
 77 72  2  0
 78 79  1  0
 79 84  2  0
 79 80  1  0
 80 81  2  0
 81 82  1  0
 82 86  1  0
 83 82  2  0
 84 83  1  0
 85 84  1  0
 87 88  1  0
 88 91  1  0
 88 90  1  0
 89 87  2  0
 92 67  1  0
 92 93  1  0
 94 92  1  0
M  ISO  4   7 101   8 101  57 100  65 100
M  END
>  <TORSDO>  (60) 
F 21

>  <SCORE>  (60) 
-11.494

>  <name>  (60) 
59

>  <ligand_id>  (60) 
59

>  <original_smiles>  (60) 
[H]c1c([H])c([H])c2c(c1[H])C([H])([H])C([H])([H])C([H])([H])C2([H])N([H])C(=O)C1([H])N(C(=O)C([H])(N([H])C(=O)C([H])(N([H])C([H])([H])[H])C([H])([H])[H])C(C([H])([H])[H])(C([H])([H])[H])C([H])([H])[H])C([H])([H])c2c([H])c(OC([H])([H])C(=O)C([H])(N([H])c3c(C([H])([H])[H])sc(N([H])C(=O)N4C([H])([H])C([H])([H])C([H])([H])C([H])(n5nc(-c6c([H])c([H])c(Oc7c([H])c([H])c(F)c([H])c7F)c([H])c6[H])c(C(=O)N([H])[H])c5N([H])[H])C4([H])[H])c3[H])C3([H])C([H])([H])C3([H])[H])c([H])c([H])c2C1([H])[H]

>  <smiles>  (60) 
[H]c1c([H])c([H])c2c(c1[H])C([H])([H])C([H])([H])C([H])([H])C2([H])N([H])C(=O)C1([H])N(C(=O)C([H])(N([H])C(=O)C([H])(N([H])C([H])([H])[H])C([H])([H])[H])C(C([H])([H])[H])(C([H])([H])[H])C([H])([H])[H])C([H])([H])c2c([H])c(OC([H])([H])C(=O)C([H])(N([H])c3c(C([H])([H])[H])sc(N([H])C(=O)N4C([H])([H])C([H])([H])C([H])([H])C([H])(n5nc(-c6c([H])c([H])c(Oc7c([H])c([H])c(F)c([H])c7F)c([H])c6[H])c(C(=O)N([H])[H])c5N([H])[H])C4([H])[H])c3[H])C3([H])C([H])([H])C3([H])[H])c([H])c([H])c2C1([H])[H]

$$$$
60:0:0
     RDKit          3D

 95104  0  0  1  0  0  0  0  0999 V2000
  -29.0640  -24.7980   21.4390 C   0  0  0  0  0  0  0  0  0  0  0  0
  -28.6770  -26.0870   21.2430 C   0  0  0  0  0  3  0  0  0  0  0  0
  -29.0420  -24.1890   22.8180 C   0  0  0  0  0  2  0  0  0  0  0  0
  -28.8980  -22.6920   22.5830 C   0  0  0  0  0  2  0  0  0  0  0  0
  -29.4180  -23.6900   20.4320 C   0  0  2  0  0  0  0  0  0  0  0  0
  -30.8360  -23.9930   19.8830 C   0  0  0  0  0  1  0  0  0  0  0  0
  -28.3430  -23.6850   19.3250 C   0  0  0  0  0  1  0  0  0  0  0  0
  -29.3910  -22.4320   21.2310 N   0  0  0  0  0  0  0  0  0  0  0  0
  -29.9750  -19.4010   19.0230 C   0  0  0  0  0  3  0  0  0  0  0  0
  -29.6000  -18.6190   21.2730 C   0  0  0  0  0  3  0  0  0  0  0  0
  -29.8240  -20.7420   19.4440 C   0  0  0  0  0  3  0  0  0  0  0  0
  -29.4150  -19.9690   21.6870 C   0  0  0  0  0  3  0  0  0  0  0  0
  -29.8930  -18.3090   19.9260 C   0  0  0  0  0  0  0  0  0  0  0  0
  -29.5360  -21.0730   20.7890 C   0  0  0  0  0  0  0  0  0  0  0  0
  -30.8220  -14.6590   19.9580 C   0  0  0  0  0  0  0  0  0  0  0  0
  -30.4480  -12.4640   18.9330 C   0  0  0  0  0  2  0  0  0  0  0  0
  -29.4540  -12.6720   17.7710 C   0  0  0  0  0  2  0  0  0  0  0  0
  -28.0070  -12.5290   18.2760 C   0  0  0  0  0  2  0  0  0  0  0  0
  -27.7370  -13.3610   19.5590 C   0  0  0  0  0  3  0  0  0  0  0  0
  -28.8580  -13.1900   20.6130 C   0  0  0  0  0  2  0  0  0  0  0  0
  -30.1400  -13.4780   19.9590 N   0  0  0  0  0  0  0  0  0  0  0  0
  -31.9800  -14.7140   19.5300 O   0  0  0  0  0  0  0  0  0  0  0  0
  -30.2560  -16.9110   19.4240 C   0  0  0  0  0  0  0  0  0  0  0  0
  -30.1160  -15.7990   20.1950 N   0  0  0  0  0  0  0  0  0  0  0  0
  -30.6720  -16.8400   18.2580 O   0  0  0  0  0  0  0  0  0  0  0  0
  -29.4510  -15.8100   20.9500 H   0  0  0  0  0  0  0  0  0  0  0  0
  -25.4000  -13.9330   20.4520 C   0  0  0  0  0  0  0  0  0  0  0  0
  -24.3590  -13.1450   20.8620 C   0  0  0  0  0  0  0  0  0  0  0  0
  -24.8130  -11.7950   20.7490 C   0  0  0  0  0  0  0  0  0  0  0  0
  -26.4230  -13.0620   20.1160 N   0  0  0  0  0  0  0  0  0  0  0  0
  -26.0800  -11.7690   20.3530 N   0  0  0  0  0  0  0  0  0  0  0  0
  -24.0980  -10.5260   20.9440 C   0  0  0  0  0  0  0  0  0  0  0  0
  -24.5460   -9.5540   21.8650 C   0  0  0  0  0  3  0  0  0  0  0  0
  -23.8310   -8.3510   22.0420 C   0  0  0  0  0  3  0  0  0  0  0  0
  -22.6520   -8.1100   21.2990 C   0  0  0  0  0  0  0  0  0  0  0  0
  -22.2230   -9.0690   20.3630 C   0  0  0  0  0  3  0  0  0  0  0  0
  -22.9380  -10.2650   20.1850 C   0  0  0  0  0  3  0  0  0  0  0  0
  -21.9060   -6.9620   21.3870 O   0  0  0  0  0  0  0  0  0  0  0  0
  -21.8070   -6.2580   22.5610 C   0  0  0  0  0  0  0  0  0  0  0  0
  -21.2970   -6.8450   23.7390 C   0  0  0  0  0  3  0  0  0  0  0  0
  -21.1410   -6.0640   24.9020 C   0  0  0  0  0  3  0  0  0  0  0  0
  -21.4940   -4.7010   24.8900 C   0  0  0  0  0  0  0  0  0  0  0  0
  -21.9980   -4.1160   23.7160 C   0  0  0  0  0  3  0  0  0  0  0  0
  -22.1520   -4.8920   22.5540 C   0  0  0  0  0  0  0  0  0  0  0  0
  -22.6180   -4.3160   21.4190 F   0  0  0  0  0  0  0  0  0  0  0  0
  -21.3390   -3.9510   26.0070 F   0  0  0  0  0  0  0  0  0  0  0  0
  -22.9870  -13.6140   21.2510 C   0  0  0  0  0  0  0  0  0  0  0  0
  -22.3230  -12.8840   22.1410 N   0  0  0  0  0  0  0  0  0  0  0  0
  -22.5150  -14.6570   20.8010 O   0  0  0  0  0  0  0  0  0  0  0  0
  -22.7160  -12.0330   22.5120 H   0  0  0  0  0  0  0  0  0  0  0  0
  -21.4080  -13.1780   22.4530 H   0  0  0  0  0  0  0  0  0  0  0  0
  -25.5590  -15.3090   20.3120 N   0  0  0  0  0  0  0  0  0  0  0  0
  -24.8100  -15.9650   20.5040 H   0  0  0  0  0  0  0  0  0  0  0  0
  -26.3880  -15.7510   19.9360 H   0  0  0  0  0  0  0  0  0  0  0  0
  -28.5190  -26.7640   20.0490 O   0  0  0  0  0  0  0  0  0  0  0  0
  -24.6100  -31.7980   23.2240 C   0  0  0  0  0  0  0  0  0  0  0  0
  -27.3800  -27.5400   20.0030 C   0  0  0  0  0  0  0  0  0  0  0  0
  -23.4350  -30.4010   21.5500 C   0  0  0  0  0  3  0  0  0  0  0  0
  -24.9320  -28.9600   20.0600 C   0  0  0  0  0  0  0  0  0  0  0  0
  -25.9440  -30.8560   21.3410 C   0  0  0  0  0  2  0  0  0  0  0  0
  -26.0760  -29.5130   20.6520 C   0  0  0  0  0  0  0  0  0  0  0  0
  -27.3060  -28.8140   20.6190 C   0  0  0  0  0  3  0  0  0  0  0  0
  -26.2240  -27.0020   19.4040 C   0  0  0  0  0  3  0  0  0  0  0  0
  -24.9980  -27.7020   19.4350 C   0  0  0  0  0  3  0  0  0  0  0  0
  -23.6550  -29.7690   20.1490 C   0  0  0  0  0  2  0  0  0  0  0  0
  -24.6810  -31.0310   22.0970 N   0  0  0  0  0  0  0  0  0  0  0  0
  -23.5260  -32.0210   23.7800 O   0  0  0  0  0  0  0  0  0  0  0  0
  -22.8250  -29.3340   22.4880 C   0  0  0  0  0  0  0  0  0  0  0  0
  -21.5160  -29.0760   22.3340 N   0  0  0  0  0  0  0  0  0  0  0  0
  -23.5280  -28.7430   23.3130 O   0  0  0  0  0  0  0  0  0  0  0  0
  -21.0070  -29.6060   21.6390 H   0  0  0  0  0  0  0  0  0  0  0  0
  -18.2250  -27.6380   22.7350 C   0  0  0  0  0  0  0  0  0  0  0  0
  -20.7440  -28.0860   23.0840 C   0  0  0  0  0  3  0  0  0  0  0  0
  -20.9700  -26.6640   22.5220 C   0  0  0  0  0  2  0  0  0  0  0  0
  -19.9280  -26.2530   21.4770 C   0  0  0  0  0  2  0  0  0  0  0  0
  -18.5190  -26.3040   22.0730 C   0  0  0  0  0  2  0  0  0  0  0  0
  -19.2690  -28.4830   23.1940 C   0  0  0  0  0  0  0  0  0  0  0  0
  -18.9370  -29.7300   23.7650 C   0  0  0  0  0  3  0  0  0  0  0  0
  -17.5930  -30.1330   23.8860 C   0  0  0  0  0  3  0  0  0  0  0  0
  -16.5640  -29.2860   23.4410 C   0  0  0  0  0  3  0  0  0  0  0  0
  -16.8810  -28.0400   22.8710 C   0  0  0  0  0  3  0  0  0  0  0  0
  -25.8810  -32.4540   23.8440 C   0  0  0  0  0  3  0  0  0  0  0  0
  -25.5410  -33.8440   24.1740 N   0  0  0  0  0  0  0  0  0  0  0  0
  -25.8540  -34.9040   23.4170 C   0  0  0  0  0  0  0  0  0  0  0  0
  -26.5300  -34.8180   22.3890 O   0  0  0  0  0  0  0  0  0  0  0  0
  -24.9420  -33.9870   24.9730 H   0  0  0  0  0  0  0  0  0  0  0  0
  -24.0910  -36.6630   23.0520 C   0  0  0  0  0  1  0  0  0  0  0  0
  -25.3300  -36.2790   23.8760 C   0  0  0  0  0  3  0  0  0  0  0  0
  -27.4350  -37.1980   24.7450 C   0  0  0  0  0  1  0  0  0  0  0  0
  -26.3430  -37.3530   23.7890 N   0  0  0  0  0  0  0  0  0  0  0  0
  -25.9140  -38.2600   23.9500 H   0  0  0  0  0  0  0  0  0  0  0  0
  -26.4250  -31.6910   25.1140 C   0  0  1  0  0  0  0  0  0  0  0  0
  -25.3420  -31.4050   26.1780 C   0  0  0  0  0  1  0  0  0  0  0  0
  -27.0580  -30.3390   24.7150 C   0  0  0  0  0  1  0  0  0  0  0  0
  -27.5550  -32.5190   25.7730 C   0  0  0  0  0  1  0  0  0  0  0  0
  1  3  1  0
  2  1  2  0
  4  3  1  0
  5  8  1  0
  5  1  1  0
  5  6  1  6
  7  5  1  0
  8  4  1  0
  9 11  2  0
  9 13  1  0
 10 12  1  0
 11 14  1  0
 13 10  2  0
 14  8  1  0
 14 12  2  0
 15 21  1  0
 15 24  1  0
 16 21  1  0
 17 18  1  0
 17 16  1  0
 19 18  1  0
 19 30  1  0
 19 20  1  0
 21 20  1  0
 22 15  2  0
 23 13  1  0
 23 24  1  0
 24 26  1  0
 25 23  2  0
 27 28  2  0
 28 47  1  0
 29 28  1  0
 29 32  1  0
 30 31  1  0
 30 27  1  0
 31 29  2  0
 32 33  1  0
 33 34  2  0
 35 38  1  0
 35 34  1  0
 36 35  2  0
 37 36  1  0
 37 32  2  0
 38 39  1  0
 39 40  1  0
 40 41  2  0
 42 41  1  0
 42 46  1  0
 43 42  2  0
 44 39  2  0
 44 43  1  0
 45 44  1  0
 47 48  1  0
 48 51  1  0
 48 50  1  0
 49 47  2  0
 52 27  1  0
 52 53  1  0
 54 52  1  0
 55  2  1  0
 56 67  2  0
 57 55  1  0
 57 62  1  0
 58 66  1  0
 58 68  1  0
 59 65  1  0
 59 61  1  0
 60 66  1  0
 61 60  1  0
 62 61  2  0
 63 64  1  0
 63 57  2  0
 64 59  2  0
 65 58  1  0
 66 56  1  0
 68 70  2  0
 69 68  1  0
 71 69  1  0
 72 81  2  0
 72 77  1  0
 73 69  1  0
 73 77  1  0
 74 73  1  0
 75 76  1  0
 75 74  1  0
 76 72  1  0
 77 78  2  0
 78 79  1  0
 80 79  2  0
 81 80  1  0
 82 56  1  0
 82 83  1  0
 82 92  1  0
 83 86  1  0
 84 88  1  0
 84 83  1  0
 85 84  2  0
 88 87  1  0
 90 88  1  0
 90 91  1  0
 90 89  1  0
 92 95  1  1
 92 93  1  0
 94 92  1  0
M  ISO  4   2 101  15 100  24 100  55 101
M  END
>  <TORSDO>  (61) 
F 17

>  <SCORE>  (61) 
-13.927

>  <name>  (61) 
60

>  <ligand_id>  (61) 
60

>  <original_smiles>  (61) 
[H]C(Oc1c([H])c([H])c2c(c1[H])C([H])([H])N(C(=O)C([H])(N([H])C(=O)C([H])(N([H])C([H])([H])[H])C([H])([H])[H])C(C([H])([H])[H])(C([H])([H])[H])C([H])([H])[H])C([H])(C(=O)N([H])C1([H])c3c([H])c([H])c([H])c([H])c3C([H])([H])C([H])([H])C1([H])[H])C2([H])[H])=C1C([H])([H])C([H])([H])N(c2c([H])c([H])c(C(=O)N([H])C(=O)N3C([H])([H])C([H])([H])C([H])([H])C([H])(n4nc(-c5c([H])c([H])c(Oc6c([H])c([H])c(F)c([H])c6F)c([H])c5[H])c(C(=O)N([H])[H])c4N([H])[H])C3([H])[H])c([H])c2[H])C1(C([H])([H])[H])C([H])([H])[H]

>  <smiles>  (61) 
[H]C(Oc1c([H])c([H])c2c(c1[H])C([H])([H])N(C(=O)C([H])(N([H])C(=O)C([H])(N([H])C([H])([H])[H])C([H])([H])[H])C(C([H])([H])[H])(C([H])([H])[H])C([H])([H])[H])C([H])(C(=O)N([H])C1([H])c3c([H])c([H])c([H])c([H])c3C([H])([H])C([H])([H])C1([H])[H])C2([H])[H])=C1C([H])([H])C([H])([H])N(c2c([H])c([H])c(C(=O)N([H])C(=O)N3C([H])([H])C([H])([H])C([H])([H])C([H])(n4nc(-c5c([H])c([H])c(Oc6c([H])c([H])c(F)c([H])c6F)c([H])c5[H])c(C(=O)N([H])[H])c4N([H])[H])C3([H])[H])c([H])c2[H])C1(C([H])([H])[H])C([H])([H])[H]

$$$$
61:0:0
     RDKit          3D

 94103  0  0  1  0  0  0  0  0999 V2000
  -28.7880  -20.4490   21.6960 C   0  0  0  0  0  3  0  0  0  0  0  0
  -28.3890  -21.8120   21.5480 C   0  0  0  0  0  3  0  0  0  0  0  0
  -30.1390  -20.2650   21.5730 C   0  0  0  0  0  0  0  0  0  0  0  0
  -29.4350  -22.6750   21.3100 C   0  0  0  0  0  0  0  0  0  0  0  0
  -30.9340  -21.7800   21.2330 S   0  0  0  0  0  0  0  0  0  0  0  0
  -30.7930  -18.2980   23.0670 C   0  0  0  0  0  2  0  0  0  0  0  0
  -31.3170  -16.8740   22.8340 C   0  0  0  0  0  2  0  0  0  0  0  0
  -30.6320  -17.8890   20.7040 C   0  0  0  0  0  2  0  0  0  0  0  0
  -30.9320  -18.9980   21.7160 C   0  0  0  0  0  3  0  0  0  0  0  0
  -31.3060  -16.6410   21.3090 C   0  0  0  0  0  3  0  0  0  0  0  0
  -31.0510  -14.5100   20.0350 C   0  0  0  0  0  0  0  0  0  0  0  0
  -30.6230  -12.3510   18.9190 C   0  0  0  0  0  2  0  0  0  0  0  0
  -29.6410  -12.5150   17.7450 C   0  0  0  0  0  2  0  0  0  0  0  0
  -28.1850  -12.4220   18.2350 C   0  0  0  0  0  2  0  0  0  0  0  0
  -27.9080  -13.3350   19.4580 C   0  0  0  0  0  3  0  0  0  0  0  0
  -28.9920  -13.1400   20.5420 C   0  0  0  0  0  2  0  0  0  0  0  0
  -30.3120  -13.3760   19.9270 N   0  0  0  0  0  0  0  0  0  0  0  0
  -32.0610  -14.7250   19.3570 O   0  0  0  0  0  0  0  0  0  0  0  0
  -30.6280  -15.3920   20.9530 N   0  0  0  0  0  0  0  0  0  0  0  0
  -29.7990  -15.1420   21.4710 H   0  0  0  0  0  0  0  0  0  0  0  0
  -25.5700  -14.0410   20.2750 C   0  0  0  0  0  0  0  0  0  0  0  0
  -24.4870  -13.3120   20.6850 C   0  0  0  0  0  0  0  0  0  0  0  0
  -24.8850  -11.9410   20.6190 C   0  0  0  0  0  0  0  0  0  0  0  0
  -26.5650  -13.1180   19.9910 N   0  0  0  0  0  0  0  0  0  0  0  0
  -26.1560  -11.8490   20.2520 N   0  0  0  0  0  0  0  0  0  0  0  0
  -24.1140  -10.7090   20.8300 C   0  0  0  0  0  0  0  0  0  0  0  0
  -24.4960   -9.7550   21.7980 C   0  0  0  0  0  3  0  0  0  0  0  0
  -23.7280   -8.5870   21.9930 C   0  0  0  0  0  3  0  0  0  0  0  0
  -22.5630   -8.3660   21.2210 C   0  0  0  0  0  0  0  0  0  0  0  0
  -22.2000   -9.3080   20.2430 C   0  0  0  0  0  3  0  0  0  0  0  0
  -22.9690  -10.4670   20.0450 C   0  0  0  0  0  3  0  0  0  0  0  0
  -21.7690   -7.2490   21.3240 O   0  0  0  0  0  0  0  0  0  0  0  0
  -21.6070   -6.5900   22.5160 C   0  0  0  0  0  0  0  0  0  0  0  0
  -21.0900   -7.2350   23.6600 C   0  0  0  0  0  3  0  0  0  0  0  0
  -20.8740   -6.5020   24.8450 C   0  0  0  0  0  3  0  0  0  0  0  0
  -21.1640   -5.1250   24.8850 C   0  0  0  0  0  0  0  0  0  0  0  0
  -21.6740   -4.4800   23.7440 C   0  0  0  0  0  3  0  0  0  0  0  0
  -21.8920   -5.2090   22.5620 C   0  0  0  0  0  0  0  0  0  0  0  0
  -22.3630   -4.5780   21.4600 F   0  0  0  0  0  0  0  0  0  0  0  0
  -20.9500   -4.4190   26.0190 F   0  0  0  0  0  0  0  0  0  0  0  0
  -23.1260  -13.8460   21.0290 C   0  0  0  0  0  0  0  0  0  0  0  0
  -22.4140  -13.1780   21.9290 N   0  0  0  0  0  0  0  0  0  0  0  0
  -22.7060  -14.8900   20.5340 O   0  0  0  0  0  0  0  0  0  0  0  0
  -22.7680  -12.3310   22.3520 H   0  0  0  0  0  0  0  0  0  0  0  0
  -21.5040  -13.5180   22.2040 H   0  0  0  0  0  0  0  0  0  0  0  0
  -25.7880  -15.4050   20.1050 N   0  0  0  0  0  0  0  0  0  0  0  0
  -25.0600  -16.0950   20.2540 H   0  0  0  0  0  0  0  0  0  0  0  0
  -26.6510  -15.8080   19.7610 H   0  0  0  0  0  0  0  0  0  0  0  0
  -28.4560  -24.9110   21.3070 C   0  0  0  0  0  0  0  0  0  0  0  0
  -29.4510  -24.0230   21.1330 N   0  0  0  0  0  0  0  0  0  0  0  0
  -27.3070  -24.6010   21.6370 O   0  0  0  0  0  0  0  0  0  0  0  0
  -30.3460  -24.4250   20.8850 H   0  0  0  0  0  0  0  0  0  0  0  0
  -28.8080  -26.3900   21.0700 C   0  0  0  0  0  2  0  0  0  0  0  0
  -28.2350  -26.8320   19.8370 O   0  0  0  0  0  0  0  0  0  0  0  0
  -24.5490  -31.9450   23.1800 C   0  0  0  0  0  0  0  0  0  0  0  0
  -27.0810  -27.5650   19.9490 C   0  0  0  0  0  0  0  0  0  0  0  0
  -23.2810  -30.5600   21.5660 C   0  0  0  0  0  3  0  0  0  0  0  0
  -24.6810  -29.0420   20.0700 C   0  0  0  0  0  0  0  0  0  0  0  0
  -25.7920  -30.9320   21.2770 C   0  0  0  0  0  2  0  0  0  0  0  0
  -25.8560  -29.5670   20.6260 C   0  0  0  0  0  0  0  0  0  0  0  0
  -27.0590  -28.8320   20.5720 C   0  0  0  0  0  3  0  0  0  0  0  0
  -25.8990  -27.0520   19.3830 C   0  0  0  0  0  3  0  0  0  0  0  0
  -24.6950  -27.7790   19.4500 C   0  0  0  0  0  3  0  0  0  0  0  0
  -23.4380  -29.8950   20.1720 C   0  0  0  0  0  2  0  0  0  0  0  0
  -24.5610  -31.1600   22.0660 N   0  0  0  0  0  0  0  0  0  0  0  0
  -23.4910  -32.2100   23.7650 O   0  0  0  0  0  0  0  0  0  0  0  0
  -22.6690  -29.5270   22.5400 C   0  0  0  0  0  0  0  0  0  0  0  0
  -21.3470  -29.3180   22.4340 N   0  0  0  0  0  0  0  0  0  0  0  0
  -23.3780  -28.9180   23.3430 O   0  0  0  0  0  0  0  0  0  0  0  0
  -20.8340  -29.8630   21.7550 H   0  0  0  0  0  0  0  0  0  0  0  0
  -18.0140  -28.0220   22.9480 C   0  0  0  0  0  0  0  0  0  0  0  0
  -20.5620  -28.3650   23.2170 C   0  0  0  0  0  3  0  0  0  0  0  0
  -20.7110  -26.9300   22.6610 C   0  0  0  0  0  2  0  0  0  0  0  0
  -19.6210  -26.5580   21.6510 C   0  0  0  0  0  2  0  0  0  0  0  0
  -18.2350  -26.6690   22.2920 C   0  0  0  0  0  2  0  0  0  0  0  0
  -19.1080  -28.8250   23.3680 C   0  0  0  0  0  0  0  0  0  0  0  0
  -18.8500  -30.0900   23.9380 C   0  0  0  0  0  3  0  0  0  0  0  0
  -17.5310  -30.5540   24.0950 C   0  0  0  0  0  3  0  0  0  0  0  0
  -16.4520  -29.7480   23.6930 C   0  0  0  0  0  3  0  0  0  0  0  0
  -16.6940  -28.4850   23.1260 C   0  0  0  0  0  3  0  0  0  0  0  0
  -25.8600  -32.5670   23.7560 C   0  0  0  0  0  3  0  0  0  0  0  0
  -26.4330  -31.7750   24.9950 C   0  0  1  0  0  0  0  0  0  0  0  0
  -25.3870  -31.5100   26.1020 C   0  0  0  0  0  1  0  0  0  0  0  0
  -27.0070  -30.4090   24.5490 C   0  0  0  0  0  1  0  0  0  0  0  0
  -27.6040  -32.5630   25.6250 C   0  0  0  0  0  1  0  0  0  0  0  0
  -25.5660  -33.9590   24.1200 N   0  0  0  0  0  0  0  0  0  0  0  0
  -25.8850  -35.0240   23.3710 C   0  0  0  0  0  0  0  0  0  0  0  0
  -26.5320  -34.9370   22.3230 O   0  0  0  0  0  0  0  0  0  0  0  0
  -24.9910  -34.1020   24.9380 H   0  0  0  0  0  0  0  0  0  0  0  0
  -24.1650  -36.8330   23.0710 C   0  0  0  0  0  1  0  0  0  0  0  0
  -25.4110  -36.4050   23.8620 C   0  0  0  0  0  3  0  0  0  0  0  0
  -27.5610  -37.2550   24.6910 C   0  0  0  0  0  1  0  0  0  0  0  0
  -26.4510  -37.4530   23.7620 N   0  0  0  0  0  0  0  0  0  0  0  0
  -26.0520  -38.3710   23.9360 H   0  0  0  0  0  0  0  0  0  0  0  0
  2  1  1  0
  3  1  2  0
  4  2  2  0
  5  4  1  0
  5  3  1  0
  7  6  1  0
  8 10  1  0
  8  9  1  0
  9  3  1  0
  9  6  1  0
 10 19  1  0
 10  7  1  0
 11 19  1  0
 12 17  1  0
 13 14  1  0
 13 12  1  0
 15 14  1  0
 15 24  1  0
 15 16  1  0
 17 11  1  0
 17 16  1  0
 18 11  2  0
 19 20  1  0
 21 22  2  0
 22 41  1  0
 23 22  1  0
 23 26  1  0
 24 25  1  0
 24 21  1  0
 25 23  2  0
 26 27  1  0
 27 28  2  0
 29 32  1  0
 29 28  1  0
 30 29  2  0
 31 30  1  0
 31 26  2  0
 32 33  1  0
 33 38  2  0
 33 34  1  0
 34 35  2  0
 35 36  1  0
 36 40  1  0
 37 36  2  0
 38 37  1  0
 39 38  1  0
 41 42  1  0
 42 45  1  0
 42 44  1  0
 43 41  2  0
 46 47  1  0
 46 21  1  0
 48 46  1  0
 49 51  2  0
 50 49  1  0
 50  4  1  0
 52 50  1  0
 53 49  1  0
 54 56  1  0
 54 53  1  0
 55 66  2  0
 56 61  1  0
 57 65  1  0
 57 67  1  0
 58 64  1  0
 58 60  1  0
 59 65  1  0
 60 59  1  0
 61 60  2  0
 62 63  1  0
 62 56  2  0
 63 58  2  0
 64 57  1  0
 65 55  1  0
 67 69  2  0
 68 67  1  0
 70 68  1  0
 71 80  2  0
 71 76  1  0
 72 68  1  0
 72 76  1  0
 73 72  1  0
 74 75  1  0
 74 73  1  0
 75 71  1  0
 76 77  2  0
 77 78  1  0
 79 78  2  0
 80 79  1  0
 81 55  1  0
 81 86  1  0
 81 82  1  0
 82 85  1  1
 82 83  1  0
 84 82  1  0
 86 89  1  0
 87 91  1  0
 87 86  1  0
 88 87  2  0
 91 90  1  0
 93 91  1  0
 93 94  1  0
 93 92  1  0
M  ISO  4  11 100  19 100  53 101  54 101
M  END
>  <TORSDO>  (62) 
F 19

>  <SCORE>  (62) 
-12.524

>  <name>  (62) 
61

>  <ligand_id>  (62) 
61

>  <original_smiles>  (62) 
[H]c1c(N([H])C(=O)C([H])([H])Oc2c([H])c([H])c3c(c2[H])C([H])([H])N(C(=O)C([H])(N([H])C(=O)C([H])(N([H])C([H])([H])[H])C([H])([H])[H])C(C([H])([H])[H])(C([H])([H])[H])C([H])([H])[H])C([H])(C(=O)N([H])C2([H])c4c([H])c([H])c([H])c([H])c4C([H])([H])C([H])([H])C2([H])[H])C3([H])[H])sc(C2([H])C([H])([H])C([H])([H])C([H])(N([H])C(=O)N3C([H])([H])C([H])([H])C([H])([H])C([H])(n4nc(-c5c([H])c([H])c(Oc6c([H])c([H])c(F)c([H])c6F)c([H])c5[H])c(C(=O)N([H])[H])c4N([H])[H])C3([H])[H])C2([H])[H])c1[H]

>  <smiles>  (62) 
[H]c1c(N([H])C(=O)C([H])([H])Oc2c([H])c([H])c3c(c2[H])C([H])([H])N(C(=O)C([H])(N([H])C(=O)C([H])(N([H])C([H])([H])[H])C([H])([H])[H])C(C([H])([H])[H])(C([H])([H])[H])C([H])([H])[H])C([H])(C(=O)N([H])C2([H])c4c([H])c([H])c([H])c([H])c4C([H])([H])C([H])([H])C2([H])[H])C3([H])[H])sc(C2([H])C([H])([H])C([H])([H])C([H])(N([H])C(=O)N3C([H])([H])C([H])([H])C([H])([H])C([H])(n4nc(-c5c([H])c([H])c(Oc6c([H])c([H])c(F)c([H])c6F)c([H])c5[H])c(C(=O)N([H])[H])c4N([H])[H])C3([H])[H])C2([H])[H])c1[H]

$$$$
62:0:0
     RDKit          3D

 92101  0  0  1  0  0  0  0  0999 V2000
  -30.9500  -20.0920   17.8980 C   0  0  0  0  0  3  0  0  0  0  0  0
  -31.0390  -18.7690   18.4010 C   0  0  0  0  0  3  0  0  0  0  0  0
  -30.2400  -21.1480   18.5570 C   0  0  0  0  0  3  0  0  0  0  0  0
  -30.3350  -18.5420   19.5820 C   0  0  0  0  0  0  0  0  0  0  0  0
  -29.5840  -19.6170   20.2470 C   0  0  0  0  0  0  0  0  0  0  0  0
  -29.5310  -21.0180   19.7940 C   0  0  0  0  0  0  0  0  0  0  0  0
  -29.2080  -18.5770   21.3320 C   0  0  0  0  0  2  0  0  0  0  0  0
  -30.2270  -17.4590   20.6790 C   0  0  0  0  0  3  0  0  0  0  0  0
  -30.5610  -14.8320   20.2390 C   0  0  0  0  0  0  0  0  0  0  0  0
  -30.3660  -12.5480   19.2080 C   0  0  0  0  0  2  0  0  0  0  0  0
  -29.4060  -12.5990   17.9990 C   0  0  0  0  0  2  0  0  0  0  0  0
  -27.9470  -12.4090   18.4550 C   0  0  0  0  0  2  0  0  0  0  0  0
  -27.5850  -13.2900   19.6800 C   0  0  0  0  0  3  0  0  0  0  0  0
  -28.6630  -13.2160   20.7810 C   0  0  0  0  0  2  0  0  0  0  0  0
  -29.9360  -13.6020   20.1600 N   0  0  0  0  0  0  0  0  0  0  0  0
  -31.7570  -14.9100   19.9430 O   0  0  0  0  0  0  0  0  0  0  0  0
  -29.7980  -15.9860   20.4600 N   0  0  0  0  0  0  0  0  0  0  0  0
  -28.8140  -15.8130   20.5980 H   0  0  0  0  0  0  0  0  0  0  0  0
  -25.2120  -13.8730   20.4520 C   0  0  0  0  0  0  0  0  0  0  0  0
  -24.1530  -13.0970   20.8370 C   0  0  0  0  0  0  0  0  0  0  0  0
  -24.6170  -11.7470   20.7950 C   0  0  0  0  0  0  0  0  0  0  0  0
  -26.2510  -12.9950   20.1920 N   0  0  0  0  0  0  0  0  0  0  0  0
  -25.9030  -11.7110   20.4640 N   0  0  0  0  0  0  0  0  0  0  0  0
  -23.8940  -10.4840   20.9900 C   0  0  0  0  0  0  0  0  0  0  0  0
  -24.3290   -9.5190   21.9260 C   0  0  0  0  0  3  0  0  0  0  0  0
  -23.6060   -8.3210   22.1100 C   0  0  0  0  0  3  0  0  0  0  0  0
  -22.4320   -8.0780   21.3570 C   0  0  0  0  0  0  0  0  0  0  0  0
  -22.0150   -9.0290   20.4100 C   0  0  0  0  0  3  0  0  0  0  0  0
  -22.7390  -10.2200   20.2250 C   0  0  0  0  0  3  0  0  0  0  0  0
  -21.6830   -6.9300   21.4490 O   0  0  0  0  0  0  0  0  0  0  0  0
  -21.6240   -6.2000   22.6080 C   0  0  0  0  0  0  0  0  0  0  0  0
  -21.1560   -6.7570   23.8180 C   0  0  0  0  0  3  0  0  0  0  0  0
  -21.0450   -5.9520   24.9690 C   0  0  0  0  0  3  0  0  0  0  0  0
  -21.3930   -4.5890   24.9110 C   0  0  0  0  0  0  0  0  0  0  0  0
  -21.8540   -4.0310   23.7060 C   0  0  0  0  0  3  0  0  0  0  0  0
  -21.9670   -4.8340   22.5580 C   0  0  0  0  0  0  0  0  0  0  0  0
  -22.3910   -4.2850   21.3950 F   0  0  0  0  0  0  0  0  0  0  0  0
  -21.2810   -3.8130   26.0140 F   0  0  0  0  0  0  0  0  0  0  0  0
  -22.7590  -13.5740   21.1270 C   0  0  0  0  0  0  0  0  0  0  0  0
  -22.0380  -12.8730   21.9960 N   0  0  0  0  0  0  0  0  0  0  0  0
  -22.3160  -14.6030   20.6200 O   0  0  0  0  0  0  0  0  0  0  0  0
  -22.4080  -12.0440   22.4350 H   0  0  0  0  0  0  0  0  0  0  0  0
  -21.1020  -13.1770   22.2300 H   0  0  0  0  0  0  0  0  0  0  0  0
  -25.3710  -15.2440   20.2740 N   0  0  0  0  0  0  0  0  0  0  0  0
  -24.5940  -15.8880   20.3770 H   0  0  0  0  0  0  0  0  0  0  0  0
  -26.1900  -15.6760   19.8670 H   0  0  0  0  0  0  0  0  0  0  0  0
  -29.0690  -23.6260   20.1140 C   0  0  0  0  0  0  0  0  0  0  0  0
  -28.8600  -22.2470   20.3670 N   0  0  0  0  0  0  0  0  0  0  0  0
  -30.0730  -24.0010   19.5050 O   0  0  0  0  0  0  0  0  0  0  0  0
  -28.0950  -22.0580   21.0020 H   0  0  0  0  0  0  0  0  0  0  0  0
  -28.0760  -24.8080   20.6250 C   0  0  0  0  0  2  0  0  0  0  0  0
  -28.3660  -26.2760   20.2810 O   0  0  0  0  0  0  0  0  0  0  0  0
  -24.6310  -31.8520   23.2220 C   0  0  0  0  0  0  0  0  0  0  0  0
  -27.2890  -27.2120   20.2280 C   0  0  0  0  0  0  0  0  0  0  0  0
  -23.4610  -30.4460   21.5660 C   0  0  0  0  0  3  0  0  0  0  0  0
  -24.9410  -28.8930   20.1620 C   0  0  0  0  0  0  0  0  0  0  0  0
  -26.0110  -30.7490   21.4330 C   0  0  0  0  0  2  0  0  0  0  0  0
  -26.1040  -29.3620   20.7860 C   0  0  0  0  0  0  0  0  0  0  0  0
  -27.2820  -28.5360   20.8040 C   0  0  0  0  0  3  0  0  0  0  0  0
  -26.1070  -26.8350   19.5550 C   0  0  0  0  0  3  0  0  0  0  0  0
  -24.9520  -27.6420   19.5290 C   0  0  0  0  0  3  0  0  0  0  0  0
  -23.7040  -29.7720   20.1900 C   0  0  0  0  0  2  0  0  0  0  0  0
  -24.7190  -31.0370   22.1280 N   0  0  0  0  0  0  0  0  0  0  0  0
  -23.5370  -32.1280   23.7360 O   0  0  0  0  0  0  0  0  0  0  0  0
  -22.7830  -29.4310   22.5190 C   0  0  0  0  0  0  0  0  0  0  0  0
  -21.4560  -29.2620   22.3880 N   0  0  0  0  0  0  0  0  0  0  0  0
  -23.4540  -28.7990   23.3400 O   0  0  0  0  0  0  0  0  0  0  0  0
  -20.9740  -29.8240   21.7000 H   0  0  0  0  0  0  0  0  0  0  0  0
  -18.0670  -28.0890   22.8920 C   0  0  0  0  0  0  0  0  0  0  0  0
  -20.6300  -28.3230   23.1500 C   0  0  0  0  0  3  0  0  0  0  0  0
  -20.7150  -26.8970   22.5570 C   0  0  0  0  0  2  0  0  0  0  0  0
  -19.6050  -26.5970   21.5450 C   0  0  0  0  0  2  0  0  0  0  0  0
  -18.2280  -26.7450   22.1990 C   0  0  0  0  0  2  0  0  0  0  0  0
  -19.1950  -28.8360   23.3250 C   0  0  0  0  0  0  0  0  0  0  0  0
  -18.9900  -30.0910   23.9350 C   0  0  0  0  0  3  0  0  0  0  0  0
  -17.6890  -30.6020   24.1150 C   0  0  0  0  0  3  0  0  0  0  0  0
  -16.5760  -29.8520   23.6970 C   0  0  0  0  0  3  0  0  0  0  0  0
  -16.7660  -28.5970   23.0910 C   0  0  0  0  0  3  0  0  0  0  0  0
  -25.8980  -32.4960   23.8630 C   0  0  0  0  0  3  0  0  0  0  0  0
  -25.5710  -33.8910   24.1930 N   0  0  0  0  0  0  0  0  0  0  0  0
  -25.8890  -34.9500   23.4340 C   0  0  0  0  0  0  0  0  0  0  0  0
  -26.5560  -34.8550   22.4010 O   0  0  0  0  0  0  0  0  0  0  0  0
  -24.9750  -34.0370   24.9930 H   0  0  0  0  0  0  0  0  0  0  0  0
  -24.1400  -36.7260   23.0920 C   0  0  0  0  0  1  0  0  0  0  0  0
  -25.3890  -36.3330   23.8960 C   0  0  0  0  0  3  0  0  0  0  0  0
  -27.5170  -37.2430   24.7170 C   0  0  0  0  0  1  0  0  0  0  0  0
  -26.4080  -37.3980   23.7800 N   0  0  0  0  0  0  0  0  0  0  0  0
  -25.9910  -38.3130   23.9330 H   0  0  0  0  0  0  0  0  0  0  0  0
  -26.4010  -31.7290   25.1470 C   0  0  1  0  0  0  0  0  0  0  0  0
  -25.2940  -31.4850   26.2010 C   0  0  0  0  0  1  0  0  0  0  0  0
  -26.9980  -30.3530   24.7710 C   0  0  0  0  0  1  0  0  0  0  0  0
  -27.5360  -32.5320   25.8240 C   0  0  0  0  0  1  0  0  0  0  0  0
  1  2  2  0
  1  3  1  0
  2  4  1  0
  3  6  2  0
  4  5  2  0
  4  8  1  0
  5  7  1  0
  6  5  1  0
  6 48  1  0
  8 17  1  0
  8  7  1  0
  9 17  1  0
 10 15  1  0
 11 12  1  0
 11 10  1  0
 13 12  1  0
 13 22  1  0
 13 14  1  0
 15  9  1  0
 15 14  1  0
 16  9  2  0
 17 18  1  0
 19 20  2  0
 20 39  1  0
 21 20  1  0
 21 24  1  0
 22 19  1  0
 22 23  1  0
 23 21  2  0
 24 25  1  0
 25 26  2  0
 27 30  1  0
 27 26  1  0
 28 27  2  0
 29 28  1  0
 29 24  2  0
 30 31  1  0
 31 32  1  0
 32 33  2  0
 34 33  1  0
 34 38  1  0
 35 34  2  0
 36 31  2  0
 36 35  1  0
 37 36  1  0
 39 40  1  0
 40 43  1  0
 40 42  1  0
 41 39  2  0
 44 45  1  0
 44 19  1  0
 46 44  1  0
 47 48  1  0
 47 51  1  0
 48 50  1  0
 49 47  2  0
 52 51  1  0
 53 64  2  0
 54 52  1  0
 54 59  1  0
 55 63  1  0
 55 65  1  0
 56 62  1  0
 56 58  1  0
 57 63  1  0
 58 59  2  0
 58 57  1  0
 60 54  2  0
 61 60  1  0
 61 56  2  0
 62 55  1  0
 63 53  1  0
 65 67  2  0
 66 65  1  0
 68 66  1  0
 69 78  2  0
 69 74  1  0
 70 66  1  0
 70 74  1  0
 71 70  1  0
 72 73  1  0
 72 71  1  0
 73 69  1  0
 74 75  2  0
 75 76  1  0
 77 76  2  0
 78 77  1  0
 79 53  1  0
 79 80  1  0
 79 89  1  0
 80 83  1  0
 81 85  1  0
 81 80  1  0
 82 81  2  0
 85 84  1  0
 87 85  1  0
 87 88  1  0
 87 86  1  0
 89 92  1  1
 89 90  1  0
 91 89  1  0
M  ISO  4   9 100  17 100  51 101  52 101
M  END
>  <TORSDO>  (63) 
F 18

>  <SCORE>  (63) 
-14.201

>  <name>  (63) 
62

>  <ligand_id>  (63) 
62

>  <original_smiles>  (63) 
[H]c1c([H])c([H])c2c(c1[H])C([H])([H])C([H])([H])C([H])([H])C2([H])N([H])C(=O)C1([H])N(C(=O)C([H])(N([H])C(=O)C([H])(N([H])C([H])([H])[H])C([H])([H])[H])C(C([H])([H])[H])(C([H])([H])[H])C([H])([H])[H])C([H])([H])c2c([H])c(OC([H])([H])C(=O)N([H])c3c([H])c([H])c([H])c4c3C([H])([H])C4([H])N([H])C(=O)N3C([H])([H])C([H])([H])C([H])([H])C([H])(n4nc(-c5c([H])c([H])c(Oc6c([H])c([H])c(F)c([H])c6F)c([H])c5[H])c(C(=O)N([H])[H])c4N([H])[H])C3([H])[H])c([H])c([H])c2C1([H])[H]

>  <smiles>  (63) 
[H]c1c([H])c([H])c2c(c1[H])C([H])([H])C([H])([H])C([H])([H])C2([H])N([H])C(=O)C1([H])N(C(=O)C([H])(N([H])C(=O)C([H])(N([H])C([H])([H])[H])C([H])([H])[H])C(C([H])([H])[H])(C([H])([H])[H])C([H])([H])[H])C([H])([H])c2c([H])c(OC([H])([H])C(=O)N([H])c3c([H])c([H])c([H])c4c3C([H])([H])C4([H])N([H])C(=O)N3C([H])([H])C([H])([H])C([H])([H])C([H])(n4nc(-c5c([H])c([H])c(Oc6c([H])c([H])c(F)c([H])c6F)c([H])c5[H])c(C(=O)N([H])[H])c4N([H])[H])C3([H])[H])c([H])c([H])c2C1([H])[H]

$$$$
63:0:0
     RDKit          3D

 99107  0  0  1  0  0  0  0  0999 V2000
  -30.8300  -17.0460   22.0620 C   0  0  0  0  0  3  0  0  0  0  0  0
  -30.5380  -19.4800   22.1820 C   0  0  0  0  0  3  0  0  0  0  0  0
  -30.7140  -18.3760   20.0240 C   0  0  0  0  0  3  0  0  0  0  0  0
  -30.6580  -18.2220   22.8240 C   0  0  0  0  0  0  0  0  0  0  0  0
  -30.8640  -17.0680   20.6550 C   0  0  0  0  0  0  0  0  0  0  0  0
  -30.5520  -19.6180   20.7750 C   0  0  0  0  0  0  0  0  0  0  0  0
  -31.5170  -14.5770   20.0840 C   0  0  0  0  0  0  0  0  0  0  0  0
  -31.1270  -12.3140   19.0840 C   0  0  0  0  0  2  0  0  0  0  0  0
  -30.1860  -12.4560   17.8660 C   0  0  0  0  0  2  0  0  0  0  0  0
  -28.7060  -12.4410   18.3030 C   0  0  0  0  0  2  0  0  0  0  0  0
  -28.4260  -13.3790   19.5090 C   0  0  0  0  0  3  0  0  0  0  0  0
  -29.4750  -13.1910   20.6240 C   0  0  0  0  0  2  0  0  0  0  0  0
  -30.7940  -13.4110   20.0150 N   0  0  0  0  0  0  0  0  0  0  0  0
  -32.7300  -14.5790   19.8580 O   0  0  0  0  0  0  0  0  0  0  0  0
  -30.7710  -15.7430   20.0060 N   0  0  0  0  0  0  0  0  0  0  0  0
  -29.8130  -15.4940   19.8140 H   0  0  0  0  0  0  0  0  0  0  0  0
  -26.1100  -14.2290   20.2200 C   0  0  0  0  0  0  0  0  0  0  0  0
  -24.9740  -13.5750   20.6090 C   0  0  0  0  0  0  0  0  0  0  0  0
  -25.3010  -12.1840   20.6130 C   0  0  0  0  0  0  0  0  0  0  0  0
  -27.0610  -13.2430   20.0060 N   0  0  0  0  0  0  0  0  0  0  0  0
  -26.5800  -12.0100   20.3060 N   0  0  0  0  0  0  0  0  0  0  0  0
  -24.4530  -11.0050   20.8360 C   0  0  0  0  0  0  0  0  0  0  0  0
  -24.7720  -10.0410   21.8180 C   0  0  0  0  0  3  0  0  0  0  0  0
  -23.9330   -8.9260   22.0240 C   0  0  0  0  0  3  0  0  0  0  0  0
  -22.7580   -8.7670   21.2510 C   0  0  0  0  0  0  0  0  0  0  0  0
  -22.4570   -9.7180   20.2600 C   0  0  0  0  0  3  0  0  0  0  0  0
  -23.2970  -10.8240   20.0510 C   0  0  0  0  0  3  0  0  0  0  0  0
  -21.8970   -7.7030   21.3660 O   0  0  0  0  0  0  0  0  0  0  0  0
  -21.7590   -7.0140   22.5450 C   0  0  0  0  0  0  0  0  0  0  0  0
  -21.3240   -7.6450   23.7320 C   0  0  0  0  0  3  0  0  0  0  0  0
  -21.1280   -6.8840   24.9010 C   0  0  0  0  0  3  0  0  0  0  0  0
  -21.3560   -5.4960   24.8860 C   0  0  0  0  0  0  0  0  0  0  0  0
  -21.7840   -4.8660   23.7040 C   0  0  0  0  0  3  0  0  0  0  0  0
  -21.9820   -5.6220   22.5370 C   0  0  0  0  0  0  0  0  0  0  0  0
  -22.3730   -5.0070   21.3950 F   0  0  0  0  0  0  0  0  0  0  0  0
  -21.1610   -4.7640   26.0070 F   0  0  0  0  0  0  0  0  0  0  0  0
  -23.6310  -14.1950   20.8630 C   0  0  0  0  0  0  0  0  0  0  0  0
  -22.8500  -13.6160   21.7690 N   0  0  0  0  0  0  0  0  0  0  0  0
  -23.2860  -15.2280   20.2900 O   0  0  0  0  0  0  0  0  0  0  0  0
  -23.1420  -12.7790   22.2530 H   0  0  0  0  0  0  0  0  0  0  0  0
  -21.9480  -14.0140   21.9840 H   0  0  0  0  0  0  0  0  0  0  0  0
  -26.4070  -15.5730   20.0090 N   0  0  0  0  0  0  0  0  0  0  0  0
  -25.6950  -16.2900   20.0890 H   0  0  0  0  0  0  0  0  0  0  0  0
  -27.2710  -15.9210   19.6160 H   0  0  0  0  0  0  0  0  0  0  0  0
  -31.4520  -19.0740   25.1300 C   0  0  0  0  0  1  0  0  0  0  0  0
  -30.5540  -18.0970   24.3470 C   0  0  0  0  0  3  0  0  0  0  0  0
  -29.1480  -18.2110   24.7620 N   0  0  0  0  0  4  0  0  0  0  0  0
  -28.7740  -19.1140   24.5330 H   0  0  0  0  0  0  0  0  0  0  0  0
  -29.0650  -18.0690   25.7520 H   0  0  0  0  0  0  0  0  0  0  0  0
  -28.5940  -17.5130   24.2990 H   0  0  0  0  0  0  0  0  0  0  0  0
  -30.4970  -20.9630   20.2210 N   0  0  0  0  0  0  0  0  0  0  0  0
  -31.1210  -21.1040   19.4310 H   0  0  0  0  0  0  0  0  0  0  0  0
  -28.3410  -21.7010   21.3350 C   0  0  0  0  0  1  0  0  0  0  0  0
  -28.5790  -21.6260   18.8590 C   0  0  0  0  0  1  0  0  0  0  0  0
  -29.3230  -21.9470   20.1700 C   0  0  2  0  0  0  0  0  0  0  0  0
  -29.6570  -23.5400   20.1650 C   0  0  0  0  0  0  0  0  0  0  0  0
  -30.7860  -23.9200   20.4900 O   0  0  0  0  0  0  0  0  0  0  0  0
  -28.5380  -24.6210   19.7520 C   0  0  0  0  0  2  0  0  0  0  0  0
  -28.7510  -26.1060   19.9450 O   0  0  0  0  0  0  0  0  0  0  0  0
  -24.6500  -31.3300   22.9160 C   0  0  0  0  0  0  0  0  0  0  0  0
  -27.6040  -26.9390   19.8640 C   0  0  0  0  0  0  0  0  0  0  0  0
  -23.5640  -29.8530   21.2660 C   0  0  0  0  0  3  0  0  0  0  0  0
  -25.1350  -28.4200   19.8380 C   0  0  0  0  0  0  0  0  0  0  0  0
  -26.0820  -30.3430   21.1050 C   0  0  0  0  0  2  0  0  0  0  0  0
  -26.2660  -28.9750   20.4490 C   0  0  0  0  0  0  0  0  0  0  0  0
  -27.5040  -28.2480   20.4510 C   0  0  0  0  0  3  0  0  0  0  0  0
  -26.4420  -26.4610   19.2140 C   0  0  0  0  0  3  0  0  0  0  0  0
  -25.2280  -27.1720   19.2090 C   0  0  0  0  0  3  0  0  0  0  0  0
  -23.8370  -29.2050   19.8840 C   0  0  0  0  0  2  0  0  0  0  0  0
  -24.7830  -30.5270   21.8180 N   0  0  0  0  0  0  0  0  0  0  0  0
  -23.5450  -31.5240   23.4440 O   0  0  0  0  0  0  0  0  0  0  0  0
  -22.9690  -28.7850   22.2180 C   0  0  0  0  0  0  0  0  0  0  0  0
  -21.6660  -28.4950   22.0690 N   0  0  0  0  0  0  0  0  0  0  0  0
  -23.6830  -28.2180   23.0500 O   0  0  0  0  0  0  0  0  0  0  0  0
  -21.1450  -29.0110   21.3720 H   0  0  0  0  0  0  0  0  0  0  0  0
  -18.3920  -27.0170   22.5160 C   0  0  0  0  0  0  0  0  0  0  0  0
  -20.9140  -27.4920   22.8270 C   0  0  0  0  0  3  0  0  0  0  0  0
  -21.1460  -26.0720   22.2580 C   0  0  0  0  0  2  0  0  0  0  0  0
  -20.0930  -25.6560   21.2240 C   0  0  0  0  0  2  0  0  0  0  0  0
  -18.6930  -25.6870   21.8460 C   0  0  0  0  0  2  0  0  0  0  0  0
  -19.4350  -27.8720   22.9610 C   0  0  0  0  0  0  0  0  0  0  0  0
  -19.0990  -29.1120   23.5440 C   0  0  0  0  0  3  0  0  0  0  0  0
  -17.7550  -29.5020   23.6860 C   0  0  0  0  0  3  0  0  0  0  0  0
  -16.7260  -28.6450   23.2580 C   0  0  0  0  0  3  0  0  0  0  0  0
  -17.0450  -27.4050   22.6780 C   0  0  0  0  0  3  0  0  0  0  0  0
  -25.8770  -32.0540   23.5480 C   0  0  0  0  0  3  0  0  0  0  0  0
  -25.4400  -33.3990   23.9480 N   0  0  0  0  0  0  0  0  0  0  0  0
  -25.6810  -34.5180   23.2510 C   0  0  0  0  0  0  0  0  0  0  0  0
  -26.3640  -34.5300   22.2230 O   0  0  0  0  0  0  0  0  0  0  0  0
  -24.8320  -33.4560   24.7520 H   0  0  0  0  0  0  0  0  0  0  0  0
  -23.8130  -36.1770   22.9620 C   0  0  0  0  0  1  0  0  0  0  0  0
  -25.0710  -35.8320   23.7760 C   0  0  0  0  0  3  0  0  0  0  0  0
  -27.1060  -36.8410   24.7070 C   0  0  0  0  0  1  0  0  0  0  0  0
  -26.0120  -36.9730   23.7490 N   0  0  0  0  0  0  0  0  0  0  0  0
  -25.5270  -37.8460   23.9370 H   0  0  0  0  0  0  0  0  0  0  0  0
  -26.4850  -31.2800   24.7820 C   0  0  1  0  0  0  0  0  0  0  0  0
  -25.4320  -30.8610   25.8340 C   0  0  0  0  0  1  0  0  0  0  0  0
  -27.2220  -30.0020   24.3190 C   0  0  0  0  0  1  0  0  0  0  0  0
  -27.5390  -32.1650   25.4870 C   0  0  0  0  0  1  0  0  0  0  0  0
  1  4  1  0
  2  4  2  0
  3  5  1  0
  3  6  2  0
  4 46  1  0
  5  1  2  0
  6  2  1  0
  8 13  1  0
  9 10  1  0
  9  8  1  0
 11 10  1  0
 11 20  1  0
 11 12  1  0
 13  7  1  0
 13 12  1  0
 14  7  2  0
 15  7  1  0
 15  5  1  0
 16 15  1  0
 17 18  2  0
 18 19  1  0
 18 37  1  0
 19 22  1  0
 20 17  1  0
 20 21  1  0
 21 19  2  0
 22 23  1  0
 23 24  2  0
 25 28  1  0
 25 24  1  0
 26 25  2  0
 27 26  1  0
 27 22  2  0
 28 29  1  0
 29 30  1  0
 30 31  2  0
 32 31  1  0
 32 36  1  0
 33 32  2  0
 34 29  2  0
 34 33  1  0
 35 34  1  0
 37 38  1  0
 38 41  1  0
 38 40  1  0
 39 37  2  0
 42 43  1  0
 42 17  1  0
 44 42  1  0
 46 47  1  0
 46 45  1  0
 47 49  1  0
 48 47  1  0
 50 47  1  0
 51  6  1  0
 52 51  1  0
 55 54  1  6
 55 51  1  0
 55 53  1  0
 56 55  1  0
 56 57  2  0
 58 59  1  0
 58 56  1  0
 60 71  2  0
 61 59  1  0
 61 66  1  0
 62 70  1  0
 62 72  1  0
 63 69  1  0
 63 65  1  0
 64 70  1  0
 65 66  2  0
 65 64  1  0
 67 61  2  0
 68 67  1  0
 68 63  2  0
 69 62  1  0
 70 60  1  0
 72 74  2  0
 73 72  1  0
 75 73  1  0
 76 85  2  0
 76 81  1  0
 77 73  1  0
 77 81  1  0
 78 77  1  0
 79 80  1  0
 79 78  1  0
 80 76  1  0
 81 82  2  0
 82 83  1  0
 84 83  2  0
 85 84  1  0
 86 60  1  0
 86 87  1  0
 86 96  1  0
 87 90  1  0
 88 92  1  0
 88 87  1  0
 89 88  2  0
 92 91  1  0
 94 92  1  0
 94 95  1  0
 94 93  1  0
 96 99  1  1
 96 97  1  0
 98 96  1  0
M  ISO  4   7 100  15 100  58 101  59 101
M  END
>  <TORSDO>  (64) 
F 22

>  <SCORE>  (64) 
-5.359

>  <name>  (64) 
63

>  <ligand_id>  (64) 
63

>  <original_smiles>  (64) 
[H]c1c([H])c([H])c2c(c1[H])C([H])([H])C([H])([H])C([H])([H])C2([H])N([H])C(=O)C1([H])N(C(=O)C([H])(N([H])C(=O)C([H])(N([H])C([H])([H])[H])C([H])([H])[H])C(C([H])([H])[H])(C([H])([H])[H])C([H])([H])[H])C([H])([H])c2c([H])c(OC([H])([H])C(=O)C(N([H])c3c([H])c(N([H])C(=O)N4C([H])([H])C([H])([H])C([H])([H])C([H])(n5nc(-c6c([H])c([H])c(Oc7c([H])c([H])c(F)c([H])c7F)c([H])c6[H])c(C(=O)N([H])[H])c5N([H])[H])C4([H])[H])c([H])c(C([H])(C([H])([H])[H])[N+]([H])([H])[H])c3[H])(C([H])([H])[H])C([H])([H])[H])c([H])c([H])c2C1([H])[H]

>  <smiles>  (64) 
[H]c1c([H])c([H])c2c(c1[H])C([H])([H])C([H])([H])C([H])([H])C2([H])N([H])C(=O)C1([H])N(C(=O)C([H])(N([H])C(=O)C([H])(N([H])C([H])([H])[H])C([H])([H])[H])C(C([H])([H])[H])(C([H])([H])[H])C([H])([H])[H])C([H])([H])c2c([H])c(OC([H])([H])C(=O)C(N([H])c3c([H])c(N([H])C(=O)N4C([H])([H])C([H])([H])C([H])([H])C([H])(n5nc(-c6c([H])c([H])c(Oc7c([H])c([H])c(F)c([H])c7F)c([H])c6[H])c(C(=O)N([H])[H])c5N([H])[H])C4([H])[H])c([H])c(C([H])(C([H])([H])[H])[N+]([H])([H])[H])c3[H])(C([H])([H])[H])C([H])([H])[H])c([H])c([H])c2C1([H])[H]

$$$$
64:0:0
     RDKit          3D

 93101  0  0  1  0  0  0  0  0999 V2000
  -29.1490  -20.9320   20.8400 N   0  0  0  0  0  0  0  0  0  0  0  0
  -28.6640  -20.9760   21.7340 H   0  0  0  0  0  0  0  0  0  0  0  0
  -30.2860  -19.3030   19.2520 C   0  0  0  0  0  3  0  0  0  0  0  0
  -30.4920  -17.8740   19.2520 C   0  0  0  0  0  0  0  0  0  0  0  0
  -29.5640  -19.6060   20.3800 C   0  0  0  0  0  0  0  0  0  0  0  0
  -29.9180  -17.3100   20.3670 C   0  0  0  0  0  0  0  0  0  0  0  0
  -29.3190  -18.3890   21.0750 O   0  0  0  0  0  0  0  0  0  0  0  0
  -30.5500  -14.8030   20.3490 C   0  0  0  0  0  0  0  0  0  0  0  0
  -30.3680  -12.5020   19.3730 C   0  0  0  0  0  2  0  0  0  0  0  0
  -29.4280  -12.5520   18.1460 C   0  0  0  0  0  2  0  0  0  0  0  0
  -27.9620  -12.3640   18.5830 C   0  0  0  0  0  2  0  0  0  0  0  0
  -27.5840  -13.2660   19.7870 C   0  0  0  0  0  3  0  0  0  0  0  0
  -28.6440  -13.1960   20.9100 C   0  0  0  0  0  2  0  0  0  0  0  0
  -29.9390  -13.5640   20.3200 N   0  0  0  0  0  0  0  0  0  0  0  0
  -31.7240  -14.8960   19.9750 O   0  0  0  0  0  0  0  0  0  0  0  0
  -29.7870  -15.9310   20.6670 N   0  0  0  0  0  0  0  0  0  0  0  0
  -28.9160  -15.6990   21.1110 H   0  0  0  0  0  0  0  0  0  0  0  0
  -25.1980  -13.8560   20.5260 C   0  0  0  0  0  0  0  0  0  0  0  0
  -24.1330  -13.0820   20.8990 C   0  0  0  0  0  0  0  0  0  0  0  0
  -24.5940  -11.7300   20.8660 C   0  0  0  0  0  0  0  0  0  0  0  0
  -26.2410  -12.9770   20.2800 N   0  0  0  0  0  0  0  0  0  0  0  0
  -25.8840  -11.6920   20.5500 N   0  0  0  0  0  0  0  0  0  0  0  0
  -23.8670  -10.4670   21.0600 C   0  0  0  0  0  0  0  0  0  0  0  0
  -24.3120   -9.4940   21.9800 C   0  0  0  0  0  3  0  0  0  0  0  0
  -23.5860   -8.2970   22.1630 C   0  0  0  0  0  3  0  0  0  0  0  0
  -22.4010   -8.0660   21.4250 C   0  0  0  0  0  0  0  0  0  0  0  0
  -21.9740   -9.0290   20.4930 C   0  0  0  0  0  3  0  0  0  0  0  0
  -22.7000  -10.2170   20.3080 C   0  0  0  0  0  3  0  0  0  0  0  0
  -21.6470   -6.9230   21.5180 O   0  0  0  0  0  0  0  0  0  0  0  0
  -21.6250   -6.1630   22.6600 C   0  0  0  0  0  0  0  0  0  0  0  0
  -21.2410   -6.7050   23.9060 C   0  0  0  0  0  3  0  0  0  0  0  0
  -21.1660   -5.8740   25.0410 C   0  0  0  0  0  3  0  0  0  0  0  0
  -21.4660   -4.5030   24.9330 C   0  0  0  0  0  0  0  0  0  0  0  0
  -21.8430   -3.9610   23.6910 C   0  0  0  0  0  3  0  0  0  0  0  0
  -21.9190   -4.7890   22.5570 C   0  0  0  0  0  0  0  0  0  0  0  0
  -22.2640   -4.2580   21.3590 F   0  0  0  0  0  0  0  0  0  0  0  0
  -21.3870   -3.7020   26.0210 F   0  0  0  0  0  0  0  0  0  0  0  0
  -22.7370  -13.5620   21.1730 C   0  0  0  0  0  0  0  0  0  0  0  0
  -22.0080  -12.8680   22.0420 N   0  0  0  0  0  0  0  0  0  0  0  0
  -22.2990  -14.5850   20.6520 O   0  0  0  0  0  0  0  0  0  0  0  0
  -22.3740  -12.0380   22.4840 H   0  0  0  0  0  0  0  0  0  0  0  0
  -21.0720  -13.1720   22.2680 H   0  0  0  0  0  0  0  0  0  0  0  0
  -25.3650  -15.2260   20.3480 N   0  0  0  0  0  0  0  0  0  0  0  0
  -24.6020  -15.8810   20.4810 H   0  0  0  0  0  0  0  0  0  0  0  0
  -26.2050  -15.6610   19.9910 H   0  0  0  0  0  0  0  0  0  0  0  0
  -31.1430  -17.1810   18.2340 N   0  0  0  0  0  0  0  0  0  0  0  0
  -31.5170  -16.2710   18.5030 H   0  0  0  0  0  0  0  0  0  0  0  0
  -31.7830  -17.7070   17.6480 H   0  0  0  0  0  0  0  0  0  0  0  0
  -28.8940  -22.1640   19.9640 C   0  0  0  0  0  2  0  0  0  0  0  0
  -28.8580  -23.6700   20.5720 C   0  0  0  0  0  0  0  0  0  0  0  0
  -29.3980  -23.8780   21.6630 O   0  0  0  0  0  0  0  0  0  0  0  0
  -28.1220  -24.8850   19.8000 C   0  0  0  0  0  2  0  0  0  0  0  0
  -28.2740  -26.3240   20.2750 O   0  0  0  0  0  0  0  0  0  0  0  0
  -24.6060  -31.8830   23.2340 C   0  0  0  0  0  0  0  0  0  0  0  0
  -27.1890  -27.2440   20.1830 C   0  0  0  0  0  0  0  0  0  0  0  0
  -23.3980  -30.4900   21.5980 C   0  0  0  0  0  3  0  0  0  0  0  0
  -24.8420  -28.9280   20.1680 C   0  0  0  0  0  0  0  0  0  0  0  0
  -25.9450  -30.7730   21.4230 C   0  0  0  0  0  2  0  0  0  0  0  0
  -26.0160  -29.3880   20.7770 C   0  0  0  0  0  0  0  0  0  0  0  0
  -27.1880  -28.5580   20.7800 C   0  0  0  0  0  3  0  0  0  0  0  0
  -25.9940  -26.8730   19.5240 C   0  0  0  0  0  3  0  0  0  0  0  0
  -24.8390  -27.6800   19.5310 C   0  0  0  0  0  3  0  0  0  0  0  0
  -23.6100  -29.8140   20.2180 C   0  0  0  0  0  2  0  0  0  0  0  0
  -24.6680  -31.0690   22.1400 N   0  0  0  0  0  0  0  0  0  0  0  0
  -23.5220  -32.1690   23.7670 O   0  0  0  0  0  0  0  0  0  0  0  0
  -22.7260  -29.4790   22.5590 C   0  0  0  0  0  0  0  0  0  0  0  0
  -21.3970  -29.3110   22.4360 N   0  0  0  0  0  0  0  0  0  0  0  0
  -23.4010  -28.8500   23.3770 O   0  0  0  0  0  0  0  0  0  0  0  0
  -20.9120  -29.8710   21.7490 H   0  0  0  0  0  0  0  0  0  0  0  0
  -18.0150  -28.1230   22.9360 C   0  0  0  0  0  0  0  0  0  0  0  0
  -20.5740  -28.3780   23.2080 C   0  0  0  0  0  3  0  0  0  0  0  0
  -20.6740  -26.9440   22.6390 C   0  0  0  0  0  2  0  0  0  0  0  0
  -19.5730  -26.6200   21.6250 C   0  0  0  0  0  2  0  0  0  0  0  0
  -18.1900  -26.7710   22.2650 C   0  0  0  0  0  2  0  0  0  0  0  0
  -19.1350  -28.8840   23.3650 C   0  0  0  0  0  0  0  0  0  0  0  0
  -18.9170  -30.1490   23.9520 C   0  0  0  0  0  3  0  0  0  0  0  0
  -17.6130  -30.6530   24.1150 C   0  0  0  0  0  3  0  0  0  0  0  0
  -16.5080  -29.8900   23.7020 C   0  0  0  0  0  3  0  0  0  0  0  0
  -16.7110  -28.6260   23.1180 C   0  0  0  0  0  3  0  0  0  0  0  0
  -25.8880  -32.5140   23.8570 C   0  0  0  0  0  3  0  0  0  0  0  0
  -25.5810  -33.9130   24.1900 N   0  0  0  0  0  0  0  0  0  0  0  0
  -25.9100  -34.9680   23.4310 C   0  0  0  0  0  0  0  0  0  0  0  0
  -26.5740  -34.8640   22.3960 O   0  0  0  0  0  0  0  0  0  0  0  0
  -24.9890  -34.0670   24.9920 H   0  0  0  0  0  0  0  0  0  0  0  0
  -24.1820  -36.7660   23.0960 C   0  0  0  0  0  1  0  0  0  0  0  0
  -25.4300  -36.3570   23.8940 C   0  0  0  0  0  3  0  0  0  0  0  0
  -27.5750  -37.2400   24.7010 C   0  0  0  0  0  1  0  0  0  0  0  0
  -26.4630  -37.4080   23.7690 N   0  0  0  0  0  0  0  0  0  0  0  0
  -26.0600  -38.3300   23.9190 H   0  0  0  0  0  0  0  0  0  0  0  0
  -26.4000  -31.7420   25.1350 C   0  0  1  0  0  0  0  0  0  0  0  0
  -25.3060  -31.5150   26.2030 C   0  0  0  0  0  1  0  0  0  0  0  0
  -26.9770  -30.3600   24.7500 C   0  0  0  0  0  1  0  0  0  0  0  0
  -27.5540  -32.5320   25.7960 C   0  0  0  0  0  1  0  0  0  0  0  0
  1  2  1  0
  3  4  1  0
  3  5  2  0
  4  6  2  0
  5  1  1  0
  5  7  1  0
  6 16  1  0
  6  7  1  0
  8 16  1  0
  9 14  1  0
 10 11  1  0
 10  9  1  0
 12 11  1  0
 12 21  1  0
 12 13  1  0
 14  8  1  0
 14 13  1  0
 15  8  2  0
 16 17  1  0
 18 19  2  0
 19 38  1  0
 20 19  1  0
 20 23  1  0
 21 18  1  0
 21 22  1  0
 22 20  2  0
 23 24  1  0
 24 25  2  0
 26 29  1  0
 26 25  1  0
 27 26  2  0
 28 27  1  0
 28 23  2  0
 29 30  1  0
 30 31  1  0
 31 32  2  0
 33 32  1  0
 33 37  1  0
 34 33  2  0
 35 30  2  0
 35 34  1  0
 36 35  1  0
 38 39  1  0
 39 42  1  0
 39 41  1  0
 40 38  2  0
 43 44  1  0
 43 18  1  0
 45 43  1  0
 46 47  1  0
 46  4  1  0
 48 46  1  0
 49 50  1  0
 49  1  1  0
 50 51  2  0
 52 53  1  0
 52 50  1  0
 54 65  2  0
 55 53  1  0
 55 60  1  0
 56 64  1  0
 56 66  1  0
 57 63  1  0
 57 59  1  0
 58 64  1  0
 59 60  2  0
 59 58  1  0
 61 62  1  0
 61 55  2  0
 62 57  2  0
 63 56  1  0
 64 54  1  0
 66 68  2  0
 67 66  1  0
 69 67  1  0
 70 79  2  0
 70 75  1  0
 71 67  1  0
 71 75  1  0
 72 71  1  0
 73 74  1  0
 73 72  1  0
 74 70  1  0
 75 76  2  0
 76 77  1  0
 78 77  2  0
 79 78  1  0
 80 54  1  0
 80 81  1  0
 80 90  1  0
 81 84  1  0
 82 86  1  0
 82 81  1  0
 83 82  2  0
 86 85  1  0
 88 86  1  0
 88 89  1  0
 88 87  1  0
 90 93  1  1
 90 91  1  0
 92 90  1  0
M  ISO  4   8 100  16 100  52 101  53 101
M  END
>  <TORSDO>  (65) 
F 21

>  <SCORE>  (65) 
-13.750

>  <name>  (65) 
64

>  <ligand_id>  (65) 
64

>  <original_smiles>  (65) 
[H]c1c([H])c([H])c2c(c1[H])C([H])([H])C([H])([H])C([H])([H])C2([H])N([H])C(=O)C1([H])N(C(=O)C([H])(N([H])C(=O)C([H])(N([H])C([H])([H])[H])C([H])([H])[H])C(C([H])([H])[H])(C([H])([H])[H])C([H])([H])[H])C([H])([H])c2c([H])c(OC([H])([H])C(=O)C([H])([H])N([H])c3oc(N([H])C(=O)N4C([H])([H])C([H])([H])C([H])([H])C([H])(n5nc(-c6c([H])c([H])c(Oc7c([H])c([H])c(F)c([H])c7F)c([H])c6[H])c(C(=O)N([H])[H])c5N([H])[H])C4([H])[H])c(N([H])[H])c3[H])c([H])c([H])c2C1([H])[H]

>  <smiles>  (65) 
[H]c1c([H])c([H])c2c(c1[H])C([H])([H])C([H])([H])C([H])([H])C2([H])N([H])C(=O)C1([H])N(C(=O)C([H])(N([H])C(=O)C([H])(N([H])C([H])([H])[H])C([H])([H])[H])C(C([H])([H])[H])(C([H])([H])[H])C([H])([H])[H])C([H])([H])c2c([H])c(OC([H])([H])C(=O)C([H])([H])N([H])c3oc(N([H])C(=O)N4C([H])([H])C([H])([H])C([H])([H])C([H])(n5nc(-c6c([H])c([H])c(Oc7c([H])c([H])c(F)c([H])c7F)c([H])c6[H])c(C(=O)N([H])[H])c5N([H])[H])C4([H])[H])c(N([H])[H])c3[H])c([H])c([H])c2C1([H])[H]

$$$$
65:0:0
     RDKit          3D

 97105  0  0  1  0  0  0  0  0999 V2000
  -29.8560  -20.7780   21.4580 C   0  0  0  0  0  3  0  0  0  0  0  0
  -30.2430  -19.3780   21.4550 C   0  0  0  0  0  0  0  0  0  0  0  0
  -30.0040  -18.6630   20.2970 C   0  0  0  0  0  0  0  0  0  0  0  0
  -29.2540  -21.2230   20.2960 C   0  0  0  0  0  0  0  0  0  0  0  0
  -29.1850  -19.8070   19.2030 S   0  0  0  0  0  0  0  0  0  0  0  0
  -30.9040  -18.7870   22.6150 C   0  0  0  0  0  0  0  0  0  0  0  0
  -31.8240  -19.4790   23.2890 N   0  0  0  0  0  0  0  0  0  0  0  0
  -30.5760  -17.5550   23.0110 N   0  0  0  0  0  4  0  0  0  0  0  0
  -32.0890  -20.3970   22.9660 H   0  0  0  0  0  0  0  0  0  0  0  0
  -32.3110  -19.1180   24.0930 H   0  0  0  0  0  0  0  0  0  0  0  0
  -29.8110  -17.0890   22.5510 H   0  0  0  0  0  0  0  0  0  0  0  0
  -30.9760  -17.1120   23.8220 H   0  0  0  0  0  0  0  0  0  0  0  0
  -28.8840  -23.7510   20.4330 C   0  0  0  0  0  0  0  0  0  0  0  0
  -28.7080  -22.4650   19.9540 N   0  0  0  0  0  0  0  0  0  0  0  0
  -29.7730  -24.0300   21.2420 O   0  0  0  0  0  0  0  0  0  0  0  0
  -28.0260  -22.4200   19.2080 H   0  0  0  0  0  0  0  0  0  0  0  0
  -27.8810  -24.8870   19.9360 C   0  0  0  0  0  2  0  0  0  0  0  0
  -28.1690  -26.3390   20.2010 O   0  0  0  0  0  0  0  0  0  0  0  0
  -24.6230  -31.9110   23.1980 C   0  0  0  0  0  0  0  0  0  0  0  0
  -27.0920  -27.2560   20.1270 C   0  0  0  0  0  0  0  0  0  0  0  0
  -23.3620  -30.5040   21.6120 C   0  0  0  0  0  3  0  0  0  0  0  0
  -24.7560  -28.9320   20.1550 C   0  0  0  0  0  0  0  0  0  0  0  0
  -25.9030  -30.7840   21.3590 C   0  0  0  0  0  2  0  0  0  0  0  0
  -25.9480  -29.3960   20.7260 C   0  0  0  0  0  0  0  0  0  0  0  0
  -27.1160  -28.5680   20.7090 C   0  0  0  0  0  3  0  0  0  0  0  0
  -25.8820  -26.8800   19.4950 C   0  0  0  0  0  3  0  0  0  0  0  0
  -24.7290  -27.6800   19.5280 C   0  0  0  0  0  3  0  0  0  0  0  0
  -23.5300  -29.8180   20.2320 C   0  0  0  0  0  2  0  0  0  0  0  0
  -24.6500  -31.0840   22.1110 N   0  0  0  0  0  0  0  0  0  0  0  0
  -23.5580  -32.2050   23.7580 O   0  0  0  0  0  0  0  0  0  0  0  0
  -22.7190  -29.5020   22.6020 C   0  0  0  0  0  0  0  0  0  0  0  0
  -21.4040  -29.2640   22.4540 N   0  0  0  0  0  0  0  0  0  0  0  0
  -23.4020  -28.9420   23.4620 O   0  0  0  0  0  0  0  0  0  0  0  0
  -20.9090  -29.7680   21.7320 H   0  0  0  0  0  0  0  0  0  0  0  0
  -18.0900  -27.8700   22.8660 C   0  0  0  0  0  0  0  0  0  0  0  0
  -20.6050  -28.3290   23.2510 C   0  0  0  0  0  3  0  0  0  0  0  0
  -20.8360  -26.8700   22.7950 C   0  0  0  0  0  2  0  0  0  0  0  0
  -19.8200  -26.3960   21.7520 C   0  0  0  0  0  2  0  0  0  0  0  0
  -18.3950  -26.4910   22.3050 C   0  0  0  0  0  2  0  0  0  0  0  0
  -19.1280  -28.7390   23.2950 C   0  0  0  0  0  0  0  0  0  0  0  0
  -18.7900  -30.0230   23.7740 C   0  0  0  0  0  3  0  0  0  0  0  0
  -17.4470  -30.4410   23.8310 C   0  0  0  0  0  3  0  0  0  0  0  0
  -16.4220  -29.5710   23.4200 C   0  0  0  0  0  3  0  0  0  0  0  0
  -16.7450  -28.2870   22.9430 C   0  0  0  0  0  3  0  0  0  0  0  0
  -25.9280  -32.5410   23.7730 C   0  0  0  0  0  3  0  0  0  0  0  0
  -26.5030  -31.7520   25.0140 C   0  0  1  0  0  0  0  0  0  0  0  0
  -25.4520  -31.4750   26.1140 C   0  0  0  0  0  1  0  0  0  0  0  0
  -27.0950  -30.3930   24.5750 C   0  0  0  0  0  1  0  0  0  0  0  0
  -27.6630  -32.5540   25.6500 C   0  0  0  0  0  1  0  0  0  0  0  0
  -25.6260  -33.9320   24.1400 N   0  0  0  0  0  0  0  0  0  0  0  0
  -25.9250  -35.0000   23.3910 C   0  0  0  0  0  0  0  0  0  0  0  0
  -26.5570  -34.9200   22.3340 O   0  0  0  0  0  0  0  0  0  0  0  0
  -25.0630  -34.0680   24.9670 H   0  0  0  0  0  0  0  0  0  0  0  0
  -24.1840  -36.7960   23.1300 C   0  0  0  0  0  1  0  0  0  0  0  0
  -25.4510  -36.3770   23.8930 C   0  0  0  0  0  3  0  0  0  0  0  0
  -27.6050  -37.2530   24.6790 C   0  0  0  0  0  1  0  0  0  0  0  0
  -26.4770  -37.4350   23.7700 N   0  0  0  0  0  0  0  0  0  0  0  0
  -26.0730  -38.3510   23.9460 H   0  0  0  0  0  0  0  0  0  0  0  0
  -30.5580  -17.2800   19.7900 C   0  0  0  0  0  2  0  0  0  0  0  0
  -30.8090  -14.7450   19.9950 C   0  0  0  0  0  0  0  0  0  0  0  0
  -30.4850  -12.5160   18.9380 C   0  0  0  0  0  2  0  0  0  0  0  0
  -29.4780  -12.6510   17.7760 C   0  0  0  0  0  2  0  0  0  0  0  0
  -28.0370  -12.4790   18.2920 C   0  0  0  0  0  2  0  0  0  0  0  0
  -27.7500  -13.3320   19.5570 C   0  0  0  0  0  3  0  0  0  0  0  0
  -28.8750  -13.2080   20.6080 C   0  0  0  0  0  2  0  0  0  0  0  0
  -30.1390  -13.5460   19.9430 N   0  0  0  0  0  0  0  0  0  0  0  0
  -31.9690  -14.8170   19.5830 O   0  0  0  0  0  0  0  0  0  0  0  0
  -30.1030  -15.9060   20.2550 N   0  0  0  0  0  0  0  0  0  0  0  0
  -29.1340  -15.7940   20.5060 H   0  0  0  0  0  0  0  0  0  0  0  0
  -25.4180  -13.9110   20.4550 C   0  0  0  0  0  0  0  0  0  0  0  0
  -24.3720  -13.1300   20.8670 C   0  0  0  0  0  0  0  0  0  0  0  0
  -24.8210  -11.7780   20.7580 C   0  0  0  0  0  0  0  0  0  0  0  0
  -26.4380  -13.0350   20.1220 N   0  0  0  0  0  0  0  0  0  0  0  0
  -26.0900  -11.7450   20.3660 N   0  0  0  0  0  0  0  0  0  0  0  0
  -24.0990  -10.5150   20.9480 C   0  0  0  0  0  0  0  0  0  0  0  0
  -24.5260   -9.5520   21.8900 C   0  0  0  0  0  3  0  0  0  0  0  0
  -23.8030   -8.3530   22.0680 C   0  0  0  0  0  3  0  0  0  0  0  0
  -22.6360   -8.1080   21.3050 C   0  0  0  0  0  0  0  0  0  0  0  0
  -22.2290   -9.0590   20.3520 C   0  0  0  0  0  3  0  0  0  0  0  0
  -22.9530  -10.2490   20.1720 C   0  0  0  0  0  3  0  0  0  0  0  0
  -21.8850   -6.9610   21.3910 O   0  0  0  0  0  0  0  0  0  0  0  0
  -21.7470   -6.2790   22.5730 C   0  0  0  0  0  0  0  0  0  0  0  0
  -21.1950   -6.8840   23.7230 C   0  0  0  0  0  3  0  0  0  0  0  0
  -21.0090   -6.1250   24.8960 C   0  0  0  0  0  3  0  0  0  0  0  0
  -21.3640   -4.7640   24.9190 C   0  0  0  0  0  0  0  0  0  0  0  0
  -21.9080   -4.1580   23.7730 C   0  0  0  0  0  3  0  0  0  0  0  0
  -22.0970   -4.9140   22.6030 C   0  0  0  0  0  0  0  0  0  0  0  0
  -22.6020   -4.3200   21.4950 F   0  0  0  0  0  0  0  0  0  0  0  0
  -21.1770   -4.0330   26.0440 F   0  0  0  0  0  0  0  0  0  0  0  0
  -22.9980  -13.6050   21.2420 C   0  0  0  0  0  0  0  0  0  0  0  0
  -22.3270  -12.8910   22.1380 N   0  0  0  0  0  0  0  0  0  0  0  0
  -22.5330  -14.6440   20.7770 O   0  0  0  0  0  0  0  0  0  0  0  0
  -22.7170  -12.0500   22.5340 H   0  0  0  0  0  0  0  0  0  0  0  0
  -21.4070  -13.1900   22.4310 H   0  0  0  0  0  0  0  0  0  0  0  0
  -25.5800  -15.2850   20.3130 N   0  0  0  0  0  0  0  0  0  0  0  0
  -24.8160  -15.9340   20.4740 H   0  0  0  0  0  0  0  0  0  0  0  0
  -26.3830  -15.7250   19.8810 H   0  0  0  0  0  0  0  0  0  0  0  0
  2  1  1  0
  2  6  1  0
  3  2  2  0
  4  1  2  0
  5  4  1  0
  5  3  1  0
  6  8  2  0
  6  7  1  0
  7 10  1  0
  8 12  1  0
  9  7  1  0
 11  8  1  0
 13 15  2  0
 14  4  1  0
 14 13  1  0
 16 14  1  0
 17 18  1  0
 17 13  1  0
 19 30  2  0
 20 18  1  0
 20 25  1  0
 21 29  1  0
 21 31  1  0
 22 28  1  0
 22 24  1  0
 23 29  1  0
 24 23  1  0
 25 24  2  0
 26 27  1  0
 26 20  2  0
 27 22  2  0
 28 21  1  0
 29 19  1  0
 31 33  2  0
 32 31  1  0
 34 32  1  0
 35 44  2  0
 35 40  1  0
 36 32  1  0
 36 40  1  0
 37 36  1  0
 38 39  1  0
 38 37  1  0
 39 35  1  0
 40 41  2  0
 41 42  1  0
 43 42  2  0
 44 43  1  0
 45 19  1  0
 45 50  1  0
 45 46  1  0
 46 49  1  1
 46 47  1  0
 48 46  1  0
 50 53  1  0
 51 55  1  0
 51 50  1  0
 52 51  2  0
 55 54  1  0
 57 55  1  0
 57 58  1  0
 57 56  1  0
 59 68  1  0
 59  3  1  0
 60 68  1  0
 61 66  1  0
 62 63  1  0
 62 61  1  0
 64 63  1  0
 64 73  1  0
 64 65  1  0
 66 60  1  0
 66 65  1  0
 67 60  2  0
 68 69  1  0
 70 71  2  0
 71 90  1  0
 72 71  1  0
 72 75  1  0
 73 74  1  0
 73 70  1  0
 74 72  2  0
 75 76  1  0
 76 77  2  0
 78 81  1  0
 78 77  1  0
 79 78  2  0
 80 79  1  0
 80 75  2  0
 81 82  1  0
 82 87  2  0
 82 83  1  0
 83 84  2  0
 84 85  1  0
 85 89  1  0
 86 85  2  0
 87 86  1  0
 88 87  1  0
 90 91  1  0
 91 94  1  0
 91 93  1  0
 92 90  2  0
 95 70  1  0
 95 96  1  0
 97 95  1  0
M  ISO  4  17 101  18 101  60 100  68 100
M  END
>  <TORSDO>  (66) 
F 20

>  <SCORE>  (66) 
-13.472

>  <name>  (66) 
65

>  <ligand_id>  (66) 
65

>  <original_smiles>  (66) 
[H]c1c([H])c([H])c2c(c1[H])C([H])([H])C([H])([H])C([H])([H])C2([H])N([H])C(=O)C1([H])N(C(=O)C([H])(N([H])C(=O)C([H])(N([H])C([H])([H])[H])C([H])([H])[H])C(C([H])([H])[H])(C([H])([H])[H])C([H])([H])[H])C([H])([H])c2c([H])c(OC([H])([H])C(=O)N([H])c3sc(C([H])([H])N([H])C(=O)N4C([H])([H])C([H])([H])C([H])([H])C([H])(n5nc(-c6c([H])c([H])c(Oc7c([H])c([H])c(F)c([H])c7F)c([H])c6[H])c(C(=O)N([H])[H])c5N([H])[H])C4([H])[H])c(C(N([H])[H])=[N+]([H])[H])c3[H])c([H])c([H])c2C1([H])[H]

>  <smiles>  (66) 
[H]c1c([H])c([H])c2c(c1[H])C([H])([H])C([H])([H])C([H])([H])C2([H])N([H])C(=O)C1([H])N(C(=O)C([H])(N([H])C(=O)C([H])(N([H])C([H])([H])[H])C([H])([H])[H])C(C([H])([H])[H])(C([H])([H])[H])C([H])([H])[H])C([H])([H])c2c([H])c(OC([H])([H])C(=O)N([H])c3sc(C([H])([H])N([H])C(=O)N4C([H])([H])C([H])([H])C([H])([H])C([H])(n5nc(-c6c([H])c([H])c(Oc7c([H])c([H])c(F)c([H])c7F)c([H])c6[H])c(C(=O)N([H])[H])c5N([H])[H])C4([H])[H])c(C(N([H])[H])=[N+]([H])[H])c3[H])c([H])c([H])c2C1([H])[H]

$$$$
66:0:0
     RDKit          3D

 91100  0  0  1  0  0  0  0  0999 V2000
  -28.9260  -23.6190   20.0140 C   0  0  0  0  0  0  0  0  0  0  0  0
  -28.5800  -22.3380   20.4790 N   0  0  0  0  0  0  0  0  0  0  0  0
  -29.8780  -23.7780   19.2450 O   0  0  0  0  0  0  0  0  0  0  0  0
  -27.7970  -22.4130   21.1160 H   0  0  0  0  0  0  0  0  0  0  0  0
  -30.8610  -15.0380   19.9040 C   0  0  0  0  0  0  0  0  0  0  0  0
  -30.6060  -12.7340   18.9220 C   0  0  0  0  0  2  0  0  0  0  0  0
  -29.6010  -12.7320   17.7500 C   0  0  0  0  0  2  0  0  0  0  0  0
  -28.1710  -12.5150   18.2760 C   0  0  0  0  0  2  0  0  0  0  0  0
  -27.8420  -13.4130   19.4990 C   0  0  0  0  0  3  0  0  0  0  0  0
  -28.9720  -13.4130   20.5510 C   0  0  0  0  0  2  0  0  0  0  0  0
  -30.1970  -13.8200   19.8550 N   0  0  0  0  0  0  0  0  0  0  0  0
  -32.0450  -15.0350   19.5460 O   0  0  0  0  0  0  0  0  0  0  0  0
  -29.9040  -20.2720   19.5040 C   0  0  0  0  0  3  0  0  0  0  0  0
  -29.9680  -18.8020   19.7170 C   0  0  0  0  0  0  0  0  0  0  0  0
  -29.1550  -18.3680   20.6810 C   0  0  0  0  0  0  0  0  0  0  0  0
  -29.0030  -20.9810   20.3300 C   0  0  0  0  0  0  0  0  0  0  0  0
  -29.2070  -16.8510   20.9050 C   0  0  0  0  0  2  0  0  0  0  0  0
  -30.6760  -17.5380   19.1700 C   0  0  0  0  0  3  0  0  0  0  0  0
  -30.4520  -17.4000   17.6550 C   0  0  0  0  0  1  0  0  0  0  0  0
  -30.1760  -16.2840   19.9020 N   0  0  0  0  0  0  0  0  0  0  0  0
  -28.2560  -19.7240   21.3820 S   0  0  0  0  0  0  0  0  0  0  0  0
  -25.5190  -13.9460   20.4290 C   0  0  0  0  0  0  0  0  0  0  0  0
  -24.4870  -13.1500   20.8420 C   0  0  0  0  0  0  0  0  0  0  0  0
  -24.9510  -11.8050   20.7200 C   0  0  0  0  0  0  0  0  0  0  0  0
  -26.5450  -13.0870   20.0810 N   0  0  0  0  0  0  0  0  0  0  0  0
  -26.2180  -11.7910   20.3200 N   0  0  0  0  0  0  0  0  0  0  0  0
  -24.2430  -10.5320   20.9050 C   0  0  0  0  0  0  0  0  0  0  0  0
  -24.6600   -9.5860   21.8690 C   0  0  0  0  0  3  0  0  0  0  0  0
  -23.9480   -8.3800   22.0410 C   0  0  0  0  0  3  0  0  0  0  0  0
  -22.8050   -8.1080   21.2520 C   0  0  0  0  0  0  0  0  0  0  0  0
  -22.4080   -9.0430   20.2780 C   0  0  0  0  0  3  0  0  0  0  0  0
  -23.1210  -10.2410   20.1040 C   0  0  0  0  0  3  0  0  0  0  0  0
  -22.0690   -6.9520   21.3320 O   0  0  0  0  0  0  0  0  0  0  0  0
  -21.8770   -6.3030   22.5250 C   0  0  0  0  0  0  0  0  0  0  0  0
  -21.2610   -6.9350   23.6270 C   0  0  0  0  0  3  0  0  0  0  0  0
  -21.0210   -6.2090   24.8110 C   0  0  0  0  0  3  0  0  0  0  0  0
  -21.3850   -4.8520   24.8920 C   0  0  0  0  0  0  0  0  0  0  0  0
  -21.9930   -4.2190   23.7930 C   0  0  0  0  0  3  0  0  0  0  0  0
  -22.2340   -4.9430   22.6120 C   0  0  0  0  0  0  0  0  0  0  0  0
  -22.8010   -4.3220   21.5500 F   0  0  0  0  0  0  0  0  0  0  0  0
  -21.1470   -4.1520   26.0260 F   0  0  0  0  0  0  0  0  0  0  0  0
  -23.1110  -13.6080   21.2280 C   0  0  0  0  0  0  0  0  0  0  0  0
  -22.4530  -12.8840   22.1260 N   0  0  0  0  0  0  0  0  0  0  0  0
  -22.6300  -14.6440   20.7700 O   0  0  0  0  0  0  0  0  0  0  0  0
  -22.8570  -12.0460   22.5170 H   0  0  0  0  0  0  0  0  0  0  0  0
  -21.5330  -13.1710   22.4270 H   0  0  0  0  0  0  0  0  0  0  0  0
  -25.6610  -15.3250   20.2940 N   0  0  0  0  0  0  0  0  0  0  0  0
  -24.8940  -15.9620   20.4780 H   0  0  0  0  0  0  0  0  0  0  0  0
  -26.4640  -15.7790   19.8800 H   0  0  0  0  0  0  0  0  0  0  0  0
  -28.0550  -24.9250   20.4860 C   0  0  0  0  0  2  0  0  0  0  0  0
  -28.3780  -26.3720   20.0690 O   0  0  0  0  0  0  0  0  0  0  0  0
  -24.6170  -31.8880   23.1260 C   0  0  0  0  0  0  0  0  0  0  0  0
  -27.3060  -27.3180   20.0370 C   0  0  0  0  0  0  0  0  0  0  0  0
  -23.4500  -30.4860   21.4670 C   0  0  0  0  0  3  0  0  0  0  0  0
  -24.9360  -28.9750   20.0240 C   0  0  0  0  0  0  0  0  0  0  0  0
  -25.9940  -30.8280   21.3060 C   0  0  0  0  0  2  0  0  0  0  0  0
  -26.1020  -29.4510   20.6390 C   0  0  0  0  0  0  0  0  0  0  0  0
  -27.2910  -28.6370   20.6320 C   0  0  0  0  0  3  0  0  0  0  0  0
  -26.1200  -26.9430   19.3710 C   0  0  0  0  0  3  0  0  0  0  0  0
  -24.9550  -27.7330   19.3740 C   0  0  0  0  0  3  0  0  0  0  0  0
  -23.6860  -29.8350   20.0800 C   0  0  0  0  0  2  0  0  0  0  0  0
  -24.7060  -31.0870   22.0210 N   0  0  0  0  0  0  0  0  0  0  0  0
  -23.5250  -32.1400   23.6570 O   0  0  0  0  0  0  0  0  0  0  0  0
  -22.7990  -29.4480   22.4140 C   0  0  0  0  0  0  0  0  0  0  0  0
  -21.4750  -29.2520   22.2890 N   0  0  0  0  0  0  0  0  0  0  0  0
  -23.4870  -28.8220   23.2250 O   0  0  0  0  0  0  0  0  0  0  0  0
  -20.9760  -29.8100   21.6090 H   0  0  0  0  0  0  0  0  0  0  0  0
  -18.1150  -28.0010   22.8010 C   0  0  0  0  0  0  0  0  0  0  0  0
  -20.6730  -28.2890   23.0480 C   0  0  0  0  0  3  0  0  0  0  0  0
  -20.7860  -26.8710   22.4420 C   0  0  0  0  0  2  0  0  0  0  0  0
  -19.6770  -26.5550   21.4330 C   0  0  0  0  0  2  0  0  0  0  0  0
  -18.3000  -26.6690   22.0940 C   0  0  0  0  0  2  0  0  0  0  0  0
  -19.2280  -28.7690   23.2340 C   0  0  0  0  0  0  0  0  0  0  0  0
  -19.0000  -30.0150   23.8580 C   0  0  0  0  0  3  0  0  0  0  0  0
  -17.6910  -30.4950   24.0500 C   0  0  0  0  0  3  0  0  0  0  0  0
  -16.5920  -29.7260   23.6320 C   0  0  0  0  0  3  0  0  0  0  0  0
  -16.8040  -28.4800   23.0140 C   0  0  0  0  0  3  0  0  0  0  0  0
  -25.8820  -32.5450   23.7600 C   0  0  0  0  0  3  0  0  0  0  0  0
  -25.5360  -33.9310   24.1120 N   0  0  0  0  0  0  0  0  0  0  0  0
  -25.8440  -35.0050   23.3740 C   0  0  0  0  0  0  0  0  0  0  0  0
  -26.5150  -34.9360   22.3410 O   0  0  0  0  0  0  0  0  0  0  0  0
  -24.9380  -34.0560   24.9160 H   0  0  0  0  0  0  0  0  0  0  0  0
  -24.0830  -36.7720   23.0430 C   0  0  0  0  0  1  0  0  0  0  0  0
  -25.3250  -36.3750   23.8560 C   0  0  0  0  0  3  0  0  0  0  0  0
  -27.4300  -37.2900   24.7310 C   0  0  0  0  0  1  0  0  0  0  0  0
  -26.3380  -37.4500   23.7740 N   0  0  0  0  0  0  0  0  0  0  0  0
  -25.9110  -38.3600   23.9300 H   0  0  0  0  0  0  0  0  0  0  0  0
  -26.4110  -31.7690   25.0290 C   0  0  1  0  0  0  0  0  0  0  0  0
  -25.3200  -31.4910   26.0890 C   0  0  0  0  0  1  0  0  0  0  0  0
  -27.0300  -30.4110   24.6250 C   0  0  0  0  0  1  0  0  0  0  0  0
  -27.5390  -32.5830   25.7060 C   0  0  0  0  0  1  0  0  0  0  0  0
  1  2  1  0
  1 50  1  0
  2  4  1  0
  3  1  2  0
  6 11  1  0
  7  8  1  0
  7  6  1  0
  9  8  1  0
  9 25  1  0
  9 10  1  0
 11  5  1  0
 11 10  1  0
 12  5  2  0
 13 14  1  0
 13 16  2  0
 14 15  2  0
 15 17  1  0
 15 21  1  0
 16  2  1  0
 16 21  1  0
 18 19  1  0
 18 14  1  0
 18 20  1  0
 20  5  1  0
 20 17  1  0
 22 23  2  0
 23 42  1  0
 24 23  1  0
 24 27  1  0
 25 26  1  0
 25 22  1  0
 26 24  2  0
 27 28  1  0
 28 29  2  0
 30 33  1  0
 30 29  1  0
 31 30  2  0
 32 31  1  0
 32 27  2  0
 33 34  1  0
 34 39  2  0
 34 35  1  0
 35 36  2  0
 36 37  1  0
 37 41  1  0
 38 37  2  0
 39 38  1  0
 40 39  1  0
 42 43  1  0
 43 46  1  0
 43 45  1  0
 44 42  2  0
 47 22  1  0
 47 48  1  0
 49 47  1  0
 51 50  1  0
 52 63  2  0
 53 51  1  0
 53 58  1  0
 54 62  1  0
 54 64  1  0
 55 61  1  0
 55 57  1  0
 56 62  1  0
 57 56  1  0
 58 57  2  0
 59 60  1  0
 59 53  2  0
 60 55  2  0
 61 54  1  0
 62 52  1  0
 64 66  2  0
 65 64  1  0
 67 65  1  0
 68 77  2  0
 68 73  1  0
 69 65  1  0
 69 73  1  0
 70 69  1  0
 71 72  1  0
 71 70  1  0
 72 68  1  0
 73 74  2  0
 74 75  1  0
 76 75  2  0
 77 76  1  0
 78 52  1  0
 78 79  1  0
 78 88  1  0
 79 82  1  0
 80 84  1  0
 80 79  1  0
 81 80  2  0
 84 83  1  0
 86 84  1  0
 86 87  1  0
 86 85  1  0
 88 91  1  1
 88 89  1  0
 90 88  1  0
M  ISO  4   5 100  20 100  50 101  51 101
M  END
>  <TORSDO>  (67) 
F 17

>  <SCORE>  (67) 
-13.055

>  <name>  (67) 
66

>  <ligand_id>  (67) 
66

>  <original_smiles>  (67) 
[H]c1c([H])c([H])c2c(c1[H])C([H])([H])C([H])([H])C([H])([H])C2([H])N([H])C(=O)C1([H])N(C(=O)C([H])(N([H])C(=O)C([H])(N([H])C([H])([H])[H])C([H])([H])[H])C(C([H])([H])[H])(C([H])([H])[H])C([H])([H])[H])C([H])([H])c2c([H])c(OC([H])([H])C(=O)N([H])c3sc4c(c3[H])C([H])(C([H])([H])[H])N(C(=O)N3C([H])([H])C([H])([H])C([H])([H])C([H])(n5nc(-c6c([H])c([H])c(Oc7c([H])c([H])c(F)c([H])c7F)c([H])c6[H])c(C(=O)N([H])[H])c5N([H])[H])C3([H])[H])C4([H])[H])c([H])c([H])c2C1([H])[H]

>  <smiles>  (67) 
[H]c1c([H])c([H])c2c(c1[H])C([H])([H])C([H])([H])C([H])([H])C2([H])N([H])C(=O)C1([H])N(C(=O)C([H])(N([H])C(=O)C([H])(N([H])C([H])([H])[H])C([H])([H])[H])C(C([H])([H])[H])(C([H])([H])[H])C([H])([H])[H])C([H])([H])c2c([H])c(OC([H])([H])C(=O)N([H])c3sc4c(c3[H])C([H])(C([H])([H])[H])N(C(=O)N3C([H])([H])C([H])([H])C([H])([H])C([H])(n5nc(-c6c([H])c([H])c(Oc7c([H])c([H])c(F)c([H])c7F)c([H])c6[H])c(C(=O)N([H])[H])c5N([H])[H])C3([H])[H])C4([H])[H])c([H])c([H])c2C1([H])[H]

$$$$
67:0:0
     RDKit          3D

 93102  0  0  1  0  0  0  0  0999 V2000
  -29.3620  -22.7300   20.3730 C   0  0  0  0  0  3  0  0  0  0  0  0
  -28.3550  -23.6470   20.3080 C   0  0  0  0  0  0  0  0  0  0  0  0
  -27.1550  -22.9130   19.7390 C   0  0  0  0  0  2  0  0  0  0  0  0
  -29.0380  -21.3240   19.7600 C   0  0  0  0  0  3  0  0  0  0  0  0
  -27.5610  -21.4650   19.6600 N   0  0  0  0  0  4  0  0  0  0  0  0
  -27.2130  -21.0510   18.8120 H   0  0  0  0  0  0  0  0  0  0  0  0
  -27.1510  -20.9740   20.4360 H   0  0  0  0  0  0  0  0  0  0  0  0
  -31.0280  -18.9210   22.1170 C   0  0  0  0  0  3  0  0  0  0  0  0
  -30.3820  -20.0460   21.5630 C   0  0  0  0  0  3  0  0  0  0  0  0
  -30.9060  -17.6350   21.5530 C   0  0  0  0  0  3  0  0  0  0  0  0
  -29.4590  -18.5940   19.8470 C   0  0  0  0  0  3  0  0  0  0  0  0
  -29.6040  -19.9500   20.3900 C   0  0  0  0  0  0  0  0  0  0  0  0
  -30.0990  -17.4060   20.4190 C   0  0  0  0  0  0  0  0  0  0  0  0
  -30.6780  -14.8480   20.0620 C   0  0  0  0  0  0  0  0  0  0  0  0
  -30.4740  -12.5580   19.0710 C   0  0  0  0  0  2  0  0  0  0  0  0
  -29.4820  -12.5800   17.8880 C   0  0  0  0  0  2  0  0  0  0  0  0
  -28.0330  -12.3870   18.3880 C   0  0  0  0  0  2  0  0  0  0  0  0
  -27.6870  -13.3150   19.5840 C   0  0  0  0  0  3  0  0  0  0  0  0
  -28.7870  -13.2730   20.6640 C   0  0  0  0  0  2  0  0  0  0  0  0
  -30.0520  -13.6250   20.0030 N   0  0  0  0  0  0  0  0  0  0  0  0
  -31.8920  -14.9210   19.8450 O   0  0  0  0  0  0  0  0  0  0  0  0
  -29.8760  -15.9900   20.0040 N   0  0  0  0  0  0  0  0  0  0  0  0
  -28.9300  -15.7860   19.7250 H   0  0  0  0  0  0  0  0  0  0  0  0
  -25.3390  -13.9230   20.4250 C   0  0  0  0  0  0  0  0  0  0  0  0
  -24.2800  -13.1540   20.8260 C   0  0  0  0  0  0  0  0  0  0  0  0
  -24.7270  -11.7990   20.7600 C   0  0  0  0  0  0  0  0  0  0  0  0
  -26.3630  -13.0370   20.1340 N   0  0  0  0  0  0  0  0  0  0  0  0
  -26.0060  -11.7540   20.4000 N   0  0  0  0  0  0  0  0  0  0  0  0
  -23.9950  -10.5430   20.9580 C   0  0  0  0  0  0  0  0  0  0  0  0
  -24.4340   -9.5720   21.8840 C   0  0  0  0  0  3  0  0  0  0  0  0
  -23.7060   -8.3770   22.0700 C   0  0  0  0  0  3  0  0  0  0  0  0
  -22.5220   -8.1460   21.3300 C   0  0  0  0  0  0  0  0  0  0  0  0
  -22.1000   -9.1070   20.3950 C   0  0  0  0  0  3  0  0  0  0  0  0
  -22.8300  -10.2920   20.2060 C   0  0  0  0  0  3  0  0  0  0  0  0
  -21.7610   -7.0040   21.4280 O   0  0  0  0  0  0  0  0  0  0  0  0
  -21.7070   -6.2740   22.5870 C   0  0  0  0  0  0  0  0  0  0  0  0
  -21.2560   -6.8360   23.8030 C   0  0  0  0  0  3  0  0  0  0  0  0
  -21.1470   -6.0280   24.9540 C   0  0  0  0  0  3  0  0  0  0  0  0
  -21.4830   -4.6620   24.8910 C   0  0  0  0  0  0  0  0  0  0  0  0
  -21.9280   -4.1030   23.6800 C   0  0  0  0  0  3  0  0  0  0  0  0
  -22.0380   -4.9060   22.5330 C   0  0  0  0  0  0  0  0  0  0  0  0
  -22.4470   -4.3540   21.3640 F   0  0  0  0  0  0  0  0  0  0  0  0
  -21.3730   -3.8860   25.9950 F   0  0  0  0  0  0  0  0  0  0  0  0
  -22.8970  -13.6430   21.1490 C   0  0  0  0  0  0  0  0  0  0  0  0
  -22.1850  -12.9440   22.0260 N   0  0  0  0  0  0  0  0  0  0  0  0
  -22.4550  -14.6810   20.6550 O   0  0  0  0  0  0  0  0  0  0  0  0
  -22.5500  -12.1070   22.4560 H   0  0  0  0  0  0  0  0  0  0  0  0
  -21.2570  -13.2570   22.2760 H   0  0  0  0  0  0  0  0  0  0  0  0
  -25.5120  -15.2930   20.2580 N   0  0  0  0  0  0  0  0  0  0  0  0
  -24.7550  -15.9510   20.4070 H   0  0  0  0  0  0  0  0  0  0  0  0
  -26.3540  -15.7380   19.9150 H   0  0  0  0  0  0  0  0  0  0  0  0
  -28.2130  -25.0930   20.9840 C   0  0  0  0  0  2  0  0  0  0  0  0
  -28.3520  -26.3960   20.2560 O   0  0  0  0  0  0  0  0  0  0  0  0
  -24.6070  -31.9020   23.2420 C   0  0  0  0  0  0  0  0  0  0  0  0
  -27.2590  -27.2860   20.2610 C   0  0  0  0  0  0  0  0  0  0  0  0
  -23.4250  -30.4820   21.6050 C   0  0  0  0  0  3  0  0  0  0  0  0
  -24.8960  -28.9150   20.2120 C   0  0  0  0  0  0  0  0  0  0  0  0
  -25.9690  -30.7990   21.4460 C   0  0  0  0  0  2  0  0  0  0  0  0
  -26.0600  -29.4090   20.8130 C   0  0  0  0  0  0  0  0  0  0  0  0
  -27.2500  -28.6080   20.8230 C   0  0  0  0  0  3  0  0  0  0  0  0
  -26.0730  -26.8550   19.6350 C   0  0  0  0  0  3  0  0  0  0  0  0
  -24.9060  -27.6460   19.6110 C   0  0  0  0  0  3  0  0  0  0  0  0
  -23.6570  -29.7900   20.2360 C   0  0  0  0  0  2  0  0  0  0  0  0
  -24.6860  -31.0800   22.1540 N   0  0  0  0  0  0  0  0  0  0  0  0
  -23.5170  -32.1790   23.7630 O   0  0  0  0  0  0  0  0  0  0  0  0
  -22.7580  -29.4730   22.5730 C   0  0  0  0  0  0  0  0  0  0  0  0
  -21.4330  -29.2870   22.4390 N   0  0  0  0  0  0  0  0  0  0  0  0
  -23.4340  -28.8590   23.4040 O   0  0  0  0  0  0  0  0  0  0  0  0
  -20.9500  -29.8330   21.7390 H   0  0  0  0  0  0  0  0  0  0  0  0
  -18.0610  -28.0650   22.9130 C   0  0  0  0  0  0  0  0  0  0  0  0
  -20.6130  -28.3520   23.2120 C   0  0  0  0  0  3  0  0  0  0  0  0
  -20.7380  -26.9140   22.6590 C   0  0  0  0  0  2  0  0  0  0  0  0
  -19.6520  -26.5650   21.6370 C   0  0  0  0  0  2  0  0  0  0  0  0
  -18.2600  -26.7080   22.2600 C   0  0  0  0  0  2  0  0  0  0  0  0
  -19.1680  -28.8440   23.3460 C   0  0  0  0  0  0  0  0  0  0  0  0
  -18.9280  -30.1130   23.9170 C   0  0  0  0  0  3  0  0  0  0  0  0
  -17.6160  -30.6040   24.0580 C   0  0  0  0  0  3  0  0  0  0  0  0
  -16.5250  -29.8240   23.6410 C   0  0  0  0  0  3  0  0  0  0  0  0
  -16.7480  -28.5560   23.0740 C   0  0  0  0  0  3  0  0  0  0  0  0
  -25.8810  -32.5480   23.8700 C   0  0  0  0  0  3  0  0  0  0  0  0
  -25.5540  -33.9410   24.2040 N   0  0  0  0  0  0  0  0  0  0  0  0
  -25.8720  -35.0010   23.4510 C   0  0  0  0  0  0  0  0  0  0  0  0
  -26.5410  -34.9110   22.4180 O   0  0  0  0  0  0  0  0  0  0  0  0
  -24.9580  -34.0830   25.0070 H   0  0  0  0  0  0  0  0  0  0  0  0
  -24.1270  -36.7820   23.1020 C   0  0  0  0  0  1  0  0  0  0  0  0
  -25.3690  -36.3830   23.9160 C   0  0  0  0  0  3  0  0  0  0  0  0
  -27.4890  -37.2870   24.7640 C   0  0  0  0  0  1  0  0  0  0  0  0
  -26.3910  -37.4470   23.8140 N   0  0  0  0  0  0  0  0  0  0  0  0
  -25.9740  -38.3610   23.9630 H   0  0  0  0  0  0  0  0  0  0  0  0
  -26.4020  -31.7810   25.1460 C   0  0  1  0  0  0  0  0  0  0  0  0
  -25.3100  -31.5290   26.2110 C   0  0  0  0  0  1  0  0  0  0  0  0
  -27.0040  -30.4120   24.7550 C   0  0  0  0  0  1  0  0  0  0  0  0
  -27.5390  -32.5880   25.8160 C   0  0  0  0  0  1  0  0  0  0  0  0
  2  1  2  0
  2 52  1  0
  3  2  1  0
  4  1  1  0
  4 12  1  0
  5  3  1  0
  5  4  1  0
  5  7  1  0
  6  5  1  0
  9  8  1  0
 10  8  2  0
 11 12  1  0
 11 13  2  0
 12  9  2  0
 13 10  1  0
 15 20  1  0
 16 17  1  0
 16 15  1  0
 18 17  1  0
 18 27  1  0
 18 19  1  0
 20 14  1  0
 20 19  1  0
 21 14  2  0
 22 14  1  0
 22 13  1  0
 23 22  1  0
 24 25  2  0
 25 44  1  0
 26 25  1  0
 26 29  1  0
 27 28  1  0
 27 24  1  0
 28 26  2  0
 29 30  1  0
 30 31  2  0
 32 35  1  0
 32 31  1  0
 33 32  2  0
 34 33  1  0
 34 29  2  0
 35 36  1  0
 36 37  1  0
 37 38  2  0
 39 38  1  0
 39 43  1  0
 40 39  2  0
 41 36  2  0
 41 40  1  0
 42 41  1  0
 44 45  1  0
 45 48  1  0
 45 47  1  0
 46 44  2  0
 49 50  1  0
 49 24  1  0
 51 49  1  0
 53 55  1  0
 53 52  1  0
 54 65  2  0
 55 60  1  0
 56 64  1  0
 56 66  1  0
 57 63  1  0
 57 59  1  0
 58 64  1  0
 59 60  2  0
 59 58  1  0
 61 55  2  0
 62 61  1  0
 62 57  2  0
 63 56  1  0
 64 54  1  0
 66 68  2  0
 67 66  1  0
 69 67  1  0
 70 79  2  0
 70 75  1  0
 71 67  1  0
 71 75  1  0
 72 71  1  0
 73 74  1  0
 73 72  1  0
 74 70  1  0
 75 76  2  0
 76 77  1  0
 78 77  2  0
 79 78  1  0
 80 54  1  0
 80 81  1  0
 80 90  1  0
 81 84  1  0
 82 86  1  0
 82 81  1  0
 83 82  2  0
 86 85  1  0
 88 86  1  0
 88 89  1  0
 88 87  1  0
 90 93  1  1
 90 91  1  0
 92 90  1  0
M  ISO  4  14 100  22 100  52 101  53 101
M  END
>  <TORSDO>  (68) 
F 18

>  <SCORE>  (68) 
-14.930

>  <name>  (68) 
67

>  <ligand_id>  (68) 
67

>  <original_smiles>  (68) 
[H]C1=C(C([H])([H])Oc2c([H])c([H])c3c(c2[H])C([H])([H])N(C(=O)C([H])(N([H])C(=O)C([H])(N([H])C([H])([H])[H])C([H])([H])[H])C(C([H])([H])[H])(C([H])([H])[H])C([H])([H])[H])C([H])(C(=O)N([H])C2([H])c4c([H])c([H])c([H])c([H])c4C([H])([H])C([H])([H])C2([H])[H])C3([H])[H])C([H])([H])[N+]([H])([H])C1([H])c1c([H])c([H])c([H])c(N([H])C(=O)N2C([H])([H])C([H])([H])C([H])([H])C([H])(n3nc(-c4c([H])c([H])c(Oc5c([H])c([H])c(F)c([H])c5F)c([H])c4[H])c(C(=O)N([H])[H])c3N([H])[H])C2([H])[H])c1[H]

>  <smiles>  (68) 
[H]C1=C(C([H])([H])Oc2c([H])c([H])c3c(c2[H])C([H])([H])N(C(=O)C([H])(N([H])C(=O)C([H])(N([H])C([H])([H])[H])C([H])([H])[H])C(C([H])([H])[H])(C([H])([H])[H])C([H])([H])[H])C([H])(C(=O)N([H])C2([H])c4c([H])c([H])c([H])c([H])c4C([H])([H])C([H])([H])C2([H])[H])C3([H])[H])C([H])([H])[N+]([H])([H])C1([H])c1c([H])c([H])c([H])c(N([H])C(=O)N2C([H])([H])C([H])([H])C([H])([H])C([H])(n3nc(-c4c([H])c([H])c(Oc5c([H])c([H])c(F)c([H])c5F)c([H])c4[H])c(C(=O)N([H])[H])c3N([H])[H])C2([H])[H])c1[H]

$$$$
68:0:0
     RDKit          3D

 98107  0  0  1  0  0  0  0  0999 V2000
  -29.8440  -20.8640   21.3210 C   0  0  0  0  0  3  0  0  0  0  0  0
  -29.2860  -23.6900   18.9330 C   0  0  0  0  0  2  0  0  0  0  0  0
  -29.9660  -22.3550   19.3030 C   0  0  0  0  0  2  0  0  0  0  0  0
  -29.1960  -24.4430   20.2620 C   0  0  1  0  0  0  0  0  0  0  0  0
  -28.8680  -23.2640   21.2620 C   0  0  2  0  0  0  0  0  0  0  0  0
  -27.3530  -22.9320   21.2920 C   0  0  0  0  0  1  0  0  0  0  0  0
  -29.3370  -23.6390   22.6910 C   0  0  0  0  0  1  0  0  0  0  0  0
  -29.6140  -22.0780   20.7170 N   0  0  0  0  0  0  0  0  0  0  0  0
  -29.3230  -20.6360   22.5240 N   0  0  0  0  0  0  0  0  0  0  0  0
  -30.4220  -24.9060   20.5320 F   0  0  0  0  0  0  0  0  0  0  0  0
  -29.5460  -19.7740   22.9980 H   0  0  0  0  0  0  0  0  0  0  0  0
  -28.7960  -21.3370   23.0120 H   0  0  0  0  0  0  0  0  0  0  0  0
  -32.8600  -18.9940   20.0240 C   0  0  0  0  0  3  0  0  0  0  0  0
  -32.0000  -20.0410   20.3920 C   0  0  0  0  0  3  0  0  0  0  0  0
  -32.4100  -17.6610   20.0380 C   0  0  0  0  0  3  0  0  0  0  0  0
  -30.2130  -18.4120   20.7610 C   0  0  0  0  0  3  0  0  0  0  0  0
  -30.6710  -19.7660   20.7710 C   0  0  0  0  0  0  0  0  0  0  0  0
  -31.0710  -17.3350   20.3880 C   0  0  0  0  0  0  0  0  0  0  0  0
  -31.1730  -14.8610   19.8970 C   0  0  0  0  0  0  0  0  0  0  0  0
  -30.7790  -12.6100   18.9640 C   0  0  0  0  0  2  0  0  0  0  0  0
  -29.8040  -12.7070   17.7740 C   0  0  0  0  0  2  0  0  0  0  0  0
  -28.3490  -12.6060   18.2680 C   0  0  0  0  0  2  0  0  0  0  0  0
  -28.0540  -13.5560   19.4610 C   0  0  0  0  0  3  0  0  0  0  0  0
  -29.1530  -13.4680   20.5460 C   0  0  0  0  0  2  0  0  0  0  0  0
  -30.4530  -13.7010   19.9020 N   0  0  0  0  0  0  0  0  0  0  0  0
  -32.2630  -14.9230   19.3300 O   0  0  0  0  0  0  0  0  0  0  0  0
  -30.5840  -15.9700   20.4140 N   0  0  0  0  0  0  0  0  0  0  0  0
  -29.6550  -15.8280   20.7790 H   0  0  0  0  0  0  0  0  0  0  0  0
  -25.7250  -14.2300   20.3170 C   0  0  0  0  0  0  0  0  0  0  0  0
  -24.6520  -13.4890   20.7320 C   0  0  0  0  0  0  0  0  0  0  0  0
  -25.0590  -12.1220   20.6510 C   0  0  0  0  0  0  0  0  0  0  0  0
  -26.7220  -13.3170   20.0130 N   0  0  0  0  0  0  0  0  0  0  0  0
  -26.3280  -12.0420   20.2710 N   0  0  0  0  0  0  0  0  0  0  0  0
  -24.2970  -10.8840   20.8590 C   0  0  0  0  0  0  0  0  0  0  0  0
  -24.6940   -9.9230   21.8140 C   0  0  0  0  0  3  0  0  0  0  0  0
  -23.9340   -8.7500   22.0080 C   0  0  0  0  0  3  0  0  0  0  0  0
  -22.7620   -8.5280   21.2460 C   0  0  0  0  0  0  0  0  0  0  0  0
  -22.3830   -9.4780   20.2810 C   0  0  0  0  0  3  0  0  0  0  0  0
  -23.1440  -10.6420   20.0840 C   0  0  0  0  0  3  0  0  0  0  0  0
  -21.9750   -7.4070   21.3490 O   0  0  0  0  0  0  0  0  0  0  0  0
  -21.8520   -6.7190   22.5300 C   0  0  0  0  0  0  0  0  0  0  0  0
  -21.3430   -7.3270   23.6980 C   0  0  0  0  0  3  0  0  0  0  0  0
  -21.1700   -6.5640   24.8700 C   0  0  0  0  0  3  0  0  0  0  0  0
  -21.4950   -5.1950   24.8740 C   0  0  0  0  0  0  0  0  0  0  0  0
  -21.9980   -4.5860   23.7110 C   0  0  0  0  0  3  0  0  0  0  0  0
  -22.1730   -5.3460   22.5410 C   0  0  0  0  0  0  0  0  0  0  0  0
  -22.6370   -4.7500   21.4170 F   0  0  0  0  0  0  0  0  0  0  0  0
  -21.3220   -4.4600   25.9990 F   0  0  0  0  0  0  0  0  0  0  0  0
  -23.2910  -14.0120   21.0920 C   0  0  0  0  0  0  0  0  0  0  0  0
  -22.5910  -13.3310   21.9920 N   0  0  0  0  0  0  0  0  0  0  0  0
  -22.8600  -15.0580   20.6090 O   0  0  0  0  0  0  0  0  0  0  0  0
  -22.9520  -12.4830   22.4030 H   0  0  0  0  0  0  0  0  0  0  0  0
  -21.6800  -13.6630   22.2760 H   0  0  0  0  0  0  0  0  0  0  0  0
  -25.9310  -15.5960   20.1540 N   0  0  0  0  0  0  0  0  0  0  0  0
  -25.1940  -16.2750   20.3080 H   0  0  0  0  0  0  0  0  0  0  0  0
  -26.7710  -16.0070   19.7650 H   0  0  0  0  0  0  0  0  0  0  0  0
  -28.1880  -25.6440   20.3190 C   0  0  0  0  0  2  0  0  0  0  0  0
  -28.4250  -26.8910   19.5990 O   0  0  0  0  0  0  0  0  0  0  0  0
  -24.5060  -31.7270   23.0950 C   0  0  0  0  0  0  0  0  0  0  0  0
  -27.2850  -27.6810   19.5940 C   0  0  0  0  0  0  0  0  0  0  0  0
  -23.3320  -30.3920   21.3810 C   0  0  0  0  0  3  0  0  0  0  0  0
  -24.8240  -29.0770   19.7820 C   0  0  0  0  0  0  0  0  0  0  0  0
  -25.8300  -30.9070   21.1470 C   0  0  0  0  0  2  0  0  0  0  0  0
  -25.9740  -29.6020   20.3870 C   0  0  0  0  0  0  0  0  0  0  0  0
  -27.2110  -28.9120   20.2950 C   0  0  0  0  0  3  0  0  0  0  0  0
  -26.1240  -27.2120   18.9390 C   0  0  0  0  0  3  0  0  0  0  0  0
  -24.8960  -27.8840   19.0500 C   0  0  0  0  0  3  0  0  0  0  0  0
  -23.5340  -29.8500   19.9410 C   0  0  0  0  0  2  0  0  0  0  0  0
  -24.5750  -31.0210   21.9320 N   0  0  0  0  0  0  0  0  0  0  0  0
  -23.4280  -31.8910   23.6840 O   0  0  0  0  0  0  0  0  0  0  0  0
  -22.7720  -29.2580   22.2690 C   0  0  0  0  0  0  0  0  0  0  0  0
  -21.4650  -28.9770   22.1330 N   0  0  0  0  0  0  0  0  0  0  0  0
  -23.5100  -28.6360   23.0390 O   0  0  0  0  0  0  0  0  0  0  0  0
  -20.9260  -29.5370   21.4870 H   0  0  0  0  0  0  0  0  0  0  0  0
  -18.2050  -27.4700   22.5460 C   0  0  0  0  0  0  0  0  0  0  0  0
  -20.7320  -27.9270   22.8420 C   0  0  0  0  0  3  0  0  0  0  0  0
  -20.9550  -26.5480   22.1800 C   0  0  0  0  0  2  0  0  0  0  0  0
  -19.8830  -26.1960   21.1440 C   0  0  0  0  0  2  0  0  0  0  0  0
  -18.4950  -26.1850   21.7900 C   0  0  0  0  0  2  0  0  0  0  0  0
  -19.2560  -28.2960   23.0270 C   0  0  0  0  0  0  0  0  0  0  0  0
  -18.9320  -29.4990   23.6920 C   0  0  0  0  0  3  0  0  0  0  0  0
  -17.5890  -29.8770   23.8820 C   0  0  0  0  0  3  0  0  0  0  0  0
  -16.5530  -29.0480   23.4190 C   0  0  0  0  0  3  0  0  0  0  0  0
  -16.8620  -27.8460   22.7560 C   0  0  0  0  0  3  0  0  0  0  0  0
  -25.7720  -32.3850   23.7270 C   0  0  0  0  0  3  0  0  0  0  0  0
  -25.4140  -33.7580   24.1070 N   0  0  0  0  0  0  0  0  0  0  0  0
  -25.7010  -34.8460   23.3820 C   0  0  0  0  0  0  0  0  0  0  0  0
  -26.3650  -34.8030   22.3430 O   0  0  0  0  0  0  0  0  0  0  0  0
  -24.8230  -33.8620   24.9190 H   0  0  0  0  0  0  0  0  0  0  0  0
  -23.8980  -36.5780   23.1060 C   0  0  0  0  0  1  0  0  0  0  0  0
  -25.1650  -36.1990   23.8900 C   0  0  0  0  0  3  0  0  0  0  0  0
  -27.2660  -37.1470   24.7340 C   0  0  0  0  0  1  0  0  0  0  0  0
  -26.1540  -37.2950   23.7990 N   0  0  0  0  0  0  0  0  0  0  0  0
  -25.7120  -38.1940   23.9720 H   0  0  0  0  0  0  0  0  0  0  0  0
  -26.3320  -31.5880   24.9690 C   0  0  1  0  0  0  0  0  0  0  0  0
  -25.2580  -31.2660   26.0350 C   0  0  0  0  0  1  0  0  0  0  0  0
  -26.9670  -30.2510   24.5200 C   0  0  0  0  0  1  0  0  0  0  0  0
  -27.4540  -32.4040   25.6520 C   0  0  0  0  0  1  0  0  0  0  0  0
  1  9  1  0
  2  3  1  0
  2  4  1  0
  3  8  1  0
  4 57  1  0
  4 10  1  1
  4  5  1  0
  5  6  1  1
  5  7  1  0
  8  5  1  0
  8  1  1  0
  9 11  1  0
  9 12  1  0
 13 15  2  0
 13 14  1  0
 14 17  2  0
 15 18  1  0
 16 17  1  0
 17  1  1  0
 18 27  1  0
 18 16  2  0
 19 25  1  0
 19 27  1  0
 20 25  1  0
 21 22  1  0
 21 20  1  0
 23 22  1  0
 23 32  1  0
 23 24  1  0
 25 24  1  0
 26 19  2  0
 27 28  1  0
 29 30  2  0
 30 49  1  0
 31 30  1  0
 31 34  1  0
 32 33  1  0
 32 29  1  0
 33 31  2  0
 34 35  1  0
 35 36  2  0
 37 40  1  0
 37 36  1  0
 38 37  2  0
 39 38  1  0
 39 34  2  0
 40 41  1  0
 41 46  2  0
 41 42  1  0
 42 43  2  0
 43 44  1  0
 44 48  1  0
 45 44  2  0
 46 45  1  0
 47 46  1  0
 49 50  1  0
 50 53  1  0
 50 52  1  0
 51 49  2  0
 54 55  1  0
 54 29  1  0
 56 54  1  0
 58 57  1  0
 59 70  2  0
 60 58  1  0
 60 65  1  0
 61 69  1  0
 61 71  1  0
 62 68  1  0
 62 64  1  0
 63 69  1  0
 64 63  1  0
 65 64  2  0
 66 67  1  0
 66 60  2  0
 67 62  2  0
 68 61  1  0
 69 59  1  0
 71 73  2  0
 72 71  1  0
 74 72  1  0
 75 84  2  0
 75 80  1  0
 76 72  1  0
 76 80  1  0
 77 76  1  0
 78 79  1  0
 78 77  1  0
 79 75  1  0
 80 81  2  0
 81 82  1  0
 83 82  2  0
 84 83  1  0
 85 59  1  0
 85 86  1  0
 85 95  1  0
 86 89  1  0
 87 91  1  0
 87 86  1  0
 88 87  2  0
 91 90  1  0
 93 91  1  0
 93 94  1  0
 93 92  1  0
 95 98  1  1
 95 96  1  0
 97 95  1  0
M  ISO  4  19 100  27 100  57 101  58 101
M  END
>  <TORSDO>  (69) 
F 18

>  <SCORE>  (69) 
-13.612

>  <name>  (69) 
68

>  <ligand_id>  (69) 
68

>  <original_smiles>  (69) 
[H]c1c([H])c(C(N2C([H])([H])C([H])([H])C(F)(C([H])([H])Oc3c([H])c([H])c4c(c3[H])C([H])([H])N(C(=O)C([H])(N([H])C(=O)C([H])(N([H])C([H])([H])[H])C([H])([H])[H])C(C([H])([H])[H])(C([H])([H])[H])C([H])([H])[H])C([H])(C(=O)N([H])C3([H])c5c([H])c([H])c([H])c([H])c5C([H])([H])C([H])([H])C3([H])[H])C4([H])[H])C2(C([H])([H])[H])C([H])([H])[H])=[N+]([H])[H])c([H])c(N([H])C(=O)N2C([H])([H])C([H])([H])C([H])([H])C([H])(n3nc(-c4c([H])c([H])c(Oc5c([H])c([H])c(F)c([H])c5F)c([H])c4[H])c(C(=O)N([H])[H])c3N([H])[H])C2([H])[H])c1[H]

>  <smiles>  (69) 
[H]c1c([H])c(C(N2C([H])([H])C([H])([H])C(F)(C([H])([H])Oc3c([H])c([H])c4c(c3[H])C([H])([H])N(C(=O)C([H])(N([H])C(=O)C([H])(N([H])C([H])([H])[H])C([H])([H])[H])C(C([H])([H])[H])(C([H])([H])[H])C([H])([H])[H])C([H])(C(=O)N([H])C3([H])c5c([H])c([H])c([H])c([H])c5C([H])([H])C([H])([H])C3([H])[H])C4([H])[H])C2(C([H])([H])[H])C([H])([H])[H])=[N+]([H])[H])c([H])c(N([H])C(=O)N2C([H])([H])C([H])([H])C([H])([H])C([H])(n3nc(-c4c([H])c([H])c(Oc5c([H])c([H])c(F)c([H])c5F)c([H])c4[H])c(C(=O)N([H])[H])c3N([H])[H])C2([H])[H])c1[H]

$$$$
69:0:0
     RDKit          3D

 94103  0  0  1  0  0  0  0  0999 V2000
  -27.1380  -19.6630   19.2180 C   0  0  0  0  0  3  0  0  0  0  0  0
  -27.4360  -20.9350   19.7410 C   0  0  0  0  0  3  0  0  0  0  0  0
  -29.4690  -20.0080   20.7470 C   0  0  0  0  0  3  0  0  0  0  0  0
  -28.0240  -18.5920   19.4260 C   0  0  0  0  0  0  0  0  0  0  0  0
  -29.1460  -18.6700   20.2510 C   0  0  0  0  0  0  0  0  0  0  0  0
  -28.6360  -21.1830   20.4480 C   0  0  0  0  0  0  0  0  0  0  0  0
  -28.0490  -17.3670   18.5630 C   0  0  0  0  0  2  0  0  0  0  0  0
  -29.5340  -16.9600   18.6330 C   0  0  0  0  0  2  0  0  0  0  0  0
  -30.0260  -17.3350   20.0580 C   0  0  0  0  0  3  0  0  0  0  0  0
  -30.6450  -14.8680   20.6580 C   0  0  0  0  0  0  0  0  0  0  0  0
  -30.5190  -12.5690   19.6920 C   0  0  0  0  0  2  0  0  0  0  0  0
  -29.6570  -12.6370   18.4110 C   0  0  0  0  0  2  0  0  0  0  0  0
  -28.1680  -12.4420   18.7680 C   0  0  0  0  0  2  0  0  0  0  0  0
  -27.7230  -13.3390   19.9590 C   0  0  0  0  0  3  0  0  0  0  0  0
  -28.7220  -13.2730   21.1370 C   0  0  0  0  0  2  0  0  0  0  0  0
  -30.0430  -13.6280   20.6120 N   0  0  0  0  0  0  0  0  0  0  0  0
  -31.8290  -14.9700   20.3220 O   0  0  0  0  0  0  0  0  0  0  0  0
  -29.8470  -16.0020   20.8080 N   0  0  0  0  0  0  0  0  0  0  0  0
  -28.9160  -15.8230   21.1520 H   0  0  0  0  0  0  0  0  0  0  0  0
  -25.3000  -13.9280   20.5740 C   0  0  0  0  0  0  0  0  0  0  0  0
  -24.2250  -13.1480   20.9050 C   0  0  0  0  0  0  0  0  0  0  0  0
  -24.7000  -11.8010   20.9100 C   0  0  0  0  0  0  0  0  0  0  0  0
  -26.3590  -13.0520   20.3860 N   0  0  0  0  0  0  0  0  0  0  0  0
  -26.0000  -11.7700   20.6520 N   0  0  0  0  0  0  0  0  0  0  0  0
  -23.9760  -10.5350   21.0850 C   0  0  0  0  0  0  0  0  0  0  0  0
  -24.3840   -9.5730   22.0370 C   0  0  0  0  0  3  0  0  0  0  0  0
  -23.6570   -8.3740   22.1980 C   0  0  0  0  0  3  0  0  0  0  0  0
  -22.5100   -8.1260   21.4070 C   0  0  0  0  0  0  0  0  0  0  0  0
  -22.1240   -9.0750   20.4440 C   0  0  0  0  0  3  0  0  0  0  0  0
  -22.8510  -10.2660   20.2790 C   0  0  0  0  0  3  0  0  0  0  0  0
  -21.7580   -6.9800   21.4750 O   0  0  0  0  0  0  0  0  0  0  0  0
  -21.6760   -6.2420   22.6290 C   0  0  0  0  0  0  0  0  0  0  0  0
  -21.2040   -6.7990   23.8370 C   0  0  0  0  0  3  0  0  0  0  0  0
  -21.0740   -5.9900   24.9830 C   0  0  0  0  0  3  0  0  0  0  0  0
  -21.4030   -4.6220   24.9210 C   0  0  0  0  0  0  0  0  0  0  0  0
  -21.8650   -4.0630   23.7170 C   0  0  0  0  0  3  0  0  0  0  0  0
  -21.9990   -4.8710   22.5740 C   0  0  0  0  0  0  0  0  0  0  0  0
  -22.4300   -4.3240   21.4110 F   0  0  0  0  0  0  0  0  0  0  0  0
  -21.2680   -3.8410   26.0180 F   0  0  0  0  0  0  0  0  0  0  0  0
  -22.8150  -13.6170   21.1090 C   0  0  0  0  0  0  0  0  0  0  0  0
  -22.0560  -12.9220   21.9510 N   0  0  0  0  0  0  0  0  0  0  0  0
  -22.3990  -14.6340   20.5570 O   0  0  0  0  0  0  0  0  0  0  0  0
  -22.4120  -12.0960   22.4040 H   0  0  0  0  0  0  0  0  0  0  0  0
  -21.1090  -13.2180   22.1450 H   0  0  0  0  0  0  0  0  0  0  0  0
  -25.4600  -15.2980   20.4020 N   0  0  0  0  0  0  0  0  0  0  0  0
  -24.6790  -15.9420   20.4530 H   0  0  0  0  0  0  0  0  0  0  0  0
  -26.3170  -15.7450   20.1070 H   0  0  0  0  0  0  0  0  0  0  0  0
  -28.9540  -22.5590   20.7840 N   0  0  0  0  0  0  0  0  0  0  0  0
  -29.8210  -22.7120   21.2920 H   0  0  0  0  0  0  0  0  0  0  0  0
  -28.3650  -23.8180   20.1380 C   0  0  0  0  0  2  0  0  0  0  0  0
  -27.8080  -25.2620   22.1950 C   0  0  0  0  0  1  0  0  0  0  0  0
  -30.0820  -25.4150   21.1470 C   0  0  0  0  0  1  0  0  0  0  0  0
  -28.5750  -25.2600   20.8640 C   0  0  1  0  0  0  0  0  0  0  0  0
  -28.3440  -26.5650   20.1510 O   0  0  0  0  0  0  0  0  0  0  0  0
  -24.5520  -31.9470   23.2520 C   0  0  0  0  0  0  0  0  0  0  0  0
  -27.1870  -27.3650   20.2300 C   0  0  0  0  0  0  0  0  0  0  0  0
  -23.3550  -30.5440   21.6060 C   0  0  0  0  0  3  0  0  0  0  0  0
  -24.8110  -28.9770   20.2040 C   0  0  0  0  0  0  0  0  0  0  0  0
  -25.8930  -30.8620   21.4320 C   0  0  0  0  0  2  0  0  0  0  0  0
  -25.9790  -29.4760   20.7960 C   0  0  0  0  0  0  0  0  0  0  0  0
  -27.1690  -28.6860   20.7900 C   0  0  0  0  0  3  0  0  0  0  0  0
  -25.9960  -26.9150   19.6250 C   0  0  0  0  0  3  0  0  0  0  0  0
  -24.8250  -27.7030   19.6070 C   0  0  0  0  0  3  0  0  0  0  0  0
  -23.5760  -29.8580   20.2330 C   0  0  0  0  0  2  0  0  0  0  0  0
  -24.6190  -31.1350   22.1560 N   0  0  0  0  0  0  0  0  0  0  0  0
  -23.4690  -32.2270   23.7810 O   0  0  0  0  0  0  0  0  0  0  0  0
  -22.6870  -29.5300   22.5670 C   0  0  0  0  0  0  0  0  0  0  0  0
  -21.3610  -29.3550   22.4390 N   0  0  0  0  0  0  0  0  0  0  0  0
  -23.3630  -28.9040   23.3920 O   0  0  0  0  0  0  0  0  0  0  0  0
  -20.8810  -29.9190   21.7530 H   0  0  0  0  0  0  0  0  0  0  0  0
  -17.9800  -28.1800   22.9530 C   0  0  0  0  0  0  0  0  0  0  0  0
  -20.5410  -28.4180   23.2110 C   0  0  0  0  0  3  0  0  0  0  0  0
  -20.6230  -26.9880   22.6280 C   0  0  0  0  0  2  0  0  0  0  0  0
  -19.5180  -26.6920   21.6110 C   0  0  0  0  0  2  0  0  0  0  0  0
  -18.1430  -26.8340   22.2690 C   0  0  0  0  0  2  0  0  0  0  0  0
  -19.1070  -28.9320   23.3790 C   0  0  0  0  0  0  0  0  0  0  0  0
  -18.8990  -30.1940   23.9770 C   0  0  0  0  0  3  0  0  0  0  0  0
  -17.6020  -30.7080   24.1510 C   0  0  0  0  0  3  0  0  0  0  0  0
  -16.4880  -29.9510   23.7450 C   0  0  0  0  0  3  0  0  0  0  0  0
  -16.6780  -28.6890   23.1530 C   0  0  0  0  0  3  0  0  0  0  0  0
  -25.8340  -32.5820   23.8770 C   0  0  0  0  0  3  0  0  0  0  0  0
  -26.3350  -31.8220   25.1670 C   0  0  1  0  0  0  0  0  0  0  0  0
  -25.2320  -31.6020   26.2270 C   0  0  0  0  0  1  0  0  0  0  0  0
  -26.9150  -30.4380   24.7980 C   0  0  0  0  0  1  0  0  0  0  0  0
  -27.4810  -32.6180   25.8330 C   0  0  0  0  0  1  0  0  0  0  0  0
  -25.5280  -33.9850   24.1890 N   0  0  0  0  0  0  0  0  0  0  0  0
  -25.8840  -35.0290   23.4280 C   0  0  0  0  0  0  0  0  0  0  0  0
  -26.5690  -34.9110   22.4090 O   0  0  0  0  0  0  0  0  0  0  0  0
  -24.9230  -34.1520   24.9800 H   0  0  0  0  0  0  0  0  0  0  0  0
  -24.1870  -36.8400   23.0210 C   0  0  0  0  0  1  0  0  0  0  0  0
  -25.4020  -36.4260   23.8670 C   0  0  0  0  0  3  0  0  0  0  0  0
  -27.5230  -37.2900   24.7500 C   0  0  0  0  0  1  0  0  0  0  0  0
  -26.4490  -37.4660   23.7760 N   0  0  0  0  0  0  0  0  0  0  0  0
  -26.0480  -38.3910   23.9060 H   0  0  0  0  0  0  0  0  0  0  0  0
  1  4  2  0
  1  2  1  0
  2  6  2  0
  4  5  1  0
  5  3  2  0
  6  3  1  0
  6 48  1  0
  7  8  1  0
  7  4  1  0
  8  9  1  0
  9  5  1  0
  9 18  1  0
 10 18  1  0
 11 16  1  0
 12 13  1  0
 12 11  1  0
 14 13  1  0
 14 23  1  0
 14 15  1  0
 16 10  1  0
 16 15  1  0
 17 10  2  0
 18 19  1  0
 20 21  2  0
 21 22  1  0
 21 40  1  0
 22 25  1  0
 23 20  1  0
 23 24  1  0
 24 22  2  0
 25 26  1  0
 26 27  2  0
 28 31  1  0
 28 27  1  0
 29 28  2  0
 30 29  1  0
 30 25  2  0
 31 32  1  0
 32 33  1  0
 33 34  2  0
 35 34  1  0
 35 39  1  0
 36 35  2  0
 37 32  2  0
 37 36  1  0
 38 37  1  0
 40 41  1  0
 41 44  1  0
 41 43  1  0
 42 40  2  0
 45 46  1  0
 45 20  1  0
 47 45  1  0
 48 49  1  0
 50 48  1  0
 50 53  1  0
 53 52  1  1
 53 51  1  0
 54 56  1  0
 54 53  1  0
 55 66  2  0
 56 61  1  0
 57 65  1  0
 57 67  1  0
 58 64  1  0
 58 60  1  0
 59 65  1  0
 60 59  1  0
 61 60  2  0
 62 56  2  0
 63 62  1  0
 63 58  2  0
 64 57  1  0
 65 55  1  0
 67 69  2  0
 68 67  1  0
 70 68  1  0
 71 80  2  0
 71 76  1  0
 72 68  1  0
 72 76  1  0
 73 72  1  0
 74 75  1  0
 74 73  1  0
 75 71  1  0
 76 77  2  0
 77 78  1  0
 79 78  2  0
 80 79  1  0
 81 55  1  0
 81 86  1  0
 81 82  1  0
 82 85  1  1
 82 83  1  0
 84 82  1  0
 86 89  1  0
 87 91  1  0
 87 86  1  0
 88 87  2  0
 91 90  1  0
 93 91  1  0
 93 94  1  0
 93 92  1  0
M  ISO  4  10 100  18 100  53 101  54 101
M  END
>  <TORSDO>  (70) 
F 19

>  <SCORE>  (70) 
-14.216

>  <name>  (70) 
69

>  <ligand_id>  (70) 
69

>  <original_smiles>  (70) 
[H]c1c([H])c([H])c2c(c1[H])C([H])([H])C([H])([H])C([H])([H])C2([H])N([H])C(=O)C1([H])N(C(=O)C([H])(N([H])C(=O)C([H])(N([H])C([H])([H])[H])C([H])([H])[H])C(C([H])([H])[H])(C([H])([H])[H])C([H])([H])[H])C([H])([H])c2c([H])c(OC(C([H])([H])[H])(C([H])([H])[H])C([H])([H])N([H])c3c([H])c([H])c4c(c3[H])C([H])(N([H])C(=O)N3C([H])([H])C([H])([H])C([H])([H])C([H])(n5nc(-c6c([H])c([H])c(Oc7c([H])c([H])c(F)c([H])c7F)c([H])c6[H])c(C(=O)N([H])[H])c5N([H])[H])C3([H])[H])C([H])([H])C4([H])[H])c([H])c([H])c2C1([H])[H]

>  <smiles>  (70) 
[H]c1c([H])c([H])c2c(c1[H])C([H])([H])C([H])([H])C([H])([H])C2([H])N([H])C(=O)C1([H])N(C(=O)C([H])(N([H])C(=O)C([H])(N([H])C([H])([H])[H])C([H])([H])[H])C(C([H])([H])[H])(C([H])([H])[H])C([H])([H])[H])C([H])([H])c2c([H])c(OC(C([H])([H])[H])(C([H])([H])[H])C([H])([H])N([H])c3c([H])c([H])c4c(c3[H])C([H])(N([H])C(=O)N3C([H])([H])C([H])([H])C([H])([H])C([H])(n5nc(-c6c([H])c([H])c(Oc7c([H])c([H])c(F)c([H])c7F)c([H])c6[H])c(C(=O)N([H])[H])c5N([H])[H])C3([H])[H])C([H])([H])C4([H])[H])c([H])c([H])c2C1([H])[H]

$$$$
70:0:0
     RDKit          3D

 91100  0  0  1  0  0  0  0  0999 V2000
  -28.9520  -21.5490   19.3270 C   0  0  0  0  0  2  0  0  0  0  0  0
  -29.8510  -21.6140   21.6360 C   0  0  0  0  0  2  0  0  0  0  0  0
  -28.2920  -22.9660   19.5270 C   0  0  0  0  0  2  0  0  0  0  0  0
  -29.1830  -23.0100   21.8610 C   0  0  0  0  0  2  0  0  0  0  0  0
  -29.0830  -20.7160   20.6360 C   0  0  0  0  0  3  0  0  0  0  0  0
  -28.9730  -23.8890   20.5870 C   0  0  0  0  0  3  0  0  0  0  0  0
  -29.0400  -17.9990   20.8510 C   0  0  0  0  0  3  0  0  0  0  0  0
  -29.6420  -19.2610   20.4930 C   0  0  0  0  0  0  0  0  0  0  0  0
  -29.9730  -17.0270   20.5430 C   0  0  0  0  0  0  0  0  0  0  0  0
  -30.8610  -19.0260   20.0040 N   0  0  0  0  0  0  0  0  0  0  0  0
  -31.0780  -17.6300   20.0260 O   0  0  0  0  0  0  0  0  0  0  0  0
  -30.5950  -14.6160   20.3190 C   0  0  0  0  0  0  0  0  0  0  0  0
  -30.3600  -12.3970   19.2290 C   0  0  0  0  0  2  0  0  0  0  0  0
  -29.4050  -12.5550   18.0240 C   0  0  0  0  0  2  0  0  0  0  0  0
  -27.9350  -12.3980   18.4630 C   0  0  0  0  0  2  0  0  0  0  0  0
  -27.5940  -13.2440   19.7190 C   0  0  0  0  0  3  0  0  0  0  0  0
  -28.6620  -13.0630   20.8230 C   0  0  0  0  0  2  0  0  0  0  0  0
  -29.9690  -13.4000   20.2400 N   0  0  0  0  0  0  0  0  0  0  0  0
  -31.7530  -14.7650   19.9160 O   0  0  0  0  0  0  0  0  0  0  0  0
  -29.8080  -15.6660   20.7070 N   0  0  0  0  0  0  0  0  0  0  0  0
  -28.9060  -15.3880   21.0570 H   0  0  0  0  0  0  0  0  0  0  0  0
  -25.2040  -13.8450   20.4470 C   0  0  0  0  0  0  0  0  0  0  0  0
  -24.1400  -13.0730   20.8250 C   0  0  0  0  0  0  0  0  0  0  0  0
  -24.6020  -11.7220   20.7960 C   0  0  0  0  0  0  0  0  0  0  0  0
  -26.2480  -12.9640   20.2100 N   0  0  0  0  0  0  0  0  0  0  0  0
  -25.8910  -11.6820   20.4810 N   0  0  0  0  0  0  0  0  0  0  0  0
  -23.8780  -10.4590   20.9940 C   0  0  0  0  0  0  0  0  0  0  0  0
  -24.3130   -9.4980   21.9330 C   0  0  0  0  0  3  0  0  0  0  0  0
  -23.5890   -8.3000   22.1180 C   0  0  0  0  0  3  0  0  0  0  0  0
  -22.4170   -8.0550   21.3640 C   0  0  0  0  0  0  0  0  0  0  0  0
  -22.0030   -9.0040   20.4140 C   0  0  0  0  0  3  0  0  0  0  0  0
  -22.7270  -10.1940   20.2270 C   0  0  0  0  0  3  0  0  0  0  0  0
  -21.6650   -6.9090   21.4570 O   0  0  0  0  0  0  0  0  0  0  0  0
  -21.6110   -6.1770   22.6160 C   0  0  0  0  0  0  0  0  0  0  0  0
  -21.1650   -6.7370   23.8320 C   0  0  0  0  0  3  0  0  0  0  0  0
  -21.0600   -5.9300   24.9830 C   0  0  0  0  0  3  0  0  0  0  0  0
  -21.3910   -4.5640   24.9180 C   0  0  0  0  0  0  0  0  0  0  0  0
  -21.8300   -4.0020   23.7070 C   0  0  0  0  0  3  0  0  0  0  0  0
  -21.9370   -4.8070   22.5580 C   0  0  0  0  0  0  0  0  0  0  0  0
  -22.3410   -4.2560   21.3880 F   0  0  0  0  0  0  0  0  0  0  0  0
  -21.2820   -3.7860   26.0210 F   0  0  0  0  0  0  0  0  0  0  0  0
  -22.7430  -13.5500   21.1040 C   0  0  0  0  0  0  0  0  0  0  0  0
  -22.0190  -12.8540   21.9730 N   0  0  0  0  0  0  0  0  0  0  0  0
  -22.3020  -14.5740   20.5830 O   0  0  0  0  0  0  0  0  0  0  0  0
  -22.3880  -12.0250   22.4150 H   0  0  0  0  0  0  0  0  0  0  0  0
  -21.0830  -13.1560   22.2010 H   0  0  0  0  0  0  0  0  0  0  0  0
  -25.3660  -15.2150   20.2630 N   0  0  0  0  0  0  0  0  0  0  0  0
  -24.5940  -15.8650   20.3670 H   0  0  0  0  0  0  0  0  0  0  0  0
  -26.2000  -15.6520   19.8910 H   0  0  0  0  0  0  0  0  0  0  0  0
  -28.1650  -25.2220   20.9450 C   0  0  0  0  0  2  0  0  0  0  0  0
  -28.3740  -26.4930   20.2330 O   0  0  0  0  0  0  0  0  0  0  0  0
  -24.6180  -31.8620   23.2410 C   0  0  0  0  0  0  0  0  0  0  0  0
  -27.2650  -27.3400   20.2020 C   0  0  0  0  0  0  0  0  0  0  0  0
  -23.4260  -30.4570   21.5950 C   0  0  0  0  0  3  0  0  0  0  0  0
  -24.8900  -28.9150   20.1770 C   0  0  0  0  0  0  0  0  0  0  0  0
  -25.9610  -30.7960   21.4190 C   0  0  0  0  0  2  0  0  0  0  0  0
  -26.0520  -29.4190   20.7760 C   0  0  0  0  0  0  0  0  0  0  0  0
  -27.2470  -28.6430   20.7790 C   0  0  0  0  0  3  0  0  0  0  0  0
  -26.0870  -26.8800   19.5760 C   0  0  0  0  0  3  0  0  0  0  0  0
  -24.9080  -27.6490   19.5680 C   0  0  0  0  0  3  0  0  0  0  0  0
  -23.6470  -29.7790   20.2170 C   0  0  0  0  0  2  0  0  0  0  0  0
  -24.6870  -31.0550   22.1430 N   0  0  0  0  0  0  0  0  0  0  0  0
  -23.5320  -32.1350   23.7730 O   0  0  0  0  0  0  0  0  0  0  0  0
  -22.7640  -29.4390   22.5540 C   0  0  0  0  0  0  0  0  0  0  0  0
  -21.4370  -29.2640   22.4270 N   0  0  0  0  0  0  0  0  0  0  0  0
  -23.4430  -28.8090   23.3690 O   0  0  0  0  0  0  0  0  0  0  0  0
  -20.9510  -29.8240   21.7400 H   0  0  0  0  0  0  0  0  0  0  0  0
  -18.0550  -28.0870   22.9330 C   0  0  0  0  0  0  0  0  0  0  0  0
  -20.6160  -28.3270   23.1950 C   0  0  0  0  0  3  0  0  0  0  0  0
  -20.7060  -26.8990   22.6100 C   0  0  0  0  0  2  0  0  0  0  0  0
  -19.5980  -26.5890   21.5980 C   0  0  0  0  0  2  0  0  0  0  0  0
  -18.2200  -26.7410   22.2480 C   0  0  0  0  0  2  0  0  0  0  0  0
  -19.1810  -28.8390   23.3630 C   0  0  0  0  0  0  0  0  0  0  0  0
  -18.9730  -30.1000   23.9630 C   0  0  0  0  0  3  0  0  0  0  0  0
  -17.6720  -30.6090   24.1370 C   0  0  0  0  0  3  0  0  0  0  0  0
  -16.5610  -29.8530   23.7230 C   0  0  0  0  0  3  0  0  0  0  0  0
  -16.7540  -28.5950   23.1270 C   0  0  0  0  0  3  0  0  0  0  0  0
  -25.8980  -32.4970   23.8680 C   0  0  0  0  0  3  0  0  0  0  0  0
  -25.5860  -33.8970   24.1890 N   0  0  0  0  0  0  0  0  0  0  0  0
  -25.9240  -34.9460   23.4270 C   0  0  0  0  0  0  0  0  0  0  0  0
  -26.5990  -34.8370   22.4010 O   0  0  0  0  0  0  0  0  0  0  0  0
  -24.9860  -34.0550   24.9860 H   0  0  0  0  0  0  0  0  0  0  0  0
  -24.2010  -36.7400   23.0490 C   0  0  0  0  0  1  0  0  0  0  0  0
  -25.4330  -36.3370   23.8740 C   0  0  0  0  0  3  0  0  0  0  0  0
  -27.5600  -37.2230   24.7250 C   0  0  0  0  0  1  0  0  0  0  0  0
  -26.4690  -37.3880   23.7680 N   0  0  0  0  0  0  0  0  0  0  0  0
  -26.0630  -38.3100   23.9060 H   0  0  0  0  0  0  0  0  0  0  0  0
  -26.4050  -31.7330   25.1520 C   0  0  1  0  0  0  0  0  0  0  0  0
  -25.3050  -31.5000   26.2140 C   0  0  0  0  0  1  0  0  0  0  0  0
  -26.9910  -30.3530   24.7710 C   0  0  0  0  0  1  0  0  0  0  0  0
  -27.5520  -32.5300   25.8180 C   0  0  0  0  0  1  0  0  0  0  0  0
  1  3  1  0
  1  5  1  0
  2  4  1  0
  3  6  1  0
  5  8  1  0
  5  2  1  0
  6 50  1  0
  6  4  1  0
  8  7  1  0
  9 20  1  0
  9  7  2  0
 10 11  1  0
 10  8  2  0
 11  9  1  0
 12 20  1  0
 13 18  1  0
 14 15  1  0
 14 13  1  0
 16 15  1  0
 16 25  1  0
 16 17  1  0
 18 12  1  0
 18 17  1  0
 19 12  2  0
 20 21  1  0
 22 23  2  0
 23 42  1  0
 24 23  1  0
 24 27  1  0
 25 22  1  0
 25 26  1  0
 26 24  2  0
 27 28  1  0
 28 29  2  0
 30 33  1  0
 30 29  1  0
 31 30  2  0
 32 31  1  0
 32 27  2  0
 33 34  1  0
 34 35  1  0
 35 36  2  0
 37 36  1  0
 37 41  1  0
 38 37  2  0
 39 34  2  0
 39 38  1  0
 40 39  1  0
 42 43  1  0
 43 46  1  0
 43 45  1  0
 44 42  2  0
 47 48  1  0
 47 22  1  0
 49 47  1  0
 51 50  1  0
 52 63  2  0
 53 51  1  0
 53 58  1  0
 54 62  1  0
 54 64  1  0
 55 61  1  0
 55 57  1  0
 56 62  1  0
 57 58  2  0
 57 56  1  0
 59 53  2  0
 60 59  1  0
 60 55  2  0
 61 54  1  0
 62 52  1  0
 64 66  2  0
 65 64  1  0
 67 65  1  0
 68 77  2  0
 68 73  1  0
 69 65  1  0
 69 73  1  0
 70 69  1  0
 71 72  1  0
 71 70  1  0
 72 68  1  0
 73 74  2  0
 74 75  1  0
 76 75  2  0
 77 76  1  0
 78 52  1  0
 78 79  1  0
 78 88  1  0
 79 82  1  0
 80 84  1  0
 80 79  1  0
 81 80  2  0
 84 83  1  0
 86 84  1  0
 86 87  1  0
 86 85  1  0
 88 91  1  1
 88 89  1  0
 90 88  1  0
M  ISO  4  12 100  20 100  50 101  51 101
M  END
>  <TORSDO>  (71) 
F 18

>  <SCORE>  (71) 
-14.776

>  <name>  (71) 
70

>  <ligand_id>  (71) 
70

>  <original_smiles>  (71) 
[H]c1c(C2([H])C([H])([H])C([H])([H])C([H])(C([H])([H])Oc3c([H])c([H])c4c(c3[H])C([H])([H])N(C(=O)C([H])(N([H])C(=O)C([H])(N([H])C([H])([H])[H])C([H])([H])[H])C(C([H])([H])[H])(C([H])([H])[H])C([H])([H])[H])C([H])(C(=O)N([H])C3([H])c5c([H])c([H])c([H])c([H])c5C([H])([H])C([H])([H])C3([H])[H])C4([H])[H])C([H])([H])C2([H])[H])noc1N([H])C(=O)N1C([H])([H])C([H])([H])C([H])([H])C([H])(n2nc(-c3c([H])c([H])c(Oc4c([H])c([H])c(F)c([H])c4F)c([H])c3[H])c(C(=O)N([H])[H])c2N([H])[H])C1([H])[H]

>  <smiles>  (71) 
[H]c1c(C2([H])C([H])([H])C([H])([H])C([H])(C([H])([H])Oc3c([H])c([H])c4c(c3[H])C([H])([H])N(C(=O)C([H])(N([H])C(=O)C([H])(N([H])C([H])([H])[H])C([H])([H])[H])C(C([H])([H])[H])(C([H])([H])[H])C([H])([H])[H])C([H])(C(=O)N([H])C3([H])c5c([H])c([H])c([H])c([H])c5C([H])([H])C([H])([H])C3([H])[H])C4([H])[H])C([H])([H])C2([H])[H])noc1N([H])C(=O)N1C([H])([H])C([H])([H])C([H])([H])C([H])(n2nc(-c3c([H])c([H])c(Oc4c([H])c([H])c(F)c([H])c4F)c([H])c3[H])c(C(=O)N([H])[H])c2N([H])[H])C1([H])[H]

$$$$
71:0:0
     RDKit          3D

 87 97  0  0  1  0  0  0  0  0999 V2000
  -30.4780  -21.3420   20.3670 C   0  0  0  0  0  3  0  0  0  0  0  0
  -30.1420  -22.7660   20.3290 C   0  0  0  0  0  3  0  0  0  0  0  0
  -29.3720  -20.5150   20.3040 C   0  0  0  0  0  0  0  0  0  0  0  0
  -28.7840  -22.9890   20.2460 C   0  0  0  0  0  0  0  0  0  0  0  0
  -28.3160  -21.5650   20.2250 O   0  0  0  0  0  0  0  0  0  0  0  0
  -30.4510  -15.2120   20.2370 C   0  0  0  0  0  0  0  0  0  0  0  0
  -30.3810  -12.8010   19.3250 C   0  0  0  0  0  2  0  0  0  0  0  0
  -29.4440  -12.6450   18.1030 C   0  0  0  0  0  2  0  0  0  0  0  0
  -27.9930  -12.3950   18.5550 C   0  0  0  0  0  2  0  0  0  0  0  0
  -27.5680  -13.3330   19.7140 C   0  0  0  0  0  3  0  0  0  0  0  0
  -28.6360  -13.4410   20.8220 C   0  0  0  0  0  2  0  0  0  0  0  0
  -29.8620  -13.9270   20.1760 N   0  0  0  0  0  0  0  0  0  0  0  0
  -31.6650  -15.2160   19.9880 O   0  0  0  0  0  0  0  0  0  0  0  0
  -29.7900  -17.6650   19.3100 C   0  0  0  0  0  3  0  0  0  0  0  0
  -29.8520  -17.6680   21.2770 C   0  0  0  0  0  3  0  0  0  0  0  0
  -29.2040  -18.7980   20.3100 C   0  0  0  0  0  3  0  0  0  0  0  0
  -29.7050  -16.4810   20.2990 N   0  0  0  0  0  0  0  0  0  0  0  0
  -25.2030  -13.8700   20.5040 C   0  0  0  0  0  0  0  0  0  0  0  0
  -24.1510  -13.0810   20.8780 C   0  0  0  0  0  0  0  0  0  0  0  0
  -24.6290  -11.7340   20.8300 C   0  0  0  0  0  0  0  0  0  0  0  0
  -26.2490  -13.0050   20.2390 N   0  0  0  0  0  0  0  0  0  0  0  0
  -25.9170  -11.7140   20.5030 N   0  0  0  0  0  0  0  0  0  0  0  0
  -23.9140  -10.4640   21.0180 C   0  0  0  0  0  0  0  0  0  0  0  0
  -24.3510   -9.5010   21.9540 C   0  0  0  0  0  3  0  0  0  0  0  0
  -23.6330   -8.2970   22.1330 C   0  0  0  0  0  3  0  0  0  0  0  0
  -22.4650   -8.0490   21.3750 C   0  0  0  0  0  0  0  0  0  0  0  0
  -22.0480   -9.0000   20.4260 C   0  0  0  0  0  3  0  0  0  0  0  0
  -22.7660  -10.1950   20.2460 C   0  0  0  0  0  3  0  0  0  0  0  0
  -21.7200   -6.8980   21.4620 O   0  0  0  0  0  0  0  0  0  0  0  0
  -21.6560   -6.1660   22.6200 C   0  0  0  0  0  0  0  0  0  0  0  0
  -21.1830   -6.7250   23.8280 C   0  0  0  0  0  3  0  0  0  0  0  0
  -21.0670   -5.9190   24.9780 C   0  0  0  0  0  3  0  0  0  0  0  0
  -21.4160   -4.5560   24.9220 C   0  0  0  0  0  0  0  0  0  0  0  0
  -21.8820   -3.9970   23.7190 C   0  0  0  0  0  3  0  0  0  0  0  0
  -21.9980   -4.8000   22.5710 C   0  0  0  0  0  0  0  0  0  0  0  0
  -22.4280   -4.2510   21.4090 F   0  0  0  0  0  0  0  0  0  0  0  0
  -21.2970   -3.7800   26.0250 F   0  0  0  0  0  0  0  0  0  0  0  0
  -22.7530  -13.5440   21.1640 C   0  0  0  0  0  0  0  0  0  0  0  0
  -22.0410  -12.8400   22.0390 N   0  0  0  0  0  0  0  0  0  0  0  0
  -22.2990  -14.5640   20.6490 O   0  0  0  0  0  0  0  0  0  0  0  0
  -22.4230  -12.0180   22.4800 H   0  0  0  0  0  0  0  0  0  0  0  0
  -21.1010  -13.1300   22.2700 H   0  0  0  0  0  0  0  0  0  0  0  0
  -25.3510  -15.2440   20.3390 N   0  0  0  0  0  0  0  0  0  0  0  0
  -24.5820  -15.8900   20.4800 H   0  0  0  0  0  0  0  0  0  0  0  0
  -26.1980  -15.6970   20.0220 H   0  0  0  0  0  0  0  0  0  0  0  0
  -27.7950  -24.3780   20.0840 C   0  0  0  0  0  2  0  0  0  0  0  0
  -28.1720  -25.9420   20.2960 O   0  0  0  0  0  0  0  0  0  0  0  0
  -24.6500  -31.8850   23.2620 C   0  0  0  0  0  0  0  0  0  0  0  0
  -27.1750  -27.0360   20.2320 C   0  0  0  0  0  0  0  0  0  0  0  0
  -23.4460  -30.5000   21.6200 C   0  0  0  0  0  3  0  0  0  0  0  0
  -24.8840  -28.9010   20.1970 C   0  0  0  0  0  0  0  0  0  0  0  0
  -26.0120  -30.7080   21.4710 C   0  0  0  0  0  2  0  0  0  0  0  0
  -26.0730  -29.3040   20.8150 C   0  0  0  0  0  0  0  0  0  0  0  0
  -27.2160  -28.3910   20.8130 C   0  0  0  0  0  3  0  0  0  0  0  0
  -25.9560  -26.7780   19.5650 C   0  0  0  0  0  3  0  0  0  0  0  0
  -24.8470  -27.6550   19.5530 C   0  0  0  0  0  3  0  0  0  0  0  0
  -23.6700  -29.8230   20.2420 C   0  0  0  0  0  2  0  0  0  0  0  0
  -24.7240  -31.0560   22.1720 N   0  0  0  0  0  0  0  0  0  0  0  0
  -23.5640  -32.1810   23.7830 O   0  0  0  0  0  0  0  0  0  0  0  0
  -22.7490  -29.5030   22.5830 C   0  0  0  0  0  0  0  0  0  0  0  0
  -21.4180  -29.3440   22.4570 N   0  0  0  0  0  0  0  0  0  0  0  0
  -23.4100  -28.8750   23.4130 O   0  0  0  0  0  0  0  0  0  0  0  0
  -20.9370  -29.9020   21.7660 H   0  0  0  0  0  0  0  0  0  0  0  0
  -18.0320  -28.1490   22.9570 C   0  0  0  0  0  0  0  0  0  0  0  0
  -20.5910  -28.4120   23.2300 C   0  0  0  0  0  3  0  0  0  0  0  0
  -20.6930  -26.9770   22.6610 C   0  0  0  0  0  2  0  0  0  0  0  0
  -19.5940  -26.6520   21.6450 C   0  0  0  0  0  2  0  0  0  0  0  0
  -18.2100  -26.8000   22.2830 C   0  0  0  0  0  2  0  0  0  0  0  0
  -19.1490  -28.9130   23.3890 C   0  0  0  0  0  0  0  0  0  0  0  0
  -18.9270  -30.1730   23.9840 C   0  0  0  0  0  3  0  0  0  0  0  0
  -17.6200  -30.6730   24.1470 C   0  0  0  0  0  3  0  0  0  0  0  0
  -16.5180  -29.9080   23.7300 C   0  0  0  0  0  3  0  0  0  0  0  0
  -16.7240  -28.6460   23.1440 C   0  0  0  0  0  3  0  0  0  0  0  0
  -25.9270  -32.5170   23.8940 C   0  0  0  0  0  3  0  0  0  0  0  0
  -25.6220  -33.9200   24.2240 N   0  0  0  0  0  0  0  0  0  0  0  0
  -25.9310  -34.9740   23.4580 C   0  0  0  0  0  0  0  0  0  0  0  0
  -26.5680  -34.8690   22.4070 O   0  0  0  0  0  0  0  0  0  0  0  0
  -25.0550  -34.0790   25.0460 H   0  0  0  0  0  0  0  0  0  0  0  0
  -24.1820  -36.7640   23.1830 C   0  0  0  0  0  1  0  0  0  0  0  0
  -25.4640  -36.3660   23.9320 C   0  0  0  0  0  3  0  0  0  0  0  0
  -27.6310  -37.2730   24.6500 C   0  0  0  0  0  1  0  0  0  0  0  0
  -26.4840  -37.4220   23.7580 N   0  0  0  0  0  0  0  0  0  0  0  0
  -26.0800  -38.3420   23.9110 H   0  0  0  0  0  0  0  0  0  0  0  0
  -26.4260  -31.7500   25.1800 C   0  0  1  0  0  0  0  0  0  0  0  0
  -25.3220  -31.5310   26.2400 C   0  0  0  0  0  1  0  0  0  0  0  0
  -26.9990  -30.3630   24.8080 C   0  0  0  0  0  1  0  0  0  0  0  0
  -27.5780  -32.5390   25.8460 C   0  0  0  0  0  1  0  0  0  0  0  0
  2  1  1  0
  3  1  2  0
  4  2  2  0
  5  4  1  0
  5  3  1  0
  6 17  1  0
  7 12  1  0
  8  9  1  0
  8  7  1  0
 10  9  1  0
 10 21  1  0
 10 11  1  0
 12  6  1  0
 12 11  1  0
 13  6  2  0
 14 17  1  0
 14 16  1  0
 14 15  1  0
 15 17  1  0
 16  3  1  0
 16 15  1  0
 18 19  2  0
 19 38  1  0
 20 19  1  0
 20 23  1  0
 21 22  1  0
 21 18  1  0
 22 20  2  0
 23 24  1  0
 24 25  2  0
 26 29  1  0
 26 25  1  0
 27 26  2  0
 28 27  1  0
 28 23  2  0
 29 30  1  0
 30 31  1  0
 31 32  2  0
 33 32  1  0
 33 37  1  0
 34 33  2  0
 35 30  2  0
 35 34  1  0
 36 35  1  0
 38 39  1  0
 39 42  1  0
 39 41  1  0
 40 38  2  0
 43 44  1  0
 43 18  1  0
 45 43  1  0
 46  4  1  0
 46 47  1  0
 48 59  2  0
 49 47  1  0
 49 54  1  0
 50 58  1  0
 50 60  1  0
 51 57  1  0
 51 53  1  0
 52 58  1  0
 53 52  1  0
 54 53  2  0
 55 49  2  0
 56 55  1  0
 56 51  2  0
 57 50  1  0
 58 48  1  0
 60 62  2  0
 61 60  1  0
 63 61  1  0
 64 73  2  0
 64 69  1  0
 65 61  1  0
 65 69  1  0
 66 65  1  0
 67 68  1  0
 67 66  1  0
 68 64  1  0
 69 70  2  0
 70 71  1  0
 72 71  2  0
 73 72  1  0
 74 48  1  0
 74 75  1  0
 74 84  1  0
 75 78  1  0
 76 80  1  0
 76 75  1  0
 77 76  2  0
 80 79  1  0
 82 83  1  0
 82 80  1  0
 82 81  1  0
 84 87  1  1
 84 85  1  0
 86 84  1  0
M  ISO  4   6 100  17 100  46 101  47 101
M  END
>  <TORSDO>  (72) 
F 17

>  <SCORE>  (72) 
-16.155

>  <name>  (72) 
71

>  <ligand_id>  (72) 
71

>  <original_smiles>  (72) 
[H]c1c(C([H])([H])Oc2c([H])c([H])c3c(c2[H])C([H])([H])N(C(=O)C([H])(N([H])C(=O)C([H])(N([H])C([H])([H])[H])C([H])([H])[H])C(C([H])([H])[H])(C([H])([H])[H])C([H])([H])[H])C([H])(C(=O)N([H])C2([H])c4c([H])c([H])c([H])c([H])c4C([H])([H])C([H])([H])C2([H])[H])C3([H])[H])oc(C2([H])C([H])([H])N(C(=O)N3C([H])([H])C([H])([H])C([H])([H])C([H])(n4nc(-c5c([H])c([H])c(Oc6c([H])c([H])c(F)c([H])c6F)c([H])c5[H])c(C(=O)N([H])[H])c4N([H])[H])C3([H])[H])C2([H])[H])c1[H]

>  <smiles>  (72) 
[H]c1c(C([H])([H])Oc2c([H])c([H])c3c(c2[H])C([H])([H])N(C(=O)C([H])(N([H])C(=O)C([H])(N([H])C([H])([H])[H])C([H])([H])[H])C(C([H])([H])[H])(C([H])([H])[H])C([H])([H])[H])C([H])(C(=O)N([H])C2([H])c4c([H])c([H])c([H])c([H])c4C([H])([H])C([H])([H])C2([H])[H])C3([H])[H])oc(C2([H])C([H])([H])N(C(=O)N3C([H])([H])C([H])([H])C([H])([H])C([H])(n4nc(-c5c([H])c([H])c(Oc6c([H])c([H])c(F)c([H])c6F)c([H])c5[H])c(C(=O)N([H])[H])c4N([H])[H])C3([H])[H])C2([H])[H])c1[H]

$$$$
72:0:0
     RDKit          3D

 91100  0  0  1  0  0  0  0  0999 V2000
  -29.3520  -22.0500   20.4930 N   0  0  0  0  0  0  0  0  0  0  0  0
  -30.2120  -22.3150   20.9680 H   0  0  0  0  0  0  0  0  0  0  0  0
  -30.5670  -15.1970   20.5640 C   0  0  0  0  0  0  0  0  0  0  0  0
  -30.5610  -12.7680   19.7820 C   0  0  0  0  0  2  0  0  0  0  0  0
  -29.6800  -12.5430   18.5310 C   0  0  0  0  0  2  0  0  0  0  0  0
  -28.1940  -12.3660   18.9120 C   0  0  0  0  0  2  0  0  0  0  0  0
  -27.7080  -13.3390   20.0210 C   0  0  0  0  0  3  0  0  0  0  0  0
  -28.7290  -13.4840   21.1660 C   0  0  0  0  0  2  0  0  0  0  0  0
  -29.9950  -13.9140   20.5500 N   0  0  0  0  0  0  0  0  0  0  0  0
  -31.8030  -15.2350   20.5550 O   0  0  0  0  0  0  0  0  0  0  0  0
  -28.5210  -19.8140   19.3940 C   0  0  0  0  0  3  0  0  0  0  0  0
  -28.7870  -18.3680   19.3550 C   0  0  0  0  0  0  0  0  0  0  0  0
  -29.6220  -17.7700   20.2700 C   0  0  0  0  0  0  0  0  0  0  0  0
  -29.2260  -20.5520   20.3320 C   0  0  0  0  0  0  0  0  0  0  0  0
  -28.3550  -17.3380   18.3870 C   0  0  0  0  0  2  0  0  0  0  0  0
  -29.3480  -16.1890   18.6830 C   0  0  0  0  0  2  0  0  0  0  0  0
  -29.8030  -16.3350   20.0860 N   0  0  0  0  0  0  0  0  0  0  0  0
  -30.1930  -19.2270   21.2280 S   0  0  0  0  0  0  0  0  0  0  0  0
  -25.3100  -13.9250   20.6730 C   0  0  0  0  0  0  0  0  0  0  0  0
  -24.2310  -13.1500   20.9910 C   0  0  0  0  0  0  0  0  0  0  0  0
  -24.6980  -11.8000   20.9860 C   0  0  0  0  0  0  0  0  0  0  0  0
  -26.3610  -13.0430   20.4830 N   0  0  0  0  0  0  0  0  0  0  0  0
  -26.0010  -11.7610   20.7370 N   0  0  0  0  0  0  0  0  0  0  0  0
  -23.9670  -10.5390   21.1460 C   0  0  0  0  0  0  0  0  0  0  0  0
  -24.3650   -9.5700   22.0930 C   0  0  0  0  0  3  0  0  0  0  0  0
  -23.6340   -8.3730   22.2430 C   0  0  0  0  0  3  0  0  0  0  0  0
  -22.4900   -8.1360   21.4430 C   0  0  0  0  0  0  0  0  0  0  0  0
  -22.1130   -9.0930   20.4840 C   0  0  0  0  0  3  0  0  0  0  0  0
  -22.8460  -10.2810   20.3330 C   0  0  0  0  0  3  0  0  0  0  0  0
  -21.7340   -6.9910   21.5020 O   0  0  0  0  0  0  0  0  0  0  0  0
  -21.6430   -6.2480   22.6510 C   0  0  0  0  0  0  0  0  0  0  0  0
  -21.1500   -6.7960   23.8550 C   0  0  0  0  0  3  0  0  0  0  0  0
  -21.0080   -5.9770   24.9930 C   0  0  0  0  0  3  0  0  0  0  0  0
  -21.3490   -4.6140   24.9280 C   0  0  0  0  0  0  0  0  0  0  0  0
  -21.8350   -4.0650   23.7280 C   0  0  0  0  0  3  0  0  0  0  0  0
  -21.9790   -4.8800   22.5920 C   0  0  0  0  0  0  0  0  0  0  0  0
  -22.4290   -4.3420   21.4320 F   0  0  0  0  0  0  0  0  0  0  0  0
  -21.2040   -3.8260   26.0190 F   0  0  0  0  0  0  0  0  0  0  0  0
  -22.8230  -13.6280   21.1930 C   0  0  0  0  0  0  0  0  0  0  0  0
  -22.0560  -12.9320   22.0250 N   0  0  0  0  0  0  0  0  0  0  0  0
  -22.4100  -14.6520   20.6490 O   0  0  0  0  0  0  0  0  0  0  0  0
  -22.4030  -12.1050   22.4880 H   0  0  0  0  0  0  0  0  0  0  0  0
  -21.1080  -13.2330   22.2030 H   0  0  0  0  0  0  0  0  0  0  0  0
  -25.4820  -15.2970   20.5040 N   0  0  0  0  0  0  0  0  0  0  0  0
  -24.7190  -15.9570   20.6090 H   0  0  0  0  0  0  0  0  0  0  0  0
  -26.3640  -15.7420   20.2850 H   0  0  0  0  0  0  0  0  0  0  0  0
  -28.3270  -23.2550   20.4760 C   0  0  0  0  0  2  0  0  0  0  0  0
  -30.1950  -24.9470   19.9660 C   0  0  0  0  0  1  0  0  0  0  0  0
  -28.3360  -24.7740   18.3450 C   0  0  0  0  0  1  0  0  0  0  0  0
  -28.6650  -24.8160   19.8470 C   0  0  1  0  0  0  0  0  0  0  0  0
  -28.3330  -26.2710   20.3770 O   0  0  0  0  0  0  0  0  0  0  0  0
  -24.5880  -31.9270   23.2430 C   0  0  0  0  0  0  0  0  0  0  0  0
  -27.2260  -27.2000   20.2370 C   0  0  0  0  0  0  0  0  0  0  0  0
  -23.4060  -30.5120   21.6050 C   0  0  0  0  0  3  0  0  0  0  0  0
  -24.8740  -28.9350   20.1890 C   0  0  0  0  0  0  0  0  0  0  0  0
  -25.9580  -30.7930   21.4500 C   0  0  0  0  0  2  0  0  0  0  0  0
  -26.0440  -29.3960   20.8010 C   0  0  0  0  0  0  0  0  0  0  0  0
  -27.2120  -28.5420   20.8070 C   0  0  0  0  0  3  0  0  0  0  0  0
  -26.0220  -26.8380   19.5950 C   0  0  0  0  0  3  0  0  0  0  0  0
  -24.8760  -27.6730   19.5710 C   0  0  0  0  0  3  0  0  0  0  0  0
  -23.6370  -29.8250   20.2310 C   0  0  0  0  0  2  0  0  0  0  0  0
  -24.6710  -31.1010   22.1540 N   0  0  0  0  0  0  0  0  0  0  0  0
  -23.4970  -32.2060   23.7650 O   0  0  0  0  0  0  0  0  0  0  0  0
  -22.7300  -29.5090   22.5720 C   0  0  0  0  0  0  0  0  0  0  0  0
  -21.4040  -29.3280   22.4420 N   0  0  0  0  0  0  0  0  0  0  0  0
  -23.4030  -28.8940   23.4050 O   0  0  0  0  0  0  0  0  0  0  0  0
  -20.9160  -29.8750   21.7470 H   0  0  0  0  0  0  0  0  0  0  0  0
  -18.0300  -28.1030   22.9430 C   0  0  0  0  0  0  0  0  0  0  0  0
  -20.5870  -28.3870   23.2150 C   0  0  0  0  0  3  0  0  0  0  0  0
  -20.7010  -26.9540   22.6470 C   0  0  0  0  0  2  0  0  0  0  0  0
  -19.6050  -26.6190   21.6300 C   0  0  0  0  0  2  0  0  0  0  0  0
  -18.2200  -26.7530   22.2710 C   0  0  0  0  0  2  0  0  0  0  0  0
  -19.1410  -28.8770   23.3710 C   0  0  0  0  0  0  0  0  0  0  0  0
  -18.9090  -30.1380   23.9620 C   0  0  0  0  0  3  0  0  0  0  0  0
  -17.5990  -30.6260   24.1260 C   0  0  0  0  0  3  0  0  0  0  0  0
  -16.5030  -29.8510   23.7110 C   0  0  0  0  0  3  0  0  0  0  0  0
  -16.7200  -28.5910   23.1260 C   0  0  0  0  0  3  0  0  0  0  0  0
  -25.8570  -32.5780   23.8730 C   0  0  0  0  0  3  0  0  0  0  0  0
  -25.5360  -33.9810   24.1840 N   0  0  0  0  0  0  0  0  0  0  0  0
  -25.8850  -35.0310   23.4280 C   0  0  0  0  0  0  0  0  0  0  0  0
  -26.5740  -34.9200   22.4100 O   0  0  0  0  0  0  0  0  0  0  0  0
  -24.9260  -34.1400   24.9710 H   0  0  0  0  0  0  0  0  0  0  0  0
  -24.1760  -36.8350   23.0220 C   0  0  0  0  0  1  0  0  0  0  0  0
  -25.3920  -36.4240   23.8680 C   0  0  0  0  0  3  0  0  0  0  0  0
  -27.5050  -37.3050   24.7580 C   0  0  0  0  0  1  0  0  0  0  0  0
  -26.4320  -37.4730   23.7820 N   0  0  0  0  0  0  0  0  0  0  0  0
  -26.0250  -38.3960   23.9120 H   0  0  0  0  0  0  0  0  0  0  0  0
  -26.3570  -31.8320   25.1730 C   0  0  1  0  0  0  0  0  0  0  0  0
  -25.2500  -31.6140   26.2320 C   0  0  0  0  0  1  0  0  0  0  0  0
  -26.9470  -30.4470   24.8200 C   0  0  0  0  0  1  0  0  0  0  0  0
  -27.4980  -32.6400   25.8340 C   0  0  0  0  0  1  0  0  0  0  0  0
  1  2  1  0
  4  9  1  0
  5  6  1  0
  5  4  1  0
  7  6  1  0
  7 22  1  0
  7  8  1  0
  9  3  1  0
  9  8  1  0
 10  3  2  0
 11 14  2  0
 12 11  1  0
 12 13  2  0
 13 18  1  0
 14  1  1  0
 14 18  1  0
 15 16  1  0
 15 12  1  0
 16 17  1  0
 17 13  1  0
 17  3  1  0
 19 20  2  0
 20 39  1  0
 21 20  1  0
 21 24  1  0
 22 19  1  0
 22 23  1  0
 23 21  2  0
 24 25  1  0
 25 26  2  0
 27 30  1  0
 27 26  1  0
 28 27  2  0
 29 28  1  0
 29 24  2  0
 30 31  1  0
 31 32  1  0
 32 33  2  0
 34 33  1  0
 34 38  1  0
 35 34  2  0
 36 31  2  0
 36 35  1  0
 37 36  1  0
 39 40  1  0
 40 43  1  0
 40 42  1  0
 41 39  2  0
 44 45  1  0
 44 19  1  0
 46 44  1  0
 47  1  1  0
 50 49  1  6
 50 48  1  0
 50 51  1  0
 50 47  1  0
 52 63  2  0
 53 51  1  0
 53 58  1  0
 54 62  1  0
 54 64  1  0
 55 61  1  0
 55 57  1  0
 56 62  1  0
 57 58  2  0
 57 56  1  0
 59 53  2  0
 60 59  1  0
 60 55  2  0
 61 54  1  0
 62 52  1  0
 64 66  2  0
 65 64  1  0
 67 65  1  0
 68 77  2  0
 68 73  1  0
 69 65  1  0
 69 73  1  0
 70 69  1  0
 71 72  1  0
 71 70  1  0
 72 68  1  0
 73 74  2  0
 74 75  1  0
 76 75  2  0
 77 76  1  0
 78 52  1  0
 78 79  1  0
 78 88  1  0
 79 82  1  0
 80 84  1  0
 80 79  1  0
 81 80  2  0
 84 83  1  0
 86 84  1  0
 86 87  1  0
 86 85  1  0
 88 91  1  1
 88 89  1  0
 90 88  1  0
M  ISO  4   3 100  17 100  50 101  51 101
M  END
>  <TORSDO>  (73) 
F 18

>  <SCORE>  (73) 
-14.833

>  <name>  (73) 
72

>  <ligand_id>  (73) 
72

>  <original_smiles>  (73) 
[H]c1c([H])c([H])c2c(c1[H])C([H])([H])C([H])([H])C([H])([H])C2([H])N([H])C(=O)C1([H])N(C(=O)C([H])(N([H])C(=O)C([H])(N([H])C([H])([H])[H])C([H])([H])[H])C(C([H])([H])[H])(C([H])([H])[H])C([H])([H])[H])C([H])([H])c2c([H])c(OC(C([H])([H])[H])(C([H])([H])[H])C([H])([H])N([H])c3sc4c(c3[H])C([H])([H])C([H])([H])N4C(=O)N3C([H])([H])C([H])([H])C([H])([H])C([H])(n4nc(-c5c([H])c([H])c(Oc6c([H])c([H])c(F)c([H])c6F)c([H])c5[H])c(C(=O)N([H])[H])c4N([H])[H])C3([H])[H])c([H])c([H])c2C1([H])[H]

>  <smiles>  (73) 
[H]c1c([H])c([H])c2c(c1[H])C([H])([H])C([H])([H])C([H])([H])C2([H])N([H])C(=O)C1([H])N(C(=O)C([H])(N([H])C(=O)C([H])(N([H])C([H])([H])[H])C([H])([H])[H])C(C([H])([H])[H])(C([H])([H])[H])C([H])([H])[H])C([H])([H])c2c([H])c(OC(C([H])([H])[H])(C([H])([H])[H])C([H])([H])N([H])c3sc4c(c3[H])C([H])([H])C([H])([H])N4C(=O)N3C([H])([H])C([H])([H])C([H])([H])C([H])(n4nc(-c5c([H])c([H])c(Oc6c([H])c([H])c(F)c([H])c6F)c([H])c5[H])c(C(=O)N([H])[H])c4N([H])[H])C3([H])[H])c([H])c([H])c2C1([H])[H]

$$$$
73:0:0
     RDKit          3D

 94103  0  0  1  0  0  0  0  0999 V2000
  -28.7980  -20.6120   21.0160 C   0  0  0  0  0  0  0  0  0  0  0  0
  -30.2850  -24.0040   20.3310 C   0  0  0  0  0  2  0  0  0  0  0  0
  -30.4440  -22.4670   20.3480 C   0  0  0  0  0  2  0  0  0  0  0  0
  -28.3400  -23.0550   21.2720 C   0  0  0  0  0  2  0  0  0  0  0  0
  -28.7750  -24.2600   20.4010 C   0  0  2  0  0  0  0  0  0  0  0  0
  -28.1320  -24.1160   19.0060 C   0  0  0  0  0  1  0  0  0  0  0  0
  -29.1820  -21.9170   20.8680 N   0  0  0  0  0  0  0  0  0  0  0  0
  -27.8580  -20.3080   21.7570 O   0  0  0  0  0  0  0  0  0  0  0  0
  -30.2390  -18.6000   18.0790 C   0  0  0  0  0  3  0  0  0  0  0  0
  -29.7200  -19.6560   18.8460 C   0  0  0  0  0  3  0  0  0  0  0  0
  -30.4580  -17.3390   18.6580 C   0  0  0  0  0  3  0  0  0  0  0  0
  -29.6550  -18.1940   20.7920 C   0  0  0  0  0  3  0  0  0  0  0  0
  -29.4610  -19.4930   20.2240 C   0  0  0  0  0  0  0  0  0  0  0  0
  -30.1450  -17.1000   20.0180 C   0  0  0  0  0  0  0  0  0  0  0  0
  -30.9090  -14.7160   20.0540 C   0  0  0  0  0  0  0  0  0  0  0  0
  -30.5780  -12.5410   18.9350 C   0  0  0  0  0  2  0  0  0  0  0  0
  -29.5760  -12.7490   17.7780 C   0  0  0  0  0  2  0  0  0  0  0  0
  -28.1270  -12.6070   18.2810 C   0  0  0  0  0  2  0  0  0  0  0  0
  -27.8550  -13.4340   19.5640 C   0  0  0  0  0  3  0  0  0  0  0  0
  -28.9640  -13.2100   20.6190 C   0  0  0  0  0  2  0  0  0  0  0  0
  -30.2570  -13.5210   19.9890 N   0  0  0  0  0  0  0  0  0  0  0  0
  -32.0280  -14.8810   19.5560 O   0  0  0  0  0  0  0  0  0  0  0  0
  -30.2040  -15.7620   20.5560 N   0  0  0  0  0  0  0  0  0  0  0  0
  -29.4270  -15.5060   21.1470 H   0  0  0  0  0  0  0  0  0  0  0  0
  -25.5050  -14.0400   20.4150 C   0  0  0  0  0  0  0  0  0  0  0  0
  -24.4510  -13.2680   20.8210 C   0  0  0  0  0  0  0  0  0  0  0  0
  -24.8980  -11.9140   20.7320 C   0  0  0  0  0  0  0  0  0  0  0  0
  -26.5280  -13.1570   20.1060 N   0  0  0  0  0  0  0  0  0  0  0  0
  -26.1680  -11.8710   20.3550 N   0  0  0  0  0  0  0  0  0  0  0  0
  -24.1700  -10.6530   20.9310 C   0  0  0  0  0  0  0  0  0  0  0  0
  -24.6090   -9.6860   21.8640 C   0  0  0  0  0  3  0  0  0  0  0  0
  -23.8850   -8.4890   22.0480 C   0  0  0  0  0  3  0  0  0  0  0  0
  -22.7070   -8.2500   21.3010 C   0  0  0  0  0  0  0  0  0  0  0  0
  -22.2870   -9.2060   20.3580 C   0  0  0  0  0  3  0  0  0  0  0  0
  -23.0120  -10.3940   20.1720 C   0  0  0  0  0  3  0  0  0  0  0  0
  -21.9510   -7.1060   21.3970 O   0  0  0  0  0  0  0  0  0  0  0  0
  -21.8670   -6.3960   22.5660 C   0  0  0  0  0  0  0  0  0  0  0  0
  -21.3610   -6.9710   23.7520 C   0  0  0  0  0  3  0  0  0  0  0  0
  -21.2260   -6.1850   24.9140 C   0  0  0  0  0  3  0  0  0  0  0  0
  -21.5850   -4.8230   24.8910 C   0  0  0  0  0  0  0  0  0  0  0  0
  -22.0820   -4.2470   23.7090 C   0  0  0  0  0  3  0  0  0  0  0  0
  -22.2190   -5.0310   22.5490 C   0  0  0  0  0  0  0  0  0  0  0  0
  -22.6790   -4.4640   21.4070 F   0  0  0  0  0  0  0  0  0  0  0  0
  -21.4480   -4.0670   26.0050 F   0  0  0  0  0  0  0  0  0  0  0  0
  -23.0760  -13.7500   21.1830 C   0  0  0  0  0  0  0  0  0  0  0  0
  -22.3930  -13.0450   22.0790 N   0  0  0  0  0  0  0  0  0  0  0  0
  -22.6150  -14.7850   20.7040 O   0  0  0  0  0  0  0  0  0  0  0  0
  -22.7800  -12.2050   22.4880 H   0  0  0  0  0  0  0  0  0  0  0  0
  -21.4750  -13.3490   22.3650 H   0  0  0  0  0  0  0  0  0  0  0  0
  -25.6810  -15.4130   20.2650 N   0  0  0  0  0  0  0  0  0  0  0  0
  -24.9400  -16.0810   20.4460 H   0  0  0  0  0  0  0  0  0  0  0  0
  -26.5310  -15.8460   19.9270 H   0  0  0  0  0  0  0  0  0  0  0  0
  -28.3940  -25.6410   21.0290 C   0  0  0  0  0  2  0  0  0  0  0  0
  -28.5570  -26.7960   20.1670 O   0  0  0  0  0  0  0  0  0  0  0  0
  -24.6990  -31.9390   23.2100 C   0  0  0  0  0  0  0  0  0  0  0  0
  -27.4260  -27.5820   20.1000 C   0  0  0  0  0  0  0  0  0  0  0  0
  -23.5260  -30.5430   21.5370 C   0  0  0  0  0  3  0  0  0  0  0  0
  -25.0180  -29.0610   20.0880 C   0  0  0  0  0  0  0  0  0  0  0  0
  -26.0460  -30.9510   21.3590 C   0  0  0  0  0  2  0  0  0  0  0  0
  -26.1620  -29.5910   20.7000 C   0  0  0  0  0  0  0  0  0  0  0  0
  -27.3730  -28.8600   20.7050 C   0  0  0  0  0  3  0  0  0  0  0  0
  -26.2740  -27.0780   19.4620 C   0  0  0  0  0  3  0  0  0  0  0  0
  -25.0710  -27.8060   19.4570 C   0  0  0  0  0  3  0  0  0  0  0  0
  -23.7570  -29.8940   20.1440 C   0  0  0  0  0  2  0  0  0  0  0  0
  -24.7750  -31.1580   22.0940 N   0  0  0  0  0  0  0  0  0  0  0  0
  -23.6100  -32.1810   23.7500 O   0  0  0  0  0  0  0  0  0  0  0  0
  -22.8890  -29.4930   22.4770 C   0  0  0  0  0  0  0  0  0  0  0  0
  -21.5650  -29.3030   22.3550 N   0  0  0  0  0  0  0  0  0  0  0  0
  -23.5830  -28.8560   23.2750 O   0  0  0  0  0  0  0  0  0  0  0  0
  -21.0670  -29.8720   21.6850 H   0  0  0  0  0  0  0  0  0  0  0  0
  -18.1990  -28.0930   22.8670 C   0  0  0  0  0  0  0  0  0  0  0  0
  -20.7610  -28.3410   23.1080 C   0  0  0  0  0  3  0  0  0  0  0  0
  -20.8530  -26.9300   22.4830 C   0  0  0  0  0  2  0  0  0  0  0  0
  -19.7350  -26.6390   21.4760 C   0  0  0  0  0  2  0  0  0  0  0  0
  -18.3640  -26.7640   22.1470 C   0  0  0  0  0  2  0  0  0  0  0  0
  -19.3250  -28.8390   23.3050 C   0  0  0  0  0  0  0  0  0  0  0  0
  -19.1160  -30.0820   23.9390 C   0  0  0  0  0  3  0  0  0  0  0  0
  -17.8150  -30.5800   24.1410 C   0  0  0  0  0  3  0  0  0  0  0  0
  -16.7030  -29.8290   23.7210 C   0  0  0  0  0  3  0  0  0  0  0  0
  -16.8970  -28.5870   23.0890 C   0  0  0  0  0  3  0  0  0  0  0  0
  -25.9710  -32.5810   23.8460 C   0  0  0  0  0  3  0  0  0  0  0  0
  -25.6440  -33.9750   24.1770 N   0  0  0  0  0  0  0  0  0  0  0  0
  -25.9600  -35.0310   23.4150 C   0  0  0  0  0  0  0  0  0  0  0  0
  -26.6290  -34.9360   22.3830 O   0  0  0  0  0  0  0  0  0  0  0  0
  -25.0520  -34.1220   24.9810 H   0  0  0  0  0  0  0  0  0  0  0  0
  -24.2050  -36.7970   23.0580 C   0  0  0  0  0  1  0  0  0  0  0  0
  -25.4520  -36.4120   23.8700 C   0  0  0  0  0  3  0  0  0  0  0  0
  -27.5710  -37.3350   24.7020 C   0  0  0  0  0  1  0  0  0  0  0  0
  -26.4680  -37.4810   23.7550 N   0  0  0  0  0  0  0  0  0  0  0  0
  -26.0470  -38.3950   23.8940 H   0  0  0  0  0  0  0  0  0  0  0  0
  -26.4840  -31.8110   25.1240 C   0  0  1  0  0  0  0  0  0  0  0  0
  -25.3840  -31.5530   26.1800 C   0  0  0  0  0  1  0  0  0  0  0  0
  -27.0900  -30.4430   24.7290 C   0  0  0  0  0  1  0  0  0  0  0  0
  -27.6170  -32.6170   25.8030 C   0  0  0  0  0  1  0  0  0  0  0  0
  1  8  2  0
  2  3  1  0
  2  5  1  0
  3  7  1  0
  5  6  1  6
  5 53  1  0
  5  4  1  0
  7  1  1  0
  7  4  1  0
  9 11  2  0
  9 10  1  0
 10 13  2  0
 11 14  1  0
 13 12  1  0
 13  1  1  0
 14 23  1  0
 14 12  2  0
 15 23  1  0
 16 21  1  0
 17 18  1  0
 17 16  1  0
 19 18  1  0
 19 28  1  0
 19 20  1  0
 21 15  1  0
 21 20  1  0
 22 15  2  0
 23 24  1  0
 25 26  2  0
 26 45  1  0
 27 26  1  0
 27 30  1  0
 28 29  1  0
 28 25  1  0
 29 27  2  0
 30 31  1  0
 31 32  2  0
 33 36  1  0
 33 32  1  0
 34 33  2  0
 35 34  1  0
 35 30  2  0
 36 37  1  0
 37 38  1  0
 38 39  2  0
 40 39  1  0
 40 44  1  0
 41 40  2  0
 42 37  2  0
 42 41  1  0
 43 42  1  0
 45 46  1  0
 46 49  1  0
 46 48  1  0
 47 45  2  0
 50 25  1  0
 50 51  1  0
 52 50  1  0
 54 53  1  0
 55 66  2  0
 56 54  1  0
 56 61  1  0
 57 65  1  0
 57 67  1  0
 58 64  1  0
 58 60  1  0
 59 65  1  0
 60 61  2  0
 60 59  1  0
 62 56  2  0
 63 62  1  0
 63 58  2  0
 64 57  1  0
 65 55  1  0
 67 69  2  0
 68 67  1  0
 70 68  1  0
 71 80  2  0
 71 76  1  0
 72 68  1  0
 72 76  1  0
 73 72  1  0
 74 75  1  0
 74 73  1  0
 75 71  1  0
 76 77  2  0
 77 78  1  0
 79 78  2  0
 80 79  1  0
 81 55  1  0
 81 82  1  0
 81 91  1  0
 82 85  1  0
 83 87  1  0
 83 82  1  0
 84 83  2  0
 87 86  1  0
 89 87  1  0
 89 90  1  0
 89 88  1  0
 91 94  1  1
 91 92  1  0
 93 91  1  0
M  ISO  4  15 100  23 100  53 101  54 101
M  END
>  <TORSDO>  (74) 
F 18

>  <SCORE>  (74) 
-13.394

>  <name>  (74) 
73

>  <ligand_id>  (74) 
73

>  <original_smiles>  (74) 
[H]c1c([H])c(C(=O)N2C([H])([H])C([H])([H])C(C([H])([H])[H])(C([H])([H])Oc3c([H])c([H])c4c(c3[H])C([H])([H])N(C(=O)C([H])(N([H])C(=O)C([H])(N([H])C([H])([H])[H])C([H])([H])[H])C(C([H])([H])[H])(C([H])([H])[H])C([H])([H])[H])C([H])(C(=O)N([H])C3([H])c5c([H])c([H])c([H])c([H])c5C([H])([H])C([H])([H])C3([H])[H])C4([H])[H])C2([H])[H])c([H])c(N([H])C(=O)N2C([H])([H])C([H])([H])C([H])([H])C([H])(n3nc(-c4c([H])c([H])c(Oc5c([H])c([H])c(F)c([H])c5F)c([H])c4[H])c(C(=O)N([H])[H])c3N([H])[H])C2([H])[H])c1[H]

>  <smiles>  (74) 
[H]c1c([H])c(C(=O)N2C([H])([H])C([H])([H])C(C([H])([H])[H])(C([H])([H])Oc3c([H])c([H])c4c(c3[H])C([H])([H])N(C(=O)C([H])(N([H])C(=O)C([H])(N([H])C([H])([H])[H])C([H])([H])[H])C(C([H])([H])[H])(C([H])([H])[H])C([H])([H])[H])C([H])(C(=O)N([H])C3([H])c5c([H])c([H])c([H])c([H])c5C([H])([H])C([H])([H])C3([H])[H])C4([H])[H])C2([H])[H])c([H])c(N([H])C(=O)N2C([H])([H])C([H])([H])C([H])([H])C([H])(n3nc(-c4c([H])c([H])c(Oc5c([H])c([H])c(F)c([H])c5F)c([H])c4[H])c(C(=O)N([H])[H])c3N([H])[H])C2([H])[H])c1[H]

$$$$
74:0:0
     RDKit          3D

 96106  0  0  1  0  0  0  0  0999 V2000
  -29.3080  -23.9960   19.8460 C   0  0  0  0  0  3  0  0  0  0  0  0
  -29.3760  -24.1400   16.1100 C   0  0  0  0  0  2  0  0  0  0  0  0
  -30.6020  -23.3560   16.5580 C   0  0  0  0  0  2  0  0  0  0  0  0
  -28.6290  -24.3930   17.4220 C   0  0  0  0  0  2  0  0  0  0  0  0
  -30.9500  -23.9900   17.9100 C   0  0  0  0  0  2  0  0  0  0  0  0
  -29.6730  -24.4750   18.4780 N   0  0  2  0  0  4  0  0  0  0  0  0
  -29.8270  -25.4670   18.6070 H   0  0  0  0  0  0  0  0  0  0  0  0
  -28.9110  -22.4220   19.9080 C   0  0  0  0  0  2  0  0  0  0  0  0
  -28.7390  -19.2470   21.3460 C   0  0  0  0  0  3  0  0  0  0  0  0
  -28.9500  -17.8250   21.2980 C   0  0  0  0  0  3  0  0  0  0  0  0
  -30.8440  -17.9790   19.7210 C   0  0  0  0  0  3  0  0  0  0  0  0
  -30.6020  -19.3780   19.7930 C   0  0  0  0  0  0  0  0  0  0  0  0
  -29.6140  -20.0310   20.5820 C   0  0  0  0  0  0  0  0  0  0  0  0
  -29.9750  -17.1610   20.5260 C   0  0  0  0  0  0  0  0  0  0  0  0
  -30.9870  -20.7390   19.2980 C   0  0  0  0  0  2  0  0  0  0  0  0
  -29.9540  -21.3800   20.2200 N   0  0  0  0  0  0  0  0  0  0  0  0
  -30.7730  -14.6990   20.0710 C   0  0  0  0  0  0  0  0  0  0  0  0
  -30.5600  -12.4710   18.9740 C   0  0  0  0  0  2  0  0  0  0  0  0
  -29.5750  -12.6100   17.7920 C   0  0  0  0  0  2  0  0  0  0  0  0
  -28.1140  -12.4460   18.2580 C   0  0  0  0  0  2  0  0  0  0  0  0
  -27.7950  -13.2860   19.5230 C   0  0  0  0  0  3  0  0  0  0  0  0
  -28.8840  -13.0980   20.6020 C   0  0  0  0  0  2  0  0  0  0  0  0
  -30.1780  -13.4640   19.9990 N   0  0  0  0  0  0  0  0  0  0  0  0
  -31.8960  -14.9010   19.5970 O   0  0  0  0  0  0  0  0  0  0  0  0
  -29.9920  -15.6950   20.5990 N   0  0  0  0  0  0  0  0  0  0  0  0
  -29.1790  -15.3080   21.0530 H   0  0  0  0  0  0  0  0  0  0  0  0
  -25.4200  -13.8810   20.3050 C   0  0  0  0  0  0  0  0  0  0  0  0
  -24.3620  -13.1050   20.6970 C   0  0  0  0  0  0  0  0  0  0  0  0
  -24.8230  -11.7540   20.6450 C   0  0  0  0  0  0  0  0  0  0  0  0
  -26.4580  -13.0010   20.0380 N   0  0  0  0  0  0  0  0  0  0  0  0
  -26.1040  -11.7160   20.2990 N   0  0  0  0  0  0  0  0  0  0  0  0
  -24.1000  -10.4910   20.8450 C   0  0  0  0  0  0  0  0  0  0  0  0
  -24.5020   -9.5590   21.8280 C   0  0  0  0  0  3  0  0  0  0  0  0
  -23.7800   -8.3610   22.0150 C   0  0  0  0  0  3  0  0  0  0  0  0
  -22.6440   -8.0840   21.2180 C   0  0  0  0  0  0  0  0  0  0  0  0
  -22.2640   -9.0030   20.2240 C   0  0  0  0  0  3  0  0  0  0  0  0
  -22.9860  -10.1940   20.0360 C   0  0  0  0  0  3  0  0  0  0  0  0
  -21.8970   -6.9350   21.3130 O   0  0  0  0  0  0  0  0  0  0  0  0
  -21.7380   -6.2750   22.5050 C   0  0  0  0  0  0  0  0  0  0  0  0
  -21.1800   -6.9070   23.6370 C   0  0  0  0  0  3  0  0  0  0  0  0
  -20.9710   -6.1720   24.8210 C   0  0  0  0  0  3  0  0  0  0  0  0
  -21.3090   -4.8070   24.8720 C   0  0  0  0  0  0  0  0  0  0  0  0
  -21.8590   -4.1740   23.7430 C   0  0  0  0  0  3  0  0  0  0  0  0
  -22.0700   -4.9060   22.5610 C   0  0  0  0  0  0  0  0  0  0  0  0
  -22.5810   -4.2870   21.4700 F   0  0  0  0  0  0  0  0  0  0  0  0
  -21.1010   -4.0970   26.0070 F   0  0  0  0  0  0  0  0  0  0  0  0
  -22.9720  -13.5810   21.0120 C   0  0  0  0  0  0  0  0  0  0  0  0
  -22.2750  -12.8880   21.9060 N   0  0  0  0  0  0  0  0  0  0  0  0
  -22.5140  -14.6020   20.5010 O   0  0  0  0  0  0  0  0  0  0  0  0
  -22.6580  -12.0620   22.3410 H   0  0  0  0  0  0  0  0  0  0  0  0
  -21.3440  -13.1870   22.1570 H   0  0  0  0  0  0  0  0  0  0  0  0
  -25.5780  -15.2520   20.1350 N   0  0  0  0  0  0  0  0  0  0  0  0
  -24.8140  -15.9050   20.2720 H   0  0  0  0  0  0  0  0  0  0  0  0
  -26.4180  -15.6980   19.7870 H   0  0  0  0  0  0  0  0  0  0  0  0
  -28.2170  -25.0280   20.3990 C   0  0  0  0  0  2  0  0  0  0  0  0
  -28.4190  -26.4880   20.1720 O   0  0  0  0  0  0  0  0  0  0  0  0
  -24.5670  -31.7910   23.2340 C   0  0  0  0  0  0  0  0  0  0  0  0
  -27.2840  -27.3180   20.1460 C   0  0  0  0  0  0  0  0  0  0  0  0
  -23.4010  -30.3910   21.5680 C   0  0  0  0  0  3  0  0  0  0  0  0
  -24.8900  -28.8880   20.1340 C   0  0  0  0  0  0  0  0  0  0  0  0
  -25.9350  -30.7590   21.4070 C   0  0  0  0  0  2  0  0  0  0  0  0
  -26.0460  -29.3910   20.7460 C   0  0  0  0  0  0  0  0  0  0  0  0
  -27.2480  -28.6190   20.7390 C   0  0  0  0  0  3  0  0  0  0  0  0
  -26.1080  -26.8780   19.4980 C   0  0  0  0  0  3  0  0  0  0  0  0
  -24.9250  -27.6380   19.5000 C   0  0  0  0  0  3  0  0  0  0  0  0
  -23.6370  -29.7370   20.1820 C   0  0  0  0  0  2  0  0  0  0  0  0
  -24.6520  -30.9970   22.1270 N   0  0  0  0  0  0  0  0  0  0  0  0
  -23.4740  -32.0420   23.7640 O   0  0  0  0  0  0  0  0  0  0  0  0
  -22.7500  -29.3500   22.5100 C   0  0  0  0  0  0  0  0  0  0  0  0
  -21.4260  -29.1620   22.3820 N   0  0  0  0  0  0  0  0  0  0  0  0
  -23.4370  -28.7140   23.3140 O   0  0  0  0  0  0  0  0  0  0  0  0
  -20.9310  -29.7270   21.7060 H   0  0  0  0  0  0  0  0  0  0  0  0
  -18.0600  -27.9320   22.8680 C   0  0  0  0  0  0  0  0  0  0  0  0
  -20.6160  -28.2040   23.1370 C   0  0  0  0  0  3  0  0  0  0  0  0
  -20.7270  -26.7850   22.5330 C   0  0  0  0  0  2  0  0  0  0  0  0
  -19.6240  -26.4740   21.5160 C   0  0  0  0  0  2  0  0  0  0  0  0
  -18.2430  -26.5970   22.1660 C   0  0  0  0  0  2  0  0  0  0  0  0
  -19.1740  -28.6940   23.3090 C   0  0  0  0  0  0  0  0  0  0  0  0
  -18.9470  -29.9430   23.9260 C   0  0  0  0  0  3  0  0  0  0  0  0
  -17.6390  -30.4310   24.1060 C   0  0  0  0  0  3  0  0  0  0  0  0
  -16.5390  -29.6660   23.6810 C   0  0  0  0  0  3  0  0  0  0  0  0
  -16.7500  -28.4190   23.0680 C   0  0  0  0  0  3  0  0  0  0  0  0
  -25.8330  -32.4380   23.8740 C   0  0  0  0  0  3  0  0  0  0  0  0
  -26.3360  -31.6780   25.1630 C   0  0  1  0  0  0  0  0  0  0  0  0
  -25.2260  -31.4330   26.2120 C   0  0  0  0  0  1  0  0  0  0  0  0
  -26.9390  -30.3040   24.7880 C   0  0  0  0  0  1  0  0  0  0  0  0
  -27.4660  -32.4860   25.8400 C   0  0  0  0  0  1  0  0  0  0  0  0
  -25.5030  -33.8350   24.1930 N   0  0  0  0  0  0  0  0  0  0  0  0
  -25.8480  -34.8890   23.4430 C   0  0  0  0  0  0  0  0  0  0  0  0
  -26.5460  -34.7890   22.4300 O   0  0  0  0  0  0  0  0  0  0  0  0
  -24.8850  -33.9850   24.9770 H   0  0  0  0  0  0  0  0  0  0  0  0
  -24.1240  -36.6750   23.0330 C   0  0  0  0  0  1  0  0  0  0  0  0
  -25.3390  -36.2740   23.8840 C   0  0  0  0  0  3  0  0  0  0  0  0
  -27.4390  -37.1690   24.7900 C   0  0  0  0  0  1  0  0  0  0  0  0
  -26.3700  -37.3330   23.8090 N   0  0  0  0  0  0  0  0  0  0  0  0
  -25.9550  -38.2510   23.9450 H   0  0  0  0  0  0  0  0  0  0  0  0
  1  8  1  0
  1 55  1  0
  2  3  1  0
  2  4  1  0
  3  5  1  0
  4  6  1  0
  5  6  1  0
  6  7  1  1
  6  1  1  0
  8 16  1  0
 10  9  1  0
 11 12  2  0
 11 14  1  0
 12 13  1  0
 13  9  2  0
 14 25  1  0
 14 10  2  0
 15 12  1  0
 15 16  1  0
 16 13  1  0
 17 25  1  0
 18 23  1  0
 19 20  1  0
 19 18  1  0
 21 20  1  0
 21 30  1  0
 21 22  1  0
 23 17  1  0
 23 22  1  0
 24 17  2  0
 25 26  1  0
 27 28  2  0
 28 47  1  0
 29 28  1  0
 29 32  1  0
 30 31  1  0
 30 27  1  0
 31 29  2  0
 32 33  1  0
 33 34  2  0
 35 38  1  0
 35 34  1  0
 36 35  2  0
 37 36  1  0
 37 32  2  0
 38 39  1  0
 39 44  2  0
 39 40  1  0
 40 41  2  0
 41 42  1  0
 42 46  1  0
 43 42  2  0
 44 43  1  0
 45 44  1  0
 47 48  1  0
 48 51  1  0
 48 50  1  0
 49 47  2  0
 52 53  1  0
 52 27  1  0
 54 52  1  0
 56 55  1  0
 57 68  2  0
 58 56  1  0
 58 63  1  0
 59 67  1  0
 59 69  1  0
 60 66  1  0
 60 62  1  0
 61 67  1  0
 62 61  1  0
 63 62  2  0
 64 65  1  0
 64 58  2  0
 65 60  2  0
 66 59  1  0
 67 57  1  0
 69 71  2  0
 70 69  1  0
 72 70  1  0
 73 82  2  0
 73 78  1  0
 74 70  1  0
 74 78  1  0
 75 74  1  0
 76 77  1  0
 76 75  1  0
 77 73  1  0
 78 79  2  0
 79 80  1  0
 81 80  2  0
 82 81  1  0
 83 57  1  0
 83 88  1  0
 83 84  1  0
 84 87  1  1
 84 85  1  0
 86 84  1  0
 88 91  1  0
 89 93  1  0
 89 88  1  0
 90 89  2  0
 93 92  1  0
 95 93  1  0
 95 96  1  0
 95 94  1  0
M  ISO  4  17 100  25 100  55 101  56 101
M  END
>  <TORSDO>  (75) 
F 20

>  <SCORE>  (75) 
-12.487

>  <name>  (75) 
74

>  <ligand_id>  (75) 
74

>  <original_smiles>  (75) 
[H]c1c([H])c([H])c2c(c1[H])C([H])([H])C([H])([H])C([H])([H])C2([H])N([H])C(=O)C1([H])N(C(=O)C([H])(N([H])C(=O)C([H])(N([H])C([H])([H])[H])C([H])([H])[H])C(C([H])([H])[H])(C([H])([H])[H])C([H])([H])[H])C([H])([H])c2c([H])c(OC([H])([H])C([H])(C([H])([H])N3c4c([H])c([H])c(N([H])C(=O)N5C([H])([H])C([H])([H])C([H])([H])C([H])(n6nc(-c7c([H])c([H])c(Oc8c([H])c([H])c(F)c([H])c8F)c([H])c7[H])c(C(=O)N([H])[H])c6N([H])[H])C5([H])[H])c([H])c4C3([H])[H])[N+]3([H])C([H])([H])C([H])([H])C([H])([H])C3([H])[H])c([H])c([H])c2C1([H])[H]

>  <smiles>  (75) 
[H]c1c([H])c([H])c2c(c1[H])C([H])([H])C([H])([H])C([H])([H])C2([H])N([H])C(=O)C1([H])N(C(=O)C([H])(N([H])C(=O)C([H])(N([H])C([H])([H])[H])C([H])([H])[H])C(C([H])([H])[H])(C([H])([H])[H])C([H])([H])[H])C([H])([H])c2c([H])c(OC([H])([H])C([H])(C([H])([H])N3c4c([H])c([H])c(N([H])C(=O)N5C([H])([H])C([H])([H])C([H])([H])C([H])(n6nc(-c7c([H])c([H])c(Oc8c([H])c([H])c(F)c([H])c8F)c([H])c7[H])c(C(=O)N([H])[H])c6N([H])[H])C5([H])[H])c([H])c4C3([H])[H])[N+]3([H])C([H])([H])C([H])([H])C([H])([H])C3([H])[H])c([H])c([H])c2C1([H])[H]

$$$$
75:0:0
     RDKit          3D

 93101  0  0  1  0  0  0  0  0999 V2000
  -28.8020  -22.6200   20.3420 C   0  0  0  0  0  0  0  0  0  0  0  0
  -28.9630  -21.3000   19.8310 N   0  0  0  0  0  0  0  0  0  0  0  0
  -28.8490  -22.8110   21.5590 O   0  0  0  0  0  0  0  0  0  0  0  0
  -28.7120  -21.2860   18.8510 H   0  0  0  0  0  0  0  0  0  0  0  0
  -29.2750  -18.7160   19.7840 C   0  0  0  0  0  3  0  0  0  0  0  0
  -30.8050  -18.1070   21.4230 C   0  0  0  0  0  3  0  0  0  0  0  0
  -30.0340  -17.5940   20.4100 C   0  0  0  0  0  0  0  0  0  0  0  0
  -29.4660  -20.0410   20.2870 C   0  0  0  0  0  0  0  0  0  0  0  0
  -30.6040  -19.8620   21.6190 S   0  0  0  0  0  0  0  0  0  0  0  0
  -30.7500  -14.9870   20.0800 C   0  0  0  0  0  0  0  0  0  0  0  0
  -30.6070  -12.6630   19.0950 C   0  0  0  0  0  2  0  0  0  0  0  0
  -29.6110  -12.6570   17.9120 C   0  0  0  0  0  2  0  0  0  0  0  0
  -28.1630  -12.4630   18.4070 C   0  0  0  0  0  2  0  0  0  0  0  0
  -27.8240  -13.3640   19.6240 C   0  0  0  0  0  3  0  0  0  0  0  0
  -28.9300  -13.3180   20.6970 C   0  0  0  0  0  2  0  0  0  0  0  0
  -30.1750  -13.7270   20.0350 N   0  0  0  0  0  0  0  0  0  0  0  0
  -31.9460  -15.0980   19.7840 O   0  0  0  0  0  0  0  0  0  0  0  0
  -29.8890  -16.1040   20.1570 N   0  0  0  0  0  0  0  0  0  0  0  0
  -28.9280  -15.8160   20.0690 H   0  0  0  0  0  0  0  0  0  0  0  0
  -25.4870  -13.9590   20.4900 C   0  0  0  0  0  0  0  0  0  0  0  0
  -24.4320  -13.1860   20.8900 C   0  0  0  0  0  0  0  0  0  0  0  0
  -24.8760  -11.8320   20.7990 C   0  0  0  0  0  0  0  0  0  0  0  0
  -26.5060  -13.0740   20.1760 N   0  0  0  0  0  0  0  0  0  0  0  0
  -26.1510  -11.7870   20.4270 N   0  0  0  0  0  0  0  0  0  0  0  0
  -24.1440  -10.5730   20.9900 C   0  0  0  0  0  0  0  0  0  0  0  0
  -24.5770   -9.6000   21.9180 C   0  0  0  0  0  3  0  0  0  0  0  0
  -23.8450   -8.4070   22.0940 C   0  0  0  0  0  3  0  0  0  0  0  0
  -22.6670   -8.1800   21.3460 C   0  0  0  0  0  0  0  0  0  0  0  0
  -22.2530   -9.1410   20.4080 C   0  0  0  0  0  3  0  0  0  0  0  0
  -22.9850  -10.3270   20.2280 C   0  0  0  0  0  3  0  0  0  0  0  0
  -21.9070   -7.0380   21.4340 O   0  0  0  0  0  0  0  0  0  0  0  0
  -21.8230   -6.3150   22.5960 C   0  0  0  0  0  0  0  0  0  0  0  0
  -21.3010   -6.8720   23.7840 C   0  0  0  0  0  3  0  0  0  0  0  0
  -21.1690   -6.0740   24.9380 C   0  0  0  0  0  3  0  0  0  0  0  0
  -21.5500   -4.7190   24.9050 C   0  0  0  0  0  0  0  0  0  0  0  0
  -22.0650   -4.1610   23.7210 C   0  0  0  0  0  3  0  0  0  0  0  0
  -22.1980   -4.9570   22.5700 C   0  0  0  0  0  0  0  0  0  0  0  0
  -22.6750   -4.4070   21.4270 F   0  0  0  0  0  0  0  0  0  0  0  0
  -21.4170   -3.9510   26.0110 F   0  0  0  0  0  0  0  0  0  0  0  0
  -23.0560  -13.6730   21.2390 C   0  0  0  0  0  0  0  0  0  0  0  0
  -22.3540  -12.9560   22.1100 N   0  0  0  0  0  0  0  0  0  0  0  0
  -22.6130  -14.7240   20.7760 O   0  0  0  0  0  0  0  0  0  0  0  0
  -22.7260  -12.1080   22.5090 H   0  0  0  0  0  0  0  0  0  0  0  0
  -21.4310  -13.2660   22.3850 H   0  0  0  0  0  0  0  0  0  0  0  0
  -25.6560  -15.3320   20.3420 N   0  0  0  0  0  0  0  0  0  0  0  0
  -24.9040  -15.9860   20.5250 H   0  0  0  0  0  0  0  0  0  0  0  0
  -26.4800  -15.7790   19.9630 H   0  0  0  0  0  0  0  0  0  0  0  0
  -28.5420  -23.7680   19.3370 C   0  0  0  0  0  0  0  0  0  0  0  0
  -28.3040  -25.1830   19.3420 C   0  0  0  0  0  0  0  0  0  0  0  0
  -28.2840  -25.9170   17.9920 C   0  0  0  0  0  1  0  0  0  0  0  0
  -28.5890  -23.0370   17.6720 S   0  0  0  0  0  0  0  0  0  0  0  0
  -28.3470  -24.1630   16.9930 H   0  0  0  0  0  0  0  0  0  0  0  0
  -28.1210  -26.2080   20.3520 O   0  0  0  0  0  0  0  0  0  0  0  0
  -24.5520  -31.9520   23.2570 C   0  0  0  0  0  0  0  0  0  0  0  0
  -27.0860  -27.2080   20.2710 C   0  0  0  0  0  0  0  0  0  0  0  0
  -23.3370  -30.5370   21.6480 C   0  0  0  0  0  3  0  0  0  0  0  0
  -24.7660  -28.9490   20.2350 C   0  0  0  0  0  0  0  0  0  0  0  0
  -25.8900  -30.8010   21.4570 C   0  0  0  0  0  2  0  0  0  0  0  0
  -25.9540  -29.4020   20.8240 C   0  0  0  0  0  0  0  0  0  0  0  0
  -27.1170  -28.5450   20.8280 C   0  0  0  0  0  3  0  0  0  0  0  0
  -25.8570  -26.8370   19.6810 C   0  0  0  0  0  3  0  0  0  0  0  0
  -24.7290  -27.6760   19.6500 C   0  0  0  0  0  3  0  0  0  0  0  0
  -23.5450  -29.8500   20.2750 C   0  0  0  0  0  2  0  0  0  0  0  0
  -24.6140  -31.1180   22.1760 N   0  0  0  0  0  0  0  0  0  0  0  0
  -23.4710  -32.2440   23.7880 O   0  0  0  0  0  0  0  0  0  0  0  0
  -22.6680  -29.5390   22.6270 C   0  0  0  0  0  0  0  0  0  0  0  0
  -21.3470  -29.3290   22.4820 N   0  0  0  0  0  0  0  0  0  0  0  0
  -23.3400  -28.9550   23.4810 O   0  0  0  0  0  0  0  0  0  0  0  0
  -20.8600  -29.8520   21.7680 H   0  0  0  0  0  0  0  0  0  0  0  0
  -17.9950  -28.0340   22.9340 C   0  0  0  0  0  0  0  0  0  0  0  0
  -20.5330  -28.3980   23.2690 C   0  0  0  0  0  3  0  0  0  0  0  0
  -20.7020  -26.9460   22.7660 C   0  0  0  0  0  2  0  0  0  0  0  0
  -19.6450  -26.5390   21.7350 C   0  0  0  0  0  2  0  0  0  0  0  0
  -18.2400  -26.6630   22.3260 C   0  0  0  0  0  2  0  0  0  0  0  0
  -19.0710  -28.8550   23.3620 C   0  0  0  0  0  0  0  0  0  0  0  0
  -18.7890  -30.1320   23.8910 C   0  0  0  0  0  3  0  0  0  0  0  0
  -17.4630  -30.5930   23.9940 C   0  0  0  0  0  3  0  0  0  0  0  0
  -16.4000  -29.7720   23.5790 C   0  0  0  0  0  3  0  0  0  0  0  0
  -16.6670  -28.4930   23.0570 C   0  0  0  0  0  3  0  0  0  0  0  0
  -25.8360  -32.5940   23.8650 C   0  0  0  0  0  3  0  0  0  0  0  0
  -26.3570  -31.8420   25.1510 C   0  0  1  0  0  0  0  0  0  0  0  0
  -25.2650  -31.6120   26.2230 C   0  0  0  0  0  1  0  0  0  0  0  0
  -26.9490  -30.4630   24.7790 C   0  0  0  0  0  1  0  0  0  0  0  0
  -27.5020  -32.6530   25.8030 C   0  0  0  0  0  1  0  0  0  0  0  0
  -25.5260  -33.9970   24.1800 N   0  0  0  0  0  0  0  0  0  0  0  0
  -25.8540  -35.0420   23.4110 C   0  0  0  0  0  0  0  0  0  0  0  0
  -26.5160  -34.9290   22.3760 O   0  0  0  0  0  0  0  0  0  0  0  0
  -24.9360  -34.1600   24.9830 H   0  0  0  0  0  0  0  0  0  0  0  0
  -24.1450  -36.8520   23.0320 C   0  0  0  0  0  1  0  0  0  0  0  0
  -25.3730  -36.4380   23.8590 C   0  0  0  0  0  3  0  0  0  0  0  0
  -27.4950  -37.3200   24.7260 C   0  0  0  0  0  1  0  0  0  0  0  0
  -26.4160  -37.4830   23.7540 N   0  0  0  0  0  0  0  0  0  0  0  0
  -26.0140  -38.4070   23.8770 H   0  0  0  0  0  0  0  0  0  0  0  0
  1  3  2  0
  2  8  1  0
  2  1  1  0
  4  2  1  0
  5  8  2  0
  5  7  1  0
  6  9  1  0
  7  6  2  0
  8  9  1  0
 10 18  1  0
 11 16  1  0
 12 13  1  0
 12 11  1  0
 14 13  1  0
 14 23  1  0
 14 15  1  0
 16 10  1  0
 16 15  1  0
 17 10  2  0
 18  7  1  0
 19 18  1  0
 20 21  2  0
 21 40  1  0
 22 21  1  0
 22 25  1  0
 23 24  1  0
 23 20  1  0
 24 22  2  0
 25 26  1  0
 26 27  2  0
 28 31  1  0
 28 27  1  0
 29 28  2  0
 30 29  1  0
 30 25  2  0
 31 32  1  0
 32 33  1  0
 33 34  2  0
 35 34  1  0
 35 39  1  0
 36 35  2  0
 37 32  2  0
 37 36  1  0
 38 37  1  0
 40 41  1  0
 41 44  1  0
 41 43  1  0
 42 40  2  0
 45 20  1  0
 45 46  1  0
 47 45  1  0
 48 49  2  0
 48  1  1  0
 49 53  1  0
 50 49  1  0
 51 48  1  0
 52 51  1  0
 54 65  2  0
 55 53  1  0
 55 60  1  0
 56 64  1  0
 56 66  1  0
 57 63  1  0
 57 59  1  0
 58 64  1  0
 59 60  2  0
 59 58  1  0
 61 55  2  0
 62 61  1  0
 62 57  2  0
 63 56  1  0
 64 54  1  0
 66 68  2  0
 67 66  1  0
 69 67  1  0
 70 79  2  0
 70 75  1  0
 71 67  1  0
 71 75  1  0
 72 71  1  0
 73 74  1  0
 73 72  1  0
 74 70  1  0
 75 76  2  0
 76 77  1  0
 78 77  2  0
 79 78  1  0
 80 54  1  0
 80 85  1  0
 80 81  1  0
 81 84  1  1
 81 82  1  0
 83 81  1  0
 85 88  1  0
 86 90  1  0
 86 85  1  0
 87 86  2  0
 90 89  1  0
 92 90  1  0
 92 93  1  0
 92 91  1  0
M  ISO  4  10 100  18 100  49 101  53 101
M  END
>  <TORSDO>  (76) 
F 19

>  <SCORE>  (76) 
-14.279

>  <name>  (76) 
75

>  <ligand_id>  (76) 
75

>  <original_smiles>  (76) 
[H]SC(C(=O)N([H])c1sc([H])c(N([H])C(=O)N2C([H])([H])C([H])([H])C([H])([H])C([H])(n3nc(-c4c([H])c([H])c(Oc5c([H])c([H])c(F)c([H])c5F)c([H])c4[H])c(C(=O)N([H])[H])c3N([H])[H])C2([H])[H])c1[H])=C(Oc1c([H])c([H])c2c(c1[H])C([H])([H])N(C(=O)C([H])(N([H])C(=O)C([H])(N([H])C([H])([H])[H])C([H])([H])[H])C(C([H])([H])[H])(C([H])([H])[H])C([H])([H])[H])C([H])(C(=O)N([H])C1([H])c3c([H])c([H])c([H])c([H])c3C([H])([H])C([H])([H])C1([H])[H])C2([H])[H])C([H])([H])[H]

>  <smiles>  (76) 
[H]SC(C(=O)N([H])c1sc([H])c(N([H])C(=O)N2C([H])([H])C([H])([H])C([H])([H])C([H])(n3nc(-c4c([H])c([H])c(Oc5c([H])c([H])c(F)c([H])c5F)c([H])c4[H])c(C(=O)N([H])[H])c3N([H])[H])C2([H])[H])c1[H])=C(Oc1c([H])c([H])c2c(c1[H])C([H])([H])N(C(=O)C([H])(N([H])C(=O)C([H])(N([H])C([H])([H])[H])C([H])([H])[H])C(C([H])([H])[H])(C([H])([H])[H])C([H])([H])[H])C([H])(C(=O)N([H])C1([H])c3c([H])c([H])c([H])c([H])c3C([H])([H])C([H])([H])C1([H])[H])C2([H])[H])C([H])([H])[H]

$$$$
76:0:0
     RDKit          3D

 96105  0  0  1  0  0  0  0  0999 V2000
  -28.0080  -20.4550   19.4410 C   0  0  0  0  0  3  0  0  0  0  0  0
  -27.1190  -24.0220   18.7910 C   0  0  0  0  0  2  0  0  0  0  0  0
  -27.0040  -22.5170   18.5670 C   0  0  0  0  0  2  0  0  0  0  0  0
  -28.8010  -22.9030   20.1030 C   0  0  0  0  0  2  0  0  0  0  0  0
  -27.9340  -24.2410   20.0640 C   0  0  2  0  0  0  0  0  0  0  0  0
  -27.9960  -21.8410   19.4270 N   0  0  0  0  0  0  0  0  0  0  0  0
  -27.0450  -19.8420   18.7260 N   0  0  0  0  0  0  0  0  0  0  0  0
  -27.0280  -18.8370   18.6680 H   0  0  0  0  0  0  0  0  0  0  0  0
  -26.3330  -20.3550   18.2300 H   0  0  0  0  0  0  0  0  0  0  0  0
  -30.2820  -19.4300   20.2040 C   0  0  0  0  0  3  0  0  0  0  0  0
  -30.7860  -18.1180   20.5520 C   0  0  0  0  0  3  0  0  0  0  0  0
  -28.9130  -19.4850   20.0890 C   0  0  0  0  0  0  0  0  0  0  0  0
  -29.8160  -17.1530   20.7350 C   0  0  0  0  0  0  0  0  0  0  0  0
  -28.2470  -17.9240   20.5810 S   0  0  0  0  0  0  0  0  0  0  0  0
  -30.6580  -14.8310   20.4500 C   0  0  0  0  0  0  0  0  0  0  0  0
  -30.4680  -12.6300   19.3180 C   0  0  0  0  0  2  0  0  0  0  0  0
  -29.5290  -12.7880   18.1010 C   0  0  0  0  0  2  0  0  0  0  0  0
  -28.0530  -12.6200   18.5150 C   0  0  0  0  0  2  0  0  0  0  0  0
  -27.6850  -13.4580   19.7650 C   0  0  0  0  0  3  0  0  0  0  0  0
  -28.7300  -13.2580   20.8850 C   0  0  0  0  0  2  0  0  0  0  0  0
  -30.0530  -13.6100   20.3380 N   0  0  0  0  0  0  0  0  0  0  0  0
  -31.7850  -15.0510   19.9920 O   0  0  0  0  0  0  0  0  0  0  0  0
  -29.8840  -15.8030   21.0030 N   0  0  0  0  0  0  0  0  0  0  0  0
  -29.0410  -15.4210   21.4050 H   0  0  0  0  0  0  0  0  0  0  0  0
  -25.2720  -14.0440   20.4440 C   0  0  0  0  0  0  0  0  0  0  0  0
  -24.2070  -13.2630   20.8050 C   0  0  0  0  0  0  0  0  0  0  0  0
  -24.6830  -11.9160   20.7860 C   0  0  0  0  0  0  0  0  0  0  0  0
  -26.3280  -13.1720   20.2290 N   0  0  0  0  0  0  0  0  0  0  0  0
  -25.9760  -11.8870   20.4910 N   0  0  0  0  0  0  0  0  0  0  0  0
  -23.9690  -10.6470   20.9770 C   0  0  0  0  0  0  0  0  0  0  0  0
  -24.3870   -9.7010   21.9380 C   0  0  0  0  0  3  0  0  0  0  0  0
  -23.6730   -8.4970   22.1140 C   0  0  0  0  0  3  0  0  0  0  0  0
  -22.5280   -8.2290   21.3270 C   0  0  0  0  0  0  0  0  0  0  0  0
  -22.1280   -9.1640   20.3570 C   0  0  0  0  0  3  0  0  0  0  0  0
  -22.8440  -10.3610   20.1790 C   0  0  0  0  0  3  0  0  0  0  0  0
  -21.7880   -7.0740   21.4100 O   0  0  0  0  0  0  0  0  0  0  0  0
  -21.6830   -6.3680   22.5820 C   0  0  0  0  0  0  0  0  0  0  0  0
  -21.1310   -6.9400   23.7490 C   0  0  0  0  0  3  0  0  0  0  0  0
  -20.9780   -6.1560   24.9120 C   0  0  0  0  0  3  0  0  0  0  0  0
  -21.3690   -4.8040   24.9070 C   0  0  0  0  0  0  0  0  0  0  0  0
  -21.9130   -4.2330   23.7440 C   0  0  0  0  0  3  0  0  0  0  0  0
  -22.0670   -5.0130   22.5850 C   0  0  0  0  0  0  0  0  0  0  0  0
  -22.5720   -4.4510   21.4590 F   0  0  0  0  0  0  0  0  0  0  0  0
  -21.2160   -4.0500   26.0210 F   0  0  0  0  0  0  0  0  0  0  0  0
  -22.8020  -13.7290   21.0570 C   0  0  0  0  0  0  0  0  0  0  0  0
  -22.0710  -13.0410   21.9250 N   0  0  0  0  0  0  0  0  0  0  0  0
  -22.3580  -14.7420   20.5180 O   0  0  0  0  0  0  0  0  0  0  0  0
  -22.4380  -12.2220   22.3880 H   0  0  0  0  0  0  0  0  0  0  0  0
  -21.1290  -13.3420   22.1340 H   0  0  0  0  0  0  0  0  0  0  0  0
  -25.4270  -15.4150   20.2650 N   0  0  0  0  0  0  0  0  0  0  0  0
  -24.6580  -16.0650   20.3890 H   0  0  0  0  0  0  0  0  0  0  0  0
  -26.2830  -15.8620   19.9650 H   0  0  0  0  0  0  0  0  0  0  0  0
  -26.1860  -23.3180   21.5830 C   0  0  0  0  0  1  0  0  0  0  0  0
  -27.0710  -24.3700   21.2100 O   0  0  0  0  0  0  0  0  0  0  0  0
  -28.7070  -25.6430   20.1210 C   0  0  0  0  0  2  0  0  0  0  0  0
  -28.3490  -26.8400   19.3470 O   0  0  0  0  0  0  0  0  0  0  0  0
  -24.5220  -31.7120   23.1020 C   0  0  0  0  0  0  0  0  0  0  0  0
  -27.1840  -27.5690   19.5760 C   0  0  0  0  0  0  0  0  0  0  0  0
  -23.3150  -30.4390   21.3650 C   0  0  0  0  0  3  0  0  0  0  0  0
  -24.7730  -29.0750   19.7780 C   0  0  0  0  0  0  0  0  0  0  0  0
  -25.8380  -30.8520   21.1610 C   0  0  0  0  0  2  0  0  0  0  0  0
  -25.9370  -29.5390   20.4050 C   0  0  0  0  0  0  0  0  0  0  0  0
  -27.1460  -28.7900   20.3090 C   0  0  0  0  0  3  0  0  0  0  0  0
  -26.0120  -27.1880   18.8960 C   0  0  0  0  0  3  0  0  0  0  0  0
  -24.8080  -27.8980   19.0210 C   0  0  0  0  0  3  0  0  0  0  0  0
  -23.5140  -29.9010   19.9250 C   0  0  0  0  0  2  0  0  0  0  0  0
  -24.5770  -31.0150   21.9320 N   0  0  0  0  0  0  0  0  0  0  0  0
  -23.4470  -31.9050   23.6860 O   0  0  0  0  0  0  0  0  0  0  0  0
  -22.7100  -29.3120   22.2360 C   0  0  0  0  0  0  0  0  0  0  0  0
  -21.3880  -29.1040   22.1180 N   0  0  0  0  0  0  0  0  0  0  0  0
  -23.4270  -28.6350   22.9760 O   0  0  0  0  0  0  0  0  0  0  0  0
  -20.8660  -29.7090   21.4980 H   0  0  0  0  0  0  0  0  0  0  0  0
  -18.0570  -27.7810   22.5940 C   0  0  0  0  0  0  0  0  0  0  0  0
  -20.6160  -28.0740   22.8130 C   0  0  0  0  0  3  0  0  0  0  0  0
  -20.7300  -26.7100   22.0940 C   0  0  0  0  0  2  0  0  0  0  0  0
  -19.6040  -26.4620   21.0860 C   0  0  0  0  0  2  0  0  0  0  0  0
  -18.2410  -26.5110   21.7820 C   0  0  0  0  0  2  0  0  0  0  0  0
  -19.1720  -28.5230   23.0650 C   0  0  0  0  0  0  0  0  0  0  0  0
  -18.9450  -29.7170   23.7830 C   0  0  0  0  0  3  0  0  0  0  0  0
  -17.6360  -30.1690   24.0360 C   0  0  0  0  0  3  0  0  0  0  0  0
  -16.5360  -29.4220   23.5820 C   0  0  0  0  0  3  0  0  0  0  0  0
  -16.7470  -28.2280   22.8670 C   0  0  0  0  0  3  0  0  0  0  0  0
  -25.8060  -32.3190   23.7480 C   0  0  0  0  0  3  0  0  0  0  0  0
  -26.3320  -31.4900   24.9820 C   0  0  1  0  0  0  0  0  0  0  0  0
  -25.2480  -31.1960   26.0430 C   0  0  0  0  0  1  0  0  0  0  0  0
  -26.9180  -30.1340   24.5220 C   0  0  0  0  0  1  0  0  0  0  0  0
  -27.4830  -32.2550   25.6760 C   0  0  0  0  0  1  0  0  0  0  0  0
  -25.4930  -33.6970   24.1480 N   0  0  0  0  0  0  0  0  0  0  0  0
  -25.7970  -34.7880   23.4300 C   0  0  0  0  0  0  0  0  0  0  0  0
  -26.4470  -34.7380   22.3820 O   0  0  0  0  0  0  0  0  0  0  0  0
  -24.9200  -33.8080   24.9720 H   0  0  0  0  0  0  0  0  0  0  0  0
  -24.0400  -36.5700   23.1900 C   0  0  0  0  0  1  0  0  0  0  0  0
  -25.3040  -36.1480   23.9590 C   0  0  0  0  0  3  0  0  0  0  0  0
  -27.4370  -37.0300   24.7940 C   0  0  0  0  0  1  0  0  0  0  0  0
  -26.3200  -37.2180   23.8720 N   0  0  0  0  0  0  0  0  0  0  0  0
  -25.9040  -38.1260   24.0590 H   0  0  0  0  0  0  0  0  0  0  0  0
  1  7  1  0
  1 12  1  0
  2  5  1  0
  3  2  1  0
  3  6  1  0
  5  4  1  0
  5 55  1  6
  5 54  1  0
  6  1  1  0
  6  4  1  0
  8  7  1  0
  9  7  1  0
 10 11  1  0
 11 13  2  0
 12 10  2  0
 12 14  1  0
 13 23  1  0
 14 13  1  0
 15 23  1  0
 16 21  1  0
 17 18  1  0
 17 16  1  0
 19 18  1  0
 19 28  1  0
 19 20  1  0
 21 15  1  0
 21 20  1  0
 22 15  2  0
 23 24  1  0
 25 26  2  0
 26 45  1  0
 27 26  1  0
 27 30  1  0
 28 25  1  0
 28 29  1  0
 29 27  2  0
 30 31  1  0
 31 32  2  0
 33 36  1  0
 33 32  1  0
 34 33  2  0
 35 34  1  0
 35 30  2  0
 36 37  1  0
 37 42  2  0
 37 38  1  0
 38 39  2  0
 40 39  1  0
 40 44  1  0
 41 40  2  0
 42 41  1  0
 43 42  1  0
 45 46  1  0
 46 49  1  0
 46 48  1  0
 47 45  2  0
 50 51  1  0
 50 25  1  0
 52 50  1  0
 54 53  1  0
 56 58  1  0
 56 55  1  0
 57 68  2  0
 58 63  1  0
 59 67  1  0
 59 69  1  0
 60 66  1  0
 60 62  1  0
 61 67  1  0
 62 61  1  0
 63 62  2  0
 64 65  1  0
 64 58  2  0
 65 60  2  0
 66 59  1  0
 67 57  1  0
 69 71  2  0
 70 69  1  0
 72 70  1  0
 73 82  2  0
 73 78  1  0
 74 70  1  0
 74 78  1  0
 75 74  1  0
 76 77  1  0
 76 75  1  0
 77 73  1  0
 78 79  2  0
 79 80  1  0
 81 80  2  0
 82 81  1  0
 83 57  1  0
 83 88  1  0
 83 84  1  0
 84 87  1  1
 84 85  1  0
 86 84  1  0
 88 91  1  0
 89 93  1  0
 89 88  1  0
 90 89  2  0
 93 92  1  0
 95 93  1  0
 95 96  1  0
 95 94  1  0
M  ISO  4  15 100  23 100  55 101  56 101
M  END
>  <TORSDO>  (77) 
F 19

>  <SCORE>  (77) 
-14.240

>  <name>  (77) 
76

>  <ligand_id>  (77) 
76

>  <original_smiles>  (77) 
[H]c1c(C(N2C([H])([H])C([H])([H])C(OC([H])([H])[H])(C([H])([H])Oc3c([H])c([H])c4c(c3[H])C([H])([H])N(C(=O)C([H])(N([H])C(=O)C([H])(N([H])C([H])([H])[H])C([H])([H])[H])C(C([H])([H])[H])(C([H])([H])[H])C([H])([H])[H])C([H])(C(=O)N([H])C3([H])c5c([H])c([H])c([H])c([H])c5C([H])([H])C([H])([H])C3([H])[H])C4([H])[H])C2([H])[H])=[N+]([H])[H])sc(N([H])C(=O)N2C([H])([H])C([H])([H])C([H])([H])C([H])(n3nc(-c4c([H])c([H])c(Oc5c([H])c([H])c(F)c([H])c5F)c([H])c4[H])c(C(=O)N([H])[H])c3N([H])[H])C2([H])[H])c1[H]

>  <smiles>  (77) 
[H]c1c(C(N2C([H])([H])C([H])([H])C(OC([H])([H])[H])(C([H])([H])Oc3c([H])c([H])c4c(c3[H])C([H])([H])N(C(=O)C([H])(N([H])C(=O)C([H])(N([H])C([H])([H])[H])C([H])([H])[H])C(C([H])([H])[H])(C([H])([H])[H])C([H])([H])[H])C([H])(C(=O)N([H])C3([H])c5c([H])c([H])c([H])c([H])c5C([H])([H])C([H])([H])C3([H])[H])C4([H])[H])C2([H])[H])=[N+]([H])[H])sc(N([H])C(=O)N2C([H])([H])C([H])([H])C([H])([H])C([H])(n3nc(-c4c([H])c([H])c(Oc5c([H])c([H])c(F)c([H])c5F)c([H])c4[H])c(C(=O)N([H])[H])c3N([H])[H])C2([H])[H])c1[H]

$$$$
77:0:0
     RDKit          3D

 98107  0  0  1  0  0  0  0  0999 V2000
  -30.9810  -18.5330   19.6170 C   0  0  0  0  0  3  0  0  0  0  0  0
  -30.8180  -19.9170   19.2500 C   0  0  0  0  0  0  0  0  0  0  0  0
  -30.3340  -18.1670   20.7680 C   0  0  0  0  0  0  0  0  0  0  0  0
  -30.0270  -20.6470   20.1220 C   0  0  0  0  0  0  0  0  0  0  0  0
  -29.4380  -19.5570   21.3880 S   0  0  0  0  0  0  0  0  0  0  0  0
  -32.9380  -20.6150   16.2390 C   0  0  0  0  0  2  0  0  0  0  0  0
  -31.6150  -21.2820   15.8650 C   0  0  0  0  0  2  0  0  0  0  0  0
  -32.5350  -19.7110   17.4020 C   0  0  0  0  0  2  0  0  0  0  0  0
  -30.8670  -21.4060   17.2000 C   0  0  0  0  0  2  0  0  0  0  0  0
  -31.4810  -20.4380   18.1050 N   0  0  0  0  0  0  0  0  0  0  0  0
  -28.9670  -22.8560   20.6630 C   0  0  0  0  0  0  0  0  0  0  0  0
  -29.8170  -22.0060   20.0360 N   0  0  0  0  0  0  0  0  0  0  0  0
  -28.1360  -22.4770   21.4890 O   0  0  0  0  0  0  0  0  0  0  0  0
  -30.4020  -22.4810   19.3610 H   0  0  0  0  0  0  0  0  0  0  0  0
  -28.2940  -25.2590   20.6120 C   0  0  0  0  0  3  0  0  0  0  0  0
  -29.1490  -24.2680   20.2330 C   0  0  0  0  0  0  0  0  0  0  0  0
  -30.1840  -24.5850   19.4400 O   0  0  0  0  0  0  0  0  0  0  0  0
  -30.1310  -25.5210   19.2920 H   0  0  0  0  0  0  0  0  0  0  0  0
  -28.4220  -26.5970   20.2360 O   0  0  0  0  0  0  0  0  0  0  0  0
  -24.6330  -31.9000   23.2320 C   0  0  0  0  0  0  0  0  0  0  0  0
  -27.2790  -27.3890   20.2190 C   0  0  0  0  0  0  0  0  0  0  0  0
  -23.4360  -30.4910   21.5920 C   0  0  0  0  0  3  0  0  0  0  0  0
  -24.8960  -28.9370   20.1850 C   0  0  0  0  0  0  0  0  0  0  0  0
  -25.9680  -30.8340   21.4110 C   0  0  0  0  0  2  0  0  0  0  0  0
  -26.0540  -29.4540   20.7800 C   0  0  0  0  0  0  0  0  0  0  0  0
  -27.2500  -28.6890   20.7910 C   0  0  0  0  0  3  0  0  0  0  0  0
  -26.1030  -26.9060   19.6040 C   0  0  0  0  0  3  0  0  0  0  0  0
  -24.9180  -27.6650   19.5910 C   0  0  0  0  0  3  0  0  0  0  0  0
  -23.6520  -29.8000   20.2180 C   0  0  0  0  0  2  0  0  0  0  0  0
  -24.6960  -31.0930   22.1340 N   0  0  0  0  0  0  0  0  0  0  0  0
  -23.5490  -32.1740   23.7680 O   0  0  0  0  0  0  0  0  0  0  0  0
  -22.7750  -29.4770   22.5550 C   0  0  0  0  0  0  0  0  0  0  0  0
  -21.4490  -29.3020   22.4270 N   0  0  0  0  0  0  0  0  0  0  0  0
  -23.4530  -28.8500   23.3730 O   0  0  0  0  0  0  0  0  0  0  0  0
  -20.9620  -29.8590   21.7380 H   0  0  0  0  0  0  0  0  0  0  0  0
  -18.0620  -28.1450   22.9420 C   0  0  0  0  0  0  0  0  0  0  0  0
  -20.6240  -28.3720   23.1970 C   0  0  0  0  0  3  0  0  0  0  0  0
  -20.7060  -26.9420   22.6140 C   0  0  0  0  0  2  0  0  0  0  0  0
  -19.5940  -26.6380   21.6050 C   0  0  0  0  0  2  0  0  0  0  0  0
  -18.2180  -26.7970   22.2580 C   0  0  0  0  0  2  0  0  0  0  0  0
  -19.1920  -28.8930   23.3670 C   0  0  0  0  0  0  0  0  0  0  0  0
  -18.9910  -30.1560   23.9640 C   0  0  0  0  0  3  0  0  0  0  0  0
  -17.6940  -30.6720   24.1390 C   0  0  0  0  0  3  0  0  0  0  0  0
  -16.5780  -29.9220   23.7310 C   0  0  0  0  0  3  0  0  0  0  0  0
  -16.7630  -28.6600   23.1350 C   0  0  0  0  0  3  0  0  0  0  0  0
  -25.9170  -32.5320   23.8570 C   0  0  0  0  0  3  0  0  0  0  0  0
  -25.6070  -33.9290   24.1870 N   0  0  0  0  0  0  0  0  0  0  0  0
  -25.9350  -34.9820   23.4260 C   0  0  0  0  0  0  0  0  0  0  0  0
  -26.6020  -34.8810   22.3930 O   0  0  0  0  0  0  0  0  0  0  0  0
  -25.0230  -34.0820   24.9960 H   0  0  0  0  0  0  0  0  0  0  0  0
  -24.2060  -36.7710   23.0660 C   0  0  0  0  0  1  0  0  0  0  0  0
  -25.4450  -36.3700   23.8820 C   0  0  0  0  0  3  0  0  0  0  0  0
  -27.5770  -37.2580   24.7180 C   0  0  0  0  0  1  0  0  0  0  0  0
  -26.4780  -37.4250   23.7710 N   0  0  0  0  0  0  0  0  0  0  0  0
  -26.0680  -38.3440   23.9190 H   0  0  0  0  0  0  0  0  0  0  0  0
  -26.4330  -31.7600   25.1330 C   0  0  1  0  0  0  0  0  0  0  0  0
  -25.3390  -31.5250   26.1990 C   0  0  0  0  0  1  0  0  0  0  0  0
  -27.0170  -30.3820   24.7410 C   0  0  0  0  0  1  0  0  0  0  0  0
  -27.5800  -32.5550   25.7980 C   0  0  0  0  0  1  0  0  0  0  0  0
  -30.4800  -16.8550   21.5380 C   0  0  0  0  0  2  0  0  0  0  0  0
  -30.6740  -14.5500   20.4540 C   0  0  0  0  0  0  0  0  0  0  0  0
  -30.3800  -12.3760   19.2970 C   0  0  0  0  0  2  0  0  0  0  0  0
  -29.4340  -12.5450   18.0910 C   0  0  0  0  0  2  0  0  0  0  0  0
  -27.9610  -12.4050   18.5270 C   0  0  0  0  0  2  0  0  0  0  0  0
  -27.6210  -13.2610   19.7770 C   0  0  0  0  0  3  0  0  0  0  0  0
  -28.6770  -13.0650   20.8850 C   0  0  0  0  0  2  0  0  0  0  0  0
  -29.9930  -13.3770   20.3070 N   0  0  0  0  0  0  0  0  0  0  0  0
  -31.8340  -14.6940   20.0580 O   0  0  0  0  0  0  0  0  0  0  0  0
  -29.9630  -15.5950   20.9470 N   0  0  0  0  0  0  0  0  0  0  0  0
  -28.9910  -15.3990   21.1330 H   0  0  0  0  0  0  0  0  0  0  0  0
  -25.2290  -13.8850   20.4800 C   0  0  0  0  0  0  0  0  0  0  0  0
  -24.1530  -13.1210   20.8490 C   0  0  0  0  0  0  0  0  0  0  0  0
  -24.6070  -11.7680   20.8300 C   0  0  0  0  0  0  0  0  0  0  0  0
  -26.2680  -12.9950   20.2570 N   0  0  0  0  0  0  0  0  0  0  0  0
  -25.8980  -11.7170   20.5290 N   0  0  0  0  0  0  0  0  0  0  0  0
  -23.8720  -10.5110   21.0240 C   0  0  0  0  0  0  0  0  0  0  0  0
  -24.2990   -9.5430   21.9590 C   0  0  0  0  0  3  0  0  0  0  0  0
  -23.5670   -8.3500   22.1400 C   0  0  0  0  0  3  0  0  0  0  0  0
  -22.3910   -8.1170   21.3870 C   0  0  0  0  0  0  0  0  0  0  0  0
  -21.9840   -9.0740   20.4400 C   0  0  0  0  0  3  0  0  0  0  0  0
  -22.7180  -10.2570   20.2560 C   0  0  0  0  0  3  0  0  0  0  0  0
  -21.6290   -6.9770   21.4790 O   0  0  0  0  0  0  0  0  0  0  0  0
  -21.5780   -6.2360   22.6320 C   0  0  0  0  0  0  0  0  0  0  0  0
  -21.1560   -6.7940   23.8580 C   0  0  0  0  0  3  0  0  0  0  0  0
  -21.0530   -5.9780   25.0030 C   0  0  0  0  0  3  0  0  0  0  0  0
  -21.3620   -4.6070   24.9220 C   0  0  0  0  0  0  0  0  0  0  0  0
  -21.7760   -4.0500   23.6990 C   0  0  0  0  0  3  0  0  0  0  0  0
  -21.8810   -4.8630   22.5570 C   0  0  0  0  0  0  0  0  0  0  0  0
  -22.2620   -4.3160   21.3770 F   0  0  0  0  0  0  0  0  0  0  0  0
  -21.2540   -3.8220   26.0180 F   0  0  0  0  0  0  0  0  0  0  0  0
  -22.7590  -13.6090   21.1090 C   0  0  0  0  0  0  0  0  0  0  0  0
  -22.0220  -12.9210   21.9760 N   0  0  0  0  0  0  0  0  0  0  0  0
  -22.3310  -14.6330   20.5800 O   0  0  0  0  0  0  0  0  0  0  0  0
  -22.3810  -12.0920   22.4250 H   0  0  0  0  0  0  0  0  0  0  0  0
  -21.0850  -13.2300   22.1930 H   0  0  0  0  0  0  0  0  0  0  0  0
  -25.4030  -15.2520   20.2940 N   0  0  0  0  0  0  0  0  0  0  0  0
  -24.6380  -15.9130   20.3940 H   0  0  0  0  0  0  0  0  0  0  0  0
  -26.2520  -15.6850   19.9530 H   0  0  0  0  0  0  0  0  0  0  0  0
  1  3  2  0
  2  1  1  0
  2  4  2  0
  3  5  1  0
  3 60  1  0
  4  5  1  0
  6  8  1  0
  7  6  1  0
  7  9  1  0
  8 10  1  0
  9 10  1  0
 10  2  1  0
 11 13  2  0
 12  4  1  0
 12 11  1  0
 14 12  1  0
 16 15  2  0
 16 11  1  0
 17 16  1  0
 18 17  1  0
 19 15  1  0
 20 31  2  0
 21 19  1  0
 21 26  1  0
 22 30  1  0
 22 32  1  0
 23 29  1  0
 23 25  1  0
 24 30  1  0
 25 26  2  0
 25 24  1  0
 27 21  2  0
 28 27  1  0
 28 23  2  0
 29 22  1  0
 30 20  1  0
 32 34  2  0
 33 32  1  0
 35 33  1  0
 36 45  2  0
 36 41  1  0
 37 33  1  0
 37 41  1  0
 38 37  1  0
 39 40  1  0
 39 38  1  0
 40 36  1  0
 41 42  2  0
 42 43  1  0
 44 43  2  0
 45 44  1  0
 46 20  1  0
 46 47  1  0
 46 56  1  0
 47 50  1  0
 48 52  1  0
 48 47  1  0
 49 48  2  0
 52 51  1  0
 54 52  1  0
 54 55  1  0
 54 53  1  0
 56 59  1  1
 56 57  1  0
 58 56  1  0
 61 69  1  0
 62 67  1  0
 63 64  1  0
 63 62  1  0
 65 64  1  0
 65 74  1  0
 65 66  1  0
 67 61  1  0
 67 66  1  0
 68 61  2  0
 69 70  1  0
 69 60  1  0
 71 72  2  0
 72 91  1  0
 73 72  1  0
 73 76  1  0
 74 71  1  0
 74 75  1  0
 75 73  2  0
 76 77  1  0
 77 78  2  0
 79 82  1  0
 79 78  1  0
 80 79  2  0
 81 80  1  0
 81 76  2  0
 82 83  1  0
 83 84  1  0
 84 85  2  0
 86 85  1  0
 86 90  1  0
 87 86  2  0
 88 83  2  0
 88 87  1  0
 89 88  1  0
 91 92  1  0
 92 95  1  0
 92 94  1  0
 93 91  2  0
 96 97  1  0
 96 71  1  0
 98 96  1  0
M  ISO  4  15 101  19 101  61 100  69 100
M  END
>  <TORSDO>  (78) 
F 21

>  <SCORE>  (78) 
-13.502

>  <name>  (78) 
77

>  <ligand_id>  (78) 
77

>  <original_smiles>  (78) 
[H]OC(C(=O)N([H])c1sc(C([H])([H])N([H])C(=O)N2C([H])([H])C([H])([H])C([H])([H])C([H])(n3nc(-c4c([H])c([H])c(Oc5c([H])c([H])c(F)c([H])c5F)c([H])c4[H])c(C(=O)N([H])[H])c3N([H])[H])C2([H])[H])c([H])c1N1C([H])([H])C([H])([H])C([H])([H])C1([H])[H])=C([H])Oc1c([H])c([H])c2c(c1[H])C([H])([H])N(C(=O)C([H])(N([H])C(=O)C([H])(N([H])C([H])([H])[H])C([H])([H])[H])C(C([H])([H])[H])(C([H])([H])[H])C([H])([H])[H])C([H])(C(=O)N([H])C1([H])c3c([H])c([H])c([H])c([H])c3C([H])([H])C([H])([H])C1([H])[H])C2([H])[H]

>  <smiles>  (78) 
[H]OC(C(=O)N([H])c1sc(C([H])([H])N([H])C(=O)N2C([H])([H])C([H])([H])C([H])([H])C([H])(n3nc(-c4c([H])c([H])c(Oc5c([H])c([H])c(F)c([H])c5F)c([H])c4[H])c(C(=O)N([H])[H])c3N([H])[H])C2([H])[H])c([H])c1N1C([H])([H])C([H])([H])C([H])([H])C1([H])[H])=C([H])Oc1c([H])c([H])c2c(c1[H])C([H])([H])N(C(=O)C([H])(N([H])C(=O)C([H])(N([H])C([H])([H])[H])C([H])([H])[H])C(C([H])([H])[H])(C([H])([H])[H])C([H])([H])[H])C([H])(C(=O)N([H])C1([H])c3c([H])c([H])c([H])c([H])c3C([H])([H])C([H])([H])C1([H])[H])C2([H])[H]

$$$$
78:0:0
     RDKit          3D

 92101  0  0  1  0  0  0  0  0999 V2000
  -29.6420  -24.4350   19.7390 C   0  0  0  0  0  0  0  0  0  0  0  0
  -30.9440  -20.9990   19.0890 C   0  0  0  0  0  2  0  0  0  0  0  0
  -31.0690  -22.5290   19.0910 C   0  0  0  0  0  2  0  0  0  0  0  0
  -29.1780  -21.9280   20.4050 C   0  0  0  0  0  2  0  0  0  0  0  0
  -30.1650  -20.6900   20.3540 C   0  0  0  0  0  3  0  0  0  0  0  0
  -29.8870  -23.0770   19.7730 N   0  0  0  0  0  0  0  0  0  0  0  0
  -30.4780  -25.1860   19.2240 O   0  0  0  0  0  0  0  0  0  0  0  0
  -28.3010  -17.1630   20.3680 C   0  0  0  0  0  3  0  0  0  0  0  0
  -29.6090  -16.9180   20.6850 C   0  0  0  0  0  0  0  0  0  0  0  0
  -29.6370  -19.2440   20.4170 C   0  0  0  0  0  0  0  0  0  0  0  0
  -30.3630  -18.1270   20.7280 N   0  0  0  0  0  0  0  0  0  0  0  0
  -27.9760  -18.8380   20.0030 S   0  0  0  0  0  0  0  0  0  0  0  0
  -30.6540  -14.6000   20.4620 C   0  0  0  0  0  0  0  0  0  0  0  0
  -30.4230  -12.3700   19.3760 C   0  0  0  0  0  2  0  0  0  0  0  0
  -29.5000  -12.5100   18.1450 C   0  0  0  0  0  2  0  0  0  0  0  0
  -28.0190  -12.3650   18.5480 C   0  0  0  0  0  2  0  0  0  0  0  0
  -27.6480  -13.2340   19.7770 C   0  0  0  0  0  3  0  0  0  0  0  0
  -28.6860  -13.0620   20.9120 C   0  0  0  0  0  2  0  0  0  0  0  0
  -30.0200  -13.3860   20.3690 N   0  0  0  0  0  0  0  0  0  0  0  0
  -31.7660  -14.7890   19.9580 O   0  0  0  0  0  0  0  0  0  0  0  0
  -29.9690  -15.5810   21.1160 N   0  0  0  0  0  0  0  0  0  0  0  0
  -29.2240  -15.1500   21.6390 H   0  0  0  0  0  0  0  0  0  0  0  0
  -25.2340  -13.8490   20.4330 C   0  0  0  0  0  0  0  0  0  0  0  0
  -24.1650  -13.0900   20.8160 C   0  0  0  0  0  0  0  0  0  0  0  0
  -24.6220  -11.7380   20.8090 C   0  0  0  0  0  0  0  0  0  0  0  0
  -26.2850  -12.9650   20.2360 N   0  0  0  0  0  0  0  0  0  0  0  0
  -25.9160  -11.6890   20.5160 N   0  0  0  0  0  0  0  0  0  0  0  0
  -23.8840  -10.4840   21.0030 C   0  0  0  0  0  0  0  0  0  0  0  0
  -24.2970   -9.5240   21.9520 C   0  0  0  0  0  3  0  0  0  0  0  0
  -23.5590   -8.3350   22.1340 C   0  0  0  0  0  3  0  0  0  0  0  0
  -22.3940   -8.0980   21.3670 C   0  0  0  0  0  0  0  0  0  0  0  0
  -22.0000   -9.0470   20.4070 C   0  0  0  0  0  3  0  0  0  0  0  0
  -22.7390  -10.2270   20.2230 C   0  0  0  0  0  3  0  0  0  0  0  0
  -21.6300   -6.9600   21.4580 O   0  0  0  0  0  0  0  0  0  0  0  0
  -21.5650   -6.2290   22.6180 C   0  0  0  0  0  0  0  0  0  0  0  0
  -21.1390   -6.8010   23.8360 C   0  0  0  0  0  3  0  0  0  0  0  0
  -21.0200   -5.9970   24.9870 C   0  0  0  0  0  3  0  0  0  0  0  0
  -21.3160   -4.6230   24.9210 C   0  0  0  0  0  0  0  0  0  0  0  0
  -21.7340   -4.0500   23.7060 C   0  0  0  0  0  3  0  0  0  0  0  0
  -21.8550   -4.8510   22.5580 C   0  0  0  0  0  0  0  0  0  0  0  0
  -22.2380   -4.2910   21.3860 F   0  0  0  0  0  0  0  0  0  0  0  0
  -21.1930   -3.8480   26.0240 F   0  0  0  0  0  0  0  0  0  0  0  0
  -22.7670  -13.5820   21.0570 C   0  0  0  0  0  0  0  0  0  0  0  0
  -22.0210  -12.9080   21.9250 N   0  0  0  0  0  0  0  0  0  0  0  0
  -22.3460  -14.6030   20.5130 O   0  0  0  0  0  0  0  0  0  0  0  0
  -22.3730  -12.0850   22.3900 H   0  0  0  0  0  0  0  0  0  0  0  0
  -21.0830  -13.2250   22.1300 H   0  0  0  0  0  0  0  0  0  0  0  0
  -25.3780  -15.2090   20.2020 N   0  0  0  0  0  0  0  0  0  0  0  0
  -24.5270  -15.7610   20.1840 H   0  0  0  0  0  0  0  0  0  0  0  0
  -26.0310  -15.5080   19.4910 H   0  0  0  0  0  0  0  0  0  0  0  0
  -28.3410  -25.1200   20.2740 C   0  0  0  0  0  2  0  0  0  0  0  0
  -28.3990  -26.5890   20.1270 O   0  0  0  0  0  0  0  0  0  0  0  0
  -24.6030  -31.8650   23.1970 C   0  0  0  0  0  0  0  0  0  0  0  0
  -27.2300  -27.3520   20.1280 C   0  0  0  0  0  0  0  0  0  0  0  0
  -23.3930  -30.4640   21.5600 C   0  0  0  0  0  3  0  0  0  0  0  0
  -24.8440  -28.9160   20.1330 C   0  0  0  0  0  0  0  0  0  0  0  0
  -25.9250  -30.8020   21.3630 C   0  0  0  0  0  2  0  0  0  0  0  0
  -26.0080  -29.4240   20.7210 C   0  0  0  0  0  0  0  0  0  0  0  0
  -27.2030  -28.6530   20.7070 C   0  0  0  0  0  3  0  0  0  0  0  0
  -26.0420  -26.8830   19.5210 C   0  0  0  0  0  3  0  0  0  0  0  0
  -24.8610  -27.6500   19.5260 C   0  0  0  0  0  3  0  0  0  0  0  0
  -23.6020  -29.7830   20.1810 C   0  0  0  0  0  2  0  0  0  0  0  0
  -24.6590  -31.0610   22.0960 N   0  0  0  0  0  0  0  0  0  0  0  0
  -23.5220  -32.1390   23.7380 O   0  0  0  0  0  0  0  0  0  0  0  0
  -22.7400  -29.4460   22.5240 C   0  0  0  0  0  0  0  0  0  0  0  0
  -21.4120  -29.2740   22.4050 N   0  0  0  0  0  0  0  0  0  0  0  0
  -23.4240  -28.8150   23.3340 O   0  0  0  0  0  0  0  0  0  0  0  0
  -20.9220  -29.8330   21.7220 H   0  0  0  0  0  0  0  0  0  0  0  0
  -18.0330  -28.0960   22.9270 C   0  0  0  0  0  0  0  0  0  0  0  0
  -20.5950  -28.3380   23.1790 C   0  0  0  0  0  3  0  0  0  0  0  0
  -20.6840  -26.9090   22.5950 C   0  0  0  0  0  2  0  0  0  0  0  0
  -19.5720  -26.5990   21.5880 C   0  0  0  0  0  2  0  0  0  0  0  0
  -18.1950  -26.7490   22.2440 C   0  0  0  0  0  2  0  0  0  0  0  0
  -19.1600  -28.8500   23.3510 C   0  0  0  0  0  0  0  0  0  0  0  0
  -18.9540  -30.1110   23.9500 C   0  0  0  0  0  3  0  0  0  0  0  0
  -17.6540  -30.6190   24.1290 C   0  0  0  0  0  3  0  0  0  0  0  0
  -16.5410  -29.8640   23.7210 C   0  0  0  0  0  3  0  0  0  0  0  0
  -16.7320  -28.6030   23.1250 C   0  0  0  0  0  3  0  0  0  0  0  0
  -25.8890  -32.4960   23.8160 C   0  0  0  0  0  3  0  0  0  0  0  0
  -25.5790  -33.8910   24.1560 N   0  0  0  0  0  0  0  0  0  0  0  0
  -25.9070  -34.9500   23.4020 C   0  0  0  0  0  0  0  0  0  0  0  0
  -26.5740  -34.8530   22.3680 O   0  0  0  0  0  0  0  0  0  0  0  0
  -24.9880  -34.0410   24.9600 H   0  0  0  0  0  0  0  0  0  0  0  0
  -24.1770  -36.7430   23.0610 C   0  0  0  0  0  1  0  0  0  0  0  0
  -25.4190  -36.3350   23.8690 C   0  0  0  0  0  3  0  0  0  0  0  0
  -27.5550  -37.2140   24.7020 C   0  0  0  0  0  1  0  0  0  0  0  0
  -26.4510  -37.3890   23.7630 N   0  0  0  0  0  0  0  0  0  0  0  0
  -26.0440  -38.3080   23.9200 H   0  0  0  0  0  0  0  0  0  0  0  0
  -26.4140  -31.7190   25.0860 C   0  0  1  0  0  0  0  0  0  0  0  0
  -25.3280  -31.4800   26.1600 C   0  0  0  0  0  1  0  0  0  0  0  0
  -26.9940  -30.3430   24.6850 C   0  0  0  0  0  1  0  0  0  0  0  0
  -27.5680  -32.5120   25.7450 C   0  0  0  0  0  1  0  0  0  0  0  0
  1  6  1  0
  1 51  1  0
  2  3  1  0
  2  5  1  0
  3  6  1  0
  5  4  1  0
  5 10  1  0
  6  4  1  0
  7  1  2  0
  8  9  2  0
  9 11  1  0
  9 21  1  0
 10 11  2  0
 12  8  1  0
 12 10  1  0
 13 21  1  0
 14 19  1  0
 15 16  1  0
 15 14  1  0
 17 16  1  0
 17 26  1  0
 17 18  1  0
 19 13  1  0
 19 18  1  0
 20 13  2  0
 21 22  1  0
 23 24  2  0
 24 43  1  0
 25 24  1  0
 25 28  1  0
 26 23  1  0
 26 27  1  0
 27 25  2  0
 28 29  1  0
 29 30  2  0
 31 34  1  0
 31 30  1  0
 32 31  2  0
 33 32  1  0
 33 28  2  0
 34 35  1  0
 35 36  1  0
 36 37  2  0
 38 37  1  0
 38 42  1  0
 39 38  2  0
 40 35  2  0
 40 39  1  0
 41 40  1  0
 43 44  1  0
 44 47  1  0
 44 46  1  0
 45 43  2  0
 48 23  1  0
 49 48  1  0
 50 48  1  0
 52 54  1  0
 52 51  1  0
 53 64  2  0
 54 59  1  0
 55 63  1  0
 55 65  1  0
 56 62  1  0
 56 58  1  0
 57 63  1  0
 58 57  1  0
 59 58  2  0
 60 61  1  0
 60 54  2  0
 61 56  2  0
 62 55  1  0
 63 53  1  0
 65 67  2  0
 66 65  1  0
 68 66  1  0
 69 78  2  0
 69 74  1  0
 70 66  1  0
 70 74  1  0
 71 70  1  0
 72 73  1  0
 72 71  1  0
 73 69  1  0
 74 75  2  0
 75 76  1  0
 77 76  2  0
 78 77  1  0
 79 53  1  0
 79 80  1  0
 79 89  1  0
 80 83  1  0
 81 85  1  0
 81 80  1  0
 82 81  2  0
 85 84  1  0
 87 85  1  0
 87 88  1  0
 87 86  1  0
 89 92  1  1
 89 90  1  0
 91 89  1  0
M  ISO  4  13 100  21 100  51 101  52 101
M  END
>  <TORSDO>  (79) 
F 18

>  <SCORE>  (79) 
-14.766

>  <name>  (79) 
78

>  <ligand_id>  (79) 
78

>  <original_smiles>  (79) 
[H]c1sc(C2([H])C([H])([H])N(C(=O)C([H])([H])Oc3c([H])c([H])c4c(c3[H])C([H])([H])N(C(=O)C([H])(N([H])C(=O)C([H])(N([H])C([H])([H])[H])C([H])([H])[H])C(C([H])([H])[H])(C([H])([H])[H])C([H])([H])[H])C([H])(C(=O)N([H])C3([H])c5c([H])c([H])c([H])c([H])c5C([H])([H])C([H])([H])C3([H])[H])C4([H])[H])C([H])([H])C2([H])[H])nc1N([H])C(=O)N1C([H])([H])C([H])([H])C([H])([H])C([H])(n2nc(-c3c([H])c([H])c(Oc4c([H])c([H])c(F)c([H])c4F)c([H])c3[H])c(C(=O)N([H])[H])c2N([H])[H])C1([H])[H]

>  <smiles>  (79) 
[H]c1sc(C2([H])C([H])([H])N(C(=O)C([H])([H])Oc3c([H])c([H])c4c(c3[H])C([H])([H])N(C(=O)C([H])(N([H])C(=O)C([H])(N([H])C([H])([H])[H])C([H])([H])[H])C(C([H])([H])[H])(C([H])([H])[H])C([H])([H])[H])C([H])(C(=O)N([H])C3([H])c5c([H])c([H])c([H])c([H])c5C([H])([H])C([H])([H])C3([H])[H])C4([H])[H])C([H])([H])C2([H])[H])nc1N([H])C(=O)N1C([H])([H])C([H])([H])C([H])([H])C([H])(n2nc(-c3c([H])c([H])c(Oc4c([H])c([H])c(F)c([H])c4F)c([H])c3[H])c(C(=O)N([H])[H])c2N([H])[H])C1([H])[H]

$$$$
79:0:0
     RDKit          3D

 96105  0  0  1  0  0  0  0  0999 V2000
  -29.9240  -20.3620   19.2500 C   0  0  0  0  0  3  0  0  0  0  0  0
  -28.5270  -23.4790   20.8390 C   0  0  0  0  0  2  0  0  0  0  0  0
  -29.0090  -22.0160   20.9700 C   0  0  0  0  0  2  0  0  0  0  0  0
  -29.6730  -22.9200   18.8530 C   0  0  0  0  0  3  0  0  0  0  0  0
  -29.4710  -24.1410   19.8270 C   0  0  2  0  0  0  0  0  0  0  0  0
  -30.9190  -23.0690   17.9490 C   0  0  0  0  0  1  0  0  0  0  0  0
  -30.7870  -24.5520   20.5260 C   0  0  0  0  0  1  0  0  0  0  0  0
  -29.6230  -21.6540   19.6770 N   0  0  0  0  0  0  0  0  0  0  0  0
  -30.4120  -20.2060   18.0110 N   0  0  0  0  0  0  0  0  0  0  0  0
  -30.5590  -19.2870   17.6260 H   0  0  0  0  0  0  0  0  0  0  0  0
  -30.6310  -21.0050   17.4350 H   0  0  0  0  0  0  0  0  0  0  0  0
  -30.4680  -17.8900   19.8860 C   0  0  0  0  0  3  0  0  0  0  0  0
  -28.7140  -17.1370   21.2400 C   0  0  0  0  0  3  0  0  0  0  0  0
  -29.8580  -16.7740   20.5810 C   0  0  0  0  0  0  0  0  0  0  0  0
  -29.7330  -19.0780   19.9730 C   0  0  0  0  0  0  0  0  0  0  0  0
  -28.3120  -18.8090   20.9640 S   0  0  0  0  0  0  0  0  0  0  0  0
  -30.8050  -14.5260   19.7670 C   0  0  0  0  0  0  0  0  0  0  0  0
  -30.4850  -12.3370   18.6250 C   0  0  0  0  0  2  0  0  0  0  0  0
  -29.4160  -12.4880   17.5170 C   0  0  0  0  0  2  0  0  0  0  0  0
  -27.9940  -12.3160   18.0880 C   0  0  0  0  0  2  0  0  0  0  0  0
  -27.7620  -13.1640   19.3660 C   0  0  0  0  0  3  0  0  0  0  0  0
  -28.9180  -12.9560   20.3690 C   0  0  0  0  0  2  0  0  0  0  0  0
  -30.1850  -13.3070   19.6950 N   0  0  0  0  0  0  0  0  0  0  0  0
  -31.8020  -14.8050   19.0930 O   0  0  0  0  0  0  0  0  0  0  0  0
  -30.2530  -15.3840   20.6610 N   0  0  0  0  0  0  0  0  0  0  0  0
  -29.7020  -14.8660   21.3270 H   0  0  0  0  0  0  0  0  0  0  0  0
  -25.4590  -13.7650   20.3500 C   0  0  0  0  0  0  0  0  0  0  0  0
  -24.4250  -12.9900   20.8010 C   0  0  0  0  0  0  0  0  0  0  0  0
  -24.8630  -11.6360   20.6730 C   0  0  0  0  0  0  0  0  0  0  0  0
  -26.4610  -12.8830   19.9730 N   0  0  0  0  0  0  0  0  0  0  0  0
  -26.1110  -11.5960   20.2230 N   0  0  0  0  0  0  0  0  0  0  0  0
  -24.1460  -10.3730   20.8980 C   0  0  0  0  0  0  0  0  0  0  0  0
  -24.5750   -9.4430   21.8710 C   0  0  0  0  0  3  0  0  0  0  0  0
  -23.8600   -8.2450   22.0810 C   0  0  0  0  0  3  0  0  0  0  0  0
  -22.7000   -7.9680   21.3180 C   0  0  0  0  0  0  0  0  0  0  0  0
  -22.2900   -8.8860   20.3370 C   0  0  0  0  0  3  0  0  0  0  0  0
  -23.0060  -10.0760   20.1240 C   0  0  0  0  0  3  0  0  0  0  0  0
  -21.9580   -6.8160   21.4340 O   0  0  0  0  0  0  0  0  0  0  0  0
  -21.7720   -6.1990   22.6440 C   0  0  0  0  0  0  0  0  0  0  0  0
  -21.1470   -6.8560   23.7260 C   0  0  0  0  0  3  0  0  0  0  0  0
  -20.9110   -6.1620   24.9290 C   0  0  0  0  0  3  0  0  0  0  0  0
  -21.2900   -4.8110   25.0500 C   0  0  0  0  0  0  0  0  0  0  0  0
  -21.9070   -4.1550   23.9710 C   0  0  0  0  0  3  0  0  0  0  0  0
  -22.1450   -4.8460   22.7710 C   0  0  0  0  0  0  0  0  0  0  0  0
  -22.7210   -4.2040   21.7270 F   0  0  0  0  0  0  0  0  0  0  0  0
  -21.0570   -4.1410   26.2020 F   0  0  0  0  0  0  0  0  0  0  0  0
  -23.0720  -13.4710   21.2420 C   0  0  0  0  0  0  0  0  0  0  0  0
  -22.4380  -12.7600   22.1680 N   0  0  0  0  0  0  0  0  0  0  0  0
  -22.5850  -14.5100   20.7990 O   0  0  0  0  0  0  0  0  0  0  0  0
  -22.8450  -11.9200   22.5520 H   0  0  0  0  0  0  0  0  0  0  0  0
  -21.5340  -13.0630   22.5010 H   0  0  0  0  0  0  0  0  0  0  0  0
  -25.6220  -15.1420   20.2150 N   0  0  0  0  0  0  0  0  0  0  0  0
  -24.8930  -15.8020   20.4560 H   0  0  0  0  0  0  0  0  0  0  0  0
  -26.4660  -15.5880   19.8780 H   0  0  0  0  0  0  0  0  0  0  0  0
  -28.8400  -25.4050   19.1190 C   0  0  0  0  0  2  0  0  0  0  0  0
  -28.6140  -26.5940   19.9430 O   0  0  0  0  0  0  0  0  0  0  0  0
  -24.5810  -31.6850   23.0110 C   0  0  0  0  0  0  0  0  0  0  0  0
  -27.4190  -27.3200   19.8950 C   0  0  0  0  0  0  0  0  0  0  0  0
  -23.4550  -30.2720   21.3300 C   0  0  0  0  0  3  0  0  0  0  0  0
  -24.9810  -28.8080   19.9050 C   0  0  0  0  0  0  0  0  0  0  0  0
  -25.9800  -30.6980   21.1880 C   0  0  0  0  0  2  0  0  0  0  0  0
  -26.1200  -29.3360   20.5230 C   0  0  0  0  0  0  0  0  0  0  0  0
  -27.3360  -28.6010   20.5180 C   0  0  0  0  0  3  0  0  0  0  0  0
  -26.2420  -26.8240   19.2820 C   0  0  0  0  0  3  0  0  0  0  0  0
  -25.0410  -27.5530   19.2860 C   0  0  0  0  0  3  0  0  0  0  0  0
  -23.7130  -29.6290   19.9430 C   0  0  0  0  0  2  0  0  0  0  0  0
  -24.6900  -30.9000   21.9020 N   0  0  0  0  0  0  0  0  0  0  0  0
  -23.4800  -31.9150   23.5320 O   0  0  0  0  0  0  0  0  0  0  0  0
  -22.8190  -29.2130   22.2600 C   0  0  0  0  0  0  0  0  0  0  0  0
  -21.5020  -28.9930   22.1090 N   0  0  0  0  0  0  0  0  0  0  0  0
  -23.5080  -28.5940   23.0750 O   0  0  0  0  0  0  0  0  0  0  0  0
  -21.0060  -29.5430   21.4230 H   0  0  0  0  0  0  0  0  0  0  0  0
  -18.1540  -27.7000   22.5480 C   0  0  0  0  0  0  0  0  0  0  0  0
  -20.7020  -28.0150   22.8500 C   0  0  0  0  0  3  0  0  0  0  0  0
  -20.8470  -26.6020   22.2410 C   0  0  0  0  0  2  0  0  0  0  0  0
  -19.7630  -26.2760   21.2090 C   0  0  0  0  0  2  0  0  0  0  0  0
  -18.3720  -26.3720   21.8420 C   0  0  0  0  0  2  0  0  0  0  0  0
  -19.2500  -28.4790   23.0070 C   0  0  0  0  0  0  0  0  0  0  0  0
  -18.9930  -29.7220   23.6240 C   0  0  0  0  0  3  0  0  0  0  0  0
  -17.6750  -30.1870   23.7890 C   0  0  0  0  0  3  0  0  0  0  0  0
  -16.5940  -29.4030   23.3480 C   0  0  0  0  0  3  0  0  0  0  0  0
  -16.8350  -28.1620   22.7340 C   0  0  0  0  0  3  0  0  0  0  0  0
  -25.8310  -32.3530   23.6630 C   0  0  0  0  0  3  0  0  0  0  0  0
  -25.4450  -33.7080   24.0780 N   0  0  0  0  0  0  0  0  0  0  0  0
  -25.6840  -34.8190   23.3680 C   0  0  0  0  0  0  0  0  0  0  0  0
  -26.3250  -34.8130   22.3130 O   0  0  0  0  0  0  0  0  0  0  0  0
  -24.8690  -33.7810   24.9040 H   0  0  0  0  0  0  0  0  0  0  0  0
  -23.8240  -36.5000   23.1740 C   0  0  0  0  0  1  0  0  0  0  0  0
  -25.1240  -36.1460   23.9130 C   0  0  0  0  0  3  0  0  0  0  0  0
  -27.2220  -37.1440   24.7100 C   0  0  0  0  0  1  0  0  0  0  0  0
  -26.0770  -37.2730   23.8130 N   0  0  0  0  0  0  0  0  0  0  0  0
  -25.6130  -38.1550   24.0150 H   0  0  0  0  0  0  0  0  0  0  0  0
  -26.4020  -31.5360   24.8870 C   0  0  1  0  0  0  0  0  0  0  0  0
  -25.3310  -31.1610   25.9370 C   0  0  0  0  0  1  0  0  0  0  0  0
  -27.0700  -30.2270   24.4070 C   0  0  0  0  0  1  0  0  0  0  0  0
  -27.5020  -32.3590   25.5980 C   0  0  0  0  0  1  0  0  0  0  0  0
  1  9  1  0
  1  8  1  0
  1 15  1  0
  2  3  1  0
  4  6  1  0
  4  8  1  0
  4  5  1  0
  5  7  1  1
  5  2  1  0
  8  3  1  0
 10  9  1  0
 11  9  1  0
 12 15  2  0
 12 14  1  0
 14 25  1  0
 14 13  2  0
 15 16  1  0
 16 13  1  0
 17 25  1  0
 18 23  1  0
 19 20  1  0
 19 18  1  0
 21 20  1  0
 21 30  1  0
 21 22  1  0
 23 17  1  0
 23 22  1  0
 24 17  2  0
 25 26  1  0
 27 28  2  0
 28 47  1  0
 29 28  1  0
 29 32  1  0
 30 31  1  0
 30 27  1  0
 31 29  2  0
 32 33  1  0
 33 34  2  0
 35 38  1  0
 35 34  1  0
 36 35  2  0
 37 36  1  0
 37 32  2  0
 38 39  1  0
 39 44  2  0
 39 40  1  0
 40 41  2  0
 41 42  1  0
 42 46  1  0
 43 42  2  0
 44 43  1  0
 45 44  1  0
 47 48  1  0
 48 51  1  0
 48 50  1  0
 49 47  2  0
 52 27  1  0
 52 53  1  0
 54 52  1  0
 55  5  1  0
 55 56  1  0
 57 68  2  0
 58 56  1  0
 58 63  1  0
 59 67  1  0
 59 69  1  0
 60 66  1  0
 60 62  1  0
 61 67  1  0
 62 61  1  0
 63 62  2  0
 64 65  1  0
 64 58  2  0
 65 60  2  0
 66 59  1  0
 67 57  1  0
 69 71  2  0
 70 69  1  0
 72 70  1  0
 73 82  2  0
 73 78  1  0
 74 70  1  0
 74 78  1  0
 75 74  1  0
 76 77  1  0
 76 75  1  0
 77 73  1  0
 78 79  2  0
 79 80  1  0
 81 80  2  0
 82 81  1  0
 83 57  1  0
 83 84  1  0
 83 93  1  0
 84 87  1  0
 85 89  1  0
 85 84  1  0
 86 85  2  0
 89 88  1  0
 91 89  1  0
 91 92  1  0
 91 90  1  0
 93 96  1  1
 93 94  1  0
 95 93  1  0
M  ISO  4  17 100  25 100  55 101  56 101
M  END
>  <TORSDO>  (80) 
F 18

>  <SCORE>  (80) 
-12.619

>  <name>  (80) 
79

>  <ligand_id>  (80) 
79

>  <original_smiles>  (80) 
[H]c1sc(C(N2C([H])([H])C([H])([H])C(C([H])([H])[H])(C([H])([H])Oc3c([H])c([H])c4c(c3[H])C([H])([H])N(C(=O)C([H])(N([H])C(=O)C([H])(N([H])C([H])([H])[H])C([H])([H])[H])C(C([H])([H])[H])(C([H])([H])[H])C([H])([H])[H])C([H])(C(=O)N([H])C3([H])c5c([H])c([H])c([H])c([H])c5C([H])([H])C([H])([H])C3([H])[H])C4([H])[H])C2([H])C([H])([H])[H])=[N+]([H])[H])c([H])c1N([H])C(=O)N1C([H])([H])C([H])([H])C([H])([H])C([H])(n2nc(-c3c([H])c([H])c(Oc4c([H])c([H])c(F)c([H])c4F)c([H])c3[H])c(C(=O)N([H])[H])c2N([H])[H])C1([H])[H]

>  <smiles>  (80) 
[H]c1sc(C(N2C([H])([H])C([H])([H])C(C([H])([H])[H])(C([H])([H])Oc3c([H])c([H])c4c(c3[H])C([H])([H])N(C(=O)C([H])(N([H])C(=O)C([H])(N([H])C([H])([H])[H])C([H])([H])[H])C(C([H])([H])[H])(C([H])([H])[H])C([H])([H])[H])C([H])(C(=O)N([H])C3([H])c5c([H])c([H])c([H])c([H])c5C([H])([H])C([H])([H])C3([H])[H])C4([H])[H])C2([H])C([H])([H])[H])=[N+]([H])[H])c([H])c1N([H])C(=O)N1C([H])([H])C([H])([H])C([H])([H])C([H])(n2nc(-c3c([H])c([H])c(Oc4c([H])c([H])c(F)c([H])c4F)c([H])c3[H])c(C(=O)N([H])[H])c2N([H])[H])C1([H])[H]

$$$$
80:0:0
     RDKit          3D

 93102  0  0  1  0  0  0  0  0999 V2000
  -30.4040  -23.8500   20.1060 C   0  0  0  0  0  2  0  0  0  0  0  0
  -30.8410  -22.3880   19.8520 C   0  0  0  0  0  2  0  0  0  0  0  0
  -28.5210  -22.4360   20.3830 C   0  0  0  0  0  2  0  0  0  0  0  0
  -28.8840  -23.8950   19.8720 C   0  0  2  0  0  0  0  0  0  0  0  0
  -28.5650  -23.9940   18.3670 C   0  0  0  0  0  1  0  0  0  0  0  0
  -29.6820  -21.5440   20.1300 N   0  0  0  0  0  0  0  0  0  0  0  0
  -28.6550  -19.3230   20.6720 C   0  0  0  0  0  3  0  0  0  0  0  0
  -28.7090  -17.9010   20.7710 C   0  0  0  0  0  3  0  0  0  0  0  0
  -30.9680  -17.9130   19.9690 C   0  0  0  0  0  3  0  0  0  0  0  0
  -29.7540  -20.1000   20.2200 C   0  0  0  0  0  0  0  0  0  0  0  0
  -29.8630  -17.1460   20.4230 C   0  0  0  0  0  0  0  0  0  0  0  0
  -30.9190  -19.3380   19.8700 C   0  0  0  0  0  0  0  0  0  0  0  0
  -32.0330  -19.9620   19.4140 F   0  0  0  0  0  0  0  0  0  0  0  0
  -30.6030  -14.6640   20.0800 C   0  0  0  0  0  0  0  0  0  0  0  0
  -30.3470  -12.4600   18.9590 C   0  0  0  0  0  2  0  0  0  0  0  0
  -29.3400  -12.6260   17.7990 C   0  0  0  0  0  2  0  0  0  0  0  0
  -27.8900  -12.4560   18.2960 C   0  0  0  0  0  2  0  0  0  0  0  0
  -27.5990  -13.2820   19.5770 C   0  0  0  0  0  3  0  0  0  0  0  0
  -28.7110  -13.0770   20.6320 C   0  0  0  0  0  2  0  0  0  0  0  0
  -29.9930  -13.4390   20.0040 N   0  0  0  0  0  0  0  0  0  0  0  0
  -31.7370  -14.8440   19.6240 O   0  0  0  0  0  0  0  0  0  0  0  0
  -29.8150  -15.6850   20.5460 N   0  0  0  0  0  0  0  0  0  0  0  0
  -28.9530  -15.3360   20.9370 H   0  0  0  0  0  0  0  0  0  0  0  0
  -25.2400  -13.8730   20.4090 C   0  0  0  0  0  0  0  0  0  0  0  0
  -24.1900  -13.0950   20.8180 C   0  0  0  0  0  0  0  0  0  0  0  0
  -24.6510  -11.7430   20.7500 C   0  0  0  0  0  0  0  0  0  0  0  0
  -26.2730  -12.9950   20.1180 N   0  0  0  0  0  0  0  0  0  0  0  0
  -25.9260  -11.7100   20.3820 N   0  0  0  0  0  0  0  0  0  0  0  0
  -23.9350  -10.4790   20.9580 C   0  0  0  0  0  0  0  0  0  0  0  0
  -24.3920   -9.5160   21.8850 C   0  0  0  0  0  3  0  0  0  0  0  0
  -23.6770   -8.3140   22.0810 C   0  0  0  0  0  3  0  0  0  0  0  0
  -22.4900   -8.0690   21.3500 C   0  0  0  0  0  0  0  0  0  0  0  0
  -22.0530   -9.0200   20.4120 C   0  0  0  0  0  3  0  0  0  0  0  0
  -22.7690  -10.2130   20.2150 C   0  0  0  0  0  3  0  0  0  0  0  0
  -21.7430   -6.9200   21.4550 O   0  0  0  0  0  0  0  0  0  0  0  0
  -21.6970   -6.1960   22.6190 C   0  0  0  0  0  0  0  0  0  0  0  0
  -21.2620   -6.7670   23.8350 C   0  0  0  0  0  3  0  0  0  0  0  0
  -21.1640   -5.9690   24.9930 C   0  0  0  0  0  3  0  0  0  0  0  0
  -21.4900   -4.6010   24.9350 C   0  0  0  0  0  0  0  0  0  0  0  0
  -21.9190   -4.0300   23.7240 C   0  0  0  0  0  3  0  0  0  0  0  0
  -22.0190   -4.8240   22.5680 C   0  0  0  0  0  0  0  0  0  0  0  0
  -22.4120   -4.2640   21.3990 F   0  0  0  0  0  0  0  0  0  0  0  0
  -21.3890   -3.8320   26.0440 F   0  0  0  0  0  0  0  0  0  0  0  0
  -22.8070  -13.5660   21.1590 C   0  0  0  0  0  0  0  0  0  0  0  0
  -22.1190  -12.8590   22.0490 N   0  0  0  0  0  0  0  0  0  0  0  0
  -22.3450  -14.5980   20.6730 O   0  0  0  0  0  0  0  0  0  0  0  0
  -22.5050  -12.0240   22.4630 H   0  0  0  0  0  0  0  0  0  0  0  0
  -21.1930  -13.1580   22.3190 H   0  0  0  0  0  0  0  0  0  0  0  0
  -25.3970  -15.2460   20.2410 N   0  0  0  0  0  0  0  0  0  0  0  0
  -24.6340  -15.8980   20.3900 H   0  0  0  0  0  0  0  0  0  0  0  0
  -26.2190  -15.6840   19.8460 H   0  0  0  0  0  0  0  0  0  0  0  0
  -28.1580  -25.1130   20.6100 C   0  0  0  0  0  2  0  0  0  0  0  0
  -28.3630  -26.5070   20.1440 O   0  0  0  0  0  0  0  0  0  0  0  0
  -24.6290  -31.8650   23.2160 C   0  0  0  0  0  0  0  0  0  0  0  0
  -27.2450  -27.3480   20.1260 C   0  0  0  0  0  0  0  0  0  0  0  0
  -23.4230  -30.4750   21.5680 C   0  0  0  0  0  3  0  0  0  0  0  0
  -24.8740  -28.9390   20.1270 C   0  0  0  0  0  0  0  0  0  0  0  0
  -25.9590  -30.8060   21.3770 C   0  0  0  0  0  2  0  0  0  0  0  0
  -26.0410  -29.4340   20.7220 C   0  0  0  0  0  0  0  0  0  0  0  0
  -27.2330  -28.6510   20.7100 C   0  0  0  0  0  3  0  0  0  0  0  0
  -26.0600  -26.9050   19.5000 C   0  0  0  0  0  3  0  0  0  0  0  0
  -24.8840  -27.6790   19.5050 C   0  0  0  0  0  3  0  0  0  0  0  0
  -23.6330  -29.8070   20.1830 C   0  0  0  0  0  2  0  0  0  0  0  0
  -24.6890  -31.0660   22.1100 N   0  0  0  0  0  0  0  0  0  0  0  0
  -23.5480  -32.1360   23.7560 O   0  0  0  0  0  0  0  0  0  0  0  0
  -22.7660  -29.4510   22.5230 C   0  0  0  0  0  0  0  0  0  0  0  0
  -21.4380  -29.2790   22.4040 N   0  0  0  0  0  0  0  0  0  0  0  0
  -23.4480  -28.8150   23.3310 O   0  0  0  0  0  0  0  0  0  0  0  0
  -20.9470  -29.8430   21.7250 H   0  0  0  0  0  0  0  0  0  0  0  0
  -18.0590  -28.0940   22.9190 C   0  0  0  0  0  0  0  0  0  0  0  0
  -20.6210  -28.3380   23.1720 C   0  0  0  0  0  3  0  0  0  0  0  0
  -20.7110  -26.9120   22.5800 C   0  0  0  0  0  2  0  0  0  0  0  0
  -19.6000  -26.6060   21.5710 C   0  0  0  0  0  2  0  0  0  0  0  0
  -18.2240  -26.7510   22.2270 C   0  0  0  0  0  2  0  0  0  0  0  0
  -19.1850  -28.8460   23.3480 C   0  0  0  0  0  0  0  0  0  0  0  0
  -18.9780  -30.1040   23.9550 C   0  0  0  0  0  3  0  0  0  0  0  0
  -17.6770  -30.6100   24.1360 C   0  0  0  0  0  3  0  0  0  0  0  0
  -16.5650  -29.8540   23.7230 C   0  0  0  0  0  3  0  0  0  0  0  0
  -16.7580  -28.5980   23.1210 C   0  0  0  0  0  3  0  0  0  0  0  0
  -25.9140  -32.4940   23.8390 C   0  0  0  0  0  3  0  0  0  0  0  0
  -25.6030  -33.8890   24.1830 N   0  0  0  0  0  0  0  0  0  0  0  0
  -25.9310  -34.9500   23.4330 C   0  0  0  0  0  0  0  0  0  0  0  0
  -26.5960  -34.8580   22.3980 O   0  0  0  0  0  0  0  0  0  0  0  0
  -25.0130  -34.0340   24.9890 H   0  0  0  0  0  0  0  0  0  0  0  0
  -24.2000  -36.7440   23.1010 C   0  0  0  0  0  1  0  0  0  0  0  0
  -25.4430  -36.3320   23.9060 C   0  0  0  0  0  3  0  0  0  0  0  0
  -27.5770  -37.2110   24.7420 C   0  0  0  0  0  1  0  0  0  0  0  0
  -26.4740  -37.3880   23.8020 N   0  0  0  0  0  0  0  0  0  0  0  0
  -26.0670  -38.3060   23.9610 H   0  0  0  0  0  0  0  0  0  0  0  0
  -26.4370  -31.7120   25.1050 C   0  0  1  0  0  0  0  0  0  0  0  0
  -25.3480  -31.4630   26.1750 C   0  0  0  0  0  1  0  0  0  0  0  0
  -27.0210  -30.3390   24.6990 C   0  0  0  0  0  1  0  0  0  0  0  0
  -27.5890  -32.5030   25.7700 C   0  0  0  0  0  1  0  0  0  0  0  0
  2  1  1  0
  2  6  1  0
  4  5  1  6
  4  1  1  0
  4  3  1  0
  4 52  1  0
  6 10  1  0
  6  3  1  0
  7  8  1  0
  9 11  1  0
 10  7  2  0
 11 22  1  0
 11  8  2  0
 12  9  2  0
 12 10  1  0
 13 12  1  0
 14 22  1  0
 15 20  1  0
 16 17  1  0
 16 15  1  0
 18 17  1  0
 18 27  1  0
 18 19  1  0
 20 14  1  0
 20 19  1  0
 21 14  2  0
 22 23  1  0
 24 25  2  0
 25 44  1  0
 26 25  1  0
 26 29  1  0
 27 28  1  0
 27 24  1  0
 28 26  2  0
 29 30  1  0
 30 31  2  0
 32 35  1  0
 32 31  1  0
 33 32  2  0
 34 33  1  0
 34 29  2  0
 35 36  1  0
 36 37  1  0
 37 38  2  0
 39 38  1  0
 39 43  1  0
 40 39  2  0
 41 36  2  0
 41 40  1  0
 42 41  1  0
 44 45  1  0
 45 48  1  0
 45 47  1  0
 46 44  2  0
 49 50  1  0
 49 24  1  0
 51 49  1  0
 53 52  1  0
 54 65  2  0
 55 53  1  0
 55 60  1  0
 56 64  1  0
 56 66  1  0
 57 63  1  0
 57 59  1  0
 58 64  1  0
 59 58  1  0
 60 59  2  0
 61 62  1  0
 61 55  2  0
 62 57  2  0
 63 56  1  0
 64 54  1  0
 66 68  2  0
 67 66  1  0
 69 67  1  0
 70 79  2  0
 70 75  1  0
 71 67  1  0
 71 75  1  0
 72 71  1  0
 73 74  1  0
 73 72  1  0
 74 70  1  0
 75 76  2  0
 76 77  1  0
 78 77  2  0
 79 78  1  0
 80 54  1  0
 80 81  1  0
 80 90  1  0
 81 84  1  0
 82 86  1  0
 82 81  1  0
 83 82  2  0
 86 85  1  0
 88 86  1  0
 88 89  1  0
 88 87  1  0
 90 93  1  1
 90 91  1  0
 92 90  1  0
M  ISO  4  14 100  22 100  52 101  53 101
M  END
>  <TORSDO>  (81) 
F 18

>  <SCORE>  (81) 
-14.576

>  <name>  (81) 
80

>  <ligand_id>  (81) 
80

>  <original_smiles>  (81) 
[H]c1c([H])c([H])c2c(c1[H])C([H])([H])C([H])([H])C([H])([H])C2([H])N([H])C(=O)C1([H])N(C(=O)C([H])(N([H])C(=O)C([H])(N([H])C([H])([H])[H])C([H])([H])[H])C(C([H])([H])[H])(C([H])([H])[H])C([H])([H])[H])C([H])([H])c2c([H])c(OC([H])([H])C3(C([H])([H])[H])C([H])([H])N(c4c([H])c([H])c(N([H])C(=O)N5C([H])([H])C([H])([H])C([H])([H])C([H])(n6nc(-c7c([H])c([H])c(Oc8c([H])c([H])c(F)c([H])c8F)c([H])c7[H])c(C(=O)N([H])[H])c6N([H])[H])C5([H])[H])c([H])c4F)C([H])([H])C3([H])[H])c([H])c([H])c2C1([H])[H]

>  <smiles>  (81) 
[H]c1c([H])c([H])c2c(c1[H])C([H])([H])C([H])([H])C([H])([H])C2([H])N([H])C(=O)C1([H])N(C(=O)C([H])(N([H])C(=O)C([H])(N([H])C([H])([H])[H])C([H])([H])[H])C(C([H])([H])[H])(C([H])([H])[H])C([H])([H])[H])C([H])([H])c2c([H])c(OC([H])([H])C3(C([H])([H])[H])C([H])([H])N(c4c([H])c([H])c(N([H])C(=O)N5C([H])([H])C([H])([H])C([H])([H])C([H])(n6nc(-c7c([H])c([H])c(Oc8c([H])c([H])c(F)c([H])c8F)c([H])c7[H])c(C(=O)N([H])[H])c6N([H])[H])C5([H])[H])c([H])c4F)C([H])([H])C3([H])[H])c([H])c([H])c2C1([H])[H]

$$$$
81:0:0
     RDKit          3D

 94103  0  0  1  0  0  0  0  0999 V2000
  -28.5020  -21.6590   20.5450 C   0  0  0  0  0  2  0  0  0  0  0  0
  -30.4390  -21.9940   20.1020 C   0  0  0  0  0  2  0  0  0  0  0  0
  -29.7560  -20.7780   20.7690 C   0  0  0  0  0  3  0  0  0  0  0  0
  -29.3800  -22.8490   20.6820 N   0  0  1  0  0  4  0  0  0  0  0  0
  -29.6040  -23.0260   21.6500 H   0  0  0  0  0  0  0  0  0  0  0  0
  -30.6130  -14.5990   20.4640 C   0  0  0  0  0  0  0  0  0  0  0  0
  -30.3650  -12.3810   19.4030 C   0  0  0  0  0  2  0  0  0  0  0  0
  -29.4460  -12.5380   18.1720 C   0  0  0  0  0  2  0  0  0  0  0  0
  -27.9650  -12.3990   18.5790 C   0  0  0  0  0  2  0  0  0  0  0  0
  -27.6000  -13.2590   19.8180 C   0  0  0  0  0  3  0  0  0  0  0  0
  -28.6390  -13.0930   20.9520 C   0  0  0  0  0  2  0  0  0  0  0  0
  -29.9660  -13.3980   20.3930 N   0  0  0  0  0  0  0  0  0  0  0  0
  -31.7680  -14.7390   20.0500 O   0  0  0  0  0  0  0  0  0  0  0  0
  -30.6250  -18.8300   19.2060 C   0  0  0  0  0  3  0  0  0  0  0  0
  -29.9840  -19.3200   20.3260 C   0  0  0  0  0  0  0  0  0  0  0  0
  -30.0660  -17.0580   20.4210 C   0  0  0  0  0  3  0  0  0  0  0  0
  -29.6220  -18.1760   21.0420 N   0  0  0  0  0  0  0  0  0  0  0  0
  -30.6730  -17.4580   19.3000 N   0  0  0  0  0  0  0  0  0  0  0  0
  -29.8750  -15.6800   20.8360 N   0  0  0  0  0  0  0  0  0  0  0  0
  -29.1330  -18.1800   21.9310 H   0  0  0  0  0  0  0  0  0  0  0  0
  -31.1150  -16.8490   18.6210 H   0  0  0  0  0  0  0  0  0  0  0  0
  -29.0020  -15.4720   21.2950 H   0  0  0  0  0  0  0  0  0  0  0  0
  -25.1930  -13.8640   20.4880 C   0  0  0  0  0  0  0  0  0  0  0  0
  -24.1200  -13.0950   20.8470 C   0  0  0  0  0  0  0  0  0  0  0  0
  -24.5840  -11.7420   20.8360 C   0  0  0  0  0  0  0  0  0  0  0  0
  -26.2420  -12.9830   20.2800 N   0  0  0  0  0  0  0  0  0  0  0  0
  -25.8800  -11.7020   20.5500 N   0  0  0  0  0  0  0  0  0  0  0  0
  -23.8560  -10.4820   21.0250 C   0  0  0  0  0  0  0  0  0  0  0  0
  -24.2700   -9.5240   21.9770 C   0  0  0  0  0  3  0  0  0  0  0  0
  -23.5430   -8.3260   22.1510 C   0  0  0  0  0  3  0  0  0  0  0  0
  -22.3860   -8.0790   21.3740 C   0  0  0  0  0  0  0  0  0  0  0  0
  -21.9920   -9.0240   20.4120 C   0  0  0  0  0  3  0  0  0  0  0  0
  -22.7190  -10.2140   20.2350 C   0  0  0  0  0  3  0  0  0  0  0  0
  -21.6320   -6.9340   21.4570 O   0  0  0  0  0  0  0  0  0  0  0  0
  -21.5560   -6.2050   22.6170 C   0  0  0  0  0  0  0  0  0  0  0  0
  -21.0930   -6.7710   23.8240 C   0  0  0  0  0  3  0  0  0  0  0  0
  -20.9660   -5.9690   24.9760 C   0  0  0  0  0  3  0  0  0  0  0  0
  -21.2900   -4.6000   24.9200 C   0  0  0  0  0  0  0  0  0  0  0  0
  -21.7460   -4.0330   23.7170 C   0  0  0  0  0  3  0  0  0  0  0  0
  -21.8750   -4.8330   22.5680 C   0  0  0  0  0  0  0  0  0  0  0  0
  -22.2950   -4.2760   21.4060 F   0  0  0  0  0  0  0  0  0  0  0  0
  -21.1610   -3.8260   26.0230 F   0  0  0  0  0  0  0  0  0  0  0  0
  -22.7190  -13.5730   21.0920 C   0  0  0  0  0  0  0  0  0  0  0  0
  -21.9750  -12.8800   21.9480 N   0  0  0  0  0  0  0  0  0  0  0  0
  -22.2900  -14.5960   20.5590 O   0  0  0  0  0  0  0  0  0  0  0  0
  -22.3330  -12.0500   22.3970 H   0  0  0  0  0  0  0  0  0  0  0  0
  -21.0350  -13.1860   22.1560 H   0  0  0  0  0  0  0  0  0  0  0  0
  -25.3620  -15.2330   20.2970 N   0  0  0  0  0  0  0  0  0  0  0  0
  -24.5900  -15.8870   20.3740 H   0  0  0  0  0  0  0  0  0  0  0  0
  -26.2060  -15.6600   19.9360 H   0  0  0  0  0  0  0  0  0  0  0  0
  -29.0280  -24.1320   19.9530 C   0  0  0  0  0  2  0  0  0  0  0  0
  -27.1830  -24.8920   21.5930 C   0  0  0  0  0  1  0  0  0  0  0  0
  -28.4690  -25.3080   20.8490 C   0  0  0  0  0  3  0  0  0  0  0  0
  -28.4180  -26.6200   20.1730 O   0  0  0  0  0  0  0  0  0  0  0  0
  -24.5890  -31.8750   23.2490 C   0  0  0  0  0  0  0  0  0  0  0  0
  -27.2620  -27.3980   20.1820 C   0  0  0  0  0  0  0  0  0  0  0  0
  -23.4020  -30.4750   21.5920 C   0  0  0  0  0  3  0  0  0  0  0  0
  -24.8710  -28.9390   20.1720 C   0  0  0  0  0  0  0  0  0  0  0  0
  -25.9320  -30.8260   21.4200 C   0  0  0  0  0  2  0  0  0  0  0  0
  -26.0270  -29.4510   20.7770 C   0  0  0  0  0  0  0  0  0  0  0  0
  -27.2270  -28.6910   20.7760 C   0  0  0  0  0  3  0  0  0  0  0  0
  -26.0950  -26.9290   19.5420 C   0  0  0  0  0  3  0  0  0  0  0  0
  -24.9020  -27.6780   19.5500 C   0  0  0  0  0  3  0  0  0  0  0  0
  -23.6260  -29.8000   20.2130 C   0  0  0  0  0  2  0  0  0  0  0  0
  -24.6590  -31.0750   22.1450 N   0  0  0  0  0  0  0  0  0  0  0  0
  -23.5020  -32.1460   23.7790 O   0  0  0  0  0  0  0  0  0  0  0  0
  -22.7410  -29.4530   22.5490 C   0  0  0  0  0  0  0  0  0  0  0  0
  -21.4150  -29.2790   22.4210 N   0  0  0  0  0  0  0  0  0  0  0  0
  -23.4190  -28.8190   23.3620 O   0  0  0  0  0  0  0  0  0  0  0  0
  -20.9310  -29.8460   21.7390 H   0  0  0  0  0  0  0  0  0  0  0  0
  -18.0310  -28.0980   22.9140 C   0  0  0  0  0  0  0  0  0  0  0  0
  -20.5920  -28.3370   23.1810 C   0  0  0  0  0  3  0  0  0  0  0  0
  -20.6830  -26.9130   22.5870 C   0  0  0  0  0  2  0  0  0  0  0  0
  -19.5750  -26.6080   21.5730 C   0  0  0  0  0  2  0  0  0  0  0  0
  -18.1960  -26.7550   22.2220 C   0  0  0  0  0  2  0  0  0  0  0  0
  -19.1550  -28.8470   23.3490 C   0  0  0  0  0  0  0  0  0  0  0  0
  -18.9480  -30.1040   23.9570 C   0  0  0  0  0  3  0  0  0  0  0  0
  -17.6470  -30.6120   24.1310 C   0  0  0  0  0  3  0  0  0  0  0  0
  -16.5350  -29.8600   23.7110 C   0  0  0  0  0  3  0  0  0  0  0  0
  -16.7290  -28.6040   23.1090 C   0  0  0  0  0  3  0  0  0  0  0  0
  -25.8680  -32.5070   23.8830 C   0  0  0  0  0  3  0  0  0  0  0  0
  -25.5550  -33.9040   24.2120 N   0  0  0  0  0  0  0  0  0  0  0  0
  -25.8920  -34.9570   23.4530 C   0  0  0  0  0  0  0  0  0  0  0  0
  -26.5680  -34.8520   22.4250 O   0  0  0  0  0  0  0  0  0  0  0  0
  -24.9520  -34.0610   25.0050 H   0  0  0  0  0  0  0  0  0  0  0  0
  -24.1640  -36.7470   23.0900 C   0  0  0  0  0  1  0  0  0  0  0  0
  -25.4010  -36.3450   23.9080 C   0  0  0  0  0  3  0  0  0  0  0  0
  -27.5330  -37.2280   24.7460 C   0  0  0  0  0  1  0  0  0  0  0  0
  -26.4340  -37.4000   23.8000 N   0  0  0  0  0  0  0  0  0  0  0  0
  -26.0250  -38.3180   23.9490 H   0  0  0  0  0  0  0  0  0  0  0  0
  -26.3740  -31.7340   25.1630 C   0  0  1  0  0  0  0  0  0  0  0  0
  -25.2720  -31.4940   26.2210 C   0  0  0  0  0  1  0  0  0  0  0  0
  -26.9600  -30.3580   24.7710 C   0  0  0  0  0  1  0  0  0  0  0  0
  -27.5210  -32.5280   25.8320 C   0  0  0  0  0  1  0  0  0  0  0  0
  1  4  1  0
  1  3  1  0
  2  4  1  0
  2  3  1  0
  3 15  1  0
  4  5  1  1
  6 19  1  0
  7 12  1  0
  8  9  1  0
  8  7  1  0
 10  9  1  0
 10 26  1  0
 10 11  1  0
 12  6  1  0
 12 11  1  0
 13  6  2  0
 14 18  1  0
 14 15  2  0
 15 17  1  0
 16 19  1  0
 16 17  1  0
 17 20  1  0
 18 16  1  0
 19 22  1  0
 21 18  1  0
 23 24  2  0
 24 43  1  0
 25 24  1  0
 25 28  1  0
 26 23  1  0
 26 27  1  0
 27 25  2  0
 28 29  1  0
 29 30  2  0
 31 34  1  0
 31 30  1  0
 32 31  2  0
 33 32  1  0
 33 28  2  0
 34 35  1  0
 35 36  1  0
 36 37  2  0
 38 37  1  0
 38 42  1  0
 39 38  2  0
 40 35  2  0
 40 39  1  0
 41 40  1  0
 43 44  1  0
 44 47  1  0
 44 46  1  0
 45 43  2  0
 48 49  1  0
 48 23  1  0
 50 48  1  0
 51  4  1  0
 51 53  1  0
 53 52  1  0
 54 56  1  0
 54 53  1  0
 55 66  2  0
 56 61  1  0
 57 65  1  0
 57 67  1  0
 58 64  1  0
 58 60  1  0
 59 65  1  0
 60 59  1  0
 61 60  2  0
 62 63  1  0
 62 56  2  0
 63 58  2  0
 64 57  1  0
 65 55  1  0
 67 69  2  0
 68 67  1  0
 70 68  1  0
 71 80  2  0
 71 76  1  0
 72 68  1  0
 72 76  1  0
 73 72  1  0
 74 75  1  0
 74 73  1  0
 75 71  1  0
 76 77  2  0
 77 78  1  0
 79 78  2  0
 80 79  1  0
 81 55  1  0
 81 82  1  0
 81 91  1  0
 82 85  1  0
 83 87  1  0
 83 82  1  0
 84 83  2  0
 87 86  1  0
 89 87  1  0
 89 90  1  0
 89 88  1  0
 91 94  1  1
 91 92  1  0
 93 91  1  0
M  ISO  4   6 100  19 100  53 101  54 101
M  END
>  <TORSDO>  (82) 
F 18

>  <SCORE>  (82) 
-14.867

>  <name>  (82) 
81

>  <ligand_id>  (82) 
81

>  <original_smiles>  (82) 
[H]c1c([H])c([H])c2c(c1[H])C([H])([H])C([H])([H])C([H])([H])C2([H])N([H])C(=O)C1([H])N(C(=O)C([H])(N([H])C(=O)C([H])(N([H])C([H])([H])[H])C([H])([H])[H])C(C([H])([H])[H])(C([H])([H])[H])C([H])([H])[H])C([H])([H])c2c([H])c(OC([H])(C([H])([H])[H])C([H])([H])[N+]3([H])C([H])([H])C([H])(c4c([H])[n+]([H])c(N([H])C(=O)N5C([H])([H])C([H])([H])C([H])([H])C([H])(n6nc(-c7c([H])c([H])c(Oc8c([H])c([H])c(F)c([H])c8F)c([H])c7[H])c(C(=O)N([H])[H])c6N([H])[H])C5([H])[H])n4[H])C3([H])[H])c([H])c([H])c2C1([H])[H]

>  <smiles>  (82) 
[H]c1c([H])c([H])c2c(c1[H])C([H])([H])C([H])([H])C([H])([H])C2([H])N([H])C(=O)C1([H])N(C(=O)C([H])(N([H])C(=O)C([H])(N([H])C([H])([H])[H])C([H])([H])[H])C(C([H])([H])[H])(C([H])([H])[H])C([H])([H])[H])C([H])([H])c2c([H])c(OC([H])(C([H])([H])[H])C([H])([H])[N+]3([H])C([H])([H])C([H])(c4c([H])[n+]([H])c(N([H])C(=O)N5C([H])([H])C([H])([H])C([H])([H])C([H])(n6nc(-c7c([H])c([H])c(Oc8c([H])c([H])c(F)c([H])c8F)c([H])c7[H])c(C(=O)N([H])[H])c6N([H])[H])C5([H])[H])n4[H])C3([H])[H])c([H])c([H])c2C1([H])[H]

$$$$
82:0:0
     RDKit          3D

 94102  0  0  1  0  0  0  0  0999 V2000
  -28.9580  -22.1310   19.9210 C   0  0  0  0  0  0  0  0  0  0  0  0
  -29.1370  -20.9390   20.6380 N   0  0  0  0  0  0  0  0  0  0  0  0
  -28.8720  -22.0950   18.6930 O   0  0  0  0  0  0  0  0  0  0  0  0
  -29.0320  -21.0420   21.6380 H   0  0  0  0  0  0  0  0  0  0  0  0
  -30.1430  -19.2580   19.0860 C   0  0  0  0  0  3  0  0  0  0  0  0
  -30.3840  -17.8330   19.1230 C   0  0  0  0  0  3  0  0  0  0  0  0
  -29.4660  -19.6190   20.2260 C   0  0  0  0  0  0  0  0  0  0  0  0
  -29.8370  -17.3250   20.2780 C   0  0  0  0  0  0  0  0  0  0  0  0
  -29.2570  -18.4240   20.9690 O   0  0  0  0  0  0  0  0  0  0  0  0
  -30.5210  -14.8330   20.3270 C   0  0  0  0  0  0  0  0  0  0  0  0
  -30.3650  -12.5300   19.3510 C   0  0  0  0  0  2  0  0  0  0  0  0
  -29.4320  -12.5910   18.1200 C   0  0  0  0  0  2  0  0  0  0  0  0
  -27.9590  -12.4180   18.5410 C   0  0  0  0  0  2  0  0  0  0  0  0
  -27.5810  -13.3020   19.7600 C   0  0  0  0  0  3  0  0  0  0  0  0
  -28.6330  -13.2140   20.8860 C   0  0  0  0  0  2  0  0  0  0  0  0
  -29.9270  -13.5850   20.3010 N   0  0  0  0  0  0  0  0  0  0  0  0
  -31.6980  -14.9410   19.9600 O   0  0  0  0  0  0  0  0  0  0  0  0
  -29.7400  -15.9560   20.6330 N   0  0  0  0  0  0  0  0  0  0  0  0
  -28.8770  -15.7210   21.1020 H   0  0  0  0  0  0  0  0  0  0  0  0
  -25.1940  -13.8990   20.4810 C   0  0  0  0  0  0  0  0  0  0  0  0
  -24.1260  -13.1300   20.8530 C   0  0  0  0  0  0  0  0  0  0  0  0
  -24.5830  -11.7770   20.8270 C   0  0  0  0  0  0  0  0  0  0  0  0
  -26.2350  -13.0160   20.2470 N   0  0  0  0  0  0  0  0  0  0  0  0
  -25.8740  -11.7350   20.5160 N   0  0  0  0  0  0  0  0  0  0  0  0
  -23.8520  -10.5190   21.0190 C   0  0  0  0  0  0  0  0  0  0  0  0
  -24.2750   -9.5540   21.9580 C   0  0  0  0  0  3  0  0  0  0  0  0
  -23.5430   -8.3600   22.1360 C   0  0  0  0  0  3  0  0  0  0  0  0
  -22.3730   -8.1220   21.3760 C   0  0  0  0  0  0  0  0  0  0  0  0
  -21.9700   -9.0770   20.4250 C   0  0  0  0  0  3  0  0  0  0  0  0
  -22.7030  -10.2610   20.2470 C   0  0  0  0  0  3  0  0  0  0  0  0
  -21.6120   -6.9810   21.4630 O   0  0  0  0  0  0  0  0  0  0  0  0
  -21.5460   -6.2480   22.6200 C   0  0  0  0  0  0  0  0  0  0  0  0
  -21.0940   -6.8100   23.8330 C   0  0  0  0  0  3  0  0  0  0  0  0
  -20.9760   -6.0020   24.9820 C   0  0  0  0  0  3  0  0  0  0  0  0
  -21.3010   -4.6330   24.9190 C   0  0  0  0  0  0  0  0  0  0  0  0
  -21.7520   -4.0730   23.7100 C   0  0  0  0  0  3  0  0  0  0  0  0
  -21.8690   -4.8780   22.5640 C   0  0  0  0  0  0  0  0  0  0  0  0
  -22.2810   -4.3280   21.3960 F   0  0  0  0  0  0  0  0  0  0  0  0
  -21.1810   -3.8550   26.0190 F   0  0  0  0  0  0  0  0  0  0  0  0
  -22.7290  -13.6160   21.1170 C   0  0  0  0  0  0  0  0  0  0  0  0
  -21.9900  -12.9250   21.9770 N   0  0  0  0  0  0  0  0  0  0  0  0
  -22.3010  -14.6480   20.5980 O   0  0  0  0  0  0  0  0  0  0  0  0
  -22.3480  -12.0960   22.4230 H   0  0  0  0  0  0  0  0  0  0  0  0
  -21.0530  -13.2340   22.1930 H   0  0  0  0  0  0  0  0  0  0  0  0
  -25.3650  -15.2670   20.3020 N   0  0  0  0  0  0  0  0  0  0  0  0
  -24.5990  -15.9240   20.4100 H   0  0  0  0  0  0  0  0  0  0  0  0
  -26.2080  -15.7000   19.9440 H   0  0  0  0  0  0  0  0  0  0  0  0
  -28.9150  -23.6020   20.6070 C   0  0  0  0  0  3  0  0  0  0  0  0
  -30.3160  -24.0390   20.7590 N   0  0  0  0  0  4  0  0  0  0  0  0
  -30.7320  -24.1590   19.8520 H   0  0  0  0  0  0  0  0  0  0  0  0
  -30.8490  -23.3500   21.2590 H   0  0  0  0  0  0  0  0  0  0  0  0
  -30.3640  -24.9090   21.2590 H   0  0  0  0  0  0  0  0  0  0  0  0
  -28.0780  -24.8350   19.9200 C   0  0  0  0  0  2  0  0  0  0  0  0
  -28.2640  -26.3100   20.2840 O   0  0  0  0  0  0  0  0  0  0  0  0
  -24.6100  -31.8910   23.2240 C   0  0  0  0  0  0  0  0  0  0  0  0
  -27.1900  -27.2430   20.1850 C   0  0  0  0  0  0  0  0  0  0  0  0
  -23.4060  -30.5000   21.5810 C   0  0  0  0  0  3  0  0  0  0  0  0
  -24.8530  -28.9390   20.1530 C   0  0  0  0  0  0  0  0  0  0  0  0
  -25.9560  -30.7820   21.4140 C   0  0  0  0  0  2  0  0  0  0  0  0
  -26.0270  -29.3970   20.7640 C   0  0  0  0  0  0  0  0  0  0  0  0
  -27.1960  -28.5620   20.7700 C   0  0  0  0  0  3  0  0  0  0  0  0
  -25.9980  -26.8790   19.5180 C   0  0  0  0  0  3  0  0  0  0  0  0
  -24.8460  -27.6900   19.5170 C   0  0  0  0  0  3  0  0  0  0  0  0
  -23.6250  -29.8280   20.2000 C   0  0  0  0  0  2  0  0  0  0  0  0
  -24.6770  -31.0770   22.1280 N   0  0  0  0  0  0  0  0  0  0  0  0
  -23.5250  -32.1710   23.7550 O   0  0  0  0  0  0  0  0  0  0  0  0
  -22.7340  -29.4850   22.5380 C   0  0  0  0  0  0  0  0  0  0  0  0
  -21.4050  -29.3130   22.4100 N   0  0  0  0  0  0  0  0  0  0  0  0
  -23.4060  -28.8550   23.3600 O   0  0  0  0  0  0  0  0  0  0  0  0
  -20.9210  -29.8750   21.7230 H   0  0  0  0  0  0  0  0  0  0  0  0
  -18.0210  -28.1330   22.9110 C   0  0  0  0  0  0  0  0  0  0  0  0
  -20.5800  -28.3790   23.1790 C   0  0  0  0  0  3  0  0  0  0  0  0
  -20.6740  -26.9470   22.6010 C   0  0  0  0  0  2  0  0  0  0  0  0
  -19.5700  -26.6320   21.5860 C   0  0  0  0  0  2  0  0  0  0  0  0
  -18.1890  -26.7840   22.2320 C   0  0  0  0  0  2  0  0  0  0  0  0
  -19.1430  -28.8890   23.3420 C   0  0  0  0  0  0  0  0  0  0  0  0
  -18.9320  -30.1510   23.9380 C   0  0  0  0  0  3  0  0  0  0  0  0
  -17.6290  -30.6570   24.1070 C   0  0  0  0  0  3  0  0  0  0  0  0
  -16.5200  -29.8980   23.6920 C   0  0  0  0  0  3  0  0  0  0  0  0
  -16.7180  -28.6380   23.1000 C   0  0  0  0  0  3  0  0  0  0  0  0
  -25.8900  -32.5220   23.8490 C   0  0  0  0  0  3  0  0  0  0  0  0
  -26.3960  -31.7520   25.1290 C   0  0  1  0  0  0  0  0  0  0  0  0
  -25.2960  -31.5210   26.1920 C   0  0  0  0  0  1  0  0  0  0  0  0
  -26.9770  -30.3730   24.7470 C   0  0  0  0  0  1  0  0  0  0  0  0
  -27.5450  -32.5450   25.7970 C   0  0  0  0  0  1  0  0  0  0  0  0
  -25.5800  -33.9210   24.1790 N   0  0  0  0  0  0  0  0  0  0  0  0
  -25.9130  -34.9750   23.4220 C   0  0  0  0  0  0  0  0  0  0  0  0
  -26.5820  -34.8710   22.3910 O   0  0  0  0  0  0  0  0  0  0  0  0
  -24.9860  -34.0730   24.9810 H   0  0  0  0  0  0  0  0  0  0  0  0
  -24.1930  -36.7790   23.0720 C   0  0  0  0  0  1  0  0  0  0  0  0
  -25.4320  -36.3660   23.8830 C   0  0  0  0  0  3  0  0  0  0  0  0
  -27.5670  -37.2430   24.7220 C   0  0  0  0  0  1  0  0  0  0  0  0
  -26.4690  -37.4150   23.7740 N   0  0  0  0  0  0  0  0  0  0  0  0
  -26.0660  -38.3370   23.9200 H   0  0  0  0  0  0  0  0  0  0  0  0
  1 48  1  0
  1  2  1  0
  2  4  1  0
  3  1  2  0
  5  6  1  0
  5  7  2  0
  6  8  2  0
  7  2  1  0
  7  9  1  0
  8 18  1  0
  8  9  1  0
 10 18  1  0
 11 16  1  0
 12 13  1  0
 12 11  1  0
 14 13  1  0
 14 23  1  0
 14 15  1  0
 16 10  1  0
 16 15  1  0
 17 10  2  0
 18 19  1  0
 20 21  2  0
 21 40  1  0
 22 21  1  0
 22 25  1  0
 23 20  1  0
 23 24  1  0
 24 22  2  0
 25 26  1  0
 26 27  2  0
 28 31  1  0
 28 27  1  0
 29 28  2  0
 30 29  1  0
 30 25  2  0
 31 32  1  0
 32 33  1  0
 33 34  2  0
 35 34  1  0
 35 39  1  0
 36 35  2  0
 37 32  2  0
 37 36  1  0
 38 37  1  0
 40 41  1  0
 41 44  1  0
 41 43  1  0
 42 40  2  0
 45 46  1  0
 45 20  1  0
 47 45  1  0
 48 53  1  0
 48 49  1  0
 49 51  1  0
 49 52  1  0
 50 49  1  0
 53 54  1  0
 55 66  2  0
 56 54  1  0
 56 61  1  0
 57 65  1  0
 57 67  1  0
 58 64  1  0
 58 60  1  0
 59 65  1  0
 60 61  2  0
 60 59  1  0
 62 56  2  0
 63 62  1  0
 63 58  2  0
 64 57  1  0
 65 55  1  0
 67 69  2  0
 68 67  1  0
 70 68  1  0
 71 80  2  0
 71 76  1  0
 72 68  1  0
 72 76  1  0
 73 72  1  0
 74 75  1  0
 74 73  1  0
 75 71  1  0
 76 77  2  0
 77 78  1  0
 79 78  2  0
 80 79  1  0
 81 55  1  0
 81 86  1  0
 81 82  1  0
 82 85  1  1
 82 83  1  0
 84 82  1  0
 86 89  1  0
 87 91  1  0
 87 86  1  0
 88 87  2  0
 91 90  1  0
 93 91  1  0
 93 94  1  0
 93 92  1  0
M  ISO  4  10 100  18 100  53 101  54 101
M  END
>  <TORSDO>  (83) 
F 20

>  <SCORE>  (83) 
-14.055

>  <name>  (83) 
82

>  <ligand_id>  (83) 
82

>  <original_smiles>  (83) 
[H]c1c(N([H])C(=O)N2C([H])([H])C([H])([H])C([H])([H])C([H])(n3nc(-c4c([H])c([H])c(Oc5c([H])c([H])c(F)c([H])c5F)c([H])c4[H])c(C(=O)N([H])[H])c3N([H])[H])C2([H])[H])oc(N([H])C(=O)C([H])(C([H])([H])Oc2c([H])c([H])c3c(c2[H])C([H])([H])N(C(=O)C([H])(N([H])C(=O)C([H])(N([H])C([H])([H])[H])C([H])([H])[H])C(C([H])([H])[H])(C([H])([H])[H])C([H])([H])[H])C([H])(C(=O)N([H])C2([H])c4c([H])c([H])c([H])c([H])c4C([H])([H])C([H])([H])C2([H])[H])C3([H])[H])[N+]([H])([H])[H])c1[H]

>  <smiles>  (83) 
[H]c1c(N([H])C(=O)N2C([H])([H])C([H])([H])C([H])([H])C([H])(n3nc(-c4c([H])c([H])c(Oc5c([H])c([H])c(F)c([H])c5F)c([H])c4[H])c(C(=O)N([H])[H])c3N([H])[H])C2([H])[H])oc(N([H])C(=O)C([H])(C([H])([H])Oc2c([H])c([H])c3c(c2[H])C([H])([H])N(C(=O)C([H])(N([H])C(=O)C([H])(N([H])C([H])([H])[H])C([H])([H])[H])C(C([H])([H])[H])(C([H])([H])[H])C([H])([H])[H])C([H])(C(=O)N([H])C2([H])c4c([H])c([H])c([H])c([H])c4C([H])([H])C([H])([H])C2([H])[H])C3([H])[H])[N+]([H])([H])[H])c1[H]

$$$$
83:0:0
     RDKit          3D

 89 98  0  0  1  0  0  0  0  0999 V2000
  -29.1200  -20.7400   19.9360 C   0  0  0  0  0  0  0  0  0  0  0  0
  -28.5910  -23.3930   20.2760 C   0  0  0  0  0  0  0  0  0  0  0  0
  -29.5930  -21.6160   18.9960 N   0  0  0  0  0  0  0  0  0  0  0  0
  -29.3200  -23.0510   19.1830 N   0  0  0  0  0  0  0  0  0  0  0  0
  -28.0750  -24.7440   20.7220 N   0  0  0  0  0  0  0  0  0  0  0  0
  -28.2760  -21.8050   21.1850 S   0  0  0  0  0  0  0  0  0  0  0  0
  -27.4300  -24.7730   21.5040 H   0  0  0  0  0  0  0  0  0  0  0  0
  -30.5290  -15.1740   19.9650 C   0  0  0  0  0  0  0  0  0  0  0  0
  -30.3650  -12.8110   18.9940 C   0  0  0  0  0  2  0  0  0  0  0  0
  -29.3530  -12.7040   17.8290 C   0  0  0  0  0  2  0  0  0  0  0  0
  -27.9240  -12.4640   18.3560 C   0  0  0  0  0  2  0  0  0  0  0  0
  -27.5820  -13.3870   19.5530 C   0  0  0  0  0  3  0  0  0  0  0  0
  -28.7140  -13.4120   20.6020 C   0  0  0  0  0  2  0  0  0  0  0  0
  -29.9090  -13.9110   19.9050 N   0  0  0  0  0  0  0  0  0  0  0  0
  -31.7350  -15.1660   19.6760 O   0  0  0  0  0  0  0  0  0  0  0  0
  -28.1080  -18.2630   20.5940 C   0  0  0  0  0  2  0  0  0  0  0  0
  -28.4090  -16.7220   20.3800 C   0  0  0  0  0  2  0  0  0  0  0  0
  -30.3360  -17.9370   19.9160 C   0  0  0  0  0  2  0  0  0  0  0  0
  -29.1320  -19.0700   19.7890 C   0  0  0  0  0  3  0  0  0  0  0  0
  -29.8380  -16.4550   20.0870 N   0  0  0  0  0  0  0  0  0  0  0  0
  -25.2590  -13.9600   20.4640 C   0  0  0  0  0  0  0  0  0  0  0  0
  -24.2160  -13.1830   20.8730 C   0  0  0  0  0  0  0  0  0  0  0  0
  -24.6730  -11.8310   20.7780 C   0  0  0  0  0  0  0  0  0  0  0  0
  -26.2820  -13.0860   20.1360 N   0  0  0  0  0  0  0  0  0  0  0  0
  -25.9430  -11.7980   20.3940 N   0  0  0  0  0  0  0  0  0  0  0  0
  -23.9540  -10.5690   20.9710 C   0  0  0  0  0  0  0  0  0  0  0  0
  -24.4100   -9.5920   21.8840 C   0  0  0  0  0  3  0  0  0  0  0  0
  -23.6880   -8.3930   22.0670 C   0  0  0  0  0  3  0  0  0  0  0  0
  -22.4960   -8.1630   21.3390 C   0  0  0  0  0  0  0  0  0  0  0  0
  -22.0610   -9.1270   20.4130 C   0  0  0  0  0  3  0  0  0  0  0  0
  -22.7840  -10.3180   20.2270 C   0  0  0  0  0  3  0  0  0  0  0  0
  -21.7430   -7.0190   21.4360 O   0  0  0  0  0  0  0  0  0  0  0  0
  -21.6830   -6.2930   22.5980 C   0  0  0  0  0  0  0  0  0  0  0  0
  -21.1930   -6.8490   23.8000 C   0  0  0  0  0  3  0  0  0  0  0  0
  -21.0840   -6.0470   24.9540 C   0  0  0  0  0  3  0  0  0  0  0  0
  -21.4550   -4.6890   24.9050 C   0  0  0  0  0  0  0  0  0  0  0  0
  -21.9400   -4.1340   23.7090 C   0  0  0  0  0  3  0  0  0  0  0  0
  -22.0510   -4.9330   22.5580 C   0  0  0  0  0  0  0  0  0  0  0  0
  -22.4970   -4.3870   21.4020 F   0  0  0  0  0  0  0  0  0  0  0  0
  -21.3440   -3.9160   26.0110 F   0  0  0  0  0  0  0  0  0  0  0  0
  -22.8390  -13.6580   21.2350 C   0  0  0  0  0  0  0  0  0  0  0  0
  -22.1600  -12.9400   22.1200 N   0  0  0  0  0  0  0  0  0  0  0  0
  -22.3810  -14.7020   20.7710 O   0  0  0  0  0  0  0  0  0  0  0  0
  -22.5500  -12.1000   22.5190 H   0  0  0  0  0  0  0  0  0  0  0  0
  -21.2350  -13.2340   22.4030 H   0  0  0  0  0  0  0  0  0  0  0  0
  -25.4020  -15.3350   20.3120 N   0  0  0  0  0  0  0  0  0  0  0  0
  -24.6340  -15.9710   20.4930 H   0  0  0  0  0  0  0  0  0  0  0  0
  -26.2150  -15.7890   19.9210 H   0  0  0  0  0  0  0  0  0  0  0  0
  -28.3880  -26.2210   20.2320 O   0  0  0  0  0  0  0  0  0  0  0  0
  -24.6380  -31.9150   23.2420 C   0  0  0  0  0  0  0  0  0  0  0  0
  -27.3180  -27.1990   20.2580 C   0  0  0  0  0  0  0  0  0  0  0  0
  -23.4840  -30.5020   21.5880 C   0  0  0  0  0  3  0  0  0  0  0  0
  -24.9740  -28.9320   20.1960 C   0  0  0  0  0  0  0  0  0  0  0  0
  -26.0380  -30.7910   21.4610 C   0  0  0  0  0  2  0  0  0  0  0  0
  -26.1400  -29.3900   20.8240 C   0  0  0  0  0  0  0  0  0  0  0  0
  -27.3140  -28.5380   20.8370 C   0  0  0  0  0  3  0  0  0  0  0  0
  -26.1270  -26.8510   19.5930 C   0  0  0  0  0  3  0  0  0  0  0  0
  -24.9800  -27.6780   19.5670 C   0  0  0  0  0  3  0  0  0  0  0  0
  -23.7390  -29.8210   20.2150 C   0  0  0  0  0  2  0  0  0  0  0  0
  -24.7400  -31.0910   22.1530 N   0  0  0  0  0  0  0  0  0  0  0  0
  -23.5390  -32.1820   23.7550 O   0  0  0  0  0  0  0  0  0  0  0  0
  -22.8010  -29.4900   22.5420 C   0  0  0  0  0  0  0  0  0  0  0  0
  -21.4760  -29.3040   22.4010 N   0  0  0  0  0  0  0  0  0  0  0  0
  -23.4700  -28.8700   23.3730 O   0  0  0  0  0  0  0  0  0  0  0  0
  -20.9900  -29.8580   21.7110 H   0  0  0  0  0  0  0  0  0  0  0  0
  -18.0970  -28.0920   22.9020 C   0  0  0  0  0  0  0  0  0  0  0  0
  -20.6570  -28.3580   23.1660 C   0  0  0  0  0  3  0  0  0  0  0  0
  -20.7580  -26.9310   22.5780 C   0  0  0  0  0  2  0  0  0  0  0  0
  -19.6550  -26.6170   21.5620 C   0  0  0  0  0  2  0  0  0  0  0  0
  -18.2740  -26.7530   22.2110 C   0  0  0  0  0  2  0  0  0  0  0  0
  -19.2160  -28.8530   23.3370 C   0  0  0  0  0  0  0  0  0  0  0  0
  -18.9930  -30.1070   23.9480 C   0  0  0  0  0  3  0  0  0  0  0  0
  -17.6860  -30.6020   24.1240 C   0  0  0  0  0  3  0  0  0  0  0  0
  -16.5840  -29.8400   23.7010 C   0  0  0  0  0  3  0  0  0  0  0  0
  -16.7900  -28.5880   23.0960 C   0  0  0  0  0  3  0  0  0  0  0  0
  -25.8960  -32.5750   23.8840 C   0  0  0  0  0  3  0  0  0  0  0  0
  -25.5580  -33.9720   24.2030 N   0  0  0  0  0  0  0  0  0  0  0  0
  -25.8810  -35.0280   23.4440 C   0  0  0  0  0  0  0  0  0  0  0  0
  -26.5600  -34.9290   22.4200 O   0  0  0  0  0  0  0  0  0  0  0  0
  -24.9550  -34.1210   24.9990 H   0  0  0  0  0  0  0  0  0  0  0  0
  -24.1370  -36.8040   23.0720 C   0  0  0  0  0  1  0  0  0  0  0  0
  -25.3760  -36.4130   23.8940 C   0  0  0  0  0  3  0  0  0  0  0  0
  -27.4860  -37.3350   24.7480 C   0  0  0  0  0  1  0  0  0  0  0  0
  -26.3970  -37.4780   23.7860 N   0  0  0  0  0  0  0  0  0  0  0  0
  -25.9750  -38.3940   23.9170 H   0  0  0  0  0  0  0  0  0  0  0  0
  -26.3900  -31.8250   25.1830 C   0  0  1  0  0  0  0  0  0  0  0  0
  -25.2760  -31.5820   26.2270 C   0  0  0  0  0  1  0  0  0  0  0  0
  -27.0030  -30.4520   24.8240 C   0  0  0  0  0  1  0  0  0  0  0  0
  -27.5080  -32.6450   25.8670 C   0  0  0  0  0  1  0  0  0  0  0  0
  1  6  1  0
  2  5  1  0
  2  6  1  0
  3  4  1  0
  3  1  2  0
  4  2  2  0
  5  7  1  0
  8 20  1  0
  9 14  1  0
 10 11  1  0
 10  9  1  0
 12 11  1  0
 12 24  1  0
 12 13  1  0
 14  8  1  0
 14 13  1  0
 15  8  2  0
 17 16  1  0
 18 20  1  0
 19 18  1  0
 19  1  1  0
 19 16  1  0
 20 17  1  0
 21 22  2  0
 22 41  1  0
 23 22  1  0
 23 26  1  0
 24 25  1  0
 24 21  1  0
 25 23  2  0
 26 27  1  0
 27 28  2  0
 29 32  1  0
 29 28  1  0
 30 29  2  0
 31 30  1  0
 31 26  2  0
 32 33  1  0
 33 34  1  0
 34 35  2  0
 36 35  1  0
 36 40  1  0
 37 36  2  0
 38 33  2  0
 38 37  1  0
 39 38  1  0
 41 42  1  0
 42 45  1  0
 42 44  1  0
 43 41  2  0
 46 21  1  0
 46 47  1  0
 48 46  1  0
 49 51  1  0
 49  5  1  0
 50 61  2  0
 51 56  1  0
 52 60  1  0
 52 62  1  0
 53 59  1  0
 53 55  1  0
 54 60  1  0
 55 56  2  0
 55 54  1  0
 57 51  2  0
 58 57  1  0
 58 53  2  0
 59 52  1  0
 60 50  1  0
 62 64  2  0
 63 62  1  0
 65 63  1  0
 66 75  2  0
 66 71  1  0
 67 63  1  0
 67 71  1  0
 68 67  1  0
 69 70  1  0
 69 68  1  0
 70 66  1  0
 71 72  2  0
 72 73  1  0
 74 73  2  0
 75 74  1  0
 76 50  1  0
 76 77  1  0
 76 86  1  0
 77 80  1  0
 78 82  1  0
 78 77  1  0
 79 78  2  0
 82 81  1  0
 84 82  1  0
 84 85  1  0
 84 83  1  0
 86 89  1  1
 86 87  1  0
 88 86  1  0
M  ISO  4   5 101   8 100  20 100  49 101
M  END
>  <TORSDO>  (84) 
F 16

>  <SCORE>  (84) 
-15.441

>  <name>  (84) 
83

>  <ligand_id>  (84) 
83

>  <original_smiles>  (84) 
[H]c1c([H])c([H])c2c(c1[H])C([H])([H])C([H])([H])C([H])([H])C2([H])N([H])C(=O)C1([H])N(C(=O)C([H])(N([H])C(=O)C([H])(N([H])C([H])([H])[H])C([H])([H])[H])C(C([H])([H])[H])(C([H])([H])[H])C([H])([H])[H])C([H])([H])c2c([H])c(ON([H])c3nnc(C4([H])C([H])([H])N(C(=O)N5C([H])([H])C([H])([H])C([H])([H])C([H])(n6nc(-c7c([H])c([H])c(Oc8c([H])c([H])c(F)c([H])c8F)c([H])c7[H])c(C(=O)N([H])[H])c6N([H])[H])C5([H])[H])C([H])([H])C4([H])[H])s3)c([H])c([H])c2C1([H])[H]

>  <smiles>  (84) 
[H]c1c([H])c([H])c2c(c1[H])C([H])([H])C([H])([H])C([H])([H])C2([H])N([H])C(=O)C1([H])N(C(=O)C([H])(N([H])C(=O)C([H])(N([H])C([H])([H])[H])C([H])([H])[H])C(C([H])([H])[H])(C([H])([H])[H])C([H])([H])[H])C([H])([H])c2c([H])c(ON([H])c3nnc(C4([H])C([H])([H])N(C(=O)N5C([H])([H])C([H])([H])C([H])([H])C([H])(n6nc(-c7c([H])c([H])c(Oc8c([H])c([H])c(F)c([H])c8F)c([H])c7[H])c(C(=O)N([H])[H])c6N([H])[H])C5([H])[H])C([H])([H])C4([H])[H])s3)c([H])c([H])c2C1([H])[H]

$$$$
84:0:0
     RDKit          3D

 93102  0  0  1  0  0  0  0  0999 V2000
  -27.0190  -19.5140   19.1410 C   0  0  0  0  0  3  0  0  0  0  0  0
  -27.3000  -20.8280   19.5680 C   0  0  0  0  0  3  0  0  0  0  0  0
  -29.4520  -20.0490   20.4360 C   0  0  0  0  0  3  0  0  0  0  0  0
  -27.9680  -18.4950   19.3420 C   0  0  0  0  0  0  0  0  0  0  0  0
  -29.1290  -18.6630   20.0960 C   0  0  0  0  0  0  0  0  0  0  0  0
  -28.5500  -21.1720   20.1400 C   0  0  0  0  0  0  0  0  0  0  0  0
  -28.0340  -17.2350   18.5250 C   0  0  0  0  0  2  0  0  0  0  0  0
  -29.5380  -16.8860   18.5740 C   0  0  0  0  0  2  0  0  0  0  0  0
  -30.0190  -17.3280   19.9810 C   0  0  0  0  0  3  0  0  0  0  0  0
  -30.6020  -14.8960   20.7840 C   0  0  0  0  0  0  0  0  0  0  0  0
  -30.5050  -12.5680   19.8900 C   0  0  0  0  0  2  0  0  0  0  0  0
  -29.6640  -12.5780   18.5930 C   0  0  0  0  0  2  0  0  0  0  0  0
  -28.1690  -12.4040   18.9160 C   0  0  0  0  0  2  0  0  0  0  0  0
  -27.6940  -13.3270   20.0720 C   0  0  0  0  0  3  0  0  0  0  0  0
  -28.6670  -13.3070   21.2710 C   0  0  0  0  0  2  0  0  0  0  0  0
  -29.9980  -13.6560   20.7610 N   0  0  0  0  0  0  0  0  0  0  0  0
  -31.8060  -14.9850   20.5290 O   0  0  0  0  0  0  0  0  0  0  0  0
  -29.8020  -16.0390   20.7980 N   0  0  0  0  0  0  0  0  0  0  0  0
  -28.8520  -15.8840   21.0960 H   0  0  0  0  0  0  0  0  0  0  0  0
  -25.2540  -13.9080   20.6090 C   0  0  0  0  0  0  0  0  0  0  0  0
  -24.1710  -13.1300   20.9150 C   0  0  0  0  0  0  0  0  0  0  0  0
  -24.6480  -11.7850   20.9530 C   0  0  0  0  0  0  0  0  0  0  0  0
  -26.3210  -13.0350   20.4700 N   0  0  0  0  0  0  0  0  0  0  0  0
  -25.9590  -11.7550   20.7420 N   0  0  0  0  0  0  0  0  0  0  0  0
  -23.9210  -10.5210   21.1200 C   0  0  0  0  0  0  0  0  0  0  0  0
  -24.3120   -9.5660   22.0860 C   0  0  0  0  0  3  0  0  0  0  0  0
  -23.5840   -8.3670   22.2410 C   0  0  0  0  0  3  0  0  0  0  0  0
  -22.4520   -8.1130   21.4310 C   0  0  0  0  0  0  0  0  0  0  0  0
  -22.0810   -9.0560   20.4580 C   0  0  0  0  0  3  0  0  0  0  0  0
  -22.8090  -10.2470   20.2990 C   0  0  0  0  0  3  0  0  0  0  0  0
  -21.6990   -6.9650   21.4950 O   0  0  0  0  0  0  0  0  0  0  0  0
  -21.6140   -6.2240   22.6460 C   0  0  0  0  0  0  0  0  0  0  0  0
  -21.1530   -6.7810   23.8590 C   0  0  0  0  0  3  0  0  0  0  0  0
  -21.0150   -5.9660   25.0010 C   0  0  0  0  0  3  0  0  0  0  0  0
  -21.3280   -4.5960   24.9300 C   0  0  0  0  0  0  0  0  0  0  0  0
  -21.7820   -4.0370   23.7210 C   0  0  0  0  0  3  0  0  0  0  0  0
  -21.9220   -4.8500   22.5820 C   0  0  0  0  0  0  0  0  0  0  0  0
  -22.3400   -4.3030   21.4150 F   0  0  0  0  0  0  0  0  0  0  0  0
  -21.1880   -3.8100   26.0230 F   0  0  0  0  0  0  0  0  0  0  0  0
  -22.7540  -13.5990   21.0680 C   0  0  0  0  0  0  0  0  0  0  0  0
  -21.9700  -12.9200   21.8970 N   0  0  0  0  0  0  0  0  0  0  0  0
  -22.3470  -14.6050   20.4870 O   0  0  0  0  0  0  0  0  0  0  0  0
  -22.3080  -12.1080   22.3910 H   0  0  0  0  0  0  0  0  0  0  0  0
  -21.0150  -13.2180   22.0400 H   0  0  0  0  0  0  0  0  0  0  0  0
  -25.4120  -15.2760   20.4190 N   0  0  0  0  0  0  0  0  0  0  0  0
  -24.6290  -15.9180   20.4830 H   0  0  0  0  0  0  0  0  0  0  0  0
  -26.2820  -15.7360   20.1910 H   0  0  0  0  0  0  0  0  0  0  0  0
  -28.0890  -23.7600   20.2990 C   0  0  0  0  0  0  0  0  0  0  0  0
  -28.8990  -22.6250   20.1900 N   0  0  0  0  0  0  0  0  0  0  0  0
  -27.0330  -23.7100   20.9350 O   0  0  0  0  0  0  0  0  0  0  0  0
  -29.8470  -22.8320   19.9030 H   0  0  0  0  0  0  0  0  0  0  0  0
  -28.4750  -25.1630   19.6030 C   0  0  0  0  0  2  0  0  0  0  0  0
  -28.2850  -26.4770   20.3150 O   0  0  0  0  0  0  0  0  0  0  0  0
  -24.5800  -31.9610   23.2380 C   0  0  0  0  0  0  0  0  0  0  0  0
  -27.1670  -27.3360   20.1980 C   0  0  0  0  0  0  0  0  0  0  0  0
  -23.3650  -30.5530   21.6110 C   0  0  0  0  0  3  0  0  0  0  0  0
  -24.8060  -28.9810   20.1820 C   0  0  0  0  0  0  0  0  0  0  0  0
  -25.9050  -30.8530   21.4170 C   0  0  0  0  0  2  0  0  0  0  0  0
  -25.9770  -29.4650   20.7760 C   0  0  0  0  0  0  0  0  0  0  0  0
  -27.1530  -28.6510   20.7770 C   0  0  0  0  0  3  0  0  0  0  0  0
  -25.9730  -26.9130   19.5750 C   0  0  0  0  0  3  0  0  0  0  0  0
  -24.8090  -27.7150   19.5720 C   0  0  0  0  0  3  0  0  0  0  0  0
  -23.5710  -29.8630   20.2350 C   0  0  0  0  0  2  0  0  0  0  0  0
  -24.6360  -31.1430   22.1440 N   0  0  0  0  0  0  0  0  0  0  0  0
  -23.5000  -32.2450   23.7760 O   0  0  0  0  0  0  0  0  0  0  0  0
  -22.7010  -29.5490   22.5850 C   0  0  0  0  0  0  0  0  0  0  0  0
  -21.3740  -29.3730   22.4650 N   0  0  0  0  0  0  0  0  0  0  0  0
  -23.3810  -28.9320   23.4080 O   0  0  0  0  0  0  0  0  0  0  0  0
  -20.8840  -29.9220   21.7730 H   0  0  0  0  0  0  0  0  0  0  0  0
  -18.0020  -28.1690   22.9810 C   0  0  0  0  0  0  0  0  0  0  0  0
  -20.5580  -28.4400   23.2460 C   0  0  0  0  0  3  0  0  0  0  0  0
  -20.6640  -27.0040   22.6830 C   0  0  0  0  0  2  0  0  0  0  0  0
  -19.5620  -26.6680   21.6730 C   0  0  0  0  0  2  0  0  0  0  0  0
  -18.1820  -26.8140   22.3190 C   0  0  0  0  0  2  0  0  0  0  0  0
  -19.1170  -28.9400   23.4030 C   0  0  0  0  0  0  0  0  0  0  0  0
  -18.8940  -30.2060   23.9830 C   0  0  0  0  0  3  0  0  0  0  0  0
  -17.5870  -30.7030   24.1480 C   0  0  0  0  0  3  0  0  0  0  0  0
  -16.4860  -29.9300   23.7420 C   0  0  0  0  0  3  0  0  0  0  0  0
  -16.6940  -28.6670   23.1630 C   0  0  0  0  0  3  0  0  0  0  0  0
  -25.8660  -32.5960   23.8500 C   0  0  0  0  0  3  0  0  0  0  0  0
  -25.5600  -33.9960   24.1780 N   0  0  0  0  0  0  0  0  0  0  0  0
  -25.8970  -35.0480   23.4200 C   0  0  0  0  0  0  0  0  0  0  0  0
  -26.5660  -34.9420   22.3890 O   0  0  0  0  0  0  0  0  0  0  0  0
  -24.9660  -34.1530   24.9780 H   0  0  0  0  0  0  0  0  0  0  0  0
  -24.1770  -36.8500   23.0650 C   0  0  0  0  0  1  0  0  0  0  0  0
  -25.4150  -36.4390   23.8780 C   0  0  0  0  0  3  0  0  0  0  0  0
  -27.5540  -37.3140   24.7120 C   0  0  0  0  0  1  0  0  0  0  0  0
  -26.4530  -37.4880   23.7680 N   0  0  0  0  0  0  0  0  0  0  0  0
  -26.0510  -38.4090   23.9150 H   0  0  0  0  0  0  0  0  0  0  0  0
  -26.3890  -31.8300   25.1280 C   0  0  1  0  0  0  0  0  0  0  0  0
  -25.3020  -31.6020   26.2050 C   0  0  0  0  0  1  0  0  0  0  0  0
  -26.9670  -30.4490   24.7440 C   0  0  0  0  0  1  0  0  0  0  0  0
  -27.5460  -32.6270   25.7780 C   0  0  0  0  0  1  0  0  0  0  0  0
  1  4  2  0
  1  2  1  0
  2  6  2  0
  4  5  1  0
  5  3  2  0
  6 49  1  0
  6  3  1  0
  7  8  1  0
  7  4  1  0
  8  9  1  0
  9  5  1  0
  9 18  1  0
 10 18  1  0
 11 16  1  0
 12 13  1  0
 12 11  1  0
 14 13  1  0
 14 23  1  0
 14 15  1  0
 16 10  1  0
 16 15  1  0
 17 10  2  0
 18 19  1  0
 20 21  2  0
 21 22  1  0
 21 40  1  0
 22 25  1  0
 23 20  1  0
 23 24  1  0
 24 22  2  0
 25 26  1  0
 26 27  2  0
 28 31  1  0
 28 27  1  0
 29 28  2  0
 30 29  1  0
 30 25  2  0
 31 32  1  0
 32 33  1  0
 33 34  2  0
 35 34  1  0
 35 39  1  0
 36 35  2  0
 37 32  2  0
 37 36  1  0
 38 37  1  0
 40 41  1  0
 41 44  1  0
 41 43  1  0
 42 40  2  0
 45 46  1  0
 45 20  1  0
 47 45  1  0
 48 50  2  0
 49 48  1  0
 51 49  1  0
 52 48  1  0
 52 53  1  0
 54 65  2  0
 55 53  1  0
 55 60  1  0
 56 64  1  0
 56 66  1  0
 57 63  1  0
 57 59  1  0
 58 64  1  0
 59 60  2  0
 59 58  1  0
 61 55  2  0
 62 61  1  0
 62 57  2  0
 63 56  1  0
 64 54  1  0
 66 68  2  0
 67 66  1  0
 69 67  1  0
 70 79  2  0
 70 75  1  0
 71 67  1  0
 71 75  1  0
 72 71  1  0
 73 74  1  0
 73 72  1  0
 74 70  1  0
 75 76  2  0
 76 77  1  0
 78 77  2  0
 79 78  1  0
 80 54  1  0
 80 81  1  0
 80 90  1  0
 81 84  1  0
 82 86  1  0
 82 81  1  0
 83 82  2  0
 86 85  1  0
 88 86  1  0
 88 89  1  0
 88 87  1  0
 90 93  1  1
 90 91  1  0
 92 90  1  0
M  ISO  4  10 100  18 100  52 101  53 101
M  END
>  <TORSDO>  (85) 
F 18

>  <SCORE>  (85) 
-14.332

>  <name>  (85) 
84

>  <ligand_id>  (85) 
84

>  <original_smiles>  (85) 
[H]c1c([H])c([H])c2c(c1[H])C([H])([H])C([H])([H])C([H])([H])C2([H])N([H])C(=O)C1([H])N(C(=O)C([H])(N([H])C(=O)C([H])(N([H])C([H])([H])[H])C([H])([H])[H])C(C([H])([H])[H])(C([H])([H])[H])C([H])([H])[H])C([H])([H])c2c([H])c(OC([H])([H])C(=O)N([H])c3c([H])c([H])c4c(c3[H])C([H])(N([H])C(=O)N3C([H])([H])C([H])([H])C([H])([H])C([H])(n5nc(-c6c([H])c([H])c(Oc7c([H])c([H])c(F)c([H])c7F)c([H])c6[H])c(C(=O)N([H])[H])c5N([H])[H])C3([H])[H])C([H])([H])C4([H])[H])c([H])c([H])c2C1([H])[H]

>  <smiles>  (85) 
[H]c1c([H])c([H])c2c(c1[H])C([H])([H])C([H])([H])C([H])([H])C2([H])N([H])C(=O)C1([H])N(C(=O)C([H])(N([H])C(=O)C([H])(N([H])C([H])([H])[H])C([H])([H])[H])C(C([H])([H])[H])(C([H])([H])[H])C([H])([H])[H])C([H])([H])c2c([H])c(OC([H])([H])C(=O)N([H])c3c([H])c([H])c4c(c3[H])C([H])(N([H])C(=O)N3C([H])([H])C([H])([H])C([H])([H])C([H])(n5nc(-c6c([H])c([H])c(Oc7c([H])c([H])c(F)c([H])c7F)c([H])c6[H])c(C(=O)N([H])[H])c5N([H])[H])C3([H])[H])C([H])([H])C4([H])[H])c([H])c([H])c2C1([H])[H]

$$$$
85:0:0
     RDKit          3D

 92101  0  0  1  0  0  0  0  0999 V2000
  -28.8690  -22.2160   19.1440 C   0  0  0  0  0  3  0  0  0  0  0  0
  -30.3150  -23.3130   20.3620 C   0  0  0  0  0  3  0  0  0  0  0  0
  -29.0880  -23.5130   19.7790 C   0  0  0  0  0  0  0  0  0  0  0  0
  -29.9130  -21.3280   19.3910 C   0  0  0  0  0  0  0  0  0  0  0  0
  -30.8160  -22.0380   20.1360 O   0  0  0  0  0  0  0  0  0  0  0  0
  -28.0660  -24.7380   19.8240 C   0  0  0  0  0  2  0  0  0  0  0  0
  -28.3710  -26.1750   20.1830 O   0  0  0  0  0  0  0  0  0  0  0  0
  -24.6190  -31.7120   23.0690 C   0  0  0  0  0  0  0  0  0  0  0  0
  -27.2910  -27.1000   20.0850 C   0  0  0  0  0  0  0  0  0  0  0  0
  -23.4370  -30.2700   21.4540 C   0  0  0  0  0  3  0  0  0  0  0  0
  -24.9180  -28.7320   20.0400 C   0  0  0  0  0  0  0  0  0  0  0  0
  -25.9760  -30.6160   21.2630 C   0  0  0  0  0  2  0  0  0  0  0  0
  -26.0780  -29.2220   20.6470 C   0  0  0  0  0  0  0  0  0  0  0  0
  -27.2680  -28.4160   20.6740 C   0  0  0  0  0  3  0  0  0  0  0  0
  -26.1080  -26.7090   19.4140 C   0  0  0  0  0  3  0  0  0  0  0  0
  -24.9390  -27.4850   19.4070 C   0  0  0  0  0  3  0  0  0  0  0  0
  -23.6610  -29.5830   20.0800 C   0  0  0  0  0  2  0  0  0  0  0  0
  -24.6960  -30.8880   21.9820 N   0  0  0  0  0  0  0  0  0  0  0  0
  -23.5330  -31.9760   23.6050 O   0  0  0  0  0  0  0  0  0  0  0  0
  -22.8020  -29.2540   22.4330 C   0  0  0  0  0  0  0  0  0  0  0  0
  -21.4810  -29.0280   22.3060 N   0  0  0  0  0  0  0  0  0  0  0  0
  -23.4980  -28.6700   23.2680 O   0  0  0  0  0  0  0  0  0  0  0  0
  -20.9710  -29.5620   21.6150 H   0  0  0  0  0  0  0  0  0  0  0  0
  -18.1530  -27.7120   22.8160 C   0  0  0  0  0  0  0  0  0  0  0  0
  -20.6950  -28.0840   23.1030 C   0  0  0  0  0  3  0  0  0  0  0  0
  -20.8610  -26.6410   22.5750 C   0  0  0  0  0  2  0  0  0  0  0  0
  -19.7840  -26.2410   21.5600 C   0  0  0  0  0  2  0  0  0  0  0  0
  -18.3900  -26.3510   22.1840 C   0  0  0  0  0  2  0  0  0  0  0  0
  -19.2350  -28.5320   23.2330 C   0  0  0  0  0  0  0  0  0  0  0  0
  -18.9610  -29.8040   23.7830 C   0  0  0  0  0  3  0  0  0  0  0  0
  -17.6350  -30.2560   23.9240 C   0  0  0  0  0  3  0  0  0  0  0  0
  -16.5680  -29.4380   23.5180 C   0  0  0  0  0  3  0  0  0  0  0  0
  -16.8270  -28.1680   22.9710 C   0  0  0  0  0  3  0  0  0  0  0  0
  -25.8910  -32.3870   23.6720 C   0  0  0  0  0  3  0  0  0  0  0  0
  -26.4890  -31.5990   24.9010 C   0  0  1  0  0  0  0  0  0  0  0  0
  -25.4490  -31.2510   25.9890 C   0  0  0  0  0  1  0  0  0  0  0  0
  -27.1440  -30.2750   24.4380 C   0  0  0  0  0  1  0  0  0  0  0  0
  -27.5970  -32.4390   25.5770 C   0  0  0  0  0  1  0  0  0  0  0  0
  -25.5220  -33.7560   24.0620 N   0  0  0  0  0  0  0  0  0  0  0  0
  -25.7810  -34.8540   23.3380 C   0  0  0  0  0  0  0  0  0  0  0  0
  -26.4250  -34.8260   22.2870 O   0  0  0  0  0  0  0  0  0  0  0  0
  -24.9460  -33.8500   24.8860 H   0  0  0  0  0  0  0  0  0  0  0  0
  -23.9640  -36.5860   23.0990 C   0  0  0  0  0  1  0  0  0  0  0  0
  -25.2390  -36.1970   23.8640 C   0  0  0  0  0  3  0  0  0  0  0  0
  -27.3440  -37.1560   24.6930 C   0  0  0  0  0  1  0  0  0  0  0  0
  -26.2150  -37.3040   23.7780 N   0  0  0  0  0  0  0  0  0  0  0  0
  -25.7620  -38.1920   23.9760 H   0  0  0  0  0  0  0  0  0  0  0  0
  -30.2770  -19.8390   18.9630 C   0  0  0  0  0  2  0  0  0  0  0  0
  -32.3600  -18.7910   20.0700 C   0  0  0  0  0  1  0  0  0  0  0  0
  -30.3270  -19.3630   21.3540 C   0  0  0  0  0  1  0  0  0  0  0  0
  -30.8310  -18.7270   20.0060 C   0  0  1  0  0  0  0  0  0  0  0  0
  -31.6890  -14.7520   19.5190 C   0  0  0  0  0  0  0  0  0  0  0  0
  -31.3030  -12.4450   18.5690 C   0  0  0  0  0  2  0  0  0  0  0  0
  -30.2660  -12.4670   17.4190 C   0  0  0  0  0  2  0  0  0  0  0  0
  -28.8150  -12.3940   17.9420 C   0  0  0  0  0  2  0  0  0  0  0  0
  -28.5760  -13.3860   19.1060 C   0  0  0  0  0  3  0  0  0  0  0  0
  -29.6980  -13.2360   20.1520 C   0  0  0  0  0  2  0  0  0  0  0  0
  -30.9910  -13.5490   19.5120 N   0  0  0  0  0  0  0  0  0  0  0  0
  -32.7320  -14.8300   18.8560 O   0  0  0  0  0  0  0  0  0  0  0  0
  -29.6070  -16.3700   21.9250 C   0  0  0  0  0  2  0  0  0  0  0  0
  -29.1280  -16.8060   20.5330 C   0  0  0  0  0  2  0  0  0  0  0  0
  -30.9790  -15.7280   21.6610 C   0  0  0  0  0  2  0  0  0  0  0  0
  -30.4040  -17.1250   19.7470 C   0  0  0  0  0  3  0  0  0  0  0  0
  -31.1970  -15.8700   20.2170 N   0  0  0  0  0  0  0  0  0  0  0  0
  -26.3180  -14.2180   20.0580 C   0  0  0  0  0  0  0  0  0  0  0  0
  -25.2400  -13.5590   20.5590 C   0  0  0  0  0  0  0  0  0  0  0  0
  -25.5530  -12.1680   20.4620 C   0  0  0  0  0  0  0  0  0  0  0  0
  -27.2540  -13.2470   19.7190 N   0  0  0  0  0  0  0  0  0  0  0  0
  -26.7950  -12.0030   20.0190 N   0  0  0  0  0  0  0  0  0  0  0  0
  -24.7140  -10.9920   20.6970 C   0  0  0  0  0  0  0  0  0  0  0  0
  -25.0530  -10.0220   21.6680 C   0  0  0  0  0  3  0  0  0  0  0  0
  -24.2160   -8.9080   21.8790 C   0  0  0  0  0  3  0  0  0  0  0  0
  -23.0280   -8.7570   21.1250 C   0  0  0  0  0  0  0  0  0  0  0  0
  -22.7070   -9.7130   20.1450 C   0  0  0  0  0  3  0  0  0  0  0  0
  -23.5430  -10.8190   19.9340 C   0  0  0  0  0  3  0  0  0  0  0  0
  -22.1680   -7.6940   21.2490 O   0  0  0  0  0  0  0  0  0  0  0  0
  -21.9620   -7.0730   22.4580 C   0  0  0  0  0  0  0  0  0  0  0  0
  -21.5070   -7.7810   23.5910 C   0  0  0  0  0  3  0  0  0  0  0  0
  -21.2480   -7.0900   24.7930 C   0  0  0  0  0  3  0  0  0  0  0  0
  -21.4330   -5.6960   24.8550 C   0  0  0  0  0  0  0  0  0  0  0  0
  -21.8770   -4.9890   23.7240 C   0  0  0  0  0  3  0  0  0  0  0  0
  -22.1410   -5.6780   22.5270 C   0  0  0  0  0  0  0  0  0  0  0  0
  -22.5570   -4.9920   21.4350 F   0  0  0  0  0  0  0  0  0  0  0  0
  -21.1720   -5.0300   26.0040 F   0  0  0  0  0  0  0  0  0  0  0  0
  -23.9420  -14.1830   20.9870 C   0  0  0  0  0  0  0  0  0  0  0  0
  -23.2480  -13.5920   21.9510 N   0  0  0  0  0  0  0  0  0  0  0  0
  -23.5600  -15.2480   20.4970 O   0  0  0  0  0  0  0  0  0  0  0  0
  -23.5610  -12.7370   22.3890 H   0  0  0  0  0  0  0  0  0  0  0  0
  -22.3860  -14.0140   22.2660 H   0  0  0  0  0  0  0  0  0  0  0  0
  -26.5220  -15.5710   19.8280 N   0  0  0  0  0  0  0  0  0  0  0  0
  -25.7740  -16.2400   19.9920 H   0  0  0  0  0  0  0  0  0  0  0  0
  -27.3120  -15.9590   19.3330 H   0  0  0  0  0  0  0  0  0  0  0  0
  1  4  2  0
  1  3  1  0
  3  6  1  0
  3  2  2  0
  4  5  1  0
  5  2  1  0
  6  7  1  0
  8 19  2  0
  9  7  1  0
  9 14  1  0
 10 18  1  0
 10 20  1  0
 11 17  1  0
 11 13  1  0
 12 18  1  0
 13 14  2  0
 13 12  1  0
 15  9  2  0
 16 15  1  0
 16 11  2  0
 17 10  1  0
 18  8  1  0
 20 22  2  0
 21 20  1  0
 23 21  1  0
 24 33  2  0
 24 29  1  0
 25 21  1  0
 25 29  1  0
 26 25  1  0
 27 28  1  0
 27 26  1  0
 28 24  1  0
 29 30  2  0
 30 31  1  0
 32 31  2  0
 33 32  1  0
 34  8  1  0
 34 39  1  0
 34 35  1  0
 35 38  1  1
 35 36  1  0
 37 35  1  0
 39 42  1  0
 40 44  1  0
 40 39  1  0
 41 40  2  0
 44 43  1  0
 46 44  1  0
 46 47  1  0
 46 45  1  0
 48  4  1  0
 48 51  1  0
 51 49  1  1
 51 50  1  0
 52 64  1  0
 53 58  1  0
 54 55  1  0
 54 53  1  0
 56 55  1  0
 56 68  1  0
 56 57  1  0
 58 52  1  0
 58 57  1  0
 59 52  2  0
 61 60  1  0
 62 60  1  0
 63 51  1  0
 63 64  1  0
 63 61  1  0
 64 62  1  0
 65 66  2  0
 66 85  1  0
 67 66  1  0
 67 70  1  0
 68 69  1  0
 68 65  1  0
 69 67  2  0
 70 71  1  0
 71 72  2  0
 73 76  1  0
 73 72  1  0
 74 73  2  0
 75 74  1  0
 75 70  2  0
 76 77  1  0
 77 82  2  0
 77 78  1  0
 78 79  2  0
 79 80  1  0
 80 84  1  0
 81 80  2  0
 82 81  1  0
 83 82  1  0
 85 86  1  0
 86 89  1  0
 86 88  1  0
 87 85  2  0
 90 91  1  0
 90 65  1  0
 92 90  1  0
M  ISO  4   6 101   7 101  52 100  64 100
M  END
>  <TORSDO>  (86) 
F 19

>  <SCORE>  (86) 
-12.385

>  <name>  (86) 
85

>  <ligand_id>  (86) 
85

>  <original_smiles>  (86) 
[H]c1oc(C([H])([H])C(C([H])([H])[H])(C([H])([H])[H])C2([H])N(C(=O)N3C([H])([H])C([H])([H])C([H])([H])C([H])(n4nc(-c5c([H])c([H])c(Oc6c([H])c([H])c(F)c([H])c6F)c([H])c5[H])c(C(=O)N([H])[H])c4N([H])[H])C3([H])[H])C([H])([H])C([H])([H])C2([H])[H])c([H])c1C([H])([H])Oc1c([H])c([H])c2c(c1[H])C([H])([H])N(C(=O)C([H])(N([H])C(=O)C([H])(N([H])C([H])([H])[H])C([H])([H])[H])C(C([H])([H])[H])(C([H])([H])[H])C([H])([H])[H])C([H])(C(=O)N([H])C1([H])c3c([H])c([H])c([H])c([H])c3C([H])([H])C([H])([H])C1([H])[H])C2([H])[H]

>  <smiles>  (86) 
[H]c1oc(C([H])([H])C(C([H])([H])[H])(C([H])([H])[H])C2([H])N(C(=O)N3C([H])([H])C([H])([H])C([H])([H])C([H])(n4nc(-c5c([H])c([H])c(Oc6c([H])c([H])c(F)c([H])c6F)c([H])c5[H])c(C(=O)N([H])[H])c4N([H])[H])C3([H])[H])C([H])([H])C([H])([H])C2([H])[H])c([H])c1C([H])([H])Oc1c([H])c([H])c2c(c1[H])C([H])([H])N(C(=O)C([H])(N([H])C(=O)C([H])(N([H])C([H])([H])[H])C([H])([H])[H])C(C([H])([H])[H])(C([H])([H])[H])C([H])([H])[H])C([H])(C(=O)N([H])C1([H])c3c([H])c([H])c([H])c([H])c3C([H])([H])C([H])([H])C1([H])[H])C2([H])[H]

$$$$
86:0:0
     RDKit          3D

 93101  0  0  1  0  0  0  0  0999 V2000
  -29.3370  -20.7290   19.3830 C   0  0  0  0  0  3  0  0  0  0  0  0
  -29.7380  -19.3280   19.4280 C   0  0  0  0  0  0  0  0  0  0  0  0
  -29.3380  -21.4010   20.5930 C   0  0  0  0  0  0  0  0  0  0  0  0
  -30.0780  -18.8910   20.6910 C   0  0  0  0  0  0  0  0  0  0  0  0
  -29.8230  -18.4540   18.2120 C   0  0  0  0  0  1  0  0  0  0  0  0
  -29.8190  -20.2230   21.8290 S   0  0  0  0  0  0  0  0  0  0  0  0
  -28.9360  -23.8860   20.2270 C   0  0  0  0  0  0  0  0  0  0  0  0
  -28.9970  -22.7080   20.9350 N   0  0  0  0  0  0  0  0  0  0  0  0
  -29.3050  -23.9640   19.0510 O   0  0  0  0  0  0  0  0  0  0  0  0
  -28.7580  -22.8300   21.9110 H   0  0  0  0  0  0  0  0  0  0  0  0
  -28.3740  -25.1730   20.9670 C   0  0  0  0  0  2  0  0  0  0  0  0
  -28.5810  -26.5000   20.3320 O   0  0  0  0  0  0  0  0  0  0  0  0
  -24.6420  -31.8390   23.2010 C   0  0  0  0  0  0  0  0  0  0  0  0
  -27.4580  -27.3340   20.2700 C   0  0  0  0  0  0  0  0  0  0  0  0
  -23.5260  -30.4070   21.5270 C   0  0  0  0  0  3  0  0  0  0  0  0
  -25.0580  -28.8790   20.1630 C   0  0  0  0  0  0  0  0  0  0  0  0
  -26.0610  -30.7840   21.4260 C   0  0  0  0  0  2  0  0  0  0  0  0
  -26.1940  -29.4050   20.7930 C   0  0  0  0  0  0  0  0  0  0  0  0
  -27.4010  -28.6450   20.8340 C   0  0  0  0  0  3  0  0  0  0  0  0
  -26.3020  -26.8560   19.6170 C   0  0  0  0  0  3  0  0  0  0  0  0
  -25.1130  -27.6090   19.5650 C   0  0  0  0  0  3  0  0  0  0  0  0
  -23.8000  -29.7230   20.1610 C   0  0  0  0  0  2  0  0  0  0  0  0
  -24.7590  -31.0280   22.1080 N   0  0  0  0  0  0  0  0  0  0  0  0
  -23.5360  -32.0950   23.6970 O   0  0  0  0  0  0  0  0  0  0  0  0
  -22.8510  -29.3840   22.4720 C   0  0  0  0  0  0  0  0  0  0  0  0
  -21.5320  -29.1900   22.3100 N   0  0  0  0  0  0  0  0  0  0  0  0
  -23.5160  -28.7660   23.3070 O   0  0  0  0  0  0  0  0  0  0  0  0
  -21.0560  -29.7410   21.6090 H   0  0  0  0  0  0  0  0  0  0  0  0
  -18.1540  -27.9650   22.7300 C   0  0  0  0  0  0  0  0  0  0  0  0
  -20.7030  -28.2430   23.0570 C   0  0  0  0  0  3  0  0  0  0  0  0
  -20.8290  -26.8140   22.4770 C   0  0  0  0  0  2  0  0  0  0  0  0
  -19.7520  -26.4890   21.4380 C   0  0  0  0  0  2  0  0  0  0  0  0
  -18.3560  -26.6210   22.0510 C   0  0  0  0  0  2  0  0  0  0  0  0
  -19.2570  -28.7350   23.1870 C   0  0  0  0  0  0  0  0  0  0  0  0
  -19.0160  -29.9930   23.7800 C   0  0  0  0  0  3  0  0  0  0  0  0
  -17.7030  -30.4830   23.9200 C   0  0  0  0  0  3  0  0  0  0  0  0
  -16.6150  -29.7110   23.4800 C   0  0  0  0  0  3  0  0  0  0  0  0
  -16.8390  -28.4550   22.8900 C   0  0  0  0  0  3  0  0  0  0  0  0
  -25.8900  -32.5010   23.8630 C   0  0  0  0  0  3  0  0  0  0  0  0
  -26.3790  -31.7450   25.1600 C   0  0  1  0  0  0  0  0  0  0  0  0
  -25.2540  -31.4860   26.1890 C   0  0  0  0  0  1  0  0  0  0  0  0
  -27.0030  -30.3790   24.7920 C   0  0  0  0  0  1  0  0  0  0  0  0
  -27.4890  -32.5650   25.8580 C   0  0  0  0  0  1  0  0  0  0  0  0
  -25.5400  -33.8940   24.1790 N   0  0  0  0  0  0  0  0  0  0  0  0
  -25.8710  -34.9530   23.4280 C   0  0  0  0  0  0  0  0  0  0  0  0
  -26.5710  -34.8620   22.4160 O   0  0  0  0  0  0  0  0  0  0  0  0
  -24.9240  -34.0370   24.9660 H   0  0  0  0  0  0  0  0  0  0  0  0
  -24.1170  -36.7060   23.0170 C   0  0  0  0  0  1  0  0  0  0  0  0
  -25.3410  -36.3310   23.8680 C   0  0  0  0  0  3  0  0  0  0  0  0
  -27.4250  -37.2670   24.7660 C   0  0  0  0  0  1  0  0  0  0  0  0
  -26.3540  -37.4050   23.7830 N   0  0  0  0  0  0  0  0  0  0  0  0
  -25.9250  -38.3170   23.9040 H   0  0  0  0  0  0  0  0  0  0  0  0
  -32.2550  -17.3900   20.7320 O   0  0  0  0  0  0  0  0  0  0  0  0
  -30.7000  -17.2990   22.7240 O   0  0  0  0  0  0  0  0  0  0  0  0
  -30.8810  -17.3090   21.2610 S   0  0  1  0  0  0  0  0  0  0  0  0
  -30.7750  -14.6480   20.1110 C   0  0  0  0  0  0  0  0  0  0  0  0
  -30.4480  -12.4250   19.0280 C   0  0  0  0  0  2  0  0  0  0  0  0
  -29.4600  -12.5730   17.8490 C   0  0  0  0  0  2  0  0  0  0  0  0
  -28.0050  -12.4350   18.3350 C   0  0  0  0  0  2  0  0  0  0  0  0
  -27.7090  -13.2890   19.5990 C   0  0  0  0  0  3  0  0  0  0  0  0
  -28.8160  -13.1310   20.6650 C   0  0  0  0  0  2  0  0  0  0  0  0
  -30.1030  -13.4510   20.0360 N   0  0  0  0  0  0  0  0  0  0  0  0
  -31.9010  -14.7460   19.6120 O   0  0  0  0  0  0  0  0  0  0  0  0
  -30.1350  -15.8040   20.6630 N   0  0  0  0  0  0  0  0  0  0  0  0
  -29.2050  -15.7080   21.0610 H   0  0  0  0  0  0  0  0  0  0  0  0
  -25.3640  -13.8960   20.4500 C   0  0  0  0  0  0  0  0  0  0  0  0
  -24.3070  -13.1290   20.8580 C   0  0  0  0  0  0  0  0  0  0  0  0
  -24.7490  -11.7730   20.7760 C   0  0  0  0  0  0  0  0  0  0  0  0
  -26.3840  -13.0090   20.1460 N   0  0  0  0  0  0  0  0  0  0  0  0
  -26.0220  -11.7260   20.4010 N   0  0  0  0  0  0  0  0  0  0  0  0
  -24.0160  -10.5160   20.9770 C   0  0  0  0  0  0  0  0  0  0  0  0
  -24.4620   -9.5360   21.8920 C   0  0  0  0  0  3  0  0  0  0  0  0
  -23.7290   -8.3450   22.0810 C   0  0  0  0  0  3  0  0  0  0  0  0
  -22.5330   -8.1240   21.3550 C   0  0  0  0  0  0  0  0  0  0  0  0
  -22.1050   -9.0920   20.4300 C   0  0  0  0  0  3  0  0  0  0  0  0
  -22.8400  -10.2740   20.2390 C   0  0  0  0  0  3  0  0  0  0  0  0
  -21.7700   -6.9860   21.4550 O   0  0  0  0  0  0  0  0  0  0  0  0
  -21.7230   -6.2490   22.6110 C   0  0  0  0  0  0  0  0  0  0  0  0
  -21.2850   -6.8070   23.8330 C   0  0  0  0  0  3  0  0  0  0  0  0
  -21.1870   -5.9950   24.9820 C   0  0  0  0  0  3  0  0  0  0  0  0
  -21.5150   -4.6280   24.9090 C   0  0  0  0  0  0  0  0  0  0  0  0
  -21.9460   -4.0710   23.6920 C   0  0  0  0  0  3  0  0  0  0  0  0
  -22.0470   -4.8790   22.5460 C   0  0  0  0  0  0  0  0  0  0  0  0
  -22.4400   -4.3320   21.3710 F   0  0  0  0  0  0  0  0  0  0  0  0
  -21.4150   -3.8460   26.0090 F   0  0  0  0  0  0  0  0  0  0  0  0
  -22.9330  -13.6170   21.2100 C   0  0  0  0  0  0  0  0  0  0  0  0
  -22.2370  -12.9120   22.0940 N   0  0  0  0  0  0  0  0  0  0  0  0
  -22.4850  -14.6610   20.7340 O   0  0  0  0  0  0  0  0  0  0  0  0
  -22.6100  -12.0670   22.5010 H   0  0  0  0  0  0  0  0  0  0  0  0
  -21.3140  -13.2190   22.3650 H   0  0  0  0  0  0  0  0  0  0  0  0
  -25.5390  -15.2690   20.2920 N   0  0  0  0  0  0  0  0  0  0  0  0
  -24.7870  -15.9300   20.4520 H   0  0  0  0  0  0  0  0  0  0  0  0
  -26.3640  -15.7000   19.8980 H   0  0  0  0  0  0  0  0  0  0  0  0
  1  2  1  0
  1  3  2  0
  2  4  2  0
  3  8  1  0
  3  6  1  0
  4 55  1  0
  4  6  1  0
  5  2  1  0
  7  8  1  0
  7 11  1  0
  8 10  1  0
  9  7  2  0
 12 11  1  0
 13 24  2  0
 14 12  1  0
 14 19  1  0
 15 23  1  0
 15 25  1  0
 16 18  1  0
 17 23  1  0
 18 19  2  0
 18 17  1  0
 20 14  2  0
 21 20  1  0
 21 16  2  0
 22 16  1  0
 22 15  1  0
 23 13  1  0
 25 27  2  0
 26 25  1  0
 28 26  1  0
 29 38  2  0
 29 34  1  0
 30 26  1  0
 30 34  1  0
 31 30  1  0
 32 33  1  0
 32 31  1  0
 33 29  1  0
 34 35  2  0
 35 36  1  0
 37 36  2  0
 38 37  1  0
 39 13  1  0
 39 44  1  0
 39 40  1  0
 40 43  1  1
 40 41  1  0
 42 40  1  0
 44 47  1  0
 45 49  1  0
 45 44  1  0
 46 45  2  0
 49 48  1  0
 51 49  1  0
 51 52  1  0
 51 50  1  0
 53 55  2  0
 55 54  2  0
 56 64  1  0
 57 62  1  0
 58 59  1  0
 58 57  1  0
 60 59  1  0
 60 69  1  0
 60 61  1  0
 62 56  1  0
 62 61  1  0
 63 56  2  0
 64 65  1  0
 55 64  1  6
 66 67  2  0
 67 86  1  0
 68 67  1  0
 68 71  1  0
 69 70  1  0
 69 66  1  0
 70 68  2  0
 71 72  1  0
 72 73  2  0
 74 77  1  0
 74 73  1  0
 75 74  2  0
 76 75  1  0
 76 71  2  0
 77 78  1  0
 78 79  1  0
 79 80  2  0
 81 80  1  0
 81 85  1  0
 82 81  2  0
 83 78  2  0
 83 82  1  0
 84 83  1  0
 86 87  1  0
 87 90  1  0
 87 89  1  0
 88 86  2  0
 91 66  1  0
 91 92  1  0
 93 91  1  0
M  ISO  4  11 101  12 101  56 100  64 100
M  END
>  <TORSDO>  (87) 
F 19

>  <SCORE>  (87) 
-14.191

>  <name>  (87) 
86

>  <ligand_id>  (87) 
86

>  <original_smiles>  (87) 
[H]c1c([H])c([H])c2c(c1[H])C([H])([H])C([H])([H])C([H])([H])C2([H])N([H])C(=O)C1([H])N(C(=O)C([H])(N([H])C(=O)C([H])(N([H])C([H])([H])[H])C([H])([H])[H])C(C([H])([H])[H])(C([H])([H])[H])C([H])([H])[H])C([H])([H])c2c([H])c(OC([H])([H])C(=O)N([H])c3sc(S(=O)(=O)N([H])C(=O)N4C([H])([H])C([H])([H])C([H])([H])C([H])(n5nc(-c6c([H])c([H])c(Oc7c([H])c([H])c(F)c([H])c7F)c([H])c6[H])c(C(=O)N([H])[H])c5N([H])[H])C4([H])[H])c(C([H])([H])[H])c3[H])c([H])c([H])c2C1([H])[H]

>  <smiles>  (87) 
[H]c1c([H])c([H])c2c(c1[H])C([H])([H])C([H])([H])C([H])([H])C2([H])N([H])C(=O)C1([H])N(C(=O)C([H])(N([H])C(=O)C([H])(N([H])C([H])([H])[H])C([H])([H])[H])C(C([H])([H])[H])(C([H])([H])[H])C([H])([H])[H])C([H])([H])c2c([H])c(OC([H])([H])C(=O)N([H])c3sc(S(=O)(=O)N([H])C(=O)N4C([H])([H])C([H])([H])C([H])([H])C([H])(n5nc(-c6c([H])c([H])c(Oc7c([H])c([H])c(F)c([H])c7F)c([H])c6[H])c(C(=O)N([H])[H])c5N([H])[H])C4([H])[H])c(C([H])([H])[H])c3[H])c([H])c([H])c2C1([H])[H]

$$$$
87:0:0
     RDKit          3D

 95104  0  0  1  0  0  0  0  0999 V2000
  -28.5930  -24.4020   20.1660 C   0  0  0  0  0  0  0  0  0  0  0  0
  -28.4070  -25.4370   19.2950 C   0  0  0  0  0  3  0  0  0  0  0  0
  -29.5200  -20.9310   21.4470 C   0  0  0  0  0  3  0  0  0  0  0  0
  -28.5370  -24.5460   21.6600 C   0  0  0  0  0  2  0  0  0  0  0  0
  -28.9310  -22.9260   19.8290 C   0  0  0  0  0  2  0  0  0  0  0  0
  -28.5880  -23.1200   22.2190 C   0  0  0  0  0  2  0  0  0  0  0  0
  -29.0600  -22.2060   21.1430 N   0  0  0  0  0  0  0  0  0  0  0  0
  -29.4020  -20.5580   22.7230 N   0  0  0  0  0  0  0  0  0  0  0  0
  -29.8040  -19.6770   23.0040 H   0  0  0  0  0  0  0  0  0  0  0  0
  -28.9420  -21.1190   23.4170 H   0  0  0  0  0  0  0  0  0  0  0  0
  -31.9660  -19.3060   19.0030 C   0  0  0  0  0  3  0  0  0  0  0  0
  -31.2280  -20.2820   19.6990 C   0  0  0  0  0  3  0  0  0  0  0  0
  -31.7220  -17.9310   19.1940 C   0  0  0  0  0  3  0  0  0  0  0  0
  -29.9440  -18.4960   20.7460 C   0  0  0  0  0  3  0  0  0  0  0  0
  -30.1930  -19.9050   20.5790 C   0  0  0  0  0  0  0  0  0  0  0  0
  -30.7230  -17.4810   20.0960 C   0  0  0  0  0  0  0  0  0  0  0  0
  -31.2220  -14.9630   20.0160 C   0  0  0  0  0  0  0  0  0  0  0  0
  -30.9220  -12.7370   18.9810 C   0  0  0  0  0  2  0  0  0  0  0  0
  -29.9540  -12.8930   17.7880 C   0  0  0  0  0  2  0  0  0  0  0  0
  -28.4900  -12.7650   18.2560 C   0  0  0  0  0  2  0  0  0  0  0  0
  -28.1790  -13.6310   19.5070 C   0  0  0  0  0  3  0  0  0  0  0  0
  -29.2660  -13.4670   20.5930 C   0  0  0  0  0  2  0  0  0  0  0  0
  -30.5650  -13.7660   19.9750 N   0  0  0  0  0  0  0  0  0  0  0  0
  -32.3850  -15.0560   19.6150 O   0  0  0  0  0  0  0  0  0  0  0  0
  -30.4790  -16.0630   20.3510 N   0  0  0  0  0  0  0  0  0  0  0  0
  -29.5810  -15.8420   20.7560 H   0  0  0  0  0  0  0  0  0  0  0  0
  -25.8250  -14.2590   20.3220 C   0  0  0  0  0  0  0  0  0  0  0  0
  -24.7560  -13.4970   20.7090 C   0  0  0  0  0  0  0  0  0  0  0  0
  -25.1890  -12.1380   20.6290 C   0  0  0  0  0  0  0  0  0  0  0  0
  -26.8430  -13.3650   20.0300 N   0  0  0  0  0  0  0  0  0  0  0  0
  -26.4670  -12.0830   20.2760 N   0  0  0  0  0  0  0  0  0  0  0  0
  -24.4450  -10.8860   20.8130 C   0  0  0  0  0  0  0  0  0  0  0  0
  -24.8160   -9.9440   21.7970 C   0  0  0  0  0  3  0  0  0  0  0  0
  -24.0710   -8.7560   21.9680 C   0  0  0  0  0  3  0  0  0  0  0  0
  -22.9420   -8.5030   21.1530 C   0  0  0  0  0  0  0  0  0  0  0  0
  -22.5910   -9.4330   20.1590 C   0  0  0  0  0  3  0  0  0  0  0  0
  -23.3360  -10.6120   19.9880 C   0  0  0  0  0  3  0  0  0  0  0  0
  -22.1750   -7.3650   21.2290 O   0  0  0  0  0  0  0  0  0  0  0  0
  -21.9490   -6.7290   22.4240 C   0  0  0  0  0  0  0  0  0  0  0  0
  -21.3360   -7.3870   23.5130 C   0  0  0  0  0  3  0  0  0  0  0  0
  -21.0580   -6.6760   24.6980 C   0  0  0  0  0  3  0  0  0  0  0  0
  -21.3800   -5.3090   24.7920 C   0  0  0  0  0  0  0  0  0  0  0  0
  -21.9850   -4.6520   23.7060 C   0  0  0  0  0  3  0  0  0  0  0  0
  -22.2650   -5.3590   22.5250 C   0  0  0  0  0  0  0  0  0  0  0  0
  -22.8270   -4.7150   21.4730 F   0  0  0  0  0  0  0  0  0  0  0  0
  -21.1060   -4.6250   25.9280 F   0  0  0  0  0  0  0  0  0  0  0  0
  -23.3780  -13.9940   21.0380 C   0  0  0  0  0  0  0  0  0  0  0  0
  -22.6730  -13.3020   21.9250 N   0  0  0  0  0  0  0  0  0  0  0  0
  -22.9380  -15.0320   20.5450 O   0  0  0  0  0  0  0  0  0  0  0  0
  -23.0430  -12.4620   22.3460 H   0  0  0  0  0  0  0  0  0  0  0  0
  -21.7490  -13.6150   22.1870 H   0  0  0  0  0  0  0  0  0  0  0  0
  -26.0090  -15.6300   20.1700 N   0  0  0  0  0  0  0  0  0  0  0  0
  -25.2500  -16.2880   20.3050 H   0  0  0  0  0  0  0  0  0  0  0  0
  -26.8380  -16.0580   19.7770 H   0  0  0  0  0  0  0  0  0  0  0  0
  -28.3330  -26.7910   19.6380 O   0  0  0  0  0  0  0  0  0  0  0  0
  -24.5020  -31.7690   23.0680 C   0  0  0  0  0  0  0  0  0  0  0  0
  -27.1430  -27.5140   19.6690 C   0  0  0  0  0  0  0  0  0  0  0  0
  -23.2740  -30.4050   21.4130 C   0  0  0  0  0  3  0  0  0  0  0  0
  -24.7120  -28.9850   19.8470 C   0  0  0  0  0  0  0  0  0  0  0  0
  -25.7810  -30.8450   21.1290 C   0  0  0  0  0  2  0  0  0  0  0  0
  -25.8800  -29.5070   20.4140 C   0  0  0  0  0  0  0  0  0  0  0  0
  -27.0950  -28.7780   20.3210 C   0  0  0  0  0  3  0  0  0  0  0  0
  -25.9530  -27.0240   19.0880 C   0  0  0  0  0  3  0  0  0  0  0  0
  -24.7470  -27.7480   19.1770 C   0  0  0  0  0  3  0  0  0  0  0  0
  -23.4460  -29.8050   19.9930 C   0  0  0  0  0  2  0  0  0  0  0  0
  -24.5400  -31.0210   21.9280 N   0  0  0  0  0  0  0  0  0  0  0  0
  -23.4350  -31.9780   23.6660 O   0  0  0  0  0  0  0  0  0  0  0  0
  -22.6980  -29.3190   22.3500 C   0  0  0  0  0  0  0  0  0  0  0  0
  -21.3820  -29.0630   22.2380 N   0  0  0  0  0  0  0  0  0  0  0  0
  -23.4290  -28.7080   23.1340 O   0  0  0  0  0  0  0  0  0  0  0  0
  -20.8470  -29.6070   21.5770 H   0  0  0  0  0  0  0  0  0  0  0  0
  -18.1070  -27.6110   22.7100 C   0  0  0  0  0  0  0  0  0  0  0  0
  -20.6390  -28.0550   22.9910 C   0  0  0  0  0  3  0  0  0  0  0  0
  -20.8480  -26.6450   22.3900 C   0  0  0  0  0  2  0  0  0  0  0  0
  -19.7730  -26.2610   21.3660 C   0  0  0  0  0  2  0  0  0  0  0  0
  -18.3840  -26.2920   22.0080 C   0  0  0  0  0  2  0  0  0  0  0  0
  -19.1650  -28.4450   23.1570 C   0  0  0  0  0  0  0  0  0  0  0  0
  -18.8510  -29.6780   23.7710 C   0  0  0  0  0  3  0  0  0  0  0  0
  -17.5130  -30.0760   23.9430 C   0  0  0  0  0  3  0  0  0  0  0  0
  -16.4700  -29.2400   23.5110 C   0  0  0  0  0  3  0  0  0  0  0  0
  -16.7670  -28.0100   22.8990 C   0  0  0  0  0  3  0  0  0  0  0  0
  -25.7900  -32.4180   23.6640 C   0  0  0  0  0  3  0  0  0  0  0  0
  -25.4430  -33.7780   24.0970 N   0  0  0  0  0  0  0  0  0  0  0  0
  -25.7040  -34.8900   23.3940 C   0  0  0  0  0  0  0  0  0  0  0  0
  -26.3340  -34.8770   22.3330 O   0  0  0  0  0  0  0  0  0  0  0  0
  -24.8770  -33.8580   24.9290 H   0  0  0  0  0  0  0  0  0  0  0  0
  -23.9000  -36.6310   23.2160 C   0  0  0  0  0  1  0  0  0  0  0  0
  -25.1840  -36.2250   23.9580 C   0  0  0  0  0  3  0  0  0  0  0  0
  -27.3120  -37.1370   24.7770 C   0  0  0  0  0  1  0  0  0  0  0  0
  -26.1730  -37.3220   23.8810 N   0  0  0  0  0  0  0  0  0  0  0  0
  -25.7390  -38.2150   24.0990 H   0  0  0  0  0  0  0  0  0  0  0  0
  -26.4020  -31.5950   24.8640 C   0  0  1  0  0  0  0  0  0  0  0  0
  -25.3770  -31.2500   25.9690 C   0  0  0  0  0  1  0  0  0  0  0  0
  -27.0160  -30.2690   24.3580 C   0  0  0  0  0  1  0  0  0  0  0  0
  -27.5560  -32.3950   25.5130 C   0  0  0  0  0  1  0  0  0  0  0  0
  1  4  1  0
  2 55  1  0
  2  1  2  0
  3  8  1  0
  4  6  1  0
  5  1  1  0
  5  7  1  0
  7  3  1  0
  7  6  1  0
  8  9  1  0
  8 10  1  0
 11 13  2  0
 11 12  1  0
 12 15  2  0
 13 16  1  0
 15 14  1  0
 15  3  1  0
 16 25  1  0
 16 14  2  0
 17 25  1  0
 18 23  1  0
 19 20  1  0
 19 18  1  0
 21 20  1  0
 21 30  1  0
 21 22  1  0
 23 17  1  0
 23 22  1  0
 24 17  2  0
 25 26  1  0
 27 28  2  0
 28 47  1  0
 29 28  1  0
 29 32  1  0
 30 31  1  0
 30 27  1  0
 31 29  2  0
 32 33  1  0
 33 34  2  0
 35 38  1  0
 35 34  1  0
 36 35  2  0
 37 36  1  0
 37 32  2  0
 38 39  1  0
 39 44  2  0
 39 40  1  0
 40 41  2  0
 41 42  1  0
 42 46  1  0
 43 42  2  0
 44 43  1  0
 45 44  1  0
 47 48  1  0
 48 51  1  0
 48 50  1  0
 49 47  2  0
 52 53  1  0
 52 27  1  0
 54 52  1  0
 55 57  1  0
 56 67  2  0
 57 62  1  0
 58 66  1  0
 58 68  1  0
 59 65  1  0
 59 61  1  0
 60 66  1  0
 61 60  1  0
 62 61  2  0
 63 64  1  0
 63 57  2  0
 64 59  2  0
 65 58  1  0
 66 56  1  0
 68 70  2  0
 69 68  1  0
 71 69  1  0
 72 81  2  0
 72 77  1  0
 73 69  1  0
 73 77  1  0
 74 73  1  0
 75 76  1  0
 75 74  1  0
 76 72  1  0
 77 78  2  0
 78 79  1  0
 80 79  2  0
 81 80  1  0
 82 56  1  0
 82 83  1  0
 82 92  1  0
 83 86  1  0
 84 88  1  0
 84 83  1  0
 85 84  2  0
 88 87  1  0
 90 88  1  0
 90 91  1  0
 90 89  1  0
 92 95  1  1
 92 93  1  0
 94 92  1  0
M  ISO  4   2 101  17 100  25 100  55 101
M  END
>  <TORSDO>  (88) 
F 17

>  <SCORE>  (88) 
-13.481

>  <name>  (88) 
87

>  <ligand_id>  (88) 
87

>  <original_smiles>  (88) 
[H]C(Oc1c([H])c([H])c2c(c1[H])C([H])([H])N(C(=O)C([H])(N([H])C(=O)C([H])(N([H])C([H])([H])[H])C([H])([H])[H])C(C([H])([H])[H])(C([H])([H])[H])C([H])([H])[H])C([H])(C(=O)N([H])C1([H])c3c([H])c([H])c([H])c([H])c3C([H])([H])C([H])([H])C1([H])[H])C2([H])[H])=C1C([H])([H])N(C(c2c([H])c([H])c([H])c(N([H])C(=O)N3C([H])([H])C([H])([H])C([H])([H])C([H])(n4nc(-c5c([H])c([H])c(Oc6c([H])c([H])c(F)c([H])c6F)c([H])c5[H])c(C(=O)N([H])[H])c4N([H])[H])C3([H])[H])c2[H])=[N+]([H])[H])C([H])([H])C1([H])[H]

>  <smiles>  (88) 
[H]C(Oc1c([H])c([H])c2c(c1[H])C([H])([H])N(C(=O)C([H])(N([H])C(=O)C([H])(N([H])C([H])([H])[H])C([H])([H])[H])C(C([H])([H])[H])(C([H])([H])[H])C([H])([H])[H])C([H])(C(=O)N([H])C1([H])c3c([H])c([H])c([H])c([H])c3C([H])([H])C([H])([H])C1([H])[H])C2([H])[H])=C1C([H])([H])N(C(c2c([H])c([H])c([H])c(N([H])C(=O)N3C([H])([H])C([H])([H])C([H])([H])C([H])(n4nc(-c5c([H])c([H])c(Oc6c([H])c([H])c(F)c([H])c6F)c([H])c5[H])c(C(=O)N([H])[H])c4N([H])[H])C3([H])[H])c2[H])=[N+]([H])[H])C([H])([H])C1([H])[H]

$$$$
88:0:0
     RDKit          3D

 94103  0  0  1  0  0  0  0  0999 V2000
  -33.0010  -20.1610   22.8680 C   0  0  0  0  0  3  0  0  0  0  0  0
  -32.2130  -19.0600   22.4930 C   0  0  0  0  0  3  0  0  0  0  0  0
  -32.5820  -21.4650   22.5500 C   0  0  0  0  0  3  0  0  0  0  0  0
  -30.5920  -20.5670   21.4640 C   0  0  0  0  0  3  0  0  0  0  0  0
  -31.0040  -19.2520   21.7880 C   0  0  0  0  0  0  0  0  0  0  0  0
  -31.3790  -21.6810   21.8500 C   0  0  0  0  0  0  0  0  0  0  0  0
  -30.8580  -14.6750   20.0150 C   0  0  0  0  0  0  0  0  0  0  0  0
  -30.4270  -12.6140   18.7240 C   0  0  0  0  0  2  0  0  0  0  0  0
  -29.3930  -12.8890   17.6120 C   0  0  0  0  0  2  0  0  0  0  0  0
  -27.9520  -12.7340   18.1410 C   0  0  0  0  0  2  0  0  0  0  0  0
  -27.7270  -13.4770   19.4860 C   0  0  0  0  0  3  0  0  0  0  0  0
  -28.8600  -13.1270   20.4720 C   0  0  0  0  0  2  0  0  0  0  0  0
  -30.1350  -13.5250   19.8490 N   0  0  0  0  0  0  0  0  0  0  0  0
  -31.9120  -14.8500   19.3910 O   0  0  0  0  0  0  0  0  0  0  0  0
  -29.8250  -17.1210   22.5750 C   0  0  0  0  0  2  0  0  0  0  0  0
  -29.5620  -15.7630   21.9210 C   0  0  0  0  0  2  0  0  0  0  0  0
  -30.7880  -17.1040   20.3790 C   0  0  0  0  0  2  0  0  0  0  0  0
  -30.1460  -18.0440   21.4090 C   0  0  0  0  0  3  0  0  0  0  0  0
  -30.2900  -15.7430   20.6450 N   0  0  0  0  0  0  0  0  0  0  0  0
  -25.3820  -14.0480   20.3800 C   0  0  0  0  0  0  0  0  0  0  0  0
  -24.3460  -13.2560   20.8000 C   0  0  0  0  0  0  0  0  0  0  0  0
  -24.8100  -11.9080   20.6890 C   0  0  0  0  0  0  0  0  0  0  0  0
  -26.4110  -13.1810   20.0470 N   0  0  0  0  0  0  0  0  0  0  0  0
  -26.0730  -11.8870   20.2850 N   0  0  0  0  0  0  0  0  0  0  0  0
  -24.1060  -10.6350   20.8880 C   0  0  0  0  0  0  0  0  0  0  0  0
  -24.5490   -9.6880   21.8380 C   0  0  0  0  0  3  0  0  0  0  0  0
  -23.8440   -8.4780   22.0220 C   0  0  0  0  0  3  0  0  0  0  0  0
  -22.6840   -8.2090   21.2600 C   0  0  0  0  0  0  0  0  0  0  0  0
  -22.2610   -9.1450   20.2990 C   0  0  0  0  0  3  0  0  0  0  0  0
  -22.9670  -10.3460   20.1120 C   0  0  0  0  0  3  0  0  0  0  0  0
  -21.9520   -7.0510   21.3530 O   0  0  0  0  0  0  0  0  0  0  0  0
  -21.7980   -6.3910   22.5460 C   0  0  0  0  0  0  0  0  0  0  0  0
  -21.2250   -7.0150   23.6750 C   0  0  0  0  0  3  0  0  0  0  0  0
  -21.0230   -6.2790   24.8590 C   0  0  0  0  0  3  0  0  0  0  0  0
  -21.3830   -4.9190   24.9150 C   0  0  0  0  0  0  0  0  0  0  0  0
  -21.9500   -4.2940   23.7900 C   0  0  0  0  0  3  0  0  0  0  0  0
  -22.1540   -5.0280   22.6080 C   0  0  0  0  0  0  0  0  0  0  0  0
  -22.6800   -4.4150   21.5200 F   0  0  0  0  0  0  0  0  0  0  0  0
  -21.1830   -4.2100   26.0500 F   0  0  0  0  0  0  0  0  0  0  0  0
  -22.9710  -13.7130   21.1920 C   0  0  0  0  0  0  0  0  0  0  0  0
  -22.3230  -12.9950   22.1030 N   0  0  0  0  0  0  0  0  0  0  0  0
  -22.4810  -14.7410   20.7260 O   0  0  0  0  0  0  0  0  0  0  0  0
  -22.7320  -12.1610   22.5000 H   0  0  0  0  0  0  0  0  0  0  0  0
  -21.4050  -13.2820   22.4100 H   0  0  0  0  0  0  0  0  0  0  0  0
  -25.5280  -15.4240   20.2380 N   0  0  0  0  0  0  0  0  0  0  0  0
  -24.7720  -16.0730   20.4270 H   0  0  0  0  0  0  0  0  0  0  0  0
  -26.3560  -15.8770   19.8710 H   0  0  0  0  0  0  0  0  0  0  0  0
  -31.0180  -23.0080   21.5860 N   0  0  0  0  0  0  0  0  0  0  0  0
  -31.7040  -23.7450   21.7320 H   0  0  0  0  0  0  0  0  0  0  0  0
  -29.9600  -23.3670   20.6410 C   0  0  0  0  0  2  0  0  0  0  0  0
  -29.8880  -24.8920   20.4510 C   0  0  0  0  0  0  0  0  0  0  0  0
  -30.7970  -25.6210   20.8740 O   0  0  0  0  0  0  0  0  0  0  0  0
  -28.6600  -25.4700   19.7360 C   0  0  0  0  0  2  0  0  0  0  0  0
  -28.6640  -26.9000   19.8320 O   0  0  0  0  0  0  0  0  0  0  0  0
  -24.4950  -31.6390   23.0680 C   0  0  0  0  0  0  0  0  0  0  0  0
  -27.4370  -27.5210   19.8330 C   0  0  0  0  0  0  0  0  0  0  0  0
  -23.3900  -30.2370   21.3560 C   0  0  0  0  0  3  0  0  0  0  0  0
  -24.9470  -28.8550   19.8840 C   0  0  0  0  0  0  0  0  0  0  0  0
  -25.8870  -30.7660   21.1960 C   0  0  0  0  0  2  0  0  0  0  0  0
  -26.0630  -29.4330   20.5020 C   0  0  0  0  0  0  0  0  0  0  0  0
  -27.3100  -28.7730   20.4710 C   0  0  0  0  0  3  0  0  0  0  0  0
  -26.3030  -26.9500   19.2110 C   0  0  0  0  0  3  0  0  0  0  0  0
  -25.0610  -27.6120   19.2370 C   0  0  0  0  0  3  0  0  0  0  0  0
  -23.6510  -29.6280   19.9510 C   0  0  0  0  0  2  0  0  0  0  0  0
  -24.6080  -30.8940   21.9330 N   0  0  0  0  0  0  0  0  0  0  0  0
  -23.3950  -31.8200   23.6090 O   0  0  0  0  0  0  0  0  0  0  0  0
  -22.7980  -29.1360   22.2660 C   0  0  0  0  0  0  0  0  0  0  0  0
  -21.4850  -28.8920   22.1300 N   0  0  0  0  0  0  0  0  0  0  0  0
  -23.5170  -28.5090   23.0480 O   0  0  0  0  0  0  0  0  0  0  0  0
  -20.9640  -29.4580   21.4750 H   0  0  0  0  0  0  0  0  0  0  0  0
  -18.1690  -27.5380   22.6030 C   0  0  0  0  0  0  0  0  0  0  0  0
  -20.7200  -27.8760   22.8520 C   0  0  0  0  0  3  0  0  0  0  0  0
  -20.8660  -26.4900   22.1840 C   0  0  0  0  0  2  0  0  0  0  0  0
  -19.7600  -26.1880   21.1690 C   0  0  0  0  0  2  0  0  0  0  0  0
  -18.3850  -26.2410   21.8410 C   0  0  0  0  0  2  0  0  0  0  0  0
  -19.2660  -28.3140   23.0620 C   0  0  0  0  0  0  0  0  0  0  0  0
  -19.0120  -29.5290   23.7340 C   0  0  0  0  0  3  0  0  0  0  0  0
  -17.6930  -29.9710   23.9500 C   0  0  0  0  0  3  0  0  0  0  0  0
  -16.6100  -29.1910   23.5080 C   0  0  0  0  0  3  0  0  0  0  0  0
  -16.8490  -27.9770   22.8390 C   0  0  0  0  0  3  0  0  0  0  0  0
  -25.7360  -32.3200   23.7270 C   0  0  0  0  0  3  0  0  0  0  0  0
  -26.2560  -31.5610   25.0090 C   0  0  1  0  0  0  0  0  0  0  0  0
  -25.1480  -31.2580   26.0430 C   0  0  0  0  0  1  0  0  0  0  0  0
  -26.9150  -30.2170   24.6140 C   0  0  0  0  0  1  0  0  0  0  0  0
  -27.3480  -32.4020   25.7110 C   0  0  0  0  0  1  0  0  0  0  0  0
  -25.3590  -33.7010   24.0580 N   0  0  0  0  0  0  0  0  0  0  0  0
  -25.6510  -34.7690   23.3050 C   0  0  0  0  0  0  0  0  0  0  0  0
  -26.3360  -34.7010   22.2810 O   0  0  0  0  0  0  0  0  0  0  0  0
  -24.7510  -33.8240   24.8540 H   0  0  0  0  0  0  0  0  0  0  0  0
  -23.8350  -36.4690   22.9410 C   0  0  0  0  0  1  0  0  0  0  0  0
  -25.0910  -36.1310   23.7590 C   0  0  0  0  0  3  0  0  0  0  0  0
  -27.1710  -37.1260   24.6050 C   0  0  0  0  0  1  0  0  0  0  0  0
  -26.0690  -37.2360   23.6530 N   0  0  0  0  0  0  0  0  0  0  0  0
  -25.6140  -38.1330   23.7970 H   0  0  0  0  0  0  0  0  0  0  0  0
  2  1  2  0
  3  1  1  0
  4  5  2  0
  4  6  1  0
  5  2  1  0
  6  3  2  0
  7 19  1  0
  8 13  1  0
  9 10  1  0
  9  8  1  0
 11 10  1  0
 11 23  1  0
 11 12  1  0
 13  7  1  0
 13 12  1  0
 14  7  2  0
 16 15  1  0
 17 19  1  0
 17 18  1  0
 18  5  1  0
 18 15  1  0
 19 16  1  0
 20 21  2  0
 21 40  1  0
 22 21  1  0
 22 25  1  0
 23 24  1  0
 23 20  1  0
 24 22  2  0
 25 26  1  0
 26 27  2  0
 28 31  1  0
 28 27  1  0
 29 28  2  0
 30 29  1  0
 30 25  2  0
 31 32  1  0
 32 37  2  0
 32 33  1  0
 33 34  2  0
 34 35  1  0
 35 39  1  0
 36 35  2  0
 37 36  1  0
 38 37  1  0
 40 41  1  0
 41 44  1  0
 41 43  1  0
 42 40  2  0
 45 20  1  0
 45 46  1  0
 47 45  1  0
 48 49  1  0
 48  6  1  0
 50 48  1  0
 51 50  1  0
 51 52  2  0
 53 54  1  0
 53 51  1  0
 54 56  1  0
 55 66  2  0
 56 61  1  0
 57 65  1  0
 57 67  1  0
 58 64  1  0
 58 60  1  0
 59 65  1  0
 60 59  1  0
 61 60  2  0
 62 63  1  0
 62 56  2  0
 63 58  2  0
 64 57  1  0
 65 55  1  0
 67 69  2  0
 68 67  1  0
 70 68  1  0
 71 80  2  0
 71 76  1  0
 72 68  1  0
 72 76  1  0
 73 72  1  0
 74 75  1  0
 74 73  1  0
 75 71  1  0
 76 77  2  0
 77 78  1  0
 79 78  2  0
 80 79  1  0
 81 55  1  0
 81 86  1  0
 81 82  1  0
 82 85  1  1
 82 83  1  0
 84 82  1  0
 86 89  1  0
 87 91  1  0
 87 86  1  0
 88 87  2  0
 91 90  1  0
 93 91  1  0
 93 94  1  0
 93 92  1  0
M  ISO  4   7 100  19 100  53 101  54 101
M  END
>  <TORSDO>  (89) 
F 20

>  <SCORE>  (89) 
-11.349

>  <name>  (89) 
88

>  <ligand_id>  (89) 
88

>  <original_smiles>  (89) 
[H]c1c([H])c([H])c2c(c1[H])C([H])([H])C([H])([H])C([H])([H])C2([H])N([H])C(=O)C1([H])N(C(=O)C([H])(N([H])C(=O)C([H])(N([H])C([H])([H])[H])C([H])([H])[H])C(C([H])([H])[H])(C([H])([H])[H])C([H])([H])[H])C([H])([H])c2c([H])c(OC([H])([H])C(=O)C([H])([H])N([H])c3c([H])c([H])c([H])c(C4([H])C([H])([H])N(C(=O)N5C([H])([H])C([H])([H])C([H])([H])C([H])(n6nc(-c7c([H])c([H])c(Oc8c([H])c([H])c(F)c([H])c8F)c([H])c7[H])c(C(=O)N([H])[H])c6N([H])[H])C5([H])[H])C([H])([H])C4([H])[H])c3[H])c([H])c([H])c2C1([H])[H]

>  <smiles>  (89) 
[H]c1c([H])c([H])c2c(c1[H])C([H])([H])C([H])([H])C([H])([H])C2([H])N([H])C(=O)C1([H])N(C(=O)C([H])(N([H])C(=O)C([H])(N([H])C([H])([H])[H])C([H])([H])[H])C(C([H])([H])[H])(C([H])([H])[H])C([H])([H])[H])C([H])([H])c2c([H])c(OC([H])([H])C(=O)C([H])([H])N([H])c3c([H])c([H])c([H])c(C4([H])C([H])([H])N(C(=O)N5C([H])([H])C([H])([H])C([H])([H])C([H])(n6nc(-c7c([H])c([H])c(Oc8c([H])c([H])c(F)c([H])c8F)c([H])c7[H])c(C(=O)N([H])[H])c6N([H])[H])C5([H])[H])C([H])([H])C4([H])[H])c3[H])c([H])c([H])c2C1([H])[H]

$$$$
89:0:0
     RDKit          3D

 94103  0  0  1  0  0  0  0  0999 V2000
  -29.6120  -24.0650   21.5450 C   0  0  0  0  0  2  0  0  0  0  0  0
  -30.2430  -22.6620   21.6160 C   0  0  0  0  0  2  0  0  0  0  0  0
  -29.2400  -22.9680   19.4720 C   0  0  0  0  0  2  0  0  0  0  0  0
  -29.5130  -24.3850   20.0480 C   0  0  2  0  0  0  0  0  0  0  0  0
  -30.8360  -24.9580   19.5010 C   0  0  0  0  0  1  0  0  0  0  0  0
  -29.8840  -21.9570   20.3590 N   0  0  2  0  0  4  0  0  0  0  0  0
  -30.7450  -21.6860   19.9070 H   0  0  0  0  0  0  0  0  0  0  0  0
  -29.0890  -20.7020   20.5320 C   0  0  0  0  0  2  0  0  0  0  0  0
  -31.3750  -17.6110   20.6800 C   0  0  0  0  0  3  0  0  0  0  0  0
  -31.1690  -19.0320   20.6140 C   0  0  0  0  0  0  0  0  0  0  0  0
  -29.8310  -19.3760   20.6350 C   0  0  0  0  0  0  0  0  0  0  0  0
  -30.2240  -16.8620   20.7600 C   0  0  0  0  0  0  0  0  0  0  0  0
  -32.3260  -19.9850   20.5270 C   0  0  0  0  0  1  0  0  0  0  0  0
  -28.8470  -17.9330   20.7860 S   0  0  0  0  0  0  0  0  0  0  0  0
  -30.7330  -14.5340   20.2150 C   0  0  0  0  0  0  0  0  0  0  0  0
  -30.3870  -12.4020   19.0200 C   0  0  0  0  0  2  0  0  0  0  0  0
  -29.3880  -12.6420   17.8680 C   0  0  0  0  0  2  0  0  0  0  0  0
  -27.9350  -12.4930   18.3620 C   0  0  0  0  0  2  0  0  0  0  0  0
  -27.6580  -13.2970   19.6600 C   0  0  0  0  0  3  0  0  0  0  0  0
  -28.7630  -13.0370   20.7110 C   0  0  0  0  0  2  0  0  0  0  0  0
  -30.0630  -13.3560   20.0940 N   0  0  0  0  0  0  0  0  0  0  0  0
  -31.8330  -14.7340   19.6930 O   0  0  0  0  0  0  0  0  0  0  0  0
  -30.0400  -15.5110   20.8360 N   0  0  0  0  0  0  0  0  0  0  0  0
  -29.1460  -15.2110   21.1930 H   0  0  0  0  0  0  0  0  0  0  0  0
  -25.2960  -13.8970   20.4900 C   0  0  0  0  0  0  0  0  0  0  0  0
  -24.2410  -13.1190   20.8880 C   0  0  0  0  0  0  0  0  0  0  0  0
  -24.6940  -11.7670   20.8000 C   0  0  0  0  0  0  0  0  0  0  0  0
  -26.3250  -13.0170   20.1910 N   0  0  0  0  0  0  0  0  0  0  0  0
  -25.9690  -11.7300   20.4330 N   0  0  0  0  0  0  0  0  0  0  0  0
  -23.9700  -10.5030   20.9900 C   0  0  0  0  0  0  0  0  0  0  0  0
  -24.4140   -9.5280   21.9100 C   0  0  0  0  0  3  0  0  0  0  0  0
  -23.6930   -8.3280   22.0870 C   0  0  0  0  0  3  0  0  0  0  0  0
  -22.5120   -8.0940   21.3450 C   0  0  0  0  0  0  0  0  0  0  0  0
  -22.0860   -9.0570   20.4120 C   0  0  0  0  0  3  0  0  0  0  0  0
  -22.8080  -10.2480   20.2340 C   0  0  0  0  0  3  0  0  0  0  0  0
  -21.7620   -6.9470   21.4310 O   0  0  0  0  0  0  0  0  0  0  0  0
  -21.6900   -6.2200   22.5920 C   0  0  0  0  0  0  0  0  0  0  0  0
  -21.2130   -6.7820   23.7970 C   0  0  0  0  0  3  0  0  0  0  0  0
  -21.0920   -5.9790   24.9490 C   0  0  0  0  0  3  0  0  0  0  0  0
  -21.4370   -4.6160   24.8970 C   0  0  0  0  0  0  0  0  0  0  0  0
  -21.9070   -4.0520   23.6970 C   0  0  0  0  0  3  0  0  0  0  0  0
  -22.0310   -4.8520   22.5470 C   0  0  0  0  0  0  0  0  0  0  0  0
  -22.4640   -4.3000   21.3880 F   0  0  0  0  0  0  0  0  0  0  0  0
  -21.3130   -3.8420   26.0010 F   0  0  0  0  0  0  0  0  0  0  0  0
  -22.8590  -13.5950   21.2350 C   0  0  0  0  0  0  0  0  0  0  0  0
  -22.1700  -12.8800   22.1160 N   0  0  0  0  0  0  0  0  0  0  0  0
  -22.4030  -14.6350   20.7630 O   0  0  0  0  0  0  0  0  0  0  0  0
  -22.5500  -12.0380   22.5220 H   0  0  0  0  0  0  0  0  0  0  0  0
  -21.2450  -13.1800   22.3900 H   0  0  0  0  0  0  0  0  0  0  0  0
  -25.4620  -15.2710   20.3410 N   0  0  0  0  0  0  0  0  0  0  0  0
  -24.7030  -15.9260   20.4930 H   0  0  0  0  0  0  0  0  0  0  0  0
  -26.2970  -15.7100   19.9750 H   0  0  0  0  0  0  0  0  0  0  0  0
  -28.3390  -25.3430   19.6970 C   0  0  0  0  0  2  0  0  0  0  0  0
  -28.4520  -26.7140   20.1360 O   0  0  0  0  0  0  0  0  0  0  0  0
  -24.6210  -31.8910   23.2240 C   0  0  0  0  0  0  0  0  0  0  0  0
  -27.2840  -27.4670   20.1080 C   0  0  0  0  0  0  0  0  0  0  0  0
  -23.4230  -30.4970   21.5740 C   0  0  0  0  0  3  0  0  0  0  0  0
  -24.8830  -28.9860   20.1320 C   0  0  0  0  0  0  0  0  0  0  0  0
  -25.9510  -30.8640   21.3810 C   0  0  0  0  0  2  0  0  0  0  0  0
  -26.0420  -29.4980   20.7290 C   0  0  0  0  0  0  0  0  0  0  0  0
  -27.2440  -28.7450   20.7170 C   0  0  0  0  0  3  0  0  0  0  0  0
  -26.0980  -26.9870   19.4930 C   0  0  0  0  0  3  0  0  0  0  0  0
  -24.9090  -27.7300   19.5110 C   0  0  0  0  0  3  0  0  0  0  0  0
  -23.6350  -29.8360   20.1860 C   0  0  0  0  0  2  0  0  0  0  0  0
  -24.6840  -31.0990   22.1170 N   0  0  0  0  0  0  0  0  0  0  0  0
  -23.5370  -32.1530   23.7640 O   0  0  0  0  0  0  0  0  0  0  0  0
  -22.7780  -29.4630   22.5240 C   0  0  0  0  0  0  0  0  0  0  0  0
  -21.4530  -29.2790   22.4010 N   0  0  0  0  0  0  0  0  0  0  0  0
  -23.4650  -28.8280   23.3280 O   0  0  0  0  0  0  0  0  0  0  0  0
  -20.9600  -29.8460   21.7240 H   0  0  0  0  0  0  0  0  0  0  0  0
  -18.0780  -28.0890   22.9100 C   0  0  0  0  0  0  0  0  0  0  0  0
  -20.6390  -28.3330   23.1630 C   0  0  0  0  0  3  0  0  0  0  0  0
  -20.7300  -26.9110   22.5630 C   0  0  0  0  0  2  0  0  0  0  0  0
  -19.6180  -26.6080   21.5540 C   0  0  0  0  0  2  0  0  0  0  0  0
  -18.2420  -26.7510   22.2100 C   0  0  0  0  0  2  0  0  0  0  0  0
  -19.2040  -28.8400   23.3410 C   0  0  0  0  0  0  0  0  0  0  0  0
  -18.9960  -30.0960   23.9520 C   0  0  0  0  0  3  0  0  0  0  0  0
  -17.6950  -30.6020   24.1360 C   0  0  0  0  0  3  0  0  0  0  0  0
  -16.5840  -29.8480   23.7210 C   0  0  0  0  0  3  0  0  0  0  0  0
  -16.7760  -28.5930   23.1150 C   0  0  0  0  0  3  0  0  0  0  0  0
  -25.9020  -32.5270   23.8490 C   0  0  0  0  0  3  0  0  0  0  0  0
  -26.4230  -31.7500   25.1190 C   0  0  1  0  0  0  0  0  0  0  0  0
  -25.3330  -31.5000   26.1870 C   0  0  0  0  0  1  0  0  0  0  0  0
  -27.0130  -30.3790   24.7140 C   0  0  0  0  0  1  0  0  0  0  0  0
  -27.5700  -32.5470   25.7850 C   0  0  0  0  0  1  0  0  0  0  0  0
  -25.5850  -33.9210   24.1860 N   0  0  0  0  0  0  0  0  0  0  0  0
  -25.8760  -34.9760   23.4140 C   0  0  0  0  0  0  0  0  0  0  0  0
  -26.5130  -34.8810   22.3610 O   0  0  0  0  0  0  0  0  0  0  0  0
  -25.0230  -34.0700   25.0110 H   0  0  0  0  0  0  0  0  0  0  0  0
  -24.0990  -36.7310   23.1210 C   0  0  0  0  0  1  0  0  0  0  0  0
  -25.3800  -36.3580   23.8840 C   0  0  0  0  0  3  0  0  0  0  0  0
  -27.5320  -37.2850   24.6180 C   0  0  0  0  0  1  0  0  0  0  0  0
  -26.3850  -37.4310   23.7260 N   0  0  0  0  0  0  0  0  0  0  0  0
  -25.9660  -38.3410   23.8950 H   0  0  0  0  0  0  0  0  0  0  0  0
  1  2  1  0
  3  4  1  0
  3  6  1  0
  4  5  1  6
  4  1  1  0
  6  8  1  0
  6  2  1  0
  6  7  1  6
  8 11  1  0
  9 12  2  0
 10 11  2  0
 10  9  1  0
 11 14  1  0
 12 14  1  0
 12 23  1  0
 13 10  1  0
 15 23  1  0
 16 21  1  0
 17 18  1  0
 17 16  1  0
 19 18  1  0
 19 28  1  0
 19 20  1  0
 21 15  1  0
 21 20  1  0
 22 15  2  0
 23 24  1  0
 25 26  2  0
 26 45  1  0
 27 26  1  0
 27 30  1  0
 28 29  1  0
 28 25  1  0
 29 27  2  0
 30 31  1  0
 31 32  2  0
 33 36  1  0
 33 32  1  0
 34 33  2  0
 35 34  1  0
 35 30  2  0
 36 37  1  0
 37 38  1  0
 38 39  2  0
 40 39  1  0
 40 44  1  0
 41 40  2  0
 42 37  2  0
 42 41  1  0
 43 42  1  0
 45 46  1  0
 46 49  1  0
 46 48  1  0
 47 45  2  0
 50 25  1  0
 50 51  1  0
 52 50  1  0
 53  4  1  0
 53 54  1  0
 55 66  2  0
 56 54  1  0
 56 61  1  0
 57 65  1  0
 57 67  1  0
 58 64  1  0
 58 60  1  0
 59 65  1  0
 60 59  1  0
 61 60  2  0
 62 63  1  0
 62 56  2  0
 63 58  2  0
 64 57  1  0
 65 55  1  0
 67 69  2  0
 68 67  1  0
 70 68  1  0
 71 80  2  0
 71 76  1  0
 72 68  1  0
 72 76  1  0
 73 72  1  0
 74 75  1  0
 74 73  1  0
 75 71  1  0
 76 77  2  0
 77 78  1  0
 79 78  2  0
 80 79  1  0
 81 55  1  0
 81 86  1  0
 81 82  1  0
 82 85  1  1
 82 83  1  0
 84 82  1  0
 86 89  1  0
 87 91  1  0
 87 86  1  0
 88 87  2  0
 91 90  1  0
 93 91  1  0
 93 94  1  0
 93 92  1  0
M  ISO  4  15 100  23 100  53 101  54 101
M  END
>  <TORSDO>  (90) 
F 19

>  <SCORE>  (90) 
-14.401

>  <name>  (90) 
89

>  <ligand_id>  (90) 
89

>  <original_smiles>  (90) 
[H]c1c([H])c([H])c2c(c1[H])C([H])([H])C([H])([H])C([H])([H])C2([H])N([H])C(=O)C1([H])N(C(=O)C([H])(N([H])C(=O)C([H])(N([H])C([H])([H])[H])C([H])([H])[H])C(C([H])([H])[H])(C([H])([H])[H])C([H])([H])[H])C([H])([H])c2c([H])c(OC([H])([H])C3(C([H])([H])[H])C([H])([H])C([H])([H])[N+]([H])(C([H])([H])c4sc(N([H])C(=O)N5C([H])([H])C([H])([H])C([H])([H])C([H])(n6nc(-c7c([H])c([H])c(Oc8c([H])c([H])c(F)c([H])c8F)c([H])c7[H])c(C(=O)N([H])[H])c6N([H])[H])C5([H])[H])c([H])c4C([H])([H])[H])C3([H])[H])c([H])c([H])c2C1([H])[H]

>  <smiles>  (90) 
[H]c1c([H])c([H])c2c(c1[H])C([H])([H])C([H])([H])C([H])([H])C2([H])N([H])C(=O)C1([H])N(C(=O)C([H])(N([H])C(=O)C([H])(N([H])C([H])([H])[H])C([H])([H])[H])C(C([H])([H])[H])(C([H])([H])[H])C([H])([H])[H])C([H])([H])c2c([H])c(OC([H])([H])C3(C([H])([H])[H])C([H])([H])C([H])([H])[N+]([H])(C([H])([H])c4sc(N([H])C(=O)N5C([H])([H])C([H])([H])C([H])([H])C([H])(n6nc(-c7c([H])c([H])c(Oc8c([H])c([H])c(F)c([H])c8F)c([H])c7[H])c(C(=O)N([H])[H])c6N([H])[H])C5([H])[H])c([H])c4C([H])([H])[H])C3([H])[H])c([H])c([H])c2C1([H])[H]

$$$$
90:0:0
     RDKit          3D

 91100  0  0  1  0  0  0  0  0999 V2000
  -28.5800  -23.0340   21.8010 C   0  0  0  0  0  2  0  0  0  0  0  0
  -29.0210  -21.5340   21.8920 C   0  0  0  0  0  2  0  0  0  0  0  0
  -29.1270  -22.2650   19.6280 C   0  0  0  0  0  2  0  0  0  0  0  0
  -29.1120  -23.6460   20.4750 C   0  0  2  0  0  0  0  0  0  0  0  0
  -30.5800  -24.1170   20.6560 C   0  0  0  0  0  1  0  0  0  0  0  0
  -29.2340  -21.0590   20.5300 N   0  0  0  0  0  0  0  0  0  0  0  0
  -29.5350  -19.1600   18.8730 C   0  0  0  0  0  3  0  0  0  0  0  0
  -29.7820  -17.7360   18.9440 C   0  0  0  0  0  3  0  0  0  0  0  0
  -29.4620  -19.6530   20.1530 C   0  0  0  0  0  0  0  0  0  0  0  0
  -29.8450  -17.3640   20.2700 C   0  0  0  0  0  0  0  0  0  0  0  0
  -29.6040  -18.5450   21.0370 O   0  0  0  0  0  0  0  0  0  0  0  0
  -30.6370  -14.9070   20.3240 C   0  0  0  0  0  0  0  0  0  0  0  0
  -30.4940  -12.5930   19.3580 C   0  0  0  0  0  2  0  0  0  0  0  0
  -29.5700  -12.6660   18.1190 C   0  0  0  0  0  2  0  0  0  0  0  0
  -28.0940  -12.4790   18.5260 C   0  0  0  0  0  2  0  0  0  0  0  0
  -27.7070  -13.3430   19.7580 C   0  0  0  0  0  3  0  0  0  0  0  0
  -28.7610  -13.2650   20.8880 C   0  0  0  0  0  2  0  0  0  0  0  0
  -30.0550  -13.6480   20.3100 N   0  0  0  0  0  0  0  0  0  0  0  0
  -31.7920  -15.0260   19.8940 O   0  0  0  0  0  0  0  0  0  0  0  0
  -29.8920  -16.0210   20.7330 N   0  0  0  0  0  0  0  0  0  0  0  0
  -29.1340  -15.7800   21.3520 H   0  0  0  0  0  0  0  0  0  0  0  0
  -25.3180  -13.9150   20.4840 C   0  0  0  0  0  0  0  0  0  0  0  0
  -24.2540  -13.1390   20.8550 C   0  0  0  0  0  0  0  0  0  0  0  0
  -24.7200  -11.7900   20.8180 C   0  0  0  0  0  0  0  0  0  0  0  0
  -26.3640  -13.0400   20.2410 N   0  0  0  0  0  0  0  0  0  0  0  0
  -26.0100  -11.7560   20.5020 N   0  0  0  0  0  0  0  0  0  0  0  0
  -23.9940  -10.5270   21.0100 C   0  0  0  0  0  0  0  0  0  0  0  0
  -24.4240   -9.5610   21.9500 C   0  0  0  0  0  3  0  0  0  0  0  0
  -23.7030   -8.3610   22.1250 C   0  0  0  0  0  3  0  0  0  0  0  0
  -22.5370   -8.1180   21.3630 C   0  0  0  0  0  0  0  0  0  0  0  0
  -22.1220   -9.0700   20.4160 C   0  0  0  0  0  3  0  0  0  0  0  0
  -22.8450  -10.2630   20.2380 C   0  0  0  0  0  3  0  0  0  0  0  0
  -21.7820   -6.9720   21.4540 O   0  0  0  0  0  0  0  0  0  0  0  0
  -21.7170   -6.2400   22.6110 C   0  0  0  0  0  0  0  0  0  0  0  0
  -21.2600   -6.8010   23.8250 C   0  0  0  0  0  3  0  0  0  0  0  0
  -21.1470   -5.9930   24.9750 C   0  0  0  0  0  3  0  0  0  0  0  0
  -21.4790   -4.6260   24.9110 C   0  0  0  0  0  0  0  0  0  0  0  0
  -21.9280   -4.0650   23.7030 C   0  0  0  0  0  3  0  0  0  0  0  0
  -22.0450   -4.8700   22.5570 C   0  0  0  0  0  0  0  0  0  0  0  0
  -22.4610   -4.3190   21.3910 F   0  0  0  0  0  0  0  0  0  0  0  0
  -21.3580   -3.8500   26.0130 F   0  0  0  0  0  0  0  0  0  0  0  0
  -22.8590  -13.6150   21.1340 C   0  0  0  0  0  0  0  0  0  0  0  0
  -22.1260  -12.9180   21.9970 N   0  0  0  0  0  0  0  0  0  0  0  0
  -22.4240  -14.6470   20.6210 O   0  0  0  0  0  0  0  0  0  0  0  0
  -22.4800  -12.0840   22.4420 H   0  0  0  0  0  0  0  0  0  0  0  0
  -21.1930  -13.2280   22.2230 H   0  0  0  0  0  0  0  0  0  0  0  0
  -25.4740  -15.2870   20.3140 N   0  0  0  0  0  0  0  0  0  0  0  0
  -24.7090  -15.9380   20.4480 H   0  0  0  0  0  0  0  0  0  0  0  0
  -26.3030  -15.7280   19.9340 H   0  0  0  0  0  0  0  0  0  0  0  0
  -28.1890  -24.9030   19.9170 C   0  0  0  0  0  2  0  0  0  0  0  0
  -28.3230  -26.3790   20.2770 O   0  0  0  0  0  0  0  0  0  0  0  0
  -24.6060  -31.9130   23.2180 C   0  0  0  0  0  0  0  0  0  0  0  0
  -27.2190  -27.2830   20.1760 C   0  0  0  0  0  0  0  0  0  0  0  0
  -23.3990  -30.5040   21.5890 C   0  0  0  0  0  3  0  0  0  0  0  0
  -24.8480  -28.9450   20.1500 C   0  0  0  0  0  0  0  0  0  0  0  0
  -25.9390  -30.8120   21.3880 C   0  0  0  0  0  2  0  0  0  0  0  0
  -26.0210  -29.4220   20.7520 C   0  0  0  0  0  0  0  0  0  0  0  0
  -27.2030  -28.6040   20.7550 C   0  0  0  0  0  3  0  0  0  0  0  0
  -26.0240  -26.8930   19.5220 C   0  0  0  0  0  3  0  0  0  0  0  0
  -24.8620  -27.6910   19.5180 C   0  0  0  0  0  3  0  0  0  0  0  0
  -23.6030  -29.8110   20.2140 C   0  0  0  0  0  2  0  0  0  0  0  0
  -24.6700  -31.0970   22.1220 N   0  0  0  0  0  0  0  0  0  0  0  0
  -23.5230  -32.1890   23.7580 O   0  0  0  0  0  0  0  0  0  0  0  0
  -22.7400  -29.4960   22.5630 C   0  0  0  0  0  0  0  0  0  0  0  0
  -21.4140  -29.3140   22.4400 N   0  0  0  0  0  0  0  0  0  0  0  0
  -23.4210  -28.8830   23.3880 O   0  0  0  0  0  0  0  0  0  0  0  0
  -20.9250  -29.8580   21.7420 H   0  0  0  0  0  0  0  0  0  0  0  0
  -18.0390  -28.1030   22.9550 C   0  0  0  0  0  0  0  0  0  0  0  0
  -20.5970  -28.3760   23.2150 C   0  0  0  0  0  3  0  0  0  0  0  0
  -20.7040  -26.9420   22.6450 C   0  0  0  0  0  2  0  0  0  0  0  0
  -19.6020  -26.6110   21.6360 C   0  0  0  0  0  2  0  0  0  0  0  0
  -18.2210  -26.7530   22.2830 C   0  0  0  0  0  2  0  0  0  0  0  0
  -19.1550  -28.8740   23.3750 C   0  0  0  0  0  0  0  0  0  0  0  0
  -18.9310  -30.1360   23.9640 C   0  0  0  0  0  3  0  0  0  0  0  0
  -17.6240  -30.6280   24.1400 C   0  0  0  0  0  3  0  0  0  0  0  0
  -16.5220  -29.8570   23.7320 C   0  0  0  0  0  3  0  0  0  0  0  0
  -16.7300  -28.5970   23.1440 C   0  0  0  0  0  3  0  0  0  0  0  0
  -25.8860  -32.5530   23.8330 C   0  0  0  0  0  3  0  0  0  0  0  0
  -25.5670  -33.9470   24.1730 N   0  0  0  0  0  0  0  0  0  0  0  0
  -25.8880  -35.0110   23.4240 C   0  0  0  0  0  0  0  0  0  0  0  0
  -26.5520  -34.9190   22.3880 O   0  0  0  0  0  0  0  0  0  0  0  0
  -24.9770  -34.0890   24.9790 H   0  0  0  0  0  0  0  0  0  0  0  0
  -24.1530  -36.8040   23.0860 C   0  0  0  0  0  1  0  0  0  0  0  0
  -25.3950  -36.3930   23.8940 C   0  0  0  0  0  3  0  0  0  0  0  0
  -27.5260  -37.2810   24.7300 C   0  0  0  0  0  1  0  0  0  0  0  0
  -26.4220  -37.4520   23.7880 N   0  0  0  0  0  0  0  0  0  0  0  0
  -26.0140  -38.3700   23.9360 H   0  0  0  0  0  0  0  0  0  0  0  0
  -26.4100  -31.7840   25.1060 C   0  0  1  0  0  0  0  0  0  0  0  0
  -25.3260  -31.5360   26.1810 C   0  0  0  0  0  1  0  0  0  0  0  0
  -26.9990  -30.4120   24.7050 C   0  0  0  0  0  1  0  0  0  0  0  0
  -27.5600  -32.5830   25.7620 C   0  0  0  0  0  1  0  0  0  0  0  0
  1  2  1  0
  3  4  1  0
  3  6  1  0
  4  5  1  1
  4  1  1  0
  6  2  1  0
  7  8  1  0
  7  9  2  0
  8 10  2  0
  9  6  1  0
  9 11  1  0
 10 20  1  0
 10 11  1  0
 12 20  1  0
 13 18  1  0
 14 15  1  0
 14 13  1  0
 16 15  1  0
 16 25  1  0
 16 17  1  0
 18 12  1  0
 18 17  1  0
 19 12  2  0
 20 21  1  0
 22 23  2  0
 23 42  1  0
 24 23  1  0
 24 27  1  0
 25 22  1  0
 25 26  1  0
 26 24  2  0
 27 28  1  0
 28 29  2  0
 30 33  1  0
 30 29  1  0
 31 30  2  0
 32 31  1  0
 32 27  2  0
 33 34  1  0
 34 35  1  0
 35 36  2  0
 37 36  1  0
 37 41  1  0
 38 37  2  0
 39 34  2  0
 39 38  1  0
 40 39  1  0
 42 43  1  0
 43 46  1  0
 43 45  1  0
 44 42  2  0
 47 48  1  0
 47 22  1  0
 49 47  1  0
 50 51  1  0
 50  4  1  0
 52 63  2  0
 53 51  1  0
 53 58  1  0
 54 62  1  0
 54 64  1  0
 55 61  1  0
 55 57  1  0
 56 62  1  0
 57 58  2  0
 57 56  1  0
 59 53  2  0
 60 59  1  0
 60 55  2  0
 61 54  1  0
 62 52  1  0
 64 66  2  0
 65 64  1  0
 67 65  1  0
 68 77  2  0
 68 73  1  0
 69 65  1  0
 69 73  1  0
 70 69  1  0
 71 72  1  0
 71 70  1  0
 72 68  1  0
 73 74  2  0
 74 75  1  0
 76 75  2  0
 77 76  1  0
 78 52  1  0
 78 79  1  0
 78 88  1  0
 79 82  1  0
 80 84  1  0
 80 79  1  0
 81 80  2  0
 84 83  1  0
 86 84  1  0
 86 87  1  0
 86 85  1  0
 88 91  1  1
 88 89  1  0
 90 88  1  0
M  ISO  4  12 100  20 100  50 101  51 101
M  END
>  <TORSDO>  (91) 
F 18

>  <SCORE>  (91) 
-14.844

>  <name>  (91) 
90

>  <ligand_id>  (91) 
90

>  <original_smiles>  (91) 
[H]c1c(N([H])C(=O)N2C([H])([H])C([H])([H])C([H])([H])C([H])(n3nc(-c4c([H])c([H])c(Oc5c([H])c([H])c(F)c([H])c5F)c([H])c4[H])c(C(=O)N([H])[H])c3N([H])[H])C2([H])[H])oc(N2C([H])([H])C([H])([H])C(C([H])([H])[H])(C([H])([H])Oc3c([H])c([H])c4c(c3[H])C([H])([H])N(C(=O)C([H])(N([H])C(=O)C([H])(N([H])C([H])([H])[H])C([H])([H])[H])C(C([H])([H])[H])(C([H])([H])[H])C([H])([H])[H])C([H])(C(=O)N([H])C3([H])c5c([H])c([H])c([H])c([H])c5C([H])([H])C([H])([H])C3([H])[H])C4([H])[H])C2([H])[H])c1[H]

>  <smiles>  (91) 
[H]c1c(N([H])C(=O)N2C([H])([H])C([H])([H])C([H])([H])C([H])(n3nc(-c4c([H])c([H])c(Oc5c([H])c([H])c(F)c([H])c5F)c([H])c4[H])c(C(=O)N([H])[H])c3N([H])[H])C2([H])[H])oc(N2C([H])([H])C([H])([H])C(C([H])([H])[H])(C([H])([H])Oc3c([H])c([H])c4c(c3[H])C([H])([H])N(C(=O)C([H])(N([H])C(=O)C([H])(N([H])C([H])([H])[H])C([H])([H])[H])C(C([H])([H])[H])(C([H])([H])[H])C([H])([H])[H])C([H])(C(=O)N([H])C3([H])c5c([H])c([H])c([H])c([H])c5C([H])([H])C([H])([H])C3([H])[H])C4([H])[H])C2([H])[H])c1[H]

$$$$
91:0:0
     RDKit          3D

 95104  0  0  1  0  0  0  0  0999 V2000
  -29.7670  -23.4820   21.3360 C   0  0  0  0  0  0  0  0  0  0  0  0
  -28.6960  -23.9440   20.6370 C   0  0  0  0  0  0  0  0  0  0  0  0
  -30.2960  -22.0350   21.2140 C   0  0  0  0  0  2  0  0  0  0  0  0
  -28.0010  -22.9920   19.6450 C   0  0  0  0  0  2  0  0  0  0  0  0
  -29.7170  -21.2010   20.0380 C   0  0  0  0  0  3  0  0  0  0  0  0
  -30.4820  -24.2930   22.4080 C   0  0  0  0  0  1  0  0  0  0  0  0
  -28.2820  -21.5360   19.8790 N   0  0  0  0  0  4  0  0  0  0  0  0
  -27.9130  -21.0110   19.1020 H   0  0  0  0  0  0  0  0  0  0  0  0
  -27.7910  -21.2360   20.7040 H   0  0  0  0  0  0  0  0  0  0  0  0
  -31.2780  -17.6860   19.6970 C   0  0  0  0  0  3  0  0  0  0  0  0
  -31.2150  -19.1150   19.5570 C   0  0  0  0  0  0  0  0  0  0  0  0
  -30.0680  -19.6860   20.0680 C   0  0  0  0  0  0  0  0  0  0  0  0
  -30.1950  -17.0880   20.3040 C   0  0  0  0  0  0  0  0  0  0  0  0
  -32.3210  -19.8910   18.8970 C   0  0  0  0  0  1  0  0  0  0  0  0
  -29.0710  -18.3890   20.7570 S   0  0  0  0  0  0  0  0  0  0  0  0
  -30.6550  -14.6450   20.1240 C   0  0  0  0  0  0  0  0  0  0  0  0
  -30.3330  -12.4510   19.0220 C   0  0  0  0  0  2  0  0  0  0  0  0
  -29.3490  -12.6320   17.8480 C   0  0  0  0  0  2  0  0  0  0  0  0
  -27.8950  -12.4710   18.3330 C   0  0  0  0  0  2  0  0  0  0  0  0
  -27.5940  -13.3030   19.6090 C   0  0  0  0  0  3  0  0  0  0  0  0
  -28.6980  -13.1280   20.6770 C   0  0  0  0  0  2  0  0  0  0  0  0
  -29.9870  -13.4530   20.0490 N   0  0  0  0  0  0  0  0  0  0  0  0
  -31.8040  -14.7510   19.6890 O   0  0  0  0  0  0  0  0  0  0  0  0
  -29.9410  -15.7420   20.5310 N   0  0  0  0  0  0  0  0  0  0  0  0
  -29.0400  -15.5290   20.9310 H   0  0  0  0  0  0  0  0  0  0  0  0
  -25.2270  -13.8810   20.4230 C   0  0  0  0  0  0  0  0  0  0  0  0
  -24.1780  -13.0980   20.8260 C   0  0  0  0  0  0  0  0  0  0  0  0
  -24.6460  -11.7490   20.7660 C   0  0  0  0  0  0  0  0  0  0  0  0
  -26.2660  -13.0080   20.1420 N   0  0  0  0  0  0  0  0  0  0  0  0
  -25.9250  -11.7210   20.4080 N   0  0  0  0  0  0  0  0  0  0  0  0
  -23.9340  -10.4810   20.9720 C   0  0  0  0  0  0  0  0  0  0  0  0
  -24.3910   -9.5190   21.8990 C   0  0  0  0  0  3  0  0  0  0  0  0
  -23.6790   -8.3160   22.0930 C   0  0  0  0  0  3  0  0  0  0  0  0
  -22.4950   -8.0660   21.3610 C   0  0  0  0  0  0  0  0  0  0  0  0
  -22.0560   -9.0180   20.4220 C   0  0  0  0  0  3  0  0  0  0  0  0
  -22.7690  -10.2120   20.2250 C   0  0  0  0  0  3  0  0  0  0  0  0
  -21.7510   -6.9150   21.4640 O   0  0  0  0  0  0  0  0  0  0  0  0
  -21.7140   -6.1850   22.6240 C   0  0  0  0  0  0  0  0  0  0  0  0
  -21.2740   -6.7430   23.8440 C   0  0  0  0  0  3  0  0  0  0  0  0
  -21.1850   -5.9370   24.9970 C   0  0  0  0  0  3  0  0  0  0  0  0
  -21.5290   -4.5740   24.9310 C   0  0  0  0  0  0  0  0  0  0  0  0
  -21.9640   -4.0150   23.7170 C   0  0  0  0  0  3  0  0  0  0  0  0
  -22.0530   -4.8170   22.5670 C   0  0  0  0  0  0  0  0  0  0  0  0
  -22.4530   -4.2690   21.3930 F   0  0  0  0  0  0  0  0  0  0  0  0
  -21.4370   -3.7970   26.0360 F   0  0  0  0  0  0  0  0  0  0  0  0
  -22.7890  -13.5640   21.1540 C   0  0  0  0  0  0  0  0  0  0  0  0
  -22.0960  -12.8550   22.0370 N   0  0  0  0  0  0  0  0  0  0  0  0
  -22.3280  -14.5930   20.6610 O   0  0  0  0  0  0  0  0  0  0  0  0
  -22.4810  -12.0220   22.4570 H   0  0  0  0  0  0  0  0  0  0  0  0
  -21.1650  -13.1490   22.2970 H   0  0  0  0  0  0  0  0  0  0  0  0
  -25.3770  -15.2530   20.2500 N   0  0  0  0  0  0  0  0  0  0  0  0
  -24.6080  -15.9020   20.3870 H   0  0  0  0  0  0  0  0  0  0  0  0
  -26.2050  -15.6980   19.8770 H   0  0  0  0  0  0  0  0  0  0  0  0
  -27.9630  -25.2970   20.9470 C   0  0  0  0  0  2  0  0  0  0  0  0
  -28.2600  -26.5130   20.1770 O   0  0  0  0  0  0  0  0  0  0  0  0
  -24.5670  -31.8790   23.2230 C   0  0  0  0  0  0  0  0  0  0  0  0
  -27.1750  -27.3860   20.1210 C   0  0  0  0  0  0  0  0  0  0  0  0
  -23.3570  -30.4940   21.5720 C   0  0  0  0  0  3  0  0  0  0  0  0
  -24.8070  -28.9660   20.1260 C   0  0  0  0  0  0  0  0  0  0  0  0
  -25.8930  -30.8290   21.3820 C   0  0  0  0  0  2  0  0  0  0  0  0
  -25.9740  -29.4590   20.7250 C   0  0  0  0  0  0  0  0  0  0  0  0
  -27.1650  -28.6790   20.7180 C   0  0  0  0  0  3  0  0  0  0  0  0
  -25.9970  -26.9420   19.4860 C   0  0  0  0  0  3  0  0  0  0  0  0
  -24.8170  -27.7090   19.4980 C   0  0  0  0  0  3  0  0  0  0  0  0
  -23.5670  -29.8310   20.1860 C   0  0  0  0  0  2  0  0  0  0  0  0
  -24.6240  -31.0830   22.1160 N   0  0  0  0  0  0  0  0  0  0  0  0
  -23.4850  -32.1510   23.7640 O   0  0  0  0  0  0  0  0  0  0  0  0
  -22.7010  -29.4660   22.5250 C   0  0  0  0  0  0  0  0  0  0  0  0
  -21.3750  -29.2940   22.4040 N   0  0  0  0  0  0  0  0  0  0  0  0
  -23.3840  -28.8290   23.3310 O   0  0  0  0  0  0  0  0  0  0  0  0
  -20.8830  -29.8590   21.7270 H   0  0  0  0  0  0  0  0  0  0  0  0
  -17.9940  -28.1150   22.9150 C   0  0  0  0  0  0  0  0  0  0  0  0
  -20.5560  -28.3520   23.1700 C   0  0  0  0  0  3  0  0  0  0  0  0
  -20.6440  -26.9280   22.5770 C   0  0  0  0  0  2  0  0  0  0  0  0
  -19.5330  -26.6250   21.5670 C   0  0  0  0  0  2  0  0  0  0  0  0
  -18.1570  -26.7720   22.2230 C   0  0  0  0  0  2  0  0  0  0  0  0
  -19.1220  -28.8630   23.3460 C   0  0  0  0  0  0  0  0  0  0  0  0
  -18.9150  -30.1200   23.9540 C   0  0  0  0  0  3  0  0  0  0  0  0
  -17.6150  -30.6290   24.1350 C   0  0  0  0  0  3  0  0  0  0  0  0
  -16.5030  -29.8760   23.7220 C   0  0  0  0  0  3  0  0  0  0  0  0
  -16.6930  -28.6210   23.1170 C   0  0  0  0  0  3  0  0  0  0  0  0
  -25.8520  -32.5050   23.8460 C   0  0  0  0  0  3  0  0  0  0  0  0
  -25.5510  -33.9050   24.1730 N   0  0  0  0  0  0  0  0  0  0  0  0
  -25.8930  -34.9550   23.4130 C   0  0  0  0  0  0  0  0  0  0  0  0
  -26.5680  -34.8450   22.3860 O   0  0  0  0  0  0  0  0  0  0  0  0
  -24.9540  -34.0650   24.9710 H   0  0  0  0  0  0  0  0  0  0  0  0
  -24.1850  -36.7620   23.0390 C   0  0  0  0  0  1  0  0  0  0  0  0
  -25.4110  -36.3470   23.8670 C   0  0  0  0  0  3  0  0  0  0  0  0
  -27.5450  -37.2080   24.7220 C   0  0  0  0  0  1  0  0  0  0  0  0
  -26.4500  -37.3930   23.7730 N   0  0  0  0  0  0  0  0  0  0  0  0
  -26.0480  -38.3140   23.9320 H   0  0  0  0  0  0  0  0  0  0  0  0
  -26.3620  -31.7320   25.1250 C   0  0  1  0  0  0  0  0  0  0  0  0
  -25.2640  -31.5030   26.1910 C   0  0  0  0  0  1  0  0  0  0  0  0
  -26.9380  -30.3510   24.7370 C   0  0  0  0  0  1  0  0  0  0  0  0
  -27.5150  -32.5210   25.7880 C   0  0  0  0  0  1  0  0  0  0  0  0
  1  6  1  0
  2 54  1  0
  2  1  2  0
  3  1  1  0
  4  7  1  0
  4  2  1  0
  5 12  1  0
  5  3  1  0
  7  5  1  0
  7  9  1  0
  8  7  1  0
 10 13  2  0
 11 10  1  0
 11 12  2  0
 12 15  1  0
 13 24  1  0
 13 15  1  0
 14 11  1  0
 16 24  1  0
 17 22  1  0
 18 19  1  0
 18 17  1  0
 20 19  1  0
 20 29  1  0
 20 21  1  0
 22 16  1  0
 22 21  1  0
 23 16  2  0
 24 25  1  0
 26 27  2  0
 27 46  1  0
 28 27  1  0
 28 31  1  0
 29 30  1  0
 29 26  1  0
 30 28  2  0
 31 32  1  0
 32 33  2  0
 34 37  1  0
 34 33  1  0
 35 34  2  0
 36 35  1  0
 36 31  2  0
 37 38  1  0
 38 39  1  0
 39 40  2  0
 41 40  1  0
 41 45  1  0
 42 41  2  0
 43 38  2  0
 43 42  1  0
 44 43  1  0
 46 47  1  0
 47 50  1  0
 47 49  1  0
 48 46  2  0
 51 52  1  0
 51 26  1  0
 53 51  1  0
 55 54  1  0
 56 67  2  0
 57 55  1  0
 57 62  1  0
 58 66  1  0
 58 68  1  0
 59 65  1  0
 59 61  1  0
 60 66  1  0
 61 60  1  0
 62 61  2  0
 63 64  1  0
 63 57  2  0
 64 59  2  0
 65 58  1  0
 66 56  1  0
 68 70  2  0
 69 68  1  0
 71 69  1  0
 72 81  2  0
 72 77  1  0
 73 69  1  0
 73 77  1  0
 74 73  1  0
 75 76  1  0
 75 74  1  0
 76 72  1  0
 77 78  2  0
 78 79  1  0
 80 79  2  0
 81 80  1  0
 82 56  1  0
 82 83  1  0
 82 92  1  0
 83 86  1  0
 84 88  1  0
 84 83  1  0
 85 84  2  0
 88 87  1  0
 90 88  1  0
 90 91  1  0
 90 89  1  0
 92 95  1  1
 92 93  1  0
 94 92  1  0
M  ISO  4  16 100  24 100  54 101  55 101
M  END
>  <TORSDO>  (92) 
F 18

>  <SCORE>  (92) 
-14.286

>  <name>  (92) 
91

>  <ligand_id>  (92) 
91

>  <original_smiles>  (92) 
[H]c1c([H])c([H])c2c(c1[H])C([H])([H])C([H])([H])C([H])([H])C2([H])N([H])C(=O)C1([H])N(C(=O)C([H])(N([H])C(=O)C([H])(N([H])C([H])([H])[H])C([H])([H])[H])C(C([H])([H])[H])(C([H])([H])[H])C([H])([H])[H])C([H])([H])c2c([H])c(OC([H])([H])C3=C(C([H])([H])[H])C([H])([H])C([H])(c4sc(N([H])C(=O)N5C([H])([H])C([H])([H])C([H])([H])C([H])(n6nc(-c7c([H])c([H])c(Oc8c([H])c([H])c(F)c([H])c8F)c([H])c7[H])c(C(=O)N([H])[H])c6N([H])[H])C5([H])[H])c([H])c4C([H])([H])[H])[N+]([H])([H])C3([H])[H])c([H])c([H])c2C1([H])[H]

>  <smiles>  (92) 
[H]c1c([H])c([H])c2c(c1[H])C([H])([H])C([H])([H])C([H])([H])C2([H])N([H])C(=O)C1([H])N(C(=O)C([H])(N([H])C(=O)C([H])(N([H])C([H])([H])[H])C([H])([H])[H])C(C([H])([H])[H])(C([H])([H])[H])C([H])([H])[H])C([H])([H])c2c([H])c(OC([H])([H])C3=C(C([H])([H])[H])C([H])([H])C([H])(c4sc(N([H])C(=O)N5C([H])([H])C([H])([H])C([H])([H])C([H])(n6nc(-c7c([H])c([H])c(Oc8c([H])c([H])c(F)c([H])c8F)c([H])c7[H])c(C(=O)N([H])[H])c6N([H])[H])C5([H])[H])c([H])c4C([H])([H])[H])[N+]([H])([H])C3([H])[H])c([H])c([H])c2C1([H])[H]

$$$$
92:0:0
     RDKit          3D

 92102  0  0  1  0  0  0  0  0999 V2000
  -26.6630  -18.4730   18.0610 C   0  0  0  0  0  2  0  0  0  0  0  0
  -26.1270  -19.5250   19.0210 C   0  0  0  0  0  2  0  0  0  0  0  0
  -27.9430  -17.9040   18.6570 C   0  0  0  0  0  2  0  0  0  0  0  0
  -27.0670  -20.7240   19.0110 C   0  0  0  0  0  2  0  0  0  0  0  0
  -28.9970  -22.1000   21.1870 C   0  0  0  0  0  2  0  0  0  0  0  0
  -29.9170  -19.3040   21.1370 C   0  0  0  0  0  2  0  0  0  0  0  0
  -29.2270  -21.8810   18.8720 C   0  0  0  0  0  2  0  0  0  0  0  0
  -29.0880  -18.9200   18.9280 C   0  0  0  0  0  3  0  0  0  0  0  0
  -28.8470  -20.5040   20.8300 C   0  0  0  0  0  3  0  0  0  0  0  0
  -29.0930  -23.1200   19.9320 C   0  0  0  0  0  3  0  0  0  0  0  0
  -30.0580  -18.1560   19.9950 C   0  0  0  0  0  3  0  0  0  0  0  0
  -28.5720  -20.4590   19.3460 C   0  0  2  0  0  0  0  0  0  0  0  0
  -30.7340  -15.3410   20.2090 C   0  0  0  0  0  0  0  0  0  0  0  0
  -30.7240  -12.8950   19.4300 C   0  0  0  0  0  2  0  0  0  0  0  0
  -29.8000  -12.6950   18.2030 C   0  0  0  0  0  2  0  0  0  0  0  0
  -28.3470  -12.4480   18.6490 C   0  0  0  0  0  2  0  0  0  0  0  0
  -27.8990  -13.4330   19.7600 C   0  0  0  0  0  3  0  0  0  0  0  0
  -28.9500  -13.5830   20.8800 C   0  0  0  0  0  2  0  0  0  0  0  0
  -30.1910  -14.0410   20.2400 N   0  0  0  0  0  0  0  0  0  0  0  0
  -31.9370  -15.3940   19.9240 O   0  0  0  0  0  0  0  0  0  0  0  0
  -29.9230  -16.5470   20.3010 N   0  0  0  0  0  0  0  0  0  0  0  0
  -28.9780  -16.3020   20.5550 H   0  0  0  0  0  0  0  0  0  0  0  0
  -25.5390  -13.9900   20.5590 C   0  0  0  0  0  0  0  0  0  0  0  0
  -24.4790  -13.2100   20.9290 C   0  0  0  0  0  0  0  0  0  0  0  0
  -24.9390  -11.8580   20.8560 C   0  0  0  0  0  0  0  0  0  0  0  0
  -26.5750  -13.1160   20.2770 N   0  0  0  0  0  0  0  0  0  0  0  0
  -26.2260  -11.8260   20.5230 N   0  0  0  0  0  0  0  0  0  0  0  0
  -24.2080  -10.5960   21.0240 C   0  0  0  0  0  0  0  0  0  0  0  0
  -24.6170   -9.6240   21.9650 C   0  0  0  0  0  3  0  0  0  0  0  0
  -23.8850   -8.4270   22.1230 C   0  0  0  0  0  3  0  0  0  0  0  0
  -22.7280   -8.1940   21.3410 C   0  0  0  0  0  0  0  0  0  0  0  0
  -22.3390   -9.1540   20.3900 C   0  0  0  0  0  3  0  0  0  0  0  0
  -23.0720  -10.3410   20.2300 C   0  0  0  0  0  3  0  0  0  0  0  0
  -21.9700   -7.0500   21.4070 O   0  0  0  0  0  0  0  0  0  0  0  0
  -21.8330   -6.3450   22.5760 C   0  0  0  0  0  0  0  0  0  0  0  0
  -21.2990   -6.9330   23.7430 C   0  0  0  0  0  3  0  0  0  0  0  0
  -21.1120   -6.1530   24.9020 C   0  0  0  0  0  3  0  0  0  0  0  0
  -21.4480   -4.7860   24.8930 C   0  0  0  0  0  0  0  0  0  0  0  0
  -21.9730   -4.1970   23.7290 C   0  0  0  0  0  3  0  0  0  0  0  0
  -22.1620   -4.9750   22.5730 C   0  0  0  0  0  0  0  0  0  0  0  0
  -22.6480   -4.3970   21.4490 F   0  0  0  0  0  0  0  0  0  0  0  0
  -21.2600   -4.0350   26.0040 F   0  0  0  0  0  0  0  0  0  0  0  0
  -23.0890  -13.6870   21.2320 C   0  0  0  0  0  0  0  0  0  0  0  0
  -22.3750  -12.9800   22.0990 N   0  0  0  0  0  0  0  0  0  0  0  0
  -22.6470  -14.7220   20.7330 O   0  0  0  0  0  0  0  0  0  0  0  0
  -22.7460  -12.1420   22.5220 H   0  0  0  0  0  0  0  0  0  0  0  0
  -21.4420  -13.2810   22.3450 H   0  0  0  0  0  0  0  0  0  0  0  0
  -25.7020  -15.3640   20.4080 N   0  0  0  0  0  0  0  0  0  0  0  0
  -24.9260  -16.0060   20.5280 H   0  0  0  0  0  0  0  0  0  0  0  0
  -26.5140  -15.7990   19.9950 H   0  0  0  0  0  0  0  0  0  0  0  0
  -28.1200  -24.5740   19.7190 C   0  0  0  0  0  2  0  0  0  0  0  0
  -28.3700  -26.1520   19.9350 O   0  0  0  0  0  0  0  0  0  0  0  0
  -24.7190  -31.8410   23.1280 C   0  0  0  0  0  0  0  0  0  0  0  0
  -27.3250  -27.1890   19.9110 C   0  0  0  0  0  0  0  0  0  0  0  0
  -23.5270  -30.4860   21.4520 C   0  0  0  0  0  3  0  0  0  0  0  0
  -24.9860  -28.9720   19.9560 C   0  0  0  0  0  0  0  0  0  0  0  0
  -26.0820  -30.7690   21.2800 C   0  0  0  0  0  2  0  0  0  0  0  0
  -26.1690  -29.3930   20.5740 C   0  0  0  0  0  0  0  0  0  0  0  0
  -27.3360  -28.5210   20.5290 C   0  0  0  0  0  3  0  0  0  0  0  0
  -26.1100  -26.8990   19.2520 C   0  0  0  0  0  3  0  0  0  0  0  0
  -24.9750  -27.7440   19.2770 C   0  0  0  0  0  3  0  0  0  0  0  0
  -23.7490  -29.8600   20.0490 C   0  0  0  0  0  2  0  0  0  0  0  0
  -24.7970  -31.0550   22.0070 N   0  0  0  0  0  0  0  0  0  0  0  0
  -23.6330  -32.0920   23.6720 O   0  0  0  0  0  0  0  0  0  0  0  0
  -22.8670  -29.4400   22.3870 C   0  0  0  0  0  0  0  0  0  0  0  0
  -21.5360  -29.2690   22.2820 N   0  0  0  0  0  0  0  0  0  0  0  0
  -23.5560  -28.7850   23.1730 O   0  0  0  0  0  0  0  0  0  0  0  0
  -21.0330  -29.8490   21.6240 H   0  0  0  0  0  0  0  0  0  0  0  0
  -18.1690  -28.0370   22.8220 C   0  0  0  0  0  0  0  0  0  0  0  0
  -20.7350  -28.2950   23.0300 C   0  0  0  0  0  3  0  0  0  0  0  0
  -20.8220  -26.8910   22.3850 C   0  0  0  0  0  2  0  0  0  0  0  0
  -19.6930  -26.6150   21.3870 C   0  0  0  0  0  2  0  0  0  0  0  0
  -18.3290  -26.7230   22.0760 C   0  0  0  0  0  2  0  0  0  0  0  0
  -19.2980  -28.7810   23.2570 C   0  0  0  0  0  0  0  0  0  0  0  0
  -19.0920  -30.0110   23.9210 C   0  0  0  0  0  3  0  0  0  0  0  0
  -17.7910  -30.4960   24.1510 C   0  0  0  0  0  3  0  0  0  0  0  0
  -16.6780  -29.7470   23.7320 C   0  0  0  0  0  3  0  0  0  0  0  0
  -16.8670  -28.5190   23.0730 C   0  0  0  0  0  3  0  0  0  0  0  0
  -25.9890  -32.4790   23.7680 C   0  0  0  0  0  3  0  0  0  0  0  0
  -25.6590  -33.8650   24.1410 N   0  0  0  0  0  0  0  0  0  0  0  0
  -25.9540  -34.9480   23.4100 C   0  0  0  0  0  0  0  0  0  0  0  0
  -26.5980  -34.8870   22.3590 O   0  0  0  0  0  0  0  0  0  0  0  0
  -25.0840  -33.9840   24.9620 H   0  0  0  0  0  0  0  0  0  0  0  0
  -24.1800  -36.7190   23.1730 C   0  0  0  0  0  1  0  0  0  0  0  0
  -25.4600  -36.3170   23.9240 C   0  0  0  0  0  3  0  0  0  0  0  0
  -27.6060  -37.2270   24.6970 C   0  0  0  0  0  1  0  0  0  0  0  0
  -26.4670  -37.3920   23.7970 N   0  0  0  0  0  0  0  0  0  0  0  0
  -26.0490  -38.3010   23.9790 H   0  0  0  0  0  0  0  0  0  0  0  0
  -26.5120  -31.6850   25.0280 C   0  0  1  0  0  0  0  0  0  0  0  0
  -25.4230  -31.4180   26.0930 C   0  0  0  0  0  1  0  0  0  0  0  0
  -27.1050  -30.3190   24.6120 C   0  0  0  0  0  1  0  0  0  0  0  0
  -27.6600  -32.4720   25.7040 C   0  0  0  0  0  1  0  0  0  0  0  0
  1  3  1  0
  1  2  1  0
  4  2  1  0
 12  4  1  1
  7 10  1  0
  8  3  1  0
  8 12  1  0
  8 11  1  0
  9  6  1  0
  9  5  1  0
 10 51  1  0
 10  5  1  0
 11 21  1  0
 11  6  1  0
 12  7  1  0
 12  9  1  0
 13 19  1  0
 13 21  1  0
 14 19  1  0
 15 16  1  0
 15 14  1  0
 17 16  1  0
 17 26  1  0
 17 18  1  0
 19 18  1  0
 20 13  2  0
 21 22  1  0
 23 24  2  0
 24 43  1  0
 25 24  1  0
 25 28  1  0
 26 27  1  0
 26 23  1  0
 27 25  2  0
 28 29  1  0
 29 30  2  0
 31 34  1  0
 31 30  1  0
 32 31  2  0
 33 32  1  0
 33 28  2  0
 34 35  1  0
 35 36  1  0
 36 37  2  0
 38 37  1  0
 38 42  1  0
 39 38  2  0
 40 35  2  0
 40 39  1  0
 41 40  1  0
 43 44  1  0
 44 47  1  0
 44 46  1  0
 45 43  2  0
 48 49  1  0
 48 23  1  0
 50 48  1  0
 51 52  1  0
 53 64  2  0
 54 52  1  0
 54 59  1  0
 55 63  1  0
 55 65  1  0
 56 62  1  0
 56 58  1  0
 57 63  1  0
 58 57  1  0
 59 58  2  0
 60 61  1  0
 60 54  2  0
 61 56  2  0
 62 55  1  0
 63 53  1  0
 65 67  2  0
 66 65  1  0
 68 66  1  0
 69 78  2  0
 69 74  1  0
 70 66  1  0
 70 74  1  0
 71 70  1  0
 72 73  1  0
 72 71  1  0
 73 69  1  0
 74 75  2  0
 75 76  1  0
 77 76  2  0
 78 77  1  0
 79 53  1  0
 79 80  1  0
 79 89  1  0
 80 83  1  0
 81 85  1  0
 81 80  1  0
 82 81  2  0
 85 84  1  0
 87 85  1  0
 87 88  1  0
 87 86  1  0
 89 92  1  1
 89 90  1  0
 91 89  1  0
M  ISO  4  13 100  21 100  51 101  52 101
M  END
>  <TORSDO>  (93) 
F 17

>  <SCORE>  (93) 
-14.417

>  <name>  (93) 
92

>  <ligand_id>  (93) 
92

>  <original_smiles>  (93) 
[H]c1c([H])c([H])c2c(c1[H])C([H])([H])C([H])([H])C([H])([H])C2([H])N([H])C(=O)C1([H])N(C(=O)C([H])(N([H])C(=O)C([H])(N([H])C([H])([H])[H])C([H])([H])[H])C(C([H])([H])[H])(C([H])([H])[H])C([H])([H])[H])C([H])([H])c2c([H])c(OC([H])([H])C3([H])C([H])([H])C4([H])C([H])([H])C([H])(N([H])C(=O)N5C([H])([H])C([H])([H])C([H])([H])C([H])(n6nc(-c7c([H])c([H])c(Oc8c([H])c([H])c(F)c([H])c8F)c([H])c7[H])c(C(=O)N([H])[H])c6N([H])[H])C5([H])[H])C5([H])C([H])([H])C([H])([H])C([H])([H])C([H])([H])C45C3([H])[H])c([H])c([H])c2C1([H])[H]

>  <smiles>  (93) 
[H]c1c([H])c([H])c2c(c1[H])C([H])([H])C([H])([H])C([H])([H])C2([H])N([H])C(=O)C1([H])N(C(=O)C([H])(N([H])C(=O)C([H])(N([H])C([H])([H])[H])C([H])([H])[H])C(C([H])([H])[H])(C([H])([H])[H])C([H])([H])[H])C([H])([H])c2c([H])c(OC([H])([H])C3([H])C([H])([H])C4([H])C([H])([H])C([H])(N([H])C(=O)N5C([H])([H])C([H])([H])C([H])([H])C([H])(n6nc(-c7c([H])c([H])c(Oc8c([H])c([H])c(F)c([H])c8F)c([H])c7[H])c(C(=O)N([H])[H])c6N([H])[H])C5([H])[H])C5([H])C([H])([H])C([H])([H])C([H])([H])C([H])([H])C45C3([H])[H])c([H])c([H])c2C1([H])[H]

$$$$
