0:0:0
     RDKit          3D

 94103  0  0  1  0  0  0  0  0999 V2000
  -30.9050  -20.9840   20.2060 C   0  0  0  0  0  3  0  0  0  0  0  0
  -29.9400  -19.7270   22.0390 C   0  0  0  0  0  3  0  0  0  0  0  0
  -30.7930  -22.1730   20.9470 C   0  0  0  0  0  3  0  0  0  0  0  0
  -29.7970  -20.9270   22.7700 C   0  0  0  0  0  3  0  0  0  0  0  0
  -30.5120  -19.7340   20.7460 C   0  0  0  0  0  0  0  0  0  0  0  0
  -30.2220  -22.1640   22.2360 C   0  0  0  0  0  0  0  0  0  0  0  0
  -31.2990  -14.8080   20.1670 C   0  0  0  0  0  0  0  0  0  0  0  0
  -30.9640  -12.5760   19.2010 C   0  0  0  0  0  2  0  0  0  0  0  0
  -30.0070  -12.6460   17.9910 C   0  0  0  0  0  2  0  0  0  0  0  0
  -28.5310  -12.6240   18.4310 C   0  0  0  0  0  2  0  0  0  0  0  0
  -28.2100  -13.5530   19.6330 C   0  0  0  0  0  3  0  0  0  0  0  0
  -29.2770  -13.4270   20.7440 C   0  0  0  0  0  2  0  0  0  0  0  0
  -30.5910  -13.6490   20.1310 N   0  0  0  0  0  0  0  0  0  0  0  0
  -32.5230  -14.8390   20.0220 O   0  0  0  0  0  0  0  0  0  0  0  0
  -31.9040  -17.2420   18.0860 C   0  0  0  0  0  2  0  0  0  0  0  0
  -31.9960  -18.3020   19.1870 C   0  0  0  0  0  2  0  0  0  0  0  0
  -30.7500  -16.2490   18.3220 C   0  0  0  0  0  2  0  0  0  0  0  0
  -30.3260  -17.0770   20.6090 C   0  0  0  0  0  2  0  0  0  0  0  0
  -30.6340  -18.4500   19.9010 C   0  0  0  0  0  3  0  0  0  0  0  0
  -30.5900  -15.8900   19.7470 N   0  0  0  0  0  0  0  0  0  0  0  0
  -25.8460  -14.2240   20.4040 C   0  0  0  0  0  0  0  0  0  0  0  0
  -24.7570  -13.4790   20.7650 C   0  0  0  0  0  0  0  0  0  0  0  0
  -25.1750  -12.1130   20.7060 C   0  0  0  0  0  0  0  0  0  0  0  0
  -26.8600  -13.3150   20.1430 N   0  0  0  0  0  0  0  0  0  0  0  0
  -26.4610  -12.0410   20.3920 N   0  0  0  0  0  0  0  0  0  0  0  0
  -24.4110  -10.8700   20.8730 C   0  0  0  0  0  0  0  0  0  0  0  0
  -24.7850   -9.8970   21.8250 C   0  0  0  0  0  3  0  0  0  0  0  0
  -24.0230   -8.7180   21.9810 C   0  0  0  0  0  3  0  0  0  0  0  0
  -22.8740   -8.5050   21.1840 C   0  0  0  0  0  0  0  0  0  0  0  0
  -22.5190   -9.4660   20.2200 C   0  0  0  0  0  3  0  0  0  0  0  0
  -23.2810  -10.6370   20.0630 C   0  0  0  0  0  3  0  0  0  0  0  0
  -22.0880   -7.3790   21.2490 O   0  0  0  0  0  0  0  0  0  0  0  0
  -21.9380   -6.6720   22.4140 C   0  0  0  0  0  0  0  0  0  0  0  0
  -21.3870   -7.2570   23.5760 C   0  0  0  0  0  3  0  0  0  0  0  0
  -21.1860   -6.4750   24.7300 C   0  0  0  0  0  3  0  0  0  0  0  0
  -21.5260   -5.1100   24.7250 C   0  0  0  0  0  0  0  0  0  0  0  0
  -22.0680   -4.5230   23.5670 C   0  0  0  0  0  3  0  0  0  0  0  0
  -22.2700   -5.3010   22.4140 C   0  0  0  0  0  0  0  0  0  0  0  0
  -22.7750   -4.7270   21.2950 F   0  0  0  0  0  0  0  0  0  0  0  0
  -21.3260   -4.3550   25.8300 F   0  0  0  0  0  0  0  0  0  0  0  0
  -23.3750  -13.9930   21.0510 C   0  0  0  0  0  0  0  0  0  0  0  0
  -22.6270  -13.3030   21.9060 N   0  0  0  0  0  0  0  0  0  0  0  0
  -22.9660  -15.0400   20.5510 O   0  0  0  0  0  0  0  0  0  0  0  0
  -22.9700  -12.4570   22.3370 H   0  0  0  0  0  0  0  0  0  0  0  0
  -21.6990  -13.6280   22.1330 H   0  0  0  0  0  0  0  0  0  0  0  0
  -26.0540  -15.5920   20.2500 N   0  0  0  0  0  0  0  0  0  0  0  0
  -25.3110  -16.2690   20.3810 H   0  0  0  0  0  0  0  0  0  0  0  0
  -26.9220  -16.0120   19.9430 H   0  0  0  0  0  0  0  0  0  0  0  0
  -29.7020  -24.4420   22.6880 C   0  0  0  0  0  3  0  0  0  0  0  0
  -30.1750  -23.3060   23.0450 N   0  0  0  0  0  0  0  0  0  0  0  0
  -27.5360  -24.3080   21.4260 C   0  0  0  0  0  1  0  0  0  0  0  0
  -28.9760  -24.8520   21.3980 C   0  0  0  0  0  3  0  0  0  0  0  0
  -29.0430  -26.3960   21.2150 C   0  0  0  0  0  2  0  0  0  0  0  0
  -28.6170  -26.8380   19.9170 O   0  0  0  0  0  0  0  0  0  0  0  0
  -24.6750  -31.7880   23.1760 C   0  0  0  0  0  0  0  0  0  0  0  0
  -27.4580  -27.5740   19.9310 C   0  0  0  0  0  0  0  0  0  0  0  0
  -23.5140  -30.4020   21.4870 C   0  0  0  0  0  3  0  0  0  0  0  0
  -25.0150  -28.9810   19.9940 C   0  0  0  0  0  0  0  0  0  0  0  0
  -26.0190  -30.8670   21.2930 C   0  0  0  0  0  2  0  0  0  0  0  0
  -26.1520  -29.5250   20.6070 C   0  0  0  0  0  0  0  0  0  0  0  0
  -27.3770  -28.8240   20.5840 C   0  0  0  0  0  3  0  0  0  0  0  0
  -26.3200  -27.0570   19.2830 C   0  0  0  0  0  3  0  0  0  0  0  0
  -25.0940  -27.7440   19.3290 C   0  0  0  0  0  3  0  0  0  0  0  0
  -23.7390  -29.7840   20.0800 C   0  0  0  0  0  2  0  0  0  0  0  0
  -24.7550  -31.0320   22.0450 N   0  0  0  0  0  0  0  0  0  0  0  0
  -23.5870  -32.0000   23.7290 O   0  0  0  0  0  0  0  0  0  0  0  0
  -22.9080  -29.3220   22.4110 C   0  0  0  0  0  0  0  0  0  0  0  0
  -21.5930  -29.0850   22.2730 N   0  0  0  0  0  0  0  0  0  0  0  0
  -23.6170  -28.7010   23.2090 O   0  0  0  0  0  0  0  0  0  0  0  0
  -21.0800  -29.6400   21.6010 H   0  0  0  0  0  0  0  0  0  0  0  0
  -18.2790  -27.7110   22.6940 C   0  0  0  0  0  0  0  0  0  0  0  0
  -20.8170  -28.0880   23.0070 C   0  0  0  0  0  3  0  0  0  0  0  0
  -20.9990  -26.6800   22.3930 C   0  0  0  0  0  2  0  0  0  0  0  0
  -19.9260  -26.3290   21.3590 C   0  0  0  0  0  2  0  0  0  0  0  0
  -18.5300  -26.3900   21.9890 C   0  0  0  0  0  2  0  0  0  0  0  0
  -19.3530  -28.5160   23.1590 C   0  0  0  0  0  0  0  0  0  0  0  0
  -19.0650  -29.7520   23.7770 C   0  0  0  0  0  3  0  0  0  0  0  0
  -17.7350  -30.1830   23.9400 C   0  0  0  0  0  3  0  0  0  0  0  0
  -16.6750  -29.3750   23.4920 C   0  0  0  0  0  3  0  0  0  0  0  0
  -16.9480  -28.1410   22.8740 C   0  0  0  0  0  3  0  0  0  0  0  0
  -25.9410  -32.4430   23.8140 C   0  0  0  0  0  3  0  0  0  0  0  0
  -26.4680  -31.6700   25.0850 C   0  0  1  0  0  0  0  0  0  0  0  0
  -25.3720  -31.3950   26.1410 C   0  0  0  0  0  1  0  0  0  0  0  0
  -27.0880  -30.3120   24.6800 C   0  0  0  0  0  1  0  0  0  0  0  0
  -27.5920  -32.4850   25.7670 C   0  0  0  0  0  1  0  0  0  0  0  0
  -25.5970  -33.8300   24.1540 N   0  0  0  0  0  0  0  0  0  0  0  0
  -25.9150  -34.8950   23.4070 C   0  0  0  0  0  0  0  0  0  0  0  0
  -26.6000  -34.8160   22.3830 O   0  0  0  0  0  0  0  0  0  0  0  0
  -24.9930  -33.9660   24.9520 H   0  0  0  0  0  0  0  0  0  0  0  0
  -24.1580  -36.6540   23.0380 C   0  0  0  0  0  1  0  0  0  0  0  0
  -25.3900  -36.2670   23.8700 C   0  0  0  0  0  3  0  0  0  0  0  0
  -27.4860  -37.1900   24.7570 C   0  0  0  0  0  1  0  0  0  0  0  0
  -26.4040  -37.3430   23.7890 N   0  0  0  0  0  0  0  0  0  0  0  0
  -25.9740  -38.2530   23.9320 H   0  0  0  0  0  0  0  0  0  0  0  0
  1  5  2  0
  1  3  1  0
  2  4  2  0
  3  6  2  0
  5  2  1  0
  6  4  1  0
  6 50  1  0
  8 13  1  0
  9 10  1  0
  9  8  1  0
 11 10  1  0
 11 24  1  0
 11 12  1  0
 13  7  1  0
 13 12  1  0
 14  7  2  0
 15 17  1  0
 15 16  1  0
 16 19  1  0
 17 20  1  0
 19 18  1  0
 19  5  1  0
 20  7  1  0
 20 18  1  0
 21 22  2  0
 22 41  1  0
 23 22  1  0
 23 26  1  0
 24 25  1  0
 24 21  1  0
 25 23  2  0
 26 27  1  0
 27 28  2  0
 29 32  1  0
 29 28  1  0
 30 29  2  0
 31 30  1  0
 31 26  2  0
 32 33  1  0
 33 38  2  0
 33 34  1  0
 34 35  2  0
 36 35  1  0
 36 40  1  0
 37 36  2  0
 38 37  1  0
 39 38  1  0
 41 42  1  0
 42 45  1  0
 42 44  1  0
 43 41  2  0
 46 47  1  0
 46 21  1  0
 48 46  1  0
 49 50  2  0
 52 51  1  0
 52 49  1  0
 53 52  1  0
 54 56  1  0
 54 53  1  0
 55 66  2  0
 56 61  1  0
 57 65  1  0
 57 67  1  0
 58 64  1  0
 58 60  1  0
 59 65  1  0
 60 59  1  0
 61 60  2  0
 62 63  1  0
 62 56  2  0
 63 58  2  0
 64 57  1  0
 65 55  1  0
 67 69  2  0
 68 67  1  0
 70 68  1  0
 71 80  2  0
 71 76  1  0
 72 68  1  0
 72 76  1  0
 73 72  1  0
 74 75  1  0
 74 73  1  0
 75 71  1  0
 76 77  2  0
 77 78  1  0
 79 78  2  0
 80 79  1  0
 81 55  1  0
 81 86  1  0
 81 82  1  0
 82 85  1  1
 82 83  1  0
 84 82  1  0
 86 89  1  0
 87 91  1  0
 87 86  1  0
 88 87  2  0
 91 90  1  0
 93 91  1  0
 93 94  1  0
 93 92  1  0
M  ISO  4   7 100  20 100  53 101  54 101
M  END
>  <TORSDO>  (1) 
F 19

>  <SCORE>  (1) 
-12.881

>  <name>  (1) 
0

>  <ligand_id>  (1) 
0

>  <original_smiles>  (1) 
[H]C(=Nc1c([H])c([H])c(C2([H])C([H])([H])N(C(=O)N3C([H])([H])C([H])([H])C([H])([H])C([H])(n4nc(-c5c([H])c([H])c(Oc6c([H])c([H])c(F)c([H])c6F)c([H])c5[H])c(C(=O)N([H])[H])c4N([H])[H])C3([H])[H])C([H])([H])C([H])([H])C2([H])[H])c([H])c1[H])C([H])(C([H])([H])[H])C([H])([H])Oc1c([H])c([H])c2c(c1[H])C([H])([H])N(C(=O)C([H])(N([H])C(=O)C([H])(N([H])C([H])([H])[H])C([H])([H])[H])C(C([H])([H])[H])(C([H])([H])[H])C([H])([H])[H])C([H])(C(=O)N([H])C1([H])c3c([H])c([H])c([H])c([H])c3C([H])([H])C([H])([H])C1([H])[H])C2([H])[H]

>  <smiles>  (1) 
[H]C(=Nc1c([H])c([H])c(C2([H])C([H])([H])N(C(=O)N3C([H])([H])C([H])([H])C([H])([H])C([H])(n4nc(-c5c([H])c([H])c(Oc6c([H])c([H])c(F)c([H])c6F)c([H])c5[H])c(C(=O)N([H])[H])c4N([H])[H])C3([H])[H])C([H])([H])C([H])([H])C2([H])[H])c([H])c1[H])C([H])(C([H])([H])[H])C([H])([H])Oc1c([H])c([H])c2c(c1[H])C([H])([H])N(C(=O)C([H])(N([H])C(=O)C([H])(N([H])C([H])([H])[H])C([H])([H])[H])C(C([H])([H])[H])(C([H])([H])[H])C([H])([H])[H])C([H])(C(=O)N([H])C1([H])c3c([H])c([H])c([H])c([H])c3C([H])([H])C([H])([H])C1([H])[H])C2([H])[H]

$$$$
1:0:0
     RDKit          3D

 98107  0  0  1  0  0  0  0  0999 V2000
  -28.7100  -21.1800   20.2170 C   0  0  0  0  0  3  0  0  0  0  0  0
  -30.1350  -23.7340   22.1500 C   0  0  0  0  0  2  0  0  0  0  0  0
  -28.6430  -24.1310   22.0620 C   0  0  0  0  0  2  0  0  0  0  0  0
  -30.4200  -22.8570   20.9210 C   0  0  0  0  0  2  0  0  0  0  0  0
  -28.2390  -23.8000   20.6240 C   0  0  0  0  0  3  0  0  0  0  0  0
  -29.0820  -22.5180   20.4150 N   0  0  0  0  0  0  0  0  0  0  0  0
  -27.4050  -20.9470   20.1270 N   0  0  0  0  0  0  0  0  0  0  0  0
  -27.0950  -19.9990   19.9910 H   0  0  0  0  0  0  0  0  0  0  0  0
  -26.7070  -21.6660   20.2130 H   0  0  0  0  0  0  0  0  0  0  0  0
  -30.7930  -20.1380   19.2970 C   0  0  0  0  0  3  0  0  0  0  0  0
  -29.3270  -18.5710   20.4650 C   0  0  0  0  0  3  0  0  0  0  0  0
  -31.3300  -17.7390   19.3760 C   0  0  0  0  0  3  0  0  0  0  0  0
  -29.6170  -19.9460   20.0500 C   0  0  0  0  0  0  0  0  0  0  0  0
  -31.6320  -19.0610   18.9700 C   0  0  0  0  0  0  0  0  0  0  0  0
  -30.1710  -17.4170   20.1330 C   0  0  0  0  0  0  0  0  0  0  0  0
  -30.6040  -14.8090   20.2960 C   0  0  0  0  0  0  0  0  0  0  0  0
  -30.3880  -12.5240   19.3050 C   0  0  0  0  0  2  0  0  0  0  0  0
  -29.4590  -12.5950   18.0730 C   0  0  0  0  0  2  0  0  0  0  0  0
  -27.9820  -12.4370   18.4920 C   0  0  0  0  0  2  0  0  0  0  0  0
  -27.6110  -13.3060   19.7220 C   0  0  0  0  0  3  0  0  0  0  0  0
  -28.6710  -13.2310   20.8430 C   0  0  0  0  0  2  0  0  0  0  0  0
  -29.9610  -13.5900   20.2420 N   0  0  0  0  0  0  0  0  0  0  0  0
  -31.8040  -14.8450   20.0120 O   0  0  0  0  0  0  0  0  0  0  0  0
  -29.8650  -15.9820   20.4770 N   0  0  0  0  0  0  0  0  0  0  0  0
  -28.9250  -15.8230   20.8070 H   0  0  0  0  0  0  0  0  0  0  0  0
  -25.2250  -13.8850   20.4460 C   0  0  0  0  0  0  0  0  0  0  0  0
  -24.1630  -13.1110   20.8200 C   0  0  0  0  0  0  0  0  0  0  0  0
  -24.6310  -11.7610   20.7980 C   0  0  0  0  0  0  0  0  0  0  0  0
  -26.2700  -13.0100   20.2150 N   0  0  0  0  0  0  0  0  0  0  0  0
  -25.9230  -11.7250   20.4960 N   0  0  0  0  0  0  0  0  0  0  0  0
  -23.9050  -10.4960   20.9940 C   0  0  0  0  0  0  0  0  0  0  0  0
  -24.3310   -9.5380   21.9400 C   0  0  0  0  0  3  0  0  0  0  0  0
  -23.6050   -8.3410   22.1240 C   0  0  0  0  0  3  0  0  0  0  0  0
  -22.4410   -8.0900   21.3600 C   0  0  0  0  0  0  0  0  0  0  0  0
  -22.0300   -9.0390   20.4070 C   0  0  0  0  0  3  0  0  0  0  0  0
  -22.7560  -10.2280   20.2210 C   0  0  0  0  0  3  0  0  0  0  0  0
  -21.6890   -6.9440   21.4510 O   0  0  0  0  0  0  0  0  0  0  0  0
  -21.6300   -6.2130   22.6110 C   0  0  0  0  0  0  0  0  0  0  0  0
  -21.1820   -6.7770   23.8250 C   0  0  0  0  0  3  0  0  0  0  0  0
  -21.0690   -5.9730   24.9740 C   0  0  0  0  0  3  0  0  0  0  0  0
  -21.3970   -4.6040   24.9150 C   0  0  0  0  0  0  0  0  0  0  0  0
  -21.8390   -4.0400   23.7040 C   0  0  0  0  0  3  0  0  0  0  0  0
  -21.9520   -4.8410   22.5560 C   0  0  0  0  0  0  0  0  0  0  0  0
  -22.3580   -4.2880   21.3880 F   0  0  0  0  0  0  0  0  0  0  0  0
  -21.2810   -3.8290   26.0180 F   0  0  0  0  0  0  0  0  0  0  0  0
  -22.7610  -13.5840   21.0770 C   0  0  0  0  0  0  0  0  0  0  0  0
  -22.0360  -12.8930   21.9460 N   0  0  0  0  0  0  0  0  0  0  0  0
  -22.3250  -14.6030   20.5420 O   0  0  0  0  0  0  0  0  0  0  0  0
  -22.4040  -12.0730   22.4020 H   0  0  0  0  0  0  0  0  0  0  0  0
  -21.0940  -13.1920   22.1610 H   0  0  0  0  0  0  0  0  0  0  0  0
  -25.3780  -15.2560   20.2560 N   0  0  0  0  0  0  0  0  0  0  0  0
  -24.5950  -15.8950   20.3450 H   0  0  0  0  0  0  0  0  0  0  0  0
  -26.2060  -15.6940   19.8730 H   0  0  0  0  0  0  0  0  0  0  0  0
  -32.7810  -19.3150   18.2170 N   0  0  0  0  0  0  0  0  0  0  0  0
  -33.2400  -18.5220   17.7760 H   0  0  0  0  0  0  0  0  0  0  0  0
  -32.7950  -20.1460   17.6350 H   0  0  0  0  0  0  0  0  0  0  0  0
  -28.5210  -25.1050   19.6970 C   0  0  0  0  0  2  0  0  0  0  0  0
  -28.4150  -26.5100   20.2200 O   0  0  0  0  0  0  0  0  0  0  0  0
  -24.6200  -31.8880   23.2480 C   0  0  0  0  0  0  0  0  0  0  0  0
  -27.2650  -27.3210   20.1680 C   0  0  0  0  0  0  0  0  0  0  0  0
  -23.4230  -30.4800   21.6100 C   0  0  0  0  0  3  0  0  0  0  0  0
  -24.8790  -28.9200   20.1940 C   0  0  0  0  0  0  0  0  0  0  0  0
  -25.9650  -30.7960   21.4360 C   0  0  0  0  0  2  0  0  0  0  0  0
  -26.0500  -29.4200   20.7770 C   0  0  0  0  0  0  0  0  0  0  0  0
  -27.2410  -28.6310   20.7530 C   0  0  0  0  0  3  0  0  0  0  0  0
  -26.0660  -26.8770   19.5670 C   0  0  0  0  0  3  0  0  0  0  0  0
  -24.8890  -27.6540   19.5860 C   0  0  0  0  0  3  0  0  0  0  0  0
  -23.6420  -29.7900   20.2380 C   0  0  0  0  0  2  0  0  0  0  0  0
  -24.6890  -31.0750   22.1530 N   0  0  0  0  0  0  0  0  0  0  0  0
  -23.5360  -32.1620   23.7830 O   0  0  0  0  0  0  0  0  0  0  0  0
  -22.7630  -29.4680   22.5740 C   0  0  0  0  0  0  0  0  0  0  0  0
  -21.4390  -29.2890   22.4400 N   0  0  0  0  0  0  0  0  0  0  0  0
  -23.4400  -28.8450   23.3960 O   0  0  0  0  0  0  0  0  0  0  0  0
  -20.9570  -29.8320   21.7380 H   0  0  0  0  0  0  0  0  0  0  0  0
  -18.0650  -28.0830   22.9330 C   0  0  0  0  0  0  0  0  0  0  0  0
  -20.6200  -28.3500   23.2080 C   0  0  0  0  0  3  0  0  0  0  0  0
  -20.7310  -26.9210   22.6280 C   0  0  0  0  0  2  0  0  0  0  0  0
  -19.6330  -26.5930   21.6130 C   0  0  0  0  0  2  0  0  0  0  0  0
  -18.2480  -26.7340   22.2570 C   0  0  0  0  0  2  0  0  0  0  0  0
  -19.1800  -28.8490   23.3640 C   0  0  0  0  0  0  0  0  0  0  0  0
  -18.9560  -30.1100   23.9590 C   0  0  0  0  0  3  0  0  0  0  0  0
  -17.6500  -30.6080   24.1240 C   0  0  0  0  0  3  0  0  0  0  0  0
  -16.5490  -29.8380   23.7100 C   0  0  0  0  0  3  0  0  0  0  0  0
  -16.7570  -28.5770   23.1210 C   0  0  0  0  0  3  0  0  0  0  0  0
  -25.9020  -32.5240   23.8690 C   0  0  0  0  0  3  0  0  0  0  0  0
  -26.4120  -31.7640   25.1550 C   0  0  1  0  0  0  0  0  0  0  0  0
  -25.3120  -31.5380   26.2180 C   0  0  0  0  0  1  0  0  0  0  0  0
  -26.9950  -30.3810   24.7840 C   0  0  0  0  0  1  0  0  0  0  0  0
  -27.5560  -32.5670   25.8180 C   0  0  0  0  0  1  0  0  0  0  0  0
  -25.5910  -33.9240   24.1890 N   0  0  0  0  0  0  0  0  0  0  0  0
  -25.9220  -34.9730   23.4250 C   0  0  0  0  0  0  0  0  0  0  0  0
  -26.5900  -34.8650   22.3930 O   0  0  0  0  0  0  0  0  0  0  0  0
  -25.0030  -34.0840   24.9930 H   0  0  0  0  0  0  0  0  0  0  0  0
  -24.1930  -36.7640   23.0640 C   0  0  0  0  0  1  0  0  0  0  0  0
  -25.4330  -36.3610   23.8780 C   0  0  0  0  0  3  0  0  0  0  0  0
  -27.5620  -37.2550   24.7160 C   0  0  0  0  0  1  0  0  0  0  0  0
  -26.4650  -37.4160   23.7660 N   0  0  0  0  0  0  0  0  0  0  0  0
  -26.0540  -38.3350   23.9080 H   0  0  0  0  0  0  0  0  0  0  0  0
  1  7  1  0
  1  6  1  0
  3  2  1  0
  4  2  1  0
  5 57  1  0
  5  3  1  0
  6  5  1  0
  6  4  1  0
  7  9  1  0
  8  7  1  0
 10 13  1  0
 12 15  2  0
 13  1  1  0
 13 11  2  0
 14 10  2  0
 14 12  1  0
 15 11  1  0
 15 24  1  0
 16 24  1  0
 17 22  1  0
 18 19  1  0
 18 17  1  0
 20 19  1  0
 20 29  1  0
 20 21  1  0
 22 16  1  0
 22 21  1  0
 23 16  2  0
 24 25  1  0
 26 27  2  0
 27 46  1  0
 28 27  1  0
 28 31  1  0
 29 26  1  0
 29 30  1  0
 30 28  2  0
 31 32  1  0
 32 33  2  0
 34 37  1  0
 34 33  1  0
 35 34  2  0
 36 35  1  0
 36 31  2  0
 37 38  1  0
 38 39  1  0
 39 40  2  0
 41 40  1  0
 41 45  1  0
 42 41  2  0
 43 38  2  0
 43 42  1  0
 44 43  1  0
 46 47  1  0
 47 50  1  0
 47 49  1  0
 48 46  2  0
 51 52  1  0
 51 26  1  0
 53 51  1  0
 54 14  1  0
 55 54  1  0
 56 54  1  0
 57 58  1  0
 59 70  2  0
 60 58  1  0
 60 65  1  0
 61 69  1  0
 61 71  1  0
 62 68  1  0
 62 64  1  0
 63 69  1  0
 64 63  1  0
 65 64  2  0
 66 67  1  0
 66 60  2  0
 67 62  2  0
 68 61  1  0
 69 59  1  0
 71 73  2  0
 72 71  1  0
 74 72  1  0
 75 84  2  0
 75 80  1  0
 76 72  1  0
 76 80  1  0
 77 76  1  0
 78 79  1  0
 78 77  1  0
 79 75  1  0
 80 81  2  0
 81 82  1  0
 83 82  2  0
 84 83  1  0
 85 59  1  0
 85 90  1  0
 85 86  1  0
 86 89  1  1
 86 87  1  0
 88 86  1  0
 90 93  1  0
 91 95  1  0
 91 90  1  0
 92 91  2  0
 95 94  1  0
 97 95  1  0
 97 98  1  0
 97 96  1  0
M  ISO  4  16 100  24 100  57 101  58 101
M  END
>  <TORSDO>  (2) 
F 19

>  <SCORE>  (2) 
-14.715

>  <name>  (2) 
1

>  <ligand_id>  (2) 
1

>  <original_smiles>  (2) 
[H]c1c([H])c([H])c2c(c1[H])C([H])([H])C([H])([H])C([H])([H])C2([H])N([H])C(=O)C1([H])N(C(=O)C([H])(N([H])C(=O)C([H])(N([H])C([H])([H])[H])C([H])([H])[H])C(C([H])([H])[H])(C([H])([H])[H])C([H])([H])[H])C([H])([H])c2c([H])c(OC([H])([H])C3([H])N(C(c4c([H])c(N([H])[H])c([H])c(N([H])C(=O)N5C([H])([H])C([H])([H])C([H])([H])C([H])(n6nc(-c7c([H])c([H])c(Oc8c([H])c([H])c(F)c([H])c8F)c([H])c7[H])c(C(=O)N([H])[H])c6N([H])[H])C5([H])[H])c4[H])=[N+]([H])[H])C([H])([H])C([H])([H])C3([H])[H])c([H])c([H])c2C1([H])[H]

>  <smiles>  (2) 
[H]c1c([H])c([H])c2c(c1[H])C([H])([H])C([H])([H])C([H])([H])C2([H])N([H])C(=O)C1([H])N(C(=O)C([H])(N([H])C(=O)C([H])(N([H])C([H])([H])[H])C([H])([H])[H])C(C([H])([H])[H])(C([H])([H])[H])C([H])([H])[H])C([H])([H])c2c([H])c(OC([H])([H])C3([H])N(C(c4c([H])c(N([H])[H])c([H])c(N([H])C(=O)N5C([H])([H])C([H])([H])C([H])([H])C([H])(n6nc(-c7c([H])c([H])c(Oc8c([H])c([H])c(F)c([H])c8F)c([H])c7[H])c(C(=O)N([H])[H])c6N([H])[H])C5([H])[H])c4[H])=[N+]([H])[H])C([H])([H])C([H])([H])C3([H])[H])c([H])c([H])c2C1([H])[H]

$$$$
2:0:0
     RDKit          3D

 92101  0  0  1  0  0  0  0  0999 V2000
  -28.8960  -17.9430   19.5660 C   0  0  0  0  0  3  0  0  0  0  0  0
  -28.7800  -19.3680   19.5570 C   0  0  0  0  0  3  0  0  0  0  0  0
  -30.4320  -18.1480   21.3690 C   0  0  0  0  0  3  0  0  0  0  0  0
  -29.7370  -17.2690   20.4950 C   0  0  0  0  0  0  0  0  0  0  0  0
  -29.4670  -20.1610   20.5050 C   0  0  0  0  0  0  0  0  0  0  0  0
  -28.6680  -23.9860   20.2700 C   0  0  0  0  0  0  0  0  0  0  0  0
  -28.3880  -25.1950   19.6520 C   0  0  0  0  0  0  0  0  0  0  0  0
  -28.9960  -23.7600   21.7290 C   0  0  0  0  0  2  0  0  0  0  0  0
  -28.7560  -22.5650   19.6240 C   0  0  0  0  0  2  0  0  0  0  0  0
  -29.6430  -22.3430   21.8290 C   0  0  0  0  0  2  0  0  0  0  0  0
  -28.2610  -25.2770   18.1380 C   0  0  0  0  0  1  0  0  0  0  0  0
  -30.2900  -19.5190   21.3820 N   0  0  0  0  0  0  0  0  0  0  0  0
  -29.3080  -21.5990   20.6130 N   0  0  0  0  0  0  0  0  0  0  0  0
  -30.5360  -14.7600   20.4000 C   0  0  0  0  0  0  0  0  0  0  0  0
  -30.3820  -12.5010   19.3470 C   0  0  0  0  0  2  0  0  0  0  0  0
  -29.4240  -12.6010   18.1390 C   0  0  0  0  0  2  0  0  0  0  0  0
  -27.9550  -12.4200   18.5760 C   0  0  0  0  0  2  0  0  0  0  0  0
  -27.5930  -13.2830   19.8140 C   0  0  0  0  0  3  0  0  0  0  0  0
  -28.6610  -13.1440   20.9220 C   0  0  0  0  0  2  0  0  0  0  0  0
  -29.9580  -13.5150   20.3340 N   0  0  0  0  0  0  0  0  0  0  0  0
  -31.7100  -14.9390   20.0630 O   0  0  0  0  0  0  0  0  0  0  0  0
  -29.6670  -15.8010   20.6520 N   0  0  0  0  0  0  0  0  0  0  0  0
  -28.7350  -15.4540   20.8140 H   0  0  0  0  0  0  0  0  0  0  0  0
  -25.2070  -13.8780   20.5580 C   0  0  0  0  0  0  0  0  0  0  0  0
  -24.1420  -13.1020   20.9260 C   0  0  0  0  0  0  0  0  0  0  0  0
  -24.6020  -11.7500   20.8780 C   0  0  0  0  0  0  0  0  0  0  0  0
  -26.2480  -12.9970   20.3050 N   0  0  0  0  0  0  0  0  0  0  0  0
  -25.8910  -11.7120   20.5610 N   0  0  0  0  0  0  0  0  0  0  0  0
  -23.8750  -10.4880   21.0580 C   0  0  0  0  0  0  0  0  0  0  0  0
  -24.3010   -9.5170   21.9910 C   0  0  0  0  0  3  0  0  0  0  0  0
  -23.5750   -8.3180   22.1590 C   0  0  0  0  0  3  0  0  0  0  0  0
  -22.4070   -8.0820   21.3940 C   0  0  0  0  0  0  0  0  0  0  0  0
  -22.0010   -9.0410   20.4500 C   0  0  0  0  0  3  0  0  0  0  0  0
  -22.7280  -10.2310   20.2800 C   0  0  0  0  0  3  0  0  0  0  0  0
  -21.6530   -6.9360   21.4710 O   0  0  0  0  0  0  0  0  0  0  0  0
  -21.5740   -6.2050   22.6280 C   0  0  0  0  0  0  0  0  0  0  0  0
  -21.0750   -6.7590   23.8270 C   0  0  0  0  0  3  0  0  0  0  0  0
  -20.9430   -5.9530   24.9750 C   0  0  0  0  0  3  0  0  0  0  0  0
  -21.3000   -4.5920   24.9250 C   0  0  0  0  0  0  0  0  0  0  0  0
  -21.7910   -4.0360   23.7300 C   0  0  0  0  0  3  0  0  0  0  0  0
  -21.9240   -4.8400   22.5850 C   0  0  0  0  0  0  0  0  0  0  0  0
  -22.3780   -4.2950   21.4310 F   0  0  0  0  0  0  0  0  0  0  0  0
  -21.1660   -3.8150   26.0250 F   0  0  0  0  0  0  0  0  0  0  0  0
  -22.7460  -13.5790   21.2120 C   0  0  0  0  0  0  0  0  0  0  0  0
  -22.0190  -12.8710   22.0670 N   0  0  0  0  0  0  0  0  0  0  0  0
  -22.3110  -14.6150   20.7100 O   0  0  0  0  0  0  0  0  0  0  0  0
  -22.3840  -12.0330   22.4950 H   0  0  0  0  0  0  0  0  0  0  0  0
  -21.0830  -13.1720   22.3000 H   0  0  0  0  0  0  0  0  0  0  0  0
  -25.3710  -15.2500   20.3920 N   0  0  0  0  0  0  0  0  0  0  0  0
  -24.6000  -15.8990   20.5050 H   0  0  0  0  0  0  0  0  0  0  0  0
  -26.2010  -15.6900   20.0210 H   0  0  0  0  0  0  0  0  0  0  0  0
  -28.3320  -26.4750   20.2720 O   0  0  0  0  0  0  0  0  0  0  0  0
  -24.5890  -31.9100   23.2720 C   0  0  0  0  0  0  0  0  0  0  0  0
  -27.2050  -27.3300   20.2080 C   0  0  0  0  0  0  0  0  0  0  0  0
  -23.3860  -30.5140   21.6300 C   0  0  0  0  0  3  0  0  0  0  0  0
  -24.8350  -28.9580   20.2070 C   0  0  0  0  0  0  0  0  0  0  0  0
  -25.9300  -30.8220   21.4510 C   0  0  0  0  0  2  0  0  0  0  0  0
  -26.0080  -29.4430   20.8000 C   0  0  0  0  0  0  0  0  0  0  0  0
  -27.1930  -28.6410   20.7880 C   0  0  0  0  0  3  0  0  0  0  0  0
  -25.9930  -26.8930   19.6220 C   0  0  0  0  0  3  0  0  0  0  0  0
  -24.8310  -27.6880   19.6110 C   0  0  0  0  0  3  0  0  0  0  0  0
  -23.6010  -29.8370   20.2520 C   0  0  0  0  0  2  0  0  0  0  0  0
  -24.6540  -31.1000   22.1740 N   0  0  0  0  0  0  0  0  0  0  0  0
  -23.5060  -32.1900   23.8040 O   0  0  0  0  0  0  0  0  0  0  0  0
  -22.7180  -29.5000   22.5900 C   0  0  0  0  0  0  0  0  0  0  0  0
  -21.3930  -29.3210   22.4550 N   0  0  0  0  0  0  0  0  0  0  0  0
  -23.3920  -28.8780   23.4150 O   0  0  0  0  0  0  0  0  0  0  0  0
  -20.9090  -29.8730   21.7620 H   0  0  0  0  0  0  0  0  0  0  0  0
  -18.0100  -28.1340   22.9500 C   0  0  0  0  0  0  0  0  0  0  0  0
  -20.5700  -28.3840   23.2240 C   0  0  0  0  0  3  0  0  0  0  0  0
  -20.6670  -26.9530   22.6450 C   0  0  0  0  0  2  0  0  0  0  0  0
  -19.5650  -26.6360   21.6290 C   0  0  0  0  0  2  0  0  0  0  0  0
  -18.1820  -26.7850   22.2720 C   0  0  0  0  0  2  0  0  0  0  0  0
  -19.1310  -28.8920   23.3820 C   0  0  0  0  0  0  0  0  0  0  0  0
  -18.9140  -30.1550   23.9760 C   0  0  0  0  0  3  0  0  0  0  0  0
  -17.6110  -30.6580   24.1430 C   0  0  0  0  0  3  0  0  0  0  0  0
  -16.5040  -29.8970   23.7280 C   0  0  0  0  0  3  0  0  0  0  0  0
  -16.7050  -28.6370   23.1350 C   0  0  0  0  0  3  0  0  0  0  0  0
  -25.8710  -32.5400   23.8970 C   0  0  0  0  0  3  0  0  0  0  0  0
  -25.5670  -33.9430   24.2150 N   0  0  0  0  0  0  0  0  0  0  0  0
  -25.8960  -34.9880   23.4430 C   0  0  0  0  0  0  0  0  0  0  0  0
  -26.5570  -34.8720   22.4080 O   0  0  0  0  0  0  0  0  0  0  0  0
  -24.9800  -34.1070   25.0190 H   0  0  0  0  0  0  0  0  0  0  0  0
  -24.1750  -36.7870   23.0820 C   0  0  0  0  0  1  0  0  0  0  0  0
  -25.4170  -36.3830   23.8920 C   0  0  0  0  0  3  0  0  0  0  0  0
  -27.5560  -37.2710   24.7110 C   0  0  0  0  0  1  0  0  0  0  0  0
  -26.4540  -37.4300   23.7660 N   0  0  0  0  0  0  0  0  0  0  0  0
  -26.0510  -38.3530   23.9000 H   0  0  0  0  0  0  0  0  0  0  0  0
  -26.3740  -31.7780   25.1850 C   0  0  1  0  0  0  0  0  0  0  0  0
  -25.2720  -31.5580   26.2470 C   0  0  0  0  0  1  0  0  0  0  0  0
  -26.9530  -30.3930   24.8130 C   0  0  0  0  0  1  0  0  0  0  0  0
  -27.5220  -32.5740   25.8490 C   0  0  0  0  0  1  0  0  0  0  0  0
  1  4  1  0
  2  1  2  0
  2  5  1  0
  3 12  1  0
  4 22  1  0
  4  3  2  0
  5 13  1  0
  5 12  2  0
  6  8  1  0
  7  6  2  0
  7 52  1  0
  8 10  1  0
  9  6  1  0
  9 13  1  0
 11  7  1  0
 13 10  1  0
 14 22  1  0
 15 20  1  0
 16 17  1  0
 16 15  1  0
 18 17  1  0
 18 27  1  0
 18 19  1  0
 20 14  1  0
 20 19  1  0
 21 14  2  0
 22 23  1  0
 24 25  2  0
 25 44  1  0
 26 25  1  0
 26 29  1  0
 27 24  1  0
 27 28  1  0
 28 26  2  0
 29 30  1  0
 30 31  2  0
 32 35  1  0
 32 31  1  0
 33 32  2  0
 34 33  1  0
 34 29  2  0
 35 36  1  0
 36 37  1  0
 37 38  2  0
 39 38  1  0
 39 43  1  0
 40 39  2  0
 41 36  2  0
 41 40  1  0
 42 41  1  0
 44 45  1  0
 45 48  1  0
 45 47  1  0
 46 44  2  0
 49 50  1  0
 49 24  1  0
 51 49  1  0
 53 64  2  0
 54 52  1  0
 54 59  1  0
 55 63  1  0
 55 65  1  0
 56 62  1  0
 56 58  1  0
 57 63  1  0
 58 57  1  0
 59 58  2  0
 60 54  2  0
 61 60  1  0
 61 56  2  0
 62 55  1  0
 63 53  1  0
 65 67  2  0
 66 65  1  0
 68 66  1  0
 69 78  2  0
 69 74  1  0
 70 66  1  0
 70 74  1  0
 71 70  1  0
 72 73  1  0
 72 71  1  0
 73 69  1  0
 74 75  2  0
 75 76  1  0
 77 76  2  0
 78 77  1  0
 79 53  1  0
 79 80  1  0
 79 89  1  0
 80 83  1  0
 81 85  1  0
 81 80  1  0
 82 81  2  0
 85 84  1  0
 87 85  1  0
 87 88  1  0
 87 86  1  0
 89 92  1  1
 89 90  1  0
 91 89  1  0
M  ISO  4   7 101  14 100  22 100  52 101
M  END
>  <TORSDO>  (3) 
F 16

>  <SCORE>  (3) 
-15.737

>  <name>  (3) 
2

>  <ligand_id>  (3) 
2

>  <original_smiles>  (3) 
[H]c1nc(N2C([H])([H])C(=C(Oc3c([H])c([H])c4c(c3[H])C([H])([H])N(C(=O)C([H])(N([H])C(=O)C([H])(N([H])C([H])([H])[H])C([H])([H])[H])C(C([H])([H])[H])(C([H])([H])[H])C([H])([H])[H])C([H])(C(=O)N([H])C3([H])c5c([H])c([H])c([H])c([H])c5C([H])([H])C([H])([H])C3([H])[H])C4([H])[H])C([H])([H])[H])C([H])([H])C2([H])[H])c([H])c([H])c1N([H])C(=O)N1C([H])([H])C([H])([H])C([H])([H])C([H])(n2nc(-c3c([H])c([H])c(Oc4c([H])c([H])c(F)c([H])c4F)c([H])c3[H])c(C(=O)N([H])[H])c2N([H])[H])C1([H])[H]

>  <smiles>  (3) 
[H]c1nc(N2C([H])([H])C(=C(Oc3c([H])c([H])c4c(c3[H])C([H])([H])N(C(=O)C([H])(N([H])C(=O)C([H])(N([H])C([H])([H])[H])C([H])([H])[H])C(C([H])([H])[H])(C([H])([H])[H])C([H])([H])[H])C([H])(C(=O)N([H])C3([H])c5c([H])c([H])c([H])c([H])c5C([H])([H])C([H])([H])C3([H])[H])C4([H])[H])C([H])([H])[H])C([H])([H])C2([H])[H])c([H])c([H])c1N([H])C(=O)N1C([H])([H])C([H])([H])C([H])([H])C([H])(n2nc(-c3c([H])c([H])c(Oc4c([H])c([H])c(F)c([H])c4F)c([H])c3[H])c(C(=O)N([H])[H])c2N([H])[H])C1([H])[H]

$$$$
3:0:0
     RDKit          3D

 92100  0  0  1  0  0  0  0  0999 V2000
  -28.3400  -18.7650   20.1200 C   0  0  0  0  0  3  0  0  0  0  0  0
  -27.9400  -20.1480   19.9820 C   0  0  0  0  0  0  0  0  0  0  0  0
  -29.6700  -18.5610   20.3920 C   0  0  0  0  0  0  0  0  0  0  0  0
  -28.9100  -21.1130   20.1890 C   0  0  0  0  0  0  0  0  0  0  0  0
  -30.4180  -20.2020   20.5460 S   0  0  0  0  0  0  0  0  0  0  0  0
  -29.1650  -23.7230   20.2930 C   0  0  0  0  0  0  0  0  0  0  0  0
  -28.6070  -22.4810   20.0520 N   0  0  0  0  0  0  0  0  0  0  0  0
  -30.2690  -23.8680   20.8240 O   0  0  0  0  0  0  0  0  0  0  0  0
  -27.6720  -22.5900   19.6870 H   0  0  0  0  0  0  0  0  0  0  0  0
  -28.2980  -24.9930   19.8180 C   0  0  0  0  0  2  0  0  0  0  0  0
  -28.5630  -26.4130   20.2690 O   0  0  0  0  0  0  0  0  0  0  0  0
  -24.5750  -31.7380   23.2590 C   0  0  0  0  0  0  0  0  0  0  0  0
  -27.4680  -27.3200   20.1750 C   0  0  0  0  0  0  0  0  0  0  0  0
  -23.5040  -30.3730   21.5090 C   0  0  0  0  0  3  0  0  0  0  0  0
  -25.0740  -28.9260   20.1010 C   0  0  0  0  0  0  0  0  0  0  0  0
  -26.0480  -30.7500   21.4820 C   0  0  0  0  0  2  0  0  0  0  0  0
  -26.2020  -29.3990   20.7840 C   0  0  0  0  0  0  0  0  0  0  0  0
  -27.4020  -28.6100   20.8130 C   0  0  0  0  0  3  0  0  0  0  0  0
  -26.3130  -26.9390   19.4490 C   0  0  0  0  0  3  0  0  0  0  0  0
  -25.1370  -27.7050   19.4230 C   0  0  0  0  0  3  0  0  0  0  0  0
  -23.8130  -29.7670   20.1170 C   0  0  0  0  0  2  0  0  0  0  0  0
  -24.7250  -30.9710   22.1390 N   0  0  0  0  0  0  0  0  0  0  0  0
  -23.4560  -31.9670   23.7430 O   0  0  0  0  0  0  0  0  0  0  0  0
  -22.8190  -29.3010   22.3900 C   0  0  0  0  0  0  0  0  0  0  0  0
  -21.4940  -29.1390   22.2310 N   0  0  0  0  0  0  0  0  0  0  0  0
  -23.4800  -28.6210   23.1780 O   0  0  0  0  0  0  0  0  0  0  0  0
  -21.0180  -29.7410   21.5750 H   0  0  0  0  0  0  0  0  0  0  0  0
  -18.0860  -28.0160   22.7100 C   0  0  0  0  0  0  0  0  0  0  0  0
  -20.6580  -28.1600   22.9310 C   0  0  0  0  0  3  0  0  0  0  0  0
  -20.6920  -26.7880   22.2180 C   0  0  0  0  0  2  0  0  0  0  0  0
  -19.5540  -26.6050   21.2090 C   0  0  0  0  0  2  0  0  0  0  0  0
  -18.1950  -26.7340   21.9020 C   0  0  0  0  0  2  0  0  0  0  0  0
  -19.2430  -28.6940   23.1800 C   0  0  0  0  0  0  0  0  0  0  0  0
  -19.0850  -29.8990   23.8980 C   0  0  0  0  0  3  0  0  0  0  0  0
  -17.8040  -30.4250   24.1500 C   0  0  0  0  0  3  0  0  0  0  0  0
  -16.6620  -29.7430   23.6940 C   0  0  0  0  0  3  0  0  0  0  0  0
  -16.8050  -28.5390   22.9810 C   0  0  0  0  0  3  0  0  0  0  0  0
  -25.8020  -32.3840   23.9730 C   0  0  0  0  0  3  0  0  0  0  0  0
  -26.2090  -31.6370   25.3030 C   0  0  1  0  0  0  0  0  0  0  0  0
  -25.0280  -31.4130   26.2770 C   0  0  0  0  0  1  0  0  0  0  0  0
  -26.8280  -30.2550   24.9890 C   0  0  0  0  0  1  0  0  0  0  0  0
  -27.2970  -32.4490   26.0460 C   0  0  0  0  0  1  0  0  0  0  0  0
  -25.4660  -33.7880   24.2530 N   0  0  0  0  0  0  0  0  0  0  0  0
  -25.8110  -34.8240   23.4770 C   0  0  0  0  0  0  0  0  0  0  0  0
  -26.5160  -34.7000   22.4720 O   0  0  0  0  0  0  0  0  0  0  0  0
  -24.8440  -33.9570   25.0300 H   0  0  0  0  0  0  0  0  0  0  0  0
  -24.0580  -36.5750   23.0410 C   0  0  0  0  0  1  0  0  0  0  0  0
  -25.2950  -36.2190   23.8810 C   0  0  0  0  0  3  0  0  0  0  0  0
  -27.3910  -37.1830   24.7250 C   0  0  0  0  0  1  0  0  0  0  0  0
  -26.3130  -37.2850   23.7460 N   0  0  0  0  0  0  0  0  0  0  0  0
  -25.8860  -38.2030   23.8390 H   0  0  0  0  0  0  0  0  0  0  0  0
  -26.6160  -20.4500   19.6330 N   0  0  0  0  0  0  0  0  0  0  0  0
  -26.0490  -19.6650   19.3260 H   0  0  0  0  0  0  0  0  0  0  0  0
  -26.4610  -21.2540   19.0350 H   0  0  0  0  0  0  0  0  0  0  0  0
  -30.4100  -17.2270   20.4910 C   0  0  0  0  0  3  0  0  0  0  0  0
  -29.9350  -16.0060   20.6760 N   0  0  0  0  0  0  0  0  0  0  0  0
  -30.7790  -14.8420   20.5590 C   0  0  0  0  0  0  0  0  0  0  0  0
  -30.6300  -12.4930   19.7060 C   0  0  0  0  0  2  0  0  0  0  0  0
  -29.7710  -12.5070   18.4220 C   0  0  0  0  0  2  0  0  0  0  0  0
  -28.2740  -12.3680   18.7650 C   0  0  0  0  0  2  0  0  0  0  0  0
  -27.8340  -13.3220   19.9060 C   0  0  0  0  0  3  0  0  0  0  0  0
  -28.8240  -13.2990   21.0880 C   0  0  0  0  0  2  0  0  0  0  0  0
  -30.1620  -13.6070   20.5670 N   0  0  0  0  0  0  0  0  0  0  0  0
  -31.9830  -14.8830   20.2930 O   0  0  0  0  0  0  0  0  0  0  0  0
  -25.4290  -13.9640   20.5220 C   0  0  0  0  0  0  0  0  0  0  0  0
  -24.3290  -13.2160   20.8440 C   0  0  0  0  0  0  0  0  0  0  0  0
  -24.7640  -11.8540   20.8410 C   0  0  0  0  0  0  0  0  0  0  0  0
  -26.4630  -13.0620   20.3350 N   0  0  0  0  0  0  0  0  0  0  0  0
  -26.0650  -11.7860   20.5900 N   0  0  0  0  0  0  0  0  0  0  0  0
  -24.0010  -10.6100   21.0020 C   0  0  0  0  0  0  0  0  0  0  0  0
  -24.3610   -9.6410   21.9660 C   0  0  0  0  0  3  0  0  0  0  0  0
  -23.6000   -8.4620   22.1150 C   0  0  0  0  0  3  0  0  0  0  0  0
  -22.4650   -8.2420   21.2990 C   0  0  0  0  0  0  0  0  0  0  0  0
  -22.1230   -9.1970   20.3260 C   0  0  0  0  0  3  0  0  0  0  0  0
  -22.8850  -10.3680   20.1750 C   0  0  0  0  0  3  0  0  0  0  0  0
  -21.6810   -7.1140   21.3550 O   0  0  0  0  0  0  0  0  0  0  0  0
  -21.5440   -6.3900   22.5120 C   0  0  0  0  0  0  0  0  0  0  0  0
  -20.9780   -6.9490   23.6780 C   0  0  0  0  0  3  0  0  0  0  0  0
  -20.7900   -6.1500   24.8240 C   0  0  0  0  0  3  0  0  0  0  0  0
  -21.1590   -4.7920   24.8020 C   0  0  0  0  0  0  0  0  0  0  0  0
  -21.7180   -4.2320   23.6400 C   0  0  0  0  0  3  0  0  0  0  0  0
  -21.9070   -5.0290   22.4970 C   0  0  0  0  0  0  0  0  0  0  0  0
  -22.4260   -4.4790   21.3730 F   0  0  0  0  0  0  0  0  0  0  0  0
  -20.9730   -4.0210   25.8990 F   0  0  0  0  0  0  0  0  0  0  0  0
  -22.9320  -13.7250   21.0500 C   0  0  0  0  0  0  0  0  0  0  0  0
  -22.1560  -13.0610   21.8990 N   0  0  0  0  0  0  0  0  0  0  0  0
  -22.5360  -14.7490   20.4930 O   0  0  0  0  0  0  0  0  0  0  0  0
  -22.4890  -12.2340   22.3710 H   0  0  0  0  0  0  0  0  0  0  0  0
  -21.2170  -13.3860   22.0820 H   0  0  0  0  0  0  0  0  0  0  0  0
  -25.6330  -15.3300   20.3490 N   0  0  0  0  0  0  0  0  0  0  0  0
  -24.8870  -16.0120   20.4340 H   0  0  0  0  0  0  0  0  0  0  0  0
  -26.5240  -15.7350   20.0950 H   0  0  0  0  0  0  0  0  0  0  0  0
  1  3  2  0
  2  1  1  0
  2  4  2  0
  3 55  1  0
  3  5  1  0
  4  5  1  0
  6  8  2  0
  7  4  1  0
  7  6  1  0
  9  7  1  0
 10 11  1  0
 10  6  1  0
 12 23  2  0
 13 11  1  0
 13 18  1  0
 14 22  1  0
 14 24  1  0
 15 21  1  0
 15 17  1  0
 16 22  1  0
 17 18  2  0
 17 16  1  0
 19 13  2  0
 20 19  1  0
 20 15  2  0
 21 14  1  0
 22 12  1  0
 24 26  2  0
 25 24  1  0
 27 25  1  0
 28 37  2  0
 28 33  1  0
 29 25  1  0
 29 33  1  0
 30 29  1  0
 31 32  1  0
 31 30  1  0
 32 28  1  0
 33 34  2  0
 34 35  1  0
 36 35  2  0
 37 36  1  0
 38 12  1  0
 38 43  1  0
 38 39  1  0
 39 42  1  1
 39 40  1  0
 41 39  1  0
 43 46  1  0
 44 48  1  0
 44 43  1  0
 45 44  2  0
 48 47  1  0
 50 51  1  0
 50 48  1  0
 50 49  1  0
 52  2  1  0
 53 52  1  0
 54 52  1  0
 55 56  2  0
 57 63  1  0
 57 56  1  0
 58 63  1  0
 59 60  1  0
 59 58  1  0
 61 60  1  0
 61 68  1  0
 61 62  1  0
 63 62  1  0
 64 57  2  0
 65 66  2  0
 66 85  1  0
 67 66  1  0
 67 70  1  0
 68 65  1  0
 68 69  1  0
 69 67  2  0
 70 71  1  0
 71 72  2  0
 73 76  1  0
 73 72  1  0
 74 73  2  0
 75 74  1  0
 75 70  2  0
 76 77  1  0
 77 78  1  0
 78 79  2  0
 80 79  1  0
 80 84  1  0
 81 80  2  0
 82 77  2  0
 82 81  1  0
 83 82  1  0
 85 86  1  0
 86 89  1  0
 86 88  1  0
 87 85  2  0
 90 91  1  0
 90 65  1  0
 92 90  1  0
M  ISO  4  10 101  11 101  56 100  57 100
M  END
>  <TORSDO>  (4) 
F 20

>  <SCORE>  (4) 
-13.502

>  <name>  (4) 
3

>  <ligand_id>  (4) 
3

>  <original_smiles>  (4) 
[H]C(=NC(=O)N1C([H])([H])C([H])([H])C([H])([H])C([H])(n2nc(-c3c([H])c([H])c(Oc4c([H])c([H])c(F)c([H])c4F)c([H])c3[H])c(C(=O)N([H])[H])c2N([H])[H])C1([H])[H])c1sc(N([H])C(=O)C([H])([H])Oc2c([H])c([H])c3c(c2[H])C([H])([H])N(C(=O)C([H])(N([H])C(=O)C([H])(N([H])C([H])([H])[H])C([H])([H])[H])C(C([H])([H])[H])(C([H])([H])[H])C([H])([H])[H])C([H])(C(=O)N([H])C2([H])c4c([H])c([H])c([H])c([H])c4C([H])([H])C([H])([H])C2([H])[H])C3([H])[H])c(N([H])[H])c1[H]

>  <smiles>  (4) 
[H]C(=NC(=O)N1C([H])([H])C([H])([H])C([H])([H])C([H])(n2nc(-c3c([H])c([H])c(Oc4c([H])c([H])c(F)c([H])c4F)c([H])c3[H])c(C(=O)N([H])[H])c2N([H])[H])C1([H])[H])c1sc(N([H])C(=O)C([H])([H])Oc2c([H])c([H])c3c(c2[H])C([H])([H])N(C(=O)C([H])(N([H])C(=O)C([H])(N([H])C([H])([H])[H])C([H])([H])[H])C(C([H])([H])[H])(C([H])([H])[H])C([H])([H])[H])C([H])(C(=O)N([H])C2([H])c4c([H])c([H])c([H])c([H])c4C([H])([H])C([H])([H])C2([H])[H])C3([H])[H])c(N([H])[H])c1[H]

$$$$
4:0:0
     RDKit          3D

 93102  0  0  1  0  0  0  0  0999 V2000
  -30.0020  -22.0070   20.2820 N   0  0  0  0  0  0  0  0  0  0  0  0
  -31.0180  -21.9390   20.2830 H   0  0  0  0  0  0  0  0  0  0  0  0
  -29.8450  -19.4580   20.3670 C   0  0  0  0  0  3  0  0  0  0  0  0
  -27.8960  -20.7410   20.4220 C   0  0  0  0  0  3  0  0  0  0  0  0
  -29.2620  -20.7890   20.3650 C   0  0  0  0  0  0  0  0  0  0  0  0
  -28.9180  -18.4240   20.2570 C   0  0  0  0  0  0  0  0  0  0  0  0
  -27.3030  -19.1000   20.3990 S   0  0  0  0  0  0  0  0  0  0  0  0
  -30.9770  -15.2400   20.5070 C   0  0  0  0  0  0  0  0  0  0  0  0
  -30.8980  -12.8500   19.8740 C   0  0  0  0  0  2  0  0  0  0  0  0
  -30.0780  -12.7090   18.5760 C   0  0  0  0  0  2  0  0  0  0  0  0
  -28.5970  -12.4740   18.9300 C   0  0  0  0  0  2  0  0  0  0  0  0
  -28.0660  -13.5030   19.9700 C   0  0  0  0  0  3  0  0  0  0  0  0
  -29.0350  -13.7010   21.1560 C   0  0  0  0  0  2  0  0  0  0  0  0
  -30.3480  -14.0210   20.5810 N   0  0  0  0  0  0  0  0  0  0  0  0
  -32.2120  -15.2670   20.5030 O   0  0  0  0  0  0  0  0  0  0  0  0
  -29.8450  -17.2080   17.6000 C   0  0  0  0  0  2  0  0  0  0  0  0
  -28.5840  -16.8390   18.3690 C   0  0  0  0  0  2  0  0  0  0  0  0
  -30.9740  -16.7000   18.5080 C   0  0  0  0  0  2  0  0  0  0  0  0
  -29.0300  -16.9300   19.8480 C   0  0  0  0  0  3  0  0  0  0  0  0
  -30.3610  -16.2540   19.7800 N   0  0  0  0  0  0  0  0  0  0  0  0
  -25.6470  -14.1080   20.5480 C   0  0  0  0  0  0  0  0  0  0  0  0
  -24.5690  -13.3300   20.8520 C   0  0  0  0  0  0  0  0  0  0  0  0
  -25.0400  -11.9800   20.8560 C   0  0  0  0  0  0  0  0  0  0  0  0
  -26.7070  -13.2260   20.3830 N   0  0  0  0  0  0  0  0  0  0  0  0
  -26.3450  -11.9490   20.6290 N   0  0  0  0  0  0  0  0  0  0  0  0
  -24.3170  -10.7180   21.0000 C   0  0  0  0  0  0  0  0  0  0  0  0
  -24.6830   -9.7690   21.9830 C   0  0  0  0  0  3  0  0  0  0  0  0
  -23.9550   -8.5670   22.1180 C   0  0  0  0  0  3  0  0  0  0  0  0
  -22.8490   -8.3080   21.2760 C   0  0  0  0  0  0  0  0  0  0  0  0
  -22.5020   -9.2440   20.2850 C   0  0  0  0  0  3  0  0  0  0  0  0
  -23.2290  -10.4380   20.1470 C   0  0  0  0  0  3  0  0  0  0  0  0
  -22.1040   -7.1560   21.3220 O   0  0  0  0  0  0  0  0  0  0  0  0
  -21.8980   -6.4760   22.4940 C   0  0  0  0  0  0  0  0  0  0  0  0
  -21.2610   -7.0770   23.6040 C   0  0  0  0  0  3  0  0  0  0  0  0
  -21.0180   -6.3220   24.7680 C   0  0  0  0  0  3  0  0  0  0  0  0
  -21.3930   -4.9660   24.8220 C   0  0  0  0  0  0  0  0  0  0  0  0
  -22.0190   -4.3660   23.7180 C   0  0  0  0  0  3  0  0  0  0  0  0
  -22.2720   -5.1180   22.5580 C   0  0  0  0  0  0  0  0  0  0  0  0
  -22.8640   -4.5290   21.4900 F   0  0  0  0  0  0  0  0  0  0  0  0
  -21.1480   -4.2390   25.9400 F   0  0  0  0  0  0  0  0  0  0  0  0
  -23.1530  -13.7930   21.0340 C   0  0  0  0  0  0  0  0  0  0  0  0
  -22.3910  -13.1230   21.8890 N   0  0  0  0  0  0  0  0  0  0  0  0
  -22.7310  -14.7870   20.4410 O   0  0  0  0  0  0  0  0  0  0  0  0
  -22.7400  -12.3120   22.3820 H   0  0  0  0  0  0  0  0  0  0  0  0
  -21.4430  -13.4230   22.0660 H   0  0  0  0  0  0  0  0  0  0  0  0
  -25.8040  -15.4840   20.3700 N   0  0  0  0  0  0  0  0  0  0  0  0
  -25.0260  -16.1240   20.4760 H   0  0  0  0  0  0  0  0  0  0  0  0
  -26.6340  -15.9280   20.0080 H   0  0  0  0  0  0  0  0  0  0  0  0
  -29.4960  -23.1040   19.4200 C   0  0  0  0  0  2  0  0  0  0  0  0
  -29.7300  -24.5720   19.8860 C   0  0  0  0  0  0  0  0  0  0  0  0
  -30.7090  -24.8890   20.5670 O   0  0  0  0  0  0  0  0  0  0  0  0
  -28.6820  -25.6070   19.4120 C   0  0  0  0  0  2  0  0  0  0  0  0
  -28.8020  -26.9520   19.9580 O   0  0  0  0  0  0  0  0  0  0  0  0
  -24.5610  -31.7450   23.2080 C   0  0  0  0  0  0  0  0  0  0  0  0
  -27.6170  -27.6840   19.9270 C   0  0  0  0  0  0  0  0  0  0  0  0
  -23.5230  -30.3950   21.4170 C   0  0  0  0  0  3  0  0  0  0  0  0
  -25.1410  -29.0830   19.9430 C   0  0  0  0  0  0  0  0  0  0  0  0
  -26.0420  -30.9040   21.3910 C   0  0  0  0  0  2  0  0  0  0  0  0
  -26.2420  -29.6030   20.6350 C   0  0  0  0  0  0  0  0  0  0  0  0
  -27.4830  -28.9120   20.6300 C   0  0  0  0  0  3  0  0  0  0  0  0
  -26.4890  -27.2140   19.2090 C   0  0  0  0  0  3  0  0  0  0  0  0
  -25.2640  -27.8910   19.2240 C   0  0  0  0  0  3  0  0  0  0  0  0
  -23.8410  -29.8530   19.9980 C   0  0  0  0  0  2  0  0  0  0  0  0
  -24.7210  -31.0280   22.0600 N   0  0  0  0  0  0  0  0  0  0  0  0
  -23.4430  -31.9060   23.7150 O   0  0  0  0  0  0  0  0  0  0  0  0
  -22.9110  -29.2550   22.2670 C   0  0  0  0  0  0  0  0  0  0  0  0
  -21.5970  -29.0300   22.1080 N   0  0  0  0  0  0  0  0  0  0  0  0
  -23.6120  -28.5860   23.0290 O   0  0  0  0  0  0  0  0  0  0  0  0
  -21.0940  -29.6230   21.4630 H   0  0  0  0  0  0  0  0  0  0  0  0
  -18.2500  -27.7390   22.5350 C   0  0  0  0  0  0  0  0  0  0  0  0
  -20.8100  -28.0000   22.7820 C   0  0  0  0  0  3  0  0  0  0  0  0
  -20.9180  -26.6490   22.0400 C   0  0  0  0  0  2  0  0  0  0  0  0
  -19.7990  -26.4310   21.0180 C   0  0  0  0  0  2  0  0  0  0  0  0
  -18.4300  -26.4790   21.7030 C   0  0  0  0  0  2  0  0  0  0  0  0
  -19.3690  -28.4620   23.0250 C   0  0  0  0  0  0  0  0  0  0  0  0
  -19.1500  -29.6440   23.7680 C   0  0  0  0  0  3  0  0  0  0  0  0
  -17.8450  -30.1060   24.0180 C   0  0  0  0  0  3  0  0  0  0  0  0
  -16.7400  -29.3760   23.5460 C   0  0  0  0  0  3  0  0  0  0  0  0
  -16.9430  -28.1920   22.8120 C   0  0  0  0  0  3  0  0  0  0  0  0
  -25.7740  -32.4160   23.9230 C   0  0  0  0  0  3  0  0  0  0  0  0
  -26.2210  -31.6650   25.2370 C   0  0  1  0  0  0  0  0  0  0  0  0
  -25.0610  -31.3770   26.2160 C   0  0  0  0  0  1  0  0  0  0  0  0
  -26.8890  -30.3140   24.8970 C   0  0  0  0  0  1  0  0  0  0  0  0
  -27.2810  -32.5070   25.9860 C   0  0  0  0  0  1  0  0  0  0  0  0
  -25.3920  -33.8030   24.2220 N   0  0  0  0  0  0  0  0  0  0  0  0
  -25.7100  -34.8620   23.4660 C   0  0  0  0  0  0  0  0  0  0  0  0
  -26.4240  -34.7800   22.4620 O   0  0  0  0  0  0  0  0  0  0  0  0
  -24.7530  -33.9390   24.9920 H   0  0  0  0  0  0  0  0  0  0  0  0
  -23.9070  -36.5730   23.0520 C   0  0  0  0  0  1  0  0  0  0  0  0
  -25.1490  -36.2340   23.8920 C   0  0  0  0  0  3  0  0  0  0  0  0
  -27.2060  -37.2500   24.7700 C   0  0  0  0  0  1  0  0  0  0  0  0
  -26.1310  -37.3350   23.7840 N   0  0  0  0  0  0  0  0  0  0  0  0
  -25.6740  -38.2370   23.8860 H   0  0  0  0  0  0  0  0  0  0  0  0
  1  2  1  0
  1  5  1  0
  5  3  1  0
  5  4  2  0
  6  3  2  0
  6  7  1  0
  7  4  1  0
  8 14  1  0
  9 14  1  0
 10 11  1  0
 10  9  1  0
 12 11  1  0
 12 24  1  0
 12 13  1  0
 14 13  1  0
 15  8  2  0
 16 17  1  0
 16 18  1  0
 17 19  1  0
 18 20  1  0
 19  6  1  0
 20 19  1  0
 20  8  1  0
 21 22  2  0
 22 23  1  0
 22 41  1  0
 23 26  1  0
 24 21  1  0
 24 25  1  0
 25 23  2  0
 26 27  1  0
 27 28  2  0
 29 32  1  0
 29 28  1  0
 30 29  2  0
 31 30  1  0
 31 26  2  0
 32 33  1  0
 33 38  2  0
 33 34  1  0
 34 35  2  0
 35 36  1  0
 36 40  1  0
 37 36  2  0
 38 37  1  0
 39 38  1  0
 41 42  1  0
 42 45  1  0
 42 44  1  0
 43 41  2  0
 46 47  1  0
 46 21  1  0
 48 46  1  0
 49 50  1  0
 49  1  1  0
 50 51  2  0
 52 50  1  0
 52 53  1  0
 54 65  2  0
 55 53  1  0
 55 60  1  0
 56 64  1  0
 56 66  1  0
 57 63  1  0
 57 59  1  0
 58 64  1  0
 59 58  1  0
 60 59  2  0
 61 62  1  0
 61 55  2  0
 62 57  2  0
 63 56  1  0
 64 54  1  0
 66 68  2  0
 67 66  1  0
 69 67  1  0
 70 79  2  0
 70 75  1  0
 71 67  1  0
 71 75  1  0
 72 71  1  0
 73 74  1  0
 73 72  1  0
 74 70  1  0
 75 76  2  0
 76 77  1  0
 78 77  2  0
 79 78  1  0
 80 54  1  0
 80 85  1  0
 80 81  1  0
 81 84  1  1
 81 82  1  0
 83 81  1  0
 85 88  1  0
 86 90  1  0
 86 85  1  0
 87 86  2  0
 90 89  1  0
 92 93  1  0
 92 90  1  0
 92 91  1  0
M  ISO  4   8 100  20 100  52 101  53 101
M  END
>  <TORSDO>  (5) 
F 20

>  <SCORE>  (5) 
-11.825

>  <name>  (5) 
4

>  <ligand_id>  (5) 
4

>  <original_smiles>  (5) 
[H]c1sc(C2([H])N(C(=O)N3C([H])([H])C([H])([H])C([H])([H])C([H])(n4nc(-c5c([H])c([H])c(Oc6c([H])c([H])c(F)c([H])c6F)c([H])c5[H])c(C(=O)N([H])[H])c4N([H])[H])C3([H])[H])C([H])([H])C([H])([H])C2([H])[H])c([H])c1N([H])C([H])([H])C(=O)C([H])([H])Oc1c([H])c([H])c2c(c1[H])C([H])([H])N(C(=O)C([H])(N([H])C(=O)C([H])(N([H])C([H])([H])[H])C([H])([H])[H])C(C([H])([H])[H])(C([H])([H])[H])C([H])([H])[H])C([H])(C(=O)N([H])C1([H])c3c([H])c([H])c([H])c([H])c3C([H])([H])C([H])([H])C1([H])[H])C2([H])[H]

>  <smiles>  (5) 
[H]c1sc(C2([H])N(C(=O)N3C([H])([H])C([H])([H])C([H])([H])C([H])(n4nc(-c5c([H])c([H])c(Oc6c([H])c([H])c(F)c([H])c6F)c([H])c5[H])c(C(=O)N([H])[H])c4N([H])[H])C3([H])[H])C([H])([H])C([H])([H])C2([H])[H])c([H])c1N([H])C([H])([H])C(=O)C([H])([H])Oc1c([H])c([H])c2c(c1[H])C([H])([H])N(C(=O)C([H])(N([H])C(=O)C([H])(N([H])C([H])([H])[H])C([H])([H])[H])C(C([H])([H])[H])(C([H])([H])[H])C([H])([H])[H])C([H])(C(=O)N([H])C1([H])c3c([H])c([H])c([H])c([H])c3C([H])([H])C([H])([H])C1([H])[H])C2([H])[H]

$$$$
5:0:0
     RDKit          3D

100109  0  0  1  0  0  0  0  0999 V2000
  -29.7680  -20.2740   19.4020 C   0  0  0  0  0  3  0  0  0  0  0  0
  -28.6880  -23.1790   21.5030 C   0  0  0  0  0  2  0  0  0  0  0  0
  -28.3860  -21.8070   20.8810 C   0  0  0  0  0  2  0  0  0  0  0  0
  -29.3550  -24.0490   20.4070 C   0  0  2  0  0  0  0  0  0  0  0  0
  -30.0840  -22.8880   19.5480 C   0  0  2  0  0  0  0  0  0  0  0  0
  -31.5790  -22.8150   19.9730 C   0  0  0  0  0  1  0  0  0  0  0  0
  -30.0340  -23.1800   18.0300 C   0  0  0  0  0  1  0  0  0  0  0  0
  -29.4380  -21.5470   19.8760 N   0  0  0  0  0  0  0  0  0  0  0  0
  -30.6870  -20.1860   18.4470 N   0  0  0  0  0  0  0  0  0  0  0  0
  -30.8900  -19.2810   18.0470 H   0  0  0  0  0  0  0  0  0  0  0  0
  -31.1060  -20.9990   18.0360 H   0  0  0  0  0  0  0  0  0  0  0  0
  -30.0150  -17.7800   20.0590 C   0  0  0  0  0  3  0  0  0  0  0  0
  -27.7920  -18.7780   19.8360 C   0  0  0  0  0  3  0  0  0  0  0  0
  -28.0270  -16.4200   20.4090 C   0  0  0  0  0  3  0  0  0  0  0  0
  -29.1930  -18.9440   19.8070 C   0  0  0  0  0  0  0  0  0  0  0  0
  -29.4360  -16.4960   20.3340 C   0  0  0  0  0  0  0  0  0  0  0  0
  -27.2150  -17.5390   20.1580 C   0  0  0  0  0  0  0  0  0  0  0  0
  -25.8680  -17.4210   20.2150 F   0  0  0  0  0  0  0  0  0  0  0  0
  -30.6290  -14.2920   19.7730 C   0  0  0  0  0  0  0  0  0  0  0  0
  -30.4500  -11.9160   19.0300 C   0  0  0  0  0  2  0  0  0  0  0  0
  -29.4440  -11.8060   17.8630 C   0  0  0  0  0  2  0  0  0  0  0  0
  -27.9990  -11.6720   18.3830 C   0  0  0  0  0  2  0  0  0  0  0  0
  -27.6670  -12.7280   19.4680 C   0  0  0  0  0  3  0  0  0  0  0  0
  -28.7700  -12.7710   20.5500 C   0  0  0  0  0  2  0  0  0  0  0  0
  -30.0590  -13.0520   19.8880 N   0  0  0  0  0  0  0  0  0  0  0  0
  -31.6080  -14.5080   19.0490 O   0  0  0  0  0  0  0  0  0  0  0  0
  -30.1090  -15.2360   20.5950 N   0  0  0  0  0  0  0  0  0  0  0  0
  -29.7040  -14.7630   21.3880 H   0  0  0  0  0  0  0  0  0  0  0  0
  -25.3570  -13.4260   20.3660 C   0  0  0  0  0  0  0  0  0  0  0  0
  -24.2950  -12.6940   20.8250 C   0  0  0  0  0  0  0  0  0  0  0  0
  -24.7010  -11.3250   20.7630 C   0  0  0  0  0  0  0  0  0  0  0  0
  -26.3460  -12.5040   20.0530 N   0  0  0  0  0  0  0  0  0  0  0  0
  -25.9590  -11.2360   20.3480 N   0  0  0  0  0  0  0  0  0  0  0  0
  -23.9470  -10.0910   21.0190 C   0  0  0  0  0  0  0  0  0  0  0  0
  -24.3860   -9.1390   21.9660 C   0  0  0  0  0  3  0  0  0  0  0  0
  -23.6340   -7.9690   22.2080 C   0  0  0  0  0  3  0  0  0  0  0  0
  -22.4300   -7.7410   21.5000 C   0  0  0  0  0  0  0  0  0  0  0  0
  -22.0090   -8.6810   20.5430 C   0  0  0  0  0  3  0  0  0  0  0  0
  -22.7600   -9.8420   20.3000 C   0  0  0  0  0  3  0  0  0  0  0  0
  -21.6500   -6.6190   21.6490 O   0  0  0  0  0  0  0  0  0  0  0  0
  -21.5690   -5.9520   22.8440 C   0  0  0  0  0  0  0  0  0  0  0  0
  -21.1320   -6.5920   24.0240 C   0  0  0  0  0  3  0  0  0  0  0  0
  -20.9940   -5.8550   25.2170 C   0  0  0  0  0  3  0  0  0  0  0  0
  -21.2850   -4.4760   25.2290 C   0  0  0  0  0  0  0  0  0  0  0  0
  -21.7160   -3.8360   24.0530 C   0  0  0  0  0  3  0  0  0  0  0  0
  -21.8530   -4.5730   22.8640 C   0  0  0  0  0  0  0  0  0  0  0  0
  -22.2480   -3.9470   21.7290 F   0  0  0  0  0  0  0  0  0  0  0  0
  -21.1470   -3.7640   26.3710 F   0  0  0  0  0  0  0  0  0  0  0  0
  -22.9420  -13.2230   21.2090 C   0  0  0  0  0  0  0  0  0  0  0  0
  -22.2660  -12.5640   22.1430 N   0  0  0  0  0  0  0  0  0  0  0  0
  -22.4960  -14.2570   20.7130 O   0  0  0  0  0  0  0  0  0  0  0  0
  -22.6370  -11.7270   22.5660 H   0  0  0  0  0  0  0  0  0  0  0  0
  -21.3610  -12.9040   22.4370 H   0  0  0  0  0  0  0  0  0  0  0  0
  -25.5620  -14.7890   20.1720 N   0  0  0  0  0  0  0  0  0  0  0  0
  -24.8380  -15.4750   20.3440 H   0  0  0  0  0  0  0  0  0  0  0  0
  -26.3880  -15.1810   19.7390 H   0  0  0  0  0  0  0  0  0  0  0  0
  -30.1680  -25.5040   22.2270 C   0  0  0  0  0  1  0  0  0  0  0  0
  -30.3730  -24.9180   20.9410 O   0  0  0  0  0  0  0  0  0  0  0  0
  -28.3420  -25.0660   19.6820 C   0  0  0  0  0  2  0  0  0  0  0  0
  -28.3690  -26.4810   20.1010 O   0  0  0  0  0  0  0  0  0  0  0  0
  -24.4310  -31.6340   23.1630 C   0  0  0  0  0  0  0  0  0  0  0  0
  -27.2060  -27.2520   20.0360 C   0  0  0  0  0  0  0  0  0  0  0  0
  -23.2800  -30.2430   21.4750 C   0  0  0  0  0  3  0  0  0  0  0  0
  -24.7880  -28.7690   20.0300 C   0  0  0  0  0  0  0  0  0  0  0  0
  -25.8070  -30.6460   21.3230 C   0  0  0  0  0  2  0  0  0  0  0  0
  -25.9320  -29.2880   20.6490 C   0  0  0  0  0  0  0  0  0  0  0  0
  -27.1430  -28.5390   20.6460 C   0  0  0  0  0  3  0  0  0  0  0  0
  -26.0410  -26.7780   19.3910 C   0  0  0  0  0  3  0  0  0  0  0  0
  -24.8420  -27.5180   19.3950 C   0  0  0  0  0  3  0  0  0  0  0  0
  -23.5260  -29.6040   20.0820 C   0  0  0  0  0  2  0  0  0  0  0  0
  -24.5230  -30.8580   22.0450 N   0  0  0  0  0  0  0  0  0  0  0  0
  -23.3360  -31.8690   23.6940 O   0  0  0  0  0  0  0  0  0  0  0  0
  -22.6390  -29.1860   22.4040 C   0  0  0  0  0  0  0  0  0  0  0  0
  -21.3230  -28.9650   22.2470 N   0  0  0  0  0  0  0  0  0  0  0  0
  -23.3240  -28.5670   23.2220 O   0  0  0  0  0  0  0  0  0  0  0  0
  -20.8270  -29.5210   21.5630 H   0  0  0  0  0  0  0  0  0  0  0  0
  -17.9730  -27.6760   22.6830 C   0  0  0  0  0  0  0  0  0  0  0  0
  -20.5220  -27.9870   22.9840 C   0  0  0  0  0  3  0  0  0  0  0  0
  -20.6620  -26.5760   22.3680 C   0  0  0  0  0  2  0  0  0  0  0  0
  -19.5760  -26.2560   21.3360 C   0  0  0  0  0  2  0  0  0  0  0  0
  -18.1860  -26.3510   21.9710 C   0  0  0  0  0  2  0  0  0  0  0  0
  -19.0700  -28.4520   23.1450 C   0  0  0  0  0  0  0  0  0  0  0  0
  -18.8160  -29.6930   23.7690 C   0  0  0  0  0  3  0  0  0  0  0  0
  -17.4980  -30.1580   23.9370 C   0  0  0  0  0  3  0  0  0  0  0  0
  -16.4160  -29.3780   23.4920 C   0  0  0  0  0  3  0  0  0  0  0  0
  -16.6540  -28.1400   22.8720 C   0  0  0  0  0  3  0  0  0  0  0  0
  -25.6920  -32.2820   23.8150 C   0  0  0  0  0  3  0  0  0  0  0  0
  -26.2100  -31.4980   25.0820 C   0  0  1  0  0  0  0  0  0  0  0  0
  -25.1070  -31.2030   26.1250 C   0  0  0  0  0  1  0  0  0  0  0  0
  -26.8440  -30.1500   24.6680 C   0  0  0  0  0  1  0  0  0  0  0  0
  -27.3230  -32.3130   25.7820 C   0  0  0  0  0  1  0  0  0  0  0  0
  -25.3460  -33.6660   24.1680 N   0  0  0  0  0  0  0  0  0  0  0  0
  -25.6420  -34.7390   23.4230 C   0  0  0  0  0  0  0  0  0  0  0  0
  -26.3060  -34.6710   22.3850 O   0  0  0  0  0  0  0  0  0  0  0  0
  -24.7550  -33.7910   24.9770 H   0  0  0  0  0  0  0  0  0  0  0  0
  -23.8510  -36.4800   23.1200 C   0  0  0  0  0  1  0  0  0  0  0  0
  -25.1190  -36.1070   23.9060 C   0  0  0  0  0  3  0  0  0  0  0  0
  -27.2380  -37.0500   24.7110 C   0  0  0  0  0  1  0  0  0  0  0  0
  -26.1150  -37.1930   23.7880 N   0  0  0  0  0  0  0  0  0  0  0  0
  -25.6810  -38.0980   23.9530 H   0  0  0  0  0  0  0  0  0  0  0  0
  1  9  1  0
  1 15  1  0
  1  8  1  0
  3  2  1  0
  4 59  1  6
  4 58  1  0
  4  2  1  0
  5  8  1  0
  5  6  1  1
  5  4  1  0
  7  5  1  0
  8  3  1  0
 10  9  1  0
 11  9  1  0
 12 16  1  0
 13 17  2  0
 15 13  1  0
 15 12  2  0
 16 14  2  0
 16 27  1  0
 17 18  1  0
 17 14  1  0
 19 25  1  0
 19 27  1  0
 20 25  1  0
 21 22  1  0
 21 20  1  0
 23 22  1  0
 23 32  1  0
 23 24  1  0
 25 24  1  0
 26 19  2  0
 27 28  1  0
 29 30  2  0
 30 49  1  0
 31 30  1  0
 31 34  1  0
 32 33  1  0
 32 29  1  0
 33 31  2  0
 34 35  1  0
 35 36  2  0
 37 40  1  0
 37 36  1  0
 38 37  2  0
 39 38  1  0
 39 34  2  0
 40 41  1  0
 41 46  2  0
 41 42  1  0
 42 43  2  0
 43 44  1  0
 44 48  1  0
 45 44  2  0
 46 45  1  0
 47 46  1  0
 49 50  1  0
 50 53  1  0
 50 52  1  0
 51 49  2  0
 54 55  1  0
 54 29  1  0
 56 54  1  0
 58 57  1  0
 59 60  1  0
 61 72  2  0
 62 60  1  0
 62 67  1  0
 63 71  1  0
 63 73  1  0
 64 70  1  0
 64 66  1  0
 65 71  1  0
 66 65  1  0
 67 66  2  0
 68 69  1  0
 68 62  2  0
 69 64  2  0
 70 63  1  0
 71 61  1  0
 73 75  2  0
 74 73  1  0
 76 74  1  0
 77 86  2  0
 77 82  1  0
 78 74  1  0
 78 82  1  0
 79 78  1  0
 80 81  1  0
 80 79  1  0
 81 77  1  0
 82 83  2  0
 83 84  1  0
 85 84  2  0
 86 85  1  0
 87 61  1  0
 87 92  1  0
 87 88  1  0
 88 91  1  1
 88 89  1  0
 90 88  1  0
 92 95  1  0
 93 97  1  0
 93 92  1  0
 94 93  2  0
 97 96  1  0
 99 97  1  0
 99100  1  0
 99 98  1  0
M  ISO  4  19 100  27 100  59 101  60 101
M  END
>  <TORSDO>  (6) 
F 19

>  <SCORE>  (6) 
-13.925

>  <name>  (6) 
5

>  <ligand_id>  (6) 
5

>  <original_smiles>  (6) 
[H]c1c([H])c([H])c2c(c1[H])C([H])([H])C([H])([H])C([H])([H])C2([H])N([H])C(=O)C1([H])N(C(=O)C([H])(N([H])C(=O)C([H])(N([H])C([H])([H])[H])C([H])([H])[H])C(C([H])([H])[H])(C([H])([H])[H])C([H])([H])[H])C([H])([H])c2c([H])c(OC([H])([H])C3(OC([H])([H])[H])C([H])([H])C([H])([H])N(C(c4c([H])c(F)c([H])c(N([H])C(=O)N5C([H])([H])C([H])([H])C([H])([H])C([H])(n6nc(-c7c([H])c([H])c(Oc8c([H])c([H])c(F)c([H])c8F)c([H])c7[H])c(C(=O)N([H])[H])c6N([H])[H])C5([H])[H])c4[H])=[N+]([H])[H])C3(C([H])([H])[H])C([H])([H])[H])c([H])c([H])c2C1([H])[H]

>  <smiles>  (6) 
[H]c1c([H])c([H])c2c(c1[H])C([H])([H])C([H])([H])C([H])([H])C2([H])N([H])C(=O)C1([H])N(C(=O)C([H])(N([H])C(=O)C([H])(N([H])C([H])([H])[H])C([H])([H])[H])C(C([H])([H])[H])(C([H])([H])[H])C([H])([H])[H])C([H])([H])c2c([H])c(OC([H])([H])C3(OC([H])([H])[H])C([H])([H])C([H])([H])N(C(c4c([H])c(F)c([H])c(N([H])C(=O)N5C([H])([H])C([H])([H])C([H])([H])C([H])(n6nc(-c7c([H])c([H])c(Oc8c([H])c([H])c(F)c([H])c8F)c([H])c7[H])c(C(=O)N([H])[H])c6N([H])[H])C5([H])[H])c4[H])=[N+]([H])[H])C3(C([H])([H])[H])C([H])([H])[H])c([H])c([H])c2C1([H])[H]

$$$$
6:0:0
     RDKit          3D

 93102  0  0  1  0  0  0  0  0999 V2000
  -28.5160  -23.5010   22.0550 C   0  0  0  0  0  3  0  0  0  0  0  0
  -28.9100  -24.3580   21.0850 C   0  0  0  0  0  0  0  0  0  0  0  0
  -28.7500  -21.9830   22.0630 C   0  0  0  0  0  2  0  0  0  0  0  0
  -29.6430  -23.8110   19.8580 C   0  0  0  0  0  2  0  0  0  0  0  0
  -29.6040  -22.2530   19.7150 C   0  0  0  0  0  2  0  0  0  0  0  0
  -29.8240  -21.4960   21.0480 C   0  0  0  0  0  3  0  0  0  0  0  0
  -28.7420  -19.1710   20.7040 C   0  0  0  0  0  3  0  0  0  0  0  0
  -28.7710  -17.7580   20.6430 C   0  0  0  0  0  3  0  0  0  0  0  0
  -31.1710  -17.7860   20.8980 C   0  0  0  0  0  3  0  0  0  0  0  0
  -29.9150  -19.9380   20.9040 C   0  0  0  0  0  0  0  0  0  0  0  0
  -31.1440  -19.2080   20.9930 C   0  0  0  0  0  0  0  0  0  0  0  0
  -29.9810  -17.0320   20.7380 C   0  0  0  0  0  0  0  0  0  0  0  0
  -32.4670  -19.9220   21.2230 C   0  0  0  0  0  1  0  0  0  0  0  0
  -30.6810  -14.6260   20.1890 C   0  0  0  0  0  0  0  0  0  0  0  0
  -30.4070  -12.4630   19.0010 C   0  0  0  0  0  2  0  0  0  0  0  0
  -29.4060  -12.6760   17.8440 C   0  0  0  0  0  2  0  0  0  0  0  0
  -27.9520  -12.5100   18.3310 C   0  0  0  0  0  2  0  0  0  0  0  0
  -27.6640  -13.3110   19.6280 C   0  0  0  0  0  3  0  0  0  0  0  0
  -28.7660  -13.0580   20.6830 C   0  0  0  0  0  2  0  0  0  0  0  0
  -30.0610  -13.4140   20.0720 N   0  0  0  0  0  0  0  0  0  0  0  0
  -31.7970  -14.8460   19.7060 O   0  0  0  0  0  0  0  0  0  0  0  0
  -29.9050  -15.5910   20.7450 N   0  0  0  0  0  0  0  0  0  0  0  0
  -29.0170  -15.2240   21.0550 H   0  0  0  0  0  0  0  0  0  0  0  0
  -25.2930  -13.9010   20.4290 C   0  0  0  0  0  0  0  0  0  0  0  0
  -24.2430  -13.1210   20.8330 C   0  0  0  0  0  0  0  0  0  0  0  0
  -24.7060  -11.7710   20.7650 C   0  0  0  0  0  0  0  0  0  0  0  0
  -26.3310  -13.0250   20.1500 N   0  0  0  0  0  0  0  0  0  0  0  0
  -25.9840  -11.7390   20.4080 N   0  0  0  0  0  0  0  0  0  0  0  0
  -23.9920  -10.5040   20.9650 C   0  0  0  0  0  0  0  0  0  0  0  0
  -24.4420   -9.5400   21.8920 C   0  0  0  0  0  3  0  0  0  0  0  0
  -23.7260   -8.3380   22.0780 C   0  0  0  0  0  3  0  0  0  0  0  0
  -22.5460   -8.0920   21.3370 C   0  0  0  0  0  0  0  0  0  0  0  0
  -22.1150   -9.0460   20.3980 C   0  0  0  0  0  3  0  0  0  0  0  0
  -22.8310  -10.2390   20.2100 C   0  0  0  0  0  3  0  0  0  0  0  0
  -21.8010   -6.9420   21.4330 O   0  0  0  0  0  0  0  0  0  0  0  0
  -21.7410   -6.2200   22.5980 C   0  0  0  0  0  0  0  0  0  0  0  0
  -21.2800   -6.7890   23.8060 C   0  0  0  0  0  3  0  0  0  0  0  0
  -21.1710   -5.9920   24.9620 C   0  0  0  0  0  3  0  0  0  0  0  0
  -21.5090   -4.6270   24.9120 C   0  0  0  0  0  0  0  0  0  0  0  0
  -21.9610   -4.0560   23.7100 C   0  0  0  0  0  3  0  0  0  0  0  0
  -22.0750   -4.8510   22.5550 C   0  0  0  0  0  0  0  0  0  0  0  0
  -22.4900   -4.2920   21.3930 F   0  0  0  0  0  0  0  0  0  0  0  0
  -21.3950   -3.8590   26.0210 F   0  0  0  0  0  0  0  0  0  0  0  0
  -22.8570  -13.5900   21.1680 C   0  0  0  0  0  0  0  0  0  0  0  0
  -22.1650  -12.8770   22.0500 N   0  0  0  0  0  0  0  0  0  0  0  0
  -22.3960  -14.6240   20.6840 O   0  0  0  0  0  0  0  0  0  0  0  0
  -22.5500  -12.0380   22.4590 H   0  0  0  0  0  0  0  0  0  0  0  0
  -21.2370  -13.1730   22.3180 H   0  0  0  0  0  0  0  0  0  0  0  0
  -25.4420  -15.2740   20.2530 N   0  0  0  0  0  0  0  0  0  0  0  0
  -24.6580  -15.9080   20.3620 H   0  0  0  0  0  0  0  0  0  0  0  0
  -26.2370  -15.7020   19.7980 H   0  0  0  0  0  0  0  0  0  0  0  0
  -28.7460  -25.8950   21.2540 C   0  0  0  0  0  2  0  0  0  0  0  0
  -28.4350  -26.6570   20.0650 O   0  0  0  0  0  0  0  0  0  0  0  0
  -24.6370  -31.8900   23.2190 C   0  0  0  0  0  0  0  0  0  0  0  0
  -27.2990  -27.4480   20.1190 C   0  0  0  0  0  0  0  0  0  0  0  0
  -23.4400  -30.4910   21.5670 C   0  0  0  0  0  3  0  0  0  0  0  0
  -24.9040  -28.9700   20.1320 C   0  0  0  0  0  0  0  0  0  0  0  0
  -25.9670  -30.8580   21.3760 C   0  0  0  0  0  2  0  0  0  0  0  0
  -26.0630  -29.4890   20.7280 C   0  0  0  0  0  0  0  0  0  0  0  0
  -27.2660  -28.7350   20.7190 C   0  0  0  0  0  3  0  0  0  0  0  0
  -26.1270  -26.9570   19.5130 C   0  0  0  0  0  3  0  0  0  0  0  0
  -24.9340  -27.7040   19.5220 C   0  0  0  0  0  3  0  0  0  0  0  0
  -23.6560  -29.8230   20.1840 C   0  0  0  0  0  2  0  0  0  0  0  0
  -24.6990  -31.0960   22.1120 N   0  0  0  0  0  0  0  0  0  0  0  0
  -23.5530  -32.1530   23.7610 O   0  0  0  0  0  0  0  0  0  0  0  0
  -22.7930  -29.4610   22.5220 C   0  0  0  0  0  0  0  0  0  0  0  0
  -21.4670  -29.2820   22.4030 N   0  0  0  0  0  0  0  0  0  0  0  0
  -23.4820  -28.8270   23.3260 O   0  0  0  0  0  0  0  0  0  0  0  0
  -20.9730  -29.8400   21.7210 H   0  0  0  0  0  0  0  0  0  0  0  0
  -18.0950  -28.0830   22.9240 C   0  0  0  0  0  0  0  0  0  0  0  0
  -20.6570  -28.3360   23.1700 C   0  0  0  0  0  3  0  0  0  0  0  0
  -20.7510  -26.9110   22.5760 C   0  0  0  0  0  2  0  0  0  0  0  0
  -19.6380  -26.6040   21.5700 C   0  0  0  0  0  2  0  0  0  0  0  0
  -18.2630  -26.7440   22.2290 C   0  0  0  0  0  2  0  0  0  0  0  0
  -19.2190  -28.8390   23.3520 C   0  0  0  0  0  0  0  0  0  0  0  0
  -19.0080  -30.0960   23.9600 C   0  0  0  0  0  3  0  0  0  0  0  0
  -17.7040  -30.5940   24.1470 C   0  0  0  0  0  3  0  0  0  0  0  0
  -16.5950  -29.8350   23.7360 C   0  0  0  0  0  3  0  0  0  0  0  0
  -16.7910  -28.5820   23.1310 C   0  0  0  0  0  3  0  0  0  0  0  0
  -25.9180  -32.5270   23.8420 C   0  0  0  0  0  3  0  0  0  0  0  0
  -25.6030  -33.9210   24.1780 N   0  0  0  0  0  0  0  0  0  0  0  0
  -25.9280  -34.9790   23.4230 C   0  0  0  0  0  0  0  0  0  0  0  0
  -26.6000  -34.8830   22.3920 O   0  0  0  0  0  0  0  0  0  0  0  0
  -25.0130  -34.0710   24.9830 H   0  0  0  0  0  0  0  0  0  0  0  0
  -24.1960  -36.7660   23.0690 C   0  0  0  0  0  1  0  0  0  0  0  0
  -25.4320  -36.3620   23.8860 C   0  0  0  0  0  3  0  0  0  0  0  0
  -27.5570  -37.2480   24.7410 C   0  0  0  0  0  1  0  0  0  0  0  0
  -26.4610  -37.4210   23.7910 N   0  0  0  0  0  0  0  0  0  0  0  0
  -26.0490  -38.3370   23.9490 H   0  0  0  0  0  0  0  0  0  0  0  0
  -26.4460  -31.7520   25.1120 C   0  0  1  0  0  0  0  0  0  0  0  0
  -25.3580  -31.4940   26.1790 C   0  0  0  0  0  1  0  0  0  0  0  0
  -27.0430  -30.3840   24.7100 C   0  0  0  0  0  1  0  0  0  0  0  0
  -27.5930  -32.5540   25.7730 C   0  0  0  0  0  1  0  0  0  0  0  0
  1  3  1  0
  2 52  1  0
  2  1  2  0
  4  2  1  0
  5  4  1  0
  5  6  1  0
  6 10  1  0
  6  3  1  0
  7 10  1  0
  8  7  2  0
  8 12  1  0
  9 11  1  0
 10 11  2  0
 11 13  1  0
 12 22  1  0
 12  9  2  0
 14 22  1  0
 15 20  1  0
 16 17  1  0
 16 15  1  0
 18 17  1  0
 18 27  1  0
 18 19  1  0
 20 14  1  0
 20 19  1  0
 21 14  2  0
 22 23  1  0
 24 25  2  0
 25 44  1  0
 26 25  1  0
 26 29  1  0
 27 28  1  0
 27 24  1  0
 28 26  2  0
 29 30  1  0
 30 31  2  0
 32 35  1  0
 32 31  1  0
 33 32  2  0
 34 33  1  0
 34 29  2  0
 35 36  1  0
 36 37  1  0
 37 38  2  0
 39 38  1  0
 39 43  1  0
 40 39  2  0
 41 36  2  0
 41 40  1  0
 42 41  1  0
 44 45  1  0
 45 48  1  0
 45 47  1  0
 46 44  2  0
 49 50  1  0
 49 24  1  0
 51 49  1  0
 53 55  1  0
 53 52  1  0
 54 65  2  0
 55 60  1  0
 56 64  1  0
 56 66  1  0
 57 63  1  0
 57 59  1  0
 58 64  1  0
 59 58  1  0
 60 59  2  0
 61 62  1  0
 61 55  2  0
 62 57  2  0
 63 56  1  0
 64 54  1  0
 66 68  2  0
 67 66  1  0
 69 67  1  0
 70 79  2  0
 70 75  1  0
 71 67  1  0
 71 75  1  0
 72 71  1  0
 73 74  1  0
 73 72  1  0
 74 70  1  0
 75 76  2  0
 76 77  1  0
 78 77  2  0
 79 78  1  0
 80 54  1  0
 80 81  1  0
 80 90  1  0
 81 84  1  0
 82 86  1  0
 82 81  1  0
 83 82  2  0
 86 85  1  0
 88 86  1  0
 88 89  1  0
 88 87  1  0
 90 93  1  1
 90 91  1  0
 92 90  1  0
M  ISO  4  14 100  22 100  52 101  53 101
M  END
>  <TORSDO>  (7) 
F 18

>  <SCORE>  (7) 
-14.907

>  <name>  (7) 
6

>  <ligand_id>  (7) 
6

>  <original_smiles>  (7) 
[H]C1=C(C([H])([H])Oc2c([H])c([H])c3c(c2[H])C([H])([H])N(C(=O)C([H])(N([H])C(=O)C([H])(N([H])C([H])([H])[H])C([H])([H])[H])C(C([H])([H])[H])(C([H])([H])[H])C([H])([H])[H])C([H])(C(=O)N([H])C2([H])c4c([H])c([H])c([H])c([H])c4C([H])([H])C([H])([H])C2([H])[H])C3([H])[H])C([H])([H])C([H])([H])C([H])(c2c([H])c([H])c(N([H])C(=O)N3C([H])([H])C([H])([H])C([H])([H])C([H])(n4nc(-c5c([H])c([H])c(Oc6c([H])c([H])c(F)c([H])c6F)c([H])c5[H])c(C(=O)N([H])[H])c4N([H])[H])C3([H])[H])c([H])c2C([H])([H])[H])C1([H])[H]

>  <smiles>  (7) 
[H]C1=C(C([H])([H])Oc2c([H])c([H])c3c(c2[H])C([H])([H])N(C(=O)C([H])(N([H])C(=O)C([H])(N([H])C([H])([H])[H])C([H])([H])[H])C(C([H])([H])[H])(C([H])([H])[H])C([H])([H])[H])C([H])(C(=O)N([H])C2([H])c4c([H])c([H])c([H])c([H])c4C([H])([H])C([H])([H])C2([H])[H])C3([H])[H])C([H])([H])C([H])([H])C([H])(c2c([H])c([H])c(N([H])C(=O)N3C([H])([H])C([H])([H])C([H])([H])C([H])(n4nc(-c5c([H])c([H])c(Oc6c([H])c([H])c(F)c([H])c6F)c([H])c5[H])c(C(=O)N([H])[H])c4N([H])[H])C3([H])[H])c([H])c2C([H])([H])[H])C1([H])[H]

$$$$
7:0:0
     RDKit          3D

 94103  0  0  1  0  0  0  0  0999 V2000
  -30.7400  -18.0900   21.0050 C   0  0  0  0  0  3  0  0  0  0  0  0
  -29.7540  -17.2350   20.5420 C   0  0  0  0  0  0  0  0  0  0  0  0
  -29.2910  -19.8230   20.3710 C   0  0  0  0  0  0  0  0  0  0  0  0
  -27.8880  -23.1540   18.9490 C   0  0  0  0  0  2  0  0  0  0  0  0
  -27.8850  -21.5970   19.0700 C   0  0  0  0  0  2  0  0  0  0  0  0
  -29.1110  -22.5020   20.7860 C   0  0  0  0  0  2  0  0  0  0  0  0
  -28.0740  -23.6770   20.3830 C   0  0  2  0  0  0  0  0  0  0  0  0
  -30.4630  -19.4910   20.9370 N   0  0  0  0  0  0  0  0  0  0  0  0
  -28.8080  -21.1750   20.1340 N   0  0  0  0  0  0  0  0  0  0  0  0
  -28.4390  -18.2960   19.9270 S   0  0  0  0  0  0  0  0  0  0  0  0
  -30.5460  -14.7740   20.4660 C   0  0  0  0  0  0  0  0  0  0  0  0
  -30.4510  -12.4590   19.5130 C   0  0  0  0  0  2  0  0  0  0  0  0
  -29.5440  -12.4960   18.2610 C   0  0  0  0  0  2  0  0  0  0  0  0
  -28.0580  -12.3280   18.6430 C   0  0  0  0  0  2  0  0  0  0  0  0
  -27.6440  -13.2420   19.8270 C   0  0  0  0  0  3  0  0  0  0  0  0
  -28.6650  -13.1650   20.9820 C   0  0  0  0  0  2  0  0  0  0  0  0
  -29.9780  -13.5210   20.4260 N   0  0  0  0  0  0  0  0  0  0  0  0
  -31.7390  -14.9320   20.1930 O   0  0  0  0  0  0  0  0  0  0  0  0
  -29.6510  -15.8310   20.5750 N   0  0  0  0  0  0  0  0  0  0  0  0
  -28.7040  -15.4980   20.6510 H   0  0  0  0  0  0  0  0  0  0  0  0
  -25.2430  -13.8690   20.4720 C   0  0  0  0  0  0  0  0  0  0  0  0
  -24.1610  -13.1110   20.8270 C   0  0  0  0  0  0  0  0  0  0  0  0
  -24.6130  -11.7560   20.8370 C   0  0  0  0  0  0  0  0  0  0  0  0
  -26.2850  -12.9760   20.2790 N   0  0  0  0  0  0  0  0  0  0  0  0
  -25.9120  -11.7020   20.5650 N   0  0  0  0  0  0  0  0  0  0  0  0
  -23.8720  -10.5030   21.0320 C   0  0  0  0  0  0  0  0  0  0  0  0
  -24.2860   -9.5380   21.9780 C   0  0  0  0  0  3  0  0  0  0  0  0
  -23.5460   -8.3500   22.1580 C   0  0  0  0  0  3  0  0  0  0  0  0
  -22.3790   -8.1190   21.3950 C   0  0  0  0  0  0  0  0  0  0  0  0
  -21.9810   -9.0700   20.4380 C   0  0  0  0  0  3  0  0  0  0  0  0
  -22.7210  -10.2500   20.2560 C   0  0  0  0  0  3  0  0  0  0  0  0
  -21.6140   -6.9810   21.4850 O   0  0  0  0  0  0  0  0  0  0  0  0
  -21.5630   -6.2370   22.6360 C   0  0  0  0  0  0  0  0  0  0  0  0
  -21.1670   -6.7990   23.8690 C   0  0  0  0  0  3  0  0  0  0  0  0
  -21.0590   -5.9840   25.0130 C   0  0  0  0  0  3  0  0  0  0  0  0
  -21.3390   -4.6060   24.9280 C   0  0  0  0  0  0  0  0  0  0  0  0
  -21.7280   -4.0430   23.6990 C   0  0  0  0  0  3  0  0  0  0  0  0
  -21.8370   -4.8560   22.5550 C   0  0  0  0  0  0  0  0  0  0  0  0
  -22.1920   -4.3030   21.3690 F   0  0  0  0  0  0  0  0  0  0  0  0
  -21.2270   -3.8220   26.0240 F   0  0  0  0  0  0  0  0  0  0  0  0
  -22.7600  -13.6030   21.0470 C   0  0  0  0  0  0  0  0  0  0  0  0
  -22.0020  -12.9360   21.9110 N   0  0  0  0  0  0  0  0  0  0  0  0
  -22.3430  -14.6170   20.4870 O   0  0  0  0  0  0  0  0  0  0  0  0
  -22.3520  -12.1200   22.3930 H   0  0  0  0  0  0  0  0  0  0  0  0
  -21.0600  -13.2540   22.0990 H   0  0  0  0  0  0  0  0  0  0  0  0
  -25.4240  -15.2370   20.2700 N   0  0  0  0  0  0  0  0  0  0  0  0
  -24.6550  -15.8950   20.3400 H   0  0  0  0  0  0  0  0  0  0  0  0
  -26.2590  -15.6530   19.8780 H   0  0  0  0  0  0  0  0  0  0  0  0
  -26.7600  -23.4670   21.1980 C   0  0  0  0  0  0  0  0  0  0  0  0
  -25.4600  -24.0740   20.6840 C   0  0  0  0  0  1  0  0  0  0  0  0
  -26.7460  -22.8470   22.2660 O   0  0  0  0  0  0  0  0  0  0  0  0
  -30.0210  -25.3800   20.8970 C   0  0  0  0  0  1  0  0  0  0  0  0
  -28.5190  -25.2630   20.6000 C   0  0  0  0  0  3  0  0  0  0  0  0
  -28.2820  -26.4220   19.6810 O   0  0  0  0  0  0  0  0  0  0  0  0
  -24.5440  -31.7300   23.0220 C   0  0  0  0  0  0  0  0  0  0  0  0
  -27.1760  -27.2810   19.8010 C   0  0  0  0  0  0  0  0  0  0  0  0
  -23.3440  -30.3660   21.3510 C   0  0  0  0  0  3  0  0  0  0  0  0
  -24.8040  -28.8820   19.8630 C   0  0  0  0  0  0  0  0  0  0  0  0
  -25.8790  -30.7190   21.1570 C   0  0  0  0  0  2  0  0  0  0  0  0
  -25.9720  -29.3550   20.4770 C   0  0  0  0  0  0  0  0  0  0  0  0
  -27.1630  -28.5620   20.4460 C   0  0  0  0  0  3  0  0  0  0  0  0
  -26.0080  -26.9000   19.1170 C   0  0  0  0  0  3  0  0  0  0  0  0
  -24.8230  -27.6600   19.1720 C   0  0  0  0  0  3  0  0  0  0  0  0
  -23.5570  -29.7420   19.9470 C   0  0  0  0  0  2  0  0  0  0  0  0
  -24.6080  -30.9550   21.9000 N   0  0  0  0  0  0  0  0  0  0  0  0
  -23.4630  -31.9740   23.5770 O   0  0  0  0  0  0  0  0  0  0  0  0
  -22.7090  -29.3060   22.2830 C   0  0  0  0  0  0  0  0  0  0  0  0
  -21.3800  -29.1290   22.1840 N   0  0  0  0  0  0  0  0  0  0  0  0
  -23.4110  -28.6490   23.0560 O   0  0  0  0  0  0  0  0  0  0  0  0
  -20.8740  -29.7100   21.5310 H   0  0  0  0  0  0  0  0  0  0  0  0
  -18.0180  -27.9170   22.7390 C   0  0  0  0  0  0  0  0  0  0  0  0
  -20.5830  -28.1570   22.9360 C   0  0  0  0  0  3  0  0  0  0  0  0
  -20.6620  -26.7540   22.2880 C   0  0  0  0  0  2  0  0  0  0  0  0
  -19.5260  -26.4840   21.2970 C   0  0  0  0  0  2  0  0  0  0  0  0
  -18.1660  -26.6000   21.9920 C   0  0  0  0  0  2  0  0  0  0  0  0
  -19.1520  -28.6550   23.1660 C   0  0  0  0  0  0  0  0  0  0  0  0
  -18.9570  -29.8880   23.8250 C   0  0  0  0  0  3  0  0  0  0  0  0
  -17.6600  -30.3830   24.0580 C   0  0  0  0  0  3  0  0  0  0  0  0
  -16.5410  -29.6410   23.6470 C   0  0  0  0  0  3  0  0  0  0  0  0
  -16.7200  -28.4090   22.9920 C   0  0  0  0  0  3  0  0  0  0  0  0
  -25.8240  -32.3630   23.6500 C   0  0  0  0  0  3  0  0  0  0  0  0
  -25.4860  -33.7340   24.0590 N   0  0  0  0  0  0  0  0  0  0  0  0
  -25.7750  -34.8330   23.3500 C   0  0  0  0  0  0  0  0  0  0  0  0
  -26.4230  -34.8020   22.3010 O   0  0  0  0  0  0  0  0  0  0  0  0
  -24.9030  -33.8290   24.8770 H   0  0  0  0  0  0  0  0  0  0  0  0
  -23.9920  -36.5950   23.1290 C   0  0  0  0  0  1  0  0  0  0  0  0
  -25.2620  -36.1820   23.8890 C   0  0  0  0  0  3  0  0  0  0  0  0
  -27.3970  -37.0770   24.7120 C   0  0  0  0  0  1  0  0  0  0  0  0
  -26.2630  -37.2690   23.8100 N   0  0  0  0  0  0  0  0  0  0  0  0
  -25.8370  -38.1650   24.0250 H   0  0  0  0  0  0  0  0  0  0  0  0
  -26.3870  -31.5400   24.8740 C   0  0  1  0  0  0  0  0  0  0  0  0
  -25.3240  -31.2290   25.9530 C   0  0  0  0  0  1  0  0  0  0  0  0
  -26.9870  -30.1930   24.4030 C   0  0  0  0  0  1  0  0  0  0  0  0
  -27.5370  -32.3240   25.5470 C   0  0  0  0  0  1  0  0  0  0  0  0
  2 19  1  0
  2  1  2  0
  3  8  2  0
  4  5  1  0
  4  7  1  0
  5  9  1  0
  7 53  1  6
  7  6  1  0
  7 49  1  0
  8  1  1  0
  9  3  1  0
  9  6  1  0
 10  3  1  0
 10  2  1  0
 11 19  1  0
 12 17  1  0
 13 14  1  0
 13 12  1  0
 15 14  1  0
 15 24  1  0
 15 16  1  0
 17 11  1  0
 17 16  1  0
 18 11  2  0
 19 20  1  0
 21 22  2  0
 22 23  1  0
 22 41  1  0
 23 26  1  0
 24 21  1  0
 24 25  1  0
 25 23  2  0
 26 27  1  0
 27 28  2  0
 29 32  1  0
 29 28  1  0
 30 29  2  0
 31 30  1  0
 31 26  2  0
 32 33  1  0
 33 34  1  0
 34 35  2  0
 36 35  1  0
 36 40  1  0
 37 36  2  0
 38 33  2  0
 38 37  1  0
 39 38  1  0
 41 42  1  0
 42 45  1  0
 42 44  1  0
 43 41  2  0
 46 47  1  0
 46 21  1  0
 48 46  1  0
 49 51  2  0
 50 49  1  0
 53 52  1  0
 54 56  1  0
 54 53  1  0
 55 66  2  0
 56 61  1  0
 57 65  1  0
 57 67  1  0
 58 64  1  0
 58 60  1  0
 59 65  1  0
 60 59  1  0
 61 60  2  0
 62 63  1  0
 62 56  2  0
 63 58  2  0
 64 57  1  0
 65 55  1  0
 67 69  2  0
 68 67  1  0
 70 68  1  0
 71 80  2  0
 71 76  1  0
 72 68  1  0
 72 76  1  0
 73 72  1  0
 74 75  1  0
 74 73  1  0
 75 71  1  0
 76 77  2  0
 77 78  1  0
 79 78  2  0
 80 79  1  0
 81 55  1  0
 81 82  1  0
 81 91  1  0
 82 85  1  0
 83 87  1  0
 83 82  1  0
 84 83  2  0
 87 86  1  0
 89 87  1  0
 89 90  1  0
 89 88  1  0
 91 94  1  1
 91 92  1  0
 93 91  1  0
M  ISO  4  11 100  19 100  53 101  54 101
M  END
>  <TORSDO>  (8) 
F 18

>  <SCORE>  (8) 
-14.478

>  <name>  (8) 
7

>  <ligand_id>  (8) 
7

>  <original_smiles>  (8) 
[H]c1nc(N2C([H])([H])C([H])([H])C(C(=O)C([H])([H])[H])(C([H])(Oc3c([H])c([H])c4c(c3[H])C([H])([H])N(C(=O)C([H])(N([H])C(=O)C([H])(N([H])C([H])([H])[H])C([H])([H])[H])C(C([H])([H])[H])(C([H])([H])[H])C([H])([H])[H])C([H])(C(=O)N([H])C3([H])c5c([H])c([H])c([H])c([H])c5C([H])([H])C([H])([H])C3([H])[H])C4([H])[H])C([H])([H])[H])C2([H])[H])sc1N([H])C(=O)N1C([H])([H])C([H])([H])C([H])([H])C([H])(n2nc(-c3c([H])c([H])c(Oc4c([H])c([H])c(F)c([H])c4F)c([H])c3[H])c(C(=O)N([H])[H])c2N([H])[H])C1([H])[H]

>  <smiles>  (8) 
[H]c1nc(N2C([H])([H])C([H])([H])C(C(=O)C([H])([H])[H])(C([H])(Oc3c([H])c([H])c4c(c3[H])C([H])([H])N(C(=O)C([H])(N([H])C(=O)C([H])(N([H])C([H])([H])[H])C([H])([H])[H])C(C([H])([H])[H])(C([H])([H])[H])C([H])([H])[H])C([H])(C(=O)N([H])C3([H])c5c([H])c([H])c([H])c([H])c5C([H])([H])C([H])([H])C3([H])[H])C4([H])[H])C([H])([H])[H])C2([H])[H])sc1N([H])C(=O)N1C([H])([H])C([H])([H])C([H])([H])C([H])(n2nc(-c3c([H])c([H])c(Oc4c([H])c([H])c(F)c([H])c4F)c([H])c3[H])c(C(=O)N([H])[H])c2N([H])[H])C1([H])[H]

$$$$
8:0:0
     RDKit          3D

 96105  0  0  1  0  0  0  0  0999 V2000
  -28.5910  -22.3350   20.4420 C   0  0  0  0  0  0  0  0  0  0  0  0
  -29.6480  -21.4230   20.3350 N   0  0  0  0  0  0  0  0  0  0  0  0
  -27.4530  -21.9250   20.6750 O   0  0  0  0  0  0  0  0  0  0  0  0
  -30.4940  -21.9570   20.1840 H   0  0  0  0  0  0  0  0  0  0  0  0
  -29.1430  -18.6730   20.3660 C   0  0  0  0  0  3  0  0  0  0  0  0
  -29.9120  -19.9280   20.4810 C   0  0  0  0  0  0  0  0  0  0  0  0
  -31.1890  -19.4650   20.7290 C   0  0  0  0  0  0  0  0  0  0  0  0
  -30.0190  -17.5640   20.5090 C   0  0  0  0  0  0  0  0  0  0  0  0
  -31.2610  -18.0780   20.7370 O   0  0  0  0  0  0  0  0  0  0  0  0
  -30.5690  -15.0100   20.3630 C   0  0  0  0  0  0  0  0  0  0  0  0
  -30.4440  -12.6790   19.3960 C   0  0  0  0  0  2  0  0  0  0  0  0
  -29.5060  -12.6590   18.1670 C   0  0  0  0  0  2  0  0  0  0  0  0
  -28.0420  -12.4530   18.5990 C   0  0  0  0  0  2  0  0  0  0  0  0
  -27.6380  -13.3690   19.7830 C   0  0  0  0  0  3  0  0  0  0  0  0
  -28.6950  -13.3580   20.9080 C   0  0  0  0  0  2  0  0  0  0  0  0
  -29.9720  -13.7590   20.3040 N   0  0  0  0  0  0  0  0  0  0  0  0
  -31.7720  -15.0880   20.0910 O   0  0  0  0  0  0  0  0  0  0  0  0
  -29.7560  -16.1590   20.4860 N   0  0  0  0  0  0  0  0  0  0  0  0
  -28.7780  -15.9250   20.5530 H   0  0  0  0  0  0  0  0  0  0  0  0
  -25.2540  -13.9380   20.5260 C   0  0  0  0  0  0  0  0  0  0  0  0
  -24.1920  -13.1580   20.8930 C   0  0  0  0  0  0  0  0  0  0  0  0
  -24.6620  -11.8090   20.8540 C   0  0  0  0  0  0  0  0  0  0  0  0
  -26.3010  -13.0650   20.2800 N   0  0  0  0  0  0  0  0  0  0  0  0
  -25.9530  -11.7790   20.5440 N   0  0  0  0  0  0  0  0  0  0  0  0
  -23.9400  -10.5420   21.0360 C   0  0  0  0  0  0  0  0  0  0  0  0
  -24.3640   -9.5790   21.9770 C   0  0  0  0  0  3  0  0  0  0  0  0
  -23.6410   -8.3780   22.1470 C   0  0  0  0  0  3  0  0  0  0  0  0
  -22.4800   -8.1330   21.3760 C   0  0  0  0  0  0  0  0  0  0  0  0
  -22.0760   -9.0870   20.4250 C   0  0  0  0  0  3  0  0  0  0  0  0
  -22.8000  -10.2780   20.2530 C   0  0  0  0  0  3  0  0  0  0  0  0
  -21.7290   -6.9850   21.4560 O   0  0  0  0  0  0  0  0  0  0  0  0
  -21.6490   -6.2580   22.6160 C   0  0  0  0  0  0  0  0  0  0  0  0
  -21.1410   -6.8130   23.8110 C   0  0  0  0  0  3  0  0  0  0  0  0
  -21.0100   -6.0090   24.9610 C   0  0  0  0  0  3  0  0  0  0  0  0
  -21.3760   -4.6510   24.9170 C   0  0  0  0  0  0  0  0  0  0  0  0
  -21.8770   -4.0950   23.7270 C   0  0  0  0  0  3  0  0  0  0  0  0
  -22.0090   -4.8960   22.5790 C   0  0  0  0  0  0  0  0  0  0  0  0
  -22.4720   -4.3490   21.4290 F   0  0  0  0  0  0  0  0  0  0  0  0
  -21.2440   -3.8770   26.0190 F   0  0  0  0  0  0  0  0  0  0  0  0
  -22.7930  -13.6280   21.1650 C   0  0  0  0  0  0  0  0  0  0  0  0
  -22.0690  -12.9270   22.0290 N   0  0  0  0  0  0  0  0  0  0  0  0
  -22.3520  -14.6530   20.6470 O   0  0  0  0  0  0  0  0  0  0  0  0
  -22.4390  -12.0970   22.4690 H   0  0  0  0  0  0  0  0  0  0  0  0
  -21.1300  -13.2240   22.2570 H   0  0  0  0  0  0  0  0  0  0  0  0
  -25.4090  -15.3110   20.3520 N   0  0  0  0  0  0  0  0  0  0  0  0
  -24.6280  -15.9510   20.4540 H   0  0  0  0  0  0  0  0  0  0  0  0
  -26.2350  -15.7550   19.9740 H   0  0  0  0  0  0  0  0  0  0  0  0
  -34.5480  -20.0250   21.5690 C   0  0  0  0  0  2  0  0  0  0  0  0
  -33.2250  -19.8870   22.3290 C   0  0  0  0  0  2  0  0  0  0  0  0
  -33.7700  -19.7320   20.2800 C   0  0  0  0  0  2  0  0  0  0  0  0
  -32.4860  -20.1620   21.0090 C   0  0  0  0  0  3  0  0  0  0  0  0
  -28.0240  -24.9130   20.3870 C   0  0  0  0  0  3  0  0  0  0  0  0
  -28.9200  -23.8350   20.2610 C   0  0  0  0  0  0  0  0  0  0  0  0
  -30.1920  -24.1310   19.9560 O   0  0  0  0  0  0  0  0  0  0  0  0
  -30.2410  -25.0740   19.8660 H   0  0  0  0  0  0  0  0  0  0  0  0
  -28.2530  -26.3460   20.2430 O   0  0  0  0  0  0  0  0  0  0  0  0
  -24.5960  -31.9630   23.2520 C   0  0  0  0  0  0  0  0  0  0  0  0
  -27.1790  -27.2950   20.2120 C   0  0  0  0  0  0  0  0  0  0  0  0
  -23.3930  -30.5730   21.6070 C   0  0  0  0  0  3  0  0  0  0  0  0
  -24.8420  -29.0050   20.1790 C   0  0  0  0  0  0  0  0  0  0  0  0
  -25.9440  -30.8490   21.4410 C   0  0  0  0  0  2  0  0  0  0  0  0
  -26.0160  -29.4610   20.7930 C   0  0  0  0  0  0  0  0  0  0  0  0
  -27.1840  -28.6180   20.7980 C   0  0  0  0  0  3  0  0  0  0  0  0
  -25.9850  -26.9340   19.5510 C   0  0  0  0  0  3  0  0  0  0  0  0
  -24.8340  -27.7530   19.5450 C   0  0  0  0  0  3  0  0  0  0  0  0
  -23.6130  -29.9000   20.2260 C   0  0  0  0  0  2  0  0  0  0  0  0
  -24.6640  -31.1490   22.1550 N   0  0  0  0  0  0  0  0  0  0  0  0
  -23.5120  -32.2430   23.7840 O   0  0  0  0  0  0  0  0  0  0  0  0
  -22.7210  -29.5600   22.5660 C   0  0  0  0  0  0  0  0  0  0  0  0
  -21.3950  -29.3800   22.4340 N   0  0  0  0  0  0  0  0  0  0  0  0
  -23.3930  -28.9390   23.3930 O   0  0  0  0  0  0  0  0  0  0  0  0
  -20.9080  -29.9330   21.7430 H   0  0  0  0  0  0  0  0  0  0  0  0
  -18.0150  -28.1830   22.9380 C   0  0  0  0  0  0  0  0  0  0  0  0
  -20.5740  -28.4400   23.2030 C   0  0  0  0  0  3  0  0  0  0  0  0
  -20.6740  -27.0100   22.6210 C   0  0  0  0  0  2  0  0  0  0  0  0
  -19.5690  -26.6940   21.6090 C   0  0  0  0  0  2  0  0  0  0  0  0
  -18.1890  -26.8360   22.2550 C   0  0  0  0  0  2  0  0  0  0  0  0
  -19.1360  -28.9430   23.3680 C   0  0  0  0  0  0  0  0  0  0  0  0
  -18.9170  -30.2010   23.9700 C   0  0  0  0  0  3  0  0  0  0  0  0
  -17.6130  -30.7010   24.1430 C   0  0  0  0  0  3  0  0  0  0  0  0
  -16.5070  -29.9390   23.7260 C   0  0  0  0  0  3  0  0  0  0  0  0
  -16.7100  -28.6820   23.1290 C   0  0  0  0  0  3  0  0  0  0  0  0
  -25.8760  -32.5940   23.8780 C   0  0  0  0  0  3  0  0  0  0  0  0
  -26.3770  -31.8320   25.1670 C   0  0  1  0  0  0  0  0  0  0  0  0
  -25.2730  -31.6100   26.2280 C   0  0  0  0  0  1  0  0  0  0  0  0
  -26.9590  -30.4490   24.7960 C   0  0  0  0  0  1  0  0  0  0  0  0
  -27.5250  -32.6270   25.8340 C   0  0  0  0  0  1  0  0  0  0  0  0
  -25.5720  -33.9970   24.1980 N   0  0  0  0  0  0  0  0  0  0  0  0
  -25.9020  -35.0450   23.4320 C   0  0  0  0  0  0  0  0  0  0  0  0
  -26.5650  -34.9320   22.3970 O   0  0  0  0  0  0  0  0  0  0  0  0
  -24.9850  -34.1570   25.0030 H   0  0  0  0  0  0  0  0  0  0  0  0
  -24.1790  -36.8450   23.0810 C   0  0  0  0  0  1  0  0  0  0  0  0
  -25.4250  -36.4400   23.8850 C   0  0  0  0  0  3  0  0  0  0  0  0
  -27.5650  -37.3270   24.7020 C   0  0  0  0  0  1  0  0  0  0  0  0
  -26.4620  -37.4870   23.7580 N   0  0  0  0  0  0  0  0  0  0  0  0
  -26.0600  -38.4110   23.8950 H   0  0  0  0  0  0  0  0  0  0  0  0
  1  3  2  0
  2  1  1  0
  2  6  1  0
  4  2  1  0
  5  6  1  0
  5  8  2  0
  6  7  2  0
  7  9  1  0
  7 51  1  0
  8  9  1  0
 10 18  1  0
 11 16  1  0
 12 13  1  0
 12 11  1  0
 14 13  1  0
 14 23  1  0
 14 15  1  0
 16 10  1  0
 16 15  1  0
 17 10  2  0
 18  8  1  0
 18 19  1  0
 20 21  2  0
 21 40  1  0
 22 21  1  0
 22 25  1  0
 23 20  1  0
 23 24  1  0
 24 22  2  0
 25 26  1  0
 26 27  2  0
 28 31  1  0
 28 27  1  0
 29 28  2  0
 30 29  1  0
 30 25  2  0
 31 32  1  0
 32 33  1  0
 33 34  2  0
 35 34  1  0
 35 39  1  0
 36 35  2  0
 37 32  2  0
 37 36  1  0
 38 37  1  0
 40 41  1  0
 41 44  1  0
 41 43  1  0
 42 40  2  0
 45 46  1  0
 45 20  1  0
 47 45  1  0
 48 49  1  0
 50 51  1  0
 50 48  1  0
 51 49  1  0
 53 52  2  0
 53  1  1  0
 54 53  1  0
 55 54  1  0
 56 52  1  0
 57 68  2  0
 58 56  1  0
 58 63  1  0
 59 67  1  0
 59 69  1  0
 60 66  1  0
 60 62  1  0
 61 67  1  0
 62 63  2  0
 62 61  1  0
 64 58  2  0
 65 64  1  0
 65 60  2  0
 66 59  1  0
 67 57  1  0
 69 71  2  0
 70 69  1  0
 72 70  1  0
 73 82  2  0
 73 78  1  0
 74 70  1  0
 74 78  1  0
 75 74  1  0
 76 77  1  0
 76 75  1  0
 77 73  1  0
 78 79  2  0
 79 80  1  0
 81 80  2  0
 82 81  1  0
 83 57  1  0
 83 88  1  0
 83 84  1  0
 84 87  1  1
 84 85  1  0
 86 84  1  0
 88 91  1  0
 89 93  1  0
 89 88  1  0
 90 89  2  0
 93 92  1  0
 95 93  1  0
 95 96  1  0
 95 94  1  0
M  ISO  4  10 100  18 100  52 101  56 101
M  END
>  <TORSDO>  (9) 
F 20

>  <SCORE>  (9) 
-14.402

>  <name>  (9) 
8

>  <ligand_id>  (9) 
8

>  <original_smiles>  (9) 
[H]OC(C(=O)N([H])c1c(C2([H])C([H])([H])C([H])([H])C2([H])[H])oc(N([H])C(=O)N2C([H])([H])C([H])([H])C([H])([H])C([H])(n3nc(-c4c([H])c([H])c(Oc5c([H])c([H])c(F)c([H])c5F)c([H])c4[H])c(C(=O)N([H])[H])c3N([H])[H])C2([H])[H])c1[H])=C([H])Oc1c([H])c([H])c2c(c1[H])C([H])([H])N(C(=O)C([H])(N([H])C(=O)C([H])(N([H])C([H])([H])[H])C([H])([H])[H])C(C([H])([H])[H])(C([H])([H])[H])C([H])([H])[H])C([H])(C(=O)N([H])C1([H])c3c([H])c([H])c([H])c([H])c3C([H])([H])C([H])([H])C1([H])[H])C2([H])[H]

>  <smiles>  (9) 
[H]OC(C(=O)N([H])c1c(C2([H])C([H])([H])C([H])([H])C2([H])[H])oc(N([H])C(=O)N2C([H])([H])C([H])([H])C([H])([H])C([H])(n3nc(-c4c([H])c([H])c(Oc5c([H])c([H])c(F)c([H])c5F)c([H])c4[H])c(C(=O)N([H])[H])c3N([H])[H])C2([H])[H])c1[H])=C([H])Oc1c([H])c([H])c2c(c1[H])C([H])([H])N(C(=O)C([H])(N([H])C(=O)C([H])(N([H])C([H])([H])[H])C([H])([H])[H])C(C([H])([H])[H])(C([H])([H])[H])C([H])([H])[H])C([H])(C(=O)N([H])C1([H])c3c([H])c([H])c([H])c([H])c3C([H])([H])C([H])([H])C1([H])[H])C2([H])[H]

$$$$
9:0:0
     RDKit          3D

 97106  0  0  1  0  0  0  0  0999 V2000
  -28.5180  -20.7040   20.2180 C   0  0  0  0  0  3  0  0  0  0  0  0
  -29.4310  -24.3940   21.1780 C   0  0  0  0  0  2  0  0  0  0  0  0
  -28.1600  -24.3720   19.1450 C   0  0  0  0  0  2  0  0  0  0  0  0
  -29.2500  -22.8390   21.3550 C   0  0  0  0  0  2  0  0  0  0  0  0
  -27.7190  -22.9030   19.3620 C   0  0  0  0  0  2  0  0  0  0  0  0
  -28.2440  -25.1260   20.4910 C   0  0  1  0  0  0  0  0  0  0  0  0
  -28.6790  -22.0830   20.1840 N   0  0  0  0  0  0  0  0  0  0  0  0
  -27.2670  -20.2800   20.0300 N   0  0  0  0  0  0  0  0  0  0  0  0
  -27.1740  -24.8400   21.2410 F   0  0  0  0  0  0  0  0  0  0  0  0
  -27.0520  -19.3100   20.2010 H   0  0  0  0  0  0  0  0  0  0  0  0
  -26.4990  -20.9310   20.0720 H   0  0  0  0  0  0  0  0  0  0  0  0
  -29.2610  -18.2250   20.4100 C   0  0  0  0  0  3  0  0  0  0  0  0
  -30.9130  -19.9950   20.6520 C   0  0  0  0  0  3  0  0  0  0  0  0
  -31.5820  -17.6420   20.7940 C   0  0  0  0  0  3  0  0  0  0  0  0
  -29.5650  -19.6380   20.4560 C   0  0  0  0  0  0  0  0  0  0  0  0
  -30.2520  -17.1990   20.5950 C   0  0  0  0  0  0  0  0  0  0  0  0
  -31.9040  -19.0120   20.8240 C   0  0  0  0  0  0  0  0  0  0  0  0
  -33.1890  -19.3930   21.0110 F   0  0  0  0  0  0  0  0  0  0  0  0
  -30.6670  -14.6630   20.3600 C   0  0  0  0  0  0  0  0  0  0  0  0
  -30.4080  -12.4270   19.3130 C   0  0  0  0  0  2  0  0  0  0  0  0
  -29.4600  -12.5530   18.1030 C   0  0  0  0  0  2  0  0  0  0  0  0
  -27.9910  -12.3990   18.5510 C   0  0  0  0  0  2  0  0  0  0  0  0
  -27.6420  -13.2740   19.7830 C   0  0  0  0  0  3  0  0  0  0  0  0
  -28.7120  -13.1480   20.8900 C   0  0  0  0  0  2  0  0  0  0  0  0
  -30.0130  -13.4630   20.2860 N   0  0  0  0  0  0  0  0  0  0  0  0
  -31.8420  -14.7630   20.0010 O   0  0  0  0  0  0  0  0  0  0  0  0
  -29.9000  -15.7730   20.6040 N   0  0  0  0  0  0  0  0  0  0  0  0
  -28.9270  -15.5650   20.7580 H   0  0  0  0  0  0  0  0  0  0  0  0
  -25.2650  -13.8700   20.5640 C   0  0  0  0  0  0  0  0  0  0  0  0
  -24.2030  -13.0920   20.9400 C   0  0  0  0  0  0  0  0  0  0  0  0
  -24.6620  -11.7430   20.8790 C   0  0  0  0  0  0  0  0  0  0  0  0
  -26.3030  -12.9900   20.2920 N   0  0  0  0  0  0  0  0  0  0  0  0
  -25.9460  -11.7040   20.5470 N   0  0  0  0  0  0  0  0  0  0  0  0
  -23.9380  -10.4780   21.0570 C   0  0  0  0  0  0  0  0  0  0  0  0
  -24.3580   -9.5120   21.9980 C   0  0  0  0  0  3  0  0  0  0  0  0
  -23.6340   -8.3110   22.1660 C   0  0  0  0  0  3  0  0  0  0  0  0
  -22.4740   -8.0690   21.3920 C   0  0  0  0  0  0  0  0  0  0  0  0
  -22.0720   -9.0230   20.4390 C   0  0  0  0  0  3  0  0  0  0  0  0
  -22.7960  -10.2150   20.2700 C   0  0  0  0  0  3  0  0  0  0  0  0
  -21.7240   -6.9200   21.4680 O   0  0  0  0  0  0  0  0  0  0  0  0
  -21.6270   -6.2010   22.6310 C   0  0  0  0  0  0  0  0  0  0  0  0
  -21.0630   -6.7520   23.8030 C   0  0  0  0  0  3  0  0  0  0  0  0
  -20.9190   -5.9540   24.9560 C   0  0  0  0  0  3  0  0  0  0  0  0
  -21.3270   -4.6060   24.9360 C   0  0  0  0  0  0  0  0  0  0  0  0
  -21.8810   -4.0550   23.7680 C   0  0  0  0  0  3  0  0  0  0  0  0
  -22.0280   -4.8500   22.6170 C   0  0  0  0  0  0  0  0  0  0  0  0
  -22.5450   -4.3080   21.4880 F   0  0  0  0  0  0  0  0  0  0  0  0
  -21.1820   -3.8380   26.0420 F   0  0  0  0  0  0  0  0  0  0  0  0
  -22.8090  -13.5670   21.2350 C   0  0  0  0  0  0  0  0  0  0  0  0
  -22.0960  -12.8640   22.1060 N   0  0  0  0  0  0  0  0  0  0  0  0
  -22.3590  -14.5930   20.7260 O   0  0  0  0  0  0  0  0  0  0  0  0
  -22.4770  -12.0400   22.5480 H   0  0  0  0  0  0  0  0  0  0  0  0
  -21.1540  -13.1510   22.3340 H   0  0  0  0  0  0  0  0  0  0  0  0
  -25.4280  -15.2440   20.4060 N   0  0  0  0  0  0  0  0  0  0  0  0
  -24.6500  -15.8840   20.5320 H   0  0  0  0  0  0  0  0  0  0  0  0
  -26.2380  -15.6790   19.9830 H   0  0  0  0  0  0  0  0  0  0  0  0
  -28.4070  -26.5910   20.3840 O   0  0  0  0  0  0  0  0  0  0  0  0
  -24.6020  -31.9410   23.3290 C   0  0  0  0  0  0  0  0  0  0  0  0
  -27.2640  -27.4010   20.3260 C   0  0  0  0  0  0  0  0  0  0  0  0
  -23.4180  -30.5470   21.6710 C   0  0  0  0  0  3  0  0  0  0  0  0
  -24.8870  -28.9910   20.2770 C   0  0  0  0  0  0  0  0  0  0  0  0
  -25.9590  -30.8700   21.5200 C   0  0  0  0  0  2  0  0  0  0  0  0
  -26.0460  -29.4890   20.8830 C   0  0  0  0  0  0  0  0  0  0  0  0
  -27.2390  -28.7100   20.8870 C   0  0  0  0  0  3  0  0  0  0  0  0
  -26.0740  -26.9510   19.7120 C   0  0  0  0  0  3  0  0  0  0  0  0
  -24.9020  -27.7210   19.6840 C   0  0  0  0  0  3  0  0  0  0  0  0
  -23.6500  -29.8630   20.2960 C   0  0  0  0  0  2  0  0  0  0  0  0
  -24.6790  -31.1320   22.2320 N   0  0  0  0  0  0  0  0  0  0  0  0
  -23.5120  -32.2240   23.8470 O   0  0  0  0  0  0  0  0  0  0  0  0
  -22.7350  -29.5360   22.6210 C   0  0  0  0  0  0  0  0  0  0  0  0
  -21.4120  -29.3620   22.4690 N   0  0  0  0  0  0  0  0  0  0  0  0
  -23.3920  -28.9150   23.4610 O   0  0  0  0  0  0  0  0  0  0  0  0
  -20.9370  -29.9180   21.7720 H   0  0  0  0  0  0  0  0  0  0  0  0
  -18.0160  -28.2120   22.9450 C   0  0  0  0  0  0  0  0  0  0  0  0
  -20.5760  -28.4330   23.2320 C   0  0  0  0  0  3  0  0  0  0  0  0
  -20.6600  -27.0050   22.6460 C   0  0  0  0  0  2  0  0  0  0  0  0
  -19.5570  -26.7030   21.6220 C   0  0  0  0  0  2  0  0  0  0  0  0
  -18.1750  -26.8670   22.2610 C   0  0  0  0  0  2  0  0  0  0  0  0
  -19.1450  -28.9550   23.3880 C   0  0  0  0  0  0  0  0  0  0  0  0
  -18.9410  -30.2150   23.9880 C   0  0  0  0  0  3  0  0  0  0  0  0
  -17.6460  -30.7370   24.1460 C   0  0  0  0  0  3  0  0  0  0  0  0
  -16.5310  -29.9940   23.7180 C   0  0  0  0  0  3  0  0  0  0  0  0
  -16.7190  -28.7310   23.1260 C   0  0  0  0  0  3  0  0  0  0  0  0
  -25.8810  -32.5650   23.9690 C   0  0  0  0  0  3  0  0  0  0  0  0
  -25.5840  -33.9720   24.2740 N   0  0  0  0  0  0  0  0  0  0  0  0
  -25.9090  -35.0070   23.4850 C   0  0  0  0  0  0  0  0  0  0  0  0
  -26.5680  -34.8770   22.4500 O   0  0  0  0  0  0  0  0  0  0  0  0
  -24.9980  -34.1460   25.0770 H   0  0  0  0  0  0  0  0  0  0  0  0
  -24.1790  -36.7920   23.1130 C   0  0  0  0  0  1  0  0  0  0  0  0
  -25.4330  -36.4100   23.9160 C   0  0  0  0  0  3  0  0  0  0  0  0
  -27.5760  -37.3150   24.7060 C   0  0  0  0  0  1  0  0  0  0  0  0
  -26.4690  -37.4570   23.7610 N   0  0  0  0  0  0  0  0  0  0  0  0
  -26.0650  -38.3830   23.8830 H   0  0  0  0  0  0  0  0  0  0  0  0
  -26.3580  -31.8080   25.2650 C   0  0  1  0  0  0  0  0  0  0  0  0
  -25.2340  -31.5890   26.3040 C   0  0  0  0  0  1  0  0  0  0  0  0
  -26.9430  -30.4230   24.9020 C   0  0  0  0  0  1  0  0  0  0  0  0
  -27.4960  -32.6000   25.9500 C   0  0  0  0  0  1  0  0  0  0  0  0
  1  8  1  0
  1 15  1  0
  2  4  1  0
  3  5  1  0
  3  6  1  0
  5  7  1  0
  6  2  1  0
  6  9  1  1
  7  1  1  0
  7  4  1  0
  8 11  1  0
  8 10  1  0
 12 15  2  0
 12 16  1  0
 13 17  2  0
 14 17  1  0
 15 13  1  0
 16 27  1  0
 16 14  2  0
 17 18  1  0
 19 27  1  0
 20 25  1  0
 21 22  1  0
 21 20  1  0
 23 22  1  0
 23 32  1  0
 23 24  1  0
 25 19  1  0
 25 24  1  0
 26 19  2  0
 27 28  1  0
 29 30  2  0
 30 49  1  0
 31 30  1  0
 31 34  1  0
 32 33  1  0
 32 29  1  0
 33 31  2  0
 34 35  1  0
 35 36  2  0
 37 40  1  0
 37 36  1  0
 38 37  2  0
 39 38  1  0
 39 34  2  0
 40 41  1  0
 41 42  1  0
 42 43  2  0
 44 43  1  0
 44 48  1  0
 45 44  2  0
 46 41  2  0
 46 45  1  0
 47 46  1  0
 49 50  1  0
 50 53  1  0
 50 52  1  0
 51 49  2  0
 54 55  1  0
 54 29  1  0
 56 54  1  0
 57  6  1  0
 58 69  2  0
 59 57  1  0
 59 64  1  0
 60 68  1  0
 60 70  1  0
 61 67  1  0
 61 63  1  0
 62 68  1  0
 63 64  2  0
 63 62  1  0
 65 59  2  0
 66 65  1  0
 66 61  2  0
 67 60  1  0
 68 58  1  0
 70 72  2  0
 71 70  1  0
 73 71  1  0
 74 83  2  0
 74 79  1  0
 75 71  1  0
 75 79  1  0
 76 75  1  0
 77 78  1  0
 77 76  1  0
 78 74  1  0
 79 80  2  0
 80 81  1  0
 82 81  2  0
 83 82  1  0
 84 58  1  0
 84 85  1  0
 84 94  1  0
 85 88  1  0
 86 90  1  0
 86 85  1  0
 87 86  2  0
 90 89  1  0
 92 93  1  0
 92 90  1  0
 92 91  1  0
 94 97  1  1
 94 95  1  0
 96 94  1  0
M  ISO  4   6 101  19 100  27 100  57 101
M  END
>  <TORSDO>  (10) 
F 17

>  <SCORE>  (10) 
-15.553

>  <name>  (10) 
9

>  <ligand_id>  (10) 
9

>  <original_smiles>  (10) 
[H]c1c([H])c([H])c2c(c1[H])C([H])([H])C([H])([H])C([H])([H])C2([H])N([H])C(=O)C1([H])N(C(=O)C([H])(N([H])C(=O)C([H])(N([H])C([H])([H])[H])C([H])([H])[H])C(C([H])([H])[H])(C([H])([H])[H])C([H])([H])[H])C([H])([H])c2c([H])c(OC3(F)C([H])([H])C([H])([H])N(C(c4c([H])c(F)c([H])c(N([H])C(=O)N5C([H])([H])C([H])([H])C([H])([H])C([H])(n6nc(-c7c([H])c([H])c(Oc8c([H])c([H])c(F)c([H])c8F)c([H])c7[H])c(C(=O)N([H])[H])c6N([H])[H])C5([H])[H])c4[H])=[N+]([H])[H])C([H])([H])C3([H])[H])c([H])c([H])c2C1([H])[H]

>  <smiles>  (10) 
[H]c1c([H])c([H])c2c(c1[H])C([H])([H])C([H])([H])C([H])([H])C2([H])N([H])C(=O)C1([H])N(C(=O)C([H])(N([H])C(=O)C([H])(N([H])C([H])([H])[H])C([H])([H])[H])C(C([H])([H])[H])(C([H])([H])[H])C([H])([H])[H])C([H])([H])c2c([H])c(OC3(F)C([H])([H])C([H])([H])N(C(c4c([H])c(F)c([H])c(N([H])C(=O)N5C([H])([H])C([H])([H])C([H])([H])C([H])(n6nc(-c7c([H])c([H])c(Oc8c([H])c([H])c(F)c([H])c8F)c([H])c7[H])c(C(=O)N([H])[H])c6N([H])[H])C5([H])[H])c4[H])=[N+]([H])[H])C([H])([H])C3([H])[H])c([H])c([H])c2C1([H])[H]

$$$$
10:0:0
     RDKit          3D

 94103  0  0  1  0  0  0  0  0999 V2000
  -30.8580  -14.6910   20.2440 C   0  0  0  0  0  0  0  0  0  0  0  0
  -30.5640  -12.4140   19.2770 C   0  0  0  0  0  2  0  0  0  0  0  0
  -29.6430  -12.4950   18.0410 C   0  0  0  0  0  2  0  0  0  0  0  0
  -28.1650  -12.3880   18.4590 C   0  0  0  0  0  2  0  0  0  0  0  0
  -27.8080  -13.3030   19.6620 C   0  0  0  0  0  3  0  0  0  0  0  0
  -28.8560  -13.2110   20.7900 C   0  0  0  0  0  2  0  0  0  0  0  0
  -30.1650  -13.5030   20.1980 N   0  0  0  0  0  0  0  0  0  0  0  0
  -32.0340  -14.7280   19.8700 O   0  0  0  0  0  0  0  0  0  0  0  0
  -29.1140  -20.2040   21.1710 C   0  0  0  0  0  3  0  0  0  0  0  0
  -29.8290  -20.8410   18.9620 C   0  0  0  0  0  3  0  0  0  0  0  0
  -29.4120  -18.8260   20.8960 C   0  0  0  0  0  0  0  0  0  0  0  0
  -29.9370  -18.4430   19.6490 C   0  0  0  0  0  0  0  0  0  0  0  0
  -29.3120  -21.2550   20.2170 C   0  0  0  0  0  0  0  0  0  0  0  0
  -30.1350  -19.4740   18.6860 C   0  0  0  0  0  0  0  0  0  0  0  0
  -29.1480  -17.7080   21.9010 C   0  0  0  0  0  2  0  0  0  0  0  0
  -30.2800  -16.9470   19.3340 C   0  0  0  0  0  2  0  0  0  0  0  0
  -30.0760  -16.4630   21.7520 C   0  0  0  0  0  2  0  0  0  0  0  0
  -30.1560  -15.8790   20.3950 N   0  0  0  0  0  0  0  0  0  0  0  0
  -30.6250  -19.1480   17.4650 F   0  0  0  0  0  0  0  0  0  0  0  0
  -25.4210  -13.9510   20.3400 C   0  0  0  0  0  0  0  0  0  0  0  0
  -24.3400  -13.2040   20.7260 C   0  0  0  0  0  0  0  0  0  0  0  0
  -24.7860  -11.8480   20.7520 C   0  0  0  0  0  0  0  0  0  0  0  0
  -26.4550  -13.0510   20.1500 N   0  0  0  0  0  0  0  0  0  0  0  0
  -26.0790  -11.7820   20.4590 N   0  0  0  0  0  0  0  0  0  0  0  0
  -24.0410  -10.6030   20.9840 C   0  0  0  0  0  0  0  0  0  0  0  0
  -24.4650   -9.6550   21.9420 C   0  0  0  0  0  3  0  0  0  0  0  0
  -23.7220   -8.4750   22.1590 C   0  0  0  0  0  3  0  0  0  0  0  0
  -22.5410   -8.2340   21.4180 C   0  0  0  0  0  0  0  0  0  0  0  0
  -22.1350   -9.1700   20.4510 C   0  0  0  0  0  3  0  0  0  0  0  0
  -22.8780  -10.3420   20.2330 C   0  0  0  0  0  3  0  0  0  0  0  0
  -21.7670   -7.1050   21.5440 O   0  0  0  0  0  0  0  0  0  0  0  0
  -21.7310   -6.3820   22.7090 C   0  0  0  0  0  0  0  0  0  0  0  0
  -21.3530   -6.9690   23.9370 C   0  0  0  0  0  3  0  0  0  0  0  0
  -21.2620   -6.1750   25.0970 C   0  0  0  0  0  3  0  0  0  0  0  0
  -21.5390   -4.7960   25.0310 C   0  0  0  0  0  0  0  0  0  0  0  0
  -21.9090   -4.2100   23.8080 C   0  0  0  0  0  3  0  0  0  0  0  0
  -22.0020   -5.0010   22.6500 C   0  0  0  0  0  0  0  0  0  0  0  0
  -22.3410   -4.4270   21.4690 F   0  0  0  0  0  0  0  0  0  0  0  0
  -21.4450   -4.0310   26.1440 F   0  0  0  0  0  0  0  0  0  0  0  0
  -22.9460  -13.7100   20.9640 C   0  0  0  0  0  0  0  0  0  0  0  0
  -22.2060  -13.0660   21.8590 N   0  0  0  0  0  0  0  0  0  0  0  0
  -22.5230  -14.7130   20.3900 O   0  0  0  0  0  0  0  0  0  0  0  0
  -22.5620  -12.2580   22.3460 H   0  0  0  0  0  0  0  0  0  0  0  0
  -21.2710  -13.3900   22.0630 H   0  0  0  0  0  0  0  0  0  0  0  0
  -25.6060  -15.3120   20.1130 N   0  0  0  0  0  0  0  0  0  0  0  0
  -24.8520  -15.9840   20.2030 H   0  0  0  0  0  0  0  0  0  0  0  0
  -26.4730  -15.7290   19.8000 H   0  0  0  0  0  0  0  0  0  0  0  0
  -29.0020  -22.6220   20.5580 N   0  0  0  0  0  0  0  0  0  0  0  0
  -28.6880  -22.7850   21.5100 H   0  0  0  0  0  0  0  0  0  0  0  0
  -28.9200  -23.8420   19.6750 C   0  0  0  0  0  2  0  0  0  0  0  0
  -27.5420  -25.1250   21.4460 C   0  0  0  0  0  1  0  0  0  0  0  0
  -29.9850  -25.5800   21.2120 C   0  0  0  0  0  1  0  0  0  0  0  0
  -28.7030  -25.2570   20.4300 C   0  0  1  0  0  0  0  0  0  0  0  0
  -28.5830  -26.4910   19.5960 O   0  0  0  0  0  0  0  0  0  0  0  0
  -24.7260  -31.5860   22.9960 C   0  0  0  0  0  0  0  0  0  0  0  0
  -27.4490  -27.3160   19.6490 C   0  0  0  0  0  0  0  0  0  0  0  0
  -23.5630  -30.2850   21.2480 C   0  0  0  0  0  3  0  0  0  0  0  0
  -25.0540  -28.8690   19.7270 C   0  0  0  0  0  0  0  0  0  0  0  0
  -26.0950  -30.6690   21.1120 C   0  0  0  0  0  2  0  0  0  0  0  0
  -26.2070  -29.3420   20.3680 C   0  0  0  0  0  0  0  0  0  0  0  0
  -27.4110  -28.5770   20.3190 C   0  0  0  0  0  3  0  0  0  0  0  0
  -26.2810  -26.8970   18.9800 C   0  0  0  0  0  3  0  0  0  0  0  0
  -25.0910  -27.6520   19.0260 C   0  0  0  0  0  3  0  0  0  0  0  0
  -23.8000  -29.7140   19.8250 C   0  0  0  0  0  2  0  0  0  0  0  0
  -24.8130  -30.8600   21.8430 N   0  0  0  0  0  0  0  0  0  0  0  0
  -23.6330  -31.8000   23.5410 O   0  0  0  0  0  0  0  0  0  0  0  0
  -22.9140  -29.1880   22.1270 C   0  0  0  0  0  0  0  0  0  0  0  0
  -21.5870  -29.0210   22.0040 N   0  0  0  0  0  0  0  0  0  0  0  0
  -23.6040  -28.4950   22.8790 O   0  0  0  0  0  0  0  0  0  0  0  0
  -21.0890  -29.6330   21.3730 H   0  0  0  0  0  0  0  0  0  0  0  0
  -18.2130  -27.8020   22.4660 C   0  0  0  0  0  0  0  0  0  0  0  0
  -20.7780  -28.0220   22.7050 C   0  0  0  0  0  3  0  0  0  0  0  0
  -20.8580  -26.6490   21.9980 C   0  0  0  0  0  2  0  0  0  0  0  0
  -19.7330  -26.4260   20.9830 C   0  0  0  0  0  2  0  0  0  0  0  0
  -18.3650  -26.5190   21.6660 C   0  0  0  0  0  2  0  0  0  0  0  0
  -19.3450  -28.5150   22.9400 C   0  0  0  0  0  0  0  0  0  0  0  0
  -19.1470  -29.7190   23.6500 C   0  0  0  0  0  3  0  0  0  0  0  0
  -17.8500  -30.2110   23.8890 C   0  0  0  0  0  3  0  0  0  0  0  0
  -16.7320  -29.4930   23.4310 C   0  0  0  0  0  3  0  0  0  0  0  0
  -16.9140  -28.2900   22.7250 C   0  0  0  0  0  3  0  0  0  0  0  0
  -25.9910  -32.1960   23.6730 C   0  0  0  0  0  3  0  0  0  0  0  0
  -25.6460  -33.5530   24.1190 N   0  0  0  0  0  0  0  0  0  0  0  0
  -25.9580  -34.6750   23.4570 C   0  0  0  0  0  0  0  0  0  0  0  0
  -26.6380  -34.6760   22.4270 O   0  0  0  0  0  0  0  0  0  0  0  0
  -25.0400  -33.6230   24.9240 H   0  0  0  0  0  0  0  0  0  0  0  0
  -24.1840  -36.4470   23.2490 C   0  0  0  0  0  1  0  0  0  0  0  0
  -25.4350  -36.0080   24.0260 C   0  0  0  0  0  3  0  0  0  0  0  0
  -27.5460  -36.8740   24.9360 C   0  0  0  0  0  1  0  0  0  0  0  0
  -26.4400  -37.0920   24.0060 N   0  0  0  0  0  0  0  0  0  0  0  0
  -26.0110  -37.9860   24.2280 H   0  0  0  0  0  0  0  0  0  0  0  0
  -26.5240  -31.3340   24.8820 C   0  0  1  0  0  0  0  0  0  0  0  0
  -25.4350  -30.9930   25.9280 C   0  0  0  0  0  1  0  0  0  0  0  0
  -27.1300  -30.0020   24.3810 C   0  0  0  0  0  1  0  0  0  0  0  0
  -27.6600  -32.0930   25.6080 C   0  0  0  0  0  1  0  0  0  0  0  0
  1 18  1  0
  2  7  1  0
  3  4  1  0
  3  2  1  0
  5  4  1  0
  5 23  1  0
  5  6  1  0
  7  1  1  0
  7  6  1  0
  8  1  2  0
 10 13  1  0
 11  9  1  0
 11 15  1  0
 12 11  2  0
 13 48  1  0
 13  9  2  0
 14 10  2  0
 14 12  1  0
 16 12  1  0
 16 18  1  0
 17 15  1  0
 18 17  1  0
 19 14  1  0
 20 21  2  0
 21 22  1  0
 21 40  1  0
 22 25  1  0
 23 20  1  0
 23 24  1  0
 24 22  2  0
 25 26  1  0
 26 27  2  0
 28 31  1  0
 28 27  1  0
 29 28  2  0
 30 29  1  0
 30 25  2  0
 31 32  1  0
 32 33  1  0
 33 34  2  0
 35 34  1  0
 35 39  1  0
 36 35  2  0
 37 32  2  0
 37 36  1  0
 38 37  1  0
 40 41  1  0
 41 44  1  0
 41 43  1  0
 42 40  2  0
 45 46  1  0
 45 20  1  0
 47 45  1  0
 48 49  1  0
 50 53  1  0
 50 48  1  0
 53 52  1  1
 53 51  1  0
 54 56  1  0
 54 53  1  0
 55 66  2  0
 56 61  1  0
 57 65  1  0
 57 67  1  0
 58 64  1  0
 58 60  1  0
 59 65  1  0
 60 59  1  0
 61 60  2  0
 62 63  1  0
 62 56  2  0
 63 58  2  0
 64 57  1  0
 65 55  1  0
 67 69  2  0
 68 67  1  0
 70 68  1  0
 71 80  2  0
 71 76  1  0
 72 68  1  0
 72 76  1  0
 73 72  1  0
 74 75  1  0
 74 73  1  0
 75 71  1  0
 76 77  2  0
 77 78  1  0
 79 78  2  0
 80 79  1  0
 81 55  1  0
 81 82  1  0
 81 91  1  0
 82 85  1  0
 83 87  1  0
 83 82  1  0
 84 83  2  0
 87 86  1  0
 89 87  1  0
 89 90  1  0
 89 88  1  0
 91 94  1  1
 91 92  1  0
 93 91  1  0
M  ISO  4   1 100  18 100  53 101  54 101
M  END
>  <TORSDO>  (11) 
F 18

>  <SCORE>  (11) 
-12.702

>  <name>  (11) 
10

>  <ligand_id>  (11) 
10

>  <original_smiles>  (11) 
[H]c1c([H])c([H])c2c(c1[H])C([H])([H])C([H])([H])C([H])([H])C2([H])N([H])C(=O)C1([H])N(C(=O)C([H])(N([H])C(=O)C([H])(N([H])C([H])([H])[H])C([H])([H])[H])C(C([H])([H])[H])(C([H])([H])[H])C([H])([H])[H])C([H])([H])c2c([H])c(OC(C([H])([H])[H])(C([H])([H])[H])C([H])([H])N([H])c3c([H])c(F)c4c(c3[H])C([H])([H])C([H])([H])N(C(=O)N3C([H])([H])C([H])([H])C([H])([H])C([H])(n5nc(-c6c([H])c([H])c(Oc7c([H])c([H])c(F)c([H])c7F)c([H])c6[H])c(C(=O)N([H])[H])c5N([H])[H])C3([H])[H])C4([H])[H])c([H])c([H])c2C1([H])[H]

>  <smiles>  (11) 
[H]c1c([H])c([H])c2c(c1[H])C([H])([H])C([H])([H])C([H])([H])C2([H])N([H])C(=O)C1([H])N(C(=O)C([H])(N([H])C(=O)C([H])(N([H])C([H])([H])[H])C([H])([H])[H])C(C([H])([H])[H])(C([H])([H])[H])C([H])([H])[H])C([H])([H])c2c([H])c(OC(C([H])([H])[H])(C([H])([H])[H])C([H])([H])N([H])c3c([H])c(F)c4c(c3[H])C([H])([H])C([H])([H])N(C(=O)N3C([H])([H])C([H])([H])C([H])([H])C([H])(n5nc(-c6c([H])c([H])c(Oc7c([H])c([H])c(F)c([H])c7F)c([H])c6[H])c(C(=O)N([H])[H])c5N([H])[H])C3([H])[H])C4([H])[H])c([H])c([H])c2C1([H])[H]

$$$$
11:0:0
     RDKit          3D

 95104  0  0  1  0  0  0  0  0999 V2000
  -30.7200  -17.6090   18.9580 C   0  0  0  0  0  3  0  0  0  0  0  0
  -29.2960  -18.5740   20.6360 C   0  0  0  0  0  3  0  0  0  0  0  0
  -30.8030  -18.8970   18.4020 C   0  0  0  0  0  3  0  0  0  0  0  0
  -29.9430  -17.3640   20.1080 C   0  0  0  0  0  0  0  0  0  0  0  0
  -29.4470  -19.8990   20.0230 C   0  0  0  0  0  0  0  0  0  0  0  0
  -28.3650  -22.7830   22.1620 C   0  0  0  0  0  2  0  0  0  0  0  0
  -29.2410  -21.5500   21.8560 C   0  0  0  0  0  2  0  0  0  0  0  0
  -28.1220  -23.6090   20.8500 C   0  0  1  0  0  0  0  0  0  0  0  0
  -28.7830  -22.5370   19.8060 C   0  0  2  0  0  0  0  0  0  0  0  0
  -30.1600  -23.0890   19.3550 C   0  0  0  0  0  1  0  0  0  0  0  0
  -27.8830  -22.4110   18.5540 C   0  0  0  0  0  1  0  0  0  0  0  0
  -30.1870  -19.9850   18.9030 N   0  0  0  0  0  0  0  0  0  0  0  0
  -28.9090  -21.1770   20.4970 N   0  0  0  0  0  0  0  0  0  0  0  0
  -30.5680  -14.8010   20.3600 C   0  0  0  0  0  0  0  0  0  0  0  0
  -30.3930  -12.4950   19.3970 C   0  0  0  0  0  2  0  0  0  0  0  0
  -29.4730  -12.5520   18.1560 C   0  0  0  0  0  2  0  0  0  0  0  0
  -27.9990  -12.3860   18.5690 C   0  0  0  0  0  2  0  0  0  0  0  0
  -27.6110  -13.2830   19.7730 C   0  0  0  0  0  3  0  0  0  0  0  0
  -28.6560  -13.2100   20.9080 C   0  0  0  0  0  2  0  0  0  0  0  0
  -29.9560  -13.5640   20.3310 N   0  0  0  0  0  0  0  0  0  0  0  0
  -31.7580  -14.8720   20.0310 O   0  0  0  0  0  0  0  0  0  0  0  0
  -29.8020  -15.9500   20.6030 N   0  0  0  0  0  0  0  0  0  0  0  0
  -28.9190  -15.7480   21.0500 H   0  0  0  0  0  0  0  0  0  0  0  0
  -25.2230  -13.8790   20.4980 C   0  0  0  0  0  0  0  0  0  0  0  0
  -24.1550  -13.1040   20.8640 C   0  0  0  0  0  0  0  0  0  0  0  0
  -24.6170  -11.7530   20.8320 C   0  0  0  0  0  0  0  0  0  0  0  0
  -26.2640  -12.9970   20.2590 N   0  0  0  0  0  0  0  0  0  0  0  0
  -25.9090  -11.7140   20.5290 N   0  0  0  0  0  0  0  0  0  0  0  0
  -23.8860  -10.4920   21.0200 C   0  0  0  0  0  0  0  0  0  0  0  0
  -24.3080   -9.5270   21.9610 C   0  0  0  0  0  3  0  0  0  0  0  0
  -23.5780   -8.3320   22.1370 C   0  0  0  0  0  3  0  0  0  0  0  0
  -22.4130   -8.0940   21.3710 C   0  0  0  0  0  0  0  0  0  0  0  0
  -22.0110   -9.0480   20.4170 C   0  0  0  0  0  3  0  0  0  0  0  0
  -22.7420  -10.2340   20.2410 C   0  0  0  0  0  3  0  0  0  0  0  0
  -21.6550   -6.9520   21.4530 O   0  0  0  0  0  0  0  0  0  0  0  0
  -21.5820   -6.2170   22.6100 C   0  0  0  0  0  0  0  0  0  0  0  0
  -21.1250   -6.7800   23.8210 C   0  0  0  0  0  3  0  0  0  0  0  0
  -20.9960   -5.9720   24.9690 C   0  0  0  0  0  3  0  0  0  0  0  0
  -21.3210   -4.6040   24.9090 C   0  0  0  0  0  0  0  0  0  0  0  0
  -21.7730   -4.0400   23.7040 C   0  0  0  0  0  3  0  0  0  0  0  0
  -21.9010   -4.8440   22.5560 C   0  0  0  0  0  0  0  0  0  0  0  0
  -22.3170   -4.2910   21.3910 F   0  0  0  0  0  0  0  0  0  0  0  0
  -21.1920   -3.8270   26.0090 F   0  0  0  0  0  0  0  0  0  0  0  0
  -22.7570  -13.5840   21.1240 C   0  0  0  0  0  0  0  0  0  0  0  0
  -22.0230  -12.8860   21.9840 N   0  0  0  0  0  0  0  0  0  0  0  0
  -22.3250  -14.6110   20.6030 O   0  0  0  0  0  0  0  0  0  0  0  0
  -22.3860  -12.0550   22.4260 H   0  0  0  0  0  0  0  0  0  0  0  0
  -21.0830  -13.1860   22.2000 H   0  0  0  0  0  0  0  0  0  0  0  0
  -25.3900  -15.2500   20.3280 N   0  0  0  0  0  0  0  0  0  0  0  0
  -24.6280  -15.9060   20.4610 H   0  0  0  0  0  0  0  0  0  0  0  0
  -26.2270  -15.6880   19.9640 H   0  0  0  0  0  0  0  0  0  0  0  0
  -25.8110  -24.1020   21.6110 C   0  0  0  0  0  1  0  0  0  0  0  0
  -26.7050  -23.6520   20.5870 O   0  0  0  0  0  0  0  0  0  0  0  0
  -28.6100  -25.1860   21.0350 C   0  0  0  0  0  2  0  0  0  0  0  0
  -28.4280  -26.4080   20.1740 O   0  0  0  0  0  0  0  0  0  0  0  0
  -24.6560  -31.8660   23.2670 C   0  0  0  0  0  0  0  0  0  0  0  0
  -27.3130  -27.2690   20.2590 C   0  0  0  0  0  0  0  0  0  0  0  0
  -23.4760  -30.4710   21.6080 C   0  0  0  0  0  3  0  0  0  0  0  0
  -24.9540  -28.9060   20.2120 C   0  0  0  0  0  0  0  0  0  0  0  0
  -26.0230  -30.7760   21.4680 C   0  0  0  0  0  2  0  0  0  0  0  0
  -26.1180  -29.3930   20.8230 C   0  0  0  0  0  0  0  0  0  0  0  0
  -27.3020  -28.5860   20.8350 C   0  0  0  0  0  3  0  0  0  0  0  0
  -26.1310  -26.8500   19.6210 C   0  0  0  0  0  3  0  0  0  0  0  0
  -24.9630  -27.6420   19.6000 C   0  0  0  0  0  3  0  0  0  0  0  0
  -23.7210  -29.7940   20.2310 C   0  0  0  0  0  2  0  0  0  0  0  0
  -24.7350  -31.0560   22.1710 N   0  0  0  0  0  0  0  0  0  0  0  0
  -23.5640  -32.1480   23.7850 O   0  0  0  0  0  0  0  0  0  0  0  0
  -22.7980  -29.4520   22.5530 C   0  0  0  0  0  0  0  0  0  0  0  0
  -21.4710  -29.2810   22.4140 N   0  0  0  0  0  0  0  0  0  0  0  0
  -23.4660  -28.8150   23.3730 O   0  0  0  0  0  0  0  0  0  0  0  0
  -20.9900  -29.8430   21.7270 H   0  0  0  0  0  0  0  0  0  0  0  0
  -18.0770  -28.1020   22.9110 C   0  0  0  0  0  0  0  0  0  0  0  0
  -20.6420  -28.3330   23.1660 C   0  0  0  0  0  3  0  0  0  0  0  0
  -20.7280  -26.9110   22.5670 C   0  0  0  0  0  2  0  0  0  0  0  0
  -19.6090  -26.5910   21.5710 C   0  0  0  0  0  2  0  0  0  0  0  0
  -18.2280  -26.7660   22.2100 C   0  0  0  0  0  2  0  0  0  0  0  0
  -19.2080  -28.8470   23.3420 C   0  0  0  0  0  0  0  0  0  0  0  0
  -19.0060  -30.1020   23.9540 C   0  0  0  0  0  3  0  0  0  0  0  0
  -17.7100  -30.6210   24.1290 C   0  0  0  0  0  3  0  0  0  0  0  0
  -16.5950  -29.8710   23.7170 C   0  0  0  0  0  3  0  0  0  0  0  0
  -16.7790  -28.6130   23.1180 C   0  0  0  0  0  3  0  0  0  0  0  0
  -25.9260  -32.5010   23.9070 C   0  0  0  0  0  3  0  0  0  0  0  0
  -25.6140  -33.9060   24.2140 N   0  0  0  0  0  0  0  0  0  0  0  0
  -25.9620  -34.9480   23.4480 C   0  0  0  0  0  0  0  0  0  0  0  0
  -26.6450  -34.8320   22.4260 O   0  0  0  0  0  0  0  0  0  0  0  0
  -25.0030  -34.0750   24.9980 H   0  0  0  0  0  0  0  0  0  0  0  0
  -24.2370  -36.7390   23.0610 C   0  0  0  0  0  1  0  0  0  0  0  0
  -25.4720  -36.3430   23.8860 C   0  0  0  0  0  3  0  0  0  0  0  0
  -27.5970  -37.2370   24.7240 C   0  0  0  0  0  1  0  0  0  0  0  0
  -26.5070  -37.3950   23.7680 N   0  0  0  0  0  0  0  0  0  0  0  0
  -26.0980  -38.3180   23.8980 H   0  0  0  0  0  0  0  0  0  0  0  0
  -26.4120  -31.7440   25.2040 C   0  0  1  0  0  0  0  0  0  0  0  0
  -25.2930  -31.5270   26.2480 C   0  0  0  0  0  1  0  0  0  0  0  0
  -27.0010  -30.3590   24.8470 C   0  0  0  0  0  1  0  0  0  0  0  0
  -27.5510  -32.5460   25.8770 C   0  0  0  0  0  1  0  0  0  0  0  0
  1  4  1  0
  3 12  1  0
  3  1  2  0
  4 22  1  0
  4  2  2  0
  5 13  1  0
  5  2  1  0
  7  6  1  0
  8 54  1  1
  8  6  1  0
  9 13  1  0
  9  8  1  0
  9 10  1  6
 11  9  1  0
 12  5  2  0
 13  7  1  0
 14 22  1  0
 15 20  1  0
 16 17  1  0
 16 15  1  0
 18 17  1  0
 18 27  1  0
 18 19  1  0
 20 14  1  0
 20 19  1  0
 21 14  2  0
 22 23  1  0
 24 25  2  0
 25 44  1  0
 26 25  1  0
 26 29  1  0
 27 24  1  0
 27 28  1  0
 28 26  2  0
 29 30  1  0
 30 31  2  0
 32 35  1  0
 32 31  1  0
 33 32  2  0
 34 33  1  0
 34 29  2  0
 35 36  1  0
 36 37  1  0
 37 38  2  0
 39 38  1  0
 39 43  1  0
 40 39  2  0
 41 36  2  0
 41 40  1  0
 42 41  1  0
 44 45  1  0
 45 48  1  0
 45 47  1  0
 46 44  2  0
 49 50  1  0
 49 24  1  0
 51 49  1  0
 53  8  1  0
 53 52  1  0
 55 57  1  0
 55 54  1  0
 56 67  2  0
 57 62  1  0
 58 66  1  0
 58 68  1  0
 59 65  1  0
 59 61  1  0
 60 66  1  0
 61 62  2  0
 61 60  1  0
 63 57  2  0
 64 63  1  0
 64 59  2  0
 65 58  1  0
 66 56  1  0
 68 70  2  0
 69 68  1  0
 71 69  1  0
 72 81  2  0
 72 77  1  0
 73 69  1  0
 73 77  1  0
 74 73  1  0
 75 76  1  0
 75 74  1  0
 76 72  1  0
 77 78  2  0
 78 79  1  0
 80 79  2  0
 81 80  1  0
 82 56  1  0
 82 83  1  0
 82 92  1  0
 83 86  1  0
 84 88  1  0
 84 83  1  0
 85 84  2  0
 88 87  1  0
 90 88  1  0
 90 91  1  0
 90 89  1  0
 92 95  1  1
 92 93  1  0
 94 92  1  0
M  ISO  4  14 100  22 100  54 101  55 101
M  END
>  <TORSDO>  (12) 
F 18

>  <SCORE>  (12) 
-14.990

>  <name>  (12) 
11

>  <ligand_id>  (12) 
11

>  <original_smiles>  (12) 
[H]c1nc(N2C([H])([H])C([H])([H])C(OC([H])([H])[H])(C([H])([H])Oc3c([H])c([H])c4c(c3[H])C([H])([H])N(C(=O)C([H])(N([H])C(=O)C([H])(N([H])C([H])([H])[H])C([H])([H])[H])C(C([H])([H])[H])(C([H])([H])[H])C([H])([H])[H])C([H])(C(=O)N([H])C3([H])c5c([H])c([H])c([H])c([H])c5C([H])([H])C([H])([H])C3([H])[H])C4([H])[H])C2(C([H])([H])[H])C([H])([H])[H])c([H])c(N([H])C(=O)N2C([H])([H])C([H])([H])C([H])([H])C([H])(n3nc(-c4c([H])c([H])c(Oc5c([H])c([H])c(F)c([H])c5F)c([H])c4[H])c(C(=O)N([H])[H])c3N([H])[H])C2([H])[H])c1[H]

>  <smiles>  (12) 
[H]c1nc(N2C([H])([H])C([H])([H])C(OC([H])([H])[H])(C([H])([H])Oc3c([H])c([H])c4c(c3[H])C([H])([H])N(C(=O)C([H])(N([H])C(=O)C([H])(N([H])C([H])([H])[H])C([H])([H])[H])C(C([H])([H])[H])(C([H])([H])[H])C([H])([H])[H])C([H])(C(=O)N([H])C3([H])c5c([H])c([H])c([H])c([H])c5C([H])([H])C([H])([H])C3([H])[H])C4([H])[H])C2(C([H])([H])[H])C([H])([H])[H])c([H])c(N([H])C(=O)N2C([H])([H])C([H])([H])C([H])([H])C([H])(n3nc(-c4c([H])c([H])c(Oc5c([H])c([H])c(F)c([H])c5F)c([H])c4[H])c(C(=O)N([H])[H])c3N([H])[H])C2([H])[H])c1[H]

$$$$
12:0:0
     RDKit          3D

 90 98  0  0  1  0  0  0  0  0999 V2000
  -28.8740  -22.1880   19.9550 C   0  0  0  0  0  2  0  0  0  0  0  0
  -28.9380  -23.6950   20.5410 C   0  0  0  0  0  0  0  0  0  0  0  0
  -29.7220  -23.9410   21.4630 O   0  0  0  0  0  0  0  0  0  0  0  0
  -27.9860  -24.8660   19.9790 C   0  0  0  0  0  2  0  0  0  0  0  0
  -28.2590  -26.3220   20.3030 O   0  0  0  0  0  0  0  0  0  0  0  0
  -24.5880  -31.8740   23.2420 C   0  0  0  0  0  0  0  0  0  0  0  0
  -27.1830  -27.2480   20.2100 C   0  0  0  0  0  0  0  0  0  0  0  0
  -23.3900  -30.4860   21.5910 C   0  0  0  0  0  3  0  0  0  0  0  0
  -24.8430  -28.9270   20.1680 C   0  0  0  0  0  0  0  0  0  0  0  0
  -25.9380  -30.7730   21.4330 C   0  0  0  0  0  2  0  0  0  0  0  0
  -26.0120  -29.3890   20.7840 C   0  0  0  0  0  0  0  0  0  0  0  0
  -27.1850  -28.5630   20.7960 C   0  0  0  0  0  3  0  0  0  0  0  0
  -25.9910  -26.8690   19.5470 C   0  0  0  0  0  3  0  0  0  0  0  0
  -24.8380  -27.6760   19.5390 C   0  0  0  0  0  3  0  0  0  0  0  0
  -23.6130  -29.8150   20.2100 C   0  0  0  0  0  2  0  0  0  0  0  0
  -24.6560  -31.0630   22.1440 N   0  0  0  0  0  0  0  0  0  0  0  0
  -23.5000  -32.1560   23.7670 O   0  0  0  0  0  0  0  0  0  0  0  0
  -22.7110  -29.4720   22.5450 C   0  0  0  0  0  0  0  0  0  0  0  0
  -21.3840  -29.2990   22.4060 N   0  0  0  0  0  0  0  0  0  0  0  0
  -23.3780  -28.8450   23.3710 O   0  0  0  0  0  0  0  0  0  0  0  0
  -20.9040  -29.8560   21.7130 H   0  0  0  0  0  0  0  0  0  0  0  0
  -17.9990  -28.1110   22.8850 C   0  0  0  0  0  0  0  0  0  0  0  0
  -20.5570  -28.3650   23.1740 C   0  0  0  0  0  3  0  0  0  0  0  0
  -20.6590  -26.9330   22.6020 C   0  0  0  0  0  2  0  0  0  0  0  0
  -19.5640  -26.6100   21.5800 C   0  0  0  0  0  2  0  0  0  0  0  0
  -18.1770  -26.7600   22.2130 C   0  0  0  0  0  2  0  0  0  0  0  0
  -19.1170  -28.8710   23.3220 C   0  0  0  0  0  0  0  0  0  0  0  0
  -18.8950  -30.1350   23.9120 C   0  0  0  0  0  3  0  0  0  0  0  0
  -17.5890  -30.6370   24.0670 C   0  0  0  0  0  3  0  0  0  0  0  0
  -16.4860  -29.8760   23.6450 C   0  0  0  0  0  3  0  0  0  0  0  0
  -16.6920  -28.6140   23.0590 C   0  0  0  0  0  3  0  0  0  0  0  0
  -25.8680  -32.5000   23.8740 C   0  0  0  0  0  3  0  0  0  0  0  0
  -26.3660  -31.7300   25.1580 C   0  0  1  0  0  0  0  0  0  0  0  0
  -25.2630  -31.5040   26.2190 C   0  0  0  0  0  1  0  0  0  0  0  0
  -26.9420  -30.3460   24.7780 C   0  0  0  0  0  1  0  0  0  0  0  0
  -27.5200  -32.5160   25.8250 C   0  0  0  0  0  1  0  0  0  0  0  0
  -25.5650  -33.9020   24.1990 N   0  0  0  0  0  0  0  0  0  0  0  0
  -25.9030  -34.9520   23.4370 C   0  0  0  0  0  0  0  0  0  0  0  0
  -26.5720  -34.8390   22.4050 O   0  0  0  0  0  0  0  0  0  0  0  0
  -24.9750  -34.0620   25.0010 H   0  0  0  0  0  0  0  0  0  0  0  0
  -24.1840  -36.7540   23.0710 C   0  0  0  0  0  1  0  0  0  0  0  0
  -25.4200  -36.3440   23.8880 C   0  0  0  0  0  3  0  0  0  0  0  0
  -27.5590  -37.2210   24.7200 C   0  0  0  0  0  1  0  0  0  0  0  0
  -26.4590  -37.3920   23.7730 N   0  0  0  0  0  0  0  0  0  0  0  0
  -26.0570  -38.3160   23.9190 H   0  0  0  0  0  0  0  0  0  0  0  0
  -29.2710  -20.9980   20.8240 N   0  0  0  0  0  0  0  0  0  0  0  0
  -28.9100  -21.0770   21.7710 H   0  0  0  0  0  0  0  0  0  0  0  0
  -29.3060  -18.4330   21.0590 C   0  0  0  0  0  3  0  0  0  0  0  0
  -30.5750  -17.9710   19.2870 C   0  0  0  0  0  3  0  0  0  0  0  0
  -29.9330  -17.3360   20.3270 C   0  0  0  0  0  0  0  0  0  0  0  0
  -29.5910  -19.6360   20.4090 C   0  0  0  0  0  0  0  0  0  0  0  0
  -30.3600  -19.3520   19.3110 O   0  0  0  0  0  0  0  0  0  0  0  0
  -30.5800  -14.7720   20.1650 C   0  0  0  0  0  0  0  0  0  0  0  0
  -30.3530  -12.5020   19.1240 C   0  0  0  0  0  2  0  0  0  0  0  0
  -29.3800  -12.6020   17.9270 C   0  0  0  0  0  2  0  0  0  0  0  0
  -27.9230  -12.4250   18.3970 C   0  0  0  0  0  2  0  0  0  0  0  0
  -27.5890  -13.2890   19.6420 C   0  0  0  0  0  3  0  0  0  0  0  0
  -28.6810  -13.1750   20.7310 C   0  0  0  0  0  2  0  0  0  0  0  0
  -29.9650  -13.5370   20.1150 N   0  0  0  0  0  0  0  0  0  0  0  0
  -31.7290  -14.8990   19.7250 O   0  0  0  0  0  0  0  0  0  0  0  0
  -29.8360  -15.8680   20.5990 N   0  0  0  0  0  0  0  0  0  0  0  0
  -29.0110  -15.5920   21.1130 H   0  0  0  0  0  0  0  0  0  0  0  0
  -25.2170  -13.8730   20.4240 C   0  0  0  0  0  0  0  0  0  0  0  0
  -24.1610  -13.0980   20.8250 C   0  0  0  0  0  0  0  0  0  0  0  0
  -24.6240  -11.7470   20.7810 C   0  0  0  0  0  0  0  0  0  0  0  0
  -26.2560  -12.9940   20.1610 N   0  0  0  0  0  0  0  0  0  0  0  0
  -25.9060  -11.7110   20.4380 N   0  0  0  0  0  0  0  0  0  0  0  0
  -23.9030  -10.4840   20.9860 C   0  0  0  0  0  0  0  0  0  0  0  0
  -24.3550   -9.5170   21.9100 C   0  0  0  0  0  3  0  0  0  0  0  0
  -23.6340   -8.3180   22.1020 C   0  0  0  0  0  3  0  0  0  0  0  0
  -22.4450   -8.0790   21.3740 C   0  0  0  0  0  0  0  0  0  0  0  0
  -22.0110   -9.0360   20.4390 C   0  0  0  0  0  3  0  0  0  0  0  0
  -22.7320  -10.2260   20.2430 C   0  0  0  0  0  3  0  0  0  0  0  0
  -21.6910   -6.9350   21.4790 O   0  0  0  0  0  0  0  0  0  0  0  0
  -21.6630   -6.1940   22.6330 C   0  0  0  0  0  0  0  0  0  0  0  0
  -21.2520   -6.7490   23.8650 C   0  0  0  0  0  3  0  0  0  0  0  0
  -21.1710   -5.9340   25.0130 C   0  0  0  0  0  3  0  0  0  0  0  0
  -21.4940   -4.5670   24.9310 C   0  0  0  0  0  0  0  0  0  0  0  0
  -21.9020   -4.0120   23.7050 C   0  0  0  0  0  3  0  0  0  0  0  0
  -21.9830   -4.8240   22.5590 C   0  0  0  0  0  0  0  0  0  0  0  0
  -22.3550   -4.2790   21.3770 F   0  0  0  0  0  0  0  0  0  0  0  0
  -21.4100   -3.7830   26.0310 F   0  0  0  0  0  0  0  0  0  0  0  0
  -22.7710  -13.5750   21.1310 C   0  0  0  0  0  0  0  0  0  0  0  0
  -22.0650  -12.8790   22.0160 N   0  0  0  0  0  0  0  0  0  0  0  0
  -22.3200  -14.6000   20.6230 O   0  0  0  0  0  0  0  0  0  0  0  0
  -22.4390  -12.0480   22.4490 H   0  0  0  0  0  0  0  0  0  0  0  0
  -21.1330  -13.1820   22.2630 H   0  0  0  0  0  0  0  0  0  0  0  0
  -25.3740  -15.2450   20.2450 N   0  0  0  0  0  0  0  0  0  0  0  0
  -24.6040  -15.8950   20.3720 H   0  0  0  0  0  0  0  0  0  0  0  0
  -26.1960  -15.6850   19.8530 H   0  0  0  0  0  0  0  0  0  0  0  0
  1  2  1  0
  1 46  1  0
  2  3  2  0
  4  5  1  0
  4  2  1  0
  6 17  2  0
  7  5  1  0
  7 12  1  0
  8 16  1  0
  8 18  1  0
  9 15  1  0
  9 11  1  0
 10 16  1  0
 11 12  2  0
 11 10  1  0
 13  7  2  0
 14 13  1  0
 14  9  2  0
 15  8  1  0
 16  6  1  0
 18 20  2  0
 19 18  1  0
 21 19  1  0
 22 31  2  0
 22 27  1  0
 23 19  1  0
 23 27  1  0
 24 23  1  0
 25 26  1  0
 25 24  1  0
 26 22  1  0
 27 28  2  0
 28 29  1  0
 30 29  2  0
 31 30  1  0
 32  6  1  0
 32 37  1  0
 32 33  1  0
 33 36  1  1
 33 34  1  0
 35 33  1  0
 37 40  1  0
 38 42  1  0
 38 37  1  0
 39 38  2  0
 42 41  1  0
 44 42  1  0
 44 45  1  0
 44 43  1  0
 46 47  1  0
 49 52  1  0
 49 50  2  0
 50 61  1  0
 50 48  1  0
 51 46  1  0
 51 48  2  0
 52 51  1  0
 53 61  1  0
 54 59  1  0
 55 56  1  0
 55 54  1  0
 57 56  1  0
 57 66  1  0
 57 58  1  0
 59 53  1  0
 59 58  1  0
 60 53  2  0
 61 62  1  0
 63 64  2  0
 64 83  1  0
 65 64  1  0
 65 68  1  0
 66 63  1  0
 66 67  1  0
 67 65  2  0
 68 69  1  0
 69 70  2  0
 71 74  1  0
 71 70  1  0
 72 71  2  0
 73 72  1  0
 73 68  2  0
 74 75  1  0
 75 76  1  0
 76 77  2  0
 78 77  1  0
 78 82  1  0
 79 78  2  0
 80 75  2  0
 80 79  1  0
 81 80  1  0
 83 84  1  0
 84 87  1  0
 84 86  1  0
 85 83  2  0
 88 89  1  0
 88 63  1  0
 90 88  1  0
M  ISO  4   4 101   5 101  53 100  61 100
M  END
>  <TORSDO>  (13) 
F 20

>  <SCORE>  (13) 
-13.681

>  <name>  (13) 
12

>  <ligand_id>  (13) 
12

>  <original_smiles>  (13) 
[H]c1oc(N([H])C([H])([H])C(=O)C([H])([H])Oc2c([H])c([H])c3c(c2[H])C([H])([H])N(C(=O)C([H])(N([H])C(=O)C([H])(N([H])C([H])([H])[H])C([H])([H])[H])C(C([H])([H])[H])(C([H])([H])[H])C([H])([H])[H])C([H])(C(=O)N([H])C2([H])c4c([H])c([H])c([H])c([H])c4C([H])([H])C([H])([H])C2([H])[H])C3([H])[H])c([H])c1N([H])C(=O)N1C([H])([H])C([H])([H])C([H])([H])C([H])(n2nc(-c3c([H])c([H])c(Oc4c([H])c([H])c(F)c([H])c4F)c([H])c3[H])c(C(=O)N([H])[H])c2N([H])[H])C1([H])[H]

>  <smiles>  (13) 
[H]c1oc(N([H])C([H])([H])C(=O)C([H])([H])Oc2c([H])c([H])c3c(c2[H])C([H])([H])N(C(=O)C([H])(N([H])C(=O)C([H])(N([H])C([H])([H])[H])C([H])([H])[H])C(C([H])([H])[H])(C([H])([H])[H])C([H])([H])[H])C([H])(C(=O)N([H])C2([H])c4c([H])c([H])c([H])c([H])c4C([H])([H])C([H])([H])C2([H])[H])C3([H])[H])c([H])c1N([H])C(=O)N1C([H])([H])C([H])([H])C([H])([H])C([H])(n2nc(-c3c([H])c([H])c(Oc4c([H])c([H])c(F)c([H])c4F)c([H])c3[H])c(C(=O)N([H])[H])c2N([H])[H])C1([H])[H]

$$$$
13:0:0
     RDKit          3D

 90 99  0  0  1  0  0  0  0  0999 V2000
  -30.3910  -18.6330   19.4840 C   0  0  0  0  0  3  0  0  0  0  0  0
  -29.8730  -20.0350   19.6560 C   0  0  0  0  0  0  0  0  0  0  0  0
  -28.7680  -20.0430   20.4590 C   0  0  0  0  0  0  0  0  0  0  0  0
  -29.7100  -17.5700   20.1320 C   0  0  0  0  0  0  0  0  0  0  0  0
  -28.9320  -23.3940   19.6640 C   0  0  0  0  0  3  0  0  0  0  0  0
  -30.4660  -21.4030   19.1270 C   0  0  0  0  0  2  0  0  0  0  0  0
  -27.9300  -21.2650   20.8530 C   0  0  0  0  0  2  0  0  0  0  0  0
  -28.6060  -22.6920   21.0020 C   0  0  0  0  0  2  0  0  0  0  0  0
  -29.6520  -22.6790   18.8310 N   0  0  0  0  0  2  0  0  0  0  0  0
  -28.3750  -18.3860   20.9760 S   0  0  0  0  0  0  0  0  0  0  0  0
  -30.6030  -15.0430   19.9000 C   0  0  0  0  0  0  0  0  0  0  0  0
  -30.4580  -12.6840   18.9970 C   0  0  0  0  0  2  0  0  0  0  0  0
  -29.4500  -12.6500   17.8240 C   0  0  0  0  0  2  0  0  0  0  0  0
  -28.0120  -12.4560   18.3410 C   0  0  0  0  0  2  0  0  0  0  0  0
  -27.6790  -13.3970   19.5270 C   0  0  0  0  0  3  0  0  0  0  0  0
  -28.7950  -13.3780   20.5970 C   0  0  0  0  0  2  0  0  0  0  0  0
  -30.0460  -13.7690   19.9270 N   0  0  0  0  0  0  0  0  0  0  0  0
  -31.7640  -15.1700   19.4950 O   0  0  0  0  0  0  0  0  0  0  0  0
  -29.7570  -16.1340   20.1920 N   0  0  0  0  0  0  0  0  0  0  0  0
  -28.9080  -15.7630   20.5900 H   0  0  0  0  0  0  0  0  0  0  0  0
  -25.3610  -14.0190   20.4290 C   0  0  0  0  0  0  0  0  0  0  0  0
  -24.3010  -13.2570   20.8380 C   0  0  0  0  0  0  0  0  0  0  0  0
  -24.7230  -11.8970   20.7280 C   0  0  0  0  0  0  0  0  0  0  0  0
  -26.3630  -13.1230   20.0940 N   0  0  0  0  0  0  0  0  0  0  0  0
  -25.9910  -11.8400   20.3380 N   0  0  0  0  0  0  0  0  0  0  0  0
  -23.9750  -10.6480   20.9130 C   0  0  0  0  0  0  0  0  0  0  0  0
  -24.4280   -9.6380   21.7910 C   0  0  0  0  0  3  0  0  0  0  0  0
  -23.6790   -8.4540   21.9680 C   0  0  0  0  0  3  0  0  0  0  0  0
  -22.4640   -8.2730   21.2660 C   0  0  0  0  0  0  0  0  0  0  0  0
  -22.0290   -9.2710   20.3760 C   0  0  0  0  0  3  0  0  0  0  0  0
  -22.7780  -10.4460   20.1970 C   0  0  0  0  0  3  0  0  0  0  0  0
  -21.6840   -7.1450   21.3540 O   0  0  0  0  0  0  0  0  0  0  0  0
  -21.6660   -6.3690   22.4870 C   0  0  0  0  0  0  0  0  0  0  0  0
  -21.2770   -6.8900   23.7400 C   0  0  0  0  0  3  0  0  0  0  0  0
  -21.2060   -6.0420   24.8640 C   0  0  0  0  0  3  0  0  0  0  0  0
  -21.5130   -4.6740   24.7340 C   0  0  0  0  0  0  0  0  0  0  0  0
  -21.8960   -4.1530   23.4860 C   0  0  0  0  0  3  0  0  0  0  0  0
  -21.9690   -4.9980   22.3650 C   0  0  0  0  0  0  0  0  0  0  0  0
  -22.3180   -4.4860   21.1600 F   0  0  0  0  0  0  0  0  0  0  0  0
  -21.4380   -3.8580   25.8110 F   0  0  0  0  0  0  0  0  0  0  0  0
  -22.9370  -13.7600   21.2160 C   0  0  0  0  0  0  0  0  0  0  0  0
  -22.2460  -13.0510   22.1030 N   0  0  0  0  0  0  0  0  0  0  0  0
  -22.4960  -14.8130   20.7600 O   0  0  0  0  0  0  0  0  0  0  0  0
  -22.6160  -12.1950   22.4880 H   0  0  0  0  0  0  0  0  0  0  0  0
  -21.3360  -13.3720   22.4010 H   0  0  0  0  0  0  0  0  0  0  0  0
  -25.5490  -15.3920   20.2880 N   0  0  0  0  0  0  0  0  0  0  0  0
  -24.7930  -16.0480   20.4460 H   0  0  0  0  0  0  0  0  0  0  0  0
  -26.3600  -15.8230   19.8640 H   0  0  0  0  0  0  0  0  0  0  0  0
  -28.1190  -24.8070   19.2790 C   0  0  0  0  0  2  0  0  0  0  0  0
  -28.4130  -26.2860   19.6570 O   0  0  0  0  0  0  0  0  0  0  0  0
  -24.5860  -31.6040   23.0450 C   0  0  0  0  0  0  0  0  0  0  0  0
  -27.3260  -27.2400   19.6600 C   0  0  0  0  0  0  0  0  0  0  0  0
  -23.4230  -30.2710   21.3280 C   0  0  0  0  0  3  0  0  0  0  0  0
  -24.9160  -28.8740   19.7780 C   0  0  0  0  0  0  0  0  0  0  0  0
  -25.9590  -30.6710   21.1450 C   0  0  0  0  0  2  0  0  0  0  0  0
  -26.0860  -29.3300   20.4010 C   0  0  0  0  0  0  0  0  0  0  0  0
  -27.2880  -28.5310   20.3260 C   0  0  0  0  0  3  0  0  0  0  0  0
  -26.1190  -26.8940   19.0030 C   0  0  0  0  0  3  0  0  0  0  0  0
  -24.9460  -27.6690   19.0660 C   0  0  0  0  0  3  0  0  0  0  0  0
  -23.6510  -29.7060   19.9020 C   0  0  0  0  0  2  0  0  0  0  0  0
  -24.6760  -30.8650   21.8960 N   0  0  0  0  0  0  0  0  0  0  0  0
  -23.4950  -31.8000   23.6040 O   0  0  0  0  0  0  0  0  0  0  0  0
  -22.8070  -29.1680   22.2250 C   0  0  0  0  0  0  0  0  0  0  0  0
  -21.4850  -28.9460   22.1070 N   0  0  0  0  0  0  0  0  0  0  0  0
  -23.5190  -28.5190   22.9960 O   0  0  0  0  0  0  0  0  0  0  0  0
  -20.9620  -29.5270   21.4660 H   0  0  0  0  0  0  0  0  0  0  0  0
  -18.1640  -27.5840   22.5980 C   0  0  0  0  0  0  0  0  0  0  0  0
  -20.7190  -27.9220   22.8240 C   0  0  0  0  0  3  0  0  0  0  0  0
  -20.8570  -26.5430   22.1370 C   0  0  0  0  0  2  0  0  0  0  0  0
  -19.7400  -26.2560   21.1300 C   0  0  0  0  0  2  0  0  0  0  0  0
  -18.3720  -26.2990   21.8150 C   0  0  0  0  0  2  0  0  0  0  0  0
  -19.2660  -28.3540   23.0600 C   0  0  0  0  0  0  0  0  0  0  0  0
  -19.0150  -29.5560   23.7560 C   0  0  0  0  0  3  0  0  0  0  0  0
  -17.6970  -29.9900   23.9920 C   0  0  0  0  0  3  0  0  0  0  0  0
  -16.6110  -29.2160   23.5460 C   0  0  0  0  0  3  0  0  0  0  0  0
  -16.8450  -28.0150   22.8550 C   0  0  0  0  0  3  0  0  0  0  0  0
  -25.8430  -32.2530   23.6970 C   0  0  0  0  0  3  0  0  0  0  0  0
  -25.4900  -33.6260   24.0880 N   0  0  0  0  0  0  0  0  0  0  0  0
  -25.7560  -34.7180   23.3600 C   0  0  0  0  0  0  0  0  0  0  0  0
  -26.3940  -34.6790   22.3060 O   0  0  0  0  0  0  0  0  0  0  0  0
  -24.9220  -33.7280   24.9150 H   0  0  0  0  0  0  0  0  0  0  0  0
  -23.9400  -36.4460   23.1470 C   0  0  0  0  0  1  0  0  0  0  0  0
  -25.2330  -36.0700   23.8870 C   0  0  0  0  0  3  0  0  0  0  0  0
  -27.3630  -37.0280   24.6490 C   0  0  0  0  0  1  0  0  0  0  0  0
  -26.2130  -37.1710   23.7600 N   0  0  0  0  0  0  0  0  0  0  0  0
  -25.7730  -38.0670   23.9540 H   0  0  0  0  0  0  0  0  0  0  0  0
  -26.3800  -31.4470   24.9440 C   0  0  1  0  0  0  0  0  0  0  0  0
  -25.2930  -31.1400   26.0010 C   0  0  0  0  0  1  0  0  0  0  0  0
  -26.9990  -30.1010   24.5030 C   0  0  0  0  0  1  0  0  0  0  0  0
  -27.5100  -32.2440   25.6360 C   0  0  0  0  0  1  0  0  0  0  0  0
  1  2  1  0
  1  4  2  0
  2  3  2  0
  3  7  1  0
  3 10  1  0
  4 19  1  0
  4 10  1  0
  5 49  1  0
  5  8  1  0
  6  2  1  0
  7  8  1  0
  9  6  1  0
  9  5  1  0
 11 17  1  0
 11 19  1  0
 12 17  1  0
 13 14  1  0
 13 12  1  0
 15 14  1  0
 15 24  1  0
 15 16  1  0
 17 16  1  0
 18 11  2  0
 19 20  1  0
 21 22  2  0
 22 41  1  0
 23 22  1  0
 23 26  1  0
 24 25  1  0
 24 21  1  0
 25 23  2  0
 26 27  1  0
 27 28  2  0
 29 32  1  0
 29 28  1  0
 30 29  2  0
 31 30  1  0
 31 26  2  0
 32 33  1  0
 33 34  1  0
 34 35  2  0
 36 35  1  0
 36 40  1  0
 37 36  2  0
 38 33  2  0
 38 37  1  0
 39 38  1  0
 41 42  1  0
 42 45  1  0
 42 44  1  0
 43 41  2  0
 46 21  1  0
 46 47  1  0
 48 46  1  0
 49 50  1  0
 50 52  1  0
 51 62  2  0
 52 57  1  0
 53 61  1  0
 53 63  1  0
 54 60  1  0
 54 56  1  0
 55 61  1  0
 56 55  1  0
 57 56  2  0
 58 59  1  0
 58 52  2  0
 59 54  2  0
 60 53  1  0
 61 51  1  0
 63 65  2  0
 64 63  1  0
 66 64  1  0
 67 76  2  0
 67 72  1  0
 68 64  1  0
 68 72  1  0
 69 68  1  0
 70 71  1  0
 70 69  1  0
 71 67  1  0
 72 73  2  0
 73 74  1  0
 75 74  2  0
 76 75  1  0
 77 51  1  0
 77 78  1  0
 77 87  1  0
 78 81  1  0
 79 83  1  0
 79 78  1  0
 80 79  2  0
 83 82  1  0
 85 83  1  0
 85 86  1  0
 85 84  1  0
 87 90  1  1
 87 88  1  0
 89 87  1  0
M  ISO  4  11 100  19 100  49 101  50 101
M  END
>  <TORSDO>  (14) 
F 17

>  <SCORE>  (14) 
-13.609

>  <name>  (14) 
13

>  <ligand_id>  (14) 
13

>  <original_smiles>  (14) 
[H]c1c([H])c([H])c2c(c1[H])C([H])([H])C([H])([H])C([H])([H])C2([H])N([H])C(=O)C1([H])N(C(=O)C([H])(N([H])C(=O)C([H])(N([H])C([H])([H])[H])C([H])([H])[H])C(C([H])([H])[H])(C([H])([H])[H])C([H])([H])[H])C([H])([H])c2c([H])c(OC([H])([H])C3=NC([H])([H])c4c(sc(N([H])C(=O)N5C([H])([H])C([H])([H])C([H])([H])C([H])(n6nc(-c7c([H])c([H])c(Oc8c([H])c([H])c(F)c([H])c8F)c([H])c7[H])c(C(=O)N([H])[H])c6N([H])[H])C5([H])[H])c4[H])C([H])([H])C3([H])[H])c([H])c([H])c2C1([H])[H]

>  <smiles>  (14) 
[H]c1c([H])c([H])c2c(c1[H])C([H])([H])C([H])([H])C([H])([H])C2([H])N([H])C(=O)C1([H])N(C(=O)C([H])(N([H])C(=O)C([H])(N([H])C([H])([H])[H])C([H])([H])[H])C(C([H])([H])[H])(C([H])([H])[H])C([H])([H])[H])C([H])([H])c2c([H])c(OC([H])([H])C3=NC([H])([H])c4c(sc(N([H])C(=O)N5C([H])([H])C([H])([H])C([H])([H])C([H])(n6nc(-c7c([H])c([H])c(Oc8c([H])c([H])c(F)c([H])c8F)c([H])c7[H])c(C(=O)N([H])[H])c6N([H])[H])C5([H])[H])c4[H])C([H])([H])C3([H])[H])c([H])c([H])c2C1([H])[H]

$$$$
14:0:0
     RDKit          3D

 91 99  0  0  1  0  0  0  0  0999 V2000
  -28.9360  -21.5950   20.6860 N   0  0  0  0  0  0  0  0  0  0  0  0
  -29.0920  -21.8940   21.6460 H   0  0  0  0  0  0  0  0  0  0  0  0
  -29.2210  -18.2830   19.2450 C   0  0  0  0  0  3  0  0  0  0  0  0
  -28.8370  -19.6550   19.1040 C   0  0  0  0  0  3  0  0  0  0  0  0
  -29.7570  -18.1230   20.4980 C   0  0  0  0  0  0  0  0  0  0  0  0
  -29.1450  -20.2510   20.2960 C   0  0  0  0  0  0  0  0  0  0  0  0
  -29.7000  -19.3380   21.1600 O   0  0  0  0  0  0  0  0  0  0  0  0
  -30.4050  -16.9550   21.2400 C   0  0  0  0  0  2  0  0  0  0  0  0
  -30.6340  -14.5630   20.3890 C   0  0  0  0  0  0  0  0  0  0  0  0
  -30.3570  -12.3870   19.2390 C   0  0  0  0  0  2  0  0  0  0  0  0
  -29.3980  -12.5670   18.0430 C   0  0  0  0  0  2  0  0  0  0  0  0
  -27.9320  -12.4080   18.4910 C   0  0  0  0  0  2  0  0  0  0  0  0
  -27.5990  -13.2500   19.7510 C   0  0  0  0  0  3  0  0  0  0  0  0
  -28.6660  -13.0480   20.8480 C   0  0  0  0  0  2  0  0  0  0  0  0
  -29.9750  -13.3760   20.2620 N   0  0  0  0  0  0  0  0  0  0  0  0
  -31.7720  -14.7340   19.9410 O   0  0  0  0  0  0  0  0  0  0  0  0
  -29.9210  -15.5890   20.9150 N   0  0  0  0  0  0  0  0  0  0  0  0
  -28.9810  -15.3710   21.2060 H   0  0  0  0  0  0  0  0  0  0  0  0
  -25.2120  -13.8560   20.4870 C   0  0  0  0  0  0  0  0  0  0  0  0
  -24.1480  -13.0830   20.8690 C   0  0  0  0  0  0  0  0  0  0  0  0
  -24.6100  -11.7320   20.8350 C   0  0  0  0  0  0  0  0  0  0  0  0
  -26.2530  -12.9750   20.2450 N   0  0  0  0  0  0  0  0  0  0  0  0
  -25.8970  -11.6920   20.5150 N   0  0  0  0  0  0  0  0  0  0  0  0
  -23.8880  -10.4680   21.0330 C   0  0  0  0  0  0  0  0  0  0  0  0
  -24.3350   -9.4980   21.9580 C   0  0  0  0  0  3  0  0  0  0  0  0
  -23.6130   -8.3000   22.1440 C   0  0  0  0  0  3  0  0  0  0  0  0
  -22.4310   -8.0620   21.4050 C   0  0  0  0  0  0  0  0  0  0  0  0
  -22.0010   -9.0200   20.4690 C   0  0  0  0  0  3  0  0  0  0  0  0
  -22.7230  -10.2100   20.2820 C   0  0  0  0  0  3  0  0  0  0  0  0
  -21.6790   -6.9160   21.4990 O   0  0  0  0  0  0  0  0  0  0  0  0
  -21.6520   -6.1650   22.6470 C   0  0  0  0  0  0  0  0  0  0  0  0
  -21.2450   -6.7100   23.8840 C   0  0  0  0  0  3  0  0  0  0  0  0
  -21.1660   -5.8870   25.0240 C   0  0  0  0  0  3  0  0  0  0  0  0
  -21.4840   -4.5190   24.9280 C   0  0  0  0  0  0  0  0  0  0  0  0
  -21.8840   -3.9730   23.6970 C   0  0  0  0  0  3  0  0  0  0  0  0
  -21.9650   -4.7940   22.5580 C   0  0  0  0  0  0  0  0  0  0  0  0
  -22.3310   -4.2580   21.3690 F   0  0  0  0  0  0  0  0  0  0  0  0
  -21.4010   -3.7250   26.0220 F   0  0  0  0  0  0  0  0  0  0  0  0
  -22.7530  -13.5590   21.1540 C   0  0  0  0  0  0  0  0  0  0  0  0
  -22.0310  -12.8620   22.0250 N   0  0  0  0  0  0  0  0  0  0  0  0
  -22.3100  -14.5840   20.6370 O   0  0  0  0  0  0  0  0  0  0  0  0
  -22.4020  -12.0330   22.4640 H   0  0  0  0  0  0  0  0  0  0  0  0
  -21.0960  -13.1630   22.2560 H   0  0  0  0  0  0  0  0  0  0  0  0
  -25.3750  -15.2260   20.3060 N   0  0  0  0  0  0  0  0  0  0  0  0
  -24.6120  -15.8820   20.4170 H   0  0  0  0  0  0  0  0  0  0  0  0
  -26.2160  -15.6560   19.9390 H   0  0  0  0  0  0  0  0  0  0  0  0
  -28.7160  -22.7120   19.7320 C   0  0  0  0  0  2  0  0  0  0  0  0
  -28.5130  -24.1210   20.3860 C   0  0  0  0  0  0  0  0  0  0  0  0
  -28.3440  -24.2100   21.6070 O   0  0  0  0  0  0  0  0  0  0  0  0
  -28.5590  -25.3980   19.4840 C   0  0  0  0  0  2  0  0  0  0  0  0
  -28.4140  -26.6620   20.2050 O   0  0  0  0  0  0  0  0  0  0  0  0
  -24.5760  -31.8910   23.2470 C   0  0  0  0  0  0  0  0  0  0  0  0
  -27.2320  -27.3950   20.1770 C   0  0  0  0  0  0  0  0  0  0  0  0
  -23.3790  -30.4820   21.6050 C   0  0  0  0  0  3  0  0  0  0  0  0
  -24.8370  -28.9350   20.1910 C   0  0  0  0  0  0  0  0  0  0  0  0
  -25.9110  -30.8300   21.4180 C   0  0  0  0  0  2  0  0  0  0  0  0
  -25.9980  -29.4530   20.7750 C   0  0  0  0  0  0  0  0  0  0  0  0
  -27.1950  -28.6920   20.7600 C   0  0  0  0  0  3  0  0  0  0  0  0
  -26.0390  -26.8990   19.6030 C   0  0  0  0  0  3  0  0  0  0  0  0
  -24.8540  -27.6580   19.6040 C   0  0  0  0  0  3  0  0  0  0  0  0
  -23.5930  -29.7970   20.2300 C   0  0  0  0  0  2  0  0  0  0  0  0
  -24.6410  -31.0830   22.1480 N   0  0  0  0  0  0  0  0  0  0  0  0
  -23.4910  -32.1630   23.7800 O   0  0  0  0  0  0  0  0  0  0  0  0
  -22.7210  -29.4660   22.5680 C   0  0  0  0  0  0  0  0  0  0  0  0
  -21.3980  -29.2820   22.4370 N   0  0  0  0  0  0  0  0  0  0  0  0
  -23.4020  -28.8420   23.3880 O   0  0  0  0  0  0  0  0  0  0  0  0
  -20.9080  -29.8350   21.7470 H   0  0  0  0  0  0  0  0  0  0  0  0
  -18.0210  -28.0900   22.9360 C   0  0  0  0  0  0  0  0  0  0  0  0
  -20.5790  -28.3450   23.2100 C   0  0  0  0  0  3  0  0  0  0  0  0
  -20.6810  -26.9140   22.6320 C   0  0  0  0  0  2  0  0  0  0  0  0
  -19.5790  -26.5950   21.6170 C   0  0  0  0  0  2  0  0  0  0  0  0
  -18.1960  -26.7410   22.2600 C   0  0  0  0  0  2  0  0  0  0  0  0
  -19.1410  -28.8490   23.3670 C   0  0  0  0  0  0  0  0  0  0  0  0
  -18.9240  -30.1110   23.9600 C   0  0  0  0  0  3  0  0  0  0  0  0
  -17.6200  -30.6160   24.1260 C   0  0  0  0  0  3  0  0  0  0  0  0
  -16.5140  -29.8530   23.7130 C   0  0  0  0  0  3  0  0  0  0  0  0
  -16.7160  -28.5910   23.1240 C   0  0  0  0  0  3  0  0  0  0  0  0
  -25.8570  -32.5260   23.8720 C   0  0  0  0  0  3  0  0  0  0  0  0
  -25.5470  -33.9260   24.1860 N   0  0  0  0  0  0  0  0  0  0  0  0
  -25.8890  -34.9720   23.4220 C   0  0  0  0  0  0  0  0  0  0  0  0
  -26.5680  -34.8580   22.3970 O   0  0  0  0  0  0  0  0  0  0  0  0
  -24.9470  -34.0900   24.9820 H   0  0  0  0  0  0  0  0  0  0  0  0
  -24.1680  -36.7650   23.0370 C   0  0  0  0  0  1  0  0  0  0  0  0
  -25.4000  -36.3650   23.8630 C   0  0  0  0  0  3  0  0  0  0  0  0
  -27.5270  -37.2520   24.7110 C   0  0  0  0  0  1  0  0  0  0  0  0
  -26.4360  -37.4150   23.7530 N   0  0  0  0  0  0  0  0  0  0  0  0
  -26.0310  -38.3380   23.8910 H   0  0  0  0  0  0  0  0  0  0  0  0
  -26.3640  -31.7660   25.1590 C   0  0  1  0  0  0  0  0  0  0  0  0
  -25.2620  -31.5450   26.2210 C   0  0  0  0  0  1  0  0  0  0  0  0
  -26.9470  -30.3840   24.7840 C   0  0  0  0  0  1  0  0  0  0  0  0
  -27.5120  -32.5660   25.8200 C   0  0  0  0  0  1  0  0  0  0  0  0
  1  2  1  0
  3  5  2  0
  4  3  1  0
  4  6  2  0
  5  7  1  0
  5  8  1  0
  6  1  1  0
  6  7  1  0
  9 17  1  0
 10 15  1  0
 11 12  1  0
 11 10  1  0
 13 12  1  0
 13 22  1  0
 13 14  1  0
 15  9  1  0
 15 14  1  0
 16  9  2  0
 17 18  1  0
 17  8  1  0
 19 20  2  0
 20 39  1  0
 21 20  1  0
 21 24  1  0
 22 19  1  0
 22 23  1  0
 23 21  2  0
 24 25  1  0
 25 26  2  0
 27 30  1  0
 27 26  1  0
 28 27  2  0
 29 28  1  0
 29 24  2  0
 30 31  1  0
 31 32  1  0
 32 33  2  0
 34 33  1  0
 34 38  1  0
 35 34  2  0
 36 31  2  0
 36 35  1  0
 37 36  1  0
 39 40  1  0
 40 43  1  0
 40 42  1  0
 41 39  2  0
 44 45  1  0
 44 19  1  0
 46 44  1  0
 47 48  1  0
 47  1  1  0
 48 49  2  0
 50 51  1  0
 50 48  1  0
 52 63  2  0
 53 51  1  0
 53 58  1  0
 54 62  1  0
 54 64  1  0
 55 61  1  0
 55 57  1  0
 56 62  1  0
 57 56  1  0
 58 57  2  0
 59 60  1  0
 59 53  2  0
 60 55  2  0
 61 54  1  0
 62 52  1  0
 64 66  2  0
 65 64  1  0
 67 65  1  0
 68 77  2  0
 68 73  1  0
 69 65  1  0
 69 73  1  0
 70 69  1  0
 71 72  1  0
 71 70  1  0
 72 68  1  0
 73 74  2  0
 74 75  1  0
 76 75  2  0
 77 76  1  0
 78 52  1  0
 78 79  1  0
 78 88  1  0
 79 82  1  0
 80 84  1  0
 80 79  1  0
 81 80  2  0
 84 83  1  0
 86 84  1  0
 86 87  1  0
 86 85  1  0
 88 91  1  1
 88 89  1  0
 90 88  1  0
M  ISO  4   9 100  17 100  50 101  51 101
M  END
>  <TORSDO>  (15) 
F 21

>  <SCORE>  (15) 
-13.563

>  <name>  (15) 
14

>  <ligand_id>  (15) 
14

>  <original_smiles>  (15) 
[H]c1c(N([H])C([H])([H])C(=O)C([H])([H])Oc2c([H])c([H])c3c(c2[H])C([H])([H])N(C(=O)C([H])(N([H])C(=O)C([H])(N([H])C([H])([H])[H])C([H])([H])[H])C(C([H])([H])[H])(C([H])([H])[H])C([H])([H])[H])C([H])(C(=O)N([H])C2([H])c4c([H])c([H])c([H])c([H])c4C([H])([H])C([H])([H])C2([H])[H])C3([H])[H])oc(C([H])([H])N([H])C(=O)N2C([H])([H])C([H])([H])C([H])([H])C([H])(n3nc(-c4c([H])c([H])c(Oc5c([H])c([H])c(F)c([H])c5F)c([H])c4[H])c(C(=O)N([H])[H])c3N([H])[H])C2([H])[H])c1[H]

>  <smiles>  (15) 
[H]c1c(N([H])C([H])([H])C(=O)C([H])([H])Oc2c([H])c([H])c3c(c2[H])C([H])([H])N(C(=O)C([H])(N([H])C(=O)C([H])(N([H])C([H])([H])[H])C([H])([H])[H])C(C([H])([H])[H])(C([H])([H])[H])C([H])([H])[H])C([H])(C(=O)N([H])C2([H])c4c([H])c([H])c([H])c([H])c4C([H])([H])C([H])([H])C2([H])[H])C3([H])[H])oc(C([H])([H])N([H])C(=O)N2C([H])([H])C([H])([H])C([H])([H])C([H])(n3nc(-c4c([H])c([H])c(Oc5c([H])c([H])c(F)c([H])c5F)c([H])c4[H])c(C(=O)N([H])[H])c3N([H])[H])C2([H])[H])c1[H]

$$$$
15:0:0
     RDKit          3D

 94102  0  0  1  0  0  0  0  0999 V2000
  -29.1960  -21.0690   20.0930 C   0  0  0  0  0  0  0  0  0  0  0  0
  -28.3910  -21.0780   19.0270 N   0  0  0  0  0  4  0  0  0  0  0  0
  -29.4490  -22.2850   20.7420 N   0  0  0  0  0  0  0  0  0  0  0  0
  -27.9110  -21.9000   18.7080 H   0  0  0  0  0  0  0  0  0  0  0  0
  -28.2210  -20.2070   18.5450 H   0  0  0  0  0  0  0  0  0  0  0  0
  -29.9670  -22.1020   21.5910 H   0  0  0  0  0  0  0  0  0  0  0  0
  -31.0910  -19.3850   20.9100 C   0  0  0  0  0  3  0  0  0  0  0  0
  -31.2350  -17.9500   20.9540 C   0  0  0  0  0  3  0  0  0  0  0  0
  -29.8370  -19.7280   20.4620 C   0  0  0  0  0  0  0  0  0  0  0  0
  -30.0550  -17.3940   20.5400 C   0  0  0  0  0  0  0  0  0  0  0  0
  -29.1780  -18.4790   20.2360 O   0  0  0  0  0  0  0  0  0  0  0  0
  -30.5410  -14.8570   20.3700 C   0  0  0  0  0  0  0  0  0  0  0  0
  -30.3540  -12.5580   19.3710 C   0  0  0  0  0  2  0  0  0  0  0  0
  -29.4070  -12.5950   18.1520 C   0  0  0  0  0  2  0  0  0  0  0  0
  -27.9420  -12.4080   18.5930 C   0  0  0  0  0  2  0  0  0  0  0  0
  -27.5650  -13.3000   19.8060 C   0  0  0  0  0  3  0  0  0  0  0  0
  -28.6350  -13.2490   20.9170 C   0  0  0  0  0  2  0  0  0  0  0  0
  -29.9160  -13.6240   20.3040 N   0  0  0  0  0  0  0  0  0  0  0  0
  -31.7410  -14.9270   20.0880 O   0  0  0  0  0  0  0  0  0  0  0  0
  -29.7510  -16.0080   20.4980 N   0  0  0  0  0  0  0  0  0  0  0  0
  -28.7660  -15.8030   20.5450 H   0  0  0  0  0  0  0  0  0  0  0  0
  -25.1850  -13.8780   20.5620 C   0  0  0  0  0  0  0  0  0  0  0  0
  -24.1230  -13.1000   20.9310 C   0  0  0  0  0  0  0  0  0  0  0  0
  -24.5870  -11.7500   20.8850 C   0  0  0  0  0  0  0  0  0  0  0  0
  -26.2280  -13.0030   20.3090 N   0  0  0  0  0  0  0  0  0  0  0  0
  -25.8760  -11.7160   20.5670 N   0  0  0  0  0  0  0  0  0  0  0  0
  -23.8620  -10.4850   21.0660 C   0  0  0  0  0  0  0  0  0  0  0  0
  -24.2940   -9.5110   21.9940 C   0  0  0  0  0  3  0  0  0  0  0  0
  -23.5680   -8.3130   22.1660 C   0  0  0  0  0  3  0  0  0  0  0  0
  -22.3950   -8.0800   21.4110 C   0  0  0  0  0  0  0  0  0  0  0  0
  -21.9810   -9.0430   20.4720 C   0  0  0  0  0  3  0  0  0  0  0  0
  -22.7070  -10.2320   20.2990 C   0  0  0  0  0  3  0  0  0  0  0  0
  -21.6400   -6.9350   21.4910 O   0  0  0  0  0  0  0  0  0  0  0  0
  -21.5840   -6.1890   22.6430 C   0  0  0  0  0  0  0  0  0  0  0  0
  -21.1250   -6.7350   23.8610 C   0  0  0  0  0  3  0  0  0  0  0  0
  -21.0170   -5.9170   25.0030 C   0  0  0  0  0  3  0  0  0  0  0  0
  -21.3580   -4.5530   24.9260 C   0  0  0  0  0  0  0  0  0  0  0  0
  -21.8100   -4.0060   23.7130 C   0  0  0  0  0  3  0  0  0  0  0  0
  -21.9190   -4.8240   22.5730 C   0  0  0  0  0  0  0  0  0  0  0  0
  -22.3360   -4.2870   21.4010 F   0  0  0  0  0  0  0  0  0  0  0  0
  -21.2480   -3.7630   26.0220 F   0  0  0  0  0  0  0  0  0  0  0  0
  -22.7260  -13.5750   21.2120 C   0  0  0  0  0  0  0  0  0  0  0  0
  -22.0010  -12.8730   22.0760 N   0  0  0  0  0  0  0  0  0  0  0  0
  -22.2870  -14.6030   20.6990 O   0  0  0  0  0  0  0  0  0  0  0  0
  -22.3690  -12.0400   22.5120 H   0  0  0  0  0  0  0  0  0  0  0  0
  -21.0650  -13.1740   22.3040 H   0  0  0  0  0  0  0  0  0  0  0  0
  -25.3430  -15.2520   20.3950 N   0  0  0  0  0  0  0  0  0  0  0  0
  -24.5660  -15.8940   20.5110 H   0  0  0  0  0  0  0  0  0  0  0  0
  -26.1710  -15.7000   20.0250 H   0  0  0  0  0  0  0  0  0  0  0  0
  -29.4010  -23.8450   20.5440 C   0  0  0  0  0  2  0  0  0  0  0  0
  -27.9610  -24.4920   18.5800 C   0  0  0  0  0  1  0  0  0  0  0  0
  -26.9590  -24.2580   20.9670 C   0  0  0  0  0  1  0  0  0  0  0  0
  -28.1290  -24.7710   20.0950 C   0  0  1  0  0  0  0  0  0  0  0  0
  -28.2670  -26.3010   20.2860 O   0  0  0  0  0  0  0  0  0  0  0  0
  -24.6270  -31.9150   23.2770 C   0  0  0  0  0  0  0  0  0  0  0  0
  -27.1840  -27.2420   20.2190 C   0  0  0  0  0  0  0  0  0  0  0  0
  -23.4170  -30.5320   21.6380 C   0  0  0  0  0  3  0  0  0  0  0  0
  -24.8530  -28.9680   20.2090 C   0  0  0  0  0  0  0  0  0  0  0  0
  -25.9710  -30.7990   21.4650 C   0  0  0  0  0  2  0  0  0  0  0  0
  -26.0360  -29.4140   20.8110 C   0  0  0  0  0  0  0  0  0  0  0  0
  -27.2020  -28.5680   20.8000 C   0  0  0  0  0  3  0  0  0  0  0  0
  -25.9640  -26.8940   19.5900 C   0  0  0  0  0  3  0  0  0  0  0  0
  -24.8260  -27.7180   19.5890 C   0  0  0  0  0  3  0  0  0  0  0  0
  -23.6310  -29.8650   20.2560 C   0  0  0  0  0  2  0  0  0  0  0  0
  -24.6920  -31.1010   22.1820 N   0  0  0  0  0  0  0  0  0  0  0  0
  -23.5430  -32.1990   23.8080 O   0  0  0  0  0  0  0  0  0  0  0  0
  -22.7400  -29.5170   22.5950 C   0  0  0  0  0  0  0  0  0  0  0  0
  -21.4120  -29.3500   22.4670 N   0  0  0  0  0  0  0  0  0  0  0  0
  -23.4110  -28.8860   23.4140 O   0  0  0  0  0  0  0  0  0  0  0  0
  -20.9270  -29.9140   21.7840 H   0  0  0  0  0  0  0  0  0  0  0  0
  -18.0290  -28.1580   22.9550 C   0  0  0  0  0  0  0  0  0  0  0  0
  -20.5880  -28.4100   23.2320 C   0  0  0  0  0  3  0  0  0  0  0  0
  -20.6870  -26.9800   22.6530 C   0  0  0  0  0  2  0  0  0  0  0  0
  -19.5870  -26.6640   21.6360 C   0  0  0  0  0  2  0  0  0  0  0  0
  -18.2020  -26.8120   22.2730 C   0  0  0  0  0  2  0  0  0  0  0  0
  -19.1490  -28.9160   23.3900 C   0  0  0  0  0  0  0  0  0  0  0  0
  -18.9320  -30.1780   23.9850 C   0  0  0  0  0  3  0  0  0  0  0  0
  -17.6270  -30.6830   24.1470 C   0  0  0  0  0  3  0  0  0  0  0  0
  -16.5210  -29.9220   23.7270 C   0  0  0  0  0  3  0  0  0  0  0  0
  -16.7240  -28.6610   23.1380 C   0  0  0  0  0  3  0  0  0  0  0  0
  -25.9110  -32.5440   23.9000 C   0  0  0  0  0  3  0  0  0  0  0  0
  -26.4170  -31.7730   25.1810 C   0  0  1  0  0  0  0  0  0  0  0  0
  -25.3180  -31.5440   26.2460 C   0  0  0  0  0  1  0  0  0  0  0  0
  -26.9930  -30.3910   24.8000 C   0  0  0  0  0  1  0  0  0  0  0  0
  -27.5700  -32.5620   25.8450 C   0  0  0  0  0  1  0  0  0  0  0  0
  -25.6070  -33.9450   24.2290 N   0  0  0  0  0  0  0  0  0  0  0  0
  -25.9230  -34.9930   23.4580 C   0  0  0  0  0  0  0  0  0  0  0  0
  -26.5690  -34.8820   22.4130 O   0  0  0  0  0  0  0  0  0  0  0  0
  -25.0310  -34.1050   25.0420 H   0  0  0  0  0  0  0  0  0  0  0  0
  -24.1850  -36.7850   23.1370 C   0  0  0  0  0  1  0  0  0  0  0  0
  -25.4480  -36.3860   23.9180 C   0  0  0  0  0  3  0  0  0  0  0  0
  -27.6020  -37.2810   24.6870 C   0  0  0  0  0  1  0  0  0  0  0  0
  -26.4770  -37.4390   23.7690 N   0  0  0  0  0  0  0  0  0  0  0  0
  -26.0750  -38.3610   23.9150 H   0  0  0  0  0  0  0  0  0  0  0  0
  1  9  1  0
  1  3  1  0
  2  1  2  0
  3  6  1  0
  4  2  1  0
  5  2  1  0
  7  8  1  0
  9  7  2  0
 10  8  2  0
 11  9  1  0
 11 10  1  0
 12 20  1  0
 13 18  1  0
 14 15  1  0
 14 13  1  0
 16 15  1  0
 16 25  1  0
 16 17  1  0
 18 12  1  0
 18 17  1  0
 19 12  2  0
 20 10  1  0
 20 21  1  0
 22 23  2  0
 23 42  1  0
 24 23  1  0
 24 27  1  0
 25 22  1  0
 25 26  1  0
 26 24  2  0
 27 28  1  0
 28 29  2  0
 30 33  1  0
 30 29  1  0
 31 30  2  0
 32 31  1  0
 32 27  2  0
 33 34  1  0
 34 35  1  0
 35 36  2  0
 37 36  1  0
 37 41  1  0
 38 37  2  0
 39 34  2  0
 39 38  1  0
 40 39  1  0
 42 43  1  0
 43 46  1  0
 43 45  1  0
 44 42  2  0
 47 48  1  0
 47 22  1  0
 49 47  1  0
 50  3  1  0
 53 51  1  6
 53 54  1  0
 53 50  1  0
 53 52  1  0
 55 66  2  0
 56 54  1  0
 56 61  1  0
 57 65  1  0
 57 67  1  0
 58 64  1  0
 58 60  1  0
 59 65  1  0
 60 59  1  0
 61 60  2  0
 62 56  2  0
 63 62  1  0
 63 58  2  0
 64 57  1  0
 65 55  1  0
 67 69  2  0
 68 67  1  0
 70 68  1  0
 71 80  2  0
 71 76  1  0
 72 68  1  0
 72 76  1  0
 73 72  1  0
 74 75  1  0
 74 73  1  0
 75 71  1  0
 76 77  2  0
 77 78  1  0
 79 78  2  0
 80 79  1  0
 81 55  1  0
 81 86  1  0
 81 82  1  0
 82 85  1  1
 82 83  1  0
 84 82  1  0
 86 89  1  0
 87 91  1  0
 87 86  1  0
 88 87  2  0
 91 90  1  0
 93 94  1  0
 93 91  1  0
 93 92  1  0
M  ISO  4  12 100  20 100  53 101  54 101
M  END
>  <TORSDO>  (16) 
F 19

>  <SCORE>  (16) 
-14.390

>  <name>  (16) 
15

>  <ligand_id>  (16) 
15

>  <original_smiles>  (16) 
[H]c1c(C(N([H])[H])=[N+]([H])C([H])([H])C(Oc2c([H])c([H])c3c(c2[H])C([H])([H])N(C(=O)C([H])(N([H])C(=O)C([H])(N([H])C([H])([H])[H])C([H])([H])[H])C(C([H])([H])[H])(C([H])([H])[H])C([H])([H])[H])C([H])(C(=O)N([H])C2([H])c4c([H])c([H])c([H])c([H])c4C([H])([H])C([H])([H])C2([H])[H])C3([H])[H])(C([H])([H])[H])C([H])([H])[H])oc(N([H])C(=O)N2C([H])([H])C([H])([H])C([H])([H])C([H])(n3nc(-c4c([H])c([H])c(Oc5c([H])c([H])c(F)c([H])c5F)c([H])c4[H])c(C(=O)N([H])[H])c3N([H])[H])C2([H])[H])c1[H]

>  <smiles>  (16) 
[H]c1c(C(N([H])[H])=[N+]([H])C([H])([H])C(Oc2c([H])c([H])c3c(c2[H])C([H])([H])N(C(=O)C([H])(N([H])C(=O)C([H])(N([H])C([H])([H])[H])C([H])([H])[H])C(C([H])([H])[H])(C([H])([H])[H])C([H])([H])[H])C([H])(C(=O)N([H])C2([H])c4c([H])c([H])c([H])c([H])c4C([H])([H])C([H])([H])C2([H])[H])C3([H])[H])(C([H])([H])[H])C([H])([H])[H])oc(N([H])C(=O)N2C([H])([H])C([H])([H])C([H])([H])C([H])(n3nc(-c4c([H])c([H])c(Oc5c([H])c([H])c(F)c([H])c5F)c([H])c4[H])c(C(=O)N([H])[H])c3N([H])[H])C2([H])[H])c1[H]

$$$$
16:0:0
     RDKit          3D

102111  0  0  1  0  0  0  0  0999 V2000
  -29.2250  -21.3380   20.5630 C   0  0  0  0  0  0  0  0  0  0  0  0
  -30.2130  -20.6480   21.1560 N   0  0  0  0  0  0  0  0  0  0  0  0
  -28.4690  -20.8710   19.7070 O   0  0  0  0  0  0  0  0  0  0  0  0
  -30.7750  -21.2340   21.7590 H   0  0  0  0  0  0  0  0  0  0  0  0
  -30.1590  -18.1720   20.5410 C   0  0  0  0  0  3  0  0  0  0  0  0
  -32.3200  -17.0310   20.3880 C   0  0  0  0  0  3  0  0  0  0  0  0
  -30.9080  -16.9820   20.2910 C   0  0  0  0  0  0  0  0  0  0  0  0
  -30.8270  -19.3870   20.8780 C   0  0  0  0  0  0  0  0  0  0  0  0
  -32.2350  -19.3870   21.0030 C   0  0  0  0  0  0  0  0  0  0  0  0
  -32.9760  -18.2210   20.7370 C   0  0  0  0  0  0  0  0  0  0  0  0
  -34.3290  -18.2440   20.8470 F   0  0  0  0  0  0  0  0  0  0  0  0
  -30.8490  -14.6590   19.4040 C   0  0  0  0  0  0  0  0  0  0  0  0
  -30.4670  -12.3800   18.5240 C   0  0  0  0  0  2  0  0  0  0  0  0
  -29.3640  -12.3970   17.4480 C   0  0  0  0  0  2  0  0  0  0  0  0
  -27.9740  -12.2500   18.0950 C   0  0  0  0  0  2  0  0  0  0  0  0
  -27.7620  -13.2220   19.2860 C   0  0  0  0  0  3  0  0  0  0  0  0
  -28.9670  -13.1960   20.2540 C   0  0  0  0  0  2  0  0  0  0  0  0
  -30.1810  -13.4730   19.4700 N   0  0  0  0  0  0  0  0  0  0  0  0
  -31.8710  -14.7980   18.7270 O   0  0  0  0  0  0  0  0  0  0  0  0
  -30.2700  -15.7260   20.0030 N   0  0  0  0  0  0  0  0  0  0  0  0
  -29.3290  -15.5970   20.3430 H   0  0  0  0  0  0  0  0  0  0  0  0
  -25.5740  -13.8460   20.4830 C   0  0  0  0  0  0  0  0  0  0  0  0
  -24.5440  -13.0830   20.9640 C   0  0  0  0  0  0  0  0  0  0  0  0
  -24.9090  -11.7250   20.7150 C   0  0  0  0  0  0  0  0  0  0  0  0
  -26.5050  -12.9520   19.9770 N   0  0  0  0  0  0  0  0  0  0  0  0
  -26.1180  -11.6650   20.1730 N   0  0  0  0  0  0  0  0  0  0  0  0
  -24.1520  -10.4810   20.9080 C   0  0  0  0  0  0  0  0  0  0  0  0
  -24.6270   -9.4490   21.7490 C   0  0  0  0  0  3  0  0  0  0  0  0
  -23.8710   -8.2710   21.9340 C   0  0  0  0  0  3  0  0  0  0  0  0
  -22.6270   -8.1170   21.2790 C   0  0  0  0  0  0  0  0  0  0  0  0
  -22.1690   -9.1360   20.4260 C   0  0  0  0  0  3  0  0  0  0  0  0
  -22.9240  -10.3060   20.2390 C   0  0  0  0  0  3  0  0  0  0  0  0
  -21.8370   -6.9960   21.3780 O   0  0  0  0  0  0  0  0  0  0  0  0
  -21.7890   -6.2490   22.5280 C   0  0  0  0  0  0  0  0  0  0  0  0
  -21.3820   -6.8030   23.7610 C   0  0  0  0  0  3  0  0  0  0  0  0
  -21.2810   -5.9830   24.9030 C   0  0  0  0  0  3  0  0  0  0  0  0
  -21.5770   -4.6110   24.8130 C   0  0  0  0  0  0  0  0  0  0  0  0
  -21.9790   -4.0560   23.5850 C   0  0  0  0  0  3  0  0  0  0  0  0
  -22.0810   -4.8730   22.4450 C   0  0  0  0  0  0  0  0  0  0  0  0
  -22.4480   -4.3280   21.2600 F   0  0  0  0  0  0  0  0  0  0  0  0
  -21.4740   -3.8210   25.9070 F   0  0  0  0  0  0  0  0  0  0  0  0
  -23.2490  -13.5860   21.5350 C   0  0  0  0  0  0  0  0  0  0  0  0
  -22.6560  -12.8400   22.4600 N   0  0  0  0  0  0  0  0  0  0  0  0
  -22.7820  -14.6730   21.1970 O   0  0  0  0  0  0  0  0  0  0  0  0
  -23.0490  -11.9590   22.7520 H   0  0  0  0  0  0  0  0  0  0  0  0
  -21.7950  -13.1570   22.8830 H   0  0  0  0  0  0  0  0  0  0  0  0
  -25.7880  -15.2190   20.4130 N   0  0  0  0  0  0  0  0  0  0  0  0
  -25.0930  -15.8910   20.7210 H   0  0  0  0  0  0  0  0  0  0  0  0
  -26.5840  -15.6540   19.9650 H   0  0  0  0  0  0  0  0  0  0  0  0
  -32.9210  -20.5400   21.3980 N   0  0  0  0  0  0  0  0  0  0  0  0
  -32.6280  -20.9100   22.2950 H   0  0  0  0  0  0  0  0  0  0  0  0
  -33.9230  -20.3820   21.4320 H   0  0  0  0  0  0  0  0  0  0  0  0
  -28.6490  -23.9170   20.4510 C   0  0  0  0  0  3  0  0  0  0  0  0
  -28.8040  -24.9930   21.3930 C   0  0  0  0  0  0  0  0  0  0  0  0
  -29.1090  -22.7530   21.0360 C   0  0  0  0  0  0  0  0  0  0  0  0
  -29.3500  -24.3600   22.4740 C   0  0  0  0  0  0  0  0  0  0  0  0
  -29.5450  -23.0360   22.2980 O   0  0  0  0  0  0  0  0  0  0  0  0
  -29.7070  -24.9390   23.6790 N   0  0  0  0  0  0  0  0  0  0  0  0
  -29.5930  -25.9230   23.9000 H   0  0  0  0  0  0  0  0  0  0  0  0
  -30.1130  -24.4120   24.4440 H   0  0  0  0  0  0  0  0  0  0  0  0
  -28.4660  -26.4830   21.2850 C   0  0  0  0  0  2  0  0  0  0  0  0
  -27.8240  -26.8650   20.0660 O   0  0  0  0  0  0  0  0  0  0  0  0
  -24.4270  -32.1950   23.4590 C   0  0  0  0  0  0  0  0  0  0  0  0
  -26.7430  -27.7140   20.1770 C   0  0  0  0  0  0  0  0  0  0  0  0
  -23.0950  -30.8870   21.8370 C   0  0  0  0  0  3  0  0  0  0  0  0
  -24.4220  -29.3240   20.3180 C   0  0  0  0  0  0  0  0  0  0  0  0
  -25.6230  -31.1400   21.5450 C   0  0  0  0  0  2  0  0  0  0  0  0
  -25.6240  -29.7800   20.8760 C   0  0  0  0  0  0  0  0  0  0  0  0
  -26.7900  -28.9790   20.8130 C   0  0  0  0  0  3  0  0  0  0  0  0
  -25.5330  -27.2830   19.6020 C   0  0  0  0  0  3  0  0  0  0  0  0
  -24.3710  -28.0730   19.6780 C   0  0  0  0  0  3  0  0  0  0  0  0
  -23.2190  -30.2320   20.4360 C   0  0  0  0  0  2  0  0  0  0  0  0
  -24.4030  -31.4200   22.3380 N   0  0  0  0  0  0  0  0  0  0  0  0
  -23.3820  -32.5020   24.0500 O   0  0  0  0  0  0  0  0  0  0  0  0
  -22.4380  -29.8720   22.8010 C   0  0  0  0  0  0  0  0  0  0  0  0
  -21.1330  -29.6230   22.6090 N   0  0  0  0  0  0  0  0  0  0  0  0
  -23.1030  -29.3110   23.6760 O   0  0  0  0  0  0  0  0  0  0  0  0
  -20.6580  -30.1290   21.8750 H   0  0  0  0  0  0  0  0  0  0  0  0
  -17.8340  -28.1660   22.8610 C   0  0  0  0  0  0  0  0  0  0  0  0
  -20.3160  -28.6770   23.3700 C   0  0  0  0  0  3  0  0  0  0  0  0
  -20.5990  -27.2210   22.9320 C   0  0  0  0  0  2  0  0  0  0  0  0
  -19.6450  -26.7230   21.8420 C   0  0  0  0  0  2  0  0  0  0  0  0
  -18.1940  -26.7910   22.3260 C   0  0  0  0  0  2  0  0  0  0  0  0
  -18.8320  -29.0580   23.3360 C   0  0  0  0  0  0  0  0  0  0  0  0
  -18.4470  -30.3380   23.7910 C   0  0  0  0  0  3  0  0  0  0  0  0
  -17.0970  -30.7320   23.7760 C   0  0  0  0  0  3  0  0  0  0  0  0
  -16.1110  -29.8400   23.3200 C   0  0  0  0  0  3  0  0  0  0  0  0
  -16.4790  -28.5590   22.8680 C   0  0  0  0  0  3  0  0  0  0  0  0
  -25.7660  -32.7540   24.0390 C   0  0  0  0  0  3  0  0  0  0  0  0
  -25.5560  -34.1740   24.3420 N   0  0  0  0  0  0  0  0  0  0  0  0
  -25.9600  -35.1860   23.5610 C   0  0  0  0  0  0  0  0  0  0  0  0
  -26.6190  -35.0170   22.5320 O   0  0  0  0  0  0  0  0  0  0  0  0
  -24.9770  -34.3860   25.1410 H   0  0  0  0  0  0  0  0  0  0  0  0
  -24.3660  -37.0900   23.1660 C   0  0  0  0  0  1  0  0  0  0  0  0
  -25.5710  -36.6140   23.9920 C   0  0  0  0  0  3  0  0  0  0  0  0
  -27.7620  -37.3550   24.8160 C   0  0  0  0  0  1  0  0  0  0  0  0
  -26.6770  -37.5880   23.8660 N   0  0  0  0  0  0  0  0  0  0  0  0
  -26.3390  -38.5360   24.0000 H   0  0  0  0  0  0  0  0  0  0  0  0
  -26.2620  -31.9740   25.3180 C   0  0  1  0  0  0  0  0  0  0  0  0
  -25.1610  -31.7660   26.3850 C   0  0  0  0  0  1  0  0  0  0  0  0
  -26.8140  -30.5830   24.9300 C   0  0  0  0  0  1  0  0  0  0  0  0
  -27.4290  -32.7450   25.9790 C   0  0  0  0  0  1  0  0  0  0  0  0
  1 55  1  0
  1  2  1  0
  2  4  1  0
  3  1  2  0
  5  8  1  0
  6 10  2  0
  7  6  1  0
  7  5  2  0
  8  9  2  0
  8  2  1  0
  9 50  1  0
 10 11  1  0
 10  9  1  0
 12 18  1  0
 12 20  1  0
 13 18  1  0
 14 15  1  0
 14 13  1  0
 16 15  1  0
 16 25  1  0
 16 17  1  0
 18 17  1  0
 19 12  2  0
 20  7  1  0
 20 21  1  0
 22 23  2  0
 23 42  1  0
 24 27  1  0
 24 23  1  0
 25 26  1  0
 25 22  1  0
 26 24  2  0
 27 28  1  0
 28 29  2  0
 30 33  1  0
 30 29  1  0
 31 30  2  0
 32 31  1  0
 32 27  2  0
 33 34  1  0
 34 35  1  0
 35 36  2  0
 37 36  1  0
 37 41  1  0
 38 37  2  0
 39 34  2  0
 39 38  1  0
 40 39  1  0
 42 43  1  0
 43 45  1  0
 43 46  1  0
 44 42  2  0
 47 22  1  0
 47 48  1  0
 49 47  1  0
 50 52  1  0
 50 51  1  0
 53 55  2  0
 53 54  1  0
 54 56  2  0
 55 57  1  0
 56 58  1  0
 57 56  1  0
 58 59  1  0
 58 60  1  0
 61 54  1  0
 62 64  1  0
 62 61  1  0
 63 74  2  0
 64 69  1  0
 65 73  1  0
 65 75  1  0
 66 72  1  0
 66 68  1  0
 67 73  1  0
 68 67  1  0
 69 68  2  0
 70 71  1  0
 70 64  2  0
 71 66  2  0
 72 65  1  0
 73 63  1  0
 75 77  2  0
 76 75  1  0
 78 76  1  0
 79 88  2  0
 79 84  1  0
 80 76  1  0
 81 80  1  0
 82 83  1  0
 82 81  1  0
 83 79  1  0
 84 80  1  0
 84 85  2  0
 86 85  1  0
 87 86  2  0
 88 87  1  0
 89 63  1  0
 89 90  1  0
 89 99  1  0
 90 93  1  0
 91 95  1  0
 91 90  1  0
 92 91  2  0
 95 94  1  0
 97 95  1  0
 97 98  1  0
 97 96  1  0
 99102  1  1
 99100  1  0
101 99  1  0
M  ISO  4  12 100  20 100  61 101  62 101
M  END
>  <TORSDO>  (17) 
F 21

>  <SCORE>  (17) 
-12.408

>  <name>  (17) 
16

>  <ligand_id>  (17) 
16

>  <original_smiles>  (17) 
[H]c1c([H])c([H])c2c(c1[H])C([H])([H])C([H])([H])C([H])([H])C2([H])N([H])C(=O)C1([H])N(C(=O)C([H])(N([H])C(=O)C([H])(N([H])C([H])([H])[H])C([H])([H])[H])C(C([H])([H])[H])(C([H])([H])[H])C([H])([H])[H])C([H])([H])c2c([H])c(OC([H])([H])c3c(N([H])[H])oc(C(=O)N([H])c4c([H])c(N([H])C(=O)N5C([H])([H])C([H])([H])C([H])([H])C([H])(n6nc(-c7c([H])c([H])c(Oc8c([H])c([H])c(F)c([H])c8F)c([H])c7[H])c(C(=O)N([H])[H])c6N([H])[H])C5([H])[H])c([H])c(F)c4N([H])[H])c3[H])c([H])c([H])c2C1([H])[H]

>  <smiles>  (17) 
[H]c1c([H])c([H])c2c(c1[H])C([H])([H])C([H])([H])C([H])([H])C2([H])N([H])C(=O)C1([H])N(C(=O)C([H])(N([H])C(=O)C([H])(N([H])C([H])([H])[H])C([H])([H])[H])C(C([H])([H])[H])(C([H])([H])[H])C([H])([H])[H])C([H])([H])c2c([H])c(OC([H])([H])c3c(N([H])[H])oc(C(=O)N([H])c4c([H])c(N([H])C(=O)N5C([H])([H])C([H])([H])C([H])([H])C([H])(n6nc(-c7c([H])c([H])c(Oc8c([H])c([H])c(F)c([H])c8F)c([H])c7[H])c(C(=O)N([H])[H])c6N([H])[H])C5([H])[H])c([H])c(F)c4N([H])[H])c3[H])c([H])c([H])c2C1([H])[H]

$$$$
17:0:0
     RDKit          3D

 96105  0  0  1  0  0  0  0  0999 V2000
  -29.0370  -23.0330   19.7740 C   0  0  0  0  0  3  0  0  0  0  0  0
  -28.5680  -24.2990   19.9510 C   0  0  0  0  0  0  0  0  0  0  0  0
  -29.1170  -20.8860   21.1650 C   0  0  0  0  0  3  0  0  0  0  0  0
  -27.8840  -24.4390   21.2790 C   0  0  0  0  0  3  0  0  0  0  0  0
  -28.0160  -23.0260   21.8750 C   0  0  0  0  0  3  0  0  0  0  0  0
  -28.7720  -22.2060   20.8850 N   0  0  0  0  0  0  0  0  0  0  0  0
  -28.7200  -20.4280   22.3550 N   0  0  0  0  0  0  0  0  0  0  0  0
  -29.0280  -19.5160   22.6530 H   0  0  0  0  0  0  0  0  0  0  0  0
  -28.1800  -20.9840   22.9930 H   0  0  0  0  0  0  0  0  0  0  0  0
  -29.6910  -18.4600   20.5320 C   0  0  0  0  0  3  0  0  0  0  0  0
  -31.0050  -20.2830   19.5880 C   0  0  0  0  0  3  0  0  0  0  0  0
  -31.6120  -17.9430   19.1510 C   0  0  0  0  0  3  0  0  0  0  0  0
  -29.9100  -19.8780   20.3780 C   0  0  0  0  0  0  0  0  0  0  0  0
  -30.5500  -17.4630   19.9610 C   0  0  0  0  0  0  0  0  0  0  0  0
  -31.8300  -19.3260   18.9680 C   0  0  0  0  0  0  0  0  0  0  0  0
  -32.8680  -19.7420   18.2030 F   0  0  0  0  0  0  0  0  0  0  0  0
  -31.0940  -14.9400   19.9190 C   0  0  0  0  0  0  0  0  0  0  0  0
  -30.8470  -12.6690   18.9640 C   0  0  0  0  0  2  0  0  0  0  0  0
  -29.8630  -12.7480   17.7770 C   0  0  0  0  0  2  0  0  0  0  0  0
  -28.4120  -12.5830   18.2680 C   0  0  0  0  0  2  0  0  0  0  0  0
  -28.0840  -13.4900   19.4840 C   0  0  0  0  0  3  0  0  0  0  0  0
  -29.1850  -13.4080   20.5660 C   0  0  0  0  0  2  0  0  0  0  0  0
  -30.4680  -13.7240   19.9230 N   0  0  0  0  0  0  0  0  0  0  0  0
  -32.2520  -15.0480   19.5080 O   0  0  0  0  0  0  0  0  0  0  0  0
  -30.3210  -16.0340   20.2080 N   0  0  0  0  0  0  0  0  0  0  0  0
  -29.4150  -15.7980   20.5830 H   0  0  0  0  0  0  0  0  0  0  0  0
  -25.7330  -14.0800   20.3320 C   0  0  0  0  0  0  0  0  0  0  0  0
  -24.6830  -13.3010   20.7400 C   0  0  0  0  0  0  0  0  0  0  0  0
  -25.1410  -11.9510   20.6630 C   0  0  0  0  0  0  0  0  0  0  0  0
  -26.7610  -13.2030   20.0310 N   0  0  0  0  0  0  0  0  0  0  0  0
  -26.4140  -11.9160   20.2910 N   0  0  0  0  0  0  0  0  0  0  0  0
  -24.4220  -10.6860   20.8640 C   0  0  0  0  0  0  0  0  0  0  0  0
  -24.8120   -9.7660   21.8620 C   0  0  0  0  0  3  0  0  0  0  0  0
  -24.0920   -8.5650   22.0490 C   0  0  0  0  0  3  0  0  0  0  0  0
  -22.9700   -8.2760   21.2360 C   0  0  0  0  0  0  0  0  0  0  0  0
  -22.6020   -9.1850   20.2280 C   0  0  0  0  0  3  0  0  0  0  0  0
  -23.3220  -10.3770   20.0400 C   0  0  0  0  0  3  0  0  0  0  0  0
  -22.2280   -7.1240   21.3280 O   0  0  0  0  0  0  0  0  0  0  0  0
  -21.9980   -6.5100   22.5340 C   0  0  0  0  0  0  0  0  0  0  0  0
  -21.3360   -7.1700   23.5910 C   0  0  0  0  0  3  0  0  0  0  0  0
  -21.0580   -6.4790   24.7890 C   0  0  0  0  0  3  0  0  0  0  0  0
  -21.4340   -5.1290   24.9270 C   0  0  0  0  0  0  0  0  0  0  0  0
  -22.0900   -4.4690   23.8730 C   0  0  0  0  0  3  0  0  0  0  0  0
  -22.3680   -5.1580   22.6780 C   0  0  0  0  0  0  0  0  0  0  0  0
  -22.9820   -4.5110   21.6580 F   0  0  0  0  0  0  0  0  0  0  0  0
  -21.1610   -4.4640   26.0730 F   0  0  0  0  0  0  0  0  0  0  0  0
  -23.3030  -13.7760   21.0880 C   0  0  0  0  0  0  0  0  0  0  0  0
  -22.6210  -13.0730   21.9860 N   0  0  0  0  0  0  0  0  0  0  0  0
  -22.8380  -14.8040   20.5980 O   0  0  0  0  0  0  0  0  0  0  0  0
  -23.0110  -12.2410   22.4030 H   0  0  0  0  0  0  0  0  0  0  0  0
  -21.6970  -13.3730   22.2620 H   0  0  0  0  0  0  0  0  0  0  0  0
  -25.8900  -15.4530   20.1670 N   0  0  0  0  0  0  0  0  0  0  0  0
  -25.1190  -16.0990   20.3080 H   0  0  0  0  0  0  0  0  0  0  0  0
  -26.6990  -15.8920   19.7480 H   0  0  0  0  0  0  0  0  0  0  0  0
  -28.6350  -25.5190   18.9850 C   0  0  0  0  0  2  0  0  0  0  0  0
  -28.5300  -26.8580   19.5780 O   0  0  0  0  0  0  0  0  0  0  0  0
  -24.6460  -31.7970   23.0470 C   0  0  0  0  0  0  0  0  0  0  0  0
  -27.3340  -27.5800   19.6160 C   0  0  0  0  0  0  0  0  0  0  0  0
  -23.4390  -30.4520   21.3620 C   0  0  0  0  0  3  0  0  0  0  0  0
  -24.8970  -29.0550   19.7950 C   0  0  0  0  0  0  0  0  0  0  0  0
  -25.9510  -30.8970   21.1100 C   0  0  0  0  0  2  0  0  0  0  0  0
  -26.0610  -29.5660   20.3800 C   0  0  0  0  0  0  0  0  0  0  0  0
  -27.2780  -28.8390   20.2840 C   0  0  0  0  0  3  0  0  0  0  0  0
  -26.1390  -27.0990   19.0350 C   0  0  0  0  0  3  0  0  0  0  0  0
  -24.9350  -27.8250   19.1190 C   0  0  0  0  0  3  0  0  0  0  0  0
  -23.6280  -29.8700   19.9350 C   0  0  0  0  0  2  0  0  0  0  0  0
  -24.6990  -31.0630   21.8970 N   0  0  0  0  0  0  0  0  0  0  0  0
  -23.5740  -31.9950   23.6340 O   0  0  0  0  0  0  0  0  0  0  0  0
  -22.8550  -29.3510   22.2780 C   0  0  0  0  0  0  0  0  0  0  0  0
  -21.5400  -29.1050   22.1620 N   0  0  0  0  0  0  0  0  0  0  0  0
  -23.5840  -28.7220   23.0500 O   0  0  0  0  0  0  0  0  0  0  0  0
  -21.0080  -29.6700   21.5150 H   0  0  0  0  0  0  0  0  0  0  0  0
  -18.2470  -27.6870   22.6280 C   0  0  0  0  0  0  0  0  0  0  0  0
  -20.7870  -28.0870   22.8950 C   0  0  0  0  0  3  0  0  0  0  0  0
  -20.9690  -26.6910   22.2550 C   0  0  0  0  0  2  0  0  0  0  0  0
  -19.8800  -26.3480   21.2340 C   0  0  0  0  0  2  0  0  0  0  0  0
  -18.4980  -26.3820   21.8920 C   0  0  0  0  0  2  0  0  0  0  0  0
  -19.3210  -28.4950   23.0850 C   0  0  0  0  0  0  0  0  0  0  0  0
  -19.0320  -29.7150   23.7340 C   0  0  0  0  0  3  0  0  0  0  0  0
  -17.7010  -30.1290   23.9290 C   0  0  0  0  0  3  0  0  0  0  0  0
  -16.6410  -29.3190   23.4870 C   0  0  0  0  0  3  0  0  0  0  0  0
  -16.9150  -28.0980   22.8420 C   0  0  0  0  0  3  0  0  0  0  0  0
  -25.9260  -32.4420   23.6640 C   0  0  0  0  0  3  0  0  0  0  0  0
  -25.5820  -33.8120   24.0690 N   0  0  0  0  0  0  0  0  0  0  0  0
  -25.8700  -34.9110   23.3590 C   0  0  0  0  0  0  0  0  0  0  0  0
  -26.5240  -34.8790   22.3140 O   0  0  0  0  0  0  0  0  0  0  0  0
  -24.9960  -33.9080   24.8870 H   0  0  0  0  0  0  0  0  0  0  0  0
  -24.0840  -36.6660   23.1230 C   0  0  0  0  0  1  0  0  0  0  0  0
  -25.3490  -36.2590   23.8940 C   0  0  0  0  0  3  0  0  0  0  0  0
  -27.4670  -37.1680   24.7430 C   0  0  0  0  0  1  0  0  0  0  0  0
  -26.3500  -37.3470   23.8200 N   0  0  0  0  0  0  0  0  0  0  0  0
  -25.9180  -38.2460   24.0150 H   0  0  0  0  0  0  0  0  0  0  0  0
  -26.5020  -31.6280   24.8880 C   0  0  1  0  0  0  0  0  0  0  0  0
  -25.4480  -31.3050   25.9730 C   0  0  0  0  0  1  0  0  0  0  0  0
  -27.1150  -30.2900   24.4120 C   0  0  0  0  0  1  0  0  0  0  0  0
  -27.6460  -32.4260   25.5560 C   0  0  0  0  0  1  0  0  0  0  0  0
  1  2  2  0
  1  6  1  0
  2  4  1  0
  3  7  1  0
  4  5  2  0
  6  3  1  0
  6  5  1  0
  7  8  1  0
  7  9  1  0
 11 13  2  0
 12 14  1  0
 13 10  1  0
 13  3  1  0
 14 25  1  0
 14 10  2  0
 15 12  2  0
 15 11  1  0
 16 15  1  0
 17 23  1  0
 17 25  1  0
 18 23  1  0
 19 20  1  0
 19 18  1  0
 21 20  1  0
 21 30  1  0
 21 22  1  0
 23 22  1  0
 24 17  2  0
 25 26  1  0
 27 28  2  0
 28 47  1  0
 29 28  1  0
 29 32  1  0
 30 31  1  0
 30 27  1  0
 31 29  2  0
 32 33  1  0
 33 34  2  0
 35 38  1  0
 35 34  1  0
 36 35  2  0
 37 36  1  0
 37 32  2  0
 38 39  1  0
 39 44  2  0
 39 40  1  0
 40 41  2  0
 41 42  1  0
 42 46  1  0
 43 42  2  0
 44 43  1  0
 45 44  1  0
 47 48  1  0
 48 51  1  0
 48 50  1  0
 49 47  2  0
 52 53  1  0
 52 27  1  0
 54 52  1  0
 55 56  1  0
 55  2  1  0
 56 58  1  0
 57 68  2  0
 58 63  1  0
 59 67  1  0
 59 69  1  0
 60 66  1  0
 60 62  1  0
 61 67  1  0
 62 61  1  0
 63 62  2  0
 64 65  1  0
 64 58  2  0
 65 60  2  0
 66 59  1  0
 67 57  1  0
 69 71  2  0
 70 69  1  0
 72 70  1  0
 73 82  2  0
 73 78  1  0
 74 70  1  0
 74 78  1  0
 75 74  1  0
 76 77  1  0
 76 75  1  0
 77 73  1  0
 78 79  2  0
 79 80  1  0
 81 80  2  0
 82 81  1  0
 83 57  1  0
 83 84  1  0
 83 93  1  0
 84 87  1  0
 85 89  1  0
 85 84  1  0
 86 85  2  0
 89 88  1  0
 91 89  1  0
 91 92  1  0
 91 90  1  0
 93 96  1  1
 93 94  1  0
 95 93  1  0
M  ISO  4  17 100  25 100  55 101  56 101
M  END
>  <TORSDO>  (18) 
F 18

>  <SCORE>  (18) 
-12.497

>  <name>  (18) 
17

>  <ligand_id>  (18) 
17

>  <original_smiles>  (18) 
[H]C1=C(C([H])([H])Oc2c([H])c([H])c3c(c2[H])C([H])([H])N(C(=O)C([H])(N([H])C(=O)C([H])(N([H])C([H])([H])[H])C([H])([H])[H])C(C([H])([H])[H])(C([H])([H])[H])C([H])([H])[H])C([H])(C(=O)N([H])C2([H])c4c([H])c([H])c([H])c([H])c4C([H])([H])C([H])([H])C2([H])[H])C3([H])[H])C([H])([H])C([H])([H])N1C(c1c([H])c(F)c([H])c(N([H])C(=O)N2C([H])([H])C([H])([H])C([H])([H])C([H])(n3nc(-c4c([H])c([H])c(Oc5c([H])c([H])c(F)c([H])c5F)c([H])c4[H])c(C(=O)N([H])[H])c3N([H])[H])C2([H])[H])c1[H])=[N+]([H])[H]

>  <smiles>  (18) 
[H]C1=C(C([H])([H])Oc2c([H])c([H])c3c(c2[H])C([H])([H])N(C(=O)C([H])(N([H])C(=O)C([H])(N([H])C([H])([H])[H])C([H])([H])[H])C(C([H])([H])[H])(C([H])([H])[H])C([H])([H])[H])C([H])(C(=O)N([H])C2([H])c4c([H])c([H])c([H])c([H])c4C([H])([H])C([H])([H])C2([H])[H])C3([H])[H])C([H])([H])C([H])([H])N1C(c1c([H])c(F)c([H])c(N([H])C(=O)N2C([H])([H])C([H])([H])C([H])([H])C([H])(n3nc(-c4c([H])c([H])c(Oc5c([H])c([H])c(F)c([H])c5F)c([H])c4[H])c(C(=O)N([H])[H])c3N([H])[H])C2([H])[H])c1[H])=[N+]([H])[H]

$$$$
18:0:0
     RDKit          3D

 87 95  0  0  1  0  0  0  0  0999 V2000
  -29.5540  -20.7920   21.4540 C   0  0  0  0  0  3  0  0  0  0  0  0
  -29.1750  -22.2600   21.4130 C   0  0  0  0  0  3  0  0  0  0  0  0
  -29.2930  -19.9070   20.3870 C   0  0  0  0  0  0  0  0  0  0  0  0
  -28.5220  -22.8150   20.2990 C   0  0  0  0  0  0  0  0  0  0  0  0
  -28.4540  -21.2050   19.2920 S   0  0  0  0  0  0  0  0  0  0  0  0
  -27.8930  -24.2250   19.9250 N   0  0  0  0  0  0  0  0  0  0  0  0
  -27.1050  -24.2020   19.2850 H   0  0  0  0  0  0  0  0  0  0  0  0
  -28.1780  -25.8350   20.3370 O   0  0  0  0  0  0  0  0  0  0  0  0
  -24.6230  -31.8760   23.2150 C   0  0  0  0  0  0  0  0  0  0  0  0
  -27.1670  -26.9420   20.2370 C   0  0  0  0  0  0  0  0  0  0  0  0
  -23.4300  -30.4740   21.5810 C   0  0  0  0  0  3  0  0  0  0  0  0
  -24.8770  -28.8510   20.1670 C   0  0  0  0  0  0  0  0  0  0  0  0
  -25.9980  -30.6650   21.4470 C   0  0  0  0  0  2  0  0  0  0  0  0
  -26.0620  -29.2470   20.8000 C   0  0  0  0  0  0  0  0  0  0  0  0
  -27.1950  -28.3110   20.8160 C   0  0  0  0  0  3  0  0  0  0  0  0
  -25.9580  -26.7110   19.5410 C   0  0  0  0  0  3  0  0  0  0  0  0
  -24.8520  -27.6050   19.5180 C   0  0  0  0  0  3  0  0  0  0  0  0
  -23.6630  -29.7800   20.2090 C   0  0  0  0  0  2  0  0  0  0  0  0
  -24.7050  -31.0340   22.1330 N   0  0  0  0  0  0  0  0  0  0  0  0
  -23.5340  -32.1730   23.7300 O   0  0  0  0  0  0  0  0  0  0  0  0
  -22.7290  -29.4870   22.5520 C   0  0  0  0  0  0  0  0  0  0  0  0
  -21.3980  -29.3270   22.4270 N   0  0  0  0  0  0  0  0  0  0  0  0
  -23.3910  -28.8670   23.3890 O   0  0  0  0  0  0  0  0  0  0  0  0
  -20.9160  -29.8780   21.7300 H   0  0  0  0  0  0  0  0  0  0  0  0
  -18.0140  -28.1160   22.9290 C   0  0  0  0  0  0  0  0  0  0  0  0
  -20.5720  -28.3950   23.2030 C   0  0  0  0  0  3  0  0  0  0  0  0
  -20.6800  -26.9570   22.6430 C   0  0  0  0  0  2  0  0  0  0  0  0
  -19.5850  -26.6210   21.6270 C   0  0  0  0  0  2  0  0  0  0  0  0
  -18.1990  -26.7640   22.2620 C   0  0  0  0  0  2  0  0  0  0  0  0
  -19.1270  -28.8900   23.3560 C   0  0  0  0  0  0  0  0  0  0  0  0
  -18.8960  -30.1520   23.9420 C   0  0  0  0  0  3  0  0  0  0  0  0
  -17.5870  -30.6440   24.1030 C   0  0  0  0  0  3  0  0  0  0  0  0
  -16.4890  -29.8700   23.6890 C   0  0  0  0  0  3  0  0  0  0  0  0
  -16.7040  -28.6080   23.1080 C   0  0  0  0  0  3  0  0  0  0  0  0
  -25.8930  -32.5210   23.8480 C   0  0  0  0  0  3  0  0  0  0  0  0
  -25.5750  -33.9230   24.1810 N   0  0  0  0  0  0  0  0  0  0  0  0
  -25.8990  -34.9830   23.4290 C   0  0  0  0  0  0  0  0  0  0  0  0
  -26.5580  -34.8860   22.3910 O   0  0  0  0  0  0  0  0  0  0  0  0
  -24.9890  -34.0710   24.9880 H   0  0  0  0  0  0  0  0  0  0  0  0
  -24.1600  -36.7770   23.1160 C   0  0  0  0  0  1  0  0  0  0  0  0
  -25.4180  -36.3710   23.9000 C   0  0  0  0  0  3  0  0  0  0  0  0
  -27.5640  -37.2650   24.6930 C   0  0  0  0  0  1  0  0  0  0  0  0
  -26.4450  -37.4290   23.7680 N   0  0  0  0  0  0  0  0  0  0  0  0
  -26.0390  -38.3470   23.9230 H   0  0  0  0  0  0  0  0  0  0  0  0
  -26.3960  -31.7620   25.1380 C   0  0  1  0  0  0  0  0  0  0  0  0
  -25.2930  -31.5370   26.2000 C   0  0  0  0  0  1  0  0  0  0  0  0
  -26.9780  -30.3780   24.7730 C   0  0  0  0  0  1  0  0  0  0  0  0
  -27.5440  -32.5580   25.8010 C   0  0  0  0  0  1  0  0  0  0  0  0
  -29.9430  -18.2910   20.0320 C   0  0  0  0  0  2  0  0  0  0  0  0
  -30.3870  -15.3730   20.2370 C   0  0  0  0  0  0  0  0  0  0  0  0
  -30.3560  -12.9210   19.3540 C   0  0  0  0  0  2  0  0  0  0  0  0
  -29.4230  -12.7010   18.1360 C   0  0  0  0  0  2  0  0  0  0  0  0
  -27.9830  -12.4190   18.5960 C   0  0  0  0  0  2  0  0  0  0  0  0
  -27.5440  -13.3770   19.7310 C   0  0  0  0  0  3  0  0  0  0  0  0
  -28.6060  -13.5360   20.8410 C   0  0  0  0  0  2  0  0  0  0  0  0
  -29.8200  -14.0620   20.1950 N   0  0  0  0  0  0  0  0  0  0  0  0
  -31.5960  -15.3580   19.9590 O   0  0  0  0  0  0  0  0  0  0  0  0
  -29.6500  -16.6690   20.3820 N   0  0  0  0  0  0  0  0  0  0  0  0
  -28.6810  -16.5060   20.6200 H   0  0  0  0  0  0  0  0  0  0  0  0
  -25.1840  -13.9240   20.5200 C   0  0  0  0  0  0  0  0  0  0  0  0
  -24.1290  -13.1430   20.8990 C   0  0  0  0  0  0  0  0  0  0  0  0
  -24.5990  -11.7940   20.8560 C   0  0  0  0  0  0  0  0  0  0  0  0
  -26.2260  -13.0520   20.2570 N   0  0  0  0  0  0  0  0  0  0  0  0
  -25.8870  -11.7640   20.5280 N   0  0  0  0  0  0  0  0  0  0  0  0
  -23.8770  -10.5290   21.0500 C   0  0  0  0  0  0  0  0  0  0  0  0
  -24.3230   -9.5540   21.9690 C   0  0  0  0  0  3  0  0  0  0  0  0
  -23.5970   -8.3580   22.1510 C   0  0  0  0  0  3  0  0  0  0  0  0
  -22.4110   -8.1260   21.4160 C   0  0  0  0  0  0  0  0  0  0  0  0
  -21.9840   -9.0890   20.4850 C   0  0  0  0  0  3  0  0  0  0  0  0
  -22.7100  -10.2770   20.2990 C   0  0  0  0  0  3  0  0  0  0  0  0
  -21.6560   -6.9820   21.5090 O   0  0  0  0  0  0  0  0  0  0  0  0
  -21.6300   -6.2280   22.6540 C   0  0  0  0  0  0  0  0  0  0  0  0
  -21.2300   -6.7720   23.8940 C   0  0  0  0  0  3  0  0  0  0  0  0
  -21.1510   -5.9440   25.0330 C   0  0  0  0  0  3  0  0  0  0  0  0
  -21.4600   -4.5750   24.9320 C   0  0  0  0  0  0  0  0  0  0  0  0
  -21.8530   -4.0310   23.6960 C   0  0  0  0  0  3  0  0  0  0  0  0
  -21.9340   -4.8550   22.5610 C   0  0  0  0  0  0  0  0  0  0  0  0
  -22.2920   -4.3210   21.3680 F   0  0  0  0  0  0  0  0  0  0  0  0
  -21.3780   -3.7790   26.0240 F   0  0  0  0  0  0  0  0  0  0  0  0
  -22.7350  -13.6160   21.1840 C   0  0  0  0  0  0  0  0  0  0  0  0
  -22.0180  -12.9190   22.0580 N   0  0  0  0  0  0  0  0  0  0  0  0
  -22.2910  -14.6410   20.6670 O   0  0  0  0  0  0  0  0  0  0  0  0
  -22.3910  -12.0900   22.4970 H   0  0  0  0  0  0  0  0  0  0  0  0
  -21.0820  -13.2190   22.2930 H   0  0  0  0  0  0  0  0  0  0  0  0
  -25.3410  -15.2960   20.3450 N   0  0  0  0  0  0  0  0  0  0  0  0
  -24.5730  -15.9470   20.4680 H   0  0  0  0  0  0  0  0  0  0  0  0
  -26.1740  -15.7350   19.9730 H   0  0  0  0  0  0  0  0  0  0  0  0
  2  1  1  0
  3  1  2  0
  4  2  2  0
  5  4  1  0
  5  3  1  0
  6  4  1  0
  6  8  1  0
  7  6  1  0
  9 20  2  0
 10  8  1  0
 10 15  1  0
 11 19  1  0
 11 21  1  0
 12 18  1  0
 12 14  1  0
 13 19  1  0
 14 15  2  0
 14 13  1  0
 16 10  2  0
 17 16  1  0
 17 12  2  0
 18 11  1  0
 19  9  1  0
 21 23  2  0
 22 21  1  0
 24 22  1  0
 25 34  2  0
 25 30  1  0
 26 22  1  0
 26 30  1  0
 27 26  1  0
 28 29  1  0
 28 27  1  0
 29 25  1  0
 30 31  2  0
 31 32  1  0
 33 32  2  0
 34 33  1  0
 35  9  1  0
 35 36  1  0
 35 45  1  0
 36 39  1  0
 37 41  1  0
 37 36  1  0
 38 37  2  0
 41 40  1  0
 43 41  1  0
 43 44  1  0
 43 42  1  0
 45 48  1  1
 45 46  1  0
 47 45  1  0
 49 58  1  0
 49  3  1  0
 50 58  1  0
 51 56  1  0
 52 53  1  0
 52 51  1  0
 54 53  1  0
 54 63  1  0
 54 55  1  0
 56 50  1  0
 56 55  1  0
 57 50  2  0
 58 59  1  0
 60 61  2  0
 61 80  1  0
 62 61  1  0
 62 65  1  0
 63 60  1  0
 63 64  1  0
 64 62  2  0
 65 66  1  0
 66 67  2  0
 68 71  1  0
 68 67  1  0
 69 68  2  0
 70 69  1  0
 70 65  2  0
 71 72  1  0
 72 73  1  0
 73 74  2  0
 75 74  1  0
 75 79  1  0
 76 75  2  0
 77 72  2  0
 77 76  1  0
 78 77  1  0
 80 81  1  0
 81 84  1  0
 81 83  1  0
 82 80  2  0
 85 86  1  0
 85 60  1  0
 87 85  1  0
M  ISO  4   6 101   8 101  50 100  58 100
M  END
>  <TORSDO>  (19) 
F 18

>  <SCORE>  (19) 
-16.332

>  <name>  (19) 
18

>  <ligand_id>  (19) 
18

>  <original_smiles>  (19) 
[H]c1c(N([H])Oc2c([H])c([H])c3c(c2[H])C([H])([H])N(C(=O)C([H])(N([H])C(=O)C([H])(N([H])C([H])([H])[H])C([H])([H])[H])C(C([H])([H])[H])(C([H])([H])[H])C([H])([H])[H])C([H])(C(=O)N([H])C2([H])c4c([H])c([H])c([H])c([H])c4C([H])([H])C([H])([H])C2([H])[H])C3([H])[H])sc(C([H])([H])N([H])C(=O)N2C([H])([H])C([H])([H])C([H])([H])C([H])(n3nc(-c4c([H])c([H])c(Oc5c([H])c([H])c(F)c([H])c5F)c([H])c4[H])c(C(=O)N([H])[H])c3N([H])[H])C2([H])[H])c1[H]

>  <smiles>  (19) 
[H]c1c(N([H])Oc2c([H])c([H])c3c(c2[H])C([H])([H])N(C(=O)C([H])(N([H])C(=O)C([H])(N([H])C([H])([H])[H])C([H])([H])[H])C(C([H])([H])[H])(C([H])([H])[H])C([H])([H])[H])C([H])(C(=O)N([H])C2([H])c4c([H])c([H])c([H])c([H])c4C([H])([H])C([H])([H])C2([H])[H])C3([H])[H])sc(C([H])([H])N([H])C(=O)N2C([H])([H])C([H])([H])C([H])([H])C([H])(n3nc(-c4c([H])c([H])c(Oc5c([H])c([H])c(F)c([H])c5F)c([H])c4[H])c(C(=O)N([H])[H])c3N([H])[H])C2([H])[H])c1[H]

$$$$
19:0:0
     RDKit          3D

 89 97  0  0  1  0  0  0  0  0999 V2000
  -29.9420  -22.4050   20.3800 C   0  0  0  0  0  3  0  0  0  0  0  0
  -30.4090  -20.9560   20.3710 C   0  0  0  0  0  0  0  0  0  0  0  0
  -29.5060  -19.8510   20.3270 C   0  0  0  0  0  0  0  0  0  0  0  0
  -28.5890  -22.7570   20.3350 C   0  0  0  0  0  0  0  0  0  0  0  0
  -27.9410  -20.9440   20.2970 S   0  0  0  0  0  0  0  0  0  0  0  0
  -31.8510  -20.7180   20.4650 C   0  0  0  0  0  0  0  0  0  0  0  0
  -32.7480  -21.6870   19.7030 C   0  0  0  0  0  1  0  0  0  0  0  0
  -32.3910  -19.8030   21.0950 O   0  0  0  0  0  0  0  0  0  0  0  0
  -29.9260  -18.1730   20.2220 C   0  0  0  0  0  3  0  0  0  0  0  0
  -29.5490  -16.8130   20.4540 N   0  0  0  0  0  0  0  0  0  0  0  0
  -30.3720  -15.4790   20.2470 C   0  0  0  0  0  0  0  0  0  0  0  0
  -30.4130  -12.9920   19.4090 C   0  0  0  0  0  2  0  0  0  0  0  0
  -29.5060  -12.7410   18.1740 C   0  0  0  0  0  2  0  0  0  0  0  0
  -28.0660  -12.4270   18.6100 C   0  0  0  0  0  2  0  0  0  0  0  0
  -27.5870  -13.3900   19.7230 C   0  0  0  0  0  3  0  0  0  0  0  0
  -28.6250  -13.5940   20.8450 C   0  0  0  0  0  2  0  0  0  0  0  0
  -29.8480  -14.1390   20.2290 N   0  0  0  0  0  0  0  0  0  0  0  0
  -31.5790  -15.4540   19.9710 O   0  0  0  0  0  0  0  0  0  0  0  0
  -25.2200  -13.9020   20.5020 C   0  0  0  0  0  0  0  0  0  0  0  0
  -24.1700  -13.1070   20.8690 C   0  0  0  0  0  0  0  0  0  0  0  0
  -24.6540  -11.7640   20.8250 C   0  0  0  0  0  0  0  0  0  0  0  0
  -26.2700  -13.0420   20.2400 N   0  0  0  0  0  0  0  0  0  0  0  0
  -25.9440  -11.7490   20.5050 N   0  0  0  0  0  0  0  0  0  0  0  0
  -23.9420  -10.4910   21.0100 C   0  0  0  0  0  0  0  0  0  0  0  0
  -24.3710   -9.5310   21.9530 C   0  0  0  0  0  3  0  0  0  0  0  0
  -23.6550   -8.3270   22.1270 C   0  0  0  0  0  3  0  0  0  0  0  0
  -22.4960   -8.0730   21.3570 C   0  0  0  0  0  0  0  0  0  0  0  0
  -22.0860   -9.0200   20.4010 C   0  0  0  0  0  3  0  0  0  0  0  0
  -22.8030  -10.2160   20.2270 C   0  0  0  0  0  3  0  0  0  0  0  0
  -21.7530   -6.9200   21.4370 O   0  0  0  0  0  0  0  0  0  0  0  0
  -21.6720   -6.1960   22.6000 C   0  0  0  0  0  0  0  0  0  0  0  0
  -21.1640   -6.7550   23.7930 C   0  0  0  0  0  3  0  0  0  0  0  0
  -21.0340   -5.9560   24.9470 C   0  0  0  0  0  3  0  0  0  0  0  0
  -21.4000   -4.5980   24.9070 C   0  0  0  0  0  0  0  0  0  0  0  0
  -21.9010   -4.0370   23.7180 C   0  0  0  0  0  3  0  0  0  0  0  0
  -22.0330   -4.8340   22.5680 C   0  0  0  0  0  0  0  0  0  0  0  0
  -22.4960   -4.2830   21.4200 F   0  0  0  0  0  0  0  0  0  0  0  0
  -21.2690   -3.8270   26.0130 F   0  0  0  0  0  0  0  0  0  0  0  0
  -22.7680  -13.5650   21.1460 C   0  0  0  0  0  0  0  0  0  0  0  0
  -22.0530  -12.8600   22.0140 N   0  0  0  0  0  0  0  0  0  0  0  0
  -22.3160  -14.5860   20.6280 O   0  0  0  0  0  0  0  0  0  0  0  0
  -22.4330  -12.0350   22.4550 H   0  0  0  0  0  0  0  0  0  0  0  0
  -21.1130  -13.1500   22.2430 H   0  0  0  0  0  0  0  0  0  0  0  0
  -25.3660  -15.2760   20.3400 N   0  0  0  0  0  0  0  0  0  0  0  0
  -24.6030  -15.9290   20.4820 H   0  0  0  0  0  0  0  0  0  0  0  0
  -26.2300  -15.7270   20.0630 H   0  0  0  0  0  0  0  0  0  0  0  0
  -27.7830  -24.1430   20.3340 N   0  0  0  0  0  0  0  0  0  0  0  0
  -26.7680  -24.0680   20.3540 H   0  0  0  0  0  0  0  0  0  0  0  0
  -28.1770  -25.8050   20.3150 O   0  0  0  0  0  0  0  0  0  0  0  0
  -24.6290  -31.9040   23.2540 C   0  0  0  0  0  0  0  0  0  0  0  0
  -27.1660  -26.9310   20.2890 C   0  0  0  0  0  0  0  0  0  0  0  0
  -23.4370  -30.5010   21.6210 C   0  0  0  0  0  3  0  0  0  0  0  0
  -24.8840  -28.8680   20.2160 C   0  0  0  0  0  0  0  0  0  0  0  0
  -26.0070  -30.6780   21.4920 C   0  0  0  0  0  2  0  0  0  0  0  0
  -26.0710  -29.2550   20.8510 C   0  0  0  0  0  0  0  0  0  0  0  0
  -27.2010  -28.3060   20.8650 C   0  0  0  0  0  3  0  0  0  0  0  0
  -25.9550  -26.7200   19.5910 C   0  0  0  0  0  3  0  0  0  0  0  0
  -24.8540  -27.6220   19.5670 C   0  0  0  0  0  3  0  0  0  0  0  0
  -23.6720  -29.8040   20.2520 C   0  0  0  0  0  2  0  0  0  0  0  0
  -24.7140  -31.0580   22.1750 N   0  0  0  0  0  0  0  0  0  0  0  0
  -23.5380  -32.2040   23.7670 O   0  0  0  0  0  0  0  0  0  0  0  0
  -22.7310  -29.5190   22.5930 C   0  0  0  0  0  0  0  0  0  0  0  0
  -21.4010  -29.3530   22.4590 N   0  0  0  0  0  0  0  0  0  0  0  0
  -23.3880  -28.9060   23.4380 O   0  0  0  0  0  0  0  0  0  0  0  0
  -20.9230  -29.8980   21.7550 H   0  0  0  0  0  0  0  0  0  0  0  0
  -18.0170  -28.1380   22.9540 C   0  0  0  0  0  0  0  0  0  0  0  0
  -20.5730  -28.4210   23.2330 C   0  0  0  0  0  3  0  0  0  0  0  0
  -20.6860  -26.9830   22.6760 C   0  0  0  0  0  2  0  0  0  0  0  0
  -19.5930  -26.6430   21.6570 C   0  0  0  0  0  2  0  0  0  0  0  0
  -18.2060  -26.7850   22.2890 C   0  0  0  0  0  2  0  0  0  0  0  0
  -19.1280  -28.9130   23.3830 C   0  0  0  0  0  0  0  0  0  0  0  0
  -18.8940  -30.1760   23.9690 C   0  0  0  0  0  3  0  0  0  0  0  0
  -17.5840  -30.6660   24.1280 C   0  0  0  0  0  3  0  0  0  0  0  0
  -16.4880  -29.8900   23.7130 C   0  0  0  0  0  3  0  0  0  0  0  0
  -16.7050  -28.6280   23.1330 C   0  0  0  0  0  3  0  0  0  0  0  0
  -25.8980  -32.5500   23.8890 C   0  0  0  0  0  3  0  0  0  0  0  0
  -26.3970  -31.7910   25.1820 C   0  0  1  0  0  0  0  0  0  0  0  0
  -25.2910  -31.5700   26.2410 C   0  0  0  0  0  1  0  0  0  0  0  0
  -26.9800  -30.4070   24.8220 C   0  0  0  0  0  1  0  0  0  0  0  0
  -27.5430  -32.5900   25.8470 C   0  0  0  0  0  1  0  0  0  0  0  0
  -25.5810  -33.9520   24.2170 N   0  0  0  0  0  0  0  0  0  0  0  0
  -25.8830  -35.0090   23.4530 C   0  0  0  0  0  0  0  0  0  0  0  0
  -26.5180  -34.9080   22.4000 O   0  0  0  0  0  0  0  0  0  0  0  0
  -25.0100  -34.1020   25.0370 H   0  0  0  0  0  0  0  0  0  0  0  0
  -24.1210  -36.7900   23.1820 C   0  0  0  0  0  1  0  0  0  0  0  0
  -25.4070  -36.3980   23.9270 C   0  0  0  0  0  3  0  0  0  0  0  0
  -27.5700  -37.3190   24.6440 C   0  0  0  0  0  1  0  0  0  0  0  0
  -26.4220  -37.4620   23.7530 N   0  0  0  0  0  0  0  0  0  0  0  0
  -26.0130  -38.3790   23.9070 H   0  0  0  0  0  0  0  0  0  0  0  0
  2  1  1  0
  2  6  1  0
  3  2  2  0
  4  1  2  0
  5  3  1  0
  5  4  1  0
  6  8  2  0
  7  6  1  0
  9  3  1  0
  9 10  2  0
 11 10  1  0
 12 17  1  0
 13 14  1  0
 13 12  1  0
 15 14  1  0
 15 22  1  0
 15 16  1  0
 17 11  1  0
 17 16  1  0
 18 11  2  0
 19 20  2  0
 20 39  1  0
 21 20  1  0
 21 24  1  0
 22 19  1  0
 22 23  1  0
 23 21  2  0
 24 25  1  0
 25 26  2  0
 27 30  1  0
 27 26  1  0
 28 27  2  0
 29 28  1  0
 29 24  2  0
 30 31  1  0
 31 32  1  0
 32 33  2  0
 34 33  1  0
 34 38  1  0
 35 34  2  0
 36 31  2  0
 36 35  1  0
 37 36  1  0
 39 40  1  0
 40 43  1  0
 40 42  1  0
 41 39  2  0
 44 45  1  0
 44 19  1  0
 46 44  1  0
 47  4  1  0
 47 48  1  0
 49 47  1  0
 50 61  2  0
 51 49  1  0
 51 56  1  0
 52 60  1  0
 52 62  1  0
 53 59  1  0
 53 55  1  0
 54 60  1  0
 55 56  2  0
 55 54  1  0
 57 51  2  0
 58 57  1  0
 58 53  2  0
 59 52  1  0
 60 50  1  0
 62 64  2  0
 63 62  1  0
 65 63  1  0
 66 75  2  0
 66 71  1  0
 67 63  1  0
 67 71  1  0
 68 67  1  0
 69 70  1  0
 69 68  1  0
 70 66  1  0
 71 72  2  0
 72 73  1  0
 74 73  2  0
 75 74  1  0
 76 50  1  0
 76 81  1  0
 76 77  1  0
 77 80  1  1
 77 78  1  0
 79 77  1  0
 81 84  1  0
 82 86  1  0
 82 81  1  0
 83 82  2  0
 86 85  1  0
 88 89  1  0
 88 86  1  0
 88 87  1  0
M  ISO  4  10 100  11 100  47 101  49 101
M  END
>  <TORSDO>  (20) 
F 19

>  <SCORE>  (20) 
-15.376

>  <name>  (20) 
19

>  <ligand_id>  (20) 
19

>  <original_smiles>  (20) 
[H]C(=NC(=O)N1C([H])([H])C([H])([H])C([H])([H])C([H])(n2nc(-c3c([H])c([H])c(Oc4c([H])c([H])c(F)c([H])c4F)c([H])c3[H])c(C(=O)N([H])[H])c2N([H])[H])C1([H])[H])c1sc(N([H])Oc2c([H])c([H])c3c(c2[H])C([H])([H])N(C(=O)C([H])(N([H])C(=O)C([H])(N([H])C([H])([H])[H])C([H])([H])[H])C(C([H])([H])[H])(C([H])([H])[H])C([H])([H])[H])C([H])(C(=O)N([H])C2([H])c4c([H])c([H])c([H])c([H])c4C([H])([H])C([H])([H])C2([H])[H])C3([H])[H])c([H])c1C(=O)C([H])([H])[H]

>  <smiles>  (20) 
[H]C(=NC(=O)N1C([H])([H])C([H])([H])C([H])([H])C([H])(n2nc(-c3c([H])c([H])c(Oc4c([H])c([H])c(F)c([H])c4F)c([H])c3[H])c(C(=O)N([H])[H])c2N([H])[H])C1([H])[H])c1sc(N([H])Oc2c([H])c([H])c3c(c2[H])C([H])([H])N(C(=O)C([H])(N([H])C(=O)C([H])(N([H])C([H])([H])[H])C([H])([H])[H])C(C([H])([H])[H])(C([H])([H])[H])C([H])([H])[H])C([H])(C(=O)N([H])C2([H])c4c([H])c([H])c([H])c([H])c4C([H])([H])C([H])([H])C2([H])[H])C3([H])[H])c([H])c1C(=O)C([H])([H])[H]

$$$$
20:0:0
     RDKit          3D

 96104  0  0  1  0  0  0  0  0999 V2000
  -28.7450  -22.4620   19.7550 C   0  0  0  0  0  0  0  0  0  0  0  0
  -28.9710  -21.2710   20.4700 N   0  0  0  0  0  0  0  0  0  0  0  0
  -28.6470  -22.3900   18.5280 O   0  0  0  0  0  0  0  0  0  0  0  0
  -28.7280  -21.2840   21.4490 H   0  0  0  0  0  0  0  0  0  0  0  0
  -29.3610  -18.6180   20.5620 C   0  0  0  0  0  3  0  0  0  0  0  0
  -30.4890  -20.0220   18.9280 C   0  0  0  0  0  3  0  0  0  0  0  0
  -30.9330  -17.6070   19.0100 C   0  0  0  0  0  3  0  0  0  0  0  0
  -29.5600  -19.9650   19.9940 C   0  0  0  0  0  0  0  0  0  0  0  0
  -30.0410  -17.3990   20.0900 C   0  0  0  0  0  0  0  0  0  0  0  0
  -31.1530  -18.8780   18.4480 C   0  0  0  0  0  0  0  0  0  0  0  0
  -32.0230  -19.0040   17.4190 F   0  0  0  0  0  0  0  0  0  0  0  0
  -30.5750  -14.8170   20.3420 C   0  0  0  0  0  0  0  0  0  0  0  0
  -30.3670  -12.5270   19.3570 C   0  0  0  0  0  2  0  0  0  0  0  0
  -29.4320  -12.5880   18.1280 C   0  0  0  0  0  2  0  0  0  0  0  0
  -27.9650  -12.4110   18.5590 C   0  0  0  0  0  2  0  0  0  0  0  0
  -27.5910  -13.3040   19.7730 C   0  0  0  0  0  3  0  0  0  0  0  0
  -28.6490  -13.2330   20.8960 C   0  0  0  0  0  2  0  0  0  0  0  0
  -29.9410  -13.5900   20.3020 N   0  0  0  0  0  0  0  0  0  0  0  0
  -31.7650  -14.8720   20.0200 O   0  0  0  0  0  0  0  0  0  0  0  0
  -29.8340  -15.9860   20.5770 N   0  0  0  0  0  0  0  0  0  0  0  0
  -28.9500  -15.8220   21.0360 H   0  0  0  0  0  0  0  0  0  0  0  0
  -25.2050  -13.8950   20.4980 C   0  0  0  0  0  0  0  0  0  0  0  0
  -24.1390  -13.1220   20.8710 C   0  0  0  0  0  0  0  0  0  0  0  0
  -24.6010  -11.7700   20.8450 C   0  0  0  0  0  0  0  0  0  0  0  0
  -26.2480  -13.0140   20.2660 N   0  0  0  0  0  0  0  0  0  0  0  0
  -25.8930  -11.7310   20.5400 N   0  0  0  0  0  0  0  0  0  0  0  0
  -23.8740  -10.5100   21.0380 C   0  0  0  0  0  0  0  0  0  0  0  0
  -24.3080   -9.5410   21.9710 C   0  0  0  0  0  3  0  0  0  0  0  0
  -23.5780   -8.3450   22.1510 C   0  0  0  0  0  3  0  0  0  0  0  0
  -22.4010   -8.1120   21.4020 C   0  0  0  0  0  0  0  0  0  0  0  0
  -21.9890   -9.0690   20.4590 C   0  0  0  0  0  3  0  0  0  0  0  0
  -22.7170  -10.2550   20.2750 C   0  0  0  0  0  3  0  0  0  0  0  0
  -21.6420   -6.9680   21.4920 O   0  0  0  0  0  0  0  0  0  0  0  0
  -21.6010   -6.2220   22.6430 C   0  0  0  0  0  0  0  0  0  0  0  0
  -21.1890   -6.7750   23.8740 C   0  0  0  0  0  3  0  0  0  0  0  0
  -21.0940   -5.9550   25.0180 C   0  0  0  0  0  3  0  0  0  0  0  0
  -21.4030   -4.5840   24.9280 C   0  0  0  0  0  0  0  0  0  0  0  0
  -21.8080   -4.0310   23.7000 C   0  0  0  0  0  3  0  0  0  0  0  0
  -21.9040   -4.8480   22.5610 C   0  0  0  0  0  0  0  0  0  0  0  0
  -22.2750   -4.3070   21.3760 F   0  0  0  0  0  0  0  0  0  0  0  0
  -21.3040   -3.7940   26.0230 F   0  0  0  0  0  0  0  0  0  0  0  0
  -22.7420  -13.6020   21.1360 C   0  0  0  0  0  0  0  0  0  0  0  0
  -22.0120  -12.9110   22.0040 N   0  0  0  0  0  0  0  0  0  0  0  0
  -22.3080  -14.6260   20.6080 O   0  0  0  0  0  0  0  0  0  0  0  0
  -22.3770  -12.0820   22.4500 H   0  0  0  0  0  0  0  0  0  0  0  0
  -21.0740  -13.2120   22.2230 H   0  0  0  0  0  0  0  0  0  0  0  0
  -25.3740  -15.2640   20.3130 N   0  0  0  0  0  0  0  0  0  0  0  0
  -24.6090  -15.9220   20.4090 H   0  0  0  0  0  0  0  0  0  0  0  0
  -26.2160  -15.6910   19.9490 H   0  0  0  0  0  0  0  0  0  0  0  0
  -28.2710  -25.0010   19.7820 C   0  0  0  0  0  3  0  0  0  0  0  0
  -28.6130  -23.8180   20.4450 C   0  0  0  0  0  0  0  0  0  0  0  0
  -28.9100  -23.9640   21.8860 N   0  0  0  0  0  4  0  0  0  0  0  0
  -29.7860  -24.4370   22.0170 H   0  0  0  0  0  0  0  0  0  0  0  0
  -28.1960  -24.5080   22.3340 H   0  0  0  0  0  0  0  0  0  0  0  0
  -28.9600  -23.0780   22.3460 H   0  0  0  0  0  0  0  0  0  0  0  0
  -28.2750  -26.3530   20.2720 O   0  0  0  0  0  0  0  0  0  0  0  0
  -24.6040  -31.8720   23.2350 C   0  0  0  0  0  0  0  0  0  0  0  0
  -27.1840  -27.2550   20.1670 C   0  0  0  0  0  0  0  0  0  0  0  0
  -23.3950  -30.4780   21.5960 C   0  0  0  0  0  3  0  0  0  0  0  0
  -24.8360  -28.9210   20.1560 C   0  0  0  0  0  0  0  0  0  0  0  0
  -25.9370  -30.7760   21.4080 C   0  0  0  0  0  2  0  0  0  0  0  0
  -26.0080  -29.3930   20.7590 C   0  0  0  0  0  0  0  0  0  0  0  0
  -27.1820  -28.5690   20.7570 C   0  0  0  0  0  3  0  0  0  0  0  0
  -25.9880  -26.8560   19.5330 C   0  0  0  0  0  3  0  0  0  0  0  0
  -24.8320  -27.6640   19.5300 C   0  0  0  0  0  3  0  0  0  0  0  0
  -23.6030  -29.8030   20.2130 C   0  0  0  0  0  2  0  0  0  0  0  0
  -24.6650  -31.0610   22.1370 N   0  0  0  0  0  0  0  0  0  0  0  0
  -23.5210  -32.1490   23.7750 O   0  0  0  0  0  0  0  0  0  0  0  0
  -22.7280  -29.4660   22.5580 C   0  0  0  0  0  0  0  0  0  0  0  0
  -21.4010  -29.2870   22.4300 N   0  0  0  0  0  0  0  0  0  0  0  0
  -23.4030  -28.8440   23.3820 O   0  0  0  0  0  0  0  0  0  0  0  0
  -20.9160  -29.8390   21.7350 H   0  0  0  0  0  0  0  0  0  0  0  0
  -18.0310  -28.0620   22.9080 C   0  0  0  0  0  0  0  0  0  0  0  0
  -20.5840  -28.3490   23.2020 C   0  0  0  0  0  3  0  0  0  0  0  0
  -20.7070  -26.9140   22.6380 C   0  0  0  0  0  2  0  0  0  0  0  0
  -19.6180  -26.5720   21.6160 C   0  0  0  0  0  2  0  0  0  0  0  0
  -18.2270  -26.7100   22.2430 C   0  0  0  0  0  2  0  0  0  0  0  0
  -19.1380  -28.8380   23.3440 C   0  0  0  0  0  0  0  0  0  0  0  0
  -18.9000  -30.1020   23.9270 C   0  0  0  0  0  3  0  0  0  0  0  0
  -17.5880  -30.5910   24.0770 C   0  0  0  0  0  3  0  0  0  0  0  0
  -16.4970  -29.8130   23.6570 C   0  0  0  0  0  3  0  0  0  0  0  0
  -16.7180  -28.5490   23.0790 C   0  0  0  0  0  3  0  0  0  0  0  0
  -25.8880  -32.5030   23.8560 C   0  0  0  0  0  3  0  0  0  0  0  0
  -26.4010  -31.7320   25.1350 C   0  0  1  0  0  0  0  0  0  0  0  0
  -25.3070  -31.5000   26.2030 C   0  0  0  0  0  1  0  0  0  0  0  0
  -26.9760  -30.3520   24.7430 C   0  0  0  0  0  1  0  0  0  0  0  0
  -27.5610  -32.5180   25.7920 C   0  0  0  0  0  1  0  0  0  0  0  0
  -25.5820  -33.9020   24.1910 N   0  0  0  0  0  0  0  0  0  0  0  0
  -25.9130  -34.9560   23.4330 C   0  0  0  0  0  0  0  0  0  0  0  0
  -26.5750  -34.8520   22.3970 O   0  0  0  0  0  0  0  0  0  0  0  0
  -24.9910  -34.0550   24.9950 H   0  0  0  0  0  0  0  0  0  0  0  0
  -24.1840  -36.7540   23.1000 C   0  0  0  0  0  1  0  0  0  0  0  0
  -25.4340  -36.3470   23.8960 C   0  0  0  0  0  3  0  0  0  0  0  0
  -27.5780  -37.2270   24.7050 C   0  0  0  0  0  1  0  0  0  0  0  0
  -26.4680  -37.3980   23.7720 N   0  0  0  0  0  0  0  0  0  0  0  0
  -26.0640  -38.3190   23.9260 H   0  0  0  0  0  0  0  0  0  0  0  0
  1 51  1  0
  1  2  1  0
  2  4  1  0
  3  1  2  0
  6  8  1  0
  7  9  2  0
  8  2  1  0
  8  5  2  0
  9  5  1  0
  9 20  1  0
 10  6  2  0
 10  7  1  0
 11 10  1  0
 12 20  1  0
 13 18  1  0
 14 15  1  0
 14 13  1  0
 16 15  1  0
 16 25  1  0
 16 17  1  0
 18 12  1  0
 18 17  1  0
 19 12  2  0
 20 21  1  0
 22 23  2  0
 23 42  1  0
 24 23  1  0
 24 27  1  0
 25 22  1  0
 25 26  1  0
 26 24  2  0
 27 28  1  0
 28 29  2  0
 30 33  1  0
 30 29  1  0
 31 30  2  0
 32 31  1  0
 32 27  2  0
 33 34  1  0
 34 35  1  0
 35 36  2  0
 37 36  1  0
 37 41  1  0
 38 37  2  0
 39 34  2  0
 39 38  1  0
 40 39  1  0
 42 43  1  0
 43 46  1  0
 43 45  1  0
 44 42  2  0
 47 48  1  0
 47 22  1  0
 49 47  1  0
 50 56  1  0
 50 51  2  0
 51 52  1  0
 52 53  1  0
 52 54  1  0
 52 55  1  0
 57 68  2  0
 58 56  1  0
 58 63  1  0
 59 67  1  0
 59 69  1  0
 60 66  1  0
 60 62  1  0
 61 67  1  0
 62 61  1  0
 63 62  2  0
 64 58  2  0
 65 64  1  0
 65 60  2  0
 66 59  1  0
 67 57  1  0
 69 71  2  0
 70 69  1  0
 72 70  1  0
 73 82  2  0
 73 78  1  0
 74 70  1  0
 74 78  1  0
 75 74  1  0
 76 77  1  0
 76 75  1  0
 77 73  1  0
 78 79  2  0
 79 80  1  0
 81 80  2  0
 82 81  1  0
 83 57  1  0
 83 88  1  0
 83 84  1  0
 84 87  1  1
 84 85  1  0
 86 84  1  0
 88 91  1  0
 89 93  1  0
 89 88  1  0
 90 89  2  0
 93 92  1  0
 95 93  1  0
 95 96  1  0
 95 94  1  0
M  ISO  4  12 100  20 100  50 101  56 101
M  END
>  <TORSDO>  (21) 
F 19

>  <SCORE>  (21) 
-14.521

>  <name>  (21) 
20

>  <ligand_id>  (21) 
20

>  <original_smiles>  (21) 
[H]C(Oc1c([H])c([H])c2c(c1[H])C([H])([H])N(C(=O)C([H])(N([H])C(=O)C([H])(N([H])C([H])([H])[H])C([H])([H])[H])C(C([H])([H])[H])(C([H])([H])[H])C([H])([H])[H])C([H])(C(=O)N([H])C1([H])c3c([H])c([H])c([H])c([H])c3C([H])([H])C([H])([H])C1([H])[H])C2([H])[H])=C(C(=O)N([H])c1c([H])c(F)c([H])c(N([H])C(=O)N2C([H])([H])C([H])([H])C([H])([H])C([H])(n3nc(-c4c([H])c([H])c(Oc5c([H])c([H])c(F)c([H])c5F)c([H])c4[H])c(C(=O)N([H])[H])c3N([H])[H])C2([H])[H])c1[H])[N+]([H])([H])[H]

>  <smiles>  (21) 
[H]C(Oc1c([H])c([H])c2c(c1[H])C([H])([H])N(C(=O)C([H])(N([H])C(=O)C([H])(N([H])C([H])([H])[H])C([H])([H])[H])C(C([H])([H])[H])(C([H])([H])[H])C([H])([H])[H])C([H])(C(=O)N([H])C1([H])c3c([H])c([H])c([H])c([H])c3C([H])([H])C([H])([H])C1([H])[H])C2([H])[H])=C(C(=O)N([H])c1c([H])c(F)c([H])c(N([H])C(=O)N2C([H])([H])C([H])([H])C([H])([H])C([H])(n3nc(-c4c([H])c([H])c(Oc5c([H])c([H])c(F)c([H])c5F)c([H])c4[H])c(C(=O)N([H])[H])c3N([H])[H])C2([H])[H])c1[H])[N+]([H])([H])[H]

$$$$
21:0:0
     RDKit          3D

 91100  0  0  1  0  0  0  0  0999 V2000
  -30.0160  -22.6610   19.6430 C   0  0  0  0  0  2  0  0  0  0  0  0
  -27.9260  -22.3520   20.9460 C   0  0  0  0  0  2  0  0  0  0  0  0
  -29.7730  -24.1970   20.0640 C   0  0  0  0  0  2  0  0  0  0  0  0
  -27.3940  -23.8160   20.5040 C   0  0  0  0  0  2  0  0  0  0  0  0
  -28.9030  -21.5910   19.9770 C   0  0  0  0  0  3  0  0  0  0  0  0
  -28.3640  -24.8510   19.7810 C   0  0  2  0  0  0  0  0  0  0  0  0
  -28.2110  -24.8120   18.2400 C   0  0  0  0  0  1  0  0  0  0  0  0
  -30.6760  -18.2350   21.0400 C   0  0  0  0  0  3  0  0  0  0  0  0
  -29.7480  -17.3960   20.4370 C   0  0  0  0  0  0  0  0  0  0  0  0
  -29.3600  -20.0590   20.2610 C   0  0  0  0  0  0  0  0  0  0  0  0
  -30.4320  -19.6520   20.9760 N   0  0  0  0  0  0  0  0  0  0  0  0
  -28.5430  -18.5300   19.7000 S   0  0  0  0  0  0  0  0  0  0  0  0
  -30.4840  -14.8750   20.4160 C   0  0  0  0  0  0  0  0  0  0  0  0
  -30.3880  -12.5470   19.4620 C   0  0  0  0  0  2  0  0  0  0  0  0
  -29.4640  -12.5530   18.2210 C   0  0  0  0  0  2  0  0  0  0  0  0
  -27.9910  -12.3560   18.6350 C   0  0  0  0  0  2  0  0  0  0  0  0
  -27.5780  -13.2700   19.8190 C   0  0  0  0  0  3  0  0  0  0  0  0
  -28.6200  -13.2310   20.9570 C   0  0  0  0  0  2  0  0  0  0  0  0
  -29.9110  -13.6170   20.3690 N   0  0  0  0  0  0  0  0  0  0  0  0
  -31.6930  -14.9960   20.1900 O   0  0  0  0  0  0  0  0  0  0  0  0
  -29.6160  -15.9770   20.4400 N   0  0  0  0  0  0  0  0  0  0  0  0
  -28.6570  -15.6710   20.4070 H   0  0  0  0  0  0  0  0  0  0  0  0
  -25.1810  -13.8600   20.5100 C   0  0  0  0  0  0  0  0  0  0  0  0
  -24.1120  -13.0880   20.8700 C   0  0  0  0  0  0  0  0  0  0  0  0
  -24.5780  -11.7370   20.8590 C   0  0  0  0  0  0  0  0  0  0  0  0
  -26.2300  -12.9810   20.2950 N   0  0  0  0  0  0  0  0  0  0  0  0
  -25.8740  -11.6990   20.5700 N   0  0  0  0  0  0  0  0  0  0  0  0
  -23.8510  -10.4750   21.0480 C   0  0  0  0  0  0  0  0  0  0  0  0
  -24.2740   -9.5120   21.9900 C   0  0  0  0  0  3  0  0  0  0  0  0
  -23.5460   -8.3160   22.1670 C   0  0  0  0  0  3  0  0  0  0  0  0
  -22.3830   -8.0730   21.4000 C   0  0  0  0  0  0  0  0  0  0  0  0
  -21.9790   -9.0240   20.4460 C   0  0  0  0  0  3  0  0  0  0  0  0
  -22.7070  -10.2120   20.2690 C   0  0  0  0  0  3  0  0  0  0  0  0
  -21.6290   -6.9270   21.4840 O   0  0  0  0  0  0  0  0  0  0  0  0
  -21.5710   -6.1860   22.6380 C   0  0  0  0  0  0  0  0  0  0  0  0
  -21.1340   -6.7430   23.8590 C   0  0  0  0  0  3  0  0  0  0  0  0
  -21.0230   -5.9290   25.0040 C   0  0  0  0  0  3  0  0  0  0  0  0
  -21.3420   -4.5600   24.9290 C   0  0  0  0  0  0  0  0  0  0  0  0
  -21.7740   -4.0030   23.7120 C   0  0  0  0  0  3  0  0  0  0  0  0
  -21.8850   -4.8140   22.5690 C   0  0  0  0  0  0  0  0  0  0  0  0
  -22.2810   -4.2690   21.3940 F   0  0  0  0  0  0  0  0  0  0  0  0
  -21.2300   -3.7750   26.0260 F   0  0  0  0  0  0  0  0  0  0  0  0
  -22.7080  -13.5650   21.1120 C   0  0  0  0  0  0  0  0  0  0  0  0
  -21.9660  -12.8770   21.9730 N   0  0  0  0  0  0  0  0  0  0  0  0
  -22.2780  -14.5830   20.5720 O   0  0  0  0  0  0  0  0  0  0  0  0
  -22.3260  -12.0550   22.4330 H   0  0  0  0  0  0  0  0  0  0  0  0
  -21.0230  -13.1790   22.1750 H   0  0  0  0  0  0  0  0  0  0  0  0
  -25.3410  -15.2300   20.3220 N   0  0  0  0  0  0  0  0  0  0  0  0
  -24.5590  -15.8710   20.4040 H   0  0  0  0  0  0  0  0  0  0  0  0
  -26.1730  -15.6750   19.9580 H   0  0  0  0  0  0  0  0  0  0  0  0
  -28.3140  -26.3340   20.1980 O   0  0  0  0  0  0  0  0  0  0  0  0
  -24.6440  -31.8810   23.2520 C   0  0  0  0  0  0  0  0  0  0  0  0
  -27.1940  -27.2260   20.1620 C   0  0  0  0  0  0  0  0  0  0  0  0
  -23.4200  -30.4920   21.6230 C   0  0  0  0  0  3  0  0  0  0  0  0
  -24.8460  -28.9250   20.1810 C   0  0  0  0  0  0  0  0  0  0  0  0
  -25.9690  -30.7740   21.4180 C   0  0  0  0  0  2  0  0  0  0  0  0
  -26.0340  -29.3890   20.7600 C   0  0  0  0  0  0  0  0  0  0  0  0
  -27.2070  -28.5570   20.7260 C   0  0  0  0  0  3  0  0  0  0  0  0
  -25.9580  -26.8260   19.6060 C   0  0  0  0  0  3  0  0  0  0  0  0
  -24.8170  -27.6530   19.5940 C   0  0  0  0  0  3  0  0  0  0  0  0
  -23.6200  -29.8190   20.2410 C   0  0  0  0  0  2  0  0  0  0  0  0
  -24.6990  -31.0690   22.1530 N   0  0  0  0  0  0  0  0  0  0  0  0
  -23.5640  -32.1630   23.7950 O   0  0  0  0  0  0  0  0  0  0  0  0
  -22.7570  -29.4800   22.5900 C   0  0  0  0  0  0  0  0  0  0  0  0
  -21.4300  -29.2980   22.4650 N   0  0  0  0  0  0  0  0  0  0  0  0
  -23.4360  -28.8610   23.4130 O   0  0  0  0  0  0  0  0  0  0  0  0
  -20.9380  -29.8500   21.7760 H   0  0  0  0  0  0  0  0  0  0  0  0
  -18.0610  -28.0640   22.9590 C   0  0  0  0  0  0  0  0  0  0  0  0
  -20.6160  -28.3590   23.2400 C   0  0  0  0  0  3  0  0  0  0  0  0
  -20.7360  -26.9220   22.6810 C   0  0  0  0  0  2  0  0  0  0  0  0
  -19.6450  -26.5750   21.6630 C   0  0  0  0  0  2  0  0  0  0  0  0
  -18.2580  -26.7100   22.2960 C   0  0  0  0  0  2  0  0  0  0  0  0
  -19.1680  -28.8440   23.3870 C   0  0  0  0  0  0  0  0  0  0  0  0
  -18.9300  -30.1090   23.9670 C   0  0  0  0  0  3  0  0  0  0  0  0
  -17.6180  -30.5950   24.1220 C   0  0  0  0  0  3  0  0  0  0  0  0
  -16.5260  -29.8120   23.7090 C   0  0  0  0  0  3  0  0  0  0  0  0
  -16.7480  -28.5490   23.1340 C   0  0  0  0  0  3  0  0  0  0  0  0
  -25.9300  -32.5110   23.8670 C   0  0  0  0  0  3  0  0  0  0  0  0
  -25.6250  -33.9090   24.2060 N   0  0  0  0  0  0  0  0  0  0  0  0
  -25.9340  -34.9650   23.4430 C   0  0  0  0  0  0  0  0  0  0  0  0
  -26.5750  -34.8660   22.3940 O   0  0  0  0  0  0  0  0  0  0  0  0
  -25.0530  -34.0600   25.0240 H   0  0  0  0  0  0  0  0  0  0  0  0
  -24.1850  -36.7520   23.1570 C   0  0  0  0  0  1  0  0  0  0  0  0
  -25.4590  -36.3530   23.9190 C   0  0  0  0  0  3  0  0  0  0  0  0
  -27.6200  -37.2500   24.6640 C   0  0  0  0  0  1  0  0  0  0  0  0
  -26.4820  -37.4110   23.7640 N   0  0  0  0  0  0  0  0  0  0  0  0
  -26.0770  -38.3300   23.9250 H   0  0  0  0  0  0  0  0  0  0  0  0
  -26.4540  -31.7360   25.1390 C   0  0  1  0  0  0  0  0  0  0  0  0
  -25.3680  -31.5030   26.2170 C   0  0  0  0  0  1  0  0  0  0  0  0
  -27.0270  -30.3560   24.7440 C   0  0  0  0  0  1  0  0  0  0  0  0
  -27.6130  -32.5250   25.7920 C   0  0  0  0  0  1  0  0  0  0  0  0
  1  5  1  0
  1  3  1  0
  4  2  1  0
  5 10  1  0
  5  2  1  0
  6  7  1  6
  6  3  1  0
  6 51  1  0
  6  4  1  0
  9 21  1  0
  9  8  2  0
 10 11  2  0
 11  8  1  0
 12 10  1  0
 12  9  1  0
 13 21  1  0
 14 19  1  0
 15 16  1  0
 15 14  1  0
 17 16  1  0
 17 26  1  0
 17 18  1  0
 19 13  1  0
 19 18  1  0
 20 13  2  0
 22 21  1  0
 23 24  2  0
 24 43  1  0
 25 24  1  0
 25 28  1  0
 26 23  1  0
 26 27  1  0
 27 25  2  0
 28 29  1  0
 29 30  2  0
 31 34  1  0
 31 30  1  0
 32 31  2  0
 33 32  1  0
 33 28  2  0
 34 35  1  0
 35 36  1  0
 36 37  2  0
 38 37  1  0
 38 42  1  0
 39 38  2  0
 40 35  2  0
 40 39  1  0
 41 40  1  0
 43 44  1  0
 44 47  1  0
 44 46  1  0
 45 43  2  0
 48 49  1  0
 48 23  1  0
 50 48  1  0
 52 63  2  0
 53 51  1  0
 53 58  1  0
 54 62  1  0
 54 64  1  0
 55 61  1  0
 55 57  1  0
 56 62  1  0
 57 56  1  0
 58 57  2  0
 59 53  2  0
 60 59  1  0
 60 55  2  0
 61 54  1  0
 62 52  1  0
 64 66  2  0
 65 64  1  0
 67 65  1  0
 68 77  2  0
 68 73  1  0
 69 65  1  0
 69 73  1  0
 70 69  1  0
 71 72  1  0
 71 70  1  0
 72 68  1  0
 73 74  2  0
 74 75  1  0
 76 75  2  0
 77 76  1  0
 78 52  1  0
 78 79  1  0
 78 88  1  0
 79 82  1  0
 80 84  1  0
 80 79  1  0
 81 80  2  0
 84 83  1  0
 86 84  1  0
 86 87  1  0
 86 85  1  0
 88 91  1  1
 88 89  1  0
 90 88  1  0
M  ISO  4   6 101  13 100  21 100  51 101
M  END
>  <TORSDO>  (22) 
F 17

>  <SCORE>  (22) 
-15.146

>  <name>  (22) 
21

>  <ligand_id>  (22) 
21

>  <original_smiles>  (22) 
[H]c1nc(C2([H])C([H])([H])C([H])([H])C(Oc3c([H])c([H])c4c(c3[H])C([H])([H])N(C(=O)C([H])(N([H])C(=O)C([H])(N([H])C([H])([H])[H])C([H])([H])[H])C(C([H])([H])[H])(C([H])([H])[H])C([H])([H])[H])C([H])(C(=O)N([H])C3([H])c5c([H])c([H])c([H])c([H])c5C([H])([H])C([H])([H])C3([H])[H])C4([H])[H])(C([H])([H])[H])C([H])([H])C2([H])[H])sc1N([H])C(=O)N1C([H])([H])C([H])([H])C([H])([H])C([H])(n2nc(-c3c([H])c([H])c(Oc4c([H])c([H])c(F)c([H])c4F)c([H])c3[H])c(C(=O)N([H])[H])c2N([H])[H])C1([H])[H]

>  <smiles>  (22) 
[H]c1nc(C2([H])C([H])([H])C([H])([H])C(Oc3c([H])c([H])c4c(c3[H])C([H])([H])N(C(=O)C([H])(N([H])C(=O)C([H])(N([H])C([H])([H])[H])C([H])([H])[H])C(C([H])([H])[H])(C([H])([H])[H])C([H])([H])[H])C([H])(C(=O)N([H])C3([H])c5c([H])c([H])c([H])c([H])c5C([H])([H])C([H])([H])C3([H])[H])C4([H])[H])(C([H])([H])[H])C([H])([H])C2([H])[H])sc1N([H])C(=O)N1C([H])([H])C([H])([H])C([H])([H])C([H])(n2nc(-c3c([H])c([H])c(Oc4c([H])c([H])c(F)c([H])c4F)c([H])c3[H])c(C(=O)N([H])[H])c2N([H])[H])C1([H])[H]

$$$$
22:0:0
     RDKit          3D

 94103  0  0  1  0  0  0  0  0999 V2000
  -28.6180  -23.8200   20.9690 C   0  0  0  0  0  0  0  0  0  0  0  0
  -29.2730  -21.2740   21.0030 C   0  0  0  0  0  3  0  0  0  0  0  0
  -28.7790  -24.3000   18.6630 C   0  0  0  0  0  2  0  0  0  0  0  0
  -28.9910  -22.7650   18.9000 C   0  0  0  0  0  2  0  0  0  0  0  0
  -28.0920  -24.8750   19.9150 C   0  0  0  0  0  3  0  0  0  0  0  0
  -29.0030  -22.5090   20.3540 N   0  0  0  0  0  0  0  0  0  0  0  0
  -29.1660  -21.2490   22.3440 N   0  0  0  0  0  0  0  0  0  0  0  0
  -28.6230  -24.0170   22.1950 O   0  0  0  0  0  0  0  0  0  0  0  0
  -29.4130  -20.4250   22.8700 H   0  0  0  0  0  0  0  0  0  0  0  0
  -28.9260  -22.0920   22.8540 H   0  0  0  0  0  0  0  0  0  0  0  0
  -29.3460  -18.5980   20.8330 C   0  0  0  0  0  3  0  0  0  0  0  0
  -31.0670  -18.0010   19.3840 C   0  0  0  0  0  3  0  0  0  0  0  0
  -30.1290  -17.4880   20.2480 C   0  0  0  0  0  0  0  0  0  0  0  0
  -29.7040  -19.9150   20.4510 C   0  0  0  0  0  0  0  0  0  0  0  0
  -31.0050  -19.7700   19.2840 S   0  0  0  0  0  0  0  0  0  0  0  0
  -30.6780  -14.8900   20.1610 C   0  0  0  0  0  0  0  0  0  0  0  0
  -30.4650  -12.6050   19.1510 C   0  0  0  0  0  2  0  0  0  0  0  0
  -29.4990  -12.6710   17.9450 C   0  0  0  0  0  2  0  0  0  0  0  0
  -28.0420  -12.4830   18.4080 C   0  0  0  0  0  2  0  0  0  0  0  0
  -27.6910  -13.3690   19.6330 C   0  0  0  0  0  3  0  0  0  0  0  0
  -28.7740  -13.2870   20.7320 C   0  0  0  0  0  2  0  0  0  0  0  0
  -30.0570  -13.6560   20.1170 N   0  0  0  0  0  0  0  0  0  0  0  0
  -31.8470  -14.9850   19.7670 O   0  0  0  0  0  0  0  0  0  0  0  0
  -29.9270  -16.0210   20.4960 N   0  0  0  0  0  0  0  0  0  0  0  0
  -29.0360  -15.7860   20.9070 H   0  0  0  0  0  0  0  0  0  0  0  0
  -25.3190  -13.9480   20.4160 C   0  0  0  0  0  0  0  0  0  0  0  0
  -24.2630  -13.1690   20.8020 C   0  0  0  0  0  0  0  0  0  0  0  0
  -24.7280  -11.8200   20.7520 C   0  0  0  0  0  0  0  0  0  0  0  0
  -26.3590  -13.0720   20.1510 N   0  0  0  0  0  0  0  0  0  0  0  0
  -26.0120  -11.7860   20.4170 N   0  0  0  0  0  0  0  0  0  0  0  0
  -24.0070  -10.5540   20.9480 C   0  0  0  0  0  0  0  0  0  0  0  0
  -24.4340   -9.6000   21.8980 C   0  0  0  0  0  3  0  0  0  0  0  0
  -23.7120   -8.4000   22.0810 C   0  0  0  0  0  3  0  0  0  0  0  0
  -22.5520   -8.1460   21.3130 C   0  0  0  0  0  0  0  0  0  0  0  0
  -22.1450   -9.0870   20.3510 C   0  0  0  0  0  3  0  0  0  0  0  0
  -22.8660  -10.2790   20.1670 C   0  0  0  0  0  3  0  0  0  0  0  0
  -21.8030   -6.9980   21.4050 O   0  0  0  0  0  0  0  0  0  0  0  0
  -21.7060   -6.2930   22.5780 C   0  0  0  0  0  0  0  0  0  0  0  0
  -21.1840   -6.8720   23.7550 C   0  0  0  0  0  3  0  0  0  0  0  0
  -21.0400   -6.0910   24.9200 C   0  0  0  0  0  3  0  0  0  0  0  0
  -21.4060   -4.7330   24.9060 C   0  0  0  0  0  0  0  0  0  0  0  0
  -21.9200   -4.1510   23.7330 C   0  0  0  0  0  3  0  0  0  0  0  0
  -22.0660   -4.9290   22.5720 C   0  0  0  0  0  0  0  0  0  0  0  0
  -22.5420   -4.3610   21.4370 F   0  0  0  0  0  0  0  0  0  0  0  0
  -21.2590   -3.9800   26.0220 F   0  0  0  0  0  0  0  0  0  0  0  0
  -22.8700  -13.6400   21.1040 C   0  0  0  0  0  0  0  0  0  0  0  0
  -22.1620  -12.9370   21.9800 N   0  0  0  0  0  0  0  0  0  0  0  0
  -22.4210  -14.6690   20.6000 O   0  0  0  0  0  0  0  0  0  0  0  0
  -22.5420  -12.1050   22.4070 H   0  0  0  0  0  0  0  0  0  0  0  0
  -21.2280  -13.2320   22.2250 H   0  0  0  0  0  0  0  0  0  0  0  0
  -25.4770  -15.3200   20.2440 N   0  0  0  0  0  0  0  0  0  0  0  0
  -24.7090  -15.9700   20.3680 H   0  0  0  0  0  0  0  0  0  0  0  0
  -26.3070  -15.7580   19.8650 H   0  0  0  0  0  0  0  0  0  0  0  0
  -28.2570  -26.3760   20.1680 O   0  0  0  0  0  0  0  0  0  0  0  0
  -24.5710  -31.8980   23.1740 C   0  0  0  0  0  0  0  0  0  0  0  0
  -27.1650  -27.2880   20.0860 C   0  0  0  0  0  0  0  0  0  0  0  0
  -23.3670  -30.5110   21.5280 C   0  0  0  0  0  3  0  0  0  0  0  0
  -24.8160  -28.9690   20.0820 C   0  0  0  0  0  0  0  0  0  0  0  0
  -25.9140  -30.8080   21.3520 C   0  0  0  0  0  2  0  0  0  0  0  0
  -25.9900  -29.4300   20.6890 C   0  0  0  0  0  0  0  0  0  0  0  0
  -27.1640  -28.6020   20.6810 C   0  0  0  0  0  3  0  0  0  0  0  0
  -25.9690  -26.9220   19.4230 C   0  0  0  0  0  3  0  0  0  0  0  0
  -24.8130  -27.7240   19.4400 C   0  0  0  0  0  3  0  0  0  0  0  0
  -23.5820  -29.8500   20.1400 C   0  0  0  0  0  2  0  0  0  0  0  0
  -24.6370  -31.0910   22.0730 N   0  0  0  0  0  0  0  0  0  0  0  0
  -23.4870  -32.1730   23.7100 O   0  0  0  0  0  0  0  0  0  0  0  0
  -22.7040  -29.4880   22.4810 C   0  0  0  0  0  0  0  0  0  0  0  0
  -21.3770  -29.3080   22.3550 N   0  0  0  0  0  0  0  0  0  0  0  0
  -23.3830  -28.8600   23.2980 O   0  0  0  0  0  0  0  0  0  0  0  0
  -20.8870  -29.8660   21.6710 H   0  0  0  0  0  0  0  0  0  0  0  0
  -18.0010  -28.1090   22.8710 C   0  0  0  0  0  0  0  0  0  0  0  0
  -20.5630  -28.3630   23.1220 C   0  0  0  0  0  3  0  0  0  0  0  0
  -20.6570  -26.9380   22.5300 C   0  0  0  0  0  2  0  0  0  0  0  0
  -19.5470  -26.6280   21.5210 C   0  0  0  0  0  2  0  0  0  0  0  0
  -18.1700  -26.7670   22.1780 C   0  0  0  0  0  2  0  0  0  0  0  0
  -19.1240  -28.8640   23.3000 C   0  0  0  0  0  0  0  0  0  0  0  0
  -18.9110  -30.1200   23.9110 C   0  0  0  0  0  3  0  0  0  0  0  0
  -17.6080  -30.6200   24.0940 C   0  0  0  0  0  3  0  0  0  0  0  0
  -16.5010  -29.8610   23.6810 C   0  0  0  0  0  3  0  0  0  0  0  0
  -16.6980  -28.6070   23.0760 C   0  0  0  0  0  3  0  0  0  0  0  0
  -25.8520  -32.5320   23.7960 C   0  0  0  0  0  3  0  0  0  0  0  0
  -25.5390  -33.9260   24.1410 N   0  0  0  0  0  0  0  0  0  0  0  0
  -25.8600  -34.9890   23.3900 C   0  0  0  0  0  0  0  0  0  0  0  0
  -26.5220  -34.8980   22.3520 O   0  0  0  0  0  0  0  0  0  0  0  0
  -24.9490  -34.0720   24.9470 H   0  0  0  0  0  0  0  0  0  0  0  0
  -24.1290  -36.7830   23.0560 C   0  0  0  0  0  1  0  0  0  0  0  0
  -25.3690  -36.3700   23.8640 C   0  0  0  0  0  3  0  0  0  0  0  0
  -27.5070  -37.2390   24.7040 C   0  0  0  0  0  1  0  0  0  0  0  0
  -26.3960  -37.4320   23.7770 N   0  0  0  0  0  0  0  0  0  0  0  0
  -25.9830  -38.3420   23.9680 H   0  0  0  0  0  0  0  0  0  0  0  0
  -26.3720  -31.7540   25.0690 C   0  0  1  0  0  0  0  0  0  0  0  0
  -25.2800  -31.5020   26.1360 C   0  0  0  0  0  1  0  0  0  0  0  0
  -26.9620  -30.3810   24.6720 C   0  0  0  0  0  1  0  0  0  0  0  0
  -27.5190  -32.5480   25.7350 C   0  0  0  0  0  1  0  0  0  0  0  0
  1  8  2  0
  2  7  1  0
  3  4  1  0
  3  5  1  0
  4  6  1  0
  5 54  1  0
  5  1  1  0
  6  1  1  0
  6  2  1  0
  7 10  1  0
  7  9  1  0
 12 13  2  0
 13 24  1  0
 13 11  1  0
 14 11  2  0
 14  2  1  0
 15 12  1  0
 15 14  1  0
 16 24  1  0
 17 22  1  0
 18 19  1  0
 18 17  1  0
 20 19  1  0
 20 29  1  0
 20 21  1  0
 22 16  1  0
 22 21  1  0
 23 16  2  0
 24 25  1  0
 26 27  2  0
 27 46  1  0
 28 27  1  0
 28 31  1  0
 29 26  1  0
 29 30  1  0
 30 28  2  0
 31 32  1  0
 32 33  2  0
 34 37  1  0
 34 33  1  0
 35 34  2  0
 36 35  1  0
 36 31  2  0
 37 38  1  0
 38 39  1  0
 39 40  2  0
 41 40  1  0
 41 45  1  0
 42 41  2  0
 43 38  2  0
 43 42  1  0
 44 43  1  0
 46 47  1  0
 47 50  1  0
 47 49  1  0
 48 46  2  0
 51 52  1  0
 51 26  1  0
 53 51  1  0
 55 66  2  0
 56 54  1  0
 56 61  1  0
 57 65  1  0
 57 67  1  0
 58 64  1  0
 58 60  1  0
 59 65  1  0
 60 59  1  0
 61 60  2  0
 62 63  1  0
 62 56  2  0
 63 58  2  0
 64 57  1  0
 65 55  1  0
 67 69  2  0
 68 67  1  0
 70 68  1  0
 71 80  2  0
 71 76  1  0
 72 68  1  0
 72 76  1  0
 73 72  1  0
 74 75  1  0
 74 73  1  0
 75 71  1  0
 76 77  2  0
 77 78  1  0
 79 78  2  0
 80 79  1  0
 81 55  1  0
 81 82  1  0
 81 91  1  0
 82 85  1  0
 83 87  1  0
 83 82  1  0
 84 83  2  0
 87 86  1  0
 89 87  1  0
 89 90  1  0
 89 88  1  0
 91 94  1  1
 91 92  1  0
 93 91  1  0
M  ISO  4   5 101  16 100  24 100  54 101
M  END
>  <TORSDO>  (23) 
F 17

>  <SCORE>  (23) 
-15.310

>  <name>  (23) 
22

>  <ligand_id>  (23) 
22

>  <original_smiles>  (23) 
[H]c1sc(C(N2C(=O)C([H])(Oc3c([H])c([H])c4c(c3[H])C([H])([H])N(C(=O)C([H])(N([H])C(=O)C([H])(N([H])C([H])([H])[H])C([H])([H])[H])C(C([H])([H])[H])(C([H])([H])[H])C([H])([H])[H])C([H])(C(=O)N([H])C3([H])c5c([H])c([H])c([H])c([H])c5C([H])([H])C([H])([H])C3([H])[H])C4([H])[H])C([H])([H])C2([H])[H])=[N+]([H])[H])c([H])c1N([H])C(=O)N1C([H])([H])C([H])([H])C([H])([H])C([H])(n2nc(-c3c([H])c([H])c(Oc4c([H])c([H])c(F)c([H])c4F)c([H])c3[H])c(C(=O)N([H])[H])c2N([H])[H])C1([H])[H]

>  <smiles>  (23) 
[H]c1sc(C(N2C(=O)C([H])(Oc3c([H])c([H])c4c(c3[H])C([H])([H])N(C(=O)C([H])(N([H])C(=O)C([H])(N([H])C([H])([H])[H])C([H])([H])[H])C(C([H])([H])[H])(C([H])([H])[H])C([H])([H])[H])C([H])(C(=O)N([H])C3([H])c5c([H])c([H])c([H])c([H])c5C([H])([H])C([H])([H])C3([H])[H])C4([H])[H])C([H])([H])C2([H])[H])=[N+]([H])[H])c([H])c1N([H])C(=O)N1C([H])([H])C([H])([H])C([H])([H])C([H])(n2nc(-c3c([H])c([H])c(Oc4c([H])c([H])c(F)c([H])c4F)c([H])c3[H])c(C(=O)N([H])[H])c2N([H])[H])C1([H])[H]

$$$$
23:0:0
     RDKit          3D

 96105  0  0  1  0  0  0  0  0999 V2000
  -31.2450  -22.1990   16.6320 C   0  0  0  0  0  3  0  0  0  0  0  0
  -31.4040  -23.5880   16.9070 C   0  0  0  0  0  3  0  0  0  0  0  0
  -31.4830  -21.4020   17.7280 C   0  0  0  0  0  0  0  0  0  0  0  0
  -31.7690  -23.8380   18.2040 C   0  0  0  0  0  0  0  0  0  0  0  0
  -31.9870  -22.3570   19.1010 S   0  0  0  0  0  0  0  0  0  0  0  0
  -31.3130  -19.9510   17.8580 C   0  0  0  0  0  0  0  0  0  0  0  0
  -30.8630  -19.2830   16.9240 O   0  0  0  0  0  0  0  0  0  0  0  0
  -31.8840  -19.1890   19.4340 S   0  0  0  0  0  0  0  0  0  0  0  0
  -30.7480  -14.5650   20.4320 C   0  0  0  0  0  0  0  0  0  0  0  0
  -30.3520  -12.3790   19.3950 C   0  0  0  0  0  2  0  0  0  0  0  0
  -29.4220  -12.5470   18.1770 C   0  0  0  0  0  2  0  0  0  0  0  0
  -27.9520  -12.3980   18.6130 C   0  0  0  0  0  2  0  0  0  0  0  0
  -27.5950  -13.2670   19.8440 C   0  0  0  0  0  3  0  0  0  0  0  0
  -28.6660  -13.1840   20.9580 C   0  0  0  0  0  2  0  0  0  0  0  0
  -29.9910  -13.4320   20.3580 N   0  0  0  0  0  0  0  0  0  0  0  0
  -31.9560  -14.5580   20.1810 O   0  0  0  0  0  0  0  0  0  0  0  0
  -29.7250  -17.4370   18.8680 C   0  0  0  0  0  2  0  0  0  0  0  0
  -29.1750  -16.1860   19.5190 C   0  0  0  0  0  2  0  0  0  0  0  0
  -30.8530  -16.9990   20.9490 C   0  0  0  0  0  2  0  0  0  0  0  0
  -30.4620  -18.1510   19.9790 C   0  0  0  0  0  3  0  0  0  0  0  0
  -30.1160  -15.7660   20.5600 N   0  0  0  0  0  0  0  0  0  0  0  0
  -25.2120  -13.9000   20.5420 C   0  0  0  0  0  0  0  0  0  0  0  0
  -24.1350  -13.1360   20.8970 C   0  0  0  0  0  0  0  0  0  0  0  0
  -24.5910  -11.7810   20.8800 C   0  0  0  0  0  0  0  0  0  0  0  0
  -26.2510  -13.0040   20.3270 N   0  0  0  0  0  0  0  0  0  0  0  0
  -25.8840  -11.7280   20.5930 N   0  0  0  0  0  0  0  0  0  0  0  0
  -23.8580  -10.5240   21.0560 C   0  0  0  0  0  0  0  0  0  0  0  0
  -24.2730   -9.5570   21.9970 C   0  0  0  0  0  3  0  0  0  0  0  0
  -23.5390   -8.3620   22.1610 C   0  0  0  0  0  3  0  0  0  0  0  0
  -22.3830   -8.1270   21.3800 C   0  0  0  0  0  0  0  0  0  0  0  0
  -21.9910   -9.0830   20.4270 C   0  0  0  0  0  3  0  0  0  0  0  0
  -22.7240  -10.2690   20.2610 C   0  0  0  0  0  3  0  0  0  0  0  0
  -21.6210   -6.9870   21.4570 O   0  0  0  0  0  0  0  0  0  0  0  0
  -21.5460   -6.2510   22.6130 C   0  0  0  0  0  0  0  0  0  0  0  0
  -21.0740   -6.8090   23.8220 C   0  0  0  0  0  3  0  0  0  0  0  0
  -20.9410   -5.9970   24.9670 C   0  0  0  0  0  3  0  0  0  0  0  0
  -21.2710   -4.6310   24.9030 C   0  0  0  0  0  0  0  0  0  0  0  0
  -21.7360   -4.0720   23.7000 C   0  0  0  0  0  3  0  0  0  0  0  0
  -21.8660   -4.8810   22.5570 C   0  0  0  0  0  0  0  0  0  0  0  0
  -22.2920   -4.3330   21.3930 F   0  0  0  0  0  0  0  0  0  0  0  0
  -21.1370   -3.8510   26.0020 F   0  0  0  0  0  0  0  0  0  0  0  0
  -22.7350  -13.6220   21.1420 C   0  0  0  0  0  0  0  0  0  0  0  0
  -21.9810  -12.9270   21.9870 N   0  0  0  0  0  0  0  0  0  0  0  0
  -22.3160  -14.6540   20.6190 O   0  0  0  0  0  0  0  0  0  0  0  0
  -22.3300  -12.0920   22.4300 H   0  0  0  0  0  0  0  0  0  0  0  0
  -21.0410  -13.2340   22.1890 H   0  0  0  0  0  0  0  0  0  0  0  0
  -25.3860  -15.2700   20.3620 N   0  0  0  0  0  0  0  0  0  0  0  0
  -24.6210  -15.9300   20.4730 H   0  0  0  0  0  0  0  0  0  0  0  0
  -26.2450  -15.7080   20.0530 H   0  0  0  0  0  0  0  0  0  0  0  0
  -31.9040  -25.0710   18.8270 N   0  0  0  0  0  0  0  0  0  0  0  0
  -31.9700  -25.8840   18.2170 H   0  0  0  0  0  0  0  0  0  0  0  0
  -31.0090  -25.2970   19.9600 C   0  0  0  0  0  2  0  0  0  0  0  0
  -30.9650  -26.7600   20.4000 C   0  0  0  0  0  0  0  0  0  0  0  0
  -32.0130  -27.4100   20.4880 O   0  0  0  0  0  0  0  0  0  0  0  0
  -29.6170  -27.4330   20.7110 C   0  0  0  0  0  2  0  0  0  0  0  0
  -28.4680  -26.7610   20.1580 O   0  0  0  0  0  0  0  0  0  0  0  0
  -24.5520  -31.8600   23.2300 C   0  0  0  0  0  0  0  0  0  0  0  0
  -27.2800  -27.4760   20.1920 C   0  0  0  0  0  0  0  0  0  0  0  0
  -23.3540  -30.4450   21.5820 C   0  0  0  0  0  3  0  0  0  0  0  0
  -24.8270  -28.9080   20.1750 C   0  0  0  0  0  0  0  0  0  0  0  0
  -25.8590  -30.8460   21.3710 C   0  0  0  0  0  2  0  0  0  0  0  0
  -25.9630  -29.4640   20.7660 C   0  0  0  0  0  0  0  0  0  0  0  0
  -27.1770  -28.7560   20.7910 C   0  0  0  0  0  3  0  0  0  0  0  0
  -26.1220  -26.9200   19.6000 C   0  0  0  0  0  3  0  0  0  0  0  0
  -24.8990  -27.6280   19.5900 C   0  0  0  0  0  3  0  0  0  0  0  0
  -23.5700  -29.7490   20.2050 C   0  0  0  0  0  2  0  0  0  0  0  0
  -24.6070  -31.0610   22.1260 N   0  0  0  0  0  0  0  0  0  0  0  0
  -23.4710  -32.1270   23.7710 O   0  0  0  0  0  0  0  0  0  0  0  0
  -22.7020  -29.4300   22.5470 C   0  0  0  0  0  0  0  0  0  0  0  0
  -21.3780  -29.2560   22.4210 N   0  0  0  0  0  0  0  0  0  0  0  0
  -23.3880  -28.8040   23.3590 O   0  0  0  0  0  0  0  0  0  0  0  0
  -20.8860  -29.8140   21.7360 H   0  0  0  0  0  0  0  0  0  0  0  0
  -17.9970  -28.0980   22.9370 C   0  0  0  0  0  0  0  0  0  0  0  0
  -20.5590  -28.3210   23.1950 C   0  0  0  0  0  3  0  0  0  0  0  0
  -20.6420  -26.8950   22.6050 C   0  0  0  0  0  2  0  0  0  0  0  0
  -19.5280  -26.5960   21.5960 C   0  0  0  0  0  2  0  0  0  0  0  0
  -18.1520  -26.7520   22.2510 C   0  0  0  0  0  2  0  0  0  0  0  0
  -19.1290  -28.8410   23.3680 C   0  0  0  0  0  0  0  0  0  0  0  0
  -18.9340  -30.1030   23.9680 C   0  0  0  0  0  3  0  0  0  0  0  0
  -17.6390  -30.6220   24.1470 C   0  0  0  0  0  3  0  0  0  0  0  0
  -16.5200  -29.8760   23.7340 C   0  0  0  0  0  3  0  0  0  0  0  0
  -16.7010  -28.6170   23.1330 C   0  0  0  0  0  3  0  0  0  0  0  0
  -25.8360  -32.4920   23.8530 C   0  0  0  0  0  3  0  0  0  0  0  0
  -25.5330  -33.8890   24.1790 N   0  0  0  0  0  0  0  0  0  0  0  0
  -25.8870  -34.9390   23.4230 C   0  0  0  0  0  0  0  0  0  0  0  0
  -26.5760  -34.8260   22.4040 O   0  0  0  0  0  0  0  0  0  0  0  0
  -24.9170  -34.0520   24.9640 H   0  0  0  0  0  0  0  0  0  0  0  0
  -24.1910  -36.7450   23.0100 C   0  0  0  0  0  1  0  0  0  0  0  0
  -25.3990  -36.3300   23.8640 C   0  0  0  0  0  3  0  0  0  0  0  0
  -27.5110  -37.1930   24.7680 C   0  0  0  0  0  1  0  0  0  0  0  0
  -26.4470  -37.3700   23.7840 N   0  0  0  0  0  0  0  0  0  0  0  0
  -26.0470  -38.2960   23.9100 H   0  0  0  0  0  0  0  0  0  0  0  0
  -26.3560  -31.7180   25.1270 C   0  0  1  0  0  0  0  0  0  0  0  0
  -25.2620  -31.4690   26.1910 C   0  0  0  0  0  1  0  0  0  0  0  0
  -26.9440  -30.3470   24.7230 C   0  0  0  0  0  1  0  0  0  0  0  0
  -27.5000  -32.5140   25.7970 C   0  0  0  0  0  1  0  0  0  0  0  0
  1  2  1  0
  1  3  2  0
  2  4  2  0
  3  6  1  0
  3  5  1  0
  4 50  1  0
  4  5  1  0
  6  8  1  0
  7  6  2  0
  9 21  1  0
 10 15  1  0
 11 12  1  0
 11 10  1  0
 13 12  1  0
 13 25  1  0
 13 14  1  0
 15  9  1  0
 15 14  1  0
 16  9  2  0
 17 18  1  0
 17 20  1  0
 18 21  1  0
 20  8  1  0
 20 19  1  0
 21 19  1  0
 22 23  2  0
 23 42  1  0
 24 23  1  0
 24 27  1  0
 25 22  1  0
 25 26  1  0
 26 24  2  0
 27 28  1  0
 28 29  2  0
 30 33  1  0
 30 29  1  0
 31 30  2  0
 32 31  1  0
 32 27  2  0
 33 34  1  0
 34 35  1  0
 35 36  2  0
 37 36  1  0
 37 41  1  0
 38 37  2  0
 39 34  2  0
 39 38  1  0
 40 39  1  0
 42 43  1  0
 43 46  1  0
 43 45  1  0
 44 42  2  0
 47 48  1  0
 47 22  1  0
 49 47  1  0
 50 52  1  0
 51 50  1  0
 52 53  1  0
 53 54  2  0
 53 55  1  0
 56 58  1  0
 56 55  1  0
 57 68  2  0
 58 63  1  0
 59 67  1  0
 59 69  1  0
 60 66  1  0
 60 62  1  0
 61 67  1  0
 62 63  2  0
 62 61  1  0
 64 58  2  0
 65 64  1  0
 65 60  2  0
 66 59  1  0
 67 57  1  0
 69 71  2  0
 70 69  1  0
 72 70  1  0
 73 82  2  0
 73 78  1  0
 74 70  1  0
 74 78  1  0
 75 74  1  0
 76 77  1  0
 76 75  1  0
 77 73  1  0
 78 79  2  0
 79 80  1  0
 81 80  2  0
 82 81  1  0
 83 57  1  0
 83 84  1  0
 83 93  1  0
 84 87  1  0
 85 89  1  0
 85 84  1  0
 86 85  2  0
 89 88  1  0
 91 89  1  0
 91 92  1  0
 91 90  1  0
 93 96  1  1
 93 94  1  0
 95 93  1  0
M  ISO  4   9 100  21 100  55 101  56 101
M  END
>  <TORSDO>  (24) 
F 22

>  <SCORE>  (24) 
-13.083

>  <name>  (24) 
23

>  <ligand_id>  (24) 
23

>  <original_smiles>  (24) 
[H]c1c(C(=O)SC2([H])C([H])([H])N(C(=O)N3C([H])([H])C([H])([H])C([H])([H])C([H])(n4nc(-c5c([H])c([H])c(Oc6c([H])c([H])c(F)c([H])c6F)c([H])c5[H])c(C(=O)N([H])[H])c4N([H])[H])C3([H])[H])C([H])([H])C2([H])[H])sc(N([H])C([H])([H])C(=O)C([H])([H])Oc2c([H])c([H])c3c(c2[H])C([H])([H])N(C(=O)C([H])(N([H])C(=O)C([H])(N([H])C([H])([H])[H])C([H])([H])[H])C(C([H])([H])[H])(C([H])([H])[H])C([H])([H])[H])C([H])(C(=O)N([H])C2([H])c4c([H])c([H])c([H])c([H])c4C([H])([H])C([H])([H])C2([H])[H])C3([H])[H])c1[H]

>  <smiles>  (24) 
[H]c1c(C(=O)SC2([H])C([H])([H])N(C(=O)N3C([H])([H])C([H])([H])C([H])([H])C([H])(n4nc(-c5c([H])c([H])c(Oc6c([H])c([H])c(F)c([H])c6F)c([H])c5[H])c(C(=O)N([H])[H])c4N([H])[H])C3([H])[H])C([H])([H])C2([H])[H])sc(N([H])C([H])([H])C(=O)C([H])([H])Oc2c([H])c([H])c3c(c2[H])C([H])([H])N(C(=O)C([H])(N([H])C(=O)C([H])(N([H])C([H])([H])[H])C([H])([H])[H])C(C([H])([H])[H])(C([H])([H])[H])C([H])([H])[H])C([H])(C(=O)N([H])C2([H])c4c([H])c([H])c([H])c([H])c4C([H])([H])C([H])([H])C2([H])[H])C3([H])[H])c1[H]

$$$$
24:0:0
     RDKit          3D

 98107  0  0  1  0  0  0  0  0999 V2000
  -30.9220  -20.4630   20.8810 C   0  0  0  0  0  3  0  0  0  0  0  0
  -30.3970  -24.0980   20.9310 C   0  0  0  0  0  2  0  0  0  0  0  0
  -28.3310  -22.8800   20.1680 C   0  0  0  0  0  2  0  0  0  0  0  0
  -30.7990  -22.8400   21.7430 C   0  0  0  0  0  2  0  0  0  0  0  0
  -28.7340  -21.6940   21.0660 C   0  0  0  0  0  2  0  0  0  0  0  0
  -28.8730  -24.2410   20.6770 C   0  0  1  0  0  0  0  0  0  0  0  0
  -30.2130  -21.6010   21.1640 N   0  0  0  0  0  0  0  0  0  0  0  0
  -32.2350  -20.4420   21.0820 N   0  0  0  0  0  0  0  0  0  0  0  0
  -28.2500  -24.4950   21.8300 F   0  0  0  0  0  0  0  0  0  0  0  0
  -32.7630  -19.6330   20.7850 H   0  0  0  0  0  0  0  0  0  0  0  0
  -32.7420  -21.2410   21.4260 H   0  0  0  0  0  0  0  0  0  0  0  0
  -30.4760  -17.9720   20.9410 C   0  0  0  0  0  3  0  0  0  0  0  0
  -29.6010  -19.3410   19.1090 C   0  0  0  0  0  3  0  0  0  0  0  0
  -29.1410  -16.9500   19.1650 C   0  0  0  0  0  3  0  0  0  0  0  0
  -30.3160  -19.2440   20.3200 C   0  0  0  0  0  0  0  0  0  0  0  0
  -29.8790  -16.8180   20.3650 C   0  0  0  0  0  0  0  0  0  0  0  0
  -29.0090  -18.2020   18.5370 C   0  0  0  0  0  0  0  0  0  0  0  0
  -28.3040  -18.3130   17.3860 F   0  0  0  0  0  0  0  0  0  0  0  0
  -30.6570  -14.5110   20.4990 C   0  0  0  0  0  0  0  0  0  0  0  0
  -30.3740  -12.3530   19.3560 C   0  0  0  0  0  2  0  0  0  0  0  0
  -29.4280  -12.5700   18.1560 C   0  0  0  0  0  2  0  0  0  0  0  0
  -27.9540  -12.4300   18.5810 C   0  0  0  0  0  2  0  0  0  0  0  0
  -27.6130  -13.2450   19.8570 C   0  0  0  0  0  3  0  0  0  0  0  0
  -28.6710  -13.0190   20.9650 C   0  0  0  0  0  2  0  0  0  0  0  0
  -29.9980  -13.3230   20.3990 N   0  0  0  0  0  0  0  0  0  0  0  0
  -31.7880  -14.6980   20.0390 O   0  0  0  0  0  0  0  0  0  0  0  0
  -29.9380  -15.5340   20.9960 N   0  0  0  0  0  0  0  0  0  0  0  0
  -29.0770  -15.2360   21.4280 H   0  0  0  0  0  0  0  0  0  0  0  0
  -25.1980  -13.8370   20.5240 C   0  0  0  0  0  0  0  0  0  0  0  0
  -24.1300  -13.0610   20.8890 C   0  0  0  0  0  0  0  0  0  0  0  0
  -24.6010  -11.7120   20.8690 C   0  0  0  0  0  0  0  0  0  0  0  0
  -26.2540  -12.9640   20.3200 N   0  0  0  0  0  0  0  0  0  0  0  0
  -25.8960  -11.6800   20.5760 N   0  0  0  0  0  0  0  0  0  0  0  0
  -23.8810  -10.4440   21.0560 C   0  0  0  0  0  0  0  0  0  0  0  0
  -24.3150   -9.4770   21.9890 C   0  0  0  0  0  3  0  0  0  0  0  0
  -23.5930   -8.2760   22.1650 C   0  0  0  0  0  3  0  0  0  0  0  0
  -22.4200   -8.0370   21.4090 C   0  0  0  0  0  0  0  0  0  0  0  0
  -22.0040   -8.9960   20.4670 C   0  0  0  0  0  3  0  0  0  0  0  0
  -22.7280  -10.1860   20.2880 C   0  0  0  0  0  3  0  0  0  0  0  0
  -21.6720   -6.8870   21.4930 O   0  0  0  0  0  0  0  0  0  0  0  0
  -21.6320   -6.1400   22.6420 C   0  0  0  0  0  0  0  0  0  0  0  0
  -21.2100   -6.6870   23.8750 C   0  0  0  0  0  3  0  0  0  0  0  0
  -21.1140   -5.8650   25.0150 C   0  0  0  0  0  3  0  0  0  0  0  0
  -21.4330   -4.4970   24.9270 C   0  0  0  0  0  0  0  0  0  0  0  0
  -21.8490   -3.9490   23.7010 C   0  0  0  0  0  3  0  0  0  0  0  0
  -21.9460   -4.7680   22.5630 C   0  0  0  0  0  0  0  0  0  0  0  0
  -22.3250   -4.2310   21.3790 F   0  0  0  0  0  0  0  0  0  0  0  0
  -21.3370   -3.7060   26.0220 F   0  0  0  0  0  0  0  0  0  0  0  0
  -22.7290  -13.5320   21.1540 C   0  0  0  0  0  0  0  0  0  0  0  0
  -21.9980  -12.8300   22.0120 N   0  0  0  0  0  0  0  0  0  0  0  0
  -22.2910  -14.5570   20.6340 O   0  0  0  0  0  0  0  0  0  0  0  0
  -22.3620  -11.9990   22.4550 H   0  0  0  0  0  0  0  0  0  0  0  0
  -21.0620  -13.1350   22.2390 H   0  0  0  0  0  0  0  0  0  0  0  0
  -25.3620  -15.2040   20.3350 N   0  0  0  0  0  0  0  0  0  0  0  0
  -24.6080  -15.8710   20.4470 H   0  0  0  0  0  0  0  0  0  0  0  0
  -26.2240  -15.6350   20.0260 H   0  0  0  0  0  0  0  0  0  0  0  0
  -28.5400  -25.3930   19.6740 C   0  0  0  0  0  2  0  0  0  0  0  0
  -28.4110  -26.7160   20.2540 O   0  0  0  0  0  0  0  0  0  0  0  0
  -24.5800  -31.9130   23.2880 C   0  0  0  0  0  0  0  0  0  0  0  0
  -27.2140  -27.4230   20.2170 C   0  0  0  0  0  0  0  0  0  0  0  0
  -23.3720  -30.5110   21.6490 C   0  0  0  0  0  3  0  0  0  0  0  0
  -24.8210  -28.9670   20.2280 C   0  0  0  0  0  0  0  0  0  0  0  0
  -25.9040  -30.8530   21.4590 C   0  0  0  0  0  2  0  0  0  0  0  0
  -25.9830  -29.4790   20.8180 C   0  0  0  0  0  0  0  0  0  0  0  0
  -27.1760  -28.7140   20.8080 C   0  0  0  0  0  3  0  0  0  0  0  0
  -26.0180  -26.9360   19.6320 C   0  0  0  0  0  3  0  0  0  0  0  0
  -24.8370  -27.6970   19.6380 C   0  0  0  0  0  3  0  0  0  0  0  0
  -23.5800  -29.8310   20.2710 C   0  0  0  0  0  2  0  0  0  0  0  0
  -24.6360  -31.1090   22.1870 N   0  0  0  0  0  0  0  0  0  0  0  0
  -23.4980  -32.1880   23.8270 O   0  0  0  0  0  0  0  0  0  0  0  0
  -22.7190  -29.4910   22.6110 C   0  0  0  0  0  0  0  0  0  0  0  0
  -21.3940  -29.3060   22.4770 N   0  0  0  0  0  0  0  0  0  0  0  0
  -23.4000  -28.8700   23.4310 O   0  0  0  0  0  0  0  0  0  0  0  0
  -20.9050  -29.8550   21.7840 H   0  0  0  0  0  0  0  0  0  0  0  0
  -18.0220  -28.1000   22.9530 C   0  0  0  0  0  0  0  0  0  0  0  0
  -20.5760  -28.3690   23.2470 C   0  0  0  0  0  3  0  0  0  0  0  0
  -20.6890  -26.9340   22.6830 C   0  0  0  0  0  2  0  0  0  0  0  0
  -19.5980  -26.6000   21.6600 C   0  0  0  0  0  2  0  0  0  0  0  0
  -18.2100  -26.7460   22.2880 C   0  0  0  0  0  2  0  0  0  0  0  0
  -19.1340  -28.8680   23.3880 C   0  0  0  0  0  0  0  0  0  0  0  0
  -18.9050  -30.1360   23.9650 C   0  0  0  0  0  3  0  0  0  0  0  0
  -17.5980  -30.6360   24.1150 C   0  0  0  0  0  3  0  0  0  0  0  0
  -16.5000  -29.8630   23.7000 C   0  0  0  0  0  3  0  0  0  0  0  0
  -16.7140  -28.5960   23.1250 C   0  0  0  0  0  3  0  0  0  0  0  0
  -25.8670  -32.5430   23.9030 C   0  0  0  0  0  3  0  0  0  0  0  0
  -25.5640  -33.9460   24.2200 N   0  0  0  0  0  0  0  0  0  0  0  0
  -25.9020  -34.9880   23.4520 C   0  0  0  0  0  0  0  0  0  0  0  0
  -26.5710  -34.8720   22.4210 O   0  0  0  0  0  0  0  0  0  0  0  0
  -24.9740  -34.1100   25.0220 H   0  0  0  0  0  0  0  0  0  0  0  0
  -24.1830  -36.7830   23.0780 C   0  0  0  0  0  1  0  0  0  0  0  0
  -25.4190  -36.3830   23.8960 C   0  0  0  0  0  3  0  0  0  0  0  0
  -27.5540  -37.2650   24.7270 C   0  0  0  0  0  1  0  0  0  0  0  0
  -26.4560  -37.4300   23.7780 N   0  0  0  0  0  0  0  0  0  0  0  0
  -26.0510  -38.3530   23.9180 H   0  0  0  0  0  0  0  0  0  0  0  0
  -26.3800  -31.7810   25.1870 C   0  0  1  0  0  0  0  0  0  0  0  0
  -25.2850  -31.5570   26.2560 C   0  0  0  0  0  1  0  0  0  0  0  0
  -26.9570  -30.3970   24.8060 C   0  0  0  0  0  1  0  0  0  0  0  0
  -27.5320  -32.5770   25.8440 C   0  0  0  0  0  1  0  0  0  0  0  0
  1  8  1  0
  1  7  1  0
  2  4  1  0
  3  6  1  0
  3  5  1  0
  5  7  1  0
  6  2  1  0
  6  9  1  1
  7  4  1  0
  8 11  1  0
 10  8  1  0
 13 15  1  0
 14 16  2  0
 15  1  1  0
 15 12  2  0
 16 12  1  0
 16 27  1  0
 17 13  2  0
 17 14  1  0
 18 17  1  0
 19 27  1  0
 20 25  1  0
 21 22  1  0
 21 20  1  0
 23 22  1  0
 23 32  1  0
 23 24  1  0
 25 19  1  0
 25 24  1  0
 26 19  2  0
 27 28  1  0
 29 30  2  0
 30 49  1  0
 31 30  1  0
 31 34  1  0
 32 29  1  0
 32 33  1  0
 33 31  2  0
 34 35  1  0
 35 36  2  0
 37 40  1  0
 37 36  1  0
 38 37  2  0
 39 38  1  0
 39 34  2  0
 40 41  1  0
 41 42  1  0
 42 43  2  0
 44 43  1  0
 44 48  1  0
 45 44  2  0
 46 41  2  0
 46 45  1  0
 47 46  1  0
 49 50  1  0
 50 53  1  0
 50 52  1  0
 51 49  2  0
 54 55  1  0
 54 29  1  0
 56 54  1  0
 57 58  1  0
 57  6  1  0
 59 70  2  0
 60 58  1  0
 60 65  1  0
 61 69  1  0
 61 71  1  0
 62 68  1  0
 62 64  1  0
 63 69  1  0
 64 63  1  0
 65 64  2  0
 66 67  1  0
 66 60  2  0
 67 62  2  0
 68 61  1  0
 69 59  1  0
 71 73  2  0
 72 71  1  0
 74 72  1  0
 75 84  2  0
 75 80  1  0
 76 72  1  0
 76 80  1  0
 77 76  1  0
 78 79  1  0
 78 77  1  0
 79 75  1  0
 80 81  2  0
 81 82  1  0
 83 82  2  0
 84 83  1  0
 85 59  1  0
 85 86  1  0
 85 95  1  0
 86 89  1  0
 87 91  1  0
 87 86  1  0
 88 87  2  0
 91 90  1  0
 93 91  1  0
 93 94  1  0
 93 92  1  0
 95 98  1  1
 95 96  1  0
 97 95  1  0
M  ISO  4  19 100  27 100  57 101  58 101
M  END
>  <TORSDO>  (25) 
F 18

>  <SCORE>  (25) 
-15.358

>  <name>  (25) 
24

>  <ligand_id>  (25) 
24

>  <original_smiles>  (25) 
[H]c1c([H])c([H])c2c(c1[H])C([H])([H])C([H])([H])C([H])([H])C2([H])N([H])C(=O)C1([H])N(C(=O)C([H])(N([H])C(=O)C([H])(N([H])C([H])([H])[H])C([H])([H])[H])C(C([H])([H])[H])(C([H])([H])[H])C([H])([H])[H])C([H])([H])c2c([H])c(OC([H])([H])C3(F)C([H])([H])C([H])([H])N(C(c4c([H])c(F)c([H])c(N([H])C(=O)N5C([H])([H])C([H])([H])C([H])([H])C([H])(n6nc(-c7c([H])c([H])c(Oc8c([H])c([H])c(F)c([H])c8F)c([H])c7[H])c(C(=O)N([H])[H])c6N([H])[H])C5([H])[H])c4[H])=[N+]([H])[H])C([H])([H])C3([H])[H])c([H])c([H])c2C1([H])[H]

>  <smiles>  (25) 
[H]c1c([H])c([H])c2c(c1[H])C([H])([H])C([H])([H])C([H])([H])C2([H])N([H])C(=O)C1([H])N(C(=O)C([H])(N([H])C(=O)C([H])(N([H])C([H])([H])[H])C([H])([H])[H])C(C([H])([H])[H])(C([H])([H])[H])C([H])([H])[H])C([H])([H])c2c([H])c(OC([H])([H])C3(F)C([H])([H])C([H])([H])N(C(c4c([H])c(F)c([H])c(N([H])C(=O)N5C([H])([H])C([H])([H])C([H])([H])C([H])(n6nc(-c7c([H])c([H])c(Oc8c([H])c([H])c(F)c([H])c8F)c([H])c7[H])c(C(=O)N([H])[H])c6N([H])[H])C5([H])[H])c4[H])=[N+]([H])[H])C([H])([H])C3([H])[H])c([H])c([H])c2C1([H])[H]

$$$$
25:0:0
     RDKit          3D

 98107  0  0  1  0  0  0  0  0999 V2000
  -31.0680  -17.9360   20.2410 C   0  0  0  0  0  3  0  0  0  0  0  0
  -30.9110  -19.3720   20.0120 C   0  0  0  0  0  0  0  0  0  0  0  0
  -29.9190  -17.2000   20.4260 C   0  0  0  0  0  0  0  0  0  0  0  0
  -29.5940  -19.8270   20.0790 C   0  0  0  0  0  0  0  0  0  0  0  0
  -28.5810  -18.3850   20.3910 S   0  0  0  0  0  0  0  0  0  0  0  0
  -30.5610  -14.7290   20.3730 C   0  0  0  0  0  0  0  0  0  0  0  0
  -30.3690  -12.4670   19.3410 C   0  0  0  0  0  2  0  0  0  0  0  0
  -29.4310  -12.5860   18.1190 C   0  0  0  0  0  2  0  0  0  0  0  0
  -27.9580  -12.4220   18.5400 C   0  0  0  0  0  2  0  0  0  0  0  0
  -27.5940  -13.2850   19.7780 C   0  0  0  0  0  3  0  0  0  0  0  0
  -28.6490  -13.1480   20.8990 C   0  0  0  0  0  2  0  0  0  0  0  0
  -29.9520  -13.4980   20.3170 N   0  0  0  0  0  0  0  0  0  0  0  0
  -31.7420  -14.8560   20.0360 O   0  0  0  0  0  0  0  0  0  0  0  0
  -29.7430  -15.8190   20.6140 N   0  0  0  0  0  0  0  0  0  0  0  0
  -28.8030  -15.5440   20.8570 H   0  0  0  0  0  0  0  0  0  0  0  0
  -25.1990  -13.8860   20.4810 C   0  0  0  0  0  0  0  0  0  0  0  0
  -24.1320  -13.1140   20.8520 C   0  0  0  0  0  0  0  0  0  0  0  0
  -24.5970  -11.7620   20.8340 C   0  0  0  0  0  0  0  0  0  0  0  0
  -26.2460  -13.0050   20.2600 N   0  0  0  0  0  0  0  0  0  0  0  0
  -25.8890  -11.7240   20.5340 N   0  0  0  0  0  0  0  0  0  0  0  0
  -23.8700  -10.5010   21.0310 C   0  0  0  0  0  0  0  0  0  0  0  0
  -24.3040   -9.5350   21.9660 C   0  0  0  0  0  3  0  0  0  0  0  0
  -23.5770   -8.3380   22.1500 C   0  0  0  0  0  3  0  0  0  0  0  0
  -22.4020   -8.1000   21.3970 C   0  0  0  0  0  0  0  0  0  0  0  0
  -21.9880   -9.0540   20.4520 C   0  0  0  0  0  3  0  0  0  0  0  0
  -22.7150  -10.2420   20.2660 C   0  0  0  0  0  3  0  0  0  0  0  0
  -21.6470   -6.9550   21.4880 O   0  0  0  0  0  0  0  0  0  0  0  0
  -21.6080   -6.2090   22.6390 C   0  0  0  0  0  0  0  0  0  0  0  0
  -21.2060   -6.7630   23.8730 C   0  0  0  0  0  3  0  0  0  0  0  0
  -21.1140   -5.9440   25.0170 C   0  0  0  0  0  3  0  0  0  0  0  0
  -21.4140   -4.5730   24.9260 C   0  0  0  0  0  0  0  0  0  0  0  0
  -21.8120   -4.0170   23.6970 C   0  0  0  0  0  3  0  0  0  0  0  0
  -21.9060   -4.8330   22.5570 C   0  0  0  0  0  0  0  0  0  0  0  0
  -22.2680   -4.2900   21.3700 F   0  0  0  0  0  0  0  0  0  0  0  0
  -21.3180   -3.7830   26.0230 F   0  0  0  0  0  0  0  0  0  0  0  0
  -22.7330  -13.5930   21.1100 C   0  0  0  0  0  0  0  0  0  0  0  0
  -22.0000  -12.9020   21.9760 N   0  0  0  0  0  0  0  0  0  0  0  0
  -22.2990  -14.6130   20.5800 O   0  0  0  0  0  0  0  0  0  0  0  0
  -22.3660  -12.0760   22.4270 H   0  0  0  0  0  0  0  0  0  0  0  0
  -21.0630  -13.2070   22.1950 H   0  0  0  0  0  0  0  0  0  0  0  0
  -25.3610  -15.2550   20.2880 N   0  0  0  0  0  0  0  0  0  0  0  0
  -24.5800  -15.8980   20.3670 H   0  0  0  0  0  0  0  0  0  0  0  0
  -26.1900  -15.6880   19.9070 H   0  0  0  0  0  0  0  0  0  0  0  0
  -32.0770  -20.2260   19.7240 C   0  0  0  0  0  0  0  0  0  0  0  0
  -32.0660  -21.4600   19.6740 O   0  0  0  0  0  0  0  0  0  0  0  0
  -34.2970  -20.0480   18.3950 C   0  0  0  0  0  2  0  0  0  0  0  0
  -33.3980  -19.5210   19.4980 C   0  0  0  0  0  3  0  0  0  0  0  0
  -33.6010  -18.7200   18.2210 C   0  0  0  0  0  3  0  0  0  0  0  0
  -34.4000  -17.4310   18.2350 C   0  0  0  0  0  1  0  0  0  0  0  0
  -28.9910  -21.1190   19.7680 N   0  0  0  0  0  0  0  0  0  0  0  0
  -29.0750  -21.3630   18.7820 H   0  0  0  0  0  0  0  0  0  0  0  0
  -29.0920  -22.3830   20.6040 C   0  0  0  0  0  2  0  0  0  0  0  0
  -28.6550  -23.7970   19.9630 C   0  0  0  0  0  0  0  0  0  0  0  0
  -28.4540  -23.8520   18.7460 O   0  0  0  0  0  0  0  0  0  0  0  0
  -29.7440  -25.2910   21.7130 C   0  0  0  0  0  1  0  0  0  0  0  0
  -27.2640  -24.9030   21.8100 C   0  0  0  0  0  1  0  0  0  0  0  0
  -28.4680  -25.1220   20.8670 C   0  0  2  0  0  0  0  0  0  0  0  0
  -28.3990  -26.4540   20.1550 O   0  0  0  0  0  0  0  0  0  0  0  0
  -24.6170  -31.8740   23.2440 C   0  0  0  0  0  0  0  0  0  0  0  0
  -27.2710  -27.3040   20.1980 C   0  0  0  0  0  0  0  0  0  0  0  0
  -23.4310  -30.4730   21.5940 C   0  0  0  0  0  3  0  0  0  0  0  0
  -24.8990  -28.9200   20.1770 C   0  0  0  0  0  0  0  0  0  0  0  0
  -25.9730  -30.7910   21.4320 C   0  0  0  0  0  2  0  0  0  0  0  0
  -26.0640  -29.4100   20.7820 C   0  0  0  0  0  0  0  0  0  0  0  0
  -27.2530  -28.6160   20.7780 C   0  0  0  0  0  3  0  0  0  0  0  0
  -26.0840  -26.8710   19.5720 C   0  0  0  0  0  3  0  0  0  0  0  0
  -24.9110  -27.6550   19.5660 C   0  0  0  0  0  3  0  0  0  0  0  0
  -23.6600  -29.7950   20.2160 C   0  0  0  0  0  2  0  0  0  0  0  0
  -24.6920  -31.0650   22.1450 N   0  0  0  0  0  0  0  0  0  0  0  0
  -23.5290  -32.1470   23.7720 O   0  0  0  0  0  0  0  0  0  0  0  0
  -22.7640  -29.4530   22.5490 C   0  0  0  0  0  0  0  0  0  0  0  0
  -21.4370  -29.2820   22.4200 N   0  0  0  0  0  0  0  0  0  0  0  0
  -23.4390  -28.8200   23.3630 O   0  0  0  0  0  0  0  0  0  0  0  0
  -20.9520  -29.8470   21.7380 H   0  0  0  0  0  0  0  0  0  0  0  0
  -18.0550  -28.0890   22.9120 C   0  0  0  0  0  0  0  0  0  0  0  0
  -20.6140  -28.3390   23.1820 C   0  0  0  0  0  3  0  0  0  0  0  0
  -20.7120  -26.9140   22.5940 C   0  0  0  0  0  2  0  0  0  0  0  0
  -19.6070  -26.6010   21.5780 C   0  0  0  0  0  2  0  0  0  0  0  0
  -18.2260  -26.7460   22.2240 C   0  0  0  0  0  2  0  0  0  0  0  0
  -19.1770  -28.8450   23.3470 C   0  0  0  0  0  0  0  0  0  0  0  0
  -18.9620  -30.1030   23.9510 C   0  0  0  0  0  3  0  0  0  0  0  0
  -17.6600  -30.6070   24.1230 C   0  0  0  0  0  3  0  0  0  0  0  0
  -16.5530  -29.8490   23.7040 C   0  0  0  0  0  3  0  0  0  0  0  0
  -16.7500  -28.5920   23.1050 C   0  0  0  0  0  3  0  0  0  0  0  0
  -25.8930  -32.5080   23.8760 C   0  0  0  0  0  3  0  0  0  0  0  0
  -25.5810  -33.9080   24.1990 N   0  0  0  0  0  0  0  0  0  0  0  0
  -25.9150  -34.9580   23.4390 C   0  0  0  0  0  0  0  0  0  0  0  0
  -26.5920  -34.8510   22.4110 O   0  0  0  0  0  0  0  0  0  0  0  0
  -24.9810  -34.0630   24.9970 H   0  0  0  0  0  0  0  0  0  0  0  0
  -24.1850  -36.7480   23.0720 C   0  0  0  0  0  1  0  0  0  0  0  0
  -25.4250  -36.3480   23.8880 C   0  0  0  0  0  3  0  0  0  0  0  0
  -27.5560  -37.2410   24.7200 C   0  0  0  0  0  1  0  0  0  0  0  0
  -26.4560  -37.4030   23.7730 N   0  0  0  0  0  0  0  0  0  0  0  0
  -26.0480  -38.3230   23.9160 H   0  0  0  0  0  0  0  0  0  0  0  0
  -26.3940  -31.7430   25.1640 C   0  0  1  0  0  0  0  0  0  0  0  0
  -25.2870  -31.5160   26.2210 C   0  0  0  0  0  1  0  0  0  0  0  0
  -26.9800  -30.3620   24.7910 C   0  0  0  0  0  1  0  0  0  0  0  0
  -27.5380  -32.5420   25.8330 C   0  0  0  0  0  1  0  0  0  0  0  0
  1  3  2  0
  2  4  2  0
  2  1  1  0
  3 14  1  0
  4  5  1  0
  5  3  1  0
  6 14  1  0
  7 12  1  0
  8  9  1  0
  8  7  1  0
 10  9  1  0
 10 19  1  0
 10 11  1  0
 12  6  1  0
 12 11  1  0
 13  6  2  0
 14 15  1  0
 16 17  2  0
 17 36  1  0
 18 17  1  0
 18 21  1  0
 19 16  1  0
 19 20  1  0
 20 18  2  0
 21 22  1  0
 22 23  2  0
 24 27  1  0
 24 23  1  0
 25 24  2  0
 26 25  1  0
 26 21  2  0
 27 28  1  0
 28 29  1  0
 29 30  2  0
 31 30  1  0
 31 35  1  0
 32 31  2  0
 33 28  2  0
 33 32  1  0
 34 33  1  0
 36 37  1  0
 37 40  1  0
 37 39  1  0
 38 36  2  0
 41 42  1  0
 41 16  1  0
 43 41  1  0
 44  2  1  0
 45 44  2  0
 46 47  1  0
 47 44  1  0
 48 49  1  0
 48 46  1  0
 48 47  1  0
 50  4  1  0
 50 52  1  0
 51 50  1  0
 53 52  1  0
 53 57  1  0
 54 53  2  0
 57 55  1  1
 57 56  1  0
 58 60  1  0
 58 57  1  0
 59 70  2  0
 60 65  1  0
 61 69  1  0
 61 71  1  0
 62 68  1  0
 62 64  1  0
 63 69  1  0
 64 63  1  0
 65 64  2  0
 66 60  2  0
 67 66  1  0
 67 62  2  0
 68 61  1  0
 69 59  1  0
 71 73  2  0
 72 71  1  0
 74 72  1  0
 75 84  2  0
 75 80  1  0
 76 72  1  0
 76 80  1  0
 77 76  1  0
 78 79  1  0
 78 77  1  0
 79 75  1  0
 80 81  2  0
 81 82  1  0
 83 82  2  0
 84 83  1  0
 85 59  1  0
 85 86  1  0
 85 95  1  0
 86 89  1  0
 87 91  1  0
 87 86  1  0
 88 87  2  0
 91 90  1  0
 93 91  1  0
 93 94  1  0
 93 92  1  0
 95 98  1  1
 95 96  1  0
 97 95  1  0
M  ISO  4   6 100  14 100  57 101  58 101
M  END
>  <TORSDO>  (26) 
F 22

>  <SCORE>  (26) 
-13.430

>  <name>  (26) 
25

>  <ligand_id>  (26) 
25

>  <original_smiles>  (26) 
[H]c1c([H])c([H])c2c(c1[H])C([H])([H])C([H])([H])C([H])([H])C2([H])N([H])C(=O)C1([H])N(C(=O)C([H])(N([H])C(=O)C([H])(N([H])C([H])([H])[H])C([H])([H])[H])C(C([H])([H])[H])(C([H])([H])[H])C([H])([H])[H])C([H])([H])c2c([H])c(OC(C(=O)C([H])([H])N([H])c3sc(N([H])C(=O)N4C([H])([H])C([H])([H])C([H])([H])C([H])(n5nc(-c6c([H])c([H])c(Oc7c([H])c([H])c(F)c([H])c7F)c([H])c6[H])c(C(=O)N([H])[H])c5N([H])[H])C4([H])[H])c([H])c3C(=O)C3([H])C([H])([H])C3([H])C([H])([H])[H])(C([H])([H])[H])C([H])([H])[H])c([H])c([H])c2C1([H])[H]

>  <smiles>  (26) 
[H]c1c([H])c([H])c2c(c1[H])C([H])([H])C([H])([H])C([H])([H])C2([H])N([H])C(=O)C1([H])N(C(=O)C([H])(N([H])C(=O)C([H])(N([H])C([H])([H])[H])C([H])([H])[H])C(C([H])([H])[H])(C([H])([H])[H])C([H])([H])[H])C([H])([H])c2c([H])c(OC(C(=O)C([H])([H])N([H])c3sc(N([H])C(=O)N4C([H])([H])C([H])([H])C([H])([H])C([H])(n5nc(-c6c([H])c([H])c(Oc7c([H])c([H])c(F)c([H])c7F)c([H])c6[H])c(C(=O)N([H])[H])c5N([H])[H])C4([H])[H])c([H])c3C(=O)C3([H])C([H])([H])C3([H])C([H])([H])[H])(C([H])([H])[H])C([H])([H])[H])c([H])c([H])c2C1([H])[H]

$$$$
26:0:0
     RDKit          3D

 90 98  0  0  1  0  0  0  0  0999 V2000
  -28.9150  -23.6520   20.4470 C   0  0  0  0  0  0  0  0  0  0  0  0
  -28.9110  -22.3780   19.8580 N   0  0  0  0  0  0  0  0  0  0  0  0
  -29.6080  -23.8850   21.4420 O   0  0  0  0  0  0  0  0  0  0  0  0
  -28.4140  -22.3500   18.9790 H   0  0  0  0  0  0  0  0  0  0  0  0
  -30.2220  -19.3620   21.4710 C   0  0  0  0  0  3  0  0  0  0  0  0
  -29.8820  -20.7660   21.4990 C   0  0  0  0  0  3  0  0  0  0  0  0
  -29.9750  -18.8460   20.2210 C   0  0  0  0  0  0  0  0  0  0  0  0
  -29.4200  -21.1170   20.2570 C   0  0  0  0  0  0  0  0  0  0  0  0
  -29.4610  -19.9410   19.4670 O   0  0  0  0  0  0  0  0  0  0  0  0
  -30.3010  -17.4510   19.5200 C   0  0  0  0  0  2  0  0  0  0  0  0
  -30.7480  -14.8860   19.9390 C   0  0  0  0  0  0  0  0  0  0  0  0
  -30.4910  -12.5820   19.0000 C   0  0  0  0  0  2  0  0  0  0  0  0
  -29.4920  -12.6190   17.8230 C   0  0  0  0  0  2  0  0  0  0  0  0
  -28.0460  -12.4570   18.3310 C   0  0  0  0  0  2  0  0  0  0  0  0
  -27.7330  -13.3610   19.5550 C   0  0  0  0  0  3  0  0  0  0  0  0
  -28.8530  -13.3110   20.6160 C   0  0  0  0  0  2  0  0  0  0  0  0
  -30.1120  -13.6600   19.9440 N   0  0  0  0  0  0  0  0  0  0  0  0
  -31.9170  -14.9490   19.5520 O   0  0  0  0  0  0  0  0  0  0  0  0
  -30.0070  -16.0560   20.1140 N   0  0  0  0  0  0  0  0  0  0  0  0
  -29.0570  -15.9190   20.4220 H   0  0  0  0  0  0  0  0  0  0  0  0
  -25.4060  -13.9440   20.4600 C   0  0  0  0  0  0  0  0  0  0  0  0
  -24.3580  -13.1670   20.8710 C   0  0  0  0  0  0  0  0  0  0  0  0
  -24.8020  -11.8130   20.7640 C   0  0  0  0  0  0  0  0  0  0  0  0
  -26.4230  -13.0650   20.1260 N   0  0  0  0  0  0  0  0  0  0  0  0
  -26.0710  -11.7760   20.3720 N   0  0  0  0  0  0  0  0  0  0  0  0
  -24.0720  -10.5530   20.9550 C   0  0  0  0  0  0  0  0  0  0  0  0
  -24.5020   -9.5830   21.8860 C   0  0  0  0  0  3  0  0  0  0  0  0
  -23.7710   -8.3880   22.0650 C   0  0  0  0  0  3  0  0  0  0  0  0
  -22.5940   -8.1560   21.3140 C   0  0  0  0  0  0  0  0  0  0  0  0
  -22.1840   -9.1140   20.3700 C   0  0  0  0  0  3  0  0  0  0  0  0
  -22.9170  -10.3000   20.1890 C   0  0  0  0  0  3  0  0  0  0  0  0
  -21.8350   -7.0130   21.4040 O   0  0  0  0  0  0  0  0  0  0  0  0
  -21.7260   -6.3130   22.5770 C   0  0  0  0  0  0  0  0  0  0  0  0
  -21.1940   -6.8980   23.7480 C   0  0  0  0  0  3  0  0  0  0  0  0
  -21.0350   -6.1190   24.9130 C   0  0  0  0  0  3  0  0  0  0  0  0
  -21.3960   -4.7580   24.9050 C   0  0  0  0  0  0  0  0  0  0  0  0
  -21.9210   -4.1750   23.7390 C   0  0  0  0  0  3  0  0  0  0  0  0
  -22.0820   -4.9490   22.5780 C   0  0  0  0  0  0  0  0  0  0  0  0
  -22.5680   -4.3770   21.4500 F   0  0  0  0  0  0  0  0  0  0  0  0
  -21.2360   -4.0090   26.0220 F   0  0  0  0  0  0  0  0  0  0  0  0
  -22.9850  -13.6500   21.2410 C   0  0  0  0  0  0  0  0  0  0  0  0
  -22.3020  -12.9370   22.1310 N   0  0  0  0  0  0  0  0  0  0  0  0
  -22.5310  -14.6940   20.7780 O   0  0  0  0  0  0  0  0  0  0  0  0
  -22.6830  -12.0950   22.5340 H   0  0  0  0  0  0  0  0  0  0  0  0
  -21.3840  -13.2470   22.4180 H   0  0  0  0  0  0  0  0  0  0  0  0
  -25.5680  -15.3180   20.3200 N   0  0  0  0  0  0  0  0  0  0  0  0
  -24.8000  -15.9590   20.4870 H   0  0  0  0  0  0  0  0  0  0  0  0
  -26.3830  -15.7740   19.9300 H   0  0  0  0  0  0  0  0  0  0  0  0
  -28.0000  -24.8560   19.8670 C   0  0  0  0  0  2  0  0  0  0  0  0
  -28.2350  -26.3140   20.2630 O   0  0  0  0  0  0  0  0  0  0  0  0
  -24.6120  -31.9180   23.2240 C   0  0  0  0  0  0  0  0  0  0  0  0
  -27.1650  -27.2550   20.1770 C   0  0  0  0  0  0  0  0  0  0  0  0
  -23.3890  -30.5040   21.6160 C   0  0  0  0  0  3  0  0  0  0  0  0
  -24.8190  -28.9440   20.1730 C   0  0  0  0  0  0  0  0  0  0  0  0
  -25.9320  -30.7970   21.4050 C   0  0  0  0  0  2  0  0  0  0  0  0
  -26.0020  -29.4090   20.7610 C   0  0  0  0  0  0  0  0  0  0  0  0
  -27.1750  -28.5780   20.7540 C   0  0  0  0  0  3  0  0  0  0  0  0
  -25.9620  -26.8880   19.5270 C   0  0  0  0  0  3  0  0  0  0  0  0
  -24.8090  -27.6930   19.5420 C   0  0  0  0  0  3  0  0  0  0  0  0
  -23.5850  -29.8250   20.2370 C   0  0  0  0  0  2  0  0  0  0  0  0
  -24.6640  -31.0940   22.1360 N   0  0  0  0  0  0  0  0  0  0  0  0
  -23.5340  -32.2000   23.7690 O   0  0  0  0  0  0  0  0  0  0  0  0
  -22.7390  -29.4950   22.5950 C   0  0  0  0  0  0  0  0  0  0  0  0
  -21.4130  -29.3010   22.4770 N   0  0  0  0  0  0  0  0  0  0  0  0
  -23.4260  -28.8920   23.4240 O   0  0  0  0  0  0  0  0  0  0  0  0
  -20.9160  -29.8420   21.7840 H   0  0  0  0  0  0  0  0  0  0  0  0
  -18.0540  -28.0540   22.9990 C   0  0  0  0  0  0  0  0  0  0  0  0
  -20.6070  -28.3670   23.2660 C   0  0  0  0  0  3  0  0  0  0  0  0
  -20.7360  -26.9250   22.7240 C   0  0  0  0  0  2  0  0  0  0  0  0
  -19.6430  -26.5580   21.7150 C   0  0  0  0  0  2  0  0  0  0  0  0
  -18.2580  -26.6930   22.3530 C   0  0  0  0  0  2  0  0  0  0  0  0
  -19.1580  -28.8450   23.4130 C   0  0  0  0  0  0  0  0  0  0  0  0
  -18.9140  -30.1170   23.9770 C   0  0  0  0  0  3  0  0  0  0  0  0
  -17.5990  -30.5970   24.1300 C   0  0  0  0  0  3  0  0  0  0  0  0
  -16.5100  -29.8020   23.7310 C   0  0  0  0  0  3  0  0  0  0  0  0
  -16.7390  -28.5320   23.1700 C   0  0  0  0  0  3  0  0  0  0  0  0
  -25.8990  -32.5600   23.8240 C   0  0  0  0  0  3  0  0  0  0  0  0
  -26.4450  -31.7930   25.0900 C   0  0  1  0  0  0  0  0  0  0  0  0
  -25.3730  -31.5410   26.1750 C   0  0  0  0  0  1  0  0  0  0  0  0
  -27.0390  -30.4230   24.6880 C   0  0  0  0  0  1  0  0  0  0  0  0
  -27.5950  -32.5990   25.7360 C   0  0  0  0  0  1  0  0  0  0  0  0
  -25.5820  -33.9550   24.1650 N   0  0  0  0  0  0  0  0  0  0  0  0
  -25.8990  -35.0160   23.4120 C   0  0  0  0  0  0  0  0  0  0  0  0
  -26.5520  -34.9250   22.3690 O   0  0  0  0  0  0  0  0  0  0  0  0
  -25.0010  -34.1000   24.9770 H   0  0  0  0  0  0  0  0  0  0  0  0
  -24.1700  -36.8150   23.0760 C   0  0  0  0  0  1  0  0  0  0  0  0
  -25.4080  -36.3980   23.8870 C   0  0  0  0  0  3  0  0  0  0  0  0
  -27.5330  -37.2790   24.7460 C   0  0  0  0  0  1  0  0  0  0  0  0
  -26.4400  -37.4540   23.7940 N   0  0  0  0  0  0  0  0  0  0  0  0
  -26.0310  -38.3720   23.9440 H   0  0  0  0  0  0  0  0  0  0  0  0
  1  3  2  0
  2  8  1  0
  2  1  1  0
  4  2  1  0
  5  6  1  0
  7  5  2  0
  8  6  2  0
  9  7  1  0
  9  8  1  0
 10 19  1  0
 10  7  1  0
 11 17  1  0
 11 19  1  0
 12 17  1  0
 13 14  1  0
 13 12  1  0
 15 14  1  0
 15 24  1  0
 15 16  1  0
 17 16  1  0
 18 11  2  0
 19 20  1  0
 21 22  2  0
 22 41  1  0
 23 22  1  0
 23 26  1  0
 24 25  1  0
 24 21  1  0
 25 23  2  0
 26 27  1  0
 27 28  2  0
 29 32  1  0
 29 28  1  0
 30 29  2  0
 31 30  1  0
 31 26  2  0
 32 33  1  0
 33 38  2  0
 33 34  1  0
 34 35  2  0
 36 35  1  0
 36 40  1  0
 37 36  2  0
 38 37  1  0
 39 38  1  0
 41 42  1  0
 42 45  1  0
 42 44  1  0
 43 41  2  0
 46 21  1  0
 46 47  1  0
 48 46  1  0
 49 50  1  0
 49  1  1  0
 51 62  2  0
 52 50  1  0
 52 57  1  0
 53 61  1  0
 53 63  1  0
 54 60  1  0
 54 56  1  0
 55 61  1  0
 56 55  1  0
 57 56  2  0
 58 59  1  0
 58 52  2  0
 59 54  2  0
 60 53  1  0
 61 51  1  0
 63 65  2  0
 64 63  1  0
 66 64  1  0
 67 76  2  0
 67 72  1  0
 68 64  1  0
 68 72  1  0
 69 68  1  0
 70 71  1  0
 70 69  1  0
 71 67  1  0
 72 73  2  0
 73 74  1  0
 75 74  2  0
 76 75  1  0
 77 51  1  0
 77 82  1  0
 77 78  1  0
 78 81  1  1
 78 79  1  0
 80 78  1  0
 82 85  1  0
 83 87  1  0
 83 82  1  0
 84 83  2  0
 87 86  1  0
 89 87  1  0
 89 90  1  0
 89 88  1  0
M  ISO  4  11 100  19 100  49 101  50 101
M  END
>  <TORSDO>  (27) 
F 19

>  <SCORE>  (27) 
-13.912

>  <name>  (27) 
26

>  <ligand_id>  (27) 
26

>  <original_smiles>  (27) 
[H]c1c(N([H])C(=O)C([H])([H])Oc2c([H])c([H])c3c(c2[H])C([H])([H])N(C(=O)C([H])(N([H])C(=O)C([H])(N([H])C([H])([H])[H])C([H])([H])[H])C(C([H])([H])[H])(C([H])([H])[H])C([H])([H])[H])C([H])(C(=O)N([H])C2([H])c4c([H])c([H])c([H])c([H])c4C([H])([H])C([H])([H])C2([H])[H])C3([H])[H])oc(C([H])([H])N([H])C(=O)N2C([H])([H])C([H])([H])C([H])([H])C([H])(n3nc(-c4c([H])c([H])c(Oc5c([H])c([H])c(F)c([H])c5F)c([H])c4[H])c(C(=O)N([H])[H])c3N([H])[H])C2([H])[H])c1[H]

>  <smiles>  (27) 
[H]c1c(N([H])C(=O)C([H])([H])Oc2c([H])c([H])c3c(c2[H])C([H])([H])N(C(=O)C([H])(N([H])C(=O)C([H])(N([H])C([H])([H])[H])C([H])([H])[H])C(C([H])([H])[H])(C([H])([H])[H])C([H])([H])[H])C([H])(C(=O)N([H])C2([H])c4c([H])c([H])c([H])c([H])c4C([H])([H])C([H])([H])C2([H])[H])C3([H])[H])oc(C([H])([H])N([H])C(=O)N2C([H])([H])C([H])([H])C([H])([H])C([H])(n3nc(-c4c([H])c([H])c(Oc5c([H])c([H])c(F)c([H])c5F)c([H])c4[H])c(C(=O)N([H])[H])c3N([H])[H])C2([H])[H])c1[H]

$$$$
27:0:0
     RDKit          3D

 95104  0  0  1  0  0  0  0  0999 V2000
  -27.8380  -22.3540   19.6480 C   0  0  0  0  0  3  0  0  0  0  0  0
  -28.4660  -23.5740   19.6890 C   0  0  0  0  0  3  0  0  0  0  0  0
  -29.8000  -22.7880   19.6740 C   0  0  0  0  0  2  0  0  0  0  0  0
  -28.9960  -21.5290   19.7300 N   0  0  0  0  0  0  0  0  0  0  0  0
  -29.1140  -18.7940   19.7020 C   0  0  0  0  0  3  0  0  0  0  0  0
  -30.1170  -17.6760   19.7390 C   0  0  0  0  0  0  0  0  0  0  0  0
  -31.3810  -18.2340   19.8390 C   0  0  0  0  0  0  0  0  0  0  0  0
  -29.5990  -20.1340   19.7120 C   0  0  0  0  0  0  0  0  0  0  0  0
  -31.3440  -20.0020   19.7460 S   0  0  0  0  0  0  0  0  0  0  0  0
  -30.5940  -15.0210   19.5290 C   0  0  0  0  0  0  0  0  0  0  0  0
  -30.3650  -12.6570   18.6850 C   0  0  0  0  0  2  0  0  0  0  0  0
  -29.2970  -12.5960   17.5690 C   0  0  0  0  0  2  0  0  0  0  0  0
  -27.8910  -12.4070   18.1710 C   0  0  0  0  0  2  0  0  0  0  0  0
  -27.6210  -13.3650   19.3610 C   0  0  0  0  0  3  0  0  0  0  0  0
  -28.7980  -13.3980   20.3590 C   0  0  0  0  0  2  0  0  0  0  0  0
  -29.9980  -13.7710   19.5980 N   0  0  0  0  0  0  0  0  0  0  0  0
  -31.7310  -15.0890   19.0530 O   0  0  0  0  0  0  0  0  0  0  0  0
  -29.8250  -16.1810   19.7650 N   0  0  0  0  0  0  0  0  0  0  0  0
  -28.8620  -15.9570   19.9640 H   0  0  0  0  0  0  0  0  0  0  0  0
  -25.3960  -13.9650   20.4810 C   0  0  0  0  0  0  0  0  0  0  0  0
  -24.3580  -13.1990   20.9330 C   0  0  0  0  0  0  0  0  0  0  0  0
  -24.7430  -11.8410   20.7140 C   0  0  0  0  0  0  0  0  0  0  0  0
  -26.3500  -13.0750   20.0160 N   0  0  0  0  0  0  0  0  0  0  0  0
  -25.9730  -11.7850   20.2180 N   0  0  0  0  0  0  0  0  0  0  0  0
  -23.9860  -10.5950   20.8930 C   0  0  0  0  0  0  0  0  0  0  0  0
  -24.4240   -9.5830   21.7750 C   0  0  0  0  0  3  0  0  0  0  0  0
  -23.6660   -8.4040   21.9450 C   0  0  0  0  0  3  0  0  0  0  0  0
  -22.4560   -8.2290   21.2310 C   0  0  0  0  0  0  0  0  0  0  0  0
  -22.0370   -9.2300   20.3380 C   0  0  0  0  0  3  0  0  0  0  0  0
  -22.7940  -10.4000   20.1670 C   0  0  0  0  0  3  0  0  0  0  0  0
  -21.6690   -7.1060   21.3120 O   0  0  0  0  0  0  0  0  0  0  0  0
  -21.5750   -6.3750   22.4700 C   0  0  0  0  0  0  0  0  0  0  0  0
  -21.1050   -6.9420   23.6740 C   0  0  0  0  0  3  0  0  0  0  0  0
  -20.9590   -6.1380   24.8210 C   0  0  0  0  0  3  0  0  0  0  0  0
  -21.2730   -4.7670   24.7670 C   0  0  0  0  0  0  0  0  0  0  0  0
  -21.7380   -4.1990   23.5670 C   0  0  0  0  0  3  0  0  0  0  0  0
  -21.8860   -5.0010   22.4210 C   0  0  0  0  0  0  0  0  0  0  0  0
  -22.3130   -4.4430   21.2630 F   0  0  0  0  0  0  0  0  0  0  0  0
  -21.1270   -3.9930   25.8670 F   0  0  0  0  0  0  0  0  0  0  0  0
  -23.0380  -13.7010   21.4430 C   0  0  0  0  0  0  0  0  0  0  0  0
  -22.4060  -12.9590   22.3450 N   0  0  0  0  0  0  0  0  0  0  0  0
  -22.5820  -14.7840   21.0780 O   0  0  0  0  0  0  0  0  0  0  0  0
  -22.7890  -12.0820   22.6620 H   0  0  0  0  0  0  0  0  0  0  0  0
  -21.5250  -13.2750   22.7260 H   0  0  0  0  0  0  0  0  0  0  0  0
  -25.5980  -15.3400   20.4000 N   0  0  0  0  0  0  0  0  0  0  0  0
  -24.8750  -15.9990   20.6670 H   0  0  0  0  0  0  0  0  0  0  0  0
  -26.3790  -15.7820   19.9330 H   0  0  0  0  0  0  0  0  0  0  0  0
  -32.7020  -17.6630   20.1290 C   0  0  0  0  0  0  0  0  0  0  0  0
  -33.9450  -18.3590   19.5840 C   0  0  0  0  0  1  0  0  0  0  0  0
  -32.8450  -16.6660   20.8430 O   0  0  0  0  0  0  0  0  0  0  0  0
  -26.4040  -22.0660   19.4320 C   0  0  0  0  0  0  0  0  0  0  0  0
  -25.3650  -23.1580   19.6400 C   0  0  0  0  0  1  0  0  0  0  0  0
  -26.0150  -20.9450   19.0950 O   0  0  0  0  0  0  0  0  0  0  0  0
  -28.1000  -25.0880   19.1960 C   0  0  0  0  0  2  0  0  0  0  0  0
  -27.9810  -26.3520   20.0560 O   0  0  0  0  0  0  0  0  0  0  0  0
  -24.4740  -31.9700   23.1690 C   0  0  0  0  0  0  0  0  0  0  0  0
  -26.9010  -27.2930   19.9970 C   0  0  0  0  0  0  0  0  0  0  0  0
  -23.1940  -30.5780   21.5890 C   0  0  0  0  0  3  0  0  0  0  0  0
  -24.5670  -29.0120   20.0910 C   0  0  0  0  0  0  0  0  0  0  0  0
  -25.7330  -30.8480   21.2990 C   0  0  0  0  0  2  0  0  0  0  0  0
  -25.7720  -29.4610   20.6440 C   0  0  0  0  0  0  0  0  0  0  0  0
  -26.9340  -28.6130   20.5900 C   0  0  0  0  0  3  0  0  0  0  0  0
  -25.6640  -26.9350   19.4130 C   0  0  0  0  0  3  0  0  0  0  0  0
  -24.5220  -27.7610   19.4620 C   0  0  0  0  0  3  0  0  0  0  0  0
  -23.3430  -29.9040   20.1990 C   0  0  0  0  0  2  0  0  0  0  0  0
  -24.4900  -31.1530   22.0740 N   0  0  0  0  0  0  0  0  0  0  0  0
  -23.4160  -32.2560   23.7490 O   0  0  0  0  0  0  0  0  0  0  0  0
  -22.5630  -29.5690   22.5800 C   0  0  0  0  0  0  0  0  0  0  0  0
  -21.2430  -29.3420   22.4650 N   0  0  0  0  0  0  0  0  0  0  0  0
  -23.2640  -28.9920   23.4170 O   0  0  0  0  0  0  0  0  0  0  0  0
  -20.7330  -29.8620   21.7640 H   0  0  0  0  0  0  0  0  0  0  0  0
  -17.9260  -27.9780   22.9650 C   0  0  0  0  0  0  0  0  0  0  0  0
  -20.4610  -28.3970   23.2650 C   0  0  0  0  0  3  0  0  0  0  0  0
  -20.6540  -26.9470   22.7600 C   0  0  0  0  0  2  0  0  0  0  0  0
  -19.5920  -26.5160   21.7440 C   0  0  0  0  0  2  0  0  0  0  0  0
  -18.1910  -26.6120   22.3580 C   0  0  0  0  0  2  0  0  0  0  0  0
  -18.9910  -28.8230   23.3770 C   0  0  0  0  0  0  0  0  0  0  0  0
  -18.6900  -30.0970   23.9060 C   0  0  0  0  0  3  0  0  0  0  0  0
  -17.3550  -30.5280   24.0280 C   0  0  0  0  0  3  0  0  0  0  0  0
  -16.3050  -29.6830   23.6320 C   0  0  0  0  0  3  0  0  0  0  0  0
  -16.5900  -28.4100   23.1060 C   0  0  0  0  0  3  0  0  0  0  0  0
  -25.7830  -32.6010   23.7330 C   0  0  0  0  0  3  0  0  0  0  0  0
  -26.3620  -31.8190   24.9770 C   0  0  1  0  0  0  0  0  0  0  0  0
  -25.3140  -31.5370   26.0780 C   0  0  0  0  0  1  0  0  0  0  0  0
  -26.9620  -30.4630   24.5400 C   0  0  0  0  0  1  0  0  0  0  0  0
  -27.5180  -32.6280   25.6110 C   0  0  0  0  0  1  0  0  0  0  0  0
  -25.4860  -33.9950   24.0970 N   0  0  0  0  0  0  0  0  0  0  0  0
  -25.7690  -35.0610   23.3360 C   0  0  0  0  0  0  0  0  0  0  0  0
  -26.3750  -34.9750   22.2650 O   0  0  0  0  0  0  0  0  0  0  0  0
  -24.9390  -34.1350   24.9340 H   0  0  0  0  0  0  0  0  0  0  0  0
  -24.0300  -36.8670   23.0990 C   0  0  0  0  0  1  0  0  0  0  0  0
  -25.3070  -36.4430   23.8430 C   0  0  0  0  0  3  0  0  0  0  0  0
  -27.4750  -37.3150   24.5980 C   0  0  0  0  0  1  0  0  0  0  0  0
  -26.3360  -37.4960   23.7020 N   0  0  0  0  0  0  0  0  0  0  0  0
  -25.9370  -38.4150   23.8780 H   0  0  0  0  0  0  0  0  0  0  0  0
  1 51  1  0
  1  2  1  0
  1  4  1  0
  2 54  1  0
  3  2  1  0
  3  4  1  0
  5  8  2  0
  5  6  1  0
  6 18  1  0
  6  7  2  0
  7 48  1  0
  8  4  1  0
  8  9  1  0
  9  7  1  0
 10 16  1  0
 10 18  1  0
 11 16  1  0
 12 13  1  0
 12 11  1  0
 14 13  1  0
 14 23  1  0
 14 15  1  0
 16 15  1  0
 17 10  2  0
 18 19  1  0
 20 21  2  0
 21 40  1  0
 22 25  1  0
 22 21  1  0
 23 24  1  0
 23 20  1  0
 24 22  2  0
 25 26  1  0
 26 27  2  0
 28 31  1  0
 28 27  1  0
 29 28  2  0
 30 29  1  0
 30 25  2  0
 31 32  1  0
 32 33  1  0
 33 34  2  0
 35 34  1  0
 35 39  1  0
 36 35  2  0
 37 32  2  0
 37 36  1  0
 38 37  1  0
 40 41  1  0
 41 43  1  0
 41 44  1  0
 42 40  2  0
 45 20  1  0
 45 46  1  0
 47 45  1  0
 48 50  2  0
 49 48  1  0
 51 52  1  0
 53 51  2  0
 54 55  1  0
 56 67  2  0
 57 55  1  0
 57 62  1  0
 58 66  1  0
 58 68  1  0
 59 65  1  0
 59 61  1  0
 60 66  1  0
 61 60  1  0
 62 61  2  0
 63 64  1  0
 63 57  2  0
 64 59  2  0
 65 58  1  0
 66 56  1  0
 68 70  2  0
 69 68  1  0
 71 69  1  0
 72 81  2  0
 72 77  1  0
 73 69  1  0
 73 77  1  0
 74 73  1  0
 75 76  1  0
 75 74  1  0
 76 72  1  0
 77 78  2  0
 78 79  1  0
 80 79  2  0
 81 80  1  0
 82 56  1  0
 82 87  1  0
 82 83  1  0
 83 86  1  1
 83 84  1  0
 85 83  1  0
 87 90  1  0
 88 92  1  0
 88 87  1  0
 89 88  2  0
 92 91  1  0
 94 92  1  0
 94 95  1  0
 94 93  1  0
M  ISO  4  10 100  18 100  54 101  55 101
M  END
>  <TORSDO>  (28) 
F 20

>  <SCORE>  (28) 
-12.610

>  <name>  (28) 
27

>  <ligand_id>  (28) 
27

>  <original_smiles>  (28) 
[H]c1c([H])c([H])c2c(c1[H])C([H])([H])C([H])([H])C([H])([H])C2([H])N([H])C(=O)C1([H])N(C(=O)C([H])(N([H])C(=O)C([H])(N([H])C([H])([H])[H])C([H])([H])[H])C(C([H])([H])[H])(C([H])([H])[H])C([H])([H])[H])C([H])([H])c2c([H])c(OC([H])([H])C3=C(C(=O)C([H])([H])[H])N(c4sc(C(=O)C([H])([H])[H])c(N([H])C(=O)N5C([H])([H])C([H])([H])C([H])([H])C([H])(n6nc(-c7c([H])c([H])c(Oc8c([H])c([H])c(F)c([H])c8F)c([H])c7[H])c(C(=O)N([H])[H])c6N([H])[H])C5([H])[H])c4[H])C3([H])[H])c([H])c([H])c2C1([H])[H]

>  <smiles>  (28) 
[H]c1c([H])c([H])c2c(c1[H])C([H])([H])C([H])([H])C([H])([H])C2([H])N([H])C(=O)C1([H])N(C(=O)C([H])(N([H])C(=O)C([H])(N([H])C([H])([H])[H])C([H])([H])[H])C(C([H])([H])[H])(C([H])([H])[H])C([H])([H])[H])C([H])([H])c2c([H])c(OC([H])([H])C3=C(C(=O)C([H])([H])[H])N(c4sc(C(=O)C([H])([H])[H])c(N([H])C(=O)N5C([H])([H])C([H])([H])C([H])([H])C([H])(n6nc(-c7c([H])c([H])c(Oc8c([H])c([H])c(F)c([H])c8F)c([H])c7[H])c(C(=O)N([H])[H])c6N([H])[H])C5([H])[H])c4[H])C3([H])[H])c([H])c([H])c2C1([H])[H]

$$$$
28:0:0
     RDKit          3D

 91100  0  0  1  0  0  0  0  0999 V2000
  -31.4640  -18.0800   20.1200 C   0  0  0  0  0  3  0  0  0  0  0  0
  -30.3220  -17.4040   20.5440 C   0  0  0  0  0  0  0  0  0  0  0  0
  -29.9260  -19.6680   20.4000 C   0  0  0  0  0  0  0  0  0  0  0  0
  -27.6420  -23.4450   21.1620 C   0  0  0  0  0  3  0  0  0  0  0  0
  -28.5000  -23.5750   20.1340 C   0  0  0  0  0  0  0  0  0  0  0  0
  -27.4470  -22.1240   21.8870 C   0  0  0  0  0  2  0  0  0  0  0  0
  -29.3260  -22.2500   19.7410 C   0  0  0  0  0  2  0  0  0  0  0  0
  -27.7480  -20.8860   20.9990 C   0  0  0  0  0  2  0  0  0  0  0  0
  -31.2030  -19.4750   20.0430 N   0  0  0  0  0  0  0  0  0  0  0  0
  -29.1040  -20.8860   20.4200 N   0  0  0  0  0  0  0  0  0  0  0  0
  -29.3570  -18.4350   20.7210 O   0  0  0  0  0  0  0  0  0  0  0  0
  -30.7040  -14.8720   20.4780 C   0  0  0  0  0  0  0  0  0  0  0  0
  -30.4770  -12.5690   19.5530 C   0  0  0  0  0  2  0  0  0  0  0  0
  -29.5720  -12.6390   18.3040 C   0  0  0  0  0  2  0  0  0  0  0  0
  -28.0960  -12.4620   18.7020 C   0  0  0  0  0  2  0  0  0  0  0  0
  -27.6810  -13.3790   19.8840 C   0  0  0  0  0  3  0  0  0  0  0  0
  -28.7210  -13.2950   21.0350 C   0  0  0  0  0  2  0  0  0  0  0  0
  -30.0430  -13.6510   20.4720 N   0  0  0  0  0  0  0  0  0  0  0  0
  -31.8650  -14.9300   20.0610 O   0  0  0  0  0  0  0  0  0  0  0  0
  -30.0090  -16.0430   20.7730 N   0  0  0  0  0  0  0  0  0  0  0  0
  -29.0810  -15.8880   21.1350 H   0  0  0  0  0  0  0  0  0  0  0  0
  -25.2490  -13.9890   20.4650 C   0  0  0  0  0  0  0  0  0  0  0  0
  -24.1610  -13.2290   20.8250 C   0  0  0  0  0  0  0  0  0  0  0  0
  -24.6140  -11.8780   20.8310 C   0  0  0  0  0  0  0  0  0  0  0  0
  -26.3040  -13.1000   20.3110 N   0  0  0  0  0  0  0  0  0  0  0  0
  -25.9190  -11.8210   20.5800 N   0  0  0  0  0  0  0  0  0  0  0  0
  -23.8650  -10.6200   21.0200 C   0  0  0  0  0  0  0  0  0  0  0  0
  -24.2800   -9.6510   21.9580 C   0  0  0  0  0  3  0  0  0  0  0  0
  -23.5350   -8.4660   22.1400 C   0  0  0  0  0  3  0  0  0  0  0  0
  -22.3600   -8.2380   21.3840 C   0  0  0  0  0  0  0  0  0  0  0  0
  -21.9660   -9.1970   20.4340 C   0  0  0  0  0  3  0  0  0  0  0  0
  -22.7120  -10.3750   20.2510 C   0  0  0  0  0  3  0  0  0  0  0  0
  -21.5890   -7.1070   21.4790 O   0  0  0  0  0  0  0  0  0  0  0  0
  -21.5500   -6.3530   22.6250 C   0  0  0  0  0  0  0  0  0  0  0  0
  -21.1810   -6.9080   23.8690 C   0  0  0  0  0  3  0  0  0  0  0  0
  -21.0820   -6.0850   25.0090 C   0  0  0  0  0  3  0  0  0  0  0  0
  -21.3440   -4.7060   24.9070 C   0  0  0  0  0  0  0  0  0  0  0  0
  -21.7050   -4.1490   23.6680 C   0  0  0  0  0  3  0  0  0  0  0  0
  -21.8030   -4.9690   22.5310 C   0  0  0  0  0  0  0  0  0  0  0  0
  -22.1320   -4.4220   21.3370 F   0  0  0  0  0  0  0  0  0  0  0  0
  -21.2410   -3.9140   26.0000 F   0  0  0  0  0  0  0  0  0  0  0  0
  -22.7610  -13.7250   21.0410 C   0  0  0  0  0  0  0  0  0  0  0  0
  -21.9980  -13.0610   21.9080 N   0  0  0  0  0  0  0  0  0  0  0  0
  -22.3440  -14.7310   20.4730 O   0  0  0  0  0  0  0  0  0  0  0  0
  -22.3310  -12.2400   22.3860 H   0  0  0  0  0  0  0  0  0  0  0  0
  -21.0600  -13.3840   22.0920 H   0  0  0  0  0  0  0  0  0  0  0  0
  -25.4300  -15.3500   20.2350 N   0  0  0  0  0  0  0  0  0  0  0  0
  -24.6600  -16.0120   20.1840 H   0  0  0  0  0  0  0  0  0  0  0  0
  -26.2650  -15.6980   19.7810 H   0  0  0  0  0  0  0  0  0  0  0  0
  -28.5980  -24.9500   19.2760 C   0  0  0  0  0  2  0  0  0  0  0  0
  -28.4610  -26.3530   19.8640 O   0  0  0  0  0  0  0  0  0  0  0  0
  -24.5640  -31.7160   22.9720 C   0  0  0  0  0  0  0  0  0  0  0  0
  -27.3220  -27.2100   19.7940 C   0  0  0  0  0  0  0  0  0  0  0  0
  -23.4200  -30.2970   21.3100 C   0  0  0  0  0  3  0  0  0  0  0  0
  -24.9170  -28.8080   19.8480 C   0  0  0  0  0  0  0  0  0  0  0  0
  -25.9650  -30.6690   21.1490 C   0  0  0  0  0  2  0  0  0  0  0  0
  -26.0730  -29.3060   20.4520 C   0  0  0  0  0  0  0  0  0  0  0  0
  -27.2790  -28.5150   20.4040 C   0  0  0  0  0  3  0  0  0  0  0  0
  -26.1260  -26.7800   19.1800 C   0  0  0  0  0  3  0  0  0  0  0  0
  -24.9480  -27.5590   19.2010 C   0  0  0  0  0  3  0  0  0  0  0  0
  -23.6540  -29.6480   19.9210 C   0  0  0  0  0  2  0  0  0  0  0  0
  -24.6680  -30.9210   21.8630 N   0  0  0  0  0  0  0  0  0  0  0  0
  -23.4650  -31.9530   23.5000 O   0  0  0  0  0  0  0  0  0  0  0  0
  -22.7860  -29.2490   22.2620 C   0  0  0  0  0  0  0  0  0  0  0  0
  -21.4630  -29.0350   22.1330 N   0  0  0  0  0  0  0  0  0  0  0  0
  -23.4820  -28.6330   23.0720 O   0  0  0  0  0  0  0  0  0  0  0  0
  -20.9820  -29.5250   21.3890 H   0  0  0  0  0  0  0  0  0  0  0  0
  -18.1140  -27.7640   22.7040 C   0  0  0  0  0  0  0  0  0  0  0  0
  -20.6760  -28.0620   22.8950 C   0  0  0  0  0  3  0  0  0  0  0  0
  -20.7800  -26.6650   22.2490 C   0  0  0  0  0  2  0  0  0  0  0  0
  -19.6490  -26.3670   21.2570 C   0  0  0  0  0  2  0  0  0  0  0  0
  -18.2940  -26.4440   21.9680 C   0  0  0  0  0  2  0  0  0  0  0  0
  -19.2320  -28.5330   23.1230 C   0  0  0  0  0  0  0  0  0  0  0  0
  -19.0090  -29.7710   23.7670 C   0  0  0  0  0  3  0  0  0  0  0  0
  -17.7010  -30.2310   24.0110 C   0  0  0  0  0  3  0  0  0  0  0  0
  -16.5990  -29.4620   23.6090 C   0  0  0  0  0  3  0  0  0  0  0  0
  -16.8080  -28.2340   22.9580 C   0  0  0  0  0  3  0  0  0  0  0  0
  -25.8110  -32.3930   23.6210 C   0  0  0  0  0  3  0  0  0  0  0  0
  -25.4320  -33.7580   24.0210 N   0  0  0  0  0  0  0  0  0  0  0  0
  -25.6960  -34.8650   23.3150 C   0  0  0  0  0  0  0  0  0  0  0  0
  -26.3590  -34.8490   22.2730 O   0  0  0  0  0  0  0  0  0  0  0  0
  -24.8400  -33.8320   24.8360 H   0  0  0  0  0  0  0  0  0  0  0  0
  -23.8680  -36.5800   23.0700 C   0  0  0  0  0  1  0  0  0  0  0  0
  -25.1450  -36.2090   23.8420 C   0  0  0  0  0  3  0  0  0  0  0  0
  -27.2500  -37.1550   24.6860 C   0  0  0  0  0  1  0  0  0  0  0  0
  -26.1240  -37.3150   23.7670 N   0  0  0  0  0  0  0  0  0  0  0  0
  -25.6810  -38.2090   23.9590 H   0  0  0  0  0  0  0  0  0  0  0  0
  -26.3760  -31.5990   24.8610 C   0  0  1  0  0  0  0  0  0  0  0  0
  -25.3130  -31.2550   25.9330 C   0  0  0  0  0  1  0  0  0  0  0  0
  -27.0180  -30.2690   24.4110 C   0  0  0  0  0  1  0  0  0  0  0  0
  -27.5060  -32.4220   25.5300 C   0  0  0  0  0  1  0  0  0  0  0  0
  1  2  2  0
  2 11  1  0
  2 20  1  0
  3 10  1  0
  3 11  1  0
  4  6  1  0
  5  4  2  0
  7  5  1  0
  7 10  1  0
  8  6  1  0
  9  1  1  0
  9  3  2  0
 10  8  1  0
 12 20  1  0
 13 18  1  0
 14 15  1  0
 14 13  1  0
 16 15  1  0
 16 25  1  0
 16 17  1  0
 18 12  1  0
 18 17  1  0
 19 12  2  0
 20 21  1  0
 22 23  2  0
 23 24  1  0
 23 42  1  0
 24 27  1  0
 25 22  1  0
 25 26  1  0
 26 24  2  0
 27 28  1  0
 28 29  2  0
 30 33  1  0
 30 29  1  0
 31 30  2  0
 32 31  1  0
 32 27  2  0
 33 34  1  0
 34 35  1  0
 35 36  2  0
 37 36  1  0
 37 41  1  0
 38 37  2  0
 39 34  2  0
 39 38  1  0
 40 39  1  0
 42 43  1  0
 43 46  1  0
 43 45  1  0
 44 42  2  0
 47 22  1  0
 48 47  1  0
 49 47  1  0
 50 51  1  0
 50  5  1  0
 52 63  2  0
 53 51  1  0
 53 58  1  0
 54 62  1  0
 54 64  1  0
 55 61  1  0
 55 57  1  0
 56 62  1  0
 57 56  1  0
 58 57  2  0
 59 60  1  0
 59 53  2  0
 60 55  2  0
 61 54  1  0
 62 52  1  0
 64 66  2  0
 65 64  1  0
 67 65  1  0
 68 77  2  0
 68 73  1  0
 69 65  1  0
 69 73  1  0
 70 69  1  0
 71 72  1  0
 71 70  1  0
 72 68  1  0
 73 74  2  0
 74 75  1  0
 76 75  2  0
 77 76  1  0
 78 52  1  0
 78 79  1  0
 78 88  1  0
 79 82  1  0
 80 84  1  0
 80 79  1  0
 81 80  2  0
 84 83  1  0
 86 84  1  0
 86 87  1  0
 86 85  1  0
 88 91  1  1
 88 89  1  0
 90 88  1  0
M  ISO  4  12 100  20 100  50 101  51 101
M  END
>  <TORSDO>  (29) 
F 17

>  <SCORE>  (29) 
-14.004

>  <name>  (29) 
28

>  <ligand_id>  (29) 
28

>  <original_smiles>  (29) 
[H]C1=C(C([H])([H])Oc2c([H])c([H])c3c(c2[H])C([H])([H])N(C(=O)C([H])(N([H])C(=O)C([H])(N([H])C([H])([H])[H])C([H])([H])[H])C(C([H])([H])[H])(C([H])([H])[H])C([H])([H])[H])C([H])(C(=O)N([H])C2([H])c4c([H])c([H])c([H])c([H])c4C([H])([H])C([H])([H])C2([H])[H])C3([H])[H])C([H])([H])N(c2nc([H])c(N([H])C(=O)N3C([H])([H])C([H])([H])C([H])([H])C([H])(n4nc(-c5c([H])c([H])c(Oc6c([H])c([H])c(F)c([H])c6F)c([H])c5[H])c(C(=O)N([H])[H])c4N([H])[H])C3([H])[H])o2)C([H])([H])C1([H])[H]

>  <smiles>  (29) 
[H]C1=C(C([H])([H])Oc2c([H])c([H])c3c(c2[H])C([H])([H])N(C(=O)C([H])(N([H])C(=O)C([H])(N([H])C([H])([H])[H])C([H])([H])[H])C(C([H])([H])[H])(C([H])([H])[H])C([H])([H])[H])C([H])(C(=O)N([H])C2([H])c4c([H])c([H])c([H])c([H])c4C([H])([H])C([H])([H])C2([H])[H])C3([H])[H])C([H])([H])N(c2nc([H])c(N([H])C(=O)N3C([H])([H])C([H])([H])C([H])([H])C([H])(n4nc(-c5c([H])c([H])c(Oc6c([H])c([H])c(F)c([H])c6F)c([H])c5[H])c(C(=O)N([H])[H])c4N([H])[H])C3([H])[H])o2)C([H])([H])C1([H])[H]

$$$$
29:0:0
     RDKit          3D

 95103  0  0  1  0  0  0  0  0999 V2000
  -29.4150  -21.1990   21.0250 C   0  0  0  0  0  0  0  0  0  0  0  0
  -29.4600  -21.2670   22.3530 N   0  0  0  0  0  4  0  0  0  0  0  0
  -29.1150  -22.3800   20.3550 N   0  0  0  0  0  0  0  0  0  0  0  0
  -29.7900  -20.4790   22.8850 H   0  0  0  0  0  0  0  0  0  0  0  0
  -29.0430  -22.0330   22.8550 H   0  0  0  0  0  0  0  0  0  0  0  0
  -28.9310  -22.2460   19.3680 H   0  0  0  0  0  0  0  0  0  0  0  0
  -29.5950  -18.5160   20.8910 C   0  0  0  0  0  3  0  0  0  0  0  0
  -30.4240  -19.9600   19.1070 C   0  0  0  0  0  3  0  0  0  0  0  0
  -30.6840  -17.5250   18.9520 C   0  0  0  0  0  3  0  0  0  0  0  0
  -29.7700  -19.8650   20.3540 C   0  0  0  0  0  0  0  0  0  0  0  0
  -30.0630  -17.3120   20.2070 C   0  0  0  0  0  0  0  0  0  0  0  0
  -30.8610  -18.8160   18.4160 C   0  0  0  0  0  0  0  0  0  0  0  0
  -31.4670  -18.9610   17.2110 F   0  0  0  0  0  0  0  0  0  0  0  0
  -30.5840  -14.7620   20.3390 C   0  0  0  0  0  0  0  0  0  0  0  0
  -30.3420  -12.5020   19.3220 C   0  0  0  0  0  2  0  0  0  0  0  0
  -29.4050  -12.6020   18.0960 C   0  0  0  0  0  2  0  0  0  0  0  0
  -27.9330  -12.4430   18.5190 C   0  0  0  0  0  2  0  0  0  0  0  0
  -27.5690  -13.3150   19.7480 C   0  0  0  0  0  3  0  0  0  0  0  0
  -28.6280  -13.2120   20.8680 C   0  0  0  0  0  2  0  0  0  0  0  0
  -29.9320  -13.5500   20.2860 N   0  0  0  0  0  0  0  0  0  0  0  0
  -31.7520  -14.8430   19.9480 O   0  0  0  0  0  0  0  0  0  0  0  0
  -29.8760  -15.9090   20.6820 N   0  0  0  0  0  0  0  0  0  0  0  0
  -29.0270  -15.7370   21.1980 H   0  0  0  0  0  0  0  0  0  0  0  0
  -25.1800  -13.9100   20.4720 C   0  0  0  0  0  0  0  0  0  0  0  0
  -24.1140  -13.1390   20.8460 C   0  0  0  0  0  0  0  0  0  0  0  0
  -24.5740  -11.7870   20.8190 C   0  0  0  0  0  0  0  0  0  0  0  0
  -26.2230  -13.0290   20.2390 N   0  0  0  0  0  0  0  0  0  0  0  0
  -25.8640  -11.7460   20.5100 N   0  0  0  0  0  0  0  0  0  0  0  0
  -23.8440  -10.5280   21.0160 C   0  0  0  0  0  0  0  0  0  0  0  0
  -24.2740   -9.5610   21.9510 C   0  0  0  0  0  3  0  0  0  0  0  0
  -23.5440   -8.3660   22.1350 C   0  0  0  0  0  3  0  0  0  0  0  0
  -22.3700   -8.1280   21.3810 C   0  0  0  0  0  0  0  0  0  0  0  0
  -21.9570   -9.0840   20.4350 C   0  0  0  0  0  3  0  0  0  0  0  0
  -22.6890  -10.2700   20.2500 C   0  0  0  0  0  3  0  0  0  0  0  0
  -21.6110   -6.9860   21.4750 O   0  0  0  0  0  0  0  0  0  0  0  0
  -21.5620   -6.2460   22.6300 C   0  0  0  0  0  0  0  0  0  0  0  0
  -21.1320   -6.8030   23.8520 C   0  0  0  0  0  3  0  0  0  0  0  0
  -21.0290   -5.9910   25.0000 C   0  0  0  0  0  3  0  0  0  0  0  0
  -21.3480   -4.6220   24.9240 C   0  0  0  0  0  0  0  0  0  0  0  0
  -21.7670   -4.0630   23.7040 C   0  0  0  0  0  3  0  0  0  0  0  0
  -21.8720   -4.8730   22.5600 C   0  0  0  0  0  0  0  0  0  0  0  0
  -22.2590   -4.3250   21.3820 F   0  0  0  0  0  0  0  0  0  0  0  0
  -21.2400   -3.8400   26.0230 F   0  0  0  0  0  0  0  0  0  0  0  0
  -22.7180  -13.6200   21.1170 C   0  0  0  0  0  0  0  0  0  0  0  0
  -21.9870  -12.9280   21.9840 N   0  0  0  0  0  0  0  0  0  0  0  0
  -22.2820  -14.6460   20.5960 O   0  0  0  0  0  0  0  0  0  0  0  0
  -22.3500  -12.0950   22.4270 H   0  0  0  0  0  0  0  0  0  0  0  0
  -21.0520  -13.2330   22.2080 H   0  0  0  0  0  0  0  0  0  0  0  0
  -25.3420  -15.2790   20.2860 N   0  0  0  0  0  0  0  0  0  0  0  0
  -24.5650  -15.9280   20.3560 H   0  0  0  0  0  0  0  0  0  0  0  0
  -26.1830  -15.7140   19.9290 H   0  0  0  0  0  0  0  0  0  0  0  0
  -29.2140  -23.8750   20.7470 C   0  0  0  0  0  2  0  0  0  0  0  0
  -26.8790  -24.5340   21.3950 C   0  0  0  0  0  1  0  0  0  0  0  0
  -28.0010  -24.8810   20.3890 C   0  0  0  0  0  3  0  0  0  0  0  0
  -28.2500  -26.3780   20.3560 O   0  0  0  0  0  0  0  0  0  0  0  0
  -24.5890  -31.8990   23.2390 C   0  0  0  0  0  0  0  0  0  0  0  0
  -27.1790  -27.2910   20.2100 C   0  0  0  0  0  0  0  0  0  0  0  0
  -23.3880  -30.4990   21.5970 C   0  0  0  0  0  3  0  0  0  0  0  0
  -24.8390  -28.9550   20.1590 C   0  0  0  0  0  0  0  0  0  0  0  0
  -25.9320  -30.8020   21.4300 C   0  0  0  0  0  2  0  0  0  0  0  0
  -26.0090  -29.4260   20.7720 C   0  0  0  0  0  0  0  0  0  0  0  0
  -27.1790  -28.6070   20.7890 C   0  0  0  0  0  3  0  0  0  0  0  0
  -26.0060  -26.9150   19.5160 C   0  0  0  0  0  3  0  0  0  0  0  0
  -24.8460  -27.7090   19.5150 C   0  0  0  0  0  3  0  0  0  0  0  0
  -23.6050  -29.8330   20.2140 C   0  0  0  0  0  2  0  0  0  0  0  0
  -24.6540  -31.0860   22.1450 N   0  0  0  0  0  0  0  0  0  0  0  0
  -23.5030  -32.1860   23.7670 O   0  0  0  0  0  0  0  0  0  0  0  0
  -22.7160  -29.4860   22.5560 C   0  0  0  0  0  0  0  0  0  0  0  0
  -21.3870  -29.3230   22.4330 N   0  0  0  0  0  0  0  0  0  0  0  0
  -23.3890  -28.8490   23.3690 O   0  0  0  0  0  0  0  0  0  0  0  0
  -20.9040  -29.8850   21.7470 H   0  0  0  0  0  0  0  0  0  0  0  0
  -17.9960  -28.1630   22.9380 C   0  0  0  0  0  0  0  0  0  0  0  0
  -20.5600  -28.3920   23.2010 C   0  0  0  0  0  3  0  0  0  0  0  0
  -20.6430  -26.9610   22.6160 C   0  0  0  0  0  2  0  0  0  0  0  0
  -19.5320  -26.6590   21.6060 C   0  0  0  0  0  2  0  0  0  0  0  0
  -18.1530  -26.8150   22.2550 C   0  0  0  0  0  2  0  0  0  0  0  0
  -19.1250  -28.9100   23.3670 C   0  0  0  0  0  0  0  0  0  0  0  0
  -18.9240  -30.1730   23.9650 C   0  0  0  0  0  3  0  0  0  0  0  0
  -17.6250  -30.6860   24.1430 C   0  0  0  0  0  3  0  0  0  0  0  0
  -16.5100  -29.9340   23.7360 C   0  0  0  0  0  3  0  0  0  0  0  0
  -16.6970  -28.6760   23.1340 C   0  0  0  0  0  3  0  0  0  0  0  0
  -25.8710  -32.5250   23.8630 C   0  0  0  0  0  3  0  0  0  0  0  0
  -26.3810  -31.7570   25.1450 C   0  0  1  0  0  0  0  0  0  0  0  0
  -25.2830  -31.5330   26.2090 C   0  0  0  0  0  1  0  0  0  0  0  0
  -26.9590  -30.3730   24.7630 C   0  0  0  0  0  1  0  0  0  0  0  0
  -27.5300  -32.5520   25.8100 C   0  0  0  0  0  1  0  0  0  0  0  0
  -25.5680  -33.9270   24.1870 N   0  0  0  0  0  0  0  0  0  0  0  0
  -25.9020  -34.9790   23.4260 C   0  0  0  0  0  0  0  0  0  0  0  0
  -26.5680  -34.8720   22.3920 O   0  0  0  0  0  0  0  0  0  0  0  0
  -24.9870  -34.0870   24.9960 H   0  0  0  0  0  0  0  0  0  0  0  0
  -24.1800  -36.7810   23.0760 C   0  0  0  0  0  1  0  0  0  0  0  0
  -25.4200  -36.3700   23.8860 C   0  0  0  0  0  3  0  0  0  0  0  0
  -27.5590  -37.2490   24.7120 C   0  0  0  0  0  1  0  0  0  0  0  0
  -26.4550  -37.4190   23.7700 N   0  0  0  0  0  0  0  0  0  0  0  0
  -26.0550  -38.3420   23.9140 H   0  0  0  0  0  0  0  0  0  0  0  0
  1  2  2  0
  2  5  1  0
  2  4  1  0
  3 52  1  0
  3  1  1  0
  6  3  1  0
  8 10  2  0
  9 11  1  0
 10  7  1  0
 10  1  1  0
 11 22  1  0
 11  7  2  0
 12  9  2  0
 12  8  1  0
 13 12  1  0
 14 22  1  0
 15 20  1  0
 16 17  1  0
 16 15  1  0
 18 17  1  0
 18 27  1  0
 18 19  1  0
 20 14  1  0
 20 19  1  0
 21 14  2  0
 22 23  1  0
 24 25  2  0
 25 44  1  0
 26 25  1  0
 26 29  1  0
 27 24  1  0
 27 28  1  0
 28 26  2  0
 29 30  1  0
 30 31  2  0
 32 35  1  0
 32 31  1  0
 33 32  2  0
 34 33  1  0
 34 29  2  0
 35 36  1  0
 36 37  1  0
 37 38  2  0
 39 38  1  0
 39 43  1  0
 40 39  2  0
 41 36  2  0
 41 40  1  0
 42 41  1  0
 44 45  1  0
 45 48  1  0
 45 47  1  0
 46 44  2  0
 49 50  1  0
 49 24  1  0
 51 49  1  0
 54 52  1  0
 54 53  1  0
 55 54  1  0
 56 67  2  0
 57 55  1  0
 57 62  1  0
 58 66  1  0
 58 68  1  0
 59 65  1  0
 59 61  1  0
 60 66  1  0
 61 62  2  0
 61 60  1  0
 63 57  2  0
 64 63  1  0
 64 59  2  0
 65 58  1  0
 66 56  1  0
 68 70  2  0
 69 68  1  0
 71 69  1  0
 72 81  2  0
 72 77  1  0
 73 69  1  0
 73 77  1  0
 74 73  1  0
 75 76  1  0
 75 74  1  0
 76 72  1  0
 77 78  2  0
 78 79  1  0
 80 79  2  0
 81 80  1  0
 82 56  1  0
 82 87  1  0
 82 83  1  0
 83 86  1  1
 83 84  1  0
 85 83  1  0
 87 90  1  0
 88 92  1  0
 88 87  1  0
 89 88  2  0
 92 91  1  0
 94 92  1  0
 94 95  1  0
 94 93  1  0
M  ISO  4  14 100  22 100  54 101  55 101
M  END
>  <TORSDO>  (30) 
F 19

>  <SCORE>  (30) 
-14.550

>  <name>  (30) 
29

>  <ligand_id>  (30) 
29

>  <original_smiles>  (30) 
[H]c1c([H])c([H])c2c(c1[H])C([H])([H])C([H])([H])C([H])([H])C2([H])N([H])C(=O)C1([H])N(C(=O)C([H])(N([H])C(=O)C([H])(N([H])C([H])([H])[H])C([H])([H])[H])C(C([H])([H])[H])(C([H])([H])[H])C([H])([H])[H])C([H])([H])c2c([H])c(OC([H])(C([H])([H])[H])C([H])([H])[N+]([H])=C(c3c([H])c(F)c([H])c(N([H])C(=O)N4C([H])([H])C([H])([H])C([H])([H])C([H])(n5nc(-c6c([H])c([H])c(Oc7c([H])c([H])c(F)c([H])c7F)c([H])c6[H])c(C(=O)N([H])[H])c5N([H])[H])C4([H])[H])c3[H])N([H])[H])c([H])c([H])c2C1([H])[H]

>  <smiles>  (30) 
[H]c1c([H])c([H])c2c(c1[H])C([H])([H])C([H])([H])C([H])([H])C2([H])N([H])C(=O)C1([H])N(C(=O)C([H])(N([H])C(=O)C([H])(N([H])C([H])([H])[H])C([H])([H])[H])C(C([H])([H])[H])(C([H])([H])[H])C([H])([H])[H])C([H])([H])c2c([H])c(OC([H])(C([H])([H])[H])C([H])([H])[N+]([H])=C(c3c([H])c(F)c([H])c(N([H])C(=O)N4C([H])([H])C([H])([H])C([H])([H])C([H])(n5nc(-c6c([H])c([H])c(Oc7c([H])c([H])c(F)c([H])c7F)c([H])c6[H])c(C(=O)N([H])[H])c5N([H])[H])C4([H])[H])c3[H])N([H])[H])c([H])c([H])c2C1([H])[H]

$$$$
30:0:0
     RDKit          3D

 99108  0  0  1  0  0  0  0  0999 V2000
  -28.9390  -20.8980   20.3920 C   0  0  0  0  0  3  0  0  0  0  0  0
  -27.7000  -19.6380   18.7190 C   0  0  0  0  0  3  0  0  0  0  0  0
  -27.1410  -21.9730   19.1530 C   0  0  0  0  0  3  0  0  0  0  0  0
  -28.7410  -19.6950   19.6770 C   0  0  0  0  0  0  0  0  0  0  0  0
  -28.1500  -22.0310   20.1380 C   0  0  0  0  0  0  0  0  0  0  0  0
  -26.9120  -20.7740   18.4530 C   0  0  0  0  0  0  0  0  0  0  0  0
  -25.9250  -20.7070   17.5270 F   0  0  0  0  0  0  0  0  0  0  0  0
  -31.0090  -14.5110   20.0180 C   0  0  0  0  0  0  0  0  0  0  0  0
  -30.6290  -12.3410   18.9390 C   0  0  0  0  0  2  0  0  0  0  0  0
  -29.6290  -12.5290   17.7780 C   0  0  0  0  0  2  0  0  0  0  0  0
  -28.1740  -12.4260   18.2800 C   0  0  0  0  0  2  0  0  0  0  0  0
  -27.9050  -13.2880   19.5420 C   0  0  0  0  0  3  0  0  0  0  0  0
  -29.0140  -13.0730   20.5960 C   0  0  0  0  0  2  0  0  0  0  0  0
  -30.3080  -13.3510   19.9560 N   0  0  0  0  0  0  0  0  0  0  0  0
  -32.1700  -14.5990   19.5990 O   0  0  0  0  0  0  0  0  0  0  0  0
  -29.0660  -17.6050   21.0880 C   0  0  0  0  0  2  0  0  0  0  0  0
  -29.9010  -16.3240   21.3580 C   0  0  0  0  0  2  0  0  0  0  0  0
  -29.8440  -17.6330   18.6780 C   0  0  0  0  0  2  0  0  0  0  0  0
  -29.6350  -18.4830   19.9470 C   0  0  1  0  0  0  0  0  0  0  0  0
  -30.2300  -15.6190   20.1100 N   0  0  0  0  0  0  0  0  0  0  0  0
  -30.7430  -16.5290   19.0210 N   0  0  0  0  0  4  0  0  0  0  0  0
  -31.5840  -16.9640   19.3770 H   0  0  0  0  0  0  0  0  0  0  0  0
  -31.0090  -15.9670   18.2290 H   0  0  0  0  0  0  0  0  0  0  0  0
  -25.5720  -13.9370   20.4120 C   0  0  0  0  0  0  0  0  0  0  0  0
  -24.5060  -13.1820   20.8210 C   0  0  0  0  0  0  0  0  0  0  0  0
  -24.9270  -11.8200   20.7230 C   0  0  0  0  0  0  0  0  0  0  0  0
  -26.5770  -13.0370   20.0950 N   0  0  0  0  0  0  0  0  0  0  0  0
  -26.1970  -11.7570   20.3410 N   0  0  0  0  0  0  0  0  0  0  0  0
  -24.1780  -10.5720   20.9170 C   0  0  0  0  0  0  0  0  0  0  0  0
  -24.5920   -9.6030   21.8590 C   0  0  0  0  0  3  0  0  0  0  0  0
  -23.8470   -8.4200   22.0410 C   0  0  0  0  0  3  0  0  0  0  0  0
  -22.6740   -8.1950   21.2810 C   0  0  0  0  0  0  0  0  0  0  0  0
  -22.2820   -9.1500   20.3260 C   0  0  0  0  0  3  0  0  0  0  0  0
  -23.0280  -10.3260   20.1430 C   0  0  0  0  0  3  0  0  0  0  0  0
  -21.9010   -7.0630   21.3720 O   0  0  0  0  0  0  0  0  0  0  0  0
  -21.7670   -6.3760   22.5510 C   0  0  0  0  0  0  0  0  0  0  0  0
  -21.2310   -6.9810   23.7090 C   0  0  0  0  0  3  0  0  0  0  0  0
  -21.0470   -6.2180   24.8790 C   0  0  0  0  0  3  0  0  0  0  0  0
  -21.3890   -4.8530   24.8920 C   0  0  0  0  0  0  0  0  0  0  0  0
  -21.9160   -4.2480   23.7380 C   0  0  0  0  0  3  0  0  0  0  0  0
  -22.1020   -5.0080   22.5700 C   0  0  0  0  0  0  0  0  0  0  0  0
  -22.5910   -4.4150   21.4540 F   0  0  0  0  0  0  0  0  0  0  0  0
  -21.2030   -4.1180   26.0130 F   0  0  0  0  0  0  0  0  0  0  0  0
  -23.1400  -13.6860   21.1860 C   0  0  0  0  0  0  0  0  0  0  0  0
  -22.4450  -12.9830   22.0730 N   0  0  0  0  0  0  0  0  0  0  0  0
  -22.7000  -14.7370   20.7220 O   0  0  0  0  0  0  0  0  0  0  0  0
  -22.8140  -12.1330   22.4730 H   0  0  0  0  0  0  0  0  0  0  0  0
  -21.5270  -13.2960   22.3560 H   0  0  0  0  0  0  0  0  0  0  0  0
  -25.7660  -15.3070   20.2610 N   0  0  0  0  0  0  0  0  0  0  0  0
  -25.0260  -15.9800   20.4180 H   0  0  0  0  0  0  0  0  0  0  0  0
  -26.6020  -15.7210   19.8750 H   0  0  0  0  0  0  0  0  0  0  0  0
  -30.9430  -18.8770   20.3490 O   0  0  0  0  0  0  0  0  0  0  0  0
  -30.8580  -19.3750   21.1550 H   0  0  0  0  0  0  0  0  0  0  0  0
  -28.3930  -23.1730   20.9070 N   0  0  0  0  0  0  0  0  0  0  0  0
  -29.0390  -23.0300   21.6790 H   0  0  0  0  0  0  0  0  0  0  0  0
  -28.6330  -24.4200   20.1950 C   0  0  0  0  0  2  0  0  0  0  0  0
  -29.6860  -25.7090   22.1510 C   0  0  0  0  0  1  0  0  0  0  0  0
  -28.5280  -25.6220   21.1470 C   0  0  0  0  0  3  0  0  0  0  0  0
  -28.5530  -26.8140   20.3750 O   0  0  0  0  0  0  0  0  0  0  0  0
  -24.5830  -31.9120   23.3010 C   0  0  0  0  0  0  0  0  0  0  0  0
  -27.3660  -27.4970   20.3560 C   0  0  0  0  0  0  0  0  0  0  0  0
  -23.4350  -30.4710   21.6460 C   0  0  0  0  0  3  0  0  0  0  0  0
  -24.9470  -28.9300   20.2870 C   0  0  0  0  0  0  0  0  0  0  0  0
  -25.9560  -30.8720   21.5050 C   0  0  0  0  0  2  0  0  0  0  0  0
  -26.0770  -29.4930   20.8940 C   0  0  0  0  0  0  0  0  0  0  0  0
  -27.2940  -28.7820   20.9240 C   0  0  0  0  0  3  0  0  0  0  0  0
  -26.2230  -26.9310   19.7540 C   0  0  0  0  0  3  0  0  0  0  0  0
  -25.0130  -27.6480   19.7130 C   0  0  0  0  0  3  0  0  0  0  0  0
  -23.6890  -29.7680   20.2840 C   0  0  0  0  0  2  0  0  0  0  0  0
  -24.6750  -31.0990   22.2110 N   0  0  0  0  0  0  0  0  0  0  0  0
  -23.4850  -32.1790   23.8090 O   0  0  0  0  0  0  0  0  0  0  0  0
  -22.7690  -29.4600   22.6050 C   0  0  0  0  0  0  0  0  0  0  0  0
  -21.4470  -29.2810   22.4600 N   0  0  0  0  0  0  0  0  0  0  0  0
  -23.4410  -28.8360   23.4320 O   0  0  0  0  0  0  0  0  0  0  0  0
  -20.9690  -29.8350   21.7630 H   0  0  0  0  0  0  0  0  0  0  0  0
  -18.0530  -28.1470   22.9560 C   0  0  0  0  0  0  0  0  0  0  0  0
  -20.6160  -28.3510   23.2220 C   0  0  0  0  0  3  0  0  0  0  0  0
  -20.6900  -26.9260   22.6310 C   0  0  0  0  0  2  0  0  0  0  0  0
  -19.5780  -26.6350   21.6170 C   0  0  0  0  0  2  0  0  0  0  0  0
  -18.2010  -26.8010   22.2670 C   0  0  0  0  0  2  0  0  0  0  0  0
  -19.1880  -28.8830   23.3900 C   0  0  0  0  0  0  0  0  0  0  0  0
  -18.9970  -30.1450   23.9930 C   0  0  0  0  0  3  0  0  0  0  0  0
  -17.7020  -30.6710   24.1670 C   0  0  0  0  0  3  0  0  0  0  0  0
  -16.5830  -29.9330   23.7480 C   0  0  0  0  0  3  0  0  0  0  0  0
  -16.7580  -28.6740   23.1490 C   0  0  0  0  0  3  0  0  0  0  0  0
  -25.8470  -32.5620   23.9460 C   0  0  0  0  0  3  0  0  0  0  0  0
  -26.3370  -31.8140   25.2460 C   0  0  1  0  0  0  0  0  0  0  0  0
  -25.2150  -31.5650   26.2810 C   0  0  0  0  0  1  0  0  0  0  0  0
  -26.9580  -30.4440   24.8840 C   0  0  0  0  0  1  0  0  0  0  0  0
  -27.4500  -32.6360   25.9380 C   0  0  0  0  0  1  0  0  0  0  0  0
  -25.5180  -33.9610   24.2440 N   0  0  0  0  0  0  0  0  0  0  0  0
  -25.8540  -35.0020   23.4690 C   0  0  0  0  0  0  0  0  0  0  0  0
  -26.5440  -34.8840   22.4520 O   0  0  0  0  0  0  0  0  0  0  0  0
  -24.9090  -34.1270   25.0310 H   0  0  0  0  0  0  0  0  0  0  0  0
  -24.1120  -36.7660   23.0480 C   0  0  0  0  0  1  0  0  0  0  0  0
  -25.3450  -36.3940   23.8880 C   0  0  0  0  0  3  0  0  0  0  0  0
  -27.4500  -37.3270   24.7390 C   0  0  0  0  0  1  0  0  0  0  0  0
  -26.3670  -37.4560   23.7680 N   0  0  0  0  0  0  0  0  0  0  0  0
  -25.9460  -38.3740   23.8820 H   0  0  0  0  0  0  0  0  0  0  0  0
  2  4  1  0
  3  5  2  0
  4 19  1  0
  4  1  2  0
  5  1  1  0
  5 54  1  0
  6  2  2  0
  6  3  1  0
  7  6  1  0
  8 20  1  0
  9 14  1  0
 10 11  1  0
 10  9  1  0
 12 11  1  0
 12 27  1  0
 12 13  1  0
 14  8  1  0
 14 13  1  0
 15  8  2  0
 16 17  1  0
 18 21  1  0
 18 19  1  0
 19 52  1  1
 19 16  1  0
 20 17  1  0
 21 22  1  0
 21 20  1  0
 23 21  1  0
 24 25  2  0
 25 44  1  0
 26 25  1  0
 26 29  1  0
 27 28  1  0
 27 24  1  0
 28 26  2  0
 29 30  1  0
 30 31  2  0
 32 35  1  0
 32 31  1  0
 33 32  2  0
 34 33  1  0
 34 29  2  0
 35 36  1  0
 36 41  2  0
 36 37  1  0
 37 38  2  0
 38 39  1  0
 39 43  1  0
 40 39  2  0
 41 40  1  0
 42 41  1  0
 44 45  1  0
 45 48  1  0
 45 47  1  0
 46 44  2  0
 49 24  1  0
 49 50  1  0
 51 49  1  0
 52 53  1  0
 54 55  1  0
 56 54  1  0
 56 58  1  0
 58 57  1  0
 59 58  1  0
 60 71  2  0
 61 59  1  0
 61 66  1  0
 62 70  1  0
 62 72  1  0
 63 65  1  0
 64 70  1  0
 65 66  2  0
 65 64  1  0
 67 61  2  0
 68 67  1  0
 68 63  2  0
 69 63  1  0
 69 62  1  0
 70 60  1  0
 72 74  2  0
 73 72  1  0
 75 73  1  0
 76 85  2  0
 76 81  1  0
 77 73  1  0
 77 81  1  0
 78 77  1  0
 79 80  1  0
 79 78  1  0
 80 76  1  0
 81 82  2  0
 82 83  1  0
 84 83  2  0
 85 84  1  0
 86 60  1  0
 86 91  1  0
 86 87  1  0
 87 90  1  1
 87 88  1  0
 89 87  1  0
 91 94  1  0
 92 96  1  0
 92 91  1  0
 93 92  2  0
 96 95  1  0
 98 99  1  0
 98 96  1  0
 98 97  1  0
M  ISO  4   8 100  20 100  58 101  59 101
M  END
>  <TORSDO>  (31) 
F 20

>  <SCORE>  (31) 
-14.472

>  <name>  (31) 
30

>  <ligand_id>  (31) 
30

>  <original_smiles>  (31) 
[H]OC1(c2c([H])c(F)c([H])c(N([H])C([H])([H])C([H])(Oc3c([H])c([H])c4c(c3[H])C([H])([H])N(C(=O)C([H])(N([H])C(=O)C([H])(N([H])C([H])([H])[H])C([H])([H])[H])C(C([H])([H])[H])(C([H])([H])[H])C([H])([H])[H])C([H])(C(=O)N([H])C3([H])c5c([H])c([H])c([H])c([H])c5C([H])([H])C([H])([H])C3([H])[H])C4([H])[H])C([H])([H])[H])c2[H])C([H])([H])C([H])([H])N(C(=O)N2C([H])([H])C([H])([H])C([H])([H])C([H])(n3nc(-c4c([H])c([H])c(Oc5c([H])c([H])c(F)c([H])c5F)c([H])c4[H])c(C(=O)N([H])[H])c3N([H])[H])C2([H])[H])[N+]([H])([H])C1([H])[H]

>  <smiles>  (31) 
[H]OC1(c2c([H])c(F)c([H])c(N([H])C([H])([H])C([H])(Oc3c([H])c([H])c4c(c3[H])C([H])([H])N(C(=O)C([H])(N([H])C(=O)C([H])(N([H])C([H])([H])[H])C([H])([H])[H])C(C([H])([H])[H])(C([H])([H])[H])C([H])([H])[H])C([H])(C(=O)N([H])C3([H])c5c([H])c([H])c([H])c([H])c5C([H])([H])C([H])([H])C3([H])[H])C4([H])[H])C([H])([H])[H])c2[H])C([H])([H])C([H])([H])N(C(=O)N2C([H])([H])C([H])([H])C([H])([H])C([H])(n3nc(-c4c([H])c([H])c(Oc5c([H])c([H])c(F)c([H])c5F)c([H])c4[H])c(C(=O)N([H])[H])c3N([H])[H])C2([H])[H])[N+]([H])([H])C1([H])[H]

$$$$
31:0:0
     RDKit          3D

 95103  0  0  1  0  0  0  0  0999 V2000
  -28.5750  -21.1380   20.8950 C   0  0  0  0  0  0  0  0  0  0  0  0
  -28.8390  -23.7700   20.1290 C   0  0  0  0  0  0  0  0  0  0  0  0
  -28.4010  -22.5320   20.8440 N   0  0  0  0  0  0  0  0  0  0  0  0
  -27.7610  -20.6090   21.8180 N   0  0  0  0  0  4  0  0  0  0  0  0
  -29.6710  -23.7350   19.2170 O   0  0  0  0  0  0  0  0  0  0  0  0
  -27.7360  -22.7320   21.5670 H   0  0  0  0  0  0  0  0  0  0  0  0
  -27.8060  -19.6150   21.9660 H   0  0  0  0  0  0  0  0  0  0  0  0
  -27.0610  -21.1130   22.3370 H   0  0  0  0  0  0  0  0  0  0  0  0
  -29.3680  -18.6220   20.5610 C   0  0  0  0  0  3  0  0  0  0  0  0
  -30.2730  -20.3540   19.1150 C   0  0  0  0  0  3  0  0  0  0  0  0
  -30.9310  -17.9800   18.8410 C   0  0  0  0  0  3  0  0  0  0  0  0
  -29.4180  -20.0450   20.1910 C   0  0  0  0  0  0  0  0  0  0  0  0
  -30.1140  -17.5510   19.9160 C   0  0  0  0  0  0  0  0  0  0  0  0
  -31.0050  -19.3410   18.4530 C   0  0  0  0  0  0  0  0  0  0  0  0
  -31.7930  -19.6810   17.4040 F   0  0  0  0  0  0  0  0  0  0  0  0
  -30.7610  -14.9820   19.9190 C   0  0  0  0  0  0  0  0  0  0  0  0
  -30.5420  -12.6930   18.9320 C   0  0  0  0  0  2  0  0  0  0  0  0
  -29.5420  -12.7760   17.7550 C   0  0  0  0  0  2  0  0  0  0  0  0
  -28.1000  -12.5840   18.2570 C   0  0  0  0  0  2  0  0  0  0  0  0
  -27.7870  -13.4570   19.5020 C   0  0  0  0  0  3  0  0  0  0  0  0
  -28.9010  -13.3630   20.5660 C   0  0  0  0  0  2  0  0  0  0  0  0
  -30.1630  -13.7380   19.9150 N   0  0  0  0  0  0  0  0  0  0  0  0
  -31.9090  -15.0990   19.4810 O   0  0  0  0  0  0  0  0  0  0  0  0
  -29.9980  -16.0960   20.2750 N   0  0  0  0  0  0  0  0  0  0  0  0
  -29.1600  -15.8490   20.7800 H   0  0  0  0  0  0  0  0  0  0  0  0
  -25.4450  -14.0310   20.3730 C   0  0  0  0  0  0  0  0  0  0  0  0
  -24.4020  -13.2460   20.7870 C   0  0  0  0  0  0  0  0  0  0  0  0
  -24.8640  -11.8980   20.7040 C   0  0  0  0  0  0  0  0  0  0  0  0
  -26.4720  -13.1570   20.0610 N   0  0  0  0  0  0  0  0  0  0  0  0
  -26.1330  -11.8680   20.3210 N   0  0  0  0  0  0  0  0  0  0  0  0
  -24.1510  -10.6300   20.9090 C   0  0  0  0  0  0  0  0  0  0  0  0
  -24.5990   -9.6700   21.8450 C   0  0  0  0  0  3  0  0  0  0  0  0
  -23.8820   -8.4710   22.0380 C   0  0  0  0  0  3  0  0  0  0  0  0
  -22.7050   -8.2190   21.2950 C   0  0  0  0  0  0  0  0  0  0  0  0
  -22.2780   -9.1660   20.3470 C   0  0  0  0  0  3  0  0  0  0  0  0
  -22.9960  -10.3580   20.1510 C   0  0  0  0  0  3  0  0  0  0  0  0
  -21.9580   -7.0700   21.3970 O   0  0  0  0  0  0  0  0  0  0  0  0
  -21.8790   -6.3650   22.5710 C   0  0  0  0  0  0  0  0  0  0  0  0
  -21.3780   -6.9460   23.7570 C   0  0  0  0  0  3  0  0  0  0  0  0
  -21.2490   -6.1640   24.9240 C   0  0  0  0  0  3  0  0  0  0  0  0
  -21.6100   -4.8040   24.9060 C   0  0  0  0  0  0  0  0  0  0  0  0
  -22.1050   -4.2240   23.7250 C   0  0  0  0  0  3  0  0  0  0  0  0
  -22.2370   -5.0010   22.5610 C   0  0  0  0  0  0  0  0  0  0  0  0
  -22.6930   -4.4320   21.4200 F   0  0  0  0  0  0  0  0  0  0  0  0
  -21.4800   -4.0530   26.0240 F   0  0  0  0  0  0  0  0  0  0  0  0
  -23.0220  -13.7140   21.1470 C   0  0  0  0  0  0  0  0  0  0  0  0
  -22.3510  -13.0010   22.0450 N   0  0  0  0  0  0  0  0  0  0  0  0
  -22.5520  -14.7460   20.6690 O   0  0  0  0  0  0  0  0  0  0  0  0
  -22.7470  -12.1640   22.4460 H   0  0  0  0  0  0  0  0  0  0  0  0
  -21.4290  -13.2970   22.3340 H   0  0  0  0  0  0  0  0  0  0  0  0
  -25.5990  -15.4050   20.2140 N   0  0  0  0  0  0  0  0  0  0  0  0
  -24.8360  -16.0540   20.3690 H   0  0  0  0  0  0  0  0  0  0  0  0
  -26.4200  -15.8520   19.8250 H   0  0  0  0  0  0  0  0  0  0  0  0
  -28.1160  -25.1350   20.6290 C   0  0  0  0  0  2  0  0  0  0  0  0
  -28.4230  -26.5030   20.0470 O   0  0  0  0  0  0  0  0  0  0  0  0
  -24.6670  -31.9220   23.1620 C   0  0  0  0  0  0  0  0  0  0  0  0
  -27.3470  -27.4270   20.0180 C   0  0  0  0  0  0  0  0  0  0  0  0
  -23.4910  -30.5440   21.4870 C   0  0  0  0  0  3  0  0  0  0  0  0
  -24.9730  -29.0510   20.0270 C   0  0  0  0  0  0  0  0  0  0  0  0
  -26.0330  -30.8940   21.3250 C   0  0  0  0  0  2  0  0  0  0  0  0
  -26.1370  -29.5300   20.6410 C   0  0  0  0  0  0  0  0  0  0  0  0
  -27.3300  -28.7310   20.6270 C   0  0  0  0  0  3  0  0  0  0  0  0
  -26.1650  -27.0320   19.3580 C   0  0  0  0  0  3  0  0  0  0  0  0
  -24.9920  -27.8100   19.3740 C   0  0  0  0  0  3  0  0  0  0  0  0
  -23.7220  -29.9070   20.0910 C   0  0  0  0  0  2  0  0  0  0  0  0
  -24.7490  -31.1380   22.0480 N   0  0  0  0  0  0  0  0  0  0  0  0
  -23.5760  -32.1690   23.6970 O   0  0  0  0  0  0  0  0  0  0  0  0
  -22.8400  -29.4950   22.4200 C   0  0  0  0  0  0  0  0  0  0  0  0
  -21.5160  -29.3050   22.2900 N   0  0  0  0  0  0  0  0  0  0  0  0
  -23.5260  -28.8560   23.2210 O   0  0  0  0  0  0  0  0  0  0  0  0
  -21.0160  -29.8720   21.6180 H   0  0  0  0  0  0  0  0  0  0  0  0
  -18.1560  -28.0510   22.7690 C   0  0  0  0  0  0  0  0  0  0  0  0
  -20.7120  -28.3360   23.0380 C   0  0  0  0  0  3  0  0  0  0  0  0
  -20.8290  -26.9220   22.4210 C   0  0  0  0  0  2  0  0  0  0  0  0
  -19.7300  -26.6160   21.4010 C   0  0  0  0  0  2  0  0  0  0  0  0
  -18.3480  -26.7240   22.0530 C   0  0  0  0  0  2  0  0  0  0  0  0
  -19.2670  -28.8150   23.2170 C   0  0  0  0  0  0  0  0  0  0  0  0
  -19.0330  -30.0570   23.8460 C   0  0  0  0  0  3  0  0  0  0  0  0
  -17.7220  -30.5360   24.0290 C   0  0  0  0  0  3  0  0  0  0  0  0
  -16.6270  -29.7680   23.5980 C   0  0  0  0  0  3  0  0  0  0  0  0
  -16.8440  -28.5260   22.9750 C   0  0  0  0  0  3  0  0  0  0  0  0
  -25.9360  -32.5620   23.8040 C   0  0  0  0  0  3  0  0  0  0  0  0
  -25.6080  -33.9550   24.1440 N   0  0  0  0  0  0  0  0  0  0  0  0
  -25.9360  -35.0180   23.4000 C   0  0  0  0  0  0  0  0  0  0  0  0
  -26.6150  -34.9330   22.3720 O   0  0  0  0  0  0  0  0  0  0  0  0
  -25.0050  -34.0960   24.9400 H   0  0  0  0  0  0  0  0  0  0  0  0
  -24.1950  -36.7990   23.0510 C   0  0  0  0  0  1  0  0  0  0  0  0
  -25.4330  -36.3980   23.8670 C   0  0  0  0  0  3  0  0  0  0  0  0
  -27.5500  -37.2960   24.7290 C   0  0  0  0  0  1  0  0  0  0  0  0
  -26.4570  -37.4610   23.7740 N   0  0  0  0  0  0  0  0  0  0  0  0
  -26.0400  -38.3760   23.9210 H   0  0  0  0  0  0  0  0  0  0  0  0
  -26.4440  -31.7870   25.0810 C   0  0  1  0  0  0  0  0  0  0  0  0
  -25.3380  -31.5330   26.1320 C   0  0  0  0  0  1  0  0  0  0  0  0
  -27.0470  -30.4160   24.6930 C   0  0  0  0  0  1  0  0  0  0  0  0
  -27.5790  -32.5860   25.7630 C   0  0  0  0  0  1  0  0  0  0  0  0
  1  4  2  0
  2 54  1  0
  2  3  1  0
  3  1  1  0
  3  6  1  0
  4  7  1  0
  4  8  1  0
  5  2  2  0
 10 12  2  0
 11 13  1  0
 12  9  1  0
 12  1  1  0
 13 24  1  0
 13  9  2  0
 14 11  2  0
 14 10  1  0
 15 14  1  0
 16 24  1  0
 17 22  1  0
 18 19  1  0
 18 17  1  0
 20 19  1  0
 20 29  1  0
 20 21  1  0
 22 16  1  0
 22 21  1  0
 23 16  2  0
 24 25  1  0
 26 27  2  0
 27 46  1  0
 28 27  1  0
 28 31  1  0
 29 30  1  0
 29 26  1  0
 30 28  2  0
 31 32  1  0
 32 33  2  0
 34 37  1  0
 34 33  1  0
 35 34  2  0
 36 35  1  0
 36 31  2  0
 37 38  1  0
 38 39  1  0
 39 40  2  0
 41 40  1  0
 41 45  1  0
 42 41  2  0
 43 38  2  0
 43 42  1  0
 44 43  1  0
 46 47  1  0
 47 50  1  0
 47 49  1  0
 48 46  2  0
 51 52  1  0
 51 26  1  0
 53 51  1  0
 55 54  1  0
 56 67  2  0
 57 55  1  0
 57 62  1  0
 58 66  1  0
 58 68  1  0
 59 65  1  0
 59 61  1  0
 60 66  1  0
 61 60  1  0
 62 61  2  0
 63 64  1  0
 63 57  2  0
 64 59  2  0
 65 58  1  0
 66 56  1  0
 68 70  2  0
 69 68  1  0
 71 69  1  0
 72 81  2  0
 72 77  1  0
 73 69  1  0
 73 77  1  0
 74 73  1  0
 75 76  1  0
 75 74  1  0
 76 72  1  0
 77 78  2  0
 78 79  1  0
 80 79  2  0
 81 80  1  0
 82 56  1  0
 82 83  1  0
 82 92  1  0
 83 86  1  0
 84 88  1  0
 84 83  1  0
 85 84  2  0
 88 87  1  0
 90 88  1  0
 90 91  1  0
 90 89  1  0
 92 95  1  1
 92 93  1  0
 94 92  1  0
M  ISO  4  16 100  24 100  54 101  55 101
M  END
>  <TORSDO>  (32) 
F 18

>  <SCORE>  (32) 
-13.590

>  <name>  (32) 
31

>  <ligand_id>  (32) 
31

>  <original_smiles>  (32) 
[H]c1c([H])c([H])c2c(c1[H])C([H])([H])C([H])([H])C([H])([H])C2([H])N([H])C(=O)C1([H])N(C(=O)C([H])(N([H])C(=O)C([H])(N([H])C([H])([H])[H])C([H])([H])[H])C(C([H])([H])[H])(C([H])([H])[H])C([H])([H])[H])C([H])([H])c2c([H])c(OC([H])([H])C(=O)N([H])C(c3c([H])c(F)c([H])c(N([H])C(=O)N4C([H])([H])C([H])([H])C([H])([H])C([H])(n5nc(-c6c([H])c([H])c(Oc7c([H])c([H])c(F)c([H])c7F)c([H])c6[H])c(C(=O)N([H])[H])c5N([H])[H])C4([H])[H])c3[H])=[N+]([H])[H])c([H])c([H])c2C1([H])[H]

>  <smiles>  (32) 
[H]c1c([H])c([H])c2c(c1[H])C([H])([H])C([H])([H])C([H])([H])C2([H])N([H])C(=O)C1([H])N(C(=O)C([H])(N([H])C(=O)C([H])(N([H])C([H])([H])[H])C([H])([H])[H])C(C([H])([H])[H])(C([H])([H])[H])C([H])([H])[H])C([H])([H])c2c([H])c(OC([H])([H])C(=O)N([H])C(c3c([H])c(F)c([H])c(N([H])C(=O)N4C([H])([H])C([H])([H])C([H])([H])C([H])(n5nc(-c6c([H])c([H])c(Oc7c([H])c([H])c(F)c([H])c7F)c([H])c6[H])c(C(=O)N([H])[H])c5N([H])[H])C4([H])[H])c3[H])=[N+]([H])[H])c([H])c([H])c2C1([H])[H]

$$$$
32:0:0
     RDKit          3D

 93 97  0  0  1  0  0  0  0  0999 V2000
  -19.3020  -26.4430   23.5840 C   0  0  0  0  0  2  0  0  0  0  0  0
  -20.8600  -25.2010   23.0020 C   0  0  0  0  0  1  0  0  0  0  0  0
  -19.9850  -29.4070   22.3080 C   0  0  0  0  0  1  0  0  0  0  0  0
  -22.0990  -28.2530   21.1290 C   0  0  0  0  0  3  0  0  0  0  0  0
  -22.6010  -25.4660   22.0610 C   0  0  0  0  0  2  0  0  0  0  0  0
  -21.6170  -29.5010   21.6870 N   0  0  1  0  0  4  0  0  0  0  0  0
  -21.8730  -29.2180   22.6250 H   0  0  0  0  0  0  0  0  0  0  0  0
  -26.6740  -23.2140   21.2170 C   0  0  0  0  0  2  0  0  0  0  0  0
  -24.9590  -23.5490   19.9190 C   0  0  0  0  0  2  0  0  0  0  0  0
  -24.7710  -24.1140   21.2340 C   0  0  0  0  0  1  0  0  0  0  0  0
  -27.9970  -22.2540   20.2760 C   0  0  0  0  0  2  0  0  0  0  0  0
  -26.5130  -22.5490   19.1420 S   0  0  0  0  0  3  0  0  0  0  0  0
  -31.4630  -20.2250   19.4530 C   0  0  0  0  0  2  0  0  0  0  0  0
  -34.3120  -19.3340   18.3870 C   0  0  0  0  0  2  0  0  0  0  0  0
  -35.4900  -20.0190   17.4710 C   0  0  0  0  0  2  0  0  0  0  0  0
  -35.0260  -20.3480   16.0550 C   0  0  0  0  0  2  0  0  0  0  0  0
  -33.5320  -20.5400   16.2550 C   0  0  0  0  0  3  0  0  0  0  0  0
  -32.7190  -19.4060   16.9300 C   0  0  0  0  0  2  0  0  0  0  0  0
  -32.6800  -19.8170   18.3620 N   0  0  0  0  0  0  0  0  0  0  0  0
  -32.2770  -19.5220   20.2360 O   0  0  0  0  0  1  0  0  0  0  0  0
  -29.7330  -21.2640   19.7740 N   0  0  0  0  0  1  0  0  0  0  0  0
  -29.8530  -20.9170   20.7170 H   0  0  0  0  0  0  0  0  0  0  0  0
  -31.7490  -21.8960   15.3430 C   0  0  0  0  0  0  0  0  0  0  0  0
  -31.2260  -22.0130   14.1060 C   0  0  0  0  0  0  0  0  0  0  0  0
  -31.9740  -21.1220   13.2720 C   0  0  0  0  0  0  0  0  0  0  0  0
  -32.7600  -20.9820   15.1900 N   0  0  0  0  0  0  0  0  0  0  0  0
  -32.8660  -20.4380   13.9680 N   0  0  0  0  0  0  0  0  0  0  0  0
  -31.9460  -20.9470   11.8320 C   0  0  0  0  0  0  0  0  0  0  0  0
  -32.1240  -19.6810   11.2370 C   0  0  0  0  0  3  0  0  0  0  0  0
  -32.0680  -19.5510    9.8350 C   0  0  0  0  0  3  0  0  0  0  0  0
  -31.8290  -20.6890    9.0290 C   0  0  0  0  0  0  0  0  0  0  0  0
  -31.6840  -21.9500    9.6320 C   0  0  0  0  0  3  0  0  0  0  0  0
  -31.7470  -22.0810   11.0250 C   0  0  0  0  0  3  0  0  0  0  0  0
  -31.7720  -20.6640    7.6590 O   0  0  0  0  0  0  0  0  0  0  0  0
  -31.8070  -19.4830    6.9670 C   0  0  0  0  0  0  0  0  0  0  0  0
  -30.7370  -18.5620    7.0070 C   0  0  0  0  0  3  0  0  0  0  0  0
  -30.7880  -17.3930    6.2210 C   0  0  0  0  0  3  0  0  0  0  0  0
  -31.8990  -17.1510    5.3920 C   0  0  0  0  0  0  0  0  0  0  0  0
  -32.9630  -18.0690    5.3480 C   0  0  0  0  0  3  0  0  0  0  0  0
  -32.9150  -19.2330    6.1330 C   0  0  0  0  0  0  0  0  0  0  0  0
  -33.9320  -20.1280    6.0760 F   0  0  0  0  0  0  0  0  0  0  0  0
  -31.9440  -16.0340    4.6290 F   0  0  0  0  0  0  0  0  0  0  0  0
  -30.1700  -22.9920   13.7260 C   0  0  0  0  0  0  0  0  0  0  0  0
  -29.4460  -22.7110   12.6530 N   0  0  0  0  0  0  0  0  0  0  0  0
  -29.9460  -23.9800   14.4230 O   0  0  0  0  0  0  0  0  0  0  0  0
  -29.6230  -21.8830   12.1060 H   0  0  0  0  0  0  0  0  0  0  0  0
  -28.7020  -23.3350   12.3730 H   0  0  0  0  0  0  0  0  0  0  0  0
  -31.4670  -22.4950   16.5720 N   0  0  0  0  0  0  0  0  0  0  0  0
  -30.8040  -23.2610   16.6280 H   0  0  0  0  0  0  0  0  0  0  0  0
  -32.1260  -22.4850   17.3380 H   0  0  0  0  0  0  0  0  0  0  0  0
  -23.0260  -30.3530   21.6880 C   0  0  0  0  0  2  0  0  0  0  0  0
  -24.7840  -29.8250   21.1860 C   0  0  0  0  0  2  0  0  0  0  0  0
  -26.2990  -29.0170   21.7040 O   0  0  0  0  0  0  0  0  0  0  0  0
  -24.9880  -28.1660   27.0390 C   0  0  0  0  0  0  0  0  0  0  0  0
  -27.6260  -29.4190   22.0460 C   0  0  0  0  0  3  0  0  0  0  0  0
  -24.2580  -29.2850   25.0050 C   0  0  0  0  0  3  0  0  0  0  0  0
  -26.1100  -30.6430   23.7280 C   0  0  0  0  0  3  0  0  0  0  0  0
  -26.6990  -29.3620   25.7070 C   0  0  0  0  0  2  0  0  0  0  0  0
  -26.9580  -29.7090   24.2700 C   0  0  0  0  0  3  0  0  0  0  0  0
  -27.9290  -29.1650   23.4170 C   0  0  0  0  0  2  0  0  0  0  0  0
  -27.5290  -30.7340   21.7300 C   0  0  0  0  0  2  0  0  0  0  0  0
  -26.5820  -31.3490   22.5770 C   0  0  0  0  0  2  0  0  0  0  0  0
  -24.7550  -30.6900   24.3810 C   0  0  0  0  0  2  0  0  0  0  0  0
  -25.3030  -28.9370   25.9810 N   0  0  0  0  0  0  0  0  0  0  0  0
  -23.8260  -27.7860   27.2470 O   0  0  0  0  0  0  0  0  0  0  0  0
  -24.1120  -27.9660   24.1290 C   0  0  0  0  0  0  0  0  0  0  0  0
  -23.3430  -27.8680   23.0820 N   0  0  0  0  0  0  0  0  0  0  0  0
  -24.6820  -26.9270   24.3820 O   0  0  0  0  0  0  0  0  0  0  0  0
  -22.4790  -28.3920   23.1310 H   0  0  0  0  0  0  0  0  0  0  0  0
  -21.0910  -27.2070   19.8730 C   0  0  0  0  0  3  0  0  0  0  0  0
  -23.6010  -26.9840   21.8700 C   0  0  0  0  0  3  0  0  0  0  0  0
  -24.9060  -27.4740   20.4110 C   0  0  0  0  0 15  0  0  0  0  0  0
  -23.9730  -27.7090   18.3210 C   0  0  0  0  0 15  0  0  0  0  0  0
  -21.9930  -27.2680   18.3830 C   0  0  0  0  0  1  0  0  0  0  0  0
  -22.0020  -26.8540   21.5890 C   0  0  2  0  0  0  0  0  0  0  0  0
  -20.9090  -26.7810   22.9210 C   0  0  0  0  0  3  0  0  0  0  0  0
  -19.3400  -26.9910   22.7610 C   0  0  0  0  0  0  0  0  0  0  0  0
  -18.6500  -27.2780   21.4120 C   0  0  0  0  0  3  0  0  0  0  0  0
  -19.4170  -27.3860   20.0270 C   0  0  0  0  0  3  0  0  0  0  0  0
  -26.1050  -27.7540   28.0250 C   0  0  0  0  0  3  0  0  0  0  0  0
  -26.2740  -26.1930   28.1450 C   0  0  1  0  0  0  0  0  0  0  0  0
  -24.9660  -25.4570   28.5060 C   0  0  0  0  0  1  0  0  0  0  0  0
  -26.8070  -25.5550   26.8400 C   0  0  0  0  0  1  0  0  0  0  0  0
  -27.3350  -25.8900   29.2250 C   0  0  0  0  0  1  0  0  0  0  0  0
  -25.7610  -28.3660   29.3090 N   0  0  0  0  0  0  0  0  0  0  0  0
  -26.4590  -29.3570   29.8770 C   0  0  0  0  0  0  0  0  0  0  0  0
  -27.5120  -29.7950   29.4050 O   0  0  0  0  0  0  0  0  0  0  0  0
  -24.8820  -28.0950   29.7250 H   0  0  0  0  0  0  0  0  0  0  0  0
  -25.3940  -31.3730   30.9350 C   0  0  0  0  0  1  0  0  0  0  0  0
  -25.9030  -29.9450   31.1850 C   0  0  0  0  0  3  0  0  0  0  0  0
  -27.2290  -28.6050   32.7550 C   0  0  0  0  0  1  0  0  0  0  0  0
  -26.8880  -29.9460   32.2870 N   0  0  0  0  0  0  0  0  0  0  0  0
  -26.5410  -30.4780   33.0800 H   0  0  0  0  0  0  0  0  0  0  0  0
  4 75  1  0
  4  6  1  0
  6 51  1  0
  6  3  1  0
  6  7  1  6
  9 10  1  0
 11  8  1  0
 12  9  1  0
 12 11  1  0
 12  8  1  0
 13 20  1  0
 15 14  1  0
 16 17  1  0
 16 15  1  0
 17 26  1  0
 17 18  1  0
 18 19  1  0
 19 14  1  0
 19 13  1  0
 21 22  1  0
 23 48  1  0
 24 23  2  0
 25 27  2  0
 25 24  1  0
 26 23  1  0
 27 26  1  0
 28 25  1  0
 29 28  1  0
 30 29  2  0
 31 32  2  0
 31 30  1  0
 32 33  1  0
 33 28  2  0
 34 31  1  0
 35 36  1  0
 35 34  1  0
 37 36  2  0
 38 37  1  0
 39 38  2  0
 39 40  1  0
 40 35  2  0
 41 40  1  0
 42 38  1  0
 43 24  1  0
 43 45  2  0
 44 43  1  0
 46 44  1  0
 47 44  1  0
 48 49  1  0
 48 50  1  0
 52 51  1  0
 52 53  1  0
 53 55  1  0
 54 65  2  0
 55 61  1  0
 55 60  1  0
 56 63  1  0
 56 64  1  0
 57 62  1  0
 57 59  1  0
 57 63  1  0
 58 64  1  0
 59 60  1  0
 59 58  1  0
 61 62  1  0
 64 54  1  0
 66 68  2  0
 66 56  1  0
 67 69  1  0
 67 66  1  0
 70 74  1  0
 70 79  1  0
 70  4  1  0
 71  5  1  0
 71 67  1  0
 75 71  1  0
 75  5  1  6
 75 76  1  0
 76  2  1  0
 77 76  1  0
 77  1  2  0
 78 77  1  0
 79 78  2  0
 80 54  1  0
 80 81  1  0
 80 85  1  0
 81 82  1  1
 81 84  1  0
 83 81  1  0
 85 88  1  0
 85 86  1  0
 86 90  1  0
 87 86  2  0
 90 89  1  0
 90 92  1  0
 92 91  1  0
 92 93  1  0
M  ISO  4  13 100  21 100  52 101  53 101
M  END
>  <TORSDO>  (33) 
F 19

>  <SCORE>  (33) 
-1.135

>  <name>  (33) 
32

>  <ligand_id>  (33) 
32

>  <original_smiles>  (33) 
[H]c1sc(N([H])C(=O)N2C([H])([H])C([H])([H])C([H])([H])C([H])(n3nc(-c4c([H])c([H])c(Oc5c([H])c([H])c(F)c([H])c5F)c([H])c4[H])c(C(=O)N([H])[H])c3N([H])[H])C2([H])[H])c([H])c1C1([H])C([H])([H])C([H])([H])C([H])([H])[N+]([H])(C([H])([H])C([H])([H])Oc2c([H])c([H])c3c(c2[H])C([H])([H])N(C(=O)C([H])(N([H])C(=O)C([H])(N([H])C([H])([H])[H])C([H])([H])[H])C(C([H])([H])[H])(C([H])([H])[H])C([H])([H])[H])C([H])(C(=O)N([H])C2([H])c4c([H])c([H])c([H])c([H])c4C([H])([H])C([H])([H])C2([H])[H])C3([H])[H])C1([H])[H]

>  <smiles>  (33) 
[H]c1sc(N([H])C(=O)N2C([H])([H])C([H])([H])C([H])([H])C([H])(n3nc(-c4c([H])c([H])c(Oc5c([H])c([H])c(F)c([H])c5F)c([H])c4[H])c(C(=O)N([H])[H])c3N([H])[H])C2([H])[H])c([H])c1C1([H])C([H])([H])C([H])([H])C([H])([H])[N+]([H])(C([H])([H])C([H])([H])Oc2c([H])c([H])c3c(c2[H])C([H])([H])N(C(=O)C([H])(N([H])C(=O)C([H])(N([H])C([H])([H])[H])C([H])([H])[H])C(C([H])([H])[H])(C([H])([H])[H])C([H])([H])[H])C([H])(C(=O)N([H])C2([H])c4c([H])c([H])c([H])c([H])c4C([H])([H])C([H])([H])C2([H])[H])C3([H])[H])C1([H])[H]

$$$$
33:0:0
     RDKit          3D

 94103  0  0  1  0  0  0  0  0999 V2000
  -29.4650  -18.2160   20.9060 C   0  0  0  0  0  3  0  0  0  0  0  0
  -29.4470  -19.3800   20.0240 C   0  0  0  0  0  0  0  0  0  0  0  0
  -29.8570  -19.0090   18.7730 C   0  0  0  0  0  0  0  0  0  0  0  0
  -29.8900  -17.0130   20.3320 C   0  0  0  0  0  0  0  0  0  0  0  0
  -28.9770  -23.0950   18.8350 C   0  0  0  0  0  0  0  0  0  0  0  0
  -28.9930  -20.8610   20.2770 C   0  0  0  0  0  2  0  0  0  0  0  0
  -29.7710  -19.9090   17.5990 C   0  0  0  0  0  2  0  0  0  0  0  0
  -28.6110  -20.8910   17.8330 C   0  0  0  0  0  2  0  0  0  0  0  0
  -28.8480  -21.7260   19.0420 N   0  0  0  0  0  0  0  0  0  0  0  0
  -29.2650  -23.4920   17.6990 O   0  0  0  0  0  0  0  0  0  0  0  0
  -30.3150  -17.3270   18.6590 S   0  0  0  0  0  0  0  0  0  0  0  0
  -30.6310  -14.6480   20.4370 C   0  0  0  0  0  0  0  0  0  0  0  0
  -30.3900  -12.4210   19.3800 C   0  0  0  0  0  2  0  0  0  0  0  0
  -29.4680  -12.5810   18.1520 C   0  0  0  0  0  2  0  0  0  0  0  0
  -27.9880  -12.4360   18.5620 C   0  0  0  0  0  2  0  0  0  0  0  0
  -27.6260  -13.2920   19.8060 C   0  0  0  0  0  3  0  0  0  0  0  0
  -28.6700  -13.1220   20.9340 C   0  0  0  0  0  2  0  0  0  0  0  0
  -29.9920  -13.4380   20.3750 N   0  0  0  0  0  0  0  0  0  0  0  0
  -31.7860  -14.7820   20.0210 O   0  0  0  0  0  0  0  0  0  0  0  0
  -29.9010  -15.7280   20.8590 N   0  0  0  0  0  0  0  0  0  0  0  0
  -29.1020  -15.4950   21.4290 H   0  0  0  0  0  0  0  0  0  0  0  0
  -25.2240  -13.8990   20.4840 C   0  0  0  0  0  0  0  0  0  0  0  0
  -24.1500  -13.1290   20.8450 C   0  0  0  0  0  0  0  0  0  0  0  0
  -24.6120  -11.7770   20.8330 C   0  0  0  0  0  0  0  0  0  0  0  0
  -26.2700  -13.0160   20.2720 N   0  0  0  0  0  0  0  0  0  0  0  0
  -25.9070  -11.7350   20.5420 N   0  0  0  0  0  0  0  0  0  0  0  0
  -23.8820  -10.5170   21.0250 C   0  0  0  0  0  0  0  0  0  0  0  0
  -24.3050   -9.5530   21.9670 C   0  0  0  0  0  3  0  0  0  0  0  0
  -23.5750   -8.3590   22.1460 C   0  0  0  0  0  3  0  0  0  0  0  0
  -22.4070   -8.1180   21.3830 C   0  0  0  0  0  0  0  0  0  0  0  0
  -22.0040   -9.0710   20.4310 C   0  0  0  0  0  3  0  0  0  0  0  0
  -22.7340  -10.2570   20.2490 C   0  0  0  0  0  3  0  0  0  0  0  0
  -21.6510   -6.9750   21.4710 O   0  0  0  0  0  0  0  0  0  0  0  0
  -21.5920   -6.2380   22.6270 C   0  0  0  0  0  0  0  0  0  0  0  0
  -21.1600   -6.8000   23.8470 C   0  0  0  0  0  3  0  0  0  0  0  0
  -21.0480   -5.9890   24.9940 C   0  0  0  0  0  3  0  0  0  0  0  0
  -21.3580   -4.6180   24.9210 C   0  0  0  0  0  0  0  0  0  0  0  0
  -21.7840   -4.0560   23.7050 C   0  0  0  0  0  3  0  0  0  0  0  0
  -21.8970   -4.8630   22.5600 C   0  0  0  0  0  0  0  0  0  0  0  0
  -22.2870   -4.3130   21.3860 F   0  0  0  0  0  0  0  0  0  0  0  0
  -21.2440   -3.8370   26.0220 F   0  0  0  0  0  0  0  0  0  0  0  0
  -22.7510  -13.6110   21.0960 C   0  0  0  0  0  0  0  0  0  0  0  0
  -22.0090  -12.9190   21.9540 N   0  0  0  0  0  0  0  0  0  0  0  0
  -22.3220  -14.6340   20.5650 O   0  0  0  0  0  0  0  0  0  0  0  0
  -22.3680  -12.0900   22.4040 H   0  0  0  0  0  0  0  0  0  0  0  0
  -21.0690  -13.2230   22.1630 H   0  0  0  0  0  0  0  0  0  0  0  0
  -25.3930  -15.2670   20.2970 N   0  0  0  0  0  0  0  0  0  0  0  0
  -24.6250  -15.9250   20.3920 H   0  0  0  0  0  0  0  0  0  0  0  0
  -26.2480  -15.7020   19.9760 H   0  0  0  0  0  0  0  0  0  0  0  0
  -28.5110  -25.4250   19.4970 C   0  0  0  0  0  3  0  0  0  0  0  0
  -28.6980  -24.1150   19.8890 C   0  0  0  0  0  0  0  0  0  0  0  0
  -28.6400  -23.7820   21.1850 O   0  0  0  0  0  0  0  0  0  0  0  0
  -28.4620  -24.5800   21.6650 H   0  0  0  0  0  0  0  0  0  0  0  0
  -28.3340  -26.5480   20.3110 O   0  0  0  0  0  0  0  0  0  0  0  0
  -24.5890  -31.9180   23.2370 C   0  0  0  0  0  0  0  0  0  0  0  0
  -27.2160  -27.3760   20.1940 C   0  0  0  0  0  0  0  0  0  0  0  0
  -23.3880  -30.5150   21.5970 C   0  0  0  0  0  3  0  0  0  0  0  0
  -24.8400  -28.9610   20.1760 C   0  0  0  0  0  0  0  0  0  0  0  0
  -25.9230  -30.8400   21.4150 C   0  0  0  0  0  2  0  0  0  0  0  0
  -26.0040  -29.4610   20.7730 C   0  0  0  0  0  0  0  0  0  0  0  0
  -27.1910  -28.6780   20.7770 C   0  0  0  0  0  3  0  0  0  0  0  0
  -26.0280  -26.9130   19.5830 C   0  0  0  0  0  3  0  0  0  0  0  0
  -24.8520  -27.6910   19.5750 C   0  0  0  0  0  3  0  0  0  0  0  0
  -23.6020  -29.8320   20.2190 C   0  0  0  0  0  2  0  0  0  0  0  0
  -24.6520  -31.1070   22.1400 N   0  0  0  0  0  0  0  0  0  0  0  0
  -23.5060  -32.1990   23.7690 O   0  0  0  0  0  0  0  0  0  0  0  0
  -22.7220  -29.5030   22.5600 C   0  0  0  0  0  0  0  0  0  0  0  0
  -21.3960  -29.3340   22.4350 N   0  0  0  0  0  0  0  0  0  0  0  0
  -23.3990  -28.8730   23.3770 O   0  0  0  0  0  0  0  0  0  0  0  0
  -20.9100  -29.8940   21.7490 H   0  0  0  0  0  0  0  0  0  0  0  0
  -18.0090  -28.1740   22.9500 C   0  0  0  0  0  0  0  0  0  0  0  0
  -20.5710  -28.4040   23.2080 C   0  0  0  0  0  3  0  0  0  0  0  0
  -20.6540  -26.9730   22.6280 C   0  0  0  0  0  2  0  0  0  0  0  0
  -19.5440  -26.6650   21.6190 C   0  0  0  0  0  2  0  0  0  0  0  0
  -18.1670  -26.8250   22.2710 C   0  0  0  0  0  2  0  0  0  0  0  0
  -19.1380  -28.9230   23.3760 C   0  0  0  0  0  0  0  0  0  0  0  0
  -18.9360  -30.1870   23.9710 C   0  0  0  0  0  3  0  0  0  0  0  0
  -17.6380  -30.7030   24.1440 C   0  0  0  0  0  3  0  0  0  0  0  0
  -16.5230  -29.9510   23.7350 C   0  0  0  0  0  3  0  0  0  0  0  0
  -16.7090  -28.6880   23.1430 C   0  0  0  0  0  3  0  0  0  0  0  0
  -25.8730  -32.5500   23.8600 C   0  0  0  0  0  3  0  0  0  0  0  0
  -25.5660  -33.9500   24.1850 N   0  0  0  0  0  0  0  0  0  0  0  0
  -25.9040  -35.0000   23.4250 C   0  0  0  0  0  0  0  0  0  0  0  0
  -26.5770  -34.8920   22.3970 O   0  0  0  0  0  0  0  0  0  0  0  0
  -24.9680  -34.1080   24.9830 H   0  0  0  0  0  0  0  0  0  0  0  0
  -24.1850  -36.7990   23.0570 C   0  0  0  0  0  1  0  0  0  0  0  0
  -25.4190  -36.3910   23.8770 C   0  0  0  0  0  3  0  0  0  0  0  0
  -27.5510  -37.2690   24.7220 C   0  0  0  0  0  1  0  0  0  0  0  0
  -26.4560  -37.4400   23.7690 N   0  0  0  0  0  0  0  0  0  0  0  0
  -26.0530  -38.3620   23.9110 H   0  0  0  0  0  0  0  0  0  0  0  0
  -26.3850  -31.7820   25.1410 C   0  0  1  0  0  0  0  0  0  0  0  0
  -25.2890  -31.5510   26.2070 C   0  0  0  0  0  1  0  0  0  0  0  0
  -26.9650  -30.4010   24.7540 C   0  0  0  0  0  1  0  0  0  0  0  0
  -27.5360  -32.5750   25.8020 C   0  0  0  0  0  1  0  0  0  0  0  0
  2  6  1  0
  2  1  1  0
  3  2  2  0
  4 20  1  0
  4  1  2  0
  5  9  1  0
  5 51  1  0
  7  8  1  0
  7  3  1  0
  8  9  1  0
  9  6  1  0
 10  5  2  0
 11  3  1  0
 11  4  1  0
 12 20  1  0
 13 18  1  0
 14 15  1  0
 14 13  1  0
 16 15  1  0
 16 25  1  0
 16 17  1  0
 18 12  1  0
 18 17  1  0
 19 12  2  0
 20 21  1  0
 22 23  2  0
 23 42  1  0
 24 23  1  0
 24 27  1  0
 25 22  1  0
 25 26  1  0
 26 24  2  0
 27 28  1  0
 28 29  2  0
 30 33  1  0
 30 29  1  0
 31 30  2  0
 32 31  1  0
 32 27  2  0
 33 34  1  0
 34 35  1  0
 35 36  2  0
 37 36  1  0
 37 41  1  0
 38 37  2  0
 39 34  2  0
 39 38  1  0
 40 39  1  0
 42 43  1  0
 43 46  1  0
 43 45  1  0
 44 42  2  0
 47 48  1  0
 47 22  1  0
 49 47  1  0
 50 51  2  0
 50 54  1  0
 51 52  1  0
 52 53  1  0
 55 66  2  0
 56 54  1  0
 56 61  1  0
 57 65  1  0
 57 67  1  0
 58 64  1  0
 58 60  1  0
 59 65  1  0
 60 61  2  0
 60 59  1  0
 62 56  2  0
 63 62  1  0
 63 58  2  0
 64 57  1  0
 65 55  1  0
 67 69  2  0
 68 67  1  0
 70 68  1  0
 71 80  2  0
 71 76  1  0
 72 68  1  0
 72 76  1  0
 73 72  1  0
 74 75  1  0
 74 73  1  0
 75 71  1  0
 76 77  2  0
 77 78  1  0
 79 78  2  0
 80 79  1  0
 81 55  1  0
 81 82  1  0
 81 91  1  0
 82 85  1  0
 83 87  1  0
 83 82  1  0
 84 83  2  0
 87 86  1  0
 89 87  1  0
 89 90  1  0
 89 88  1  0
 91 94  1  1
 91 92  1  0
 93 91  1  0
M  ISO  4  12 100  20 100  50 101  54 101
M  END
>  <TORSDO>  (34) 
F 18

>  <SCORE>  (34) 
-14.958

>  <name>  (34) 
33

>  <ligand_id>  (34) 
33

>  <original_smiles>  (34) 
[H]OC(C(=O)N1C([H])([H])c2c(sc(N([H])C(=O)N3C([H])([H])C([H])([H])C([H])([H])C([H])(n4nc(-c5c([H])c([H])c(Oc6c([H])c([H])c(F)c([H])c6F)c([H])c5[H])c(C(=O)N([H])[H])c4N([H])[H])C3([H])[H])c2[H])C([H])([H])C1([H])[H])=C([H])Oc1c([H])c([H])c2c(c1[H])C([H])([H])N(C(=O)C([H])(N([H])C(=O)C([H])(N([H])C([H])([H])[H])C([H])([H])[H])C(C([H])([H])[H])(C([H])([H])[H])C([H])([H])[H])C([H])(C(=O)N([H])C1([H])c3c([H])c([H])c([H])c([H])c3C([H])([H])C([H])([H])C1([H])[H])C2([H])[H]

>  <smiles>  (34) 
[H]OC(C(=O)N1C([H])([H])c2c(sc(N([H])C(=O)N3C([H])([H])C([H])([H])C([H])([H])C([H])(n4nc(-c5c([H])c([H])c(Oc6c([H])c([H])c(F)c([H])c6F)c([H])c5[H])c(C(=O)N([H])[H])c4N([H])[H])C3([H])[H])c2[H])C([H])([H])C1([H])[H])=C([H])Oc1c([H])c([H])c2c(c1[H])C([H])([H])N(C(=O)C([H])(N([H])C(=O)C([H])(N([H])C([H])([H])[H])C([H])([H])[H])C(C([H])([H])[H])(C([H])([H])[H])C([H])([H])[H])C([H])(C(=O)N([H])C1([H])c3c([H])c([H])c([H])c([H])c3C([H])([H])C([H])([H])C1([H])[H])C2([H])[H]

$$$$
34:0:0
     RDKit          3D

 86 94  0  0  1  0  0  0  0  0999 V2000
  -29.0510  -22.9850   20.5100 C   0  0  0  0  0  2  0  0  0  0  0  0
  -29.7380  -20.4810   19.4830 C   0  0  0  0  0  2  0  0  0  0  0  0
  -29.4950  -19.3660   20.2460 C   0  0  0  0  0  0  0  0  0  0  0  0
  -28.8550  -21.4200   20.1250 N   0  0  0  0  0  0  0  0  0  0  0  0
  -28.7110  -20.2340   21.0870 O   0  0  0  0  0  0  0  0  0  0  0  0
  -29.9520  -17.7540   20.0980 C   0  0  0  0  0  3  0  0  0  0  0  0
  -29.7040  -16.4980   20.6330 N   0  0  0  0  0  2  0  0  0  0  0  0
  -30.4540  -15.2170   20.2870 C   0  0  0  0  0  0  0  0  0  0  0  0
  -30.3840  -12.7950   19.4030 C   0  0  0  0  0  2  0  0  0  0  0  0
  -29.4840  -12.6560   18.1500 C   0  0  0  0  0  2  0  0  0  0  0  0
  -28.0270  -12.3970   18.5650 C   0  0  0  0  0  2  0  0  0  0  0  0
  -27.5710  -13.3560   19.6940 C   0  0  0  0  0  3  0  0  0  0  0  0
  -28.6020  -13.4720   20.8370 C   0  0  0  0  0  2  0  0  0  0  0  0
  -29.8720  -13.9260   20.2540 N   0  0  0  0  0  0  0  0  0  0  0  0
  -31.6330  -15.2170   19.9130 O   0  0  0  0  0  0  0  0  0  0  0  0
  -25.1860  -13.9040   20.4170 C   0  0  0  0  0  0  0  0  0  0  0  0
  -24.1300  -13.1210   20.7900 C   0  0  0  0  0  0  0  0  0  0  0  0
  -24.6090  -11.7740   20.7740 C   0  0  0  0  0  0  0  0  0  0  0  0
  -26.2380  -13.0360   20.1870 N   0  0  0  0  0  0  0  0  0  0  0  0
  -25.9030  -11.7490   20.4720 N   0  0  0  0  0  0  0  0  0  0  0  0
  -23.8900  -10.5090   20.9730 C   0  0  0  0  0  0  0  0  0  0  0  0
  -24.3230   -9.5570   21.9210 C   0  0  0  0  0  3  0  0  0  0  0  0
  -23.6060   -8.3550   22.1090 C   0  0  0  0  0  3  0  0  0  0  0  0
  -22.4410   -8.0980   21.3480 C   0  0  0  0  0  0  0  0  0  0  0  0
  -22.0260   -9.0390   20.3900 C   0  0  0  0  0  3  0  0  0  0  0  0
  -22.7450  -10.2320   20.2010 C   0  0  0  0  0  3  0  0  0  0  0  0
  -21.6930   -6.9480   21.4440 O   0  0  0  0  0  0  0  0  0  0  0  0
  -21.6400   -6.2180   22.6050 C   0  0  0  0  0  0  0  0  0  0  0  0
  -21.1970   -6.7830   23.8210 C   0  0  0  0  0  3  0  0  0  0  0  0
  -21.0940   -5.9780   24.9740 C   0  0  0  0  0  3  0  0  0  0  0  0
  -21.4230   -4.6110   24.9120 C   0  0  0  0  0  0  0  0  0  0  0  0
  -21.8560   -4.0470   23.7010 C   0  0  0  0  0  3  0  0  0  0  0  0
  -21.9630   -4.8480   22.5500 C   0  0  0  0  0  0  0  0  0  0  0  0
  -22.3640   -4.2930   21.3790 F   0  0  0  0  0  0  0  0  0  0  0  0
  -21.3140   -3.8380   26.0170 F   0  0  0  0  0  0  0  0  0  0  0  0
  -22.7250  -13.5900   21.0410 C   0  0  0  0  0  0  0  0  0  0  0  0
  -21.9950  -12.9040   21.9140 N   0  0  0  0  0  0  0  0  0  0  0  0
  -22.2830  -14.6000   20.4970 O   0  0  0  0  0  0  0  0  0  0  0  0
  -22.3630  -12.0860   22.3750 H   0  0  0  0  0  0  0  0  0  0  0  0
  -21.0550  -13.2060   22.1250 H   0  0  0  0  0  0  0  0  0  0  0  0
  -25.3410  -15.2770   20.2320 N   0  0  0  0  0  0  0  0  0  0  0  0
  -24.5870  -15.9370   20.3770 H   0  0  0  0  0  0  0  0  0  0  0  0
  -26.2110  -15.7180   19.9580 H   0  0  0  0  0  0  0  0  0  0  0  0
  -26.8680  -23.8550   19.3540 C   0  0  0  0  0  1  0  0  0  0  0  0
  -27.9240  -24.3360   20.3620 C   0  0  0  0  0  3  0  0  0  0  0  0
  -28.1740  -25.9590   20.2800 O   0  0  0  0  0  0  0  0  0  0  0  0
  -24.6720  -31.9090   23.2440 C   0  0  0  0  0  0  0  0  0  0  0  0
  -27.1700  -27.0520   20.2230 C   0  0  0  0  0  0  0  0  0  0  0  0
  -23.4590  -30.5260   21.6090 C   0  0  0  0  0  3  0  0  0  0  0  0
  -24.8950  -28.9360   20.1700 C   0  0  0  0  0  0  0  0  0  0  0  0
  -26.0240  -30.7250   21.4600 C   0  0  0  0  0  2  0  0  0  0  0  0
  -26.0780  -29.3200   20.8130 C   0  0  0  0  0  0  0  0  0  0  0  0
  -27.2080  -28.3920   20.8350 C   0  0  0  0  0  3  0  0  0  0  0  0
  -25.9940  -26.8610   19.4650 C   0  0  0  0  0  3  0  0  0  0  0  0
  -24.8800  -27.7290   19.4650 C   0  0  0  0  0  3  0  0  0  0  0  0
  -23.6780  -29.8540   20.2260 C   0  0  0  0  0  2  0  0  0  0  0  0
  -24.7390  -31.0800   22.1570 N   0  0  0  0  0  0  0  0  0  0  0  0
  -23.5870  -32.2040   23.7700 O   0  0  0  0  0  0  0  0  0  0  0  0
  -22.7730  -29.5240   22.5700 C   0  0  0  0  0  0  0  0  0  0  0  0
  -21.4430  -29.3610   22.4520 N   0  0  0  0  0  0  0  0  0  0  0  0
  -23.4420  -28.8970   23.3970 O   0  0  0  0  0  0  0  0  0  0  0  0
  -20.9550  -29.9230   21.7680 H   0  0  0  0  0  0  0  0  0  0  0  0
  -18.0600  -28.1590   22.9650 C   0  0  0  0  0  0  0  0  0  0  0  0
  -20.6190  -28.4280   23.2280 C   0  0  0  0  0  3  0  0  0  0  0  0
  -20.7220  -26.9910   22.6650 C   0  0  0  0  0  2  0  0  0  0  0  0
  -19.6210  -26.6620   21.6520 C   0  0  0  0  0  2  0  0  0  0  0  0
  -18.2390  -26.8070   22.2930 C   0  0  0  0  0  2  0  0  0  0  0  0
  -19.1770  -28.9270   23.3900 C   0  0  0  0  0  0  0  0  0  0  0  0
  -18.9520  -30.1900   23.9800 C   0  0  0  0  0  3  0  0  0  0  0  0
  -17.6440  -30.6850   24.1470 C   0  0  0  0  0  3  0  0  0  0  0  0
  -16.5430  -29.9150   23.7340 C   0  0  0  0  0  3  0  0  0  0  0  0
  -16.7510  -28.6550   23.1480 C   0  0  0  0  0  3  0  0  0  0  0  0
  -25.9540  -32.5400   23.8670 C   0  0  0  0  0  3  0  0  0  0  0  0
  -26.4660  -31.7650   25.1440 C   0  0  1  0  0  0  0  0  0  0  0  0
  -25.3740  -31.5360   26.2160 C   0  0  0  0  0  1  0  0  0  0  0  0
  -27.0390  -30.3800   24.7630 C   0  0  0  0  0  1  0  0  0  0  0  0
  -27.6230  -32.5480   25.8040 C   0  0  0  0  0  1  0  0  0  0  0  0
  -25.6470  -33.9390   24.2100 N   0  0  0  0  0  0  0  0  0  0  0  0
  -25.9580  -34.9990   23.4510 C   0  0  0  0  0  0  0  0  0  0  0  0
  -26.5980  -34.9010   22.4010 O   0  0  0  0  0  0  0  0  0  0  0  0
  -25.0780  -34.0890   25.0290 H   0  0  0  0  0  0  0  0  0  0  0  0
  -24.2130  -36.7920   23.1720 C   0  0  0  0  0  1  0  0  0  0  0  0
  -25.4850  -36.3850   23.9320 C   0  0  0  0  0  3  0  0  0  0  0  0
  -27.6490  -37.2810   24.6810 C   0  0  0  0  0  1  0  0  0  0  0  0
  -26.5110  -37.4410   23.7790 N   0  0  0  0  0  0  0  0  0  0  0  0
  -26.1060  -38.3610   23.9380 H   0  0  0  0  0  0  0  0  0  0  0  0
  2  4  1  0
  2  3  1  0
  3  5  1  0
  4  1  1  0
  4  5  1  0
  6  3  2  0
  6  7  1  0
  8  7  1  0
  9 14  1  0
 10 11  1  0
 10  9  1  0
 12 11  1  0
 12 19  1  0
 12 13  1  0
 14  8  1  0
 14 13  1  0
 15  8  2  0
 16 17  2  0
 17 36  1  0
 18 17  1  0
 18 21  1  0
 19 16  1  0
 19 20  1  0
 20 18  2  0
 21 22  1  0
 22 23  2  0
 24 27  1  0
 24 23  1  0
 25 24  2  0
 26 25  1  0
 26 21  2  0
 27 28  1  0
 28 29  1  0
 29 30  2  0
 31 30  1  0
 31 35  1  0
 32 31  2  0
 33 28  2  0
 33 32  1  0
 34 33  1  0
 36 37  1  0
 37 40  1  0
 37 39  1  0
 38 36  2  0
 41 42  1  0
 41 16  1  0
 43 41  1  0
 45 44  1  0
 45  1  1  0
 46 45  1  0
 47 58  2  0
 48 46  1  0
 48 53  1  0
 49 57  1  0
 49 59  1  0
 50 56  1  0
 50 52  1  0
 51 57  1  0
 52 53  2  0
 52 51  1  0
 54 48  2  0
 55 54  1  0
 55 50  2  0
 56 49  1  0
 57 47  1  0
 59 61  2  0
 60 59  1  0
 62 60  1  0
 63 72  2  0
 63 68  1  0
 64 60  1  0
 64 68  1  0
 65 64  1  0
 66 67  1  0
 66 65  1  0
 67 63  1  0
 68 69  2  0
 69 70  1  0
 71 70  2  0
 72 71  1  0
 73 47  1  0
 73 78  1  0
 73 74  1  0
 74 77  1  1
 74 75  1  0
 76 74  1  0
 78 81  1  0
 79 83  1  0
 79 78  1  0
 80 79  2  0
 83 82  1  0
 85 83  1  0
 85 86  1  0
 85 84  1  0
M  ISO  4   7 100   8 100  45 101  46 101
M  END
>  <TORSDO>  (35) 
F 19

>  <SCORE>  (35) 
-14.586

>  <name>  (35) 
34

>  <ligand_id>  (35) 
34

>  <original_smiles>  (35) 
[H]C(=NC(=O)N1C([H])([H])C([H])([H])C([H])([H])C([H])(n2nc(-c3c([H])c([H])c(Oc4c([H])c([H])c(F)c([H])c4F)c([H])c3[H])c(C(=O)N([H])[H])c2N([H])[H])C1([H])[H])c1on(C([H])([H])C([H])(Oc2c([H])c([H])c3c(c2[H])C([H])([H])N(C(=O)C([H])(N([H])C(=O)C([H])(N([H])C([H])([H])[H])C([H])([H])[H])C(C([H])([H])[H])(C([H])([H])[H])C([H])([H])[H])C([H])(C(=O)N([H])C2([H])c4c([H])c([H])c([H])c([H])c4C([H])([H])C([H])([H])C2([H])[H])C3([H])[H])C([H])([H])[H])c1[H]

>  <smiles>  (35) 
[H]C(=NC(=O)N1C([H])([H])C([H])([H])C([H])([H])C([H])(n2nc(-c3c([H])c([H])c(Oc4c([H])c([H])c(F)c([H])c4F)c([H])c3[H])c(C(=O)N([H])[H])c2N([H])[H])C1([H])[H])c1on(C([H])([H])C([H])(Oc2c([H])c([H])c3c(c2[H])C([H])([H])N(C(=O)C([H])(N([H])C(=O)C([H])(N([H])C([H])([H])[H])C([H])([H])[H])C(C([H])([H])[H])(C([H])([H])[H])C([H])([H])[H])C([H])(C(=O)N([H])C2([H])c4c([H])c([H])c([H])c([H])c4C([H])([H])C([H])([H])C2([H])[H])C3([H])[H])C([H])([H])[H])c1[H]

$$$$
35:0:0
     RDKit          3D

 94103  0  0  1  0  0  0  0  0999 V2000
  -31.0500  -18.1640   20.0450 C   0  0  0  0  0  3  0  0  0  0  0  0
  -30.7920  -19.6070   20.0340 C   0  0  0  0  0  0  0  0  0  0  0  0
  -29.5060  -20.0170   20.3690 C   0  0  0  0  0  0  0  0  0  0  0  0
  -29.9750  -17.3470   20.3580 C   0  0  0  0  0  0  0  0  0  0  0  0
  -28.6210  -18.4800   20.6720 S   0  0  0  0  0  0  0  0  0  0  0  0
  -30.6090  -14.8550   20.0600 C   0  0  0  0  0  0  0  0  0  0  0  0
  -30.3590  -12.6180   18.9570 C   0  0  0  0  0  2  0  0  0  0  0  0
  -29.3570  -12.7550   17.7870 C   0  0  0  0  0  2  0  0  0  0  0  0
  -27.9050  -12.5840   18.2800 C   0  0  0  0  0  2  0  0  0  0  0  0
  -27.6070  -13.4070   19.5610 C   0  0  0  0  0  3  0  0  0  0  0  0
  -28.7210  -13.2400   20.6180 C   0  0  0  0  0  2  0  0  0  0  0  0
  -29.9910  -13.6230   19.9830 N   0  0  0  0  0  0  0  0  0  0  0  0
  -31.7660  -14.9870   19.6480 O   0  0  0  0  0  0  0  0  0  0  0  0
  -29.8300  -15.9420   20.4410 N   0  0  0  0  0  0  0  0  0  0  0  0
  -28.9240  -15.6480   20.7740 H   0  0  0  0  0  0  0  0  0  0  0  0
  -25.2530  -13.9900   20.3980 C   0  0  0  0  0  0  0  0  0  0  0  0
  -24.2010  -13.2120   20.8040 C   0  0  0  0  0  0  0  0  0  0  0  0
  -24.6580  -11.8610   20.7290 C   0  0  0  0  0  0  0  0  0  0  0  0
  -26.2830  -13.1120   20.1040 N   0  0  0  0  0  0  0  0  0  0  0  0
  -25.9350  -11.8250   20.3620 N   0  0  0  0  0  0  0  0  0  0  0  0
  -23.9360  -10.5980   20.9300 C   0  0  0  0  0  0  0  0  0  0  0  0
  -24.3740   -9.6360   21.8670 C   0  0  0  0  0  3  0  0  0  0  0  0
  -23.6510   -8.4380   22.0570 C   0  0  0  0  0  3  0  0  0  0  0  0
  -22.4750   -8.1940   21.3080 C   0  0  0  0  0  0  0  0  0  0  0  0
  -22.0560   -9.1430   20.3600 C   0  0  0  0  0  3  0  0  0  0  0  0
  -22.7800  -10.3320   20.1690 C   0  0  0  0  0  3  0  0  0  0  0  0
  -21.7230   -7.0470   21.4080 O   0  0  0  0  0  0  0  0  0  0  0  0
  -21.6400   -6.3390   22.5790 C   0  0  0  0  0  0  0  0  0  0  0  0
  -21.1450   -6.9190   23.7680 C   0  0  0  0  0  3  0  0  0  0  0  0
  -21.0120   -6.1350   24.9310 C   0  0  0  0  0  3  0  0  0  0  0  0
  -21.3650   -4.7720   24.9080 C   0  0  0  0  0  0  0  0  0  0  0  0
  -21.8530   -4.1910   23.7240 C   0  0  0  0  0  3  0  0  0  0  0  0
  -21.9870   -4.9720   22.5620 C   0  0  0  0  0  0  0  0  0  0  0  0
  -22.4390   -4.4020   21.4180 F   0  0  0  0  0  0  0  0  0  0  0  0
  -21.2300   -4.0180   26.0230 F   0  0  0  0  0  0  0  0  0  0  0  0
  -22.8180  -13.6890   21.1450 C   0  0  0  0  0  0  0  0  0  0  0  0
  -22.1250  -12.9790   22.0280 N   0  0  0  0  0  0  0  0  0  0  0  0
  -22.3630  -14.7240   20.6620 O   0  0  0  0  0  0  0  0  0  0  0  0
  -22.5070  -12.1410   22.4410 H   0  0  0  0  0  0  0  0  0  0  0  0
  -21.1990  -13.2790   22.2970 H   0  0  0  0  0  0  0  0  0  0  0  0
  -25.4090  -15.3630   20.2350 N   0  0  0  0  0  0  0  0  0  0  0  0
  -24.6420  -16.0100   20.3830 H   0  0  0  0  0  0  0  0  0  0  0  0
  -26.2250  -15.8060   19.8330 H   0  0  0  0  0  0  0  0  0  0  0  0
  -28.2030  -23.7570   20.7440 C   0  0  0  0  0  0  0  0  0  0  0  0
  -27.8890  -25.1230   20.7300 C   0  0  0  0  0  3  0  0  0  0  0  0
  -27.2910  -22.8550   21.5600 C   0  0  0  0  0  2  0  0  0  0  0  0
  -29.2550  -22.7410   20.1460 C   0  0  0  0  0  2  0  0  0  0  0  0
  -27.5130  -21.4000   21.1150 C   0  0  0  0  0  2  0  0  0  0  0  0
  -28.8430  -21.3260   20.5270 N   0  0  0  0  0  0  0  0  0  0  0  0
  -28.3320  -26.3480   20.1420 O   0  0  0  0  0  0  0  0  0  0  0  0
  -24.6400  -31.8370   23.2060 C   0  0  0  0  0  0  0  0  0  0  0  0
  -27.3200  -27.3420   20.0570 C   0  0  0  0  0  0  0  0  0  0  0  0
  -23.4820  -30.4950   21.4900 C   0  0  0  0  0  3  0  0  0  0  0  0
  -24.9750  -29.0020   20.0360 C   0  0  0  0  0  0  0  0  0  0  0  0
  -26.0310  -30.8050   21.3900 C   0  0  0  0  0  2  0  0  0  0  0  0
  -26.1320  -29.4490   20.6910 C   0  0  0  0  0  0  0  0  0  0  0  0
  -27.3110  -28.6280   20.6970 C   0  0  0  0  0  3  0  0  0  0  0  0
  -26.1510  -26.9830   19.3520 C   0  0  0  0  0  3  0  0  0  0  0  0
  -24.9900  -27.7780   19.3530 C   0  0  0  0  0  3  0  0  0  0  0  0
  -23.7350  -29.8740   20.0900 C   0  0  0  0  0  2  0  0  0  0  0  0
  -24.7350  -31.0630   22.0850 N   0  0  0  0  0  0  0  0  0  0  0  0
  -23.5420  -32.0980   23.7210 O   0  0  0  0  0  0  0  0  0  0  0  0
  -22.7940  -29.4470   22.3970 C   0  0  0  0  0  0  0  0  0  0  0  0
  -21.4650  -29.2960   22.2520 N   0  0  0  0  0  0  0  0  0  0  0  0
  -23.4540  -28.7740   23.1930 O   0  0  0  0  0  0  0  0  0  0  0  0
  -20.9930  -29.8890   21.5860 H   0  0  0  0  0  0  0  0  0  0  0  0
  -18.0520  -28.1970   22.7610 C   0  0  0  0  0  0  0  0  0  0  0  0
  -20.6250  -28.3360   22.9730 C   0  0  0  0  0  3  0  0  0  0  0  0
  -20.6520  -26.9490   22.2900 C   0  0  0  0  0  2  0  0  0  0  0  0
  -19.5130  -26.7480   21.2860 C   0  0  0  0  0  2  0  0  0  0  0  0
  -18.1560  -26.8970   21.9790 C   0  0  0  0  0  2  0  0  0  0  0  0
  -19.2120  -28.8800   23.2140 C   0  0  0  0  0  0  0  0  0  0  0  0
  -19.0600  -30.1000   23.9080 C   0  0  0  0  0  3  0  0  0  0  0  0
  -17.7820  -30.6370   24.1490 C   0  0  0  0  0  3  0  0  0  0  0  0
  -16.6370  -29.9490   23.7120 C   0  0  0  0  0  3  0  0  0  0  0  0
  -16.7740  -28.7310   23.0240 C   0  0  0  0  0  3  0  0  0  0  0  0
  -25.9040  -32.4510   23.8830 C   0  0  0  0  0  3  0  0  0  0  0  0
  -26.3840  -31.6410   25.1500 C   0  0  1  0  0  0  0  0  0  0  0  0
  -25.2620  -31.3750   26.1790 C   0  0  0  0  0  1  0  0  0  0  0  0
  -26.9760  -30.2730   24.7380 C   0  0  0  0  0  1  0  0  0  0  0  0
  -27.5190  -32.4130   25.8650 C   0  0  0  0  0  1  0  0  0  0  0  0
  -25.5850  -33.8390   24.2480 N   0  0  0  0  0  0  0  0  0  0  0  0
  -25.9060  -34.9150   23.5150 C   0  0  0  0  0  0  0  0  0  0  0  0
  -26.5700  -34.8420   22.4780 O   0  0  0  0  0  0  0  0  0  0  0  0
  -24.9930  -33.9690   25.0560 H   0  0  0  0  0  0  0  0  0  0  0  0
  -24.1480  -36.6910   23.2360 C   0  0  0  0  0  1  0  0  0  0  0  0
  -25.4130  -36.2880   24.0110 C   0  0  0  0  0  3  0  0  0  0  0  0
  -27.5500  -37.1860   24.8190 C   0  0  0  0  0  1  0  0  0  0  0  0
  -26.4300  -37.3550   23.8950 N   0  0  0  0  0  0  0  0  0  0  0  0
  -26.0180  -38.2680   24.0620 H   0  0  0  0  0  0  0  0  0  0  0  0
  -31.8880  -20.5370   19.6840 C   0  0  0  0  0  0  0  0  0  0  0  0
  -33.0190  -20.6730   20.6820 C   0  0  0  0  0  1  0  0  0  0  0  0
  -31.9160  -21.2050   18.6090 N   0  0  0  0  0  0  0  0  0  0  0  0
  -31.0970  -21.0160   18.0390 H   0  0  0  0  0  0  0  0  0  0  0  0
  1  4  2  0
  2  1  1  0
  2  3  2  0
  3 49  1  0
  3  5  1  0
  4 14  1  0
  4  5  1  0
  6 14  1  0
  7 12  1  0
  8  9  1  0
  8  7  1  0
 10  9  1  0
 10 19  1  0
 10 11  1  0
 12  6  1  0
 12 11  1  0
 13  6  2  0
 14 15  1  0
 16 17  2  0
 17 36  1  0
 18 17  1  0
 18 21  1  0
 19 20  1  0
 19 16  1  0
 20 18  2  0
 21 22  1  0
 22 23  2  0
 24 27  1  0
 24 23  1  0
 25 24  2  0
 26 25  1  0
 26 21  2  0
 27 28  1  0
 28 29  1  0
 29 30  2  0
 31 30  1  0
 31 35  1  0
 32 31  2  0
 33 28  2  0
 33 32  1  0
 34 33  1  0
 36 37  1  0
 37 40  1  0
 37 39  1  0
 38 36  2  0
 41 42  1  0
 41 16  1  0
 43 41  1  0
 44 46  1  0
 45 44  2  0
 47 49  1  0
 47 44  1  0
 48 46  1  0
 49 48  1  0
 50 45  1  0
 51 62  2  0
 52 50  1  0
 52 57  1  0
 53 61  1  0
 53 63  1  0
 54 60  1  0
 54 56  1  0
 55 61  1  0
 56 57  2  0
 56 55  1  0
 58 59  1  0
 58 52  2  0
 59 54  2  0
 60 53  1  0
 61 51  1  0
 63 65  2  0
 64 63  1  0
 66 64  1  0
 67 76  2  0
 67 72  1  0
 68 64  1  0
 68 72  1  0
 69 68  1  0
 70 71  1  0
 70 69  1  0
 71 67  1  0
 72 73  2  0
 73 74  1  0
 75 74  2  0
 76 75  1  0
 77 51  1  0
 77 82  1  0
 77 78  1  0
 78 81  1  1
 78 79  1  0
 80 78  1  0
 82 85  1  0
 83 87  1  0
 83 82  1  0
 84 83  2  0
 87 86  1  0
 89 87  1  0
 89 90  1  0
 89 88  1  0
 91  2  1  0
 91 92  1  0
 93 91  2  0
 94 93  1  0
M  ISO  4   6 100  14 100  45 101  50 101
M  END
>  <TORSDO>  (36) 
F 18

>  <SCORE>  (36) 
-14.245

>  <name>  (36) 
35

>  <ligand_id>  (36) 
35

>  <original_smiles>  (36) 
[H]N=C(c1c(N2C([H])([H])C(=C([H])Oc3c([H])c([H])c4c(c3[H])C([H])([H])N(C(=O)C([H])(N([H])C(=O)C([H])(N([H])C([H])([H])[H])C([H])([H])[H])C(C([H])([H])[H])(C([H])([H])[H])C([H])([H])[H])C([H])(C(=O)N([H])C3([H])c5c([H])c([H])c([H])c([H])c5C([H])([H])C([H])([H])C3([H])[H])C4([H])[H])C([H])([H])C2([H])[H])sc(N([H])C(=O)N2C([H])([H])C([H])([H])C([H])([H])C([H])(n3nc(-c4c([H])c([H])c(Oc5c([H])c([H])c(F)c([H])c5F)c([H])c4[H])c(C(=O)N([H])[H])c3N([H])[H])C2([H])[H])c1[H])C([H])([H])[H]

>  <smiles>  (36) 
[H]N=C(c1c(N2C([H])([H])C(=C([H])Oc3c([H])c([H])c4c(c3[H])C([H])([H])N(C(=O)C([H])(N([H])C(=O)C([H])(N([H])C([H])([H])[H])C([H])([H])[H])C(C([H])([H])[H])(C([H])([H])[H])C([H])([H])[H])C([H])(C(=O)N([H])C3([H])c5c([H])c([H])c([H])c([H])c5C([H])([H])C([H])([H])C3([H])[H])C4([H])[H])C([H])([H])C2([H])[H])sc(N([H])C(=O)N2C([H])([H])C([H])([H])C([H])([H])C([H])(n3nc(-c4c([H])c([H])c(Oc5c([H])c([H])c(F)c([H])c5F)c([H])c4[H])c(C(=O)N([H])[H])c3N([H])[H])C2([H])[H])c1[H])C([H])([H])[H]

$$$$
36:0:0
     RDKit          3D

 96105  0  0  1  0  0  0  0  0999 V2000
  -27.5340  -23.2230   20.0130 C   0  0  0  0  0  0  0  0  0  0  0  0
  -28.5840  -24.0160   19.7440 C   0  0  0  0  0  0  0  0  0  0  0  0
  -30.1380  -20.6000   19.7950 C   0  0  0  0  0  3  0  0  0  0  0  0
  -27.9090  -21.7580   20.1650 C   0  0  0  0  0  3  0  0  0  0  0  0
  -29.8390  -23.1410   19.6620 C   0  0  0  0  0  3  0  0  0  0  0  0
  -26.0660  -23.5860   20.0390 C   0  0  0  0  0  1  0  0  0  0  0  0
  -29.3530  -21.7340   19.8630 N   0  0  0  0  0  0  0  0  0  0  0  0
  -31.4690  -20.7740   19.6980 N   0  0  0  0  0  0  0  0  0  0  0  0
  -31.8830  -21.6920   19.7010 H   0  0  0  0  0  0  0  0  0  0  0  0
  -32.0920  -19.9880   19.5830 H   0  0  0  0  0  0  0  0  0  0  0  0
  -30.2070  -18.0880   20.5570 C   0  0  0  0  0  3  0  0  0  0  0  0
  -29.6490  -19.1830   19.7830 C   0  0  0  0  0  0  0  0  0  0  0  0
  -29.6470  -16.8400   20.2840 C   0  0  0  0  0  0  0  0  0  0  0  0
  -28.6910  -18.7300   18.9230 C   0  0  0  0  0  0  0  0  0  0  0  0
  -28.0440  -19.4930   18.0100 F   0  0  0  0  0  0  0  0  0  0  0  0
  -28.4290  -17.0140   19.0270 S   0  0  0  0  0  0  0  0  0  0  0  0
  -30.5870  -14.5850   20.4590 C   0  0  0  0  0  0  0  0  0  0  0  0
  -30.3740  -12.3690   19.3880 C   0  0  0  0  0  2  0  0  0  0  0  0
  -29.4530  -12.5730   18.1650 C   0  0  0  0  0  2  0  0  0  0  0  0
  -27.9670  -12.4330   18.5630 C   0  0  0  0  0  2  0  0  0  0  0  0
  -27.6070  -13.2540   19.8320 C   0  0  0  0  0  3  0  0  0  0  0  0
  -28.6490  -13.0280   20.9510 C   0  0  0  0  0  2  0  0  0  0  0  0
  -29.9740  -13.3630   20.4010 N   0  0  0  0  0  0  0  0  0  0  0  0
  -31.7260  -14.7690   20.0230 O   0  0  0  0  0  0  0  0  0  0  0  0
  -29.8210  -15.6200   20.9020 N   0  0  0  0  0  0  0  0  0  0  0  0
  -28.9820  -15.2840   21.3500 H   0  0  0  0  0  0  0  0  0  0  0  0
  -25.1970  -13.8750   20.4860 C   0  0  0  0  0  0  0  0  0  0  0  0
  -24.1200  -13.1100   20.8480 C   0  0  0  0  0  0  0  0  0  0  0  0
  -24.5790  -11.7590   20.8410 C   0  0  0  0  0  0  0  0  0  0  0  0
  -26.2450  -12.9880   20.2860 N   0  0  0  0  0  0  0  0  0  0  0  0
  -25.8740  -11.7100   20.5530 N   0  0  0  0  0  0  0  0  0  0  0  0
  -23.8470  -10.5020   21.0330 C   0  0  0  0  0  0  0  0  0  0  0  0
  -24.2690   -9.5380   21.9740 C   0  0  0  0  0  3  0  0  0  0  0  0
  -23.5370   -8.3440   22.1540 C   0  0  0  0  0  3  0  0  0  0  0  0
  -22.3680   -8.1090   21.3920 C   0  0  0  0  0  0  0  0  0  0  0  0
  -21.9650   -9.0610   20.4400 C   0  0  0  0  0  3  0  0  0  0  0  0
  -22.6980  -10.2460   20.2580 C   0  0  0  0  0  3  0  0  0  0  0  0
  -21.6060   -6.9680   21.4810 O   0  0  0  0  0  0  0  0  0  0  0  0
  -21.5530   -6.2250   22.6350 C   0  0  0  0  0  0  0  0  0  0  0  0
  -21.1280   -6.7830   23.8610 C   0  0  0  0  0  3  0  0  0  0  0  0
  -21.0210   -5.9670   25.0060 C   0  0  0  0  0  3  0  0  0  0  0  0
  -21.3290   -4.5970   24.9260 C   0  0  0  0  0  0  0  0  0  0  0  0
  -21.7510   -4.0400   23.7050 C   0  0  0  0  0  3  0  0  0  0  0  0
  -21.8590   -4.8520   22.5630 C   0  0  0  0  0  0  0  0  0  0  0  0
  -22.2430   -4.3040   21.3850 F   0  0  0  0  0  0  0  0  0  0  0  0
  -21.2210   -3.8120   26.0230 F   0  0  0  0  0  0  0  0  0  0  0  0
  -22.7200  -13.5990   21.0890 C   0  0  0  0  0  0  0  0  0  0  0  0
  -21.9680  -12.9190   21.9500 N   0  0  0  0  0  0  0  0  0  0  0  0
  -22.3000  -14.6210   20.5520 O   0  0  0  0  0  0  0  0  0  0  0  0
  -22.3140  -12.0940   22.4140 H   0  0  0  0  0  0  0  0  0  0  0  0
  -21.0290  -13.2350   22.1480 H   0  0  0  0  0  0  0  0  0  0  0  0
  -25.3630  -15.2440   20.2970 N   0  0  0  0  0  0  0  0  0  0  0  0
  -24.5880  -15.8900   20.3980 H   0  0  0  0  0  0  0  0  0  0  0  0
  -26.2090  -15.6920   19.9740 H   0  0  0  0  0  0  0  0  0  0  0  0
  -28.5990  -25.5010   19.2490 C   0  0  0  0  0  2  0  0  0  0  0  0
  -28.3660  -26.5920   20.1920 O   0  0  0  0  0  0  0  0  0  0  0  0
  -24.5860  -31.8780   23.2500 C   0  0  0  0  0  0  0  0  0  0  0  0
  -27.2170  -27.3850   20.1280 C   0  0  0  0  0  0  0  0  0  0  0  0
  -23.3820  -30.4800   21.6070 C   0  0  0  0  0  3  0  0  0  0  0  0
  -24.8300  -28.9470   20.1620 C   0  0  0  0  0  0  0  0  0  0  0  0
  -25.9120  -30.8180   21.4130 C   0  0  0  0  0  2  0  0  0  0  0  0
  -25.9900  -29.4440   20.7630 C   0  0  0  0  0  0  0  0  0  0  0  0
  -27.1800  -28.6650   20.7540 C   0  0  0  0  0  3  0  0  0  0  0  0
  -26.0380  -26.9430   19.4890 C   0  0  0  0  0  3  0  0  0  0  0  0
  -24.8520  -27.6990   19.5200 C   0  0  0  0  0  3  0  0  0  0  0  0
  -23.5850  -29.8020   20.2250 C   0  0  0  0  0  2  0  0  0  0  0  0
  -24.6460  -31.0780   22.1460 N   0  0  0  0  0  0  0  0  0  0  0  0
  -23.5040  -32.1510   23.7890 O   0  0  0  0  0  0  0  0  0  0  0  0
  -22.7280  -29.4610   22.5690 C   0  0  0  0  0  0  0  0  0  0  0  0
  -21.4040  -29.2810   22.4390 N   0  0  0  0  0  0  0  0  0  0  0  0
  -23.4110  -28.8330   23.3830 O   0  0  0  0  0  0  0  0  0  0  0  0
  -20.9210  -29.8320   21.7430 H   0  0  0  0  0  0  0  0  0  0  0  0
  -18.0250  -28.0900   22.9310 C   0  0  0  0  0  0  0  0  0  0  0  0
  -20.5840  -28.3420   23.2030 C   0  0  0  0  0  3  0  0  0  0  0  0
  -20.6850  -26.9160   22.6130 C   0  0  0  0  0  2  0  0  0  0  0  0
  -19.5790  -26.6020   21.5990 C   0  0  0  0  0  2  0  0  0  0  0  0
  -18.1980  -26.7450   22.2470 C   0  0  0  0  0  2  0  0  0  0  0  0
  -19.1460  -28.8470   23.3650 C   0  0  0  0  0  0  0  0  0  0  0  0
  -18.9310  -30.1070   23.9620 C   0  0  0  0  0  3  0  0  0  0  0  0
  -17.6290  -30.6100   24.1350 C   0  0  0  0  0  3  0  0  0  0  0  0
  -16.5220  -29.8500   23.7170 C   0  0  0  0  0  3  0  0  0  0  0  0
  -16.7210  -28.5920   23.1200 C   0  0  0  0  0  3  0  0  0  0  0  0
  -25.8700  -32.5050   23.8750 C   0  0  0  0  0  3  0  0  0  0  0  0
  -25.5700  -33.9080   24.1990 N   0  0  0  0  0  0  0  0  0  0  0  0
  -25.9120  -34.9510   23.4330 C   0  0  0  0  0  0  0  0  0  0  0  0
  -26.5860  -34.8370   22.4070 O   0  0  0  0  0  0  0  0  0  0  0  0
  -24.9740  -34.0690   24.9960 H   0  0  0  0  0  0  0  0  0  0  0  0
  -24.1950  -36.7450   23.0540 C   0  0  0  0  0  1  0  0  0  0  0  0
  -25.4290  -36.3440   23.8780 C   0  0  0  0  0  3  0  0  0  0  0  0
  -27.5630  -37.2210   24.7190 C   0  0  0  0  0  1  0  0  0  0  0  0
  -26.4690  -37.3900   23.7660 N   0  0  0  0  0  0  0  0  0  0  0  0
  -26.0680  -38.3150   23.9030 H   0  0  0  0  0  0  0  0  0  0  0  0
  -26.3740  -31.7370   25.1590 C   0  0  1  0  0  0  0  0  0  0  0  0
  -25.2740  -31.5110   26.2220 C   0  0  0  0  0  1  0  0  0  0  0  0
  -26.9480  -30.3540   24.7740 C   0  0  0  0  0  1  0  0  0  0  0  0
  -27.5310  -32.5250   25.8200 C   0  0  0  0  0  1  0  0  0  0  0  0
  1  6  1  0
  1  4  2  0
  2  1  1  0
  3  8  1  0
  3  7  1  0
  5  2  2  0
  5  7  1  0
  7  4  1  0
  8  9  1  0
 10  8  1  0
 12  3  1  0
 12 11  1  0
 13 11  2  0
 13 25  1  0
 14 16  1  0
 14 12  2  0
 15 14  1  0
 16 13  1  0
 17 25  1  0
 18 23  1  0
 19 20  1  0
 19 18  1  0
 21 20  1  0
 21 30  1  0
 21 22  1  0
 23 17  1  0
 23 22  1  0
 24 17  2  0
 25 26  1  0
 27 28  2  0
 28 47  1  0
 29 28  1  0
 29 32  1  0
 30 27  1  0
 30 31  1  0
 31 29  2  0
 32 33  1  0
 33 34  2  0
 35 38  1  0
 35 34  1  0
 36 35  2  0
 37 36  1  0
 37 32  2  0
 38 39  1  0
 39 40  1  0
 40 41  2  0
 42 41  1  0
 42 46  1  0
 43 42  2  0
 44 39  2  0
 44 43  1  0
 45 44  1  0
 47 48  1  0
 48 51  1  0
 48 50  1  0
 49 47  2  0
 52 53  1  0
 52 27  1  0
 54 52  1  0
 55  2  1  0
 55 56  1  0
 57 68  2  0
 58 56  1  0
 58 63  1  0
 59 67  1  0
 59 69  1  0
 60 66  1  0
 60 62  1  0
 61 67  1  0
 62 61  1  0
 63 62  2  0
 64 65  1  0
 64 58  2  0
 65 60  2  0
 66 59  1  0
 67 57  1  0
 69 71  2  0
 70 69  1  0
 72 70  1  0
 73 82  2  0
 73 78  1  0
 74 70  1  0
 74 78  1  0
 75 74  1  0
 76 77  1  0
 76 75  1  0
 77 73  1  0
 78 79  2  0
 79 80  1  0
 81 80  2  0
 82 81  1  0
 83 57  1  0
 83 84  1  0
 83 93  1  0
 84 87  1  0
 85 89  1  0
 85 84  1  0
 86 85  2  0
 89 88  1  0
 91 89  1  0
 91 92  1  0
 91 90  1  0
 93 96  1  1
 93 94  1  0
 95 93  1  0
M  ISO  4  17 100  25 100  55 101  56 101
M  END
>  <TORSDO>  (37) 
F 18

>  <SCORE>  (37) 
-14.919

>  <name>  (37) 
36

>  <ligand_id>  (37) 
36

>  <original_smiles>  (37) 
[H]c1c([H])c([H])c2c(c1[H])C([H])([H])C([H])([H])C([H])([H])C2([H])N([H])C(=O)C1([H])N(C(=O)C([H])(N([H])C(=O)C([H])(N([H])C([H])([H])[H])C([H])([H])[H])C(C([H])([H])[H])(C([H])([H])[H])C([H])([H])[H])C([H])([H])c2c([H])c(OC([H])([H])C3=C(C([H])([H])[H])C([H])([H])N(C(c4c(F)sc(N([H])C(=O)N5C([H])([H])C([H])([H])C([H])([H])C([H])(n6nc(-c7c([H])c([H])c(Oc8c([H])c([H])c(F)c([H])c8F)c([H])c7[H])c(C(=O)N([H])[H])c6N([H])[H])C5([H])[H])c4[H])=[N+]([H])[H])C3([H])[H])c([H])c([H])c2C1([H])[H]

>  <smiles>  (37) 
[H]c1c([H])c([H])c2c(c1[H])C([H])([H])C([H])([H])C([H])([H])C2([H])N([H])C(=O)C1([H])N(C(=O)C([H])(N([H])C(=O)C([H])(N([H])C([H])([H])[H])C([H])([H])[H])C(C([H])([H])[H])(C([H])([H])[H])C([H])([H])[H])C([H])([H])c2c([H])c(OC([H])([H])C3=C(C([H])([H])[H])C([H])([H])N(C(c4c(F)sc(N([H])C(=O)N5C([H])([H])C([H])([H])C([H])([H])C([H])(n6nc(-c7c([H])c([H])c(Oc8c([H])c([H])c(F)c([H])c8F)c([H])c7[H])c(C(=O)N([H])[H])c6N([H])[H])C5([H])[H])c4[H])=[N+]([H])[H])C3([H])[H])c([H])c([H])c2C1([H])[H]

$$$$
37:0:0
     RDKit          3D

 96105  0  0  1  0  0  0  0  0999 V2000
  -27.9020  -23.3110   19.9910 C   0  0  0  0  0  2  0  0  0  0  0  0
  -30.3050  -23.7090   19.8820 C   0  0  0  0  0  2  0  0  0  0  0  0
  -28.1430  -21.7580   19.9450 C   0  0  0  0  0  2  0  0  0  0  0  0
  -30.5910  -22.1740   19.8090 C   0  0  0  0  0  2  0  0  0  0  0  0
  -28.9680  -24.1130   19.2090 C   0  0  1  0  0  0  0  0  0  0  0  0
  -29.5070  -21.3100   20.3110 N   0  0  0  0  0  0  0  0  0  0  0  0
  -31.0830  -17.8160   20.1780 C   0  0  0  0  0  3  0  0  0  0  0  0
  -29.9580  -17.0380   20.5360 C   0  0  0  0  0  0  0  0  0  0  0  0
  -30.9780  -19.2340   20.0930 C   0  0  0  0  0  0  0  0  0  0  0  0
  -29.7320  -19.8820   20.3640 C   0  0  0  0  0  0  0  0  0  0  0  0
  -28.7770  -17.7660   20.7940 C   0  0  0  0  0  0  0  0  0  0  0  0
  -28.6650  -19.1180   20.7080 N   0  0  0  0  0  0  0  0  0  0  0  0
  -32.0890  -19.9260   19.7390 F   0  0  0  0  0  0  0  0  0  0  0  0
  -27.6680  -17.0710   21.1390 F   0  0  0  0  0  0  0  0  0  0  0  0
  -30.6560  -14.6010   20.0920 C   0  0  0  0  0  0  0  0  0  0  0  0
  -30.3630  -12.4350   18.9190 C   0  0  0  0  0  2  0  0  0  0  0  0
  -29.3500  -12.6420   17.7710 C   0  0  0  0  0  2  0  0  0  0  0  0
  -27.9020  -12.4790   18.2740 C   0  0  0  0  0  2  0  0  0  0  0  0
  -27.6270  -13.2810   19.5750 C   0  0  0  0  0  3  0  0  0  0  0  0
  -28.7430  -13.0360   20.6170 C   0  0  0  0  0  2  0  0  0  0  0  0
  -30.0280  -13.3900   19.9920 N   0  0  0  0  0  0  0  0  0  0  0  0
  -31.7650  -14.8100   19.5940 O   0  0  0  0  0  0  0  0  0  0  0  0
  -29.9100  -15.5880   20.6560 N   0  0  0  0  0  0  0  0  0  0  0  0
  -29.0570  -15.2460   21.0750 H   0  0  0  0  0  0  0  0  0  0  0  0
  -25.2690  -13.8710   20.4150 C   0  0  0  0  0  0  0  0  0  0  0  0
  -24.2200  -13.0910   20.8230 C   0  0  0  0  0  0  0  0  0  0  0  0
  -24.6790  -11.7400   20.7430 C   0  0  0  0  0  0  0  0  0  0  0  0
  -26.3010  -12.9950   20.1170 N   0  0  0  0  0  0  0  0  0  0  0  0
  -25.9520  -11.7080   20.3700 N   0  0  0  0  0  0  0  0  0  0  0  0
  -23.9620  -10.4750   20.9450 C   0  0  0  0  0  0  0  0  0  0  0  0
  -24.4050   -9.5170   21.8830 C   0  0  0  0  0  3  0  0  0  0  0  0
  -23.6880   -8.3160   22.0730 C   0  0  0  0  0  3  0  0  0  0  0  0
  -22.5130   -8.0660   21.3230 C   0  0  0  0  0  0  0  0  0  0  0  0
  -22.0900   -9.0130   20.3740 C   0  0  0  0  0  3  0  0  0  0  0  0
  -22.8080  -10.2050   20.1840 C   0  0  0  0  0  3  0  0  0  0  0  0
  -21.7670   -6.9160   21.4220 O   0  0  0  0  0  0  0  0  0  0  0  0
  -21.6780   -6.2140   22.5970 C   0  0  0  0  0  0  0  0  0  0  0  0
  -21.1980   -6.8070   23.7850 C   0  0  0  0  0  3  0  0  0  0  0  0
  -21.0580   -6.0310   24.9530 C   0  0  0  0  0  3  0  0  0  0  0  0
  -21.3880   -4.6630   24.9330 C   0  0  0  0  0  0  0  0  0  0  0  0
  -21.8610   -4.0690   23.7500 C   0  0  0  0  0  3  0  0  0  0  0  0
  -22.0030   -4.8420   22.5840 C   0  0  0  0  0  0  0  0  0  0  0  0
  -22.4390   -4.2610   21.4410 F   0  0  0  0  0  0  0  0  0  0  0  0
  -21.2450   -3.9140   26.0520 F   0  0  0  0  0  0  0  0  0  0  0  0
  -22.8390  -13.5630   21.1770 C   0  0  0  0  0  0  0  0  0  0  0  0
  -22.1580  -12.8520   22.0690 N   0  0  0  0  0  0  0  0  0  0  0  0
  -22.3740  -14.5970   20.6990 O   0  0  0  0  0  0  0  0  0  0  0  0
  -22.5480  -12.0150   22.4770 H   0  0  0  0  0  0  0  0  0  0  0  0
  -21.2340  -13.1490   22.3480 H   0  0  0  0  0  0  0  0  0  0  0  0
  -25.4230  -15.2440   20.2590 N   0  0  0  0  0  0  0  0  0  0  0  0
  -24.6690  -15.8950   20.4510 H   0  0  0  0  0  0  0  0  0  0  0  0
  -26.2730  -15.7030   19.9600 H   0  0  0  0  0  0  0  0  0  0  0  0
  -29.8480  -23.9480   16.9100 C   0  0  0  0  0  1  0  0  0  0  0  0
  -28.8910  -23.5430   17.8900 O   0  0  0  0  0  0  0  0  0  0  0  0
  -28.7170  -25.6800   19.0200 C   0  0  0  0  0  2  0  0  0  0  0  0
  -28.3830  -26.5870   20.1070 O   0  0  0  0  0  0  0  0  0  0  0  0
  -24.5310  -31.8130   23.1540 C   0  0  0  0  0  0  0  0  0  0  0  0
  -27.2240  -27.3630   20.0490 C   0  0  0  0  0  0  0  0  0  0  0  0
  -23.3470  -30.4160   21.4950 C   0  0  0  0  0  3  0  0  0  0  0  0
  -24.8220  -28.8990   20.0610 C   0  0  0  0  0  0  0  0  0  0  0  0
  -25.8770  -30.7790   21.3200 C   0  0  0  0  0  2  0  0  0  0  0  0
  -25.9760  -29.4100   20.6650 C   0  0  0  0  0  0  0  0  0  0  0  0
  -27.1750  -28.6460   20.6620 C   0  0  0  0  0  3  0  0  0  0  0  0
  -26.0390  -26.8770   19.4490 C   0  0  0  0  0  3  0  0  0  0  0  0
  -24.8510  -27.6340   19.4500 C   0  0  0  0  0  3  0  0  0  0  0  0
  -23.5720  -29.7510   20.1110 C   0  0  0  0  0  2  0  0  0  0  0  0
  -24.6030  -31.0190   22.0480 N   0  0  0  0  0  0  0  0  0  0  0  0
  -23.4440  -32.0740   23.6890 O   0  0  0  0  0  0  0  0  0  0  0  0
  -22.6940  -29.3830   22.4440 C   0  0  0  0  0  0  0  0  0  0  0  0
  -21.3740  -29.1840   22.3000 N   0  0  0  0  0  0  0  0  0  0  0  0
  -23.3750  -28.7660   23.2670 O   0  0  0  0  0  0  0  0  0  0  0  0
  -20.8840  -29.7350   21.6090 H   0  0  0  0  0  0  0  0  0  0  0  0
  -18.0180  -27.9090   22.7260 C   0  0  0  0  0  0  0  0  0  0  0  0
  -20.5610  -28.2310   23.0570 C   0  0  0  0  0  3  0  0  0  0  0  0
  -20.7120  -26.8000   22.4910 C   0  0  0  0  0  2  0  0  0  0  0  0
  -19.6430  -26.4460   21.4530 C   0  0  0  0  0  2  0  0  0  0  0  0
  -18.2430  -26.5610   22.0630 C   0  0  0  0  0  2  0  0  0  0  0  0
  -19.1070  -28.7000   23.1790 C   0  0  0  0  0  0  0  0  0  0  0  0
  -18.8430  -29.9610   23.7570 C   0  0  0  0  0  3  0  0  0  0  0  0
  -17.5230  -30.4320   23.8870 C   0  0  0  0  0  3  0  0  0  0  0  0
  -16.4490  -29.6380   23.4520 C   0  0  0  0  0  3  0  0  0  0  0  0
  -16.6970  -28.3780   22.8780 C   0  0  0  0  0  3  0  0  0  0  0  0
  -25.8070  -32.4510   23.7880 C   0  0  0  0  0  3  0  0  0  0  0  0
  -26.3380  -31.6600   25.0460 C   0  0  1  0  0  0  0  0  0  0  0  0
  -25.2510  -31.3820   26.1090 C   0  0  0  0  0  1  0  0  0  0  0  0
  -26.9410  -30.3000   24.6230 C   0  0  0  0  0  1  0  0  0  0  0  0
  -27.4780  -32.4570   25.7230 C   0  0  0  0  0  1  0  0  0  0  0  0
  -25.4780  -33.8370   24.1480 N   0  0  0  0  0  0  0  0  0  0  0  0
  -25.7870  -34.9100   23.4060 C   0  0  0  0  0  0  0  0  0  0  0  0
  -26.4490  -34.8370   22.3680 O   0  0  0  0  0  0  0  0  0  0  0  0
  -24.8870  -33.9660   24.9560 H   0  0  0  0  0  0  0  0  0  0  0  0
  -24.0200  -36.6750   23.1090 C   0  0  0  0  0  1  0  0  0  0  0  0
  -25.2800  -36.2810   23.8950 C   0  0  0  0  0  3  0  0  0  0  0  0
  -27.4080  -37.1930   24.7120 C   0  0  0  0  0  1  0  0  0  0  0  0
  -26.2920  -37.3540   23.7860 N   0  0  0  0  0  0  0  0  0  0  0  0
  -25.8710  -38.2640   23.9540 H   0  0  0  0  0  0  0  0  0  0  0  0
  3  1  1  0
  3  6  1  0
  4  2  1  0
  4  6  1  0
  5 55  1  6
  5  2  1  0
  5  1  1  0
  6 10  1  0
  7  8  1  0
  8 23  1  0
  8 11  2  0
  9  7  2  0
  9 10  1  0
 10 12  2  0
 11 14  1  0
 12 11  1  0
 13  9  1  0
 15 23  1  0
 16 21  1  0
 17 18  1  0
 17 16  1  0
 19 18  1  0
 19 28  1  0
 19 20  1  0
 21 15  1  0
 21 20  1  0
 22 15  2  0
 23 24  1  0
 25 26  2  0
 26 45  1  0
 27 26  1  0
 27 30  1  0
 28 29  1  0
 28 25  1  0
 29 27  2  0
 30 31  1  0
 31 32  2  0
 33 36  1  0
 33 32  1  0
 34 33  2  0
 35 34  1  0
 35 30  2  0
 36 37  1  0
 37 38  1  0
 38 39  2  0
 40 39  1  0
 40 44  1  0
 41 40  2  0
 42 37  2  0
 42 41  1  0
 43 42  1  0
 45 46  1  0
 46 49  1  0
 46 48  1  0
 47 45  2  0
 50 25  1  0
 50 51  1  0
 52 50  1  0
 53 54  1  0
 54  5  1  0
 55 56  1  0
 57 68  2  0
 58 56  1  0
 58 63  1  0
 59 67  1  0
 59 69  1  0
 60 66  1  0
 60 62  1  0
 61 67  1  0
 62 61  1  0
 63 62  2  0
 64 65  1  0
 64 58  2  0
 65 60  2  0
 66 59  1  0
 67 57  1  0
 69 71  2  0
 70 69  1  0
 72 70  1  0
 73 82  2  0
 73 78  1  0
 74 70  1  0
 74 78  1  0
 75 74  1  0
 76 77  1  0
 76 75  1  0
 77 73  1  0
 78 79  2  0
 79 80  1  0
 81 80  2  0
 82 81  1  0
 83 57  1  0
 83 88  1  0
 83 84  1  0
 84 87  1  1
 84 85  1  0
 86 84  1  0
 88 91  1  0
 89 93  1  0
 89 88  1  0
 90 89  2  0
 93 92  1  0
 95 93  1  0
 95 96  1  0
 95 94  1  0
M  ISO  4  15 100  23 100  55 101  56 101
M  END
>  <TORSDO>  (38) 
F 19

>  <SCORE>  (38) 
-14.007

>  <name>  (38) 
37

>  <ligand_id>  (38) 
37

>  <original_smiles>  (38) 
[H]c1c([H])c([H])c2c(c1[H])C([H])([H])C([H])([H])C([H])([H])C2([H])N([H])C(=O)C1([H])N(C(=O)C([H])(N([H])C(=O)C([H])(N([H])C([H])([H])[H])C([H])([H])[H])C(C([H])([H])[H])(C([H])([H])[H])C([H])([H])[H])C([H])([H])c2c([H])c(OC([H])([H])C3(OC([H])([H])[H])C([H])([H])C([H])([H])N(c4nc(F)c(N([H])C(=O)N5C([H])([H])C([H])([H])C([H])([H])C([H])(n6nc(-c7c([H])c([H])c(Oc8c([H])c([H])c(F)c([H])c8F)c([H])c7[H])c(C(=O)N([H])[H])c6N([H])[H])C5([H])[H])c([H])c4F)C([H])([H])C3([H])[H])c([H])c([H])c2C1([H])[H]

>  <smiles>  (38) 
[H]c1c([H])c([H])c2c(c1[H])C([H])([H])C([H])([H])C([H])([H])C2([H])N([H])C(=O)C1([H])N(C(=O)C([H])(N([H])C(=O)C([H])(N([H])C([H])([H])[H])C([H])([H])[H])C(C([H])([H])[H])(C([H])([H])[H])C([H])([H])[H])C([H])([H])c2c([H])c(OC([H])([H])C3(OC([H])([H])[H])C([H])([H])C([H])([H])N(c4nc(F)c(N([H])C(=O)N5C([H])([H])C([H])([H])C([H])([H])C([H])(n6nc(-c7c([H])c([H])c(Oc8c([H])c([H])c(F)c([H])c8F)c([H])c7[H])c(C(=O)N([H])[H])c6N([H])[H])C5([H])[H])c([H])c4F)C([H])([H])C3([H])[H])c([H])c([H])c2C1([H])[H]

$$$$
38:0:0
     RDKit          3D

 98107  0  0  1  0  0  0  0  0999 V2000
  -28.0800  -23.8570   20.4980 C   0  0  0  0  0  0  0  0  0  0  0  0
  -28.7920  -21.3180   20.7130 C   0  0  0  0  0  3  0  0  0  0  0  0
  -29.9160  -24.7150   19.3050 C   0  0  0  0  0  2  0  0  0  0  0  0
  -30.0000  -23.1590   19.3460 C   0  0  0  0  0  2  0  0  0  0  0  0
  -28.4710  -25.1240   19.6250 C   0  0  0  0  0  3  0  0  0  0  0  0
  -28.9430  -22.6520   20.2510 N   0  0  0  0  0  0  0  0  0  0  0  0
  -27.6830  -21.0440   21.4030 N   0  0  0  0  0  0  0  0  0  0  0  0
  -27.1180  -23.8330   21.2740 O   0  0  0  0  0  0  0  0  0  0  0  0
  -27.5630  -20.1420   21.8330 H   0  0  0  0  0  0  0  0  0  0  0  0
  -27.0280  -21.7890   21.6050 H   0  0  0  0  0  0  0  0  0  0  0  0
  -31.1210  -20.3430   20.8300 C   0  0  0  0  0  3  0  0  0  0  0  0
  -29.3670  -18.6910   20.4880 C   0  0  0  0  0  3  0  0  0  0  0  0
  -31.6560  -17.9390   20.7750 C   0  0  0  0  0  3  0  0  0  0  0  0
  -29.7490  -20.1040   20.6090 C   0  0  0  0  0  0  0  0  0  0  0  0
  -32.0550  -19.2890   20.9020 C   0  0  0  0  0  0  0  0  0  0  0  0
  -30.3050  -17.5650   20.5710 C   0  0  0  0  0  0  0  0  0  0  0  0
  -30.6930  -14.9570   20.2670 C   0  0  0  0  0  0  0  0  0  0  0  0
  -30.4830  -12.6840   19.2320 C   0  0  0  0  0  2  0  0  0  0  0  0
  -29.5140  -12.7450   18.0310 C   0  0  0  0  0  2  0  0  0  0  0  0
  -28.0590  -12.5410   18.4990 C   0  0  0  0  0  2  0  0  0  0  0  0
  -27.7040  -13.4130   19.7320 C   0  0  0  0  0  3  0  0  0  0  0  0
  -28.7930  -13.3460   20.8250 C   0  0  0  0  0  2  0  0  0  0  0  0
  -30.0630  -13.7300   20.1960 N   0  0  0  0  0  0  0  0  0  0  0  0
  -31.8700  -15.0320   19.9050 O   0  0  0  0  0  0  0  0  0  0  0  0
  -29.9340  -16.1070   20.5180 N   0  0  0  0  0  0  0  0  0  0  0  0
  -28.9580  -15.9110   20.6760 H   0  0  0  0  0  0  0  0  0  0  0  0
  -25.3370  -13.9610   20.5490 C   0  0  0  0  0  0  0  0  0  0  0  0
  -24.2900  -13.1680   20.9310 C   0  0  0  0  0  0  0  0  0  0  0  0
  -24.7630  -11.8220   20.8510 C   0  0  0  0  0  0  0  0  0  0  0  0
  -26.3800  -13.0980   20.2570 N   0  0  0  0  0  0  0  0  0  0  0  0
  -26.0450  -11.8050   20.5020 N   0  0  0  0  0  0  0  0  0  0  0  0
  -24.0520  -10.5500   21.0270 C   0  0  0  0  0  0  0  0  0  0  0  0
  -24.4880   -9.5810   21.9580 C   0  0  0  0  0  3  0  0  0  0  0  0
  -23.7760   -8.3750   22.1240 C   0  0  0  0  0  3  0  0  0  0  0  0
  -22.6110   -8.1270   21.3580 C   0  0  0  0  0  0  0  0  0  0  0  0
  -22.1940   -9.0840   20.4170 C   0  0  0  0  0  3  0  0  0  0  0  0
  -22.9070  -10.2830   20.2490 C   0  0  0  0  0  3  0  0  0  0  0  0
  -21.8690   -6.9730   21.4330 O   0  0  0  0  0  0  0  0  0  0  0  0
  -21.7790   -6.2490   22.5950 C   0  0  0  0  0  0  0  0  0  0  0  0
  -21.2390   -6.8010   23.7780 C   0  0  0  0  0  3  0  0  0  0  0  0
  -21.1000   -6.0010   24.9290 C   0  0  0  0  0  3  0  0  0  0  0  0
  -21.4940   -4.6510   24.9000 C   0  0  0  0  0  0  0  0  0  0  0  0
  -22.0290   -4.0980   23.7230 C   0  0  0  0  0  3  0  0  0  0  0  0
  -22.1680   -4.8950   22.5730 C   0  0  0  0  0  0  0  0  0  0  0  0
  -22.6640   -4.3510   21.4350 F   0  0  0  0  0  0  0  0  0  0  0  0
  -21.3550   -3.8790   26.0040 F   0  0  0  0  0  0  0  0  0  0  0  0
  -22.8980  -13.6280   21.2540 C   0  0  0  0  0  0  0  0  0  0  0  0
  -22.2010  -12.9060   22.1250 N   0  0  0  0  0  0  0  0  0  0  0  0
  -22.4370  -14.6600   20.7690 O   0  0  0  0  0  0  0  0  0  0  0  0
  -22.5870  -12.0690   22.5370 H   0  0  0  0  0  0  0  0  0  0  0  0
  -21.2680  -13.1930   22.3830 H   0  0  0  0  0  0  0  0  0  0  0  0
  -25.4840  -15.3370   20.4000 N   0  0  0  0  0  0  0  0  0  0  0  0
  -24.7060  -15.9740   20.5360 H   0  0  0  0  0  0  0  0  0  0  0  0
  -26.2980  -15.7890   20.0070 H   0  0  0  0  0  0  0  0  0  0  0  0
  -33.3970  -19.5950   21.1360 N   0  0  0  0  0  0  0  0  0  0  0  0
  -33.6350  -20.5040   21.5200 H   0  0  0  0  0  0  0  0  0  0  0  0
  -34.0120  -18.8580   21.4680 H   0  0  0  0  0  0  0  0  0  0  0  0
  -28.3900  -26.5280   20.1990 O   0  0  0  0  0  0  0  0  0  0  0  0
  -24.6340  -31.9460   23.2370 C   0  0  0  0  0  0  0  0  0  0  0  0
  -27.2620  -27.3860   20.1240 C   0  0  0  0  0  0  0  0  0  0  0  0
  -23.4360  -30.5580   21.5860 C   0  0  0  0  0  3  0  0  0  0  0  0
  -24.8900  -29.0260   20.1320 C   0  0  0  0  0  0  0  0  0  0  0  0
  -25.9750  -30.8820   21.3980 C   0  0  0  0  0  2  0  0  0  0  0  0
  -26.0600  -29.5060   20.7330 C   0  0  0  0  0  0  0  0  0  0  0  0
  -27.2420  -28.6980   20.7180 C   0  0  0  0  0  3  0  0  0  0  0  0
  -26.0640  -26.9730   19.4980 C   0  0  0  0  0  3  0  0  0  0  0  0
  -24.8980  -27.7700   19.5040 C   0  0  0  0  0  3  0  0  0  0  0  0
  -23.6500  -29.8990   20.1960 C   0  0  0  0  0  2  0  0  0  0  0  0
  -24.7010  -31.1480   22.1300 N   0  0  0  0  0  0  0  0  0  0  0  0
  -23.5510  -32.2100   23.7780 O   0  0  0  0  0  0  0  0  0  0  0  0
  -22.7820  -29.5280   22.5390 C   0  0  0  0  0  0  0  0  0  0  0  0
  -21.4590  -29.3310   22.4060 N   0  0  0  0  0  0  0  0  0  0  0  0
  -23.4650  -28.9100   23.3600 O   0  0  0  0  0  0  0  0  0  0  0  0
  -20.9640  -29.8820   21.7190 H   0  0  0  0  0  0  0  0  0  0  0  0
  -18.1010  -28.0680   22.8840 C   0  0  0  0  0  0  0  0  0  0  0  0
  -20.6520  -28.3750   23.1680 C   0  0  0  0  0  3  0  0  0  0  0  0
  -20.7840  -26.9470   22.5870 C   0  0  0  0  0  2  0  0  0  0  0  0
  -19.6940  -26.6090   21.5660 C   0  0  0  0  0  2  0  0  0  0  0  0
  -18.3060  -26.7250   22.2030 C   0  0  0  0  0  2  0  0  0  0  0  0
  -19.2020  -28.8490   23.3230 C   0  0  0  0  0  0  0  0  0  0  0  0
  -18.9550  -30.1040   23.9190 C   0  0  0  0  0  3  0  0  0  0  0  0
  -17.6400  -30.5790   24.0820 C   0  0  0  0  0  3  0  0  0  0  0  0
  -16.5530  -29.7940   23.6580 C   0  0  0  0  0  3  0  0  0  0  0  0
  -16.7840  -28.5410   23.0650 C   0  0  0  0  0  3  0  0  0  0  0  0
  -25.9120  -32.5850   23.8620 C   0  0  0  0  0  3  0  0  0  0  0  0
  -25.5930  -33.9790   24.2040 N   0  0  0  0  0  0  0  0  0  0  0  0
  -25.8900  -35.0390   23.4410 C   0  0  0  0  0  0  0  0  0  0  0  0
  -26.5300  -34.9470   22.3900 O   0  0  0  0  0  0  0  0  0  0  0  0
  -25.0240  -34.1230   25.0250 H   0  0  0  0  0  0  0  0  0  0  0  0
  -24.1240  -36.8100   23.1530 C   0  0  0  0  0  1  0  0  0  0  0  0
  -25.4000  -36.4200   23.9190 C   0  0  0  0  0  3  0  0  0  0  0  0
  -27.5420  -37.3440   24.6850 C   0  0  0  0  0  1  0  0  0  0  0  0
  -26.4120  -37.4890   23.7710 N   0  0  0  0  0  0  0  0  0  0  0  0
  -25.9960  -38.4040   23.9230 H   0  0  0  0  0  0  0  0  0  0  0  0
  -26.4340  -31.8100   25.1350 C   0  0  1  0  0  0  0  0  0  0  0  0
  -25.3430  -31.5560   26.2010 C   0  0  0  0  0  1  0  0  0  0  0  0
  -27.0300  -30.4410   24.7370 C   0  0  0  0  0  1  0  0  0  0  0  0
  -27.5770  -32.6110   25.8040 C   0  0  0  0  0  1  0  0  0  0  0  0
  1  8  2  0
  2  7  1  0
  3  4  1  0
  3  5  1  0
  4  6  1  0
  5 58  1  0
  5  1  1  0
  6  1  1  0
  6  2  1  0
  7 10  1  0
  7  9  1  0
 11 15  1  0
 12 16  2  0
 12 14  1  0
 13 15  2  0
 14  2  1  0
 14 11  2  0
 15 55  1  0
 16 13  1  0
 17 25  1  0
 18 23  1  0
 19 20  1  0
 19 18  1  0
 21 20  1  0
 21 30  1  0
 21 22  1  0
 23 17  1  0
 23 22  1  0
 24 17  2  0
 25 16  1  0
 25 26  1  0
 27 28  2  0
 28 47  1  0
 29 28  1  0
 29 32  1  0
 30 31  1  0
 30 27  1  0
 31 29  2  0
 32 33  1  0
 33 34  2  0
 35 38  1  0
 35 34  1  0
 36 35  2  0
 37 36  1  0
 37 32  2  0
 38 39  1  0
 39 40  1  0
 40 41  2  0
 42 41  1  0
 42 46  1  0
 43 42  2  0
 44 39  2  0
 44 43  1  0
 45 44  1  0
 47 48  1  0
 48 51  1  0
 48 50  1  0
 49 47  2  0
 52 53  1  0
 52 27  1  0
 54 52  1  0
 55 57  1  0
 55 56  1  0
 59 70  2  0
 60 58  1  0
 60 65  1  0
 61 69  1  0
 61 71  1  0
 62 68  1  0
 62 64  1  0
 63 69  1  0
 64 63  1  0
 65 64  2  0
 66 67  1  0
 66 60  2  0
 67 62  2  0
 68 61  1  0
 69 59  1  0
 71 73  2  0
 72 71  1  0
 74 72  1  0
 75 84  2  0
 75 80  1  0
 76 72  1  0
 76 80  1  0
 77 76  1  0
 78 79  1  0
 78 77  1  0
 79 75  1  0
 80 81  2  0
 81 82  1  0
 83 82  2  0
 84 83  1  0
 85 59  1  0
 85 86  1  0
 85 95  1  0
 86 89  1  0
 87 91  1  0
 87 86  1  0
 88 87  2  0
 91 90  1  0
 93 91  1  0
 93 94  1  0
 93 92  1  0
 95 98  1  1
 95 96  1  0
 97 95  1  0
M  ISO  4   5 101  17 100  25 100  58 101
M  END
>  <TORSDO>  (39) 
F 18

>  <SCORE>  (39) 
-15.172

>  <name>  (39) 
38

>  <ligand_id>  (39) 
38

>  <original_smiles>  (39) 
[H]c1c([H])c([H])c2c(c1[H])C([H])([H])C([H])([H])C([H])([H])C2([H])N([H])C(=O)C1([H])N(C(=O)C([H])(N([H])C(=O)C([H])(N([H])C([H])([H])[H])C([H])([H])[H])C(C([H])([H])[H])(C([H])([H])[H])C([H])([H])[H])C([H])([H])c2c([H])c(OC3([H])C(=O)N(C(c4c([H])c(N([H])[H])c([H])c(N([H])C(=O)N5C([H])([H])C([H])([H])C([H])([H])C([H])(n6nc(-c7c([H])c([H])c(Oc8c([H])c([H])c(F)c([H])c8F)c([H])c7[H])c(C(=O)N([H])[H])c6N([H])[H])C5([H])[H])c4[H])=[N+]([H])[H])C([H])([H])C3([H])[H])c([H])c([H])c2C1([H])[H]

>  <smiles>  (39) 
[H]c1c([H])c([H])c2c(c1[H])C([H])([H])C([H])([H])C([H])([H])C2([H])N([H])C(=O)C1([H])N(C(=O)C([H])(N([H])C(=O)C([H])(N([H])C([H])([H])[H])C([H])([H])[H])C(C([H])([H])[H])(C([H])([H])[H])C([H])([H])[H])C([H])([H])c2c([H])c(OC3([H])C(=O)N(C(c4c([H])c(N([H])[H])c([H])c(N([H])C(=O)N5C([H])([H])C([H])([H])C([H])([H])C([H])(n6nc(-c7c([H])c([H])c(Oc8c([H])c([H])c(F)c([H])c8F)c([H])c7[H])c(C(=O)N([H])[H])c6N([H])[H])C5([H])[H])c4[H])=[N+]([H])[H])C([H])([H])C3([H])[H])c([H])c([H])c2C1([H])[H]

$$$$
39:0:0
     RDKit          3D

 90 98  0  0  1  0  0  0  0  0999 V2000
  -28.9950  -22.1680   19.9140 C   0  0  0  0  0  2  0  0  0  0  0  0
  -28.8300  -23.6390   20.5810 C   0  0  0  0  0  0  0  0  0  0  0  0
  -29.2730  -23.8180   21.7210 O   0  0  0  0  0  0  0  0  0  0  0  0
  -28.0860  -24.8560   19.8210 C   0  0  0  0  0  2  0  0  0  0  0  0
  -28.2630  -26.3020   20.2730 O   0  0  0  0  0  0  0  0  0  0  0  0
  -24.6120  -31.8700   23.2390 C   0  0  0  0  0  0  0  0  0  0  0  0
  -27.1850  -27.2300   20.1810 C   0  0  0  0  0  0  0  0  0  0  0  0
  -23.4020  -30.4780   21.6030 C   0  0  0  0  0  3  0  0  0  0  0  0
  -24.8430  -28.9190   20.1670 C   0  0  0  0  0  0  0  0  0  0  0  0
  -25.9500  -30.7610   21.4250 C   0  0  0  0  0  2  0  0  0  0  0  0
  -26.0190  -29.3770   20.7730 C   0  0  0  0  0  0  0  0  0  0  0  0
  -27.1890  -28.5440   20.7750 C   0  0  0  0  0  3  0  0  0  0  0  0
  -25.9890  -26.8640   19.5190 C   0  0  0  0  0  3  0  0  0  0  0  0
  -24.8370  -27.6730   19.5270 C   0  0  0  0  0  3  0  0  0  0  0  0
  -23.6140  -29.8050   20.2200 C   0  0  0  0  0  2  0  0  0  0  0  0
  -24.6740  -31.0560   22.1440 N   0  0  0  0  0  0  0  0  0  0  0  0
  -23.5290  -32.1540   23.7730 O   0  0  0  0  0  0  0  0  0  0  0  0
  -22.7330  -29.4650   22.5630 C   0  0  0  0  0  0  0  0  0  0  0  0
  -21.4060  -29.2920   22.4390 N   0  0  0  0  0  0  0  0  0  0  0  0
  -23.4090  -28.8380   23.3830 O   0  0  0  0  0  0  0  0  0  0  0  0
  -20.9180  -29.8490   21.7510 H   0  0  0  0  0  0  0  0  0  0  0  0
  -18.0270  -28.0930   22.9400 C   0  0  0  0  0  0  0  0  0  0  0  0
  -20.5850  -28.3570   23.2120 C   0  0  0  0  0  3  0  0  0  0  0  0
  -20.6880  -26.9220   22.6440 C   0  0  0  0  0  2  0  0  0  0  0  0
  -19.5890  -26.5940   21.6280 C   0  0  0  0  0  2  0  0  0  0  0  0
  -18.2060  -26.7410   22.2700 C   0  0  0  0  0  2  0  0  0  0  0  0
  -19.1440  -28.8580   23.3680 C   0  0  0  0  0  0  0  0  0  0  0  0
  -18.9220  -30.1220   23.9570 C   0  0  0  0  0  3  0  0  0  0  0  0
  -17.6170  -30.6220   24.1200 C   0  0  0  0  0  3  0  0  0  0  0  0
  -16.5140  -29.8540   23.7070 C   0  0  0  0  0  3  0  0  0  0  0  0
  -16.7200  -28.5910   23.1230 C   0  0  0  0  0  3  0  0  0  0  0  0
  -25.8960  -32.5010   23.8600 C   0  0  0  0  0  3  0  0  0  0  0  0
  -26.4110  -31.7300   25.1360 C   0  0  1  0  0  0  0  0  0  0  0  0
  -25.3190  -31.4990   26.2080 C   0  0  0  0  0  1  0  0  0  0  0  0
  -26.9870  -30.3480   24.7500 C   0  0  0  0  0  1  0  0  0  0  0  0
  -27.5670  -32.5200   25.7950 C   0  0  0  0  0  1  0  0  0  0  0  0
  -25.5900  -33.9000   24.1920 N   0  0  0  0  0  0  0  0  0  0  0  0
  -25.9170  -34.9550   23.4340 C   0  0  0  0  0  0  0  0  0  0  0  0
  -26.5780  -34.8520   22.3970 O   0  0  0  0  0  0  0  0  0  0  0  0
  -25.0000  -34.0540   24.9980 H   0  0  0  0  0  0  0  0  0  0  0  0
  -24.1850  -36.7510   23.1030 C   0  0  0  0  0  1  0  0  0  0  0  0
  -25.4360  -36.3440   23.8980 C   0  0  0  0  0  3  0  0  0  0  0  0
  -27.5820  -37.2260   24.7010 C   0  0  0  0  0  1  0  0  0  0  0  0
  -26.4680  -37.3960   23.7730 N   0  0  0  0  0  0  0  0  0  0  0  0
  -26.0650  -38.3160   23.9260 H   0  0  0  0  0  0  0  0  0  0  0  0
  -29.0640  -20.8940   20.7650 N   0  0  0  0  0  0  0  0  0  0  0  0
  -28.4200  -20.9020   21.5520 H   0  0  0  0  0  0  0  0  0  0  0  0
  -30.7710  -17.8750   19.4430 C   0  0  0  0  0  3  0  0  0  0  0  0
  -30.5350  -19.3020   19.4280 C   0  0  0  0  0  3  0  0  0  0  0  0
  -29.9420  -17.3020   20.3800 C   0  0  0  0  0  0  0  0  0  0  0  0
  -29.5720  -19.5820   20.3630 C   0  0  0  0  0  0  0  0  0  0  0  0
  -29.1890  -18.3570   20.9590 O   0  0  0  0  0  0  0  0  0  0  0  0
  -30.5500  -14.7950   20.3350 C   0  0  0  0  0  0  0  0  0  0  0  0
  -30.3590  -12.5000   19.3430 C   0  0  0  0  0  2  0  0  0  0  0  0
  -29.4170  -12.5640   18.1180 C   0  0  0  0  0  2  0  0  0  0  0  0
  -27.9490  -12.3860   18.5540 C   0  0  0  0  0  2  0  0  0  0  0  0
  -27.5790  -13.2740   19.7720 C   0  0  0  0  0  3  0  0  0  0  0  0
  -28.6420  -13.1930   20.8890 C   0  0  0  0  0  2  0  0  0  0  0  0
  -29.9370  -13.5560   20.2950 N   0  0  0  0  0  0  0  0  0  0  0  0
  -31.7230  -14.8900   19.9570 O   0  0  0  0  0  0  0  0  0  0  0  0
  -29.7870  -15.9210   20.6580 N   0  0  0  0  0  0  0  0  0  0  0  0
  -28.9090  -15.6860   21.0940 H   0  0  0  0  0  0  0  0  0  0  0  0
  -25.1940  -13.8650   20.5040 C   0  0  0  0  0  0  0  0  0  0  0  0
  -24.1300  -13.0920   20.8810 C   0  0  0  0  0  0  0  0  0  0  0  0
  -24.5930  -11.7410   20.8530 C   0  0  0  0  0  0  0  0  0  0  0  0
  -26.2380  -12.9850   20.2660 N   0  0  0  0  0  0  0  0  0  0  0  0
  -25.8820  -11.7020   20.5400 N   0  0  0  0  0  0  0  0  0  0  0  0
  -23.8650  -10.4800   21.0500 C   0  0  0  0  0  0  0  0  0  0  0  0
  -24.3110   -9.5060   21.9700 C   0  0  0  0  0  3  0  0  0  0  0  0
  -23.5840   -8.3100   22.1560 C   0  0  0  0  0  3  0  0  0  0  0  0
  -22.3970   -8.0790   21.4190 C   0  0  0  0  0  0  0  0  0  0  0  0
  -21.9700   -9.0420   20.4880 C   0  0  0  0  0  3  0  0  0  0  0  0
  -22.6980  -10.2290   20.3010 C   0  0  0  0  0  3  0  0  0  0  0  0
  -21.6400   -6.9370   21.5150 O   0  0  0  0  0  0  0  0  0  0  0  0
  -21.6220   -6.1790   22.6580 C   0  0  0  0  0  0  0  0  0  0  0  0
  -21.2430   -6.7200   23.9070 C   0  0  0  0  0  3  0  0  0  0  0  0
  -21.1720   -5.8890   25.0420 C   0  0  0  0  0  3  0  0  0  0  0  0
  -21.4700   -4.5180   24.9320 C   0  0  0  0  0  0  0  0  0  0  0  0
  -21.8410   -3.9760   23.6880 C   0  0  0  0  0  3  0  0  0  0  0  0
  -21.9140   -4.8040   22.5550 C   0  0  0  0  0  0  0  0  0  0  0  0
  -22.2520   -4.2720   21.3550 F   0  0  0  0  0  0  0  0  0  0  0  0
  -21.3930   -3.7170   26.0200 F   0  0  0  0  0  0  0  0  0  0  0  0
  -22.7340  -13.5710   21.1550 C   0  0  0  0  0  0  0  0  0  0  0  0
  -22.0100  -12.8820   22.0280 N   0  0  0  0  0  0  0  0  0  0  0  0
  -22.2950  -14.5930   20.6290 O   0  0  0  0  0  0  0  0  0  0  0  0
  -22.3780  -12.0550   22.4750 H   0  0  0  0  0  0  0  0  0  0  0  0
  -21.0720  -13.1850   22.2540 H   0  0  0  0  0  0  0  0  0  0  0  0
  -25.3560  -15.2350   20.3190 N   0  0  0  0  0  0  0  0  0  0  0  0
  -24.5860  -15.8850   20.4230 H   0  0  0  0  0  0  0  0  0  0  0  0
  -26.1950  -15.6720   19.9580 H   0  0  0  0  0  0  0  0  0  0  0  0
  1  2  1  0
  1 46  1  0
  2  3  2  0
  4  5  1  0
  4  2  1  0
  6 17  2  0
  7  5  1  0
  7 12  1  0
  8 16  1  0
  8 18  1  0
  9 15  1  0
  9 11  1  0
 10 16  1  0
 11 12  2  0
 11 10  1  0
 13 14  1  0
 13  7  2  0
 14  9  2  0
 15  8  1  0
 16  6  1  0
 18 20  2  0
 19 18  1  0
 21 19  1  0
 22 31  2  0
 22 27  1  0
 23 19  1  0
 23 27  1  0
 24 23  1  0
 25 26  1  0
 25 24  1  0
 26 22  1  0
 27 28  2  0
 28 29  1  0
 30 29  2  0
 31 30  1  0
 32  6  1  0
 32 37  1  0
 32 33  1  0
 33 36  1  1
 33 34  1  0
 35 33  1  0
 37 40  1  0
 38 42  1  0
 38 37  1  0
 39 38  2  0
 42 41  1  0
 44 42  1  0
 44 45  1  0
 44 43  1  0
 46 47  1  0
 48 50  2  0
 49 48  1  0
 49 51  2  0
 50 61  1  0
 50 52  1  0
 51 46  1  0
 51 52  1  0
 53 61  1  0
 54 59  1  0
 55 56  1  0
 55 54  1  0
 57 56  1  0
 57 66  1  0
 57 58  1  0
 59 53  1  0
 59 58  1  0
 60 53  2  0
 61 62  1  0
 63 64  2  0
 64 83  1  0
 65 64  1  0
 65 68  1  0
 66 63  1  0
 66 67  1  0
 67 65  2  0
 68 69  1  0
 69 70  2  0
 71 74  1  0
 71 70  1  0
 72 71  2  0
 73 72  1  0
 73 68  2  0
 74 75  1  0
 75 76  1  0
 76 77  2  0
 78 77  1  0
 78 82  1  0
 79 78  2  0
 80 75  2  0
 80 79  1  0
 81 80  1  0
 83 84  1  0
 84 87  1  0
 84 86  1  0
 85 83  2  0
 88 89  1  0
 88 63  1  0
 90 88  1  0
M  ISO  4   4 101   5 101  53 100  61 100
M  END
>  <TORSDO>  (40) 
F 20

>  <SCORE>  (40) 
-13.807

>  <name>  (40) 
39

>  <ligand_id>  (40) 
39

>  <original_smiles>  (40) 
[H]c1c(N([H])C(=O)N2C([H])([H])C([H])([H])C([H])([H])C([H])(n3nc(-c4c([H])c([H])c(Oc5c([H])c([H])c(F)c([H])c5F)c([H])c4[H])c(C(=O)N([H])[H])c3N([H])[H])C2([H])[H])oc(N([H])C([H])([H])C(=O)C([H])([H])Oc2c([H])c([H])c3c(c2[H])C([H])([H])N(C(=O)C([H])(N([H])C(=O)C([H])(N([H])C([H])([H])[H])C([H])([H])[H])C(C([H])([H])[H])(C([H])([H])[H])C([H])([H])[H])C([H])(C(=O)N([H])C2([H])c4c([H])c([H])c([H])c([H])c4C([H])([H])C([H])([H])C2([H])[H])C3([H])[H])c1[H]

>  <smiles>  (40) 
[H]c1c(N([H])C(=O)N2C([H])([H])C([H])([H])C([H])([H])C([H])(n3nc(-c4c([H])c([H])c(Oc5c([H])c([H])c(F)c([H])c5F)c([H])c4[H])c(C(=O)N([H])[H])c3N([H])[H])C2([H])[H])oc(N([H])C([H])([H])C(=O)C([H])([H])Oc2c([H])c([H])c3c(c2[H])C([H])([H])N(C(=O)C([H])(N([H])C(=O)C([H])(N([H])C([H])([H])[H])C([H])([H])[H])C(C([H])([H])[H])(C([H])([H])[H])C([H])([H])[H])C([H])(C(=O)N([H])C2([H])c4c([H])c([H])c([H])c([H])c4C([H])([H])C([H])([H])C2([H])[H])C3([H])[H])c1[H]

$$$$
40:0:0
     RDKit          3D

 98107  0  0  1  0  0  0  0  0999 V2000
  -28.7140  -23.7440   19.6570 C   0  0  0  0  0  0  0  0  0  0  0  0
  -30.2870  -21.4630   19.3520 C   0  0  0  0  0  3  0  0  0  0  0  0
  -30.3090  -25.2600   18.8020 C   0  0  0  0  0  2  0  0  0  0  0  0
  -30.7820  -23.8100   18.5810 C   0  0  0  0  0  2  0  0  0  0  0  0
  -28.7930  -25.2310   18.9800 C   0  0  1  0  0  0  0  0  0  0  0  0
  -28.1390  -25.2060   17.5760 C   0  0  0  0  0  1  0  0  0  0  0  0
  -29.8750  -22.8480   19.2700 N   0  0  0  0  0  0  0  0  0  0  0  0
  -31.5020  -21.2260   18.8020 N   0  0  0  0  0  0  0  0  0  0  0  0
  -27.7610  -23.3570   20.3430 O   0  0  0  0  0  0  0  0  0  0  0  0
  -31.9080  -20.3060   18.8600 H   0  0  0  0  0  0  0  0  0  0  0  0
  -32.0540  -21.9510   18.3730 H   0  0  0  0  0  0  0  0  0  0  0  0
  -30.2900  -18.7400   19.5030 C   0  0  0  0  0  3  0  0  0  0  0  0
  -29.7630  -20.0950   19.9110 C   0  0  0  0  0  0  0  0  0  0  0  0
  -29.8310  -17.5980   20.2120 C   0  0  0  0  0  0  0  0  0  0  0  0
  -28.8850  -19.9420   20.9560 C   0  0  0  0  0  0  0  0  0  0  0  0
  -28.6860  -18.2390   21.3890 S   0  0  0  0  0  0  0  0  0  0  0  0
  -30.8270  -15.1440   19.8220 C   0  0  0  0  0  0  0  0  0  0  0  0
  -30.7350  -12.8080   18.8710 C   0  0  0  0  0  2  0  0  0  0  0  0
  -29.7090  -12.7830   17.7120 C   0  0  0  0  0  2  0  0  0  0  0  0
  -28.2790  -12.5520   18.2410 C   0  0  0  0  0  2  0  0  0  0  0  0
  -27.9460  -13.4580   19.4550 C   0  0  0  0  0  3  0  0  0  0  0  0
  -29.0760  -13.4290   20.5070 C   0  0  0  0  0  2  0  0  0  0  0  0
  -30.3100  -13.8580   19.8310 N   0  0  0  0  0  0  0  0  0  0  0  0
  -31.9700  -15.3320   19.3930 O   0  0  0  0  0  0  0  0  0  0  0  0
  -29.9330  -16.1730   20.1530 N   0  0  0  0  0  0  0  0  0  0  0  0
  -29.1100  -15.7390   20.5440 H   0  0  0  0  0  0  0  0  0  0  0  0
  -25.6280  -14.0120   20.4010 C   0  0  0  0  0  0  0  0  0  0  0  0
  -24.5900  -13.2200   20.8140 C   0  0  0  0  0  0  0  0  0  0  0  0
  -25.0430  -11.8720   20.6730 C   0  0  0  0  0  0  0  0  0  0  0  0
  -26.6430  -13.1440   20.0340 N   0  0  0  0  0  0  0  0  0  0  0  0
  -26.3040  -11.8490   20.2600 N   0  0  0  0  0  0  0  0  0  0  0  0
  -24.3260  -10.6030   20.8520 C   0  0  0  0  0  0  0  0  0  0  0  0
  -24.7030   -9.6750   21.8480 C   0  0  0  0  0  3  0  0  0  0  0  0
  -23.9860   -8.4700   22.0120 C   0  0  0  0  0  3  0  0  0  0  0  0
  -22.8780   -8.1840   21.1800 C   0  0  0  0  0  0  0  0  0  0  0  0
  -22.5220   -9.1000   20.1740 C   0  0  0  0  0  3  0  0  0  0  0  0
  -23.2400  -10.2960   20.0090 C   0  0  0  0  0  3  0  0  0  0  0  0
  -22.1400   -7.0280   21.2490 O   0  0  0  0  0  0  0  0  0  0  0  0
  -21.8390   -6.4370   22.4500 C   0  0  0  0  0  0  0  0  0  0  0  0
  -21.1190   -7.1180   23.4560 C   0  0  0  0  0  3  0  0  0  0  0  0
  -20.7720   -6.4500   24.6470 C   0  0  0  0  0  3  0  0  0  0  0  0
  -21.1350   -5.1030   24.8310 C   0  0  0  0  0  0  0  0  0  0  0  0
  -21.8480   -4.4220   23.8290 C   0  0  0  0  0  3  0  0  0  0  0  0
  -22.1960   -5.0870   22.6410 C   0  0  0  0  0  0  0  0  0  0  0  0
  -22.8650   -4.4200   21.6700 F   0  0  0  0  0  0  0  0  0  0  0  0
  -20.7950   -4.4580   25.9730 F   0  0  0  0  0  0  0  0  0  0  0  0
  -23.2210  -13.6840   21.2200 C   0  0  0  0  0  0  0  0  0  0  0  0
  -22.5720  -12.9590   22.1230 N   0  0  0  0  0  0  0  0  0  0  0  0
  -22.7400  -14.7240   20.7710 O   0  0  0  0  0  0  0  0  0  0  0  0
  -22.9760  -12.1170   22.5070 H   0  0  0  0  0  0  0  0  0  0  0  0
  -21.6570  -13.2500   22.4380 H   0  0  0  0  0  0  0  0  0  0  0  0
  -25.7830  -15.3910   20.2830 N   0  0  0  0  0  0  0  0  0  0  0  0
  -25.0210  -16.0310   20.4760 H   0  0  0  0  0  0  0  0  0  0  0  0
  -26.5830  -15.8450   19.8630 H   0  0  0  0  0  0  0  0  0  0  0  0
  -28.1840  -20.8890   21.6920 N   0  0  0  0  0  0  0  0  0  0  0  0
  -27.9100  -21.7910   21.2990 H   0  0  0  0  0  0  0  0  0  0  0  0
  -27.5060  -20.5770   22.3800 H   0  0  0  0  0  0  0  0  0  0  0  0
  -28.5210  -26.5510   19.7340 O   0  0  0  0  0  0  0  0  0  0  0  0
  -24.7520  -31.8050   23.1430 C   0  0  0  0  0  0  0  0  0  0  0  0
  -27.3710  -27.4090   19.7340 C   0  0  0  0  0  0  0  0  0  0  0  0
  -23.5290  -30.4570   21.4790 C   0  0  0  0  0  3  0  0  0  0  0  0
  -24.9650  -29.0220   19.9120 C   0  0  0  0  0  0  0  0  0  0  0  0
  -26.0560  -30.8410   21.2160 C   0  0  0  0  0  2  0  0  0  0  0  0
  -26.1500  -29.4940   20.4860 C   0  0  0  0  0  0  0  0  0  0  0  0
  -27.3470  -28.7030   20.3820 C   0  0  0  0  0  3  0  0  0  0  0  0
  -26.1390  -27.0040   19.1750 C   0  0  0  0  0  3  0  0  0  0  0  0
  -24.9670  -27.7860   19.2470 C   0  0  0  0  0  3  0  0  0  0  0  0
  -23.7090  -29.8640   20.0570 C   0  0  0  0  0  2  0  0  0  0  0  0
  -24.8000  -31.0530   22.0020 N   0  0  0  0  0  0  0  0  0  0  0  0
  -23.6810  -32.0200   23.7310 O   0  0  0  0  0  0  0  0  0  0  0  0
  -22.9300  -29.3740   22.4110 C   0  0  0  0  0  0  0  0  0  0  0  0
  -21.6170  -29.1160   22.2830 N   0  0  0  0  0  0  0  0  0  0  0  0
  -23.6500  -28.7680   23.2100 O   0  0  0  0  0  0  0  0  0  0  0  0
  -21.0910  -29.6610   21.6150 H   0  0  0  0  0  0  0  0  0  0  0  0
  -18.3420  -27.6300   22.7060 C   0  0  0  0  0  0  0  0  0  0  0  0
  -20.8650  -28.1030   23.0270 C   0  0  0  0  0  3  0  0  0  0  0  0
  -21.0980  -26.6920   22.4360 C   0  0  0  0  0  2  0  0  0  0  0  0
  -20.0450  -26.2920   21.3970 C   0  0  0  0  0  2  0  0  0  0  0  0
  -18.6440  -26.3110   22.0160 C   0  0  0  0  0  2  0  0  0  0  0  0
  -19.3850  -28.4780   23.1670 C   0  0  0  0  0  0  0  0  0  0  0  0
  -19.0490  -29.7080   23.7720 C   0  0  0  0  0  3  0  0  0  0  0  0
  -17.7030  -30.0930   23.9210 C   0  0  0  0  0  3  0  0  0  0  0  0
  -16.6750  -29.2440   23.4770 C   0  0  0  0  0  3  0  0  0  0  0  0
  -16.9960  -28.0140   22.8750 C   0  0  0  0  0  3  0  0  0  0  0  0
  -26.0340  -32.4510   23.7500 C   0  0  0  0  0  3  0  0  0  0  0  0
  -25.6990  -33.8280   24.1420 N   0  0  0  0  0  0  0  0  0  0  0  0
  -25.9450  -34.9150   23.4000 C   0  0  0  0  0  0  0  0  0  0  0  0
  -26.5460  -34.8660   22.3230 O   0  0  0  0  0  0  0  0  0  0  0  0
  -25.1550  -33.9380   24.9860 H   0  0  0  0  0  0  0  0  0  0  0  0
  -24.1250  -36.6470   23.2430 C   0  0  0  0  0  1  0  0  0  0  0  0
  -25.4450  -36.2730   23.9350 C   0  0  0  0  0  3  0  0  0  0  0  0
  -27.6010  -37.2330   24.6180 C   0  0  0  0  0  1  0  0  0  0  0  0
  -26.4240  -37.3700   23.7630 N   0  0  0  0  0  0  0  0  0  0  0  0
  -25.9940  -38.2690   23.9580 H   0  0  0  0  0  0  0  0  0  0  0  0
  -26.6050  -31.6510   24.9850 C   0  0  1  0  0  0  0  0  0  0  0  0
  -25.5490  -31.3470   26.0730 C   0  0  0  0  0  1  0  0  0  0  0  0
  -27.2150  -30.3050   24.5310 C   0  0  0  0  0  1  0  0  0  0  0  0
  -27.7520  -32.4540   25.6440 C   0  0  0  0  0  1  0  0  0  0  0  0
  1  9  2  0
  2  8  1  0
  2 13  1  0
  3  5  1  0
  4  3  1  0
  4  7  1  0
  5  6  1  6
  5  1  1  0
  5 58  1  0
  7  2  1  0
  7  1  1  0
  8 10  1  0
 11  8  1  0
 12 13  1  0
 12 14  2  0
 13 15  2  0
 14 16  1  0
 15 16  1  0
 15 55  1  0
 17 23  1  0
 17 25  1  0
 18 23  1  0
 19 20  1  0
 19 18  1  0
 21 20  1  0
 21 30  1  0
 21 22  1  0
 23 22  1  0
 24 17  2  0
 25 14  1  0
 25 26  1  0
 27 28  2  0
 28 47  1  0
 29 28  1  0
 29 32  1  0
 30 31  1  0
 30 27  1  0
 31 29  2  0
 32 33  1  0
 33 34  2  0
 35 38  1  0
 35 34  1  0
 36 35  2  0
 37 36  1  0
 37 32  2  0
 38 39  1  0
 39 44  2  0
 39 40  1  0
 40 41  2  0
 41 42  1  0
 42 46  1  0
 43 42  2  0
 44 43  1  0
 45 44  1  0
 47 48  1  0
 48 51  1  0
 48 50  1  0
 49 47  2  0
 52 27  1  0
 52 53  1  0
 54 52  1  0
 55 57  1  0
 56 55  1  0
 58 60  1  0
 59 70  2  0
 60 65  1  0
 61 69  1  0
 61 71  1  0
 62 68  1  0
 62 64  1  0
 63 69  1  0
 64 63  1  0
 65 64  2  0
 66 67  1  0
 66 60  2  0
 67 62  2  0
 68 61  1  0
 69 59  1  0
 71 73  2  0
 72 71  1  0
 74 72  1  0
 75 84  2  0
 75 80  1  0
 76 72  1  0
 76 80  1  0
 77 76  1  0
 78 79  1  0
 78 77  1  0
 79 75  1  0
 80 81  2  0
 81 82  1  0
 83 82  2  0
 84 83  1  0
 85 59  1  0
 85 86  1  0
 85 95  1  0
 86 89  1  0
 87 91  1  0
 87 86  1  0
 88 87  2  0
 91 90  1  0
 93 91  1  0
 93 94  1  0
 93 92  1  0
 95 98  1  1
 95 96  1  0
 97 95  1  0
M  ISO  4   5 101  17 100  25 100  58 101
M  END
>  <TORSDO>  (41) 
F 18

>  <SCORE>  (41) 
-12.221

>  <name>  (41) 
40

>  <ligand_id>  (41) 
40

>  <original_smiles>  (41) 
[H]c1c([H])c([H])c2c(c1[H])C([H])([H])C([H])([H])C([H])([H])C2([H])N([H])C(=O)C1([H])N(C(=O)C([H])(N([H])C(=O)C([H])(N([H])C([H])([H])[H])C([H])([H])[H])C(C([H])([H])[H])(C([H])([H])[H])C([H])([H])[H])C([H])([H])c2c([H])c(OC3(C([H])([H])[H])C(=O)N(C(c4c(N([H])[H])sc(N([H])C(=O)N5C([H])([H])C([H])([H])C([H])([H])C([H])(n6nc(-c7c([H])c([H])c(Oc8c([H])c([H])c(F)c([H])c8F)c([H])c7[H])c(C(=O)N([H])[H])c6N([H])[H])C5([H])[H])c4[H])=[N+]([H])[H])C([H])([H])C3([H])[H])c([H])c([H])c2C1([H])[H]

>  <smiles>  (41) 
[H]c1c([H])c([H])c2c(c1[H])C([H])([H])C([H])([H])C([H])([H])C2([H])N([H])C(=O)C1([H])N(C(=O)C([H])(N([H])C(=O)C([H])(N([H])C([H])([H])[H])C([H])([H])[H])C(C([H])([H])[H])(C([H])([H])[H])C([H])([H])[H])C([H])([H])c2c([H])c(OC3(C([H])([H])[H])C(=O)N(C(c4c(N([H])[H])sc(N([H])C(=O)N5C([H])([H])C([H])([H])C([H])([H])C([H])(n6nc(-c7c([H])c([H])c(Oc8c([H])c([H])c(F)c([H])c8F)c([H])c7[H])c(C(=O)N([H])[H])c6N([H])[H])C5([H])[H])c4[H])=[N+]([H])[H])C([H])([H])C3([H])[H])c([H])c([H])c2C1([H])[H]

$$$$
41:0:0
     RDKit          3D

 92101  0  0  1  0  0  0  0  0999 V2000
  -28.8770  -23.7500   20.1240 C   0  0  0  0  0  0  0  0  0  0  0  0
  -28.6760  -22.4710   20.6510 N   0  0  0  0  0  0  0  0  0  0  0  0
  -29.7390  -23.9620   19.2680 O   0  0  0  0  0  0  0  0  0  0  0  0
  -28.0030  -22.4830   21.4050 H   0  0  0  0  0  0  0  0  0  0  0  0
  -30.7120  -14.9330   20.3590 C   0  0  0  0  0  0  0  0  0  0  0  0
  -30.5200  -12.6340   19.3840 C   0  0  0  0  0  2  0  0  0  0  0  0
  -29.5860  -12.6480   18.1540 C   0  0  0  0  0  2  0  0  0  0  0  0
  -28.1190  -12.4640   18.5850 C   0  0  0  0  0  2  0  0  0  0  0  0
  -27.7240  -13.3730   19.7790 C   0  0  0  0  0  3  0  0  0  0  0  0
  -28.7840  -13.3540   20.9020 C   0  0  0  0  0  2  0  0  0  0  0  0
  -30.0650  -13.7150   20.2880 N   0  0  0  0  0  0  0  0  0  0  0  0
  -31.9310  -14.9630   20.1560 O   0  0  0  0  0  0  0  0  0  0  0  0
  -29.0340  -19.9860   21.1000 C   0  0  0  0  0  3  0  0  0  0  0  0
  -29.5920  -18.7410   20.5350 C   0  0  0  0  0  0  0  0  0  0  0  0
  -30.1540  -19.0180   19.3290 C   0  0  0  0  0  0  0  0  0  0  0  0
  -29.1730  -21.1800   20.3560 C   0  0  0  0  0  0  0  0  0  0  0  0
  -29.6260  -17.2430   21.0680 C   0  0  0  0  0  2  0  0  0  0  0  0
  -30.7340  -17.9380   18.4780 C   0  0  0  0  0  2  0  0  0  0  0  0
  -30.0050  -16.5800   18.6970 C   0  0  0  0  0  2  0  0  0  0  0  0
  -29.9740  -16.0990   20.1030 N   0  0  0  0  0  0  0  0  0  0  0  0
  -30.0380  -20.7300   18.8840 S   0  0  0  0  0  0  0  0  0  0  0  0
  -25.3380  -13.9360   20.5200 C   0  0  0  0  0  0  0  0  0  0  0  0
  -24.2790  -13.1510   20.8840 C   0  0  0  0  0  0  0  0  0  0  0  0
  -24.7530  -11.8040   20.8470 C   0  0  0  0  0  0  0  0  0  0  0  0
  -26.3870  -13.0660   20.2770 N   0  0  0  0  0  0  0  0  0  0  0  0
  -26.0450  -11.7780   20.5400 N   0  0  0  0  0  0  0  0  0  0  0  0
  -24.0350  -10.5350   21.0300 C   0  0  0  0  0  0  0  0  0  0  0  0
  -24.4580   -9.5760   21.9780 C   0  0  0  0  0  3  0  0  0  0  0  0
  -23.7410   -8.3730   22.1480 C   0  0  0  0  0  3  0  0  0  0  0  0
  -22.5850   -8.1190   21.3720 C   0  0  0  0  0  0  0  0  0  0  0  0
  -22.1820   -9.0650   20.4130 C   0  0  0  0  0  3  0  0  0  0  0  0
  -22.9000  -10.2600   20.2410 C   0  0  0  0  0  3  0  0  0  0  0  0
  -21.8400   -6.9660   21.4530 O   0  0  0  0  0  0  0  0  0  0  0  0
  -21.7520   -6.2450   22.6160 C   0  0  0  0  0  0  0  0  0  0  0  0
  -21.2380   -6.8090   23.8040 C   0  0  0  0  0  3  0  0  0  0  0  0
  -21.0990   -6.0130   24.9570 C   0  0  0  0  0  3  0  0  0  0  0  0
  -21.4670   -4.6540   24.9250 C   0  0  0  0  0  0  0  0  0  0  0  0
  -21.9730   -4.0890   23.7410 C   0  0  0  0  0  3  0  0  0  0  0  0
  -22.1130   -4.8840   22.5900 C   0  0  0  0  0  0  0  0  0  0  0  0
  -22.5840   -4.3300   21.4450 F   0  0  0  0  0  0  0  0  0  0  0  0
  -21.3260   -3.8850   26.0310 F   0  0  0  0  0  0  0  0  0  0  0  0
  -22.8770  -13.6150   21.1510 C   0  0  0  0  0  0  0  0  0  0  0  0
  -22.1510  -12.9090   22.0120 N   0  0  0  0  0  0  0  0  0  0  0  0
  -22.4320  -14.6380   20.6330 O   0  0  0  0  0  0  0  0  0  0  0  0
  -22.5230  -12.0830   22.4580 H   0  0  0  0  0  0  0  0  0  0  0  0
  -21.2110  -13.2020   22.2340 H   0  0  0  0  0  0  0  0  0  0  0  0
  -25.4910  -15.3100   20.3520 N   0  0  0  0  0  0  0  0  0  0  0  0
  -24.7180  -15.9570   20.4620 H   0  0  0  0  0  0  0  0  0  0  0  0
  -26.3430  -15.7590   20.0390 H   0  0  0  0  0  0  0  0  0  0  0  0
  -27.8210  -25.0120   22.1460 C   0  0  0  0  0  1  0  0  0  0  0  0
  -27.9550  -24.9890   20.6130 C   0  0  0  0  0  3  0  0  0  0  0  0
  -28.2770  -26.4110   20.1720 O   0  0  0  0  0  0  0  0  0  0  0  0
  -24.6040  -31.9260   23.2400 C   0  0  0  0  0  0  0  0  0  0  0  0
  -27.2090  -27.3460   20.1390 C   0  0  0  0  0  0  0  0  0  0  0  0
  -23.4060  -30.5390   21.5900 C   0  0  0  0  0  3  0  0  0  0  0  0
  -24.8610  -29.0080   20.1420 C   0  0  0  0  0  0  0  0  0  0  0  0
  -25.9520  -30.8480   21.4160 C   0  0  0  0  0  2  0  0  0  0  0  0
  -26.0340  -29.4720   20.7500 C   0  0  0  0  0  0  0  0  0  0  0  0
  -27.2130  -28.6550   20.7380 C   0  0  0  0  0  3  0  0  0  0  0  0
  -26.0190  -26.9690   19.4790 C   0  0  0  0  0  3  0  0  0  0  0  0
  -24.8590  -27.7640   19.4950 C   0  0  0  0  0  3  0  0  0  0  0  0
  -23.6240  -29.8830   20.2020 C   0  0  0  0  0  2  0  0  0  0  0  0
  -24.6730  -31.1230   22.1370 N   0  0  0  0  0  0  0  0  0  0  0  0
  -23.5190  -32.1950   23.7770 O   0  0  0  0  0  0  0  0  0  0  0  0
  -22.7490  -29.5100   22.5410 C   0  0  0  0  0  0  0  0  0  0  0  0
  -21.4220  -29.3280   22.4180 N   0  0  0  0  0  0  0  0  0  0  0  0
  -23.4310  -28.8780   23.3510 O   0  0  0  0  0  0  0  0  0  0  0  0
  -20.9280  -29.8880   21.7370 H   0  0  0  0  0  0  0  0  0  0  0  0
  -18.0510  -28.1110   22.9280 C   0  0  0  0  0  0  0  0  0  0  0  0
  -20.6090  -28.3790   23.1830 C   0  0  0  0  0  3  0  0  0  0  0  0
  -20.7140  -26.9540   22.5920 C   0  0  0  0  0  2  0  0  0  0  0  0
  -19.6070  -26.6390   21.5810 C   0  0  0  0  0  2  0  0  0  0  0  0
  -18.2290  -26.7710   22.2350 C   0  0  0  0  0  2  0  0  0  0  0  0
  -19.1690  -28.8730   23.3600 C   0  0  0  0  0  0  0  0  0  0  0  0
  -18.9470  -30.1270   23.9690 C   0  0  0  0  0  3  0  0  0  0  0  0
  -17.6420  -30.6200   24.1480 C   0  0  0  0  0  3  0  0  0  0  0  0
  -16.5380  -29.8550   23.7320 C   0  0  0  0  0  3  0  0  0  0  0  0
  -16.7440  -28.6010   23.1290 C   0  0  0  0  0  3  0  0  0  0  0  0
  -25.8830  -32.5610   23.8680 C   0  0  0  0  0  3  0  0  0  0  0  0
  -25.5730  -33.9610   24.1910 N   0  0  0  0  0  0  0  0  0  0  0  0
  -25.9030  -35.0110   23.4270 C   0  0  0  0  0  0  0  0  0  0  0  0
  -26.5700  -34.9030   22.3950 O   0  0  0  0  0  0  0  0  0  0  0  0
  -24.9830  -34.1190   24.9950 H   0  0  0  0  0  0  0  0  0  0  0  0
  -24.1820  -36.8090   23.0600 C   0  0  0  0  0  1  0  0  0  0  0  0
  -25.4170  -36.4020   23.8800 C   0  0  0  0  0  3  0  0  0  0  0  0
  -27.5450  -37.2880   24.7300 C   0  0  0  0  0  1  0  0  0  0  0  0
  -26.4550  -37.4510   23.7710 N   0  0  0  0  0  0  0  0  0  0  0  0
  -26.0500  -38.3740   23.9060 H   0  0  0  0  0  0  0  0  0  0  0  0
  -26.3900  -31.7960   25.1520 C   0  0  1  0  0  0  0  0  0  0  0  0
  -25.2900  -31.5640   26.2130 C   0  0  0  0  0  1  0  0  0  0  0  0
  -26.9770  -30.4170   24.7730 C   0  0  0  0  0  1  0  0  0  0  0  0
  -27.5360  -32.5940   25.8160 C   0  0  0  0  0  1  0  0  0  0  0  0
  1 51  1  0
  1  2  1  0
  2  4  1  0
  3  1  2  0
  6 11  1  0
  7  8  1  0
  7  6  1  0
  9  8  1  0
  9 25  1  0
  9 10  1  0
 11  5  1  0
 11 10  1  0
 12  5  2  0
 14 17  1  0
 14 13  1  0
 15 14  2  0
 16  2  1  0
 16 13  2  0
 18 19  1  0
 18 15  1  0
 19 20  1  0
 20  5  1  0
 20 17  1  0
 21 15  1  0
 21 16  1  0
 22 23  2  0
 23 42  1  0
 24 23  1  0
 24 27  1  0
 25 22  1  0
 25 26  1  0
 26 24  2  0
 27 28  1  0
 28 29  2  0
 30 33  1  0
 30 29  1  0
 31 30  2  0
 32 31  1  0
 32 27  2  0
 33 34  1  0
 34 35  1  0
 35 36  2  0
 37 36  1  0
 37 41  1  0
 38 37  2  0
 39 34  2  0
 39 38  1  0
 40 39  1  0
 42 43  1  0
 43 46  1  0
 43 45  1  0
 44 42  2  0
 47 48  1  0
 47 22  1  0
 49 47  1  0
 51 50  1  0
 52 51  1  0
 53 64  2  0
 54 52  1  0
 54 59  1  0
 55 63  1  0
 55 65  1  0
 56 62  1  0
 56 58  1  0
 57 63  1  0
 58 57  1  0
 59 58  2  0
 60 61  1  0
 60 54  2  0
 61 56  2  0
 62 55  1  0
 63 53  1  0
 65 67  2  0
 66 65  1  0
 68 66  1  0
 69 78  2  0
 69 74  1  0
 70 66  1  0
 70 74  1  0
 71 70  1  0
 72 73  1  0
 72 71  1  0
 73 69  1  0
 74 75  2  0
 75 76  1  0
 77 76  2  0
 78 77  1  0
 79 53  1  0
 79 80  1  0
 79 89  1  0
 80 83  1  0
 81 85  1  0
 81 80  1  0
 82 81  2  0
 85 84  1  0
 87 85  1  0
 87 88  1  0
 87 86  1  0
 89 92  1  1
 89 90  1  0
 91 89  1  0
M  ISO  4   5 100  20 100  51 101  52 101
M  END
>  <TORSDO>  (42) 
F 17

>  <SCORE>  (42) 
-14.965

>  <name>  (42) 
41

>  <ligand_id>  (42) 
41

>  <original_smiles>  (42) 
[H]c1c([H])c([H])c2c(c1[H])C([H])([H])C([H])([H])C([H])([H])C2([H])N([H])C(=O)C1([H])N(C(=O)C([H])(N([H])C(=O)C([H])(N([H])C([H])([H])[H])C([H])([H])[H])C(C([H])([H])[H])(C([H])([H])[H])C([H])([H])[H])C([H])([H])c2c([H])c(OC([H])(C(=O)N([H])c3sc4c(c3[H])C([H])([H])N(C(=O)N3C([H])([H])C([H])([H])C([H])([H])C([H])(n5nc(-c6c([H])c([H])c(Oc7c([H])c([H])c(F)c([H])c7F)c([H])c6[H])c(C(=O)N([H])[H])c5N([H])[H])C3([H])[H])C([H])([H])C4([H])[H])C([H])([H])[H])c([H])c([H])c2C1([H])[H]

>  <smiles>  (42) 
[H]c1c([H])c([H])c2c(c1[H])C([H])([H])C([H])([H])C([H])([H])C2([H])N([H])C(=O)C1([H])N(C(=O)C([H])(N([H])C(=O)C([H])(N([H])C([H])([H])[H])C([H])([H])[H])C(C([H])([H])[H])(C([H])([H])[H])C([H])([H])[H])C([H])([H])c2c([H])c(OC([H])(C(=O)N([H])c3sc4c(c3[H])C([H])([H])N(C(=O)N3C([H])([H])C([H])([H])C([H])([H])C([H])(n5nc(-c6c([H])c([H])c(Oc7c([H])c([H])c(F)c([H])c7F)c([H])c6[H])c(C(=O)N([H])[H])c5N([H])[H])C3([H])[H])C([H])([H])C4([H])[H])C([H])([H])[H])c([H])c([H])c2C1([H])[H]

$$$$
42:0:0
     RDKit          3D

 95103  0  0  1  0  0  0  0  0999 V2000
  -28.9770  -21.0260   19.9010 N   0  0  0  0  0  0  0  0  0  0  0  0
  -28.0820  -20.8510   19.4520 H   0  0  0  0  0  0  0  0  0  0  0  0
  -31.3870  -17.6540   21.1550 C   0  0  0  0  0  3  0  0  0  0  0  0
  -31.0200  -20.0540   20.8440 C   0  0  0  0  0  3  0  0  0  0  0  0
  -29.2870  -18.4530   20.2070 C   0  0  0  0  0  0  0  0  0  0  0  0
  -30.1300  -17.3130   20.6050 C   0  0  0  0  0  0  0  0  0  0  0  0
  -29.7250  -19.8510   20.3210 C   0  0  0  0  0  0  0  0  0  0  0  0
  -31.8270  -18.9830   21.2610 C   0  0  0  0  0  0  0  0  0  0  0  0
  -33.0520  -19.2370   21.7780 F   0  0  0  0  0  0  0  0  0  0  0  0
  -30.5020  -14.7430   20.1440 C   0  0  0  0  0  0  0  0  0  0  0  0
  -30.2270  -12.5700   18.9400 C   0  0  0  0  0  2  0  0  0  0  0  0
  -29.2420  -12.7910   17.7710 C   0  0  0  0  0  2  0  0  0  0  0  0
  -27.7890  -12.5880   18.2500 C   0  0  0  0  0  2  0  0  0  0  0  0
  -27.4850  -13.3200   19.5880 C   0  0  0  0  0  3  0  0  0  0  0  0
  -28.6040  -13.1190   20.6350 C   0  0  0  0  0  2  0  0  0  0  0  0
  -29.8630  -13.5320   20.0060 N   0  0  0  0  0  0  0  0  0  0  0  0
  -31.6640  -14.8460   19.7440 O   0  0  0  0  0  0  0  0  0  0  0  0
  -29.7580  -15.8650   20.5110 N   0  0  0  0  0  0  0  0  0  0  0  0
  -28.7890  -15.6620   20.7020 H   0  0  0  0  0  0  0  0  0  0  0  0
  -25.1010  -13.7980   20.3960 C   0  0  0  0  0  0  0  0  0  0  0  0
  -24.0880  -12.9750   20.8030 C   0  0  0  0  0  0  0  0  0  0  0  0
  -24.6110  -11.6470   20.7580 C   0  0  0  0  0  0  0  0  0  0  0  0
  -26.1760  -12.9660   20.1220 N   0  0  0  0  0  0  0  0  0  0  0  0
  -25.8900  -11.6670   20.4020 N   0  0  0  0  0  0  0  0  0  0  0  0
  -23.9460  -10.3540   20.9720 C   0  0  0  0  0  0  0  0  0  0  0  0
  -24.3910   -9.4500   21.9620 C   0  0  0  0  0  3  0  0  0  0  0  0
  -23.7230   -8.2230   22.1630 C   0  0  0  0  0  3  0  0  0  0  0  0
  -22.5970   -7.8910   21.3730 C   0  0  0  0  0  0  0  0  0  0  0  0
  -22.1700   -8.7850   20.3750 C   0  0  0  0  0  3  0  0  0  0  0  0
  -22.8410  -10.0020   20.1730 C   0  0  0  0  0  3  0  0  0  0  0  0
  -21.9010   -6.7110   21.4800 O   0  0  0  0  0  0  0  0  0  0  0  0
  -21.7710   -6.0550   22.6780 C   0  0  0  0  0  0  0  0  0  0  0  0
  -21.1650   -6.6650   23.7980 C   0  0  0  0  0  3  0  0  0  0  0  0
  -20.9890   -5.9330   24.9900 C   0  0  0  0  0  3  0  0  0  0  0  0
  -21.4140   -4.5910   25.0620 C   0  0  0  0  0  0  0  0  0  0  0  0
  -22.0160   -3.9830   23.9470 C   0  0  0  0  0  3  0  0  0  0  0  0
  -22.1930   -4.7120   22.7580 C   0  0  0  0  0  0  0  0  0  0  0  0
  -22.7520   -4.1150   21.6780 F   0  0  0  0  0  0  0  0  0  0  0  0
  -21.2420   -3.8850   26.2030 F   0  0  0  0  0  0  0  0  0  0  0  0
  -22.6820  -13.3910   21.1200 C   0  0  0  0  0  0  0  0  0  0  0  0
  -22.0180  -12.6790   22.0250 N   0  0  0  0  0  0  0  0  0  0  0  0
  -22.1770  -14.3860   20.6030 O   0  0  0  0  0  0  0  0  0  0  0  0
  -22.4410  -11.8740   22.4640 H   0  0  0  0  0  0  0  0  0  0  0  0
  -21.0770  -12.9380   22.2810 H   0  0  0  0  0  0  0  0  0  0  0  0
  -25.1920  -15.1730   20.2090 N   0  0  0  0  0  0  0  0  0  0  0  0
  -24.3850  -15.7740   20.3350 H   0  0  0  0  0  0  0  0  0  0  0  0
  -25.9810  -15.6460   19.7910 H   0  0  0  0  0  0  0  0  0  0  0  0
  -26.8230  -18.2850   20.7840 C   0  0  0  0  0  1  0  0  0  0  0  0
  -27.8860  -18.1800   19.6780 C   0  0  0  0  0  2  0  0  0  0  0  0
  -29.0710  -22.4080   20.5430 C   0  0  0  0  0  2  0  0  0  0  0  0
  -28.7350  -23.7600   19.7440 C   0  0  0  0  0  0  0  0  0  0  0  0
  -28.9650  -23.8110   18.5310 O   0  0  0  0  0  0  0  0  0  0  0  0
  -28.6710  -25.2550   21.8930 C   0  0  0  0  0  1  0  0  0  0  0  0
  -28.1110  -25.0480   20.4780 C   0  0  0  0  0  3  0  0  0  0  0  0
  -28.2470  -26.3810   19.8070 O   0  0  0  0  0  0  0  0  0  0  0  0
  -24.5960  -31.7470   23.0850 C   0  0  0  0  0  0  0  0  0  0  0  0
  -27.1430  -27.2540   19.8680 C   0  0  0  0  0  0  0  0  0  0  0  0
  -23.3620  -30.3900   21.4360 C   0  0  0  0  0  3  0  0  0  0  0  0
  -24.7830  -28.8680   19.9490 C   0  0  0  0  0  0  0  0  0  0  0  0
  -25.8960  -30.7140   21.2030 C   0  0  0  0  0  2  0  0  0  0  0  0
  -25.9680  -29.3460   20.5290 C   0  0  0  0  0  0  0  0  0  0  0  0
  -27.1540  -28.5530   20.4710 C   0  0  0  0  0  3  0  0  0  0  0  0
  -25.9380  -26.8310   19.2710 C   0  0  0  0  0  3  0  0  0  0  0  0
  -24.7710  -27.6190   19.3090 C   0  0  0  0  0  3  0  0  0  0  0  0
  -23.5480  -29.7420   20.0370 C   0  0  0  0  0  2  0  0  0  0  0  0
  -24.6400  -30.9660   21.9660 N   0  0  0  0  0  0  0  0  0  0  0  0
  -23.5220  -32.0100   23.6470 O   0  0  0  0  0  0  0  0  0  0  0  0
  -22.7140  -29.3520   22.3840 C   0  0  0  0  0  0  0  0  0  0  0  0
  -21.3860  -29.1780   22.2730 N   0  0  0  0  0  0  0  0  0  0  0  0
  -23.4060  -28.7080   23.1770 O   0  0  0  0  0  0  0  0  0  0  0  0
  -20.8860  -29.7510   21.6080 H   0  0  0  0  0  0  0  0  0  0  0  0
  -18.0140  -27.9850   22.8130 C   0  0  0  0  0  0  0  0  0  0  0  0
  -20.5780  -28.2220   23.0340 C   0  0  0  0  0  3  0  0  0  0  0  0
  -20.6610  -26.8090   22.4120 C   0  0  0  0  0  2  0  0  0  0  0  0
  -19.5350  -26.5240   21.4140 C   0  0  0  0  0  2  0  0  0  0  0  0
  -18.1690  -26.6550   22.0920 C   0  0  0  0  0  2  0  0  0  0  0  0
  -19.1450  -28.7280   23.2410 C   0  0  0  0  0  0  0  0  0  0  0  0
  -18.9460  -29.9730   23.8750 C   0  0  0  0  0  3  0  0  0  0  0  0
  -17.6480  -30.4750   24.0850 C   0  0  0  0  0  3  0  0  0  0  0  0
  -16.5320  -29.7280   23.6720 C   0  0  0  0  0  3  0  0  0  0  0  0
  -16.7150  -28.4850   23.0420 C   0  0  0  0  0  3  0  0  0  0  0  0
  -25.8890  -32.3640   23.7010 C   0  0  0  0  0  3  0  0  0  0  0  0
  -25.5810  -33.7470   24.0920 N   0  0  0  0  0  0  0  0  0  0  0  0
  -25.9000  -34.8310   23.3700 C   0  0  0  0  0  0  0  0  0  0  0  0
  -26.5520  -34.7700   22.3250 O   0  0  0  0  0  0  0  0  0  0  0  0
  -25.0030  -33.8680   24.9100 H   0  0  0  0  0  0  0  0  0  0  0  0
  -24.1660  -36.6340   23.1090 C   0  0  0  0  0  1  0  0  0  0  0  0
  -25.4170  -36.2020   23.8880 C   0  0  0  0  0  3  0  0  0  0  0  0
  -27.5590  -37.0610   24.7290 C   0  0  0  0  0  1  0  0  0  0  0  0
  -26.4500  -37.2590   23.8010 N   0  0  0  0  0  0  0  0  0  0  0  0
  -26.0440  -38.1740   23.9830 H   0  0  0  0  0  0  0  0  0  0  0  0
  -26.4400  -31.5470   24.9340 C   0  0  1  0  0  0  0  0  0  0  0  0
  -25.3740  -31.2610   26.0170 C   0  0  0  0  0  1  0  0  0  0  0  0
  -27.0180  -30.1900   24.4740 C   0  0  0  0  0  1  0  0  0  0  0  0
  -27.6040  -32.3200   25.5960 C   0  0  0  0  0  1  0  0  0  0  0  0
  1  7  1  0
  1 50  1  0
  2  1  1  0
  3  8  1  0
  4  8  2  0
  5  7  2  0
  5  6  1  0
  6  3  2  0
  7  4  1  0
  8  9  1  0
 10 18  1  0
 11 16  1  0
 12 13  1  0
 12 11  1  0
 14 13  1  0
 14 23  1  0
 14 15  1  0
 16 10  1  0
 16 15  1  0
 17 10  2  0
 18  6  1  0
 18 19  1  0
 20 21  2  0
 21 40  1  0
 22 21  1  0
 22 25  1  0
 23 20  1  0
 23 24  1  0
 24 22  2  0
 25 26  1  0
 26 27  2  0
 28 31  1  0
 28 27  1  0
 29 28  2  0
 30 29  1  0
 30 25  2  0
 31 32  1  0
 32 37  2  0
 32 33  1  0
 33 34  2  0
 34 35  1  0
 35 39  1  0
 36 35  2  0
 37 36  1  0
 38 37  1  0
 40 41  1  0
 41 44  1  0
 41 43  1  0
 42 40  2  0
 45 46  1  0
 45 20  1  0
 47 45  1  0
 49  5  1  0
 49 48  1  0
 51 54  1  0
 51 50  1  0
 52 51  2  0
 54 53  1  0
 55 57  1  0
 55 54  1  0
 56 67  2  0
 57 62  1  0
 58 66  1  0
 58 68  1  0
 59 65  1  0
 59 61  1  0
 60 66  1  0
 61 60  1  0
 62 61  2  0
 63 64  1  0
 63 57  2  0
 64 59  2  0
 65 58  1  0
 66 56  1  0
 68 70  2  0
 69 68  1  0
 71 69  1  0
 72 81  2  0
 72 77  1  0
 73 69  1  0
 73 77  1  0
 74 73  1  0
 75 76  1  0
 75 74  1  0
 76 72  1  0
 77 78  2  0
 78 79  1  0
 80 79  2  0
 81 80  1  0
 82 56  1  0
 82 83  1  0
 82 92  1  0
 83 86  1  0
 84 88  1  0
 84 83  1  0
 85 84  2  0
 88 87  1  0
 90 88  1  0
 90 91  1  0
 90 89  1  0
 92 95  1  1
 92 93  1  0
 94 92  1  0
M  ISO  4  10 100  18 100  54 101  55 101
M  END
>  <TORSDO>  (43) 
F 21

>  <SCORE>  (43) 
-12.603

>  <name>  (43) 
42

>  <ligand_id>  (43) 
42

>  <original_smiles>  (43) 
[H]c1c([H])c([H])c2c(c1[H])C([H])([H])C([H])([H])C([H])([H])C2([H])N([H])C(=O)C1([H])N(C(=O)C([H])(N([H])C(=O)C([H])(N([H])C([H])([H])[H])C([H])([H])[H])C(C([H])([H])[H])(C([H])([H])[H])C([H])([H])[H])C([H])([H])c2c([H])c(OC([H])(C(=O)C([H])([H])N([H])c3c([H])c(F)c([H])c(N([H])C(=O)N4C([H])([H])C([H])([H])C([H])([H])C([H])(n5nc(-c6c([H])c([H])c(Oc7c([H])c([H])c(F)c([H])c7F)c([H])c6[H])c(C(=O)N([H])[H])c5N([H])[H])C4([H])[H])c3C([H])([H])C([H])([H])[H])C([H])([H])[H])c([H])c([H])c2C1([H])[H]

>  <smiles>  (43) 
[H]c1c([H])c([H])c2c(c1[H])C([H])([H])C([H])([H])C([H])([H])C2([H])N([H])C(=O)C1([H])N(C(=O)C([H])(N([H])C(=O)C([H])(N([H])C([H])([H])[H])C([H])([H])[H])C(C([H])([H])[H])(C([H])([H])[H])C([H])([H])[H])C([H])([H])c2c([H])c(OC([H])(C(=O)C([H])([H])N([H])c3c([H])c(F)c([H])c(N([H])C(=O)N4C([H])([H])C([H])([H])C([H])([H])C([H])(n5nc(-c6c([H])c([H])c(Oc7c([H])c([H])c(F)c([H])c7F)c([H])c6[H])c(C(=O)N([H])[H])c5N([H])[H])C4([H])[H])c3C([H])([H])C([H])([H])[H])C([H])([H])[H])c([H])c([H])c2C1([H])[H]

$$$$
43:0:0
     RDKit          3D

 93102  0  0  1  0  0  0  0  0999 V2000
  -29.3040  -21.6540   19.4120 C   0  0  0  0  0  2  0  0  0  0  0  0
  -28.6020  -23.0530   19.4640 C   0  0  0  0  0  2  0  0  0  0  0  0
  -29.7540  -21.8190   21.8430 C   0  0  0  0  0  2  0  0  0  0  0  0
  -29.1920  -20.8660   20.7470 C   0  0  0  0  0  3  0  0  0  0  0  0
  -29.0490  -23.9750   20.6440 C   0  0  0  0  0  3  0  0  0  0  0  0
  -29.0800  -23.1510   21.8960 N   0  0  0  0  0  4  0  0  0  0  0  0
  -29.5500  -23.6850   22.6110 H   0  0  0  0  0  0  0  0  0  0  0  0
  -28.1390  -23.0010   22.2220 H   0  0  0  0  0  0  0  0  0  0  0  0
  -29.2740  -18.1840   20.7260 C   0  0  0  0  0  3  0  0  0  0  0  0
  -31.5220  -17.5640   20.8750 C   0  0  0  0  0  3  0  0  0  0  0  0
  -30.2360  -17.0960   20.7850 C   0  0  0  0  0  0  0  0  0  0  0  0
  -29.8410  -19.4590   20.7520 C   0  0  0  0  0  0  0  0  0  0  0  0
  -31.5850  -19.3090   20.8240 S   0  0  0  0  0  0  0  0  0  0  0  0
  -30.6320  -14.5920   20.4310 C   0  0  0  0  0  0  0  0  0  0  0  0
  -30.3650  -12.3840   19.3340 C   0  0  0  0  0  2  0  0  0  0  0  0
  -29.4240  -12.5420   18.1230 C   0  0  0  0  0  2  0  0  0  0  0  0
  -27.9490  -12.3970   18.5550 C   0  0  0  0  0  2  0  0  0  0  0  0
  -27.6000  -13.2460   19.8060 C   0  0  0  0  0  3  0  0  0  0  0  0
  -28.6600  -13.0810   20.9180 C   0  0  0  0  0  2  0  0  0  0  0  0
  -29.9720  -13.3980   20.3330 N   0  0  0  0  0  0  0  0  0  0  0  0
  -31.8000  -14.7060   20.0470 O   0  0  0  0  0  0  0  0  0  0  0  0
  -29.8820  -15.6810   20.7820 N   0  0  0  0  0  0  0  0  0  0  0  0
  -28.9160  -15.4680   20.9840 H   0  0  0  0  0  0  0  0  0  0  0  0
  -25.2060  -13.8440   20.5240 C   0  0  0  0  0  0  0  0  0  0  0  0
  -24.1370  -13.0740   20.8920 C   0  0  0  0  0  0  0  0  0  0  0  0
  -24.5960  -11.7220   20.8570 C   0  0  0  0  0  0  0  0  0  0  0  0
  -26.2480  -12.9630   20.2870 N   0  0  0  0  0  0  0  0  0  0  0  0
  -25.8860  -11.6800   20.5460 N   0  0  0  0  0  0  0  0  0  0  0  0
  -23.8670  -10.4610   21.0450 C   0  0  0  0  0  0  0  0  0  0  0  0
  -24.2930   -9.4950   21.9820 C   0  0  0  0  0  3  0  0  0  0  0  0
  -23.5660   -8.2980   22.1600 C   0  0  0  0  0  3  0  0  0  0  0  0
  -22.3960   -8.0600   21.4000 C   0  0  0  0  0  0  0  0  0  0  0  0
  -21.9870   -9.0150   20.4530 C   0  0  0  0  0  3  0  0  0  0  0  0
  -22.7160  -10.2030   20.2740 C   0  0  0  0  0  3  0  0  0  0  0  0
  -21.6420   -6.9160   21.4840 O   0  0  0  0  0  0  0  0  0  0  0  0
  -21.5820   -6.1760   22.6360 C   0  0  0  0  0  0  0  0  0  0  0  0
  -21.1250   -6.7300   23.8530 C   0  0  0  0  0  3  0  0  0  0  0  0
  -21.0150   -5.9190   24.9980 C   0  0  0  0  0  3  0  0  0  0  0  0
  -21.3450   -4.5520   24.9290 C   0  0  0  0  0  0  0  0  0  0  0  0
  -21.7950   -3.9980   23.7180 C   0  0  0  0  0  3  0  0  0  0  0  0
  -21.9090   -4.8070   22.5740 C   0  0  0  0  0  0  0  0  0  0  0  0
  -22.3230   -4.2620   21.4050 F   0  0  0  0  0  0  0  0  0  0  0  0
  -21.2300   -3.7710   26.0280 F   0  0  0  0  0  0  0  0  0  0  0  0
  -22.7400  -13.5570   21.1610 C   0  0  0  0  0  0  0  0  0  0  0  0
  -22.0050  -12.8600   22.0190 N   0  0  0  0  0  0  0  0  0  0  0  0
  -22.3080  -14.5870   20.6470 O   0  0  0  0  0  0  0  0  0  0  0  0
  -22.3630  -12.0270   22.4580 H   0  0  0  0  0  0  0  0  0  0  0  0
  -21.0710  -13.1750   22.2460 H   0  0  0  0  0  0  0  0  0  0  0  0
  -25.3740  -15.2130   20.3450 N   0  0  0  0  0  0  0  0  0  0  0  0
  -24.6100  -15.8690   20.4570 H   0  0  0  0  0  0  0  0  0  0  0  0
  -26.1950  -15.6310   19.9240 H   0  0  0  0  0  0  0  0  0  0  0  0
  -28.1240  -25.2500   20.8810 C   0  0  0  0  0  2  0  0  0  0  0  0
  -28.3590  -26.5350   20.2150 O   0  0  0  0  0  0  0  0  0  0  0  0
  -24.5980  -31.8670   23.2540 C   0  0  0  0  0  0  0  0  0  0  0  0
  -27.2450  -27.3730   20.1840 C   0  0  0  0  0  0  0  0  0  0  0  0
  -23.4010  -30.4700   21.6050 C   0  0  0  0  0  3  0  0  0  0  0  0
  -24.8630  -28.9330   20.1830 C   0  0  0  0  0  0  0  0  0  0  0  0
  -25.9360  -30.8110   21.4270 C   0  0  0  0  0  2  0  0  0  0  0  0
  -26.0250  -29.4380   20.7810 C   0  0  0  0  0  0  0  0  0  0  0  0
  -27.2230  -28.6680   20.7740 C   0  0  0  0  0  3  0  0  0  0  0  0
  -26.0660  -26.9120   19.5580 C   0  0  0  0  0  3  0  0  0  0  0  0
  -24.8810  -27.6720   19.5660 C   0  0  0  0  0  3  0  0  0  0  0  0
  -23.6200  -29.7960   20.2250 C   0  0  0  0  0  2  0  0  0  0  0  0
  -24.6620  -31.0660   22.1520 N   0  0  0  0  0  0  0  0  0  0  0  0
  -23.5130  -32.1390   23.7870 O   0  0  0  0  0  0  0  0  0  0  0  0
  -22.7410  -29.4480   22.5600 C   0  0  0  0  0  0  0  0  0  0  0  0
  -21.4170  -29.2670   22.4290 N   0  0  0  0  0  0  0  0  0  0  0  0
  -23.4200  -28.8180   23.3760 O   0  0  0  0  0  0  0  0  0  0  0  0
  -20.9290  -29.8260   21.7430 H   0  0  0  0  0  0  0  0  0  0  0  0
  -18.0370  -28.0860   22.9210 C   0  0  0  0  0  0  0  0  0  0  0  0
  -20.5950  -28.3280   23.1940 C   0  0  0  0  0  3  0  0  0  0  0  0
  -20.6910  -26.9010   22.6080 C   0  0  0  0  0  2  0  0  0  0  0  0
  -19.5850  -26.5920   21.5920 C   0  0  0  0  0  2  0  0  0  0  0  0
  -18.2040  -26.7380   22.2380 C   0  0  0  0  0  2  0  0  0  0  0  0
  -19.1590  -28.8390   23.3550 C   0  0  0  0  0  0  0  0  0  0  0  0
  -18.9470  -30.0990   23.9560 C   0  0  0  0  0  3  0  0  0  0  0  0
  -17.6450  -30.6060   24.1270 C   0  0  0  0  0  3  0  0  0  0  0  0
  -16.5360  -29.8500   23.7070 C   0  0  0  0  0  3  0  0  0  0  0  0
  -16.7340  -28.5920   23.1110 C   0  0  0  0  0  3  0  0  0  0  0  0
  -25.8780  -32.4980   23.8810 C   0  0  0  0  0  3  0  0  0  0  0  0
  -25.5690  -33.8980   24.2050 N   0  0  0  0  0  0  0  0  0  0  0  0
  -25.9060  -34.9470   23.4430 C   0  0  0  0  0  0  0  0  0  0  0  0
  -26.5810  -34.8410   22.4170 O   0  0  0  0  0  0  0  0  0  0  0  0
  -24.9710  -34.0540   25.0030 H   0  0  0  0  0  0  0  0  0  0  0  0
  -24.1820  -36.7430   23.0740 C   0  0  0  0  0  1  0  0  0  0  0  0
  -25.4170  -36.3390   23.8950 C   0  0  0  0  0  3  0  0  0  0  0  0
  -27.5470  -37.2230   24.7370 C   0  0  0  0  0  1  0  0  0  0  0  0
  -26.4510  -37.3910   23.7870 N   0  0  0  0  0  0  0  0  0  0  0  0
  -26.0430  -38.3110   23.9330 H   0  0  0  0  0  0  0  0  0  0  0  0
  -26.3880  -31.7300   25.1610 C   0  0  1  0  0  0  0  0  0  0  0  0
  -25.2890  -31.4980   26.2250 C   0  0  0  0  0  1  0  0  0  0  0  0
  -26.9700  -30.3490   24.7780 C   0  0  0  0  0  1  0  0  0  0  0  0
  -27.5350  -32.5240   25.8290 C   0  0  0  0  0  1  0  0  0  0  0  0
  1  2  1  0
  1  4  1  0
  2  5  1  0
  3  6  1  0
  4 12  1  0
  4  3  1  0
  5 52  1  0
  5  6  1  0
  6  8  1  0
  6  7  1  0
  9 12  2  0
  9 11  1  0
 11 10  2  0
 12 13  1  0
 13 10  1  0
 14 22  1  0
 15 20  1  0
 16 17  1  0
 16 15  1  0
 18 17  1  0
 18 27  1  0
 18 19  1  0
 20 14  1  0
 20 19  1  0
 21 14  2  0
 22 11  1  0
 22 23  1  0
 24 25  2  0
 25 44  1  0
 26 25  1  0
 26 29  1  0
 27 24  1  0
 27 28  1  0
 28 26  2  0
 29 30  1  0
 30 31  2  0
 32 35  1  0
 32 31  1  0
 33 32  2  0
 34 33  1  0
 34 29  2  0
 35 36  1  0
 36 37  1  0
 37 38  2  0
 39 38  1  0
 39 43  1  0
 40 39  2  0
 41 36  2  0
 41 40  1  0
 42 41  1  0
 44 45  1  0
 45 48  1  0
 45 47  1  0
 46 44  2  0
 49 50  1  0
 49 24  1  0
 51 49  1  0
 53 52  1  0
 54 65  2  0
 55 53  1  0
 55 60  1  0
 56 64  1  0
 56 66  1  0
 57 63  1  0
 57 59  1  0
 58 64  1  0
 59 58  1  0
 60 59  2  0
 61 62  1  0
 61 55  2  0
 62 57  2  0
 63 56  1  0
 64 54  1  0
 66 68  2  0
 67 66  1  0
 69 67  1  0
 70 79  2  0
 70 75  1  0
 71 67  1  0
 71 75  1  0
 72 71  1  0
 73 74  1  0
 73 72  1  0
 74 70  1  0
 75 76  2  0
 76 77  1  0
 78 77  2  0
 79 78  1  0
 80 54  1  0
 80 81  1  0
 80 90  1  0
 81 84  1  0
 82 86  1  0
 82 81  1  0
 83 82  2  0
 86 85  1  0
 88 86  1  0
 88 89  1  0
 88 87  1  0
 90 93  1  1
 90 91  1  0
 92 90  1  0
M  ISO  4  14 100  22 100  52 101  53 101
M  END
>  <TORSDO>  (44) 
F 18

>  <SCORE>  (44) 
-14.847

>  <name>  (44) 
43

>  <ligand_id>  (44) 
43

>  <original_smiles>  (44) 
[H]c1sc(C2([H])C([H])([H])C([H])([H])C([H])(C([H])([H])Oc3c([H])c([H])c4c(c3[H])C([H])([H])N(C(=O)C([H])(N([H])C(=O)C([H])(N([H])C([H])([H])[H])C([H])([H])[H])C(C([H])([H])[H])(C([H])([H])[H])C([H])([H])[H])C([H])(C(=O)N([H])C3([H])c5c([H])c([H])c([H])c([H])c5C([H])([H])C([H])([H])C3([H])[H])C4([H])[H])[N+]([H])([H])C2([H])[H])c([H])c1N([H])C(=O)N1C([H])([H])C([H])([H])C([H])([H])C([H])(n2nc(-c3c([H])c([H])c(Oc4c([H])c([H])c(F)c([H])c4F)c([H])c3[H])c(C(=O)N([H])[H])c2N([H])[H])C1([H])[H]

>  <smiles>  (44) 
[H]c1sc(C2([H])C([H])([H])C([H])([H])C([H])(C([H])([H])Oc3c([H])c([H])c4c(c3[H])C([H])([H])N(C(=O)C([H])(N([H])C(=O)C([H])(N([H])C([H])([H])[H])C([H])([H])[H])C(C([H])([H])[H])(C([H])([H])[H])C([H])([H])[H])C([H])(C(=O)N([H])C3([H])c5c([H])c([H])c([H])c([H])c5C([H])([H])C([H])([H])C3([H])[H])C4([H])[H])[N+]([H])([H])C2([H])[H])c([H])c1N([H])C(=O)N1C([H])([H])C([H])([H])C([H])([H])C([H])(n2nc(-c3c([H])c([H])c(Oc4c([H])c([H])c(F)c([H])c4F)c([H])c3[H])c(C(=O)N([H])[H])c2N([H])[H])C1([H])[H]

$$$$
44:0:0
     RDKit          3D

 94103  0  0  1  0  0  0  0  0999 V2000
  -30.2360  -19.1400   20.1830 C   0  0  0  0  0  3  0  0  0  0  0  0
  -30.1390  -20.2570   22.4120 C   0  0  0  0  0  3  0  0  0  0  0  0
  -30.2070  -17.9200   20.9020 C   0  0  0  0  0  0  0  0  0  0  0  0
  -30.0860  -17.8880   22.3220 C   0  0  0  0  0  0  0  0  0  0  0  0
  -30.0670  -19.0270   23.1210 C   0  0  0  0  0  0  0  0  0  0  0  0
  -30.1650  -20.3450   20.9740 C   0  0  0  0  0  0  0  0  0  0  0  0
  -29.9160  -16.3940   22.3880 C   0  0  0  0  0  2  0  0  0  0  0  0
  -30.0330  -16.3940   20.7850 C   0  0  0  0  0  3  0  0  0  0  0  0
  -29.9460  -18.9480   24.6280 C   0  0  0  0  0  1  0  0  0  0  0  0
  -31.2900  -14.7930   19.2700 C   0  0  0  0  0  0  0  0  0  0  0  0
  -30.4570  -12.9860   17.8000 C   0  0  0  0  0  2  0  0  0  0  0  0
  -29.2430  -13.4510   16.9760 C   0  0  0  0  0  2  0  0  0  0  0  0
  -27.9400  -13.2070   17.7610 C   0  0  0  0  0  2  0  0  0  0  0  0
  -28.0130  -13.7470   19.2120 C   0  0  0  0  0  3  0  0  0  0  0  0
  -29.3200  -13.3070   19.9140 C   0  0  0  0  0  2  0  0  0  0  0  0
  -30.4540  -13.7270   19.0780 N   0  0  0  0  0  0  0  0  0  0  0  0
  -32.2180  -15.0330   18.4990 O   0  0  0  0  0  0  0  0  0  0  0  0
  -31.1800  -15.5680   20.3710 N   0  0  0  0  0  0  0  0  0  0  0  0
  -32.0460  -16.0490   20.5550 H   0  0  0  0  0  0  0  0  0  0  0  0
  -25.9380  -14.1990   20.6620 C   0  0  0  0  0  0  0  0  0  0  0  0
  -24.9640  -13.3710   21.1480 C   0  0  0  0  0  0  0  0  0  0  0  0
  -25.3140  -12.0550   20.7160 C   0  0  0  0  0  0  0  0  0  0  0  0
  -26.8270  -13.3810   19.9810 N   0  0  0  0  0  0  0  0  0  0  0  0
  -26.4700  -12.0740   20.0660 N   0  0  0  0  0  0  0  0  0  0  0  0
  -24.5840  -10.7860   20.8330 C   0  0  0  0  0  0  0  0  0  0  0  0
  -25.1530   -9.6660   21.4770 C   0  0  0  0  0  3  0  0  0  0  0  0
  -24.4250   -8.4620   21.5930 C   0  0  0  0  0  3  0  0  0  0  0  0
  -23.1150   -8.3710   21.0650 C   0  0  0  0  0  0  0  0  0  0  0  0
  -22.5650   -9.4810   20.4000 C   0  0  0  0  0  3  0  0  0  0  0  0
  -23.2920  -10.6760   20.2800 C   0  0  0  0  0  3  0  0  0  0  0  0
  -22.3420   -7.2350   21.1100 O   0  0  0  0  0  0  0  0  0  0  0  0
  -22.4240   -6.3490   22.1540 C   0  0  0  0  0  0  0  0  0  0  0  0
  -22.1920   -6.7480   23.4890 C   0  0  0  0  0  3  0  0  0  0  0  0
  -22.2160   -5.7930   24.5240 C   0  0  0  0  0  3  0  0  0  0  0  0
  -22.4620   -4.4380   24.2280 C   0  0  0  0  0  0  0  0  0  0  0  0
  -22.6880   -4.0390   22.8990 C   0  0  0  0  0  3  0  0  0  0  0  0
  -22.6660   -4.9910   21.8660 C   0  0  0  0  0  0  0  0  0  0  0  0
  -22.8620   -4.5970   20.5850 F   0  0  0  0  0  0  0  0  0  0  0  0
  -22.4800   -3.5190   25.2200 F   0  0  0  0  0  0  0  0  0  0  0  0
  -23.7230  -13.7840   21.8850 C   0  0  0  0  0  0  0  0  0  0  0  0
  -23.2300  -12.9330   22.7770 N   0  0  0  0  0  0  0  0  0  0  0  0
  -23.2120  -14.8890   21.7080 O   0  0  0  0  0  0  0  0  0  0  0  0
  -23.6630  -12.0360   22.9360 H   0  0  0  0  0  0  0  0  0  0  0  0
  -22.4060  -13.1810   23.3070 H   0  0  0  0  0  0  0  0  0  0  0  0
  -26.1280  -15.5760   20.7240 N   0  0  0  0  0  0  0  0  0  0  0  0
  -25.4430  -16.1870   21.1570 H   0  0  0  0  0  0  0  0  0  0  0  0
  -26.8490  -16.0830   20.2280 H   0  0  0  0  0  0  0  0  0  0  0  0
  -29.3790  -22.7330   20.6910 C   0  0  0  0  0  0  0  0  0  0  0  0
  -30.1210  -21.6460   20.3310 N   0  0  0  0  0  0  0  0  0  0  0  0
  -28.5310  -22.6650   21.5850 O   0  0  0  0  0  0  0  0  0  0  0  0
  -30.6830  -21.7530   19.4980 H   0  0  0  0  0  0  0  0  0  0  0  0
  -29.5460  -24.0910   19.9370 C   0  0  0  0  0  2  0  0  0  0  0  0
  -28.7630  -25.2870   20.5920 C   0  0  0  0  0  2  0  0  0  0  0  0
  -28.9070  -26.6180   20.0110 O   0  0  0  0  0  0  0  0  0  0  0  0
  -24.8210  -31.5870   23.1650 C   0  0  0  0  0  0  0  0  0  0  0  0
  -27.7360  -27.3650   19.9870 C   0  0  0  0  0  0  0  0  0  0  0  0
  -23.7160  -30.1750   21.4640 C   0  0  0  0  0  3  0  0  0  0  0  0
  -25.2700  -28.7710   20.0050 C   0  0  0  0  0  0  0  0  0  0  0  0
  -26.2260  -30.6720   21.3140 C   0  0  0  0  0  2  0  0  0  0  0  0
  -26.3960  -29.3300   20.6250 C   0  0  0  0  0  0  0  0  0  0  0  0
  -27.6360  -28.6390   20.6060 C   0  0  0  0  0  3  0  0  0  0  0  0
  -26.5930  -26.8420   19.3450 C   0  0  0  0  0  3  0  0  0  0  0  0
  -25.3650  -27.5270   19.3610 C   0  0  0  0  0  3  0  0  0  0  0  0
  -23.9810  -29.5600   20.0640 C   0  0  0  0  0  2  0  0  0  0  0  0
  -24.9380  -30.8260   22.0380 N   0  0  0  0  0  0  0  0  0  0  0  0
  -23.7190  -31.7810   23.6990 O   0  0  0  0  0  0  0  0  0  0  0  0
  -23.1090  -29.0890   22.3810 C   0  0  0  0  0  0  0  0  0  0  0  0
  -21.8120  -28.7940   22.1920 N   0  0  0  0  0  0  0  0  0  0  0  0
  -23.8070  -28.5130   23.2210 O   0  0  0  0  0  0  0  0  0  0  0  0
  -21.3040  -29.3140   21.4890 H   0  0  0  0  0  0  0  0  0  0  0  0
  -18.5600  -27.2480   22.4610 C   0  0  0  0  0  0  0  0  0  0  0  0
  -21.0500  -27.7730   22.9110 C   0  0  0  0  0  3  0  0  0  0  0  0
  -21.3420  -26.3610   22.3520 C   0  0  0  0  0  2  0  0  0  0  0  0
  -20.3510  -25.9230   21.2670 C   0  0  0  0  0  2  0  0  0  0  0  0
  -18.9220  -25.9230   21.8120 C   0  0  0  0  0  2  0  0  0  0  0  0
  -19.5580  -28.1210   22.9670 C   0  0  0  0  0  0  0  0  0  0  0  0
  -19.1670  -29.3530   23.5360 C   0  0  0  0  0  3  0  0  0  0  0  0
  -17.8100  -29.7150   23.6040 C   0  0  0  0  0  3  0  0  0  0  0  0
  -16.8250  -28.8420   23.1120 C   0  0  0  0  0  3  0  0  0  0  0  0
  -17.2000  -27.6100   22.5470 C   0  0  0  0  0  3  0  0  0  0  0  0
  -26.0610  -32.2700   23.8200 C   0  0  0  0  0  3  0  0  0  0  0  0
  -26.5800  -31.5150   25.1050 C   0  0  1  0  0  0  0  0  0  0  0  0
  -25.4730  -31.2220   26.1440 C   0  0  0  0  0  1  0  0  0  0  0  0
  -27.2320  -30.1660   24.7190 C   0  0  0  0  0  1  0  0  0  0  0  0
  -27.6760  -32.3550   25.7990 C   0  0  0  0  0  1  0  0  0  0  0  0
  -25.6820  -33.6510   24.1480 N   0  0  0  0  0  0  0  0  0  0  0  0
  -26.0070  -34.7240   23.4130 C   0  0  0  0  0  0  0  0  0  0  0  0
  -26.7270  -34.6580   22.4130 O   0  0  0  0  0  0  0  0  0  0  0  0
  -25.0440  -33.7730   24.9200 H   0  0  0  0  0  0  0  0  0  0  0  0
  -24.2240  -36.4500   22.9980 C   0  0  0  0  0  1  0  0  0  0  0  0
  -25.4440  -36.0870   23.8590 C   0  0  0  0  0  3  0  0  0  0  0  0
  -27.5070  -37.0480   24.7850 C   0  0  0  0  0  1  0  0  0  0  0  0
  -26.4380  -37.1820   23.7980 N   0  0  0  0  0  0  0  0  0  0  0  0
  -25.9900  -38.0840   23.9380 H   0  0  0  0  0  0  0  0  0  0  0  0
  1  3  2  0
  1  6  1  0
  2  5  1  0
  3  4  1  0
  4  7  1  0
  4  5  2  0
  5  9  1  0
  6  2  2  0
  8 18  1  0
  8  3  1  0
  8  7  1  0
 10 18  1  0
 11 16  1  0
 12 13  1  0
 12 11  1  0
 14 13  1  0
 14 15  1  0
 14 23  1  0
 16 10  1  0
 16 15  1  0
 17 10  2  0
 18 19  1  0
 20 45  1  0
 20 21  2  0
 21 40  1  0
 22 25  1  0
 22 21  1  0
 23 24  1  0
 23 20  1  0
 24 22  2  0
 25 26  1  0
 26 27  2  0
 28 31  1  0
 28 27  1  0
 29 28  2  0
 30 29  1  0
 30 25  2  0
 31 32  1  0
 32 33  1  0
 33 34  2  0
 35 34  1  0
 35 39  1  0
 36 35  2  0
 37 32  2  0
 37 36  1  0
 38 37  1  0
 40 41  1  0
 41 43  1  0
 41 44  1  0
 42 40  2  0
 45 46  1  0
 47 45  1  0
 48 50  2  0
 49 48  1  0
 49  6  1  0
 51 49  1  0
 52 53  1  0
 52 48  1  0
 54 53  1  0
 55 66  2  0
 56 54  1  0
 56 61  1  0
 57 65  1  0
 57 67  1  0
 58 64  1  0
 58 60  1  0
 59 65  1  0
 60 59  1  0
 61 60  2  0
 62 63  1  0
 62 56  2  0
 63 58  2  0
 64 57  1  0
 65 55  1  0
 67 69  2  0
 68 67  1  0
 70 68  1  0
 71 80  2  0
 71 76  1  0
 72 68  1  0
 72 76  1  0
 73 72  1  0
 74 75  1  0
 74 73  1  0
 75 71  1  0
 76 77  2  0
 77 78  1  0
 79 78  2  0
 80 79  1  0
 81 55  1  0
 81 86  1  0
 81 82  1  0
 82 85  1  1
 82 83  1  0
 84 82  1  0
 86 89  1  0
 87 91  1  0
 87 86  1  0
 88 87  2  0
 91 90  1  0
 93 91  1  0
 93 94  1  0
 93 92  1  0
M  ISO  4  10 100  18 100  53 101  54 101
M  END
>  <TORSDO>  (45) 
F 19

>  <SCORE>  (45) 
-3.601

>  <name>  (45) 
44

>  <ligand_id>  (45) 
44

>  <original_smiles>  (45) 
[H]c1c([H])c([H])c2c(c1[H])C([H])([H])C([H])([H])C([H])([H])C2([H])N([H])C(=O)C1([H])N(C(=O)C([H])(N([H])C(=O)C([H])(N([H])C([H])([H])[H])C([H])([H])[H])C(C([H])([H])[H])(C([H])([H])[H])C([H])([H])[H])C([H])([H])c2c([H])c(OC([H])([H])C([H])([H])C(=O)N([H])c3c([H])c(C([H])([H])[H])c4c(c3[H])C([H])(N([H])C(=O)N3C([H])([H])C([H])([H])C([H])([H])C([H])(n5nc(-c6c([H])c([H])c(Oc7c([H])c([H])c(F)c([H])c7F)c([H])c6[H])c(C(=O)N([H])[H])c5N([H])[H])C3([H])[H])C4([H])[H])c([H])c([H])c2C1([H])[H]

>  <smiles>  (45) 
[H]c1c([H])c([H])c2c(c1[H])C([H])([H])C([H])([H])C([H])([H])C2([H])N([H])C(=O)C1([H])N(C(=O)C([H])(N([H])C(=O)C([H])(N([H])C([H])([H])[H])C([H])([H])[H])C(C([H])([H])[H])(C([H])([H])[H])C([H])([H])[H])C([H])([H])c2c([H])c(OC([H])([H])C([H])([H])C(=O)N([H])c3c([H])c(C([H])([H])[H])c4c(c3[H])C([H])(N([H])C(=O)N3C([H])([H])C([H])([H])C([H])([H])C([H])(n5nc(-c6c([H])c([H])c(Oc7c([H])c([H])c(F)c([H])c7F)c([H])c6[H])c(C(=O)N([H])[H])c5N([H])[H])C3([H])[H])C4([H])[H])c([H])c([H])c2C1([H])[H]

$$$$
45:0:0
     RDKit          3D

 91 99  0  0  1  0  0  0  0  0999 V2000
  -28.9840  -23.7800   20.5020 C   0  0  0  0  0  0  0  0  0  0  0  0
  -28.8150  -22.4500   20.1360 N   0  0  0  0  0  0  0  0  0  0  0  0
  -29.8260  -24.0920   21.3460 O   0  0  0  0  0  0  0  0  0  0  0  0
  -28.1170  -22.2950   19.4230 H   0  0  0  0  0  0  0  0  0  0  0  0
  -29.3300  -21.1870   20.8250 C   0  0  0  0  0  2  0  0  0  0  0  0
  -30.2880  -18.6400   18.0200 C   0  0  0  0  0  3  0  0  0  0  0  0
  -29.9690  -19.8340   18.7060 C   0  0  0  0  0  3  0  0  0  0  0  0
  -30.2570  -17.3820   18.6620 C   0  0  0  0  0  3  0  0  0  0  0  0
  -29.5350  -18.4960   20.6940 C   0  0  0  0  0  3  0  0  0  0  0  0
  -29.5810  -19.8090   20.0610 C   0  0  0  0  0  0  0  0  0  0  0  0
  -29.8920  -17.2550   20.0200 C   0  0  0  0  0  0  0  0  0  0  0  0
  -30.5650  -14.7620   20.3530 C   0  0  0  0  0  0  0  0  0  0  0  0
  -30.3720  -12.4750   19.3890 C   0  0  0  0  0  2  0  0  0  0  0  0
  -29.4400  -12.5590   18.1610 C   0  0  0  0  0  2  0  0  0  0  0  0
  -27.9670  -12.3990   18.5800 C   0  0  0  0  0  2  0  0  0  0  0  0
  -27.5930  -13.2850   19.8000 C   0  0  0  0  0  3  0  0  0  0  0  0
  -28.6470  -13.1810   20.9250 C   0  0  0  0  0  2  0  0  0  0  0  0
  -29.9500  -13.5280   20.3410 N   0  0  0  0  0  0  0  0  0  0  0  0
  -31.7420  -14.8560   19.9950 O   0  0  0  0  0  0  0  0  0  0  0  0
  -29.8040  -15.8940   20.6140 N   0  0  0  0  0  0  0  0  0  0  0  0
  -28.9470  -15.7120   21.1190 H   0  0  0  0  0  0  0  0  0  0  0  0
  -25.2010  -13.8860   20.5040 C   0  0  0  0  0  0  0  0  0  0  0  0
  -24.1320  -13.1180   20.8780 C   0  0  0  0  0  0  0  0  0  0  0  0
  -24.5910  -11.7650   20.8600 C   0  0  0  0  0  0  0  0  0  0  0  0
  -26.2450  -13.0020   20.2810 N   0  0  0  0  0  0  0  0  0  0  0  0
  -25.8840  -11.7230   20.5570 N   0  0  0  0  0  0  0  0  0  0  0  0
  -23.8590  -10.5060   21.0580 C   0  0  0  0  0  0  0  0  0  0  0  0
  -24.2970   -9.5330   21.9830 C   0  0  0  0  0  3  0  0  0  0  0  0
  -23.5650   -8.3400   22.1680 C   0  0  0  0  0  3  0  0  0  0  0  0
  -22.3810   -8.1120   21.4270 C   0  0  0  0  0  0  0  0  0  0  0  0
  -21.9620   -9.0740   20.4910 C   0  0  0  0  0  3  0  0  0  0  0  0
  -22.6950  -10.2570   20.3060 C   0  0  0  0  0  3  0  0  0  0  0  0
  -21.6230   -6.9700   21.5210 O   0  0  0  0  0  0  0  0  0  0  0  0
  -21.6000   -6.2120   22.6640 C   0  0  0  0  0  0  0  0  0  0  0  0
  -21.2220   -6.7550   23.9120 C   0  0  0  0  0  3  0  0  0  0  0  0
  -21.1440   -5.9230   25.0470 C   0  0  0  0  0  3  0  0  0  0  0  0
  -21.4350   -4.5510   24.9380 C   0  0  0  0  0  0  0  0  0  0  0  0
  -21.8060   -4.0070   23.6960 C   0  0  0  0  0  3  0  0  0  0  0  0
  -21.8850   -4.8340   22.5620 C   0  0  0  0  0  0  0  0  0  0  0  0
  -22.2210   -4.3010   21.3620 F   0  0  0  0  0  0  0  0  0  0  0  0
  -21.3510   -3.7520   26.0240 F   0  0  0  0  0  0  0  0  0  0  0  0
  -22.7340  -13.6030   21.1380 C   0  0  0  0  0  0  0  0  0  0  0  0
  -22.0000  -12.9200   22.0090 N   0  0  0  0  0  0  0  0  0  0  0  0
  -22.3030  -14.6240   20.6040 O   0  0  0  0  0  0  0  0  0  0  0  0
  -22.3620  -12.0970   22.4690 H   0  0  0  0  0  0  0  0  0  0  0  0
  -21.0640  -13.2300   22.2270 H   0  0  0  0  0  0  0  0  0  0  0  0
  -25.3710  -15.2550   20.3120 N   0  0  0  0  0  0  0  0  0  0  0  0
  -24.6120  -15.9180   20.4210 H   0  0  0  0  0  0  0  0  0  0  0  0
  -26.2140  -15.6740   19.9410 H   0  0  0  0  0  0  0  0  0  0  0  0
  -28.0410  -24.9250   19.8980 C   0  0  0  0  0  2  0  0  0  0  0  0
  -28.2910  -26.3760   20.2330 O   0  0  0  0  0  0  0  0  0  0  0  0
  -24.6360  -31.8890   23.2430 C   0  0  0  0  0  0  0  0  0  0  0  0
  -27.2030  -27.2850   20.1620 C   0  0  0  0  0  0  0  0  0  0  0  0
  -23.4160  -30.4960   21.6140 C   0  0  0  0  0  3  0  0  0  0  0  0
  -24.8510  -28.9440   20.1710 C   0  0  0  0  0  0  0  0  0  0  0  0
  -25.9590  -30.7940   21.4130 C   0  0  0  0  0  2  0  0  0  0  0  0
  -26.0290  -29.4120   20.7650 C   0  0  0  0  0  0  0  0  0  0  0  0
  -27.2060  -28.5940   20.7550 C   0  0  0  0  0  3  0  0  0  0  0  0
  -26.0020  -26.8990   19.5170 C   0  0  0  0  0  3  0  0  0  0  0  0
  -24.8430  -27.6960   19.5340 C   0  0  0  0  0  3  0  0  0  0  0  0
  -23.6180  -29.8240   20.2310 C   0  0  0  0  0  2  0  0  0  0  0  0
  -24.6890  -31.0780   22.1460 N   0  0  0  0  0  0  0  0  0  0  0  0
  -23.5570  -32.1690   23.7880 O   0  0  0  0  0  0  0  0  0  0  0  0
  -22.7540  -29.4810   22.5780 C   0  0  0  0  0  0  0  0  0  0  0  0
  -21.4280  -29.3060   22.4580 N   0  0  0  0  0  0  0  0  0  0  0  0
  -23.4350  -28.8570   23.3960 O   0  0  0  0  0  0  0  0  0  0  0  0
  -20.9370  -29.8620   21.7710 H   0  0  0  0  0  0  0  0  0  0  0  0
  -18.0550  -28.0950   22.9610 C   0  0  0  0  0  0  0  0  0  0  0  0
  -20.6110  -28.3710   23.2350 C   0  0  0  0  0  3  0  0  0  0  0  0
  -20.7210  -26.9350   22.6730 C   0  0  0  0  0  2  0  0  0  0  0  0
  -19.6230  -26.5960   21.6590 C   0  0  0  0  0  2  0  0  0  0  0  0
  -18.2390  -26.7410   22.2970 C   0  0  0  0  0  2  0  0  0  0  0  0
  -19.1680  -28.8670   23.3870 C   0  0  0  0  0  0  0  0  0  0  0  0
  -18.9410  -30.1330   23.9700 C   0  0  0  0  0  3  0  0  0  0  0  0
  -17.6320  -30.6270   24.1310 C   0  0  0  0  0  3  0  0  0  0  0  0
  -16.5340  -29.8530   23.7190 C   0  0  0  0  0  3  0  0  0  0  0  0
  -16.7450  -28.5900   23.1390 C   0  0  0  0  0  3  0  0  0  0  0  0
  -25.9240  -32.5190   23.8560 C   0  0  0  0  0  3  0  0  0  0  0  0
  -26.4470  -31.7440   25.1280 C   0  0  1  0  0  0  0  0  0  0  0  0
  -25.3630  -31.5160   26.2070 C   0  0  0  0  0  1  0  0  0  0  0  0
  -27.0140  -30.3620   24.7320 C   0  0  0  0  0  1  0  0  0  0  0  0
  -27.6110  -32.5310   25.7750 C   0  0  0  0  0  1  0  0  0  0  0  0
  -25.6190  -33.9160   24.1930 N   0  0  0  0  0  0  0  0  0  0  0  0
  -25.9440  -34.9720   23.4340 C   0  0  0  0  0  0  0  0  0  0  0  0
  -26.6000  -34.8690   22.3930 O   0  0  0  0  0  0  0  0  0  0  0  0
  -25.0330  -34.0690   25.0010 H   0  0  0  0  0  0  0  0  0  0  0  0
  -24.2120  -36.7680   23.1080 C   0  0  0  0  0  1  0  0  0  0  0  0
  -25.4650  -36.3600   23.8990 C   0  0  0  0  0  3  0  0  0  0  0  0
  -27.6190  -37.2380   24.6920 C   0  0  0  0  0  1  0  0  0  0  0  0
  -26.4970  -37.4140   23.7730 N   0  0  0  0  0  0  0  0  0  0  0  0
  -26.0950  -38.3330   23.9360 H   0  0  0  0  0  0  0  0  0  0  0  0
  1  3  2  0
  2  1  1  0
  2  5  1  0
  4  2  1  0
  6  8  2  0
  6  7  1  0
  7 10  2  0
  8 11  1  0
 10  9  1  0
 10  5  1  0
 11 20  1  0
 11  9  2  0
 12 20  1  0
 13 18  1  0
 14 15  1  0
 14 13  1  0
 16 15  1  0
 16 25  1  0
 16 17  1  0
 18 12  1  0
 18 17  1  0
 19 12  2  0
 20 21  1  0
 22 23  2  0
 23 42  1  0
 24 23  1  0
 24 27  1  0
 25 22  1  0
 25 26  1  0
 26 24  2  0
 27 28  1  0
 28 29  2  0
 30 33  1  0
 30 29  1  0
 31 30  2  0
 32 31  1  0
 32 27  2  0
 33 34  1  0
 34 35  1  0
 35 36  2  0
 37 36  1  0
 37 41  1  0
 38 37  2  0
 39 34  2  0
 39 38  1  0
 40 39  1  0
 42 43  1  0
 43 46  1  0
 43 45  1  0
 44 42  2  0
 47 48  1  0
 47 22  1  0
 49 47  1  0
 50 51  1  0
 50  1  1  0
 52 63  2  0
 53 51  1  0
 53 58  1  0
 54 62  1  0
 54 64  1  0
 55 61  1  0
 55 57  1  0
 56 62  1  0
 57 56  1  0
 58 57  2  0
 59 60  1  0
 59 53  2  0
 60 55  2  0
 61 54  1  0
 62 52  1  0
 64 66  2  0
 65 64  1  0
 67 65  1  0
 68 77  2  0
 68 73  1  0
 69 65  1  0
 69 73  1  0
 70 69  1  0
 71 72  1  0
 71 70  1  0
 72 68  1  0
 73 74  2  0
 74 75  1  0
 76 75  2  0
 77 76  1  0
 78 52  1  0
 78 83  1  0
 78 79  1  0
 79 82  1  1
 79 80  1  0
 81 79  1  0
 83 86  1  0
 84 88  1  0
 84 83  1  0
 85 84  2  0
 88 87  1  0
 90 88  1  0
 90 91  1  0
 90 89  1  0
M  ISO  4  12 100  20 100  50 101  51 101
M  END
>  <TORSDO>  (46) 
F 19

>  <SCORE>  (46) 
-14.199

>  <name>  (46) 
45

>  <ligand_id>  (46) 
45

>  <original_smiles>  (46) 
[H]c1c([H])c(N([H])C(=O)N2C([H])([H])C([H])([H])C([H])([H])C([H])(n3nc(-c4c([H])c([H])c(Oc5c([H])c([H])c(F)c([H])c5F)c([H])c4[H])c(C(=O)N([H])[H])c3N([H])[H])C2([H])[H])c([H])c(C([H])([H])N([H])C(=O)C([H])([H])Oc2c([H])c([H])c3c(c2[H])C([H])([H])N(C(=O)C([H])(N([H])C(=O)C([H])(N([H])C([H])([H])[H])C([H])([H])[H])C(C([H])([H])[H])(C([H])([H])[H])C([H])([H])[H])C([H])(C(=O)N([H])C2([H])c4c([H])c([H])c([H])c([H])c4C([H])([H])C([H])([H])C2([H])[H])C3([H])[H])c1[H]

>  <smiles>  (46) 
[H]c1c([H])c(N([H])C(=O)N2C([H])([H])C([H])([H])C([H])([H])C([H])(n3nc(-c4c([H])c([H])c(Oc5c([H])c([H])c(F)c([H])c5F)c([H])c4[H])c(C(=O)N([H])[H])c3N([H])[H])C2([H])[H])c([H])c(C([H])([H])N([H])C(=O)C([H])([H])Oc2c([H])c([H])c3c(c2[H])C([H])([H])N(C(=O)C([H])(N([H])C(=O)C([H])(N([H])C([H])([H])[H])C([H])([H])[H])C(C([H])([H])[H])(C([H])([H])[H])C([H])([H])[H])C([H])(C(=O)N([H])C2([H])c4c([H])c([H])c([H])c([H])c4C([H])([H])C([H])([H])C2([H])[H])C3([H])[H])c1[H]

$$$$
46:0:0
     RDKit          3D

 90 99  0  0  1  0  0  0  0  0999 V2000
  -28.7980  -23.7490   20.3930 C   0  0  0  0  0  0  0  0  0  0  0  0
  -27.9910  -24.8680   20.1690 C   0  0  0  0  0  3  0  0  0  0  0  0
  -30.2310  -23.7300   20.8610 C   0  0  0  0  0  2  0  0  0  0  0  0
  -28.4380  -22.2150   20.2350 C   0  0  0  0  0  2  0  0  0  0  0  0
  -30.7280  -22.2630   20.6930 C   0  0  0  0  0  2  0  0  0  0  0  0
  -29.5840  -21.3330   20.6610 N   0  0  0  0  0  0  0  0  0  0  0  0
  -29.3840  -18.6620   20.7830 C   0  0  0  0  0  3  0  0  0  0  0  0
  -31.0260  -17.8360   19.3400 C   0  0  0  0  0  3  0  0  0  0  0  0
  -30.0830  -17.4510   20.2600 C   0  0  0  0  0  0  0  0  0  0  0  0
  -29.8270  -19.9220   20.2950 C   0  0  0  0  0  0  0  0  0  0  0  0
  -31.0880  -19.5790   19.1170 S   0  0  0  0  0  0  0  0  0  0  0  0
  -30.5730  -14.8400   20.3030 C   0  0  0  0  0  0  0  0  0  0  0  0
  -30.3570  -12.5490   19.3090 C   0  0  0  0  0  2  0  0  0  0  0  0
  -29.4170  -12.6130   18.0860 C   0  0  0  0  0  2  0  0  0  0  0  0
  -27.9500  -12.4380   18.5220 C   0  0  0  0  0  2  0  0  0  0  0  0
  -27.5820  -13.3260   19.7400 C   0  0  0  0  0  3  0  0  0  0  0  0
  -28.6450  -13.2540   20.8580 C   0  0  0  0  0  2  0  0  0  0  0  0
  -29.9380  -13.6120   20.2590 N   0  0  0  0  0  0  0  0  0  0  0  0
  -31.7540  -14.9040   19.9460 O   0  0  0  0  0  0  0  0  0  0  0  0
  -29.8370  -16.0000   20.5880 N   0  0  0  0  0  0  0  0  0  0  0  0
  -28.9350  -15.8080   20.9970 H   0  0  0  0  0  0  0  0  0  0  0  0
  -25.2010  -13.9180   20.4840 C   0  0  0  0  0  0  0  0  0  0  0  0
  -24.1350  -13.1470   20.8580 C   0  0  0  0  0  0  0  0  0  0  0  0
  -24.5930  -11.7950   20.8210 C   0  0  0  0  0  0  0  0  0  0  0  0
  -26.2410  -13.0370   20.2370 N   0  0  0  0  0  0  0  0  0  0  0  0
  -25.8820  -11.7540   20.5040 N   0  0  0  0  0  0  0  0  0  0  0  0
  -23.8630  -10.5340   21.0100 C   0  0  0  0  0  0  0  0  0  0  0  0
  -24.2880   -9.5650   21.9460 C   0  0  0  0  0  3  0  0  0  0  0  0
  -23.5560   -8.3710   22.1230 C   0  0  0  0  0  3  0  0  0  0  0  0
  -22.3840   -8.1380   21.3640 C   0  0  0  0  0  0  0  0  0  0  0  0
  -21.9770   -9.0960   20.4190 C   0  0  0  0  0  3  0  0  0  0  0  0
  -22.7100  -10.2800   20.2390 C   0  0  0  0  0  3  0  0  0  0  0  0
  -21.6240   -6.9950   21.4500 O   0  0  0  0  0  0  0  0  0  0  0  0
  -21.5590   -6.2600   22.6070 C   0  0  0  0  0  0  0  0  0  0  0  0
  -21.1090   -6.8190   23.8220 C   0  0  0  0  0  3  0  0  0  0  0  0
  -20.9910   -6.0100   24.9690 C   0  0  0  0  0  3  0  0  0  0  0  0
  -21.3150   -4.6410   24.9020 C   0  0  0  0  0  0  0  0  0  0  0  0
  -21.7590   -4.0810   23.6920 C   0  0  0  0  0  3  0  0  0  0  0  0
  -21.8790   -4.8880   22.5460 C   0  0  0  0  0  0  0  0  0  0  0  0
  -22.2870   -4.3380   21.3770 F   0  0  0  0  0  0  0  0  0  0  0  0
  -21.1960   -3.8620   26.0020 F   0  0  0  0  0  0  0  0  0  0  0  0
  -22.7410  -13.6300   21.1370 C   0  0  0  0  0  0  0  0  0  0  0  0
  -22.0130  -12.9370   22.0040 N   0  0  0  0  0  0  0  0  0  0  0  0
  -22.3070  -14.6600   20.6200 O   0  0  0  0  0  0  0  0  0  0  0  0
  -22.3780  -12.1040   22.4450 H   0  0  0  0  0  0  0  0  0  0  0  0
  -21.0790  -13.2450   22.2340 H   0  0  0  0  0  0  0  0  0  0  0  0
  -25.3690  -15.2890   20.3090 N   0  0  0  0  0  0  0  0  0  0  0  0
  -24.6050  -15.9450   20.4240 H   0  0  0  0  0  0  0  0  0  0  0  0
  -26.2030  -15.7190   19.9280 H   0  0  0  0  0  0  0  0  0  0  0  0
  -28.2440  -26.2930   20.2340 O   0  0  0  0  0  0  0  0  0  0  0  0
  -24.6210  -31.8910   23.2360 C   0  0  0  0  0  0  0  0  0  0  0  0
  -27.1770  -27.2430   20.1670 C   0  0  0  0  0  0  0  0  0  0  0  0
  -23.4070  -30.5040   21.5990 C   0  0  0  0  0  3  0  0  0  0  0  0
  -24.8440  -28.9500   20.1570 C   0  0  0  0  0  0  0  0  0  0  0  0
  -25.9560  -30.7790   21.4230 C   0  0  0  0  0  2  0  0  0  0  0  0
  -26.0210  -29.3960   20.7710 C   0  0  0  0  0  0  0  0  0  0  0  0
  -27.1860  -28.5520   20.7760 C   0  0  0  0  0  3  0  0  0  0  0  0
  -25.9870  -26.9080   19.4780 C   0  0  0  0  0  3  0  0  0  0  0  0
  -24.8350  -27.7140   19.4980 C   0  0  0  0  0  3  0  0  0  0  0  0
  -23.6160  -29.8390   20.2140 C   0  0  0  0  0  2  0  0  0  0  0  0
  -24.6800  -31.0780   22.1400 N   0  0  0  0  0  0  0  0  0  0  0  0
  -23.5390  -32.1750   23.7730 O   0  0  0  0  0  0  0  0  0  0  0  0
  -22.7390  -29.4870   22.5570 C   0  0  0  0  0  0  0  0  0  0  0  0
  -21.4110  -29.3170   22.4380 N   0  0  0  0  0  0  0  0  0  0  0  0
  -23.4160  -28.8550   23.3730 O   0  0  0  0  0  0  0  0  0  0  0  0
  -20.9210  -29.8770   21.7530 H   0  0  0  0  0  0  0  0  0  0  0  0
  -18.0310  -28.1250   22.9520 C   0  0  0  0  0  0  0  0  0  0  0  0
  -20.5910  -28.3810   23.2110 C   0  0  0  0  0  3  0  0  0  0  0  0
  -20.6890  -26.9480   22.6350 C   0  0  0  0  0  2  0  0  0  0  0  0
  -19.5820  -26.6280   21.6250 C   0  0  0  0  0  2  0  0  0  0  0  0
  -18.2040  -26.7760   22.2750 C   0  0  0  0  0  2  0  0  0  0  0  0
  -19.1530  -28.8850   23.3770 C   0  0  0  0  0  0  0  0  0  0  0  0
  -18.9380  -30.1460   23.9740 C   0  0  0  0  0  3  0  0  0  0  0  0
  -17.6350  -30.6490   24.1460 C   0  0  0  0  0  3  0  0  0  0  0  0
  -16.5270  -29.8860   23.7360 C   0  0  0  0  0  3  0  0  0  0  0  0
  -16.7260  -28.6260   23.1450 C   0  0  0  0  0  3  0  0  0  0  0  0
  -25.9060  -32.5200   23.8540 C   0  0  0  0  0  3  0  0  0  0  0  0
  -25.5970  -33.9160   24.2000 N   0  0  0  0  0  0  0  0  0  0  0  0
  -25.9010  -34.9760   23.4400 C   0  0  0  0  0  0  0  0  0  0  0  0
  -26.5410  -34.8820   22.3880 O   0  0  0  0  0  0  0  0  0  0  0  0
  -25.0240  -34.0620   25.0180 H   0  0  0  0  0  0  0  0  0  0  0  0
  -24.1490  -36.7590   23.1570 C   0  0  0  0  0  1  0  0  0  0  0  0
  -25.4210  -36.3590   23.9200 C   0  0  0  0  0  3  0  0  0  0  0  0
  -27.5770  -37.2600   24.6770 C   0  0  0  0  0  1  0  0  0  0  0  0
  -26.4420  -37.4200   23.7730 N   0  0  0  0  0  0  0  0  0  0  0  0
  -26.0350  -38.3380   23.9350 H   0  0  0  0  0  0  0  0  0  0  0  0
  -26.4300  -31.7390   25.1220 C   0  0  1  0  0  0  0  0  0  0  0  0
  -25.3440  -31.4950   26.1950 C   0  0  0  0  0  1  0  0  0  0  0  0
  -27.0110  -30.3630   24.7210 C   0  0  0  0  0  1  0  0  0  0  0  0
  -27.5850  -32.5280   25.7820 C   0  0  0  0  0  1  0  0  0  0  0  0
  1  3  1  0
  2 50  1  0
  2  1  2  0
  4  1  1  0
  4  6  1  0
  5  3  1  0
  6  5  1  0
  8  9  2  0
  9 20  1  0
  9  7  1  0
 10  6  1  0
 10  7  2  0
 11  8  1  0
 11 10  1  0
 12 20  1  0
 13 18  1  0
 14 15  1  0
 14 13  1  0
 16 15  1  0
 16 25  1  0
 16 17  1  0
 18 12  1  0
 18 17  1  0
 19 12  2  0
 20 21  1  0
 22 23  2  0
 23 42  1  0
 24 23  1  0
 24 27  1  0
 25 22  1  0
 25 26  1  0
 26 24  2  0
 27 28  1  0
 28 29  2  0
 30 33  1  0
 30 29  1  0
 31 30  2  0
 32 31  1  0
 32 27  2  0
 33 34  1  0
 34 35  1  0
 35 36  2  0
 37 36  1  0
 37 41  1  0
 38 37  2  0
 39 34  2  0
 39 38  1  0
 40 39  1  0
 42 43  1  0
 43 46  1  0
 43 45  1  0
 44 42  2  0
 47 48  1  0
 47 22  1  0
 49 47  1  0
 51 62  2  0
 52 50  1  0
 52 57  1  0
 53 61  1  0
 53 63  1  0
 54 60  1  0
 54 56  1  0
 55 61  1  0
 56 57  2  0
 56 55  1  0
 58 59  1  0
 58 52  2  0
 59 54  2  0
 60 53  1  0
 61 51  1  0
 63 65  2  0
 64 63  1  0
 66 64  1  0
 67 76  2  0
 67 72  1  0
 68 64  1  0
 68 72  1  0
 69 68  1  0
 70 71  1  0
 70 69  1  0
 71 67  1  0
 72 73  2  0
 73 74  1  0
 75 74  2  0
 76 75  1  0
 77 51  1  0
 77 78  1  0
 77 87  1  0
 78 81  1  0
 79 83  1  0
 79 78  1  0
 80 79  2  0
 83 82  1  0
 85 83  1  0
 85 86  1  0
 85 84  1  0
 87 90  1  1
 87 88  1  0
 89 87  1  0
M  ISO  4   2 101  12 100  20 100  50 101
M  END
>  <TORSDO>  (47) 
F 17

>  <SCORE>  (47) 
-15.057

>  <name>  (47) 
46

>  <ligand_id>  (47) 
46

>  <original_smiles>  (47) 
[H]C(Oc1c([H])c([H])c2c(c1[H])C([H])([H])N(C(=O)C([H])(N([H])C(=O)C([H])(N([H])C([H])([H])[H])C([H])([H])[H])C(C([H])([H])[H])(C([H])([H])[H])C([H])([H])[H])C([H])(C(=O)N([H])C1([H])c3c([H])c([H])c([H])c([H])c3C([H])([H])C([H])([H])C1([H])[H])C2([H])[H])=C1C([H])([H])N(c2sc([H])c(N([H])C(=O)N3C([H])([H])C([H])([H])C([H])([H])C([H])(n4nc(-c5c([H])c([H])c(Oc6c([H])c([H])c(F)c([H])c6F)c([H])c5[H])c(C(=O)N([H])[H])c4N([H])[H])C3([H])[H])c2[H])C([H])([H])C1([H])[H]

>  <smiles>  (47) 
[H]C(Oc1c([H])c([H])c2c(c1[H])C([H])([H])N(C(=O)C([H])(N([H])C(=O)C([H])(N([H])C([H])([H])[H])C([H])([H])[H])C(C([H])([H])[H])(C([H])([H])[H])C([H])([H])[H])C([H])(C(=O)N([H])C1([H])c3c([H])c([H])c([H])c([H])c3C([H])([H])C([H])([H])C1([H])[H])C2([H])[H])=C1C([H])([H])N(c2sc([H])c(N([H])C(=O)N3C([H])([H])C([H])([H])C([H])([H])C([H])(n4nc(-c5c([H])c([H])c(Oc6c([H])c([H])c(F)c([H])c6F)c([H])c5[H])c(C(=O)N([H])[H])c4N([H])[H])C3([H])[H])c2[H])C([H])([H])C1([H])[H]

$$$$
47:0:0
     RDKit          3D

 92100  0  0  1  0  0  0  0  0999 V2000
  -30.5200  -21.0270   20.3240 C   0  0  0  0  0  3  0  0  0  0  0  0
  -30.7860  -19.6160   20.1410 C   0  0  0  0  0  3  0  0  0  0  0  0
  -29.1940  -21.3320   20.5500 C   0  0  0  0  0  0  0  0  0  0  0  0
  -29.6680  -18.8120   20.2010 C   0  0  0  0  0  0  0  0  0  0  0  0
  -28.2700  -19.8180   20.5810 S   0  0  0  0  0  0  0  0  0  0  0  0
  -28.0430  -16.8800   19.4230 O   0  0  0  0  0  0  0  0  0  0  0  0
  -30.3800  -16.9850   18.4380 O   0  0  0  0  0  0  0  0  0  0  0  0
  -29.4920  -17.0730   19.6120 S   0  0  1  0  0  0  0  0  0  0  0  0
  -30.6830  -14.6540   20.3590 C   0  0  0  0  0  0  0  0  0  0  0  0
  -30.4210  -12.4160   19.3330 C   0  0  0  0  0  2  0  0  0  0  0  0
  -29.5020  -12.5560   18.1000 C   0  0  0  0  0  2  0  0  0  0  0  0
  -28.0250  -12.4070   18.5110 C   0  0  0  0  0  2  0  0  0  0  0  0
  -27.6540  -13.2900   19.7300 C   0  0  0  0  0  3  0  0  0  0  0  0
  -28.6970  -13.1620   20.8660 C   0  0  0  0  0  2  0  0  0  0  0  0
  -30.0270  -13.4510   20.3110 N   0  0  0  0  0  0  0  0  0  0  0  0
  -31.8440  -14.7550   19.9530 O   0  0  0  0  0  0  0  0  0  0  0  0
  -29.9940  -15.8300   20.7640 N   0  0  0  0  0  0  0  0  0  0  0  0
  -29.2160  -15.7140   21.4050 H   0  0  0  0  0  0  0  0  0  0  0  0
  -25.2560  -13.9030   20.4200 C   0  0  0  0  0  0  0  0  0  0  0  0
  -24.1840  -13.1350   20.7930 C   0  0  0  0  0  0  0  0  0  0  0  0
  -24.6440  -11.7830   20.7840 C   0  0  0  0  0  0  0  0  0  0  0  0
  -26.3000  -13.0170   20.2070 N   0  0  0  0  0  0  0  0  0  0  0  0
  -25.9370  -11.7390   20.4890 N   0  0  0  0  0  0  0  0  0  0  0  0
  -23.9140  -10.5230   20.9800 C   0  0  0  0  0  0  0  0  0  0  0  0
  -24.3380   -9.5620   21.9240 C   0  0  0  0  0  3  0  0  0  0  0  0
  -23.6090   -8.3670   22.1080 C   0  0  0  0  0  3  0  0  0  0  0  0
  -22.4400   -8.1250   21.3470 C   0  0  0  0  0  0  0  0  0  0  0  0
  -22.0340   -9.0750   20.3910 C   0  0  0  0  0  3  0  0  0  0  0  0
  -22.7640  -10.2600   20.2060 C   0  0  0  0  0  3  0  0  0  0  0  0
  -21.6840   -6.9820   21.4390 O   0  0  0  0  0  0  0  0  0  0  0  0
  -21.6280   -6.2460   22.5950 C   0  0  0  0  0  0  0  0  0  0  0  0
  -21.1970   -6.8070   23.8170 C   0  0  0  0  0  3  0  0  0  0  0  0
  -21.0900   -5.9970   24.9660 C   0  0  0  0  0  3  0  0  0  0  0  0
  -21.4030   -4.6270   24.8920 C   0  0  0  0  0  0  0  0  0  0  0  0
  -21.8270   -4.0640   23.6750 C   0  0  0  0  0  3  0  0  0  0  0  0
  -21.9370   -4.8710   22.5300 C   0  0  0  0  0  0  0  0  0  0  0  0
  -22.3250   -4.3190   21.3550 F   0  0  0  0  0  0  0  0  0  0  0  0
  -21.2940   -3.8470   25.9940 F   0  0  0  0  0  0  0  0  0  0  0  0
  -22.7840  -13.6170   21.0460 C   0  0  0  0  0  0  0  0  0  0  0  0
  -22.0460  -12.9350   21.9130 N   0  0  0  0  0  0  0  0  0  0  0  0
  -22.3550  -14.6370   20.5100 O   0  0  0  0  0  0  0  0  0  0  0  0
  -22.4070  -12.1140   22.3750 H   0  0  0  0  0  0  0  0  0  0  0  0
  -21.1060  -13.2420   22.1210 H   0  0  0  0  0  0  0  0  0  0  0  0
  -25.4210  -15.2710   20.2190 N   0  0  0  0  0  0  0  0  0  0  0  0
  -24.6290  -15.9050   20.2460 H   0  0  0  0  0  0  0  0  0  0  0  0
  -26.2630  -15.7070   19.8550 H   0  0  0  0  0  0  0  0  0  0  0  0
  -28.5320  -22.5740   20.8030 N   0  0  0  0  0  0  0  0  0  0  0  0
  -27.5510  -22.4500   21.0400 H   0  0  0  0  0  0  0  0  0  0  0  0
  -28.7820  -23.8800   20.1110 C   0  0  0  0  0  2  0  0  0  0  0  0
  -26.9920  -24.9400   21.6900 C   0  0  0  0  0  1  0  0  0  0  0  0
  -28.3070  -25.1900   20.9100 C   0  0  0  0  0  3  0  0  0  0  0  0
  -28.3810  -26.5090   20.2170 O   0  0  0  0  0  0  0  0  0  0  0  0
  -24.6220  -31.8810   23.2080 C   0  0  0  0  0  0  0  0  0  0  0  0
  -27.2660  -27.3560   20.1700 C   0  0  0  0  0  0  0  0  0  0  0  0
  -23.4330  -30.4880   21.5510 C   0  0  0  0  0  3  0  0  0  0  0  0
  -24.8990  -28.9480   20.1280 C   0  0  0  0  0  0  0  0  0  0  0  0
  -25.9660  -30.8210   21.3790 C   0  0  0  0  0  2  0  0  0  0  0  0
  -26.0570  -29.4430   20.7410 C   0  0  0  0  0  0  0  0  0  0  0  0
  -27.2460  -28.6590   20.7530 C   0  0  0  0  0  3  0  0  0  0  0  0
  -26.1010  -26.9180   19.5100 C   0  0  0  0  0  3  0  0  0  0  0  0
  -24.9220  -27.6890   19.5020 C   0  0  0  0  0  3  0  0  0  0  0  0
  -23.6570  -29.8150   20.1690 C   0  0  0  0  0  2  0  0  0  0  0  0
  -24.6920  -31.0810   22.1040 N   0  0  0  0  0  0  0  0  0  0  0  0
  -23.5340  -32.1520   23.7380 O   0  0  0  0  0  0  0  0  0  0  0  0
  -22.7660  -29.4670   22.5040 C   0  0  0  0  0  0  0  0  0  0  0  0
  -21.4380  -29.2990   22.3770 N   0  0  0  0  0  0  0  0  0  0  0  0
  -23.4420  -28.8290   23.3140 O   0  0  0  0  0  0  0  0  0  0  0  0
  -20.9510  -29.8680   21.6980 H   0  0  0  0  0  0  0  0  0  0  0  0
  -18.0530  -28.1280   22.8730 C   0  0  0  0  0  0  0  0  0  0  0  0
  -20.6130  -28.3600   23.1380 C   0  0  0  0  0  3  0  0  0  0  0  0
  -20.7000  -26.9350   22.5440 C   0  0  0  0  0  2  0  0  0  0  0  0
  -19.5900  -26.6360   21.5290 C   0  0  0  0  0  2  0  0  0  0  0  0
  -18.2140  -26.7850   22.1800 C   0  0  0  0  0  2  0  0  0  0  0  0
  -19.1800  -28.8740   23.3100 C   0  0  0  0  0  0  0  0  0  0  0  0
  -18.9770  -30.1300   23.9180 C   0  0  0  0  0  3  0  0  0  0  0  0
  -17.6770  -30.6410   24.0970 C   0  0  0  0  0  3  0  0  0  0  0  0
  -16.5640  -29.8940   23.6770 C   0  0  0  0  0  3  0  0  0  0  0  0
  -16.7530  -28.6380   23.0720 C   0  0  0  0  0  3  0  0  0  0  0  0
  -25.8990  -32.5140   23.8410 C   0  0  0  0  0  3  0  0  0  0  0  0
  -26.4040  -31.7460   25.1240 C   0  0  1  0  0  0  0  0  0  0  0  0
  -25.3010  -31.5150   26.1830 C   0  0  0  0  0  1  0  0  0  0  0  0
  -26.9920  -30.3670   24.7440 C   0  0  0  0  0  1  0  0  0  0  0  0
  -27.5490  -32.5430   25.7930 C   0  0  0  0  0  1  0  0  0  0  0  0
  -25.5860  -33.9130   24.1660 N   0  0  0  0  0  0  0  0  0  0  0  0
  -25.9290  -34.9650   23.4100 C   0  0  0  0  0  0  0  0  0  0  0  0
  -26.6110  -34.8590   22.3870 O   0  0  0  0  0  0  0  0  0  0  0  0
  -24.9760  -34.0690   24.9560 H   0  0  0  0  0  0  0  0  0  0  0  0
  -24.2090  -36.7650   23.0380 C   0  0  0  0  0  1  0  0  0  0  0  0
  -25.4420  -36.3550   23.8610 C   0  0  0  0  0  3  0  0  0  0  0  0
  -27.5680  -37.2380   24.7160 C   0  0  0  0  0  1  0  0  0  0  0  0
  -26.4800  -37.4050   23.7560 N   0  0  0  0  0  0  0  0  0  0  0  0
  -26.0740  -38.3260   23.8880 H   0  0  0  0  0  0  0  0  0  0  0  0
  1  3  2  0
  2  4  2  0
  2  1  1  0
  3  5  1  0
  3 47  1  0
  4  5  1  0
  6  8  2  0
  7  8  2  0
  8  4  1  0
  8 17  1  1
  9 17  1  0
 10 15  1  0
 11 12  1  0
 11 10  1  0
 13 12  1  0
 13 22  1  0
 13 14  1  0
 15  9  1  0
 15 14  1  0
 16  9  2  0
 17 18  1  0
 19 20  2  0
 20 39  1  0
 21 20  1  0
 21 24  1  0
 22 19  1  0
 22 23  1  0
 23 21  2  0
 24 25  1  0
 25 26  2  0
 27 30  1  0
 27 26  1  0
 28 27  2  0
 29 28  1  0
 29 24  2  0
 30 31  1  0
 31 32  1  0
 32 33  2  0
 34 33  1  0
 34 38  1  0
 35 34  2  0
 36 31  2  0
 36 35  1  0
 37 36  1  0
 39 40  1  0
 40 43  1  0
 40 42  1  0
 41 39  2  0
 44 45  1  0
 44 19  1  0
 46 44  1  0
 47 48  1  0
 49 47  1  0
 49 51  1  0
 51 50  1  0
 52 51  1  0
 53 64  2  0
 54 52  1  0
 54 59  1  0
 55 63  1  0
 55 65  1  0
 56 62  1  0
 56 58  1  0
 57 63  1  0
 58 59  2  0
 58 57  1  0
 60 54  2  0
 61 60  1  0
 61 56  2  0
 62 55  1  0
 63 53  1  0
 65 67  2  0
 66 65  1  0
 68 66  1  0
 69 78  2  0
 69 74  1  0
 70 66  1  0
 70 74  1  0
 71 70  1  0
 72 73  1  0
 72 71  1  0
 73 69  1  0
 74 75  2  0
 75 76  1  0
 77 76  2  0
 78 77  1  0
 79 53  1  0
 79 84  1  0
 79 80  1  0
 80 83  1  1
 80 81  1  0
 82 80  1  0
 84 87  1  0
 85 89  1  0
 85 84  1  0
 86 85  2  0
 89 88  1  0
 91 89  1  0
 91 92  1  0
 91 90  1  0
M  ISO  4   9 100  17 100  51 101  52 101
M  END
>  <TORSDO>  (48) 
F 20

>  <SCORE>  (48) 
-13.850

>  <name>  (48) 
47

>  <ligand_id>  (48) 
47

>  <original_smiles>  (48) 
[H]c1c(N([H])C([H])([H])C([H])(Oc2c([H])c([H])c3c(c2[H])C([H])([H])N(C(=O)C([H])(N([H])C(=O)C([H])(N([H])C([H])([H])[H])C([H])([H])[H])C(C([H])([H])[H])(C([H])([H])[H])C([H])([H])[H])C([H])(C(=O)N([H])C2([H])c4c([H])c([H])c([H])c([H])c4C([H])([H])C([H])([H])C2([H])[H])C3([H])[H])C([H])([H])[H])sc(S(=O)(=O)N([H])C(=O)N2C([H])([H])C([H])([H])C([H])([H])C([H])(n3nc(-c4c([H])c([H])c(Oc5c([H])c([H])c(F)c([H])c5F)c([H])c4[H])c(C(=O)N([H])[H])c3N([H])[H])C2([H])[H])c1[H]

>  <smiles>  (48) 
[H]c1c(N([H])C([H])([H])C([H])(Oc2c([H])c([H])c3c(c2[H])C([H])([H])N(C(=O)C([H])(N([H])C(=O)C([H])(N([H])C([H])([H])[H])C([H])([H])[H])C(C([H])([H])[H])(C([H])([H])[H])C([H])([H])[H])C([H])(C(=O)N([H])C2([H])c4c([H])c([H])c([H])c([H])c4C([H])([H])C([H])([H])C2([H])[H])C3([H])[H])C([H])([H])[H])sc(S(=O)(=O)N([H])C(=O)N2C([H])([H])C([H])([H])C([H])([H])C([H])(n3nc(-c4c([H])c([H])c(Oc5c([H])c([H])c(F)c([H])c5F)c([H])c4[H])c(C(=O)N([H])[H])c3N([H])[H])C2([H])[H])c1[H]

$$$$
48:0:0
     RDKit          3D

 96104  0  0  1  0  0  0  0  0999 V2000
  -29.0640  -23.0820   20.1810 C   0  0  0  0  0  2  0  0  0  0  0  0
  -28.6960  -21.7070   19.7790 N   0  0  0  0  0  0  0  0  0  0  0  0
  -28.4830  -21.6150   18.7840 H   0  0  0  0  0  0  0  0  0  0  0  0
  -29.3240  -19.2860   19.8050 C   0  0  0  0  0  3  0  0  0  0  0  0
  -29.9190  -18.3010   20.6660 C   0  0  0  0  0  0  0  0  0  0  0  0
  -30.2410  -18.8060   21.9070 C   0  0  0  0  0  0  0  0  0  0  0  0
  -29.2070  -20.5360   20.3810 C   0  0  0  0  0  0  0  0  0  0  0  0
  -29.7830  -20.5010   22.0320 S   0  0  0  0  0  0  0  0  0  0  0  0
  -30.9930  -18.2280   23.0330 C   0  0  0  0  0  0  0  0  0  0  0  0
  -30.9330  -18.9050   24.4020 C   0  0  0  0  0  1  0  0  0  0  0  0
  -31.6900  -17.2180   22.9040 O   0  0  0  0  0  0  0  0  0  0  0  0
  -30.2790  -16.9420   20.1600 C   0  0  0  0  0  3  0  0  0  0  0  0
  -29.9890  -15.7080   20.6530 C   0  0  0  0  0  3  0  0  0  0  0  0
  -30.6120  -14.5360   20.0150 C   0  0  0  0  0  0  0  0  0  0  0  0
  -30.2200  -12.3690   18.9080 C   0  0  0  0  0  2  0  0  0  0  0  0
  -29.2240  -12.6120   17.7560 C   0  0  0  0  0  2  0  0  0  0  0  0
  -27.7730  -12.4720   18.2590 C   0  0  0  0  0  2  0  0  0  0  0  0
  -27.5090  -13.2740   19.5640 C   0  0  0  0  0  3  0  0  0  0  0  0
  -28.6300  -13.0550   20.6030 C   0  0  0  0  0  2  0  0  0  0  0  0
  -29.9160  -13.3610   19.9610 N   0  0  0  0  0  0  0  0  0  0  0  0
  -31.6990  -14.6450   19.4420 O   0  0  0  0  0  0  0  0  0  0  0  0
  -25.1540  -13.8450   20.4340 C   0  0  0  0  0  0  0  0  0  0  0  0
  -24.1180  -13.0600   20.8580 C   0  0  0  0  0  0  0  0  0  0  0  0
  -24.5850  -11.7120   20.7720 C   0  0  0  0  0  0  0  0  0  0  0  0
  -26.1890  -12.9780   20.1190 N   0  0  0  0  0  0  0  0  0  0  0  0
  -25.8530  -11.6880   20.3770 N   0  0  0  0  0  0  0  0  0  0  0  0
  -23.8760  -10.4430   20.9870 C   0  0  0  0  0  0  0  0  0  0  0  0
  -24.3540   -9.4710   21.8930 C   0  0  0  0  0  3  0  0  0  0  0  0
  -23.6430   -8.2680   22.0950 C   0  0  0  0  0  3  0  0  0  0  0  0
  -22.4370   -8.0270   21.3930 C   0  0  0  0  0  0  0  0  0  0  0  0
  -21.9770   -8.9890   20.4750 C   0  0  0  0  0  3  0  0  0  0  0  0
  -22.6910  -10.1820   20.2700 C   0  0  0  0  0  3  0  0  0  0  0  0
  -21.6930   -6.8780   21.5070 O   0  0  0  0  0  0  0  0  0  0  0  0
  -21.6840   -6.1340   22.6600 C   0  0  0  0  0  0  0  0  0  0  0  0
  -21.3060   -6.6900   23.9030 C   0  0  0  0  0  3  0  0  0  0  0  0
  -21.2480   -5.8740   25.0510 C   0  0  0  0  0  3  0  0  0  0  0  0
  -21.5580   -4.5050   24.9570 C   0  0  0  0  0  0  0  0  0  0  0  0
  -21.9310   -3.9490   23.7200 C   0  0  0  0  0  3  0  0  0  0  0  0
  -21.9930   -4.7610   22.5750 C   0  0  0  0  0  0  0  0  0  0  0  0
  -22.3310   -4.2170   21.3810 F   0  0  0  0  0  0  0  0  0  0  0  0
  -21.4940   -3.7170   26.0560 F   0  0  0  0  0  0  0  0  0  0  0  0
  -22.7390  -13.5240   21.2280 C   0  0  0  0  0  0  0  0  0  0  0  0
  -22.0710  -12.8140   22.1290 N   0  0  0  0  0  0  0  0  0  0  0  0
  -22.2660  -14.5560   20.7530 O   0  0  0  0  0  0  0  0  0  0  0  0
  -22.4630  -11.9790   22.5400 H   0  0  0  0  0  0  0  0  0  0  0  0
  -21.1480  -13.1070   22.4140 H   0  0  0  0  0  0  0  0  0  0  0  0
  -25.2980  -15.2200   20.2700 N   0  0  0  0  0  0  0  0  0  0  0  0
  -24.5360  -15.8640   20.4510 H   0  0  0  0  0  0  0  0  0  0  0  0
  -26.1370  -15.6820   19.9410 H   0  0  0  0  0  0  0  0  0  0  0  0
  -28.0880  -24.0890   19.4990 C   0  0  0  0  0  3  0  0  0  0  0  0
  -26.7630  -23.9340   20.1260 N   0  0  0  0  0  4  0  0  0  0  0  0
  -26.6690  -24.4910   20.9600 H   0  0  0  0  0  0  0  0  0  0  0  0
  -26.6960  -22.9630   20.3870 H   0  0  0  0  0  0  0  0  0  0  0  0
  -26.0140  -24.1380   19.4870 H   0  0  0  0  0  0  0  0  0  0  0  0
  -28.5240  -25.5800   19.2040 C   0  0  0  0  0  2  0  0  0  0  0  0
  -28.3120  -26.6550   20.1590 O   0  0  0  0  0  0  0  0  0  0  0  0
  -24.5180  -31.9040   23.1930 C   0  0  0  0  0  0  0  0  0  0  0  0
  -27.1610  -27.4340   20.0980 C   0  0  0  0  0  0  0  0  0  0  0  0
  -23.3260  -30.5150   21.5370 C   0  0  0  0  0  3  0  0  0  0  0  0
  -24.7830  -28.9880   20.1120 C   0  0  0  0  0  0  0  0  0  0  0  0
  -25.8640  -30.8580   21.3690 C   0  0  0  0  0  2  0  0  0  0  0  0
  -25.9450  -29.4910   20.7130 C   0  0  0  0  0  0  0  0  0  0  0  0
  -27.1300  -28.7140   20.7150 C   0  0  0  0  0  3  0  0  0  0  0  0
  -25.9780  -26.9730   19.4770 C   0  0  0  0  0  3  0  0  0  0  0  0
  -24.7950  -27.7300   19.4970 C   0  0  0  0  0  3  0  0  0  0  0  0
  -23.5430  -29.8510   20.1540 C   0  0  0  0  0  2  0  0  0  0  0  0
  -24.5880  -31.1090   22.0880 N   0  0  0  0  0  0  0  0  0  0  0  0
  -23.4310  -32.1730   23.7220 O   0  0  0  0  0  0  0  0  0  0  0  0
  -22.6720  -29.4820   22.4840 C   0  0  0  0  0  0  0  0  0  0  0  0
  -21.3500  -29.2900   22.3450 N   0  0  0  0  0  0  0  0  0  0  0  0
  -23.3510  -28.8580   23.3040 O   0  0  0  0  0  0  0  0  0  0  0  0
  -20.8610  -29.8450   21.6570 H   0  0  0  0  0  0  0  0  0  0  0  0
  -17.9820  -28.0610   22.8120 C   0  0  0  0  0  0  0  0  0  0  0  0
  -20.5340  -28.3410   23.1050 C   0  0  0  0  0  3  0  0  0  0  0  0
  -20.6540  -26.9120   22.5270 C   0  0  0  0  0  2  0  0  0  0  0  0
  -19.5640  -26.5820   21.5020 C   0  0  0  0  0  2  0  0  0  0  0  0
  -18.1760  -26.7170   22.1340 C   0  0  0  0  0  2  0  0  0  0  0  0
  -19.0900  -28.8330   23.2530 C   0  0  0  0  0  0  0  0  0  0  0  0
  -18.8560  -30.0900   23.8480 C   0  0  0  0  0  3  0  0  0  0  0  0
  -17.5460  -30.5810   24.0020 C   0  0  0  0  0  3  0  0  0  0  0  0
  -16.4520  -29.8060   23.5750 C   0  0  0  0  0  3  0  0  0  0  0  0
  -16.6710  -28.5470   22.9880 C   0  0  0  0  0  3  0  0  0  0  0  0
  -25.7980  -32.5380   23.8250 C   0  0  0  0  0  3  0  0  0  0  0  0
  -26.3120  -31.7610   25.0980 C   0  0  1  0  0  0  0  0  0  0  0  0
  -25.2130  -31.5130   26.1580 C   0  0  0  0  0  1  0  0  0  0  0  0
  -26.9040  -30.3880   24.7050 C   0  0  0  0  0  1  0  0  0  0  0  0
  -27.4520  -32.5590   25.7700 C   0  0  0  0  0  1  0  0  0  0  0  0
  -25.4790  -33.9320   24.1610 N   0  0  0  0  0  0  0  0  0  0  0  0
  -25.8030  -34.9900   23.4060 C   0  0  0  0  0  0  0  0  0  0  0  0
  -26.4740  -34.8930   22.3740 O   0  0  0  0  0  0  0  0  0  0  0  0
  -24.8820  -34.0800   24.9620 H   0  0  0  0  0  0  0  0  0  0  0  0
  -24.0600  -36.7690   23.0630 C   0  0  0  0  0  1  0  0  0  0  0  0
  -25.3090  -36.3730   23.8680 C   0  0  0  0  0  3  0  0  0  0  0  0
  -27.4410  -37.2690   24.6940 C   0  0  0  0  0  1  0  0  0  0  0  0
  -26.3350  -37.4330   23.7540 N   0  0  0  0  0  0  0  0  0  0  0  0
  -25.9220  -38.3510   23.9050 H   0  0  0  0  0  0  0  0  0  0  0  0
  2  1  1  0
  2  7  1  0
  3  2  1  0
  4  7  2  0
  4  5  1  0
  5  6  2  0
  6  8  1  0
  6  9  1  0
  7  8  1  0
  9 10  1  0
 11  9  2  0
 12 13  2  0
 12  5  1  0
 14 13  1  0
 15 20  1  0
 16 17  1  0
 16 15  1  0
 18 17  1  0
 18 25  1  0
 18 19  1  0
 20 14  1  0
 20 19  1  0
 21 14  2  0
 22 23  2  0
 23 42  1  0
 24 23  1  0
 24 27  1  0
 25 26  1  0
 25 22  1  0
 26 24  2  0
 27 28  1  0
 28 29  2  0
 30 33  1  0
 30 29  1  0
 31 30  2  0
 32 31  1  0
 32 27  2  0
 33 34  1  0
 34 35  1  0
 35 36  2  0
 37 36  1  0
 37 41  1  0
 38 37  2  0
 39 34  2  0
 39 38  1  0
 40 39  1  0
 42 43  1  0
 43 46  1  0
 43 45  1  0
 44 42  2  0
 47 22  1  0
 47 48  1  0
 49 47  1  0
 50 55  1  0
 50 51  1  0
 50  1  1  0
 51 53  1  0
 51 52  1  0
 54 51  1  0
 55 56  1  0
 57 68  2  0
 58 56  1  0
 58 63  1  0
 59 67  1  0
 59 69  1  0
 60 66  1  0
 60 62  1  0
 61 67  1  0
 62 63  2  0
 62 61  1  0
 64 65  1  0
 64 58  2  0
 65 60  2  0
 66 59  1  0
 67 57  1  0
 69 71  2  0
 70 69  1  0
 72 70  1  0
 73 82  2  0
 73 78  1  0
 74 70  1  0
 74 78  1  0
 75 74  1  0
 76 77  1  0
 76 75  1  0
 77 73  1  0
 78 79  2  0
 79 80  1  0
 81 80  2  0
 82 81  1  0
 83 57  1  0
 83 88  1  0
 83 84  1  0
 84 87  1  1
 84 85  1  0
 86 84  1  0
 88 91  1  0
 89 93  1  0
 89 88  1  0
 90 89  2  0
 93 92  1  0
 95 93  1  0
 95 96  1  0
 95 94  1  0
M  ISO  4  13 100  14 100  55 101  56 101
M  END
>  <TORSDO>  (49) 
F 23

>  <SCORE>  (49) 
-10.736

>  <name>  (49) 
48

>  <ligand_id>  (49) 
48

>  <original_smiles>  (49) 
[H]C(C(=O)N1C([H])([H])C([H])([H])C([H])([H])C([H])(n2nc(-c3c([H])c([H])c(Oc4c([H])c([H])c(F)c([H])c4F)c([H])c3[H])c(C(=O)N([H])[H])c2N([H])[H])C1([H])[H])=C([H])c1c(C(=O)C([H])([H])[H])sc(N([H])C([H])([H])C([H])(C([H])([H])Oc2c([H])c([H])c3c(c2[H])C([H])([H])N(C(=O)C([H])(N([H])C(=O)C([H])(N([H])C([H])([H])[H])C([H])([H])[H])C(C([H])([H])[H])(C([H])([H])[H])C([H])([H])[H])C([H])(C(=O)N([H])C2([H])c4c([H])c([H])c([H])c([H])c4C([H])([H])C([H])([H])C2([H])[H])C3([H])[H])[N+]([H])([H])[H])c1[H]

>  <smiles>  (49) 
[H]C(C(=O)N1C([H])([H])C([H])([H])C([H])([H])C([H])(n2nc(-c3c([H])c([H])c(Oc4c([H])c([H])c(F)c([H])c4F)c([H])c3[H])c(C(=O)N([H])[H])c2N([H])[H])C1([H])[H])=C([H])c1c(C(=O)C([H])([H])[H])sc(N([H])C([H])([H])C([H])(C([H])([H])Oc2c([H])c([H])c3c(c2[H])C([H])([H])N(C(=O)C([H])(N([H])C(=O)C([H])(N([H])C([H])([H])[H])C([H])([H])[H])C(C([H])([H])[H])(C([H])([H])[H])C([H])([H])[H])C([H])(C(=O)N([H])C2([H])c4c([H])c([H])c([H])c([H])c4C([H])([H])C([H])([H])C2([H])[H])C3([H])[H])[N+]([H])([H])[H])c1[H]

$$$$
49:0:0
     RDKit          3D

 93102  0  0  1  0  0  0  0  0999 V2000
  -30.6020  -17.8160   18.9490 C   0  0  0  0  0  0  0  0  0  0  0  0
  -29.9180  -17.3740   20.0780 C   0  0  0  0  0  0  0  0  0  0  0  0
  -29.4540  -19.7370   20.1480 C   0  0  0  0  0  0  0  0  0  0  0  0
  -29.2160  -18.4940   20.6850 N   0  0  0  0  0  0  0  0  0  0  0  0
  -28.8780  -21.0230   20.4970 N   0  0  0  0  0  0  0  0  0  0  0  0
  -30.5910  -19.5870   18.8200 S   0  0  0  0  0  0  0  0  0  0  0  0
  -28.0370  -20.9080   21.0530 H   0  0  0  0  0  0  0  0  0  0  0  0
  -30.5780  -14.8110   20.3260 C   0  0  0  0  0  0  0  0  0  0  0  0
  -30.3950  -12.5240   19.3460 C   0  0  0  0  0  2  0  0  0  0  0  0
  -29.4660  -12.6260   18.1140 C   0  0  0  0  0  2  0  0  0  0  0  0
  -27.9920  -12.4470   18.5330 C   0  0  0  0  0  2  0  0  0  0  0  0
  -27.6150  -13.3160   19.7640 C   0  0  0  0  0  3  0  0  0  0  0  0
  -28.6680  -13.2220   20.8880 C   0  0  0  0  0  2  0  0  0  0  0  0
  -29.9680  -13.5740   20.3020 N   0  0  0  0  0  0  0  0  0  0  0  0
  -31.7750  -14.8960   20.0400 O   0  0  0  0  0  0  0  0  0  0  0  0
  -29.7750  -15.9430   20.4920 N   0  0  0  0  0  0  0  0  0  0  0  0
  -28.8770  -15.7300   20.9000 H   0  0  0  0  0  0  0  0  0  0  0  0
  -25.2190  -13.9020   20.4670 C   0  0  0  0  0  0  0  0  0  0  0  0
  -24.1510  -13.1290   20.8330 C   0  0  0  0  0  0  0  0  0  0  0  0
  -24.6210  -11.7780   20.8180 C   0  0  0  0  0  0  0  0  0  0  0  0
  -26.2670  -13.0250   20.2460 N   0  0  0  0  0  0  0  0  0  0  0  0
  -25.9130  -11.7420   20.5200 N   0  0  0  0  0  0  0  0  0  0  0  0
  -23.8960  -10.5160   21.0120 C   0  0  0  0  0  0  0  0  0  0  0  0
  -24.3200   -9.5570   21.9570 C   0  0  0  0  0  3  0  0  0  0  0  0
  -23.5940   -8.3590   22.1390 C   0  0  0  0  0  3  0  0  0  0  0  0
  -22.4300   -8.1120   21.3720 C   0  0  0  0  0  0  0  0  0  0  0  0
  -22.0250   -9.0590   20.4150 C   0  0  0  0  0  3  0  0  0  0  0  0
  -22.7520  -10.2470   20.2330 C   0  0  0  0  0  3  0  0  0  0  0  0
  -21.6780   -6.9650   21.4580 O   0  0  0  0  0  0  0  0  0  0  0  0
  -21.6120   -6.2330   22.6170 C   0  0  0  0  0  0  0  0  0  0  0  0
  -21.1580   -6.7960   23.8290 C   0  0  0  0  0  3  0  0  0  0  0  0
  -21.0410   -5.9910   24.9790 C   0  0  0  0  0  3  0  0  0  0  0  0
  -21.3690   -4.6230   24.9180 C   0  0  0  0  0  0  0  0  0  0  0  0
  -21.8170   -4.0600   23.7110 C   0  0  0  0  0  3  0  0  0  0  0  0
  -21.9360   -4.8630   22.5630 C   0  0  0  0  0  0  0  0  0  0  0  0
  -22.3470   -4.3120   21.3970 F   0  0  0  0  0  0  0  0  0  0  0  0
  -21.2510   -3.8460   26.0220 F   0  0  0  0  0  0  0  0  0  0  0  0
  -22.7500  -13.6040   21.0870 C   0  0  0  0  0  0  0  0  0  0  0  0
  -22.0120  -12.9100   21.9480 N   0  0  0  0  0  0  0  0  0  0  0  0
  -22.3170  -14.6260   20.5570 O   0  0  0  0  0  0  0  0  0  0  0  0
  -22.3760  -12.0880   22.4010 H   0  0  0  0  0  0  0  0  0  0  0  0
  -21.0700  -13.2100   22.1570 H   0  0  0  0  0  0  0  0  0  0  0  0
  -25.3740  -15.2720   20.2770 N   0  0  0  0  0  0  0  0  0  0  0  0
  -24.5890  -15.9080   20.3670 H   0  0  0  0  0  0  0  0  0  0  0  0
  -26.2030  -15.7170   19.9070 H   0  0  0  0  0  0  0  0  0  0  0  0
  -32.6720  -17.3210   17.3690 C   0  0  0  0  0  2  0  0  0  0  0  0
  -31.4950  -17.6110   16.4660 C   0  0  0  0  0  2  0  0  0  0  0  0
  -31.2690  -17.0260   17.8490 C   0  0  0  0  0  3  0  0  0  0  0  0
  -29.3290  -22.4850   20.4940 C   0  0  0  0  0  2  0  0  0  0  0  0
  -28.3690  -23.7250   20.1210 C   0  0  0  0  0  0  0  0  0  0  0  0
  -27.5840  -23.5970   19.1770 O   0  0  0  0  0  0  0  0  0  0  0  0
  -28.3820  -25.1030   20.9600 C   0  0  0  0  0  2  0  0  0  0  0  0
  -28.3980  -26.4390   20.2660 O   0  0  0  0  0  0  0  0  0  0  0  0
  -24.5940  -31.9020   23.2620 C   0  0  0  0  0  0  0  0  0  0  0  0
  -27.2740  -27.2910   20.3020 C   0  0  0  0  0  0  0  0  0  0  0  0
  -23.4250  -30.4780   21.6180 C   0  0  0  0  0  3  0  0  0  0  0  0
  -24.9060  -28.9110   20.2370 C   0  0  0  0  0  0  0  0  0  0  0  0
  -25.9660  -30.8030   21.4690 C   0  0  0  0  0  2  0  0  0  0  0  0
  -26.0660  -29.4100   20.8450 C   0  0  0  0  0  0  0  0  0  0  0  0
  -27.2570  -28.6140   20.8610 C   0  0  0  0  0  3  0  0  0  0  0  0
  -26.0930  -26.8480   19.6800 C   0  0  0  0  0  3  0  0  0  0  0  0
  -24.9240  -27.6390   19.6430 C   0  0  0  0  0  3  0  0  0  0  0  0
  -23.6670  -29.7860   20.2520 C   0  0  0  0  0  2  0  0  0  0  0  0
  -24.6800  -31.0810   22.1730 N   0  0  0  0  0  0  0  0  0  0  0  0
  -23.5010  -32.1790   23.7780 O   0  0  0  0  0  0  0  0  0  0  0  0
  -22.7530  -29.4710   22.5830 C   0  0  0  0  0  0  0  0  0  0  0  0
  -21.4270  -29.2910   22.4420 N   0  0  0  0  0  0  0  0  0  0  0  0
  -23.4220  -28.8530   23.4140 O   0  0  0  0  0  0  0  0  0  0  0  0
  -20.9470  -29.8430   21.7470 H   0  0  0  0  0  0  0  0  0  0  0  0
  -18.0450  -28.0950   22.9170 C   0  0  0  0  0  0  0  0  0  0  0  0
  -20.6020  -28.3550   23.2080 C   0  0  0  0  0  3  0  0  0  0  0  0
  -20.7070  -26.9220   22.6350 C   0  0  0  0  0  2  0  0  0  0  0  0
  -19.6120  -26.5980   21.6130 C   0  0  0  0  0  2  0  0  0  0  0  0
  -18.2260  -26.7440   22.2470 C   0  0  0  0  0  2  0  0  0  0  0  0
  -19.1610  -28.8580   23.3540 C   0  0  0  0  0  0  0  0  0  0  0  0
  -18.9380  -30.1220   23.9430 C   0  0  0  0  0  3  0  0  0  0  0  0
  -17.6310  -30.6220   24.1000 C   0  0  0  0  0  3  0  0  0  0  0  0
  -16.5310  -29.8570   23.6780 C   0  0  0  0  0  3  0  0  0  0  0  0
  -16.7370  -28.5960   23.0930 C   0  0  0  0  0  3  0  0  0  0  0  0
  -25.8610  -32.5500   23.9010 C   0  0  0  0  0  3  0  0  0  0  0  0
  -26.3540  -31.8030   25.2010 C   0  0  1  0  0  0  0  0  0  0  0  0
  -25.2390  -31.5810   26.2500 C   0  0  0  0  0  1  0  0  0  0  0  0
  -26.9480  -30.4210   24.8440 C   0  0  0  0  0  1  0  0  0  0  0  0
  -27.4880  -32.6110   25.8710 C   0  0  0  0  0  1  0  0  0  0  0  0
  -25.5420  -33.9530   24.2040 N   0  0  0  0  0  0  0  0  0  0  0  0
  -25.8890  -34.9970   23.4400 C   0  0  0  0  0  0  0  0  0  0  0  0
  -26.5830  -34.8820   22.4250 O   0  0  0  0  0  0  0  0  0  0  0  0
  -24.9310  -34.1180   24.9900 H   0  0  0  0  0  0  0  0  0  0  0  0
  -24.1730  -36.7890   23.0180 C   0  0  0  0  0  1  0  0  0  0  0  0
  -25.3910  -36.3920   23.8670 C   0  0  0  0  0  3  0  0  0  0  0  0
  -27.5030  -37.2880   24.7460 C   0  0  0  0  0  1  0  0  0  0  0  0
  -26.4270  -37.4440   23.7700 N   0  0  0  0  0  0  0  0  0  0  0  0
  -26.0160  -38.3650   23.8950 H   0  0  0  0  0  0  0  0  0  0  0  0
  1  2  2  0
  2 16  1  0
  2  4  1  0
  3  5  1  0
  3  4  2  0
  5  7  1  0
  6  1  1  0
  6  3  1  0
  8 16  1  0
  9 14  1  0
 10 11  1  0
 10  9  1  0
 12 11  1  0
 12 21  1  0
 12 13  1  0
 14  8  1  0
 14 13  1  0
 15  8  2  0
 16 17  1  0
 18 19  2  0
 19 38  1  0
 20 19  1  0
 20 23  1  0
 21 18  1  0
 21 22  1  0
 22 20  2  0
 23 24  1  0
 24 25  2  0
 26 29  1  0
 26 25  1  0
 27 26  2  0
 28 27  1  0
 28 23  2  0
 29 30  1  0
 30 31  1  0
 31 32  2  0
 33 32  1  0
 33 37  1  0
 34 33  2  0
 35 30  2  0
 35 34  1  0
 36 35  1  0
 38 39  1  0
 39 42  1  0
 39 41  1  0
 40 38  2  0
 43 44  1  0
 43 18  1  0
 45 43  1  0
 46 48  1  0
 47 46  1  0
 47 48  1  0
 48  1  1  0
 49  5  1  0
 50 49  1  0
 50 52  1  0
 51 50  2  0
 53 55  1  0
 53 52  1  0
 54 65  2  0
 55 60  1  0
 56 64  1  0
 56 66  1  0
 57 63  1  0
 57 59  1  0
 58 64  1  0
 59 60  2  0
 59 58  1  0
 61 55  2  0
 62 61  1  0
 62 57  2  0
 63 56  1  0
 64 54  1  0
 66 68  2  0
 67 66  1  0
 69 67  1  0
 70 79  2  0
 70 75  1  0
 71 67  1  0
 71 75  1  0
 72 71  1  0
 73 74  1  0
 73 72  1  0
 74 70  1  0
 75 76  2  0
 76 77  1  0
 78 77  2  0
 79 78  1  0
 80 54  1  0
 80 85  1  0
 80 81  1  0
 81 84  1  1
 81 82  1  0
 83 81  1  0
 85 88  1  0
 86 90  1  0
 86 85  1  0
 87 86  2  0
 90 89  1  0
 92 90  1  0
 92 93  1  0
 92 91  1  0
M  ISO  4   8 100  16 100  52 101  53 101
M  END
>  <TORSDO>  (50) 
F 20

>  <SCORE>  (50) 
-13.838

>  <name>  (50) 
49

>  <ligand_id>  (50) 
49

>  <original_smiles>  (50) 
[H]c1c([H])c([H])c2c(c1[H])C([H])([H])C([H])([H])C([H])([H])C2([H])N([H])C(=O)C1([H])N(C(=O)C([H])(N([H])C(=O)C([H])(N([H])C([H])([H])[H])C([H])([H])[H])C(C([H])([H])[H])(C([H])([H])[H])C([H])([H])[H])C([H])([H])c2c([H])c(OC([H])([H])C(=O)C([H])([H])N([H])c3nc(N([H])C(=O)N4C([H])([H])C([H])([H])C([H])([H])C([H])(n5nc(-c6c([H])c([H])c(Oc7c([H])c([H])c(F)c([H])c7F)c([H])c6[H])c(C(=O)N([H])[H])c5N([H])[H])C4([H])[H])c(C4([H])C([H])([H])C4([H])[H])s3)c([H])c([H])c2C1([H])[H]

>  <smiles>  (50) 
[H]c1c([H])c([H])c2c(c1[H])C([H])([H])C([H])([H])C([H])([H])C2([H])N([H])C(=O)C1([H])N(C(=O)C([H])(N([H])C(=O)C([H])(N([H])C([H])([H])[H])C([H])([H])[H])C(C([H])([H])[H])(C([H])([H])[H])C([H])([H])[H])C([H])([H])c2c([H])c(OC([H])([H])C(=O)C([H])([H])N([H])c3nc(N([H])C(=O)N4C([H])([H])C([H])([H])C([H])([H])C([H])(n5nc(-c6c([H])c([H])c(Oc7c([H])c([H])c(F)c([H])c7F)c([H])c6[H])c(C(=O)N([H])[H])c5N([H])[H])C4([H])[H])c(C4([H])C([H])([H])C4([H])[H])s3)c([H])c([H])c2C1([H])[H]

$$$$
50:0:0
     RDKit          3D

 94103  0  0  1  0  0  0  0  0999 V2000
  -28.8950  -21.6360   18.6060 C   0  0  0  0  0  2  0  0  0  0  0  0
  -29.9580  -21.6240   20.8630 C   0  0  0  0  0  2  0  0  0  0  0  0
  -28.1860  -22.9960   18.9430 C   0  0  0  0  0  2  0  0  0  0  0  0
  -29.2090  -22.9360   21.2260 C   0  0  0  0  0  2  0  0  0  0  0  0
  -29.1960  -20.7380   19.8550 C   0  0  0  0  0  3  0  0  0  0  0  0
  -28.8810  -23.8780   20.0330 C   0  0  0  0  0  3  0  0  0  0  0  0
  -30.6590  -14.6140   20.3270 C   0  0  0  0  0  0  0  0  0  0  0  0
  -30.3790  -12.3720   19.3550 C   0  0  0  0  0  2  0  0  0  0  0  0
  -29.4440  -12.5060   18.1370 C   0  0  0  0  0  2  0  0  0  0  0  0
  -27.9670  -12.3720   18.5670 C   0  0  0  0  0  2  0  0  0  0  0  0
  -27.6130  -13.2430   19.8080 C   0  0  0  0  0  3  0  0  0  0  0  0
  -28.6830  -13.1200   20.9200 C   0  0  0  0  0  2  0  0  0  0  0  0
  -29.9910  -13.4190   20.3150 N   0  0  0  0  0  0  0  0  0  0  0  0
  -31.8500  -14.6730   20.0120 O   0  0  0  0  0  0  0  0  0  0  0  0
  -29.9040  -19.3780   19.6000 C   0  0  0  0  0  0  0  0  0  0  0  0
  -31.0400  -19.1530   18.8410 C   0  0  0  0  0  0  0  0  0  0  0  0
  -30.2030  -17.0730   19.9440 C   0  0  0  0  0  0  0  0  0  0  0  0
  -29.4580  -18.1700   20.2280 N   0  0  0  0  0  0  0  0  0  0  0  0
  -29.9210  -15.7490   20.4860 N   0  0  0  0  0  0  0  0  0  0  0  0
  -31.5090  -17.4660   18.8220 S   0  0  0  0  0  0  0  0  0  0  0  0
  -29.0130  -15.6330   20.9060 H   0  0  0  0  0  0  0  0  0  0  0  0
  -25.2240  -13.8400   20.5440 C   0  0  0  0  0  0  0  0  0  0  0  0
  -24.1590  -13.0680   20.9140 C   0  0  0  0  0  0  0  0  0  0  0  0
  -24.6170  -11.7150   20.8810 C   0  0  0  0  0  0  0  0  0  0  0  0
  -26.2680  -12.9590   20.3050 N   0  0  0  0  0  0  0  0  0  0  0  0
  -25.9100  -11.6770   20.5720 N   0  0  0  0  0  0  0  0  0  0  0  0
  -23.8880  -10.4540   21.0700 C   0  0  0  0  0  0  0  0  0  0  0  0
  -24.3300   -9.4760   21.9860 C   0  0  0  0  0  3  0  0  0  0  0  0
  -23.6040   -8.2790   22.1650 C   0  0  0  0  0  3  0  0  0  0  0  0
  -22.4180   -8.0530   21.4280 C   0  0  0  0  0  0  0  0  0  0  0  0
  -21.9940   -9.0180   20.4990 C   0  0  0  0  0  3  0  0  0  0  0  0
  -22.7210  -10.2060   20.3190 C   0  0  0  0  0  3  0  0  0  0  0  0
  -21.6590   -6.9110   21.5180 O   0  0  0  0  0  0  0  0  0  0  0  0
  -21.6360   -6.1540   22.6590 C   0  0  0  0  0  0  0  0  0  0  0  0
  -21.2470   -6.6920   23.9050 C   0  0  0  0  0  3  0  0  0  0  0  0
  -21.1700   -5.8600   25.0390 C   0  0  0  0  0  3  0  0  0  0  0  0
  -21.4720   -4.4890   24.9300 C   0  0  0  0  0  0  0  0  0  0  0  0
  -21.8550   -3.9510   23.6900 C   0  0  0  0  0  3  0  0  0  0  0  0
  -21.9350   -4.7810   22.5580 C   0  0  0  0  0  0  0  0  0  0  0  0
  -22.2850   -4.2550   21.3610 F   0  0  0  0  0  0  0  0  0  0  0  0
  -21.3920   -3.6850   26.0160 F   0  0  0  0  0  0  0  0  0  0  0  0
  -22.7610  -13.5470   21.1880 C   0  0  0  0  0  0  0  0  0  0  0  0
  -22.0350  -12.8540   22.0590 N   0  0  0  0  0  0  0  0  0  0  0  0
  -22.3210  -14.5720   20.6660 O   0  0  0  0  0  0  0  0  0  0  0  0
  -22.3920  -12.0190   22.4990 H   0  0  0  0  0  0  0  0  0  0  0  0
  -21.0950  -13.1590   22.2790 H   0  0  0  0  0  0  0  0  0  0  0  0
  -25.3850  -15.2110   20.3610 N   0  0  0  0  0  0  0  0  0  0  0  0
  -24.6160  -15.8660   20.4720 H   0  0  0  0  0  0  0  0  0  0  0  0
  -26.2140  -15.6470   19.9830 H   0  0  0  0  0  0  0  0  0  0  0  0
  -31.8350  -20.0720   18.1550 N   0  0  0  0  0  0  0  0  0  0  0  0
  -31.9060  -21.0490   18.4310 H   0  0  0  0  0  0  0  0  0  0  0  0
  -32.5950  -19.8120   17.5330 H   0  0  0  0  0  0  0  0  0  0  0  0
  -28.0020  -25.0990   20.5370 C   0  0  0  0  0  2  0  0  0  0  0  0
  -28.3000  -26.4830   20.1310 O   0  0  0  0  0  0  0  0  0  0  0  0
  -24.6290  -31.8800   23.2320 C   0  0  0  0  0  0  0  0  0  0  0  0
  -27.2030  -27.3440   20.1290 C   0  0  0  0  0  0  0  0  0  0  0  0
  -23.4140  -30.4810   21.6000 C   0  0  0  0  0  3  0  0  0  0  0  0
  -24.8520  -28.9450   20.1580 C   0  0  0  0  0  0  0  0  0  0  0  0
  -25.9560  -30.8000   21.4050 C   0  0  0  0  0  2  0  0  0  0  0  0
  -26.0270  -29.4260   20.7530 C   0  0  0  0  0  0  0  0  0  0  0  0
  -27.2110  -28.6340   20.7390 C   0  0  0  0  0  3  0  0  0  0  0  0
  -26.0160  -26.9270   19.4900 C   0  0  0  0  0  3  0  0  0  0  0  0
  -24.8470  -27.6990   19.5210 C   0  0  0  0  0  3  0  0  0  0  0  0
  -23.6180  -29.8190   20.2150 C   0  0  0  0  0  2  0  0  0  0  0  0
  -24.6860  -31.0700   22.1340 N   0  0  0  0  0  0  0  0  0  0  0  0
  -23.5460  -32.1570   23.7680 O   0  0  0  0  0  0  0  0  0  0  0  0
  -22.7640  -29.4560   22.5590 C   0  0  0  0  0  0  0  0  0  0  0  0
  -21.4390  -29.2750   22.4360 N   0  0  0  0  0  0  0  0  0  0  0  0
  -23.4500  -28.8270   23.3700 O   0  0  0  0  0  0  0  0  0  0  0  0
  -20.9470  -29.8360   21.7550 H   0  0  0  0  0  0  0  0  0  0  0  0
  -18.0640  -28.0900   22.9570 C   0  0  0  0  0  0  0  0  0  0  0  0
  -20.6240  -28.3400   23.2090 C   0  0  0  0  0  3  0  0  0  0  0  0
  -20.7170  -26.9080   22.6310 C   0  0  0  0  0  2  0  0  0  0  0  0
  -19.6050  -26.5910   21.6250 C   0  0  0  0  0  2  0  0  0  0  0  0
  -18.2300  -26.7390   22.2790 C   0  0  0  0  0  2  0  0  0  0  0  0
  -19.1870  -28.8480   23.3790 C   0  0  0  0  0  0  0  0  0  0  0  0
  -18.9770  -30.1130   23.9720 C   0  0  0  0  0  3  0  0  0  0  0  0
  -17.6770  -30.6200   24.1470 C   0  0  0  0  0  3  0  0  0  0  0  0
  -16.5660  -29.8580   23.7430 C   0  0  0  0  0  3  0  0  0  0  0  0
  -16.7600  -28.5970   23.1520 C   0  0  0  0  0  3  0  0  0  0  0  0
  -25.9140  -32.5150   23.8430 C   0  0  0  0  0  3  0  0  0  0  0  0
  -25.5990  -33.9080   24.1850 N   0  0  0  0  0  0  0  0  0  0  0  0
  -25.9100  -34.9660   23.4260 C   0  0  0  0  0  0  0  0  0  0  0  0
  -26.5660  -34.8760   22.3850 O   0  0  0  0  0  0  0  0  0  0  0  0
  -25.0200  -34.0550   24.9980 H   0  0  0  0  0  0  0  0  0  0  0  0
  -24.1610  -36.7470   23.1030 C   0  0  0  0  0  1  0  0  0  0  0  0
  -25.4150  -36.3500   23.8970 C   0  0  0  0  0  3  0  0  0  0  0  0
  -27.5580  -37.2420   24.7060 C   0  0  0  0  0  1  0  0  0  0  0  0
  -26.4390  -37.4140   23.7810 N   0  0  0  0  0  0  0  0  0  0  0  0
  -26.0260  -38.3270   23.9510 H   0  0  0  0  0  0  0  0  0  0  0  0
  -26.4440  -31.7380   25.1090 C   0  0  1  0  0  0  0  0  0  0  0  0
  -25.3640  -31.4880   26.1870 C   0  0  0  0  0  1  0  0  0  0  0  0
  -27.0320  -30.3650   24.7060 C   0  0  0  0  0  1  0  0  0  0  0  0
  -27.5980  -32.5330   25.7660 C   0  0  0  0  0  1  0  0  0  0  0  0
  1  3  1  0
  1  5  1  0
  2  4  1  0
  3  6  1  0
  5 15  1  0
  5  2  1  0
  6 53  1  0
  6  4  1  0
  7 19  1  0
  8 13  1  0
  9 10  1  0
  9  8  1  0
 11 10  1  0
 11 25  1  0
 11 12  1  0
 13  7  1  0
 13 12  1  0
 14  7  2  0
 15 18  1  0
 16 15  2  0
 17 18  2  0
 17 19  1  0
 19 21  1  0
 20 16  1  0
 20 17  1  0
 22 23  2  0
 23 42  1  0
 24 23  1  0
 24 27  1  0
 25 22  1  0
 25 26  1  0
 26 24  2  0
 27 28  1  0
 28 29  2  0
 30 33  1  0
 30 29  1  0
 31 30  2  0
 32 31  1  0
 32 27  2  0
 33 34  1  0
 34 35  1  0
 35 36  2  0
 37 36  1  0
 37 41  1  0
 38 37  2  0
 39 34  2  0
 39 38  1  0
 40 39  1  0
 42 43  1  0
 43 46  1  0
 43 45  1  0
 44 42  2  0
 47 48  1  0
 47 22  1  0
 49 47  1  0
 50 51  1  0
 50 16  1  0
 52 50  1  0
 54 53  1  0
 55 66  2  0
 56 54  1  0
 56 61  1  0
 57 65  1  0
 57 67  1  0
 58 64  1  0
 58 60  1  0
 59 65  1  0
 60 59  1  0
 61 60  2  0
 62 63  1  0
 62 56  2  0
 63 58  2  0
 64 57  1  0
 65 55  1  0
 67 69  2  0
 68 67  1  0
 70 68  1  0
 71 80  2  0
 71 76  1  0
 72 68  1  0
 72 76  1  0
 73 72  1  0
 74 75  1  0
 74 73  1  0
 75 71  1  0
 76 77  2  0
 77 78  1  0
 79 78  2  0
 80 79  1  0
 81 55  1  0
 81 82  1  0
 81 91  1  0
 82 85  1  0
 83 87  1  0
 83 82  1  0
 84 83  2  0
 87 86  1  0
 89 87  1  0
 89 90  1  0
 89 88  1  0
 91 94  1  1
 91 92  1  0
 93 91  1  0
M  ISO  4   7 100  19 100  53 101  54 101
M  END
>  <TORSDO>  (51) 
F 18

>  <SCORE>  (51) 
-14.930

>  <name>  (51) 
50

>  <ligand_id>  (51) 
50

>  <original_smiles>  (51) 
[H]c1c([H])c([H])c2c(c1[H])C([H])([H])C([H])([H])C([H])([H])C2([H])N([H])C(=O)C1([H])N(C(=O)C([H])(N([H])C(=O)C([H])(N([H])C([H])([H])[H])C([H])([H])[H])C(C([H])([H])[H])(C([H])([H])[H])C([H])([H])[H])C([H])([H])c2c([H])c(OC([H])([H])C3([H])C([H])([H])C([H])([H])C([H])(c4nc(N([H])C(=O)N5C([H])([H])C([H])([H])C([H])([H])C([H])(n6nc(-c7c([H])c([H])c(Oc8c([H])c([H])c(F)c([H])c8F)c([H])c7[H])c(C(=O)N([H])[H])c6N([H])[H])C5([H])[H])sc4N([H])[H])C([H])([H])C3([H])[H])c([H])c([H])c2C1([H])[H]

>  <smiles>  (51) 
[H]c1c([H])c([H])c2c(c1[H])C([H])([H])C([H])([H])C([H])([H])C2([H])N([H])C(=O)C1([H])N(C(=O)C([H])(N([H])C(=O)C([H])(N([H])C([H])([H])[H])C([H])([H])[H])C(C([H])([H])[H])(C([H])([H])[H])C([H])([H])[H])C([H])([H])c2c([H])c(OC([H])([H])C3([H])C([H])([H])C([H])([H])C([H])(c4nc(N([H])C(=O)N5C([H])([H])C([H])([H])C([H])([H])C([H])(n6nc(-c7c([H])c([H])c(Oc8c([H])c([H])c(F)c([H])c8F)c([H])c7[H])c(C(=O)N([H])[H])c6N([H])[H])C5([H])[H])sc4N([H])[H])C([H])([H])C3([H])[H])c([H])c([H])c2C1([H])[H]

$$$$
51:0:0
     RDKit          3D

 90 98  0  0  1  0  0  0  0  0999 V2000
  -28.5370  -23.6250   20.0370 C   0  0  0  0  0  0  0  0  0  0  0  0
  -28.8110  -22.4470   20.7400 N   0  0  0  0  0  0  0  0  0  0  0  0
  -28.5880  -23.6560   18.8040 O   0  0  0  0  0  0  0  0  0  0  0  0
  -28.8250  -22.5930   21.7380 H   0  0  0  0  0  0  0  0  0  0  0  0
  -29.5890  -20.0820   21.1550 C   0  0  0  0  0  3  0  0  0  0  0  0
  -29.6400  -18.8500   20.3670 C   0  0  0  0  0  0  0  0  0  0  0  0
  -29.0490  -21.1040   20.3690 C   0  0  0  0  0  0  0  0  0  0  0  0
  -29.1080  -19.1520   19.1770 N   0  0  0  0  0  0  0  0  0  0  0  0
  -28.7400  -20.5300   19.1670 O   0  0  0  0  0  0  0  0  0  0  0  0
  -30.4060  -17.4590   20.6430 C   0  0  0  0  0  2  0  0  0  0  0  0
  -30.5870  -14.8510   20.3080 C   0  0  0  0  0  0  0  0  0  0  0  0
  -30.3940  -12.5490   19.3290 C   0  0  0  0  0  2  0  0  0  0  0  0
  -29.4580  -12.5650   18.1000 C   0  0  0  0  0  2  0  0  0  0  0  0
  -27.9910  -12.3860   18.5340 C   0  0  0  0  0  2  0  0  0  0  0  0
  -27.6050  -13.3020   19.7260 C   0  0  0  0  0  3  0  0  0  0  0  0
  -28.6620  -13.2670   20.8500 C   0  0  0  0  0  2  0  0  0  0  0  0
  -29.9460  -13.6290   20.2410 N   0  0  0  0  0  0  0  0  0  0  0  0
  -31.7880  -14.9080   20.0300 O   0  0  0  0  0  0  0  0  0  0  0  0
  -29.8540  -16.0270   20.4920 N   0  0  0  0  0  0  0  0  0  0  0  0
  -28.8600  -15.9260   20.6210 H   0  0  0  0  0  0  0  0  0  0  0  0
  -25.2210  -13.8940   20.4590 C   0  0  0  0  0  0  0  0  0  0  0  0
  -24.1550  -13.1210   20.8280 C   0  0  0  0  0  0  0  0  0  0  0  0
  -24.6150  -11.7700   20.7970 C   0  0  0  0  0  0  0  0  0  0  0  0
  -26.2640  -13.0130   20.2220 N   0  0  0  0  0  0  0  0  0  0  0  0
  -25.9070  -11.7300   20.4910 N   0  0  0  0  0  0  0  0  0  0  0  0
  -23.8850  -10.5090   20.9840 C   0  0  0  0  0  0  0  0  0  0  0  0
  -24.3050   -9.5450   21.9270 C   0  0  0  0  0  3  0  0  0  0  0  0
  -23.5740   -8.3490   22.1010 C   0  0  0  0  0  3  0  0  0  0  0  0
  -22.4100   -8.1100   21.3340 C   0  0  0  0  0  0  0  0  0  0  0  0
  -22.0100   -9.0630   20.3800 C   0  0  0  0  0  3  0  0  0  0  0  0
  -22.7410  -10.2490   20.2040 C   0  0  0  0  0  3  0  0  0  0  0  0
  -21.6510   -6.9680   21.4170 O   0  0  0  0  0  0  0  0  0  0  0  0
  -21.5760   -6.2380   22.5760 C   0  0  0  0  0  0  0  0  0  0  0  0
  -21.1080   -6.8010   23.7830 C   0  0  0  0  0  3  0  0  0  0  0  0
  -20.9820   -5.9970   24.9330 C   0  0  0  0  0  3  0  0  0  0  0  0
  -21.3120   -4.6300   24.8780 C   0  0  0  0  0  0  0  0  0  0  0  0
  -21.7730   -4.0660   23.6740 C   0  0  0  0  0  3  0  0  0  0  0  0
  -21.9010   -4.8670   22.5270 C   0  0  0  0  0  0  0  0  0  0  0  0
  -22.3250   -4.3130   21.3650 F   0  0  0  0  0  0  0  0  0  0  0  0
  -21.1830   -3.8550   25.9800 F   0  0  0  0  0  0  0  0  0  0  0  0
  -22.7580  -13.6020   21.0950 C   0  0  0  0  0  0  0  0  0  0  0  0
  -22.0250  -12.9060   21.9570 N   0  0  0  0  0  0  0  0  0  0  0  0
  -22.3260  -14.6300   20.5760 O   0  0  0  0  0  0  0  0  0  0  0  0
  -22.3890  -12.0740   22.3980 H   0  0  0  0  0  0  0  0  0  0  0  0
  -21.0880  -13.2090   22.1790 H   0  0  0  0  0  0  0  0  0  0  0  0
  -25.3880  -15.2640   20.2810 N   0  0  0  0  0  0  0  0  0  0  0  0
  -24.6160  -15.9150   20.3810 H   0  0  0  0  0  0  0  0  0  0  0  0
  -26.2240  -15.6990   19.9140 H   0  0  0  0  0  0  0  0  0  0  0  0
  -28.1250  -24.9890   20.8180 C   0  0  0  0  0  2  0  0  0  0  0  0
  -28.3090  -26.3620   20.1900 O   0  0  0  0  0  0  0  0  0  0  0  0
  -24.6340  -31.9040   23.2300 C   0  0  0  0  0  0  0  0  0  0  0  0
  -27.2230  -27.2750   20.1930 C   0  0  0  0  0  0  0  0  0  0  0  0
  -23.4260  -30.5010   21.5980 C   0  0  0  0  0  3  0  0  0  0  0  0
  -24.8710  -28.9380   20.1730 C   0  0  0  0  0  0  0  0  0  0  0  0
  -25.9700  -30.8040   21.4080 C   0  0  0  0  0  2  0  0  0  0  0  0
  -26.0480  -29.4170   20.7630 C   0  0  0  0  0  0  0  0  0  0  0  0
  -27.2310  -28.6010   20.7560 C   0  0  0  0  0  3  0  0  0  0  0  0
  -26.0230  -26.8640   19.5780 C   0  0  0  0  0  3  0  0  0  0  0  0
  -24.8660  -27.6700   19.5660 C   0  0  0  0  0  3  0  0  0  0  0  0
  -23.6370  -29.8210   20.2210 C   0  0  0  0  0  2  0  0  0  0  0  0
  -24.6960  -31.0890   22.1350 N   0  0  0  0  0  0  0  0  0  0  0  0
  -23.5520  -32.1820   23.7680 O   0  0  0  0  0  0  0  0  0  0  0  0
  -22.7640  -29.4890   22.5660 C   0  0  0  0  0  0  0  0  0  0  0  0
  -21.4360  -29.3150   22.4500 N   0  0  0  0  0  0  0  0  0  0  0  0
  -23.4450  -28.8650   23.3830 O   0  0  0  0  0  0  0  0  0  0  0  0
  -20.9430  -29.8720   21.7650 H   0  0  0  0  0  0  0  0  0  0  0  0
  -18.0610  -28.1130   22.9720 C   0  0  0  0  0  0  0  0  0  0  0  0
  -20.6210  -28.3790   23.2270 C   0  0  0  0  0  3  0  0  0  0  0  0
  -20.7220  -26.9450   22.6560 C   0  0  0  0  0  2  0  0  0  0  0  0
  -19.6150  -26.6180   21.6480 C   0  0  0  0  0  2  0  0  0  0  0  0
  -18.2360  -26.7620   22.2990 C   0  0  0  0  0  2  0  0  0  0  0  0
  -19.1810  -28.8790   23.3940 C   0  0  0  0  0  0  0  0  0  0  0  0
  -18.9620  -30.1420   23.9860 C   0  0  0  0  0  3  0  0  0  0  0  0
  -17.6580  -30.6400   24.1580 C   0  0  0  0  0  3  0  0  0  0  0  0
  -16.5530  -29.8720   23.7540 C   0  0  0  0  0  3  0  0  0  0  0  0
  -16.7550  -28.6110   23.1650 C   0  0  0  0  0  3  0  0  0  0  0  0
  -25.9170  -32.5420   23.8460 C   0  0  0  0  0  3  0  0  0  0  0  0
  -26.4440  -31.7710   25.1180 C   0  0  1  0  0  0  0  0  0  0  0  0
  -25.3580  -31.5280   26.1930 C   0  0  0  0  0  1  0  0  0  0  0  0
  -27.0320  -30.3960   24.7230 C   0  0  0  0  0  1  0  0  0  0  0  0
  -27.5950  -32.5690   25.7760 C   0  0  0  0  0  1  0  0  0  0  0  0
  -25.6020  -33.9380   24.1860 N   0  0  0  0  0  0  0  0  0  0  0  0
  -25.9180  -34.9980   23.4310 C   0  0  0  0  0  0  0  0  0  0  0  0
  -26.5750  -34.9030   22.3900 O   0  0  0  0  0  0  0  0  0  0  0  0
  -25.0190  -34.0850   24.9970 H   0  0  0  0  0  0  0  0  0  0  0  0
  -24.1790  -36.7870   23.1100 C   0  0  0  0  0  1  0  0  0  0  0  0
  -25.4310  -36.3810   23.9030 C   0  0  0  0  0  3  0  0  0  0  0  0
  -27.5700  -37.2740   24.7170 C   0  0  0  0  0  1  0  0  0  0  0  0
  -26.4580  -37.4390   23.7840 N   0  0  0  0  0  0  0  0  0  0  0  0
  -26.0490  -38.3580   23.9360 H   0  0  0  0  0  0  0  0  0  0  0  0
  1  2  1  0
  1 49  1  0
  2  4  1  0
  3  1  2  0
  6 10  1  0
  6  5  1  0
  7  2  1  0
  7  5  2  0
  8  6  2  0
  9  8  1  0
  9  7  1  0
 11 19  1  0
 12 17  1  0
 13 14  1  0
 13 12  1  0
 15 14  1  0
 15 24  1  0
 15 16  1  0
 17 11  1  0
 17 16  1  0
 18 11  2  0
 19 20  1  0
 19 10  1  0
 21 22  2  0
 22 41  1  0
 23 22  1  0
 23 26  1  0
 24 21  1  0
 24 25  1  0
 25 23  2  0
 26 27  1  0
 27 28  2  0
 29 32  1  0
 29 28  1  0
 30 29  2  0
 31 30  1  0
 31 26  2  0
 32 33  1  0
 33 34  1  0
 34 35  2  0
 36 35  1  0
 36 40  1  0
 37 36  2  0
 38 33  2  0
 38 37  1  0
 39 38  1  0
 41 42  1  0
 42 45  1  0
 42 44  1  0
 43 41  2  0
 46 47  1  0
 46 21  1  0
 48 46  1  0
 50 52  1  0
 50 49  1  0
 51 62  2  0
 52 57  1  0
 53 61  1  0
 53 63  1  0
 54 60  1  0
 54 56  1  0
 55 61  1  0
 56 55  1  0
 57 56  2  0
 58 52  2  0
 59 58  1  0
 59 54  2  0
 60 53  1  0
 61 51  1  0
 63 65  2  0
 64 63  1  0
 66 64  1  0
 67 76  2  0
 67 72  1  0
 68 64  1  0
 68 72  1  0
 69 68  1  0
 70 71  1  0
 70 69  1  0
 71 67  1  0
 72 73  2  0
 73 74  1  0
 75 74  2  0
 76 75  1  0
 77 51  1  0
 77 82  1  0
 77 78  1  0
 78 81  1  1
 78 79  1  0
 80 78  1  0
 82 85  1  0
 83 87  1  0
 83 82  1  0
 84 83  2  0
 87 86  1  0
 89 87  1  0
 89 90  1  0
 89 88  1  0
M  ISO  4  11 100  19 100  49 101  50 101
M  END
>  <TORSDO>  (52) 
F 19

>  <SCORE>  (52) 
-14.117

>  <name>  (52) 
51

>  <ligand_id>  (52) 
51

>  <original_smiles>  (52) 
[H]c1c(C([H])([H])N([H])C(=O)N2C([H])([H])C([H])([H])C([H])([H])C([H])(n3nc(-c4c([H])c([H])c(Oc5c([H])c([H])c(F)c([H])c5F)c([H])c4[H])c(C(=O)N([H])[H])c3N([H])[H])C2([H])[H])noc1N([H])C(=O)C([H])([H])Oc1c([H])c([H])c2c(c1[H])C([H])([H])N(C(=O)C([H])(N([H])C(=O)C([H])(N([H])C([H])([H])[H])C([H])([H])[H])C(C([H])([H])[H])(C([H])([H])[H])C([H])([H])[H])C([H])(C(=O)N([H])C1([H])c3c([H])c([H])c([H])c([H])c3C([H])([H])C([H])([H])C1([H])[H])C2([H])[H]

>  <smiles>  (52) 
[H]c1c(C([H])([H])N([H])C(=O)N2C([H])([H])C([H])([H])C([H])([H])C([H])(n3nc(-c4c([H])c([H])c(Oc5c([H])c([H])c(F)c([H])c5F)c([H])c4[H])c(C(=O)N([H])[H])c3N([H])[H])C2([H])[H])noc1N([H])C(=O)C([H])([H])Oc1c([H])c([H])c2c(c1[H])C([H])([H])N(C(=O)C([H])(N([H])C(=O)C([H])(N([H])C([H])([H])[H])C([H])([H])[H])C(C([H])([H])[H])(C([H])([H])[H])C([H])([H])[H])C([H])(C(=O)N([H])C1([H])c3c([H])c([H])c([H])c([H])c3C([H])([H])C([H])([H])C1([H])[H])C2([H])[H]

$$$$
52:0:0
     RDKit          3D

 94102  0  0  1  0  0  0  0  0999 V2000
  -28.7120  -22.4620   19.6330 C   0  0  0  0  0  0  0  0  0  0  0  0
  -29.0410  -21.2950   20.3400 N   0  0  0  0  0  0  0  0  0  0  0  0
  -28.4780  -22.3840   18.4250 O   0  0  0  0  0  0  0  0  0  0  0  0
  -29.0170  -21.4150   21.3440 H   0  0  0  0  0  0  0  0  0  0  0  0
  -29.3990  -18.6420   20.4890 C   0  0  0  0  0  3  0  0  0  0  0  0
  -30.3300  -19.9600   18.6690 C   0  0  0  0  0  3  0  0  0  0  0  0
  -30.7740  -17.5450   18.8090 C   0  0  0  0  0  3  0  0  0  0  0  0
  -29.5440  -19.9600   19.8450 C   0  0  0  0  0  0  0  0  0  0  0  0
  -30.0070  -17.3950   19.9880 C   0  0  0  0  0  0  0  0  0  0  0  0
  -30.9300  -18.7890   18.1670 C   0  0  0  0  0  0  0  0  0  0  0  0
  -31.6760  -18.8620   17.0390 F   0  0  0  0  0  0  0  0  0  0  0  0
  -30.5890  -14.8330   20.3220 C   0  0  0  0  0  0  0  0  0  0  0  0
  -30.3930  -12.5320   19.3600 C   0  0  0  0  0  2  0  0  0  0  0  0
  -29.4620  -12.5860   18.1280 C   0  0  0  0  0  2  0  0  0  0  0  0
  -27.9940  -12.4090   18.5540 C   0  0  0  0  0  2  0  0  0  0  0  0
  -27.6120  -13.3060   19.7600 C   0  0  0  0  0  3  0  0  0  0  0  0
  -28.6660  -13.2440   20.8860 C   0  0  0  0  0  2  0  0  0  0  0  0
  -29.9620  -13.6010   20.2960 N   0  0  0  0  0  0  0  0  0  0  0  0
  -31.7800  -14.8940   20.0050 O   0  0  0  0  0  0  0  0  0  0  0  0
  -29.8410  -16.0010   20.5400 N   0  0  0  0  0  0  0  0  0  0  0  0
  -28.9590  -15.8320   21.0010 H   0  0  0  0  0  0  0  0  0  0  0  0
  -25.2270  -13.8990   20.4860 C   0  0  0  0  0  0  0  0  0  0  0  0
  -24.1600  -13.1250   20.8540 C   0  0  0  0  0  0  0  0  0  0  0  0
  -24.6210  -11.7740   20.8260 C   0  0  0  0  0  0  0  0  0  0  0  0
  -26.2690  -13.0180   20.2500 N   0  0  0  0  0  0  0  0  0  0  0  0
  -25.9120  -11.7350   20.5220 N   0  0  0  0  0  0  0  0  0  0  0  0
  -23.8920  -10.5120   21.0150 C   0  0  0  0  0  0  0  0  0  0  0  0
  -24.3200   -9.5450   21.9510 C   0  0  0  0  0  3  0  0  0  0  0  0
  -23.5910   -8.3500   22.1290 C   0  0  0  0  0  3  0  0  0  0  0  0
  -22.4190   -8.1130   21.3690 C   0  0  0  0  0  0  0  0  0  0  0  0
  -22.0110   -9.0690   20.4230 C   0  0  0  0  0  3  0  0  0  0  0  0
  -22.7400  -10.2560   20.2430 C   0  0  0  0  0  3  0  0  0  0  0  0
  -21.6620   -6.9700   21.4560 O   0  0  0  0  0  0  0  0  0  0  0  0
  -21.6070   -6.2290   22.6090 C   0  0  0  0  0  0  0  0  0  0  0  0
  -21.1710   -6.7860   23.8310 C   0  0  0  0  0  3  0  0  0  0  0  0
  -21.0630   -5.9720   24.9760 C   0  0  0  0  0  3  0  0  0  0  0  0
  -21.3790   -4.6020   24.9000 C   0  0  0  0  0  0  0  0  0  0  0  0
  -21.8070   -4.0440   23.6820 C   0  0  0  0  0  3  0  0  0  0  0  0
  -21.9170   -4.8560   22.5380 C   0  0  0  0  0  0  0  0  0  0  0  0
  -22.3090   -4.3100   21.3620 F   0  0  0  0  0  0  0  0  0  0  0  0
  -21.2680   -3.8170   25.9970 F   0  0  0  0  0  0  0  0  0  0  0  0
  -22.7620  -13.6050   21.1200 C   0  0  0  0  0  0  0  0  0  0  0  0
  -22.0290  -12.9100   21.9830 N   0  0  0  0  0  0  0  0  0  0  0  0
  -22.3300  -14.6320   20.5990 O   0  0  0  0  0  0  0  0  0  0  0  0
  -22.3930  -12.0790   22.4260 H   0  0  0  0  0  0  0  0  0  0  0  0
  -21.0910  -13.2130   22.2040 H   0  0  0  0  0  0  0  0  0  0  0  0
  -25.3930  -15.2690   20.3060 N   0  0  0  0  0  0  0  0  0  0  0  0
  -24.6230  -15.9220   20.4060 H   0  0  0  0  0  0  0  0  0  0  0  0
  -26.2340  -15.7040   19.9520 H   0  0  0  0  0  0  0  0  0  0  0  0
  -28.2680  -25.0060   19.7310 C   0  0  0  0  0  3  0  0  0  0  0  0
  -28.6250  -23.8040   20.3560 C   0  0  0  0  0  0  0  0  0  0  0  0
  -28.9380  -23.8300   21.6570 O   0  0  0  0  0  0  0  0  0  0  0  0
  -28.8500  -24.7310   21.9410 H   0  0  0  0  0  0  0  0  0  0  0  0
  -28.2730  -26.3450   20.2560 O   0  0  0  0  0  0  0  0  0  0  0  0
  -24.6030  -31.8740   23.2400 C   0  0  0  0  0  0  0  0  0  0  0  0
  -27.1820  -27.2520   20.1620 C   0  0  0  0  0  0  0  0  0  0  0  0
  -23.3910  -30.4800   21.6060 C   0  0  0  0  0  3  0  0  0  0  0  0
  -24.8310  -28.9210   20.1640 C   0  0  0  0  0  0  0  0  0  0  0  0
  -25.9350  -30.7730   21.4160 C   0  0  0  0  0  2  0  0  0  0  0  0
  -26.0060  -29.3920   20.7600 C   0  0  0  0  0  0  0  0  0  0  0  0
  -27.1810  -28.5670   20.7500 C   0  0  0  0  0  3  0  0  0  0  0  0
  -25.9790  -26.8540   19.5380 C   0  0  0  0  0  3  0  0  0  0  0  0
  -24.8230  -27.6620   19.5430 C   0  0  0  0  0  3  0  0  0  0  0  0
  -23.6000  -29.8060   20.2230 C   0  0  0  0  0  2  0  0  0  0  0  0
  -24.6630  -31.0630   22.1420 N   0  0  0  0  0  0  0  0  0  0  0  0
  -23.5210  -32.1540   23.7790 O   0  0  0  0  0  0  0  0  0  0  0  0
  -22.7290  -29.4650   22.5700 C   0  0  0  0  0  0  0  0  0  0  0  0
  -21.4020  -29.2880   22.4480 N   0  0  0  0  0  0  0  0  0  0  0  0
  -23.4100  -28.8410   23.3890 O   0  0  0  0  0  0  0  0  0  0  0  0
  -20.9120  -29.8450   21.7630 H   0  0  0  0  0  0  0  0  0  0  0  0
  -18.0290  -28.0780   22.9580 C   0  0  0  0  0  0  0  0  0  0  0  0
  -20.5870  -28.3510   23.2230 C   0  0  0  0  0  3  0  0  0  0  0  0
  -20.6930  -26.9160   22.6530 C   0  0  0  0  0  2  0  0  0  0  0  0
  -19.5920  -26.5860   21.6410 C   0  0  0  0  0  2  0  0  0  0  0  0
  -18.2100  -26.7280   22.2860 C   0  0  0  0  0  2  0  0  0  0  0  0
  -19.1440  -28.8460   23.3840 C   0  0  0  0  0  0  0  0  0  0  0  0
  -18.9190  -30.1100   23.9730 C   0  0  0  0  0  3  0  0  0  0  0  0
  -17.6130  -30.6030   24.1430 C   0  0  0  0  0  3  0  0  0  0  0  0
  -16.5110  -29.8330   23.7300 C   0  0  0  0  0  3  0  0  0  0  0  0
  -16.7210  -28.5720   23.1440 C   0  0  0  0  0  3  0  0  0  0  0  0
  -25.8880  -32.5060   23.8580 C   0  0  0  0  0  3  0  0  0  0  0  0
  -26.4080  -31.7370   25.1350 C   0  0  1  0  0  0  0  0  0  0  0  0
  -25.3210  -31.5060   26.2100 C   0  0  0  0  0  1  0  0  0  0  0  0
  -26.9870  -30.3560   24.7490 C   0  0  0  0  0  1  0  0  0  0  0  0
  -27.5630  -32.5310   25.7910 C   0  0  0  0  0  1  0  0  0  0  0  0
  -25.5790  -33.9050   24.1920 N   0  0  0  0  0  0  0  0  0  0  0  0
  -25.9020  -34.9620   23.4340 C   0  0  0  0  0  0  0  0  0  0  0  0
  -26.5610  -34.8610   22.3940 O   0  0  0  0  0  0  0  0  0  0  0  0
  -24.9940  -34.0590   25.0000 H   0  0  0  0  0  0  0  0  0  0  0  0
  -24.1700  -36.7550   23.1070 C   0  0  0  0  0  1  0  0  0  0  0  0
  -25.4220  -36.3490   23.9000 C   0  0  0  0  0  3  0  0  0  0  0  0
  -27.5650  -37.2360   24.7050 C   0  0  0  0  0  1  0  0  0  0  0  0
  -26.4530  -37.4020   23.7730 N   0  0  0  0  0  0  0  0  0  0  0  0
  -26.0470  -38.3220   23.9230 H   0  0  0  0  0  0  0  0  0  0  0  0
  1  2  1  0
  1 51  1  0
  2  4  1  0
  3  1  2  0
  6  8  1  0
  7  9  2  0
  8  2  1  0
  8  5  2  0
  9  5  1  0
  9 20  1  0
 10  6  2  0
 10  7  1  0
 11 10  1  0
 12 20  1  0
 13 18  1  0
 14 15  1  0
 14 13  1  0
 16 15  1  0
 16 25  1  0
 16 17  1  0
 18 12  1  0
 18 17  1  0
 19 12  2  0
 20 21  1  0
 22 23  2  0
 23 42  1  0
 24 23  1  0
 24 27  1  0
 25 22  1  0
 25 26  1  0
 26 24  2  0
 27 28  1  0
 28 29  2  0
 30 33  1  0
 30 29  1  0
 31 30  2  0
 32 31  1  0
 32 27  2  0
 33 34  1  0
 34 35  1  0
 35 36  2  0
 37 36  1  0
 37 41  1  0
 38 37  2  0
 39 34  2  0
 39 38  1  0
 40 39  1  0
 42 43  1  0
 43 46  1  0
 43 45  1  0
 44 42  2  0
 47 48  1  0
 47 22  1  0
 49 47  1  0
 50 54  1  0
 50 51  2  0
 51 52  1  0
 52 53  1  0
 55 66  2  0
 56 54  1  0
 56 61  1  0
 57 65  1  0
 57 67  1  0
 58 64  1  0
 58 60  1  0
 59 65  1  0
 60 59  1  0
 61 60  2  0
 62 63  1  0
 62 56  2  0
 63 58  2  0
 64 57  1  0
 65 55  1  0
 67 69  2  0
 68 67  1  0
 70 68  1  0
 71 80  2  0
 71 76  1  0
 72 68  1  0
 72 76  1  0
 73 72  1  0
 74 75  1  0
 74 73  1  0
 75 71  1  0
 76 77  2  0
 77 78  1  0
 79 78  2  0
 80 79  1  0
 81 55  1  0
 81 86  1  0
 81 82  1  0
 82 85  1  1
 82 83  1  0
 84 82  1  0
 86 89  1  0
 87 91  1  0
 87 86  1  0
 88 87  2  0
 91 90  1  0
 93 91  1  0
 93 94  1  0
 93 92  1  0
M  ISO  4  12 100  20 100  50 101  54 101
M  END
>  <TORSDO>  (53) 
F 19

>  <SCORE>  (53) 
-14.521

>  <name>  (53) 
52

>  <ligand_id>  (53) 
52

>  <original_smiles>  (53) 
[H]OC(C(=O)N([H])c1c([H])c(F)c([H])c(N([H])C(=O)N2C([H])([H])C([H])([H])C([H])([H])C([H])(n3nc(-c4c([H])c([H])c(Oc5c([H])c([H])c(F)c([H])c5F)c([H])c4[H])c(C(=O)N([H])[H])c3N([H])[H])C2([H])[H])c1[H])=C([H])Oc1c([H])c([H])c2c(c1[H])C([H])([H])N(C(=O)C([H])(N([H])C(=O)C([H])(N([H])C([H])([H])[H])C([H])([H])[H])C(C([H])([H])[H])(C([H])([H])[H])C([H])([H])[H])C([H])(C(=O)N([H])C1([H])c3c([H])c([H])c([H])c([H])c3C([H])([H])C([H])([H])C1([H])[H])C2([H])[H]

>  <smiles>  (53) 
[H]OC(C(=O)N([H])c1c([H])c(F)c([H])c(N([H])C(=O)N2C([H])([H])C([H])([H])C([H])([H])C([H])(n3nc(-c4c([H])c([H])c(Oc5c([H])c([H])c(F)c([H])c5F)c([H])c4[H])c(C(=O)N([H])[H])c3N([H])[H])C2([H])[H])c1[H])=C([H])Oc1c([H])c([H])c2c(c1[H])C([H])([H])N(C(=O)C([H])(N([H])C(=O)C([H])(N([H])C([H])([H])[H])C([H])([H])[H])C(C([H])([H])[H])(C([H])([H])[H])C([H])([H])[H])C([H])(C(=O)N([H])C1([H])c3c([H])c([H])c([H])c([H])c3C([H])([H])C([H])([H])C1([H])[H])C2([H])[H]

$$$$
53:0:0
     RDKit          3D

 97105  0  0  1  0  0  0  0  0999 V2000
  -28.9490  -21.1900   19.8370 C   0  0  0  0  0  0  0  0  0  0  0  0
  -28.6040  -23.7340   19.8930 C   0  0  0  0  0  0  0  0  0  0  0  0
  -28.7580  -24.0240   18.5810 N   0  0  0  0  0  4  0  0  0  0  0  0
  -28.3910  -21.0250   18.6270 N   0  0  0  0  0  4  0  0  0  0  0  0
  -28.8590  -22.4550   20.4410 N   0  0  0  0  0  0  0  0  0  0  0  0
  -28.6240  -24.9840   18.2950 H   0  0  0  0  0  0  0  0  0  0  0  0
  -29.2140  -23.4090   17.9230 H   0  0  0  0  0  0  0  0  0  0  0  0
  -27.7050  -21.6720   18.2730 H   0  0  0  0  0  0  0  0  0  0  0  0
  -28.5060  -20.1430   18.1540 H   0  0  0  0  0  0  0  0  0  0  0  0
  -28.9650  -22.4250   21.4410 H   0  0  0  0  0  0  0  0  0  0  0  0
  -29.2880  -18.5320   20.2230 C   0  0  0  0  0  3  0  0  0  0  0  0
  -30.9600  -20.1560   20.9280 C   0  0  0  0  0  3  0  0  0  0  0  0
  -31.3980  -17.7450   21.1430 C   0  0  0  0  0  3  0  0  0  0  0  0
  -29.6860  -19.9370   20.3670 C   0  0  0  0  0  0  0  0  0  0  0  0
  -30.1400  -17.3970   20.5970 C   0  0  0  0  0  0  0  0  0  0  0  0
  -31.7970  -19.0860   21.3020 C   0  0  0  0  0  0  0  0  0  0  0  0
  -33.0220  -19.3600   21.8070 F   0  0  0  0  0  0  0  0  0  0  0  0
  -30.5650  -14.8070   20.3440 C   0  0  0  0  0  0  0  0  0  0  0  0
  -30.3680  -12.5350   19.3140 C   0  0  0  0  0  2  0  0  0  0  0  0
  -29.4120  -12.6080   18.1030 C   0  0  0  0  0  2  0  0  0  0  0  0
  -27.9480  -12.4290   18.5510 C   0  0  0  0  0  2  0  0  0  0  0  0
  -27.5860  -13.3030   19.7810 C   0  0  0  0  0  3  0  0  0  0  0  0
  -28.6600  -13.2080   20.8850 C   0  0  0  0  0  2  0  0  0  0  0  0
  -29.9400  -13.5810   20.2710 N   0  0  0  0  0  0  0  0  0  0  0  0
  -31.7610  -14.8920   20.0490 O   0  0  0  0  0  0  0  0  0  0  0  0
  -29.7740  -15.9500   20.4860 N   0  0  0  0  0  0  0  0  0  0  0  0
  -28.7870  -15.7520   20.5180 H   0  0  0  0  0  0  0  0  0  0  0  0
  -25.2080  -13.8820   20.5450 C   0  0  0  0  0  0  0  0  0  0  0  0
  -24.1480  -13.1010   20.9170 C   0  0  0  0  0  0  0  0  0  0  0  0
  -24.6140  -11.7510   20.8670 C   0  0  0  0  0  0  0  0  0  0  0  0
  -26.2500  -13.0060   20.2860 N   0  0  0  0  0  0  0  0  0  0  0  0
  -25.9000  -11.7200   20.5430 N   0  0  0  0  0  0  0  0  0  0  0  0
  -23.8910  -10.4850   21.0490 C   0  0  0  0  0  0  0  0  0  0  0  0
  -24.3210   -9.5150   21.9800 C   0  0  0  0  0  3  0  0  0  0  0  0
  -23.5960   -8.3160   22.1520 C   0  0  0  0  0  3  0  0  0  0  0  0
  -22.4280   -8.0780   21.3900 C   0  0  0  0  0  0  0  0  0  0  0  0
  -22.0160   -9.0370   20.4480 C   0  0  0  0  0  3  0  0  0  0  0  0
  -22.7420  -10.2280   20.2720 C   0  0  0  0  0  3  0  0  0  0  0  0
  -21.6740   -6.9320   21.4710 O   0  0  0  0  0  0  0  0  0  0  0  0
  -21.6100   -6.1940   22.6260 C   0  0  0  0  0  0  0  0  0  0  0  0
  -21.1360   -6.7440   23.8380 C   0  0  0  0  0  3  0  0  0  0  0  0
  -21.0210   -5.9290   24.9830 C   0  0  0  0  0  3  0  0  0  0  0  0
  -21.3700   -4.5670   24.9160 C   0  0  0  0  0  0  0  0  0  0  0  0
  -21.8370   -4.0180   23.7100 C   0  0  0  0  0  3  0  0  0  0  0  0
  -21.9540   -4.8280   22.5670 C   0  0  0  0  0  0  0  0  0  0  0  0
  -22.3840   -4.2880   21.4020 F   0  0  0  0  0  0  0  0  0  0  0  0
  -21.2510   -3.7830   26.0130 F   0  0  0  0  0  0  0  0  0  0  0  0
  -22.7530  -13.5730   21.2050 C   0  0  0  0  0  0  0  0  0  0  0  0
  -22.0280  -12.8610   22.0610 N   0  0  0  0  0  0  0  0  0  0  0  0
  -22.3130  -14.6090   20.7060 O   0  0  0  0  0  0  0  0  0  0  0  0
  -22.3950  -12.0230   22.4870 H   0  0  0  0  0  0  0  0  0  0  0  0
  -21.0910  -13.1590   22.2930 H   0  0  0  0  0  0  0  0  0  0  0  0
  -25.3630  -15.2560   20.3800 N   0  0  0  0  0  0  0  0  0  0  0  0
  -24.5880  -15.8970   20.5090 H   0  0  0  0  0  0  0  0  0  0  0  0
  -26.1910  -15.7070   20.0170 H   0  0  0  0  0  0  0  0  0  0  0  0
  -28.1260  -24.9860   20.7380 C   0  0  0  0  0  2  0  0  0  0  0  0
  -28.3220  -26.3970   20.2250 O   0  0  0  0  0  0  0  0  0  0  0  0
  -24.5900  -31.9040   23.2360 C   0  0  0  0  0  0  0  0  0  0  0  0
  -27.2240  -27.2910   20.2210 C   0  0  0  0  0  0  0  0  0  0  0  0
  -23.4040  -30.4970   21.5920 C   0  0  0  0  0  3  0  0  0  0  0  0
  -24.8680  -28.9340   20.1830 C   0  0  0  0  0  0  0  0  0  0  0  0
  -25.9470  -30.8070   21.4270 C   0  0  0  0  0  2  0  0  0  0  0  0
  -26.0360  -29.4190   20.7870 C   0  0  0  0  0  0  0  0  0  0  0  0
  -27.2200  -28.6120   20.7900 C   0  0  0  0  0  3  0  0  0  0  0  0
  -26.0340  -26.8730   19.5910 C   0  0  0  0  0  3  0  0  0  0  0  0
  -24.8720  -27.6700   19.5740 C   0  0  0  0  0  3  0  0  0  0  0  0
  -23.6320  -29.8140   20.2160 C   0  0  0  0  0  2  0  0  0  0  0  0
  -24.6670  -31.0890   22.1410 N   0  0  0  0  0  0  0  0  0  0  0  0
  -23.5010  -32.1810   23.7610 O   0  0  0  0  0  0  0  0  0  0  0  0
  -22.7320  -29.4860   22.5520 C   0  0  0  0  0  0  0  0  0  0  0  0
  -21.4050  -29.3110   22.4230 N   0  0  0  0  0  0  0  0  0  0  0  0
  -23.4060  -28.8580   23.3730 O   0  0  0  0  0  0  0  0  0  0  0  0
  -20.9180  -29.8720   21.7390 H   0  0  0  0  0  0  0  0  0  0  0  0
  -18.0260  -28.1240   22.9320 C   0  0  0  0  0  0  0  0  0  0  0  0
  -20.5850  -28.3710   23.1900 C   0  0  0  0  0  3  0  0  0  0  0  0
  -20.6770  -26.9420   22.6070 C   0  0  0  0  0  2  0  0  0  0  0  0
  -19.5720  -26.6330   21.5930 C   0  0  0  0  0  2  0  0  0  0  0  0
  -18.1920  -26.7800   22.2420 C   0  0  0  0  0  2  0  0  0  0  0  0
  -19.1500  -28.8780   23.3610 C   0  0  0  0  0  0  0  0  0  0  0  0
  -18.9400  -30.1360   23.9640 C   0  0  0  0  0  3  0  0  0  0  0  0
  -17.6400  -30.6440   24.1380 C   0  0  0  0  0  3  0  0  0  0  0  0
  -16.5290  -29.8880   23.7230 C   0  0  0  0  0  3  0  0  0  0  0  0
  -16.7220  -28.6290   23.1270 C   0  0  0  0  0  3  0  0  0  0  0  0
  -25.8640  -32.5440   23.8650 C   0  0  0  0  0  3  0  0  0  0  0  0
  -25.5500  -33.9460   24.1800 N   0  0  0  0  0  0  0  0  0  0  0  0
  -25.8890  -34.9940   23.4160 C   0  0  0  0  0  0  0  0  0  0  0  0
  -26.5690  -34.8810   22.3910 O   0  0  0  0  0  0  0  0  0  0  0  0
  -24.9470  -34.1080   24.9730 H   0  0  0  0  0  0  0  0  0  0  0  0
  -24.1740  -36.7930   23.0220 C   0  0  0  0  0  1  0  0  0  0  0  0
  -25.4000  -36.3870   23.8560 C   0  0  0  0  0  3  0  0  0  0  0  0
  -27.5190  -37.2740   24.7230 C   0  0  0  0  0  1  0  0  0  0  0  0
  -26.4380  -37.4360   23.7540 N   0  0  0  0  0  0  0  0  0  0  0  0
  -26.0320  -38.3570   23.8840 H   0  0  0  0  0  0  0  0  0  0  0  0
  -26.3650  -31.7880   25.1570 C   0  0  1  0  0  0  0  0  0  0  0  0
  -25.2600  -31.5610   26.2150 C   0  0  0  0  0  1  0  0  0  0  0  0
  -26.9550  -30.4070   24.7900 C   0  0  0  0  0  1  0  0  0  0  0  0
  -27.5050  -32.5910   25.8260 C   0  0  0  0  0  1  0  0  0  0  0  0
  1 14  1  0
  1  5  1  0
  2  5  1  0
  2 56  1  0
  3  2  2  0
  4  1  2  0
  5 10  1  0
  6  3  1  0
  7  3  1  0
  8  4  1  0
  9  4  1  0
 11 14  2  0
 11 15  1  0
 12 16  2  0
 13 16  1  0
 14 12  1  0
 15 13  2  0
 16 17  1  0
 18 26  1  0
 19 24  1  0
 20 21  1  0
 20 19  1  0
 22 21  1  0
 22 31  1  0
 22 23  1  0
 24 18  1  0
 24 23  1  0
 25 18  2  0
 26 27  1  0
 26 15  1  0
 28 29  2  0
 29 48  1  0
 30 29  1  0
 30 33  1  0
 31 32  1  0
 31 28  1  0
 32 30  2  0
 33 34  1  0
 34 35  2  0
 36 39  1  0
 36 35  1  0
 37 36  2  0
 38 37  1  0
 38 33  2  0
 39 40  1  0
 40 41  1  0
 41 42  2  0
 43 42  1  0
 43 47  1  0
 44 43  2  0
 45 40  2  0
 45 44  1  0
 46 45  1  0
 48 49  1  0
 49 52  1  0
 49 51  1  0
 50 48  2  0
 53 54  1  0
 53 28  1  0
 55 53  1  0
 57 56  1  0
 58 69  2  0
 59 57  1  0
 59 64  1  0
 60 68  1  0
 60 70  1  0
 61 67  1  0
 61 63  1  0
 62 68  1  0
 63 64  2  0
 63 62  1  0
 65 59  2  0
 66 65  1  0
 66 61  2  0
 67 60  1  0
 68 58  1  0
 70 72  2  0
 71 70  1  0
 73 71  1  0
 74 83  2  0
 74 79  1  0
 75 71  1  0
 75 79  1  0
 76 75  1  0
 77 78  1  0
 77 76  1  0
 78 74  1  0
 79 80  2  0
 80 81  1  0
 82 81  2  0
 83 82  1  0
 84 58  1  0
 84 85  1  0
 84 94  1  0
 85 88  1  0
 86 90  1  0
 86 85  1  0
 87 86  2  0
 90 89  1  0
 92 90  1  0
 92 93  1  0
 92 91  1  0
 94 97  1  1
 94 95  1  0
 96 94  1  0
M  ISO  4  18 100  26 100  56 101  57 101
M  END
>  <TORSDO>  (54) 
F 18

>  <SCORE>  (54) 
-15.025

>  <name>  (54) 
53

>  <ligand_id>  (54) 
53

>  <original_smiles>  (54) 
[H]c1c([H])c([H])c2c(c1[H])C([H])([H])C([H])([H])C([H])([H])C2([H])N([H])C(=O)C1([H])N(C(=O)C([H])(N([H])C(=O)C([H])(N([H])C([H])([H])[H])C([H])([H])[H])C(C([H])([H])[H])(C([H])([H])[H])C([H])([H])[H])C([H])([H])c2c([H])c(OC([H])([H])C(N([H])C(c3c([H])c(F)c([H])c(N([H])C(=O)N4C([H])([H])C([H])([H])C([H])([H])C([H])(n5nc(-c6c([H])c([H])c(Oc7c([H])c([H])c(F)c([H])c7F)c([H])c6[H])c(C(=O)N([H])[H])c5N([H])[H])C4([H])[H])c3[H])=[N+]([H])[H])=[N+]([H])[H])c([H])c([H])c2C1([H])[H]

>  <smiles>  (54) 
[H]c1c([H])c([H])c2c(c1[H])C([H])([H])C([H])([H])C([H])([H])C2([H])N([H])C(=O)C1([H])N(C(=O)C([H])(N([H])C(=O)C([H])(N([H])C([H])([H])[H])C([H])([H])[H])C(C([H])([H])[H])(C([H])([H])[H])C([H])([H])[H])C([H])([H])c2c([H])c(OC([H])([H])C(N([H])C(c3c([H])c(F)c([H])c(N([H])C(=O)N4C([H])([H])C([H])([H])C([H])([H])C([H])(n5nc(-c6c([H])c([H])c(Oc7c([H])c([H])c(F)c([H])c7F)c([H])c6[H])c(C(=O)N([H])[H])c5N([H])[H])C4([H])[H])c3[H])=[N+]([H])[H])=[N+]([H])[H])c([H])c([H])c2C1([H])[H]

$$$$
54:0:0
     RDKit          3D

 91 99  0  0  1  0  0  0  0  0999 V2000
  -28.7270  -21.0650   19.9620 N   0  0  0  0  0  0  0  0  0  0  0  0
  -27.7250  -20.9160   19.8630 H   0  0  0  0  0  0  0  0  0  0  0  0
  -29.1460  -18.4860   20.1560 C   0  0  0  0  0  3  0  0  0  0  0  0
  -31.4410  -17.7720   20.2130 C   0  0  0  0  0  3  0  0  0  0  0  0
  -30.9790  -20.0450   20.0960 C   0  0  0  0  0  3  0  0  0  0  0  0
  -30.0880  -17.3700   20.2360 C   0  0  0  0  0  0  0  0  0  0  0  0
  -29.5750  -19.8830   20.0790 C   0  0  0  0  0  0  0  0  0  0  0  0
  -31.8740  -19.0450   20.1580 N   0  0  0  0  0  0  0  0  0  0  0  0
  -30.5520  -14.7750   20.2710 C   0  0  0  0  0  0  0  0  0  0  0  0
  -30.3680  -12.4920   19.2980 C   0  0  0  0  0  2  0  0  0  0  0  0
  -29.4120  -12.5460   18.0860 C   0  0  0  0  0  2  0  0  0  0  0  0
  -27.9530  -12.3700   18.5440 C   0  0  0  0  0  2  0  0  0  0  0  0
  -27.5910  -13.2710   19.7570 C   0  0  0  0  0  3  0  0  0  0  0  0
  -28.6620  -13.2010   20.8640 C   0  0  0  0  0  2  0  0  0  0  0  0
  -29.9400  -13.5490   20.2410 N   0  0  0  0  0  0  0  0  0  0  0  0
  -31.7540  -14.8410   20.0000 O   0  0  0  0  0  0  0  0  0  0  0  0
  -29.7490  -15.9150   20.3440 N   0  0  0  0  0  0  0  0  0  0  0  0
  -28.7660  -15.7050   20.4440 H   0  0  0  0  0  0  0  0  0  0  0  0
  -25.2140  -13.8610   20.5220 C   0  0  0  0  0  0  0  0  0  0  0  0
  -24.1570  -13.0820   20.9000 C   0  0  0  0  0  0  0  0  0  0  0  0
  -24.6230  -11.7320   20.8610 C   0  0  0  0  0  0  0  0  0  0  0  0
  -26.2570  -12.9820   20.2680 N   0  0  0  0  0  0  0  0  0  0  0  0
  -25.9100  -11.6990   20.5430 N   0  0  0  0  0  0  0  0  0  0  0  0
  -23.9050  -10.4680   21.0540 C   0  0  0  0  0  0  0  0  0  0  0  0
  -24.3490   -9.4980   21.9790 C   0  0  0  0  0  3  0  0  0  0  0  0
  -23.6280   -8.2960   22.1580 C   0  0  0  0  0  3  0  0  0  0  0  0
  -22.4490   -8.0570   21.4110 C   0  0  0  0  0  0  0  0  0  0  0  0
  -22.0260   -9.0160   20.4740 C   0  0  0  0  0  3  0  0  0  0  0  0
  -22.7470  -10.2080   20.2940 C   0  0  0  0  0  3  0  0  0  0  0  0
  -21.7020   -6.9080   21.4990 O   0  0  0  0  0  0  0  0  0  0  0  0
  -21.6660   -6.1610   22.6490 C   0  0  0  0  0  0  0  0  0  0  0  0
  -21.2450   -6.7060   23.8820 C   0  0  0  0  0  3  0  0  0  0  0  0
  -21.1560   -5.8820   25.0230 C   0  0  0  0  0  3  0  0  0  0  0  0
  -21.4810   -4.5160   24.9310 C   0  0  0  0  0  0  0  0  0  0  0  0
  -21.8950   -3.9700   23.7040 C   0  0  0  0  0  3  0  0  0  0  0  0
  -21.9860   -4.7900   22.5650 C   0  0  0  0  0  0  0  0  0  0  0  0
  -22.3650   -4.2530   21.3810 F   0  0  0  0  0  0  0  0  0  0  0  0
  -21.3890   -3.7250   26.0270 F   0  0  0  0  0  0  0  0  0  0  0  0
  -22.7610  -13.5530   21.1840 C   0  0  0  0  0  0  0  0  0  0  0  0
  -22.0440  -12.8500   22.0530 N   0  0  0  0  0  0  0  0  0  0  0  0
  -22.3170  -14.5810   20.6740 O   0  0  0  0  0  0  0  0  0  0  0  0
  -22.4180  -12.0160   22.4830 H   0  0  0  0  0  0  0  0  0  0  0  0
  -21.1100  -13.1470   22.2930 H   0  0  0  0  0  0  0  0  0  0  0  0
  -25.3730  -15.2320   20.3440 N   0  0  0  0  0  0  0  0  0  0  0  0
  -24.5990  -15.8780   20.4540 H   0  0  0  0  0  0  0  0  0  0  0  0
  -26.2010  -15.6730   19.9670 H   0  0  0  0  0  0  0  0  0  0  0  0
  -29.0900  -22.4560   20.4860 C   0  0  0  0  0  2  0  0  0  0  0  0
  -28.5780  -23.8150   19.8060 C   0  0  0  0  0  0  0  0  0  0  0  0
  -28.6060  -23.9200   18.5750 O   0  0  0  0  0  0  0  0  0  0  0  0
  -28.0810  -25.0480   20.6920 C   0  0  0  0  0  2  0  0  0  0  0  0
  -28.3200  -26.4390   20.1980 O   0  0  0  0  0  0  0  0  0  0  0  0
  -24.6070  -31.8940   23.2390 C   0  0  0  0  0  0  0  0  0  0  0  0
  -27.2240  -27.3140   20.1930 C   0  0  0  0  0  0  0  0  0  0  0  0
  -23.4100  -30.4860   21.6010 C   0  0  0  0  0  3  0  0  0  0  0  0
  -24.8650  -28.9370   20.1770 C   0  0  0  0  0  0  0  0  0  0  0  0
  -25.9500  -30.8020   21.4290 C   0  0  0  0  0  2  0  0  0  0  0  0
  -26.0320  -29.4220   20.7800 C   0  0  0  0  0  0  0  0  0  0  0  0
  -27.2190  -28.6220   20.7760 C   0  0  0  0  0  3  0  0  0  0  0  0
  -26.0330  -26.8870   19.5670 C   0  0  0  0  0  3  0  0  0  0  0  0
  -24.8680  -27.6750   19.5580 C   0  0  0  0  0  3  0  0  0  0  0  0
  -23.6280  -29.8120   20.2210 C   0  0  0  0  0  2  0  0  0  0  0  0
  -24.6730  -31.0790   22.1460 N   0  0  0  0  0  0  0  0  0  0  0  0
  -23.5220  -32.1700   23.7700 O   0  0  0  0  0  0  0  0  0  0  0  0
  -22.7460  -29.4700   22.5620 C   0  0  0  0  0  0  0  0  0  0  0  0
  -21.4190  -29.2950   22.4360 N   0  0  0  0  0  0  0  0  0  0  0  0
  -23.4240  -28.8500   23.3840 O   0  0  0  0  0  0  0  0  0  0  0  0
  -20.9310  -29.8550   21.7510 H   0  0  0  0  0  0  0  0  0  0  0  0
  -18.0420  -28.1050   22.9350 C   0  0  0  0  0  0  0  0  0  0  0  0
  -20.5980  -28.3590   23.2060 C   0  0  0  0  0  3  0  0  0  0  0  0
  -20.6980  -26.9270   22.6320 C   0  0  0  0  0  2  0  0  0  0  0  0
  -19.5970  -26.6070   21.6180 C   0  0  0  0  0  2  0  0  0  0  0  0
  -18.2140  -26.7550   22.2620 C   0  0  0  0  0  2  0  0  0  0  0  0
  -19.1610  -28.8660   23.3640 C   0  0  0  0  0  0  0  0  0  0  0  0
  -18.9460  -30.1270   23.9570 C   0  0  0  0  0  3  0  0  0  0  0  0
  -17.6430  -30.6310   24.1260 C   0  0  0  0  0  3  0  0  0  0  0  0
  -16.5370  -29.8680   23.7160 C   0  0  0  0  0  3  0  0  0  0  0  0
  -16.7370  -28.6060   23.1250 C   0  0  0  0  0  3  0  0  0  0  0  0
  -25.8870  -32.5300   23.8610 C   0  0  0  0  0  3  0  0  0  0  0  0
  -26.4000  -31.7680   25.1450 C   0  0  1  0  0  0  0  0  0  0  0  0
  -25.3020  -31.5390   26.2110 C   0  0  0  0  0  1  0  0  0  0  0  0
  -26.9860  -30.3870   24.7680 C   0  0  0  0  0  1  0  0  0  0  0  0
  -27.5460  -32.5700   25.8060 C   0  0  0  0  0  1  0  0  0  0  0  0
  -25.5730  -33.9300   24.1840 N   0  0  0  0  0  0  0  0  0  0  0  0
  -25.9090  -34.9830   23.4250 C   0  0  0  0  0  0  0  0  0  0  0  0
  -26.5860  -34.8790   22.4000 O   0  0  0  0  0  0  0  0  0  0  0  0
  -24.9750  -34.0840   24.9810 H   0  0  0  0  0  0  0  0  0  0  0  0
  -24.1860  -36.7760   23.0610 C   0  0  0  0  0  1  0  0  0  0  0  0
  -25.4200  -36.3710   23.8810 C   0  0  0  0  0  3  0  0  0  0  0  0
  -27.5480  -37.2560   24.7260 C   0  0  0  0  0  1  0  0  0  0  0  0
  -26.4540  -37.4230   23.7740 N   0  0  0  0  0  0  0  0  0  0  0  0
  -26.0490  -38.3430   23.9210 H   0  0  0  0  0  0  0  0  0  0  0  0
  1  7  1  0
  1 47  1  0
  2  1  1  0
  3  6  1  0
  4  6  2  0
  5  8  2  0
  6 17  1  0
  7  5  1  0
  7  3  2  0
  8  4  1  0
  9 17  1  0
 10 15  1  0
 11 12  1  0
 11 10  1  0
 13 12  1  0
 13 22  1  0
 13 14  1  0
 15  9  1  0
 15 14  1  0
 16  9  2  0
 17 18  1  0
 19 20  2  0
 20 39  1  0
 21 20  1  0
 21 24  1  0
 22 19  1  0
 22 23  1  0
 23 21  2  0
 24 25  1  0
 25 26  2  0
 27 30  1  0
 27 26  1  0
 28 27  2  0
 29 28  1  0
 29 24  2  0
 30 31  1  0
 31 32  1  0
 32 33  2  0
 34 33  1  0
 34 38  1  0
 35 34  2  0
 36 31  2  0
 36 35  1  0
 37 36  1  0
 39 40  1  0
 40 43  1  0
 40 42  1  0
 41 39  2  0
 44 45  1  0
 44 19  1  0
 46 44  1  0
 48 47  1  0
 48 50  1  0
 49 48  2  0
 51 50  1  0
 52 63  2  0
 53 51  1  0
 53 58  1  0
 54 62  1  0
 54 64  1  0
 55 61  1  0
 55 57  1  0
 56 62  1  0
 57 56  1  0
 58 57  2  0
 59 53  2  0
 60 59  1  0
 60 55  2  0
 61 54  1  0
 62 52  1  0
 64 66  2  0
 65 64  1  0
 67 65  1  0
 68 77  2  0
 68 73  1  0
 69 65  1  0
 69 73  1  0
 70 69  1  0
 71 72  1  0
 71 70  1  0
 72 68  1  0
 73 74  2  0
 74 75  1  0
 76 75  2  0
 77 76  1  0
 78 52  1  0
 78 83  1  0
 78 79  1  0
 79 82  1  1
 79 80  1  0
 81 79  1  0
 83 86  1  0
 84 88  1  0
 84 83  1  0
 85 84  2  0
 88 87  1  0
 90 88  1  0
 90 91  1  0
 90 89  1  0
M  ISO  4   9 100  17 100  50 101  51 101
M  END
>  <TORSDO>  (55) 
F 20

>  <SCORE>  (55) 
-13.890

>  <name>  (55) 
54

>  <ligand_id>  (55) 
54

>  <original_smiles>  (55) 
[H]c1nc([H])c(N([H])C([H])([H])C(=O)C([H])([H])Oc2c([H])c([H])c3c(c2[H])C([H])([H])N(C(=O)C([H])(N([H])C(=O)C([H])(N([H])C([H])([H])[H])C([H])([H])[H])C(C([H])([H])[H])(C([H])([H])[H])C([H])([H])[H])C([H])(C(=O)N([H])C2([H])c4c([H])c([H])c([H])c([H])c4C([H])([H])C([H])([H])C2([H])[H])C3([H])[H])c([H])c1N([H])C(=O)N1C([H])([H])C([H])([H])C([H])([H])C([H])(n2nc(-c3c([H])c([H])c(Oc4c([H])c([H])c(F)c([H])c4F)c([H])c3[H])c(C(=O)N([H])[H])c2N([H])[H])C1([H])[H]

>  <smiles>  (55) 
[H]c1nc([H])c(N([H])C([H])([H])C(=O)C([H])([H])Oc2c([H])c([H])c3c(c2[H])C([H])([H])N(C(=O)C([H])(N([H])C(=O)C([H])(N([H])C([H])([H])[H])C([H])([H])[H])C(C([H])([H])[H])(C([H])([H])[H])C([H])([H])[H])C([H])(C(=O)N([H])C2([H])c4c([H])c([H])c([H])c([H])c4C([H])([H])C([H])([H])C2([H])[H])C3([H])[H])c([H])c1N([H])C(=O)N1C([H])([H])C([H])([H])C([H])([H])C([H])(n2nc(-c3c([H])c([H])c(Oc4c([H])c([H])c(F)c([H])c4F)c([H])c3[H])c(C(=O)N([H])[H])c2N([H])[H])C1([H])[H]

$$$$
55:0:0
     RDKit          3D

 95104  0  0  1  0  0  0  0  0999 V2000
  -28.6360  -21.4310   20.6220 C   0  0  0  0  0  3  0  0  0  0  0  0
  -29.4000  -23.9010   19.6380 C   0  0  0  0  0  2  0  0  0  0  0  0
  -28.1810  -24.9110   19.7170 C   0  0  0  0  0  3  0  0  0  0  0  0
  -27.6930  -23.9650   20.8740 C   0  0  2  0  0  0  0  0  0  0  0  0
  -26.1950  -23.6170   20.8690 C   0  0  0  0  0  1  0  0  0  0  0  0
  -28.1330  -24.3850   22.2860 C   0  0  0  0  0  1  0  0  0  0  0  0
  -28.5880  -22.8350   20.3400 N   0  0  0  0  0  0  0  0  0  0  0  0
  -27.6610  -21.0520   21.4470 N   0  0  0  0  0  0  0  0  0  0  0  0
  -27.6090  -20.1010   21.7680 H   0  0  0  0  0  0  0  0  0  0  0  0
  -26.9920  -21.7300   21.7650 H   0  0  0  0  0  0  0  0  0  0  0  0
  -31.7660  -19.5140   19.3640 C   0  0  0  0  0  3  0  0  0  0  0  0
  -30.8540  -20.5470   19.6810 C   0  0  0  0  0  3  0  0  0  0  0  0
  -31.4760  -18.1450   19.5730 C   0  0  0  0  0  3  0  0  0  0  0  0
  -29.3130  -18.8110   20.4150 C   0  0  0  0  0  3  0  0  0  0  0  0
  -29.5860  -20.2540   20.2200 C   0  0  0  0  0  0  0  0  0  0  0  0
  -30.2420  -17.7080   20.1140 C   0  0  0  0  0  0  0  0  0  0  0  0
  -30.7310  -15.0600   20.0520 C   0  0  0  0  0  0  0  0  0  0  0  0
  -30.5180  -12.7620   19.0480 C   0  0  0  0  0  2  0  0  0  0  0  0
  -29.5280  -12.8020   17.8610 C   0  0  0  0  0  2  0  0  0  0  0  0
  -28.0810  -12.6050   18.3530 C   0  0  0  0  0  2  0  0  0  0  0  0
  -27.7470  -13.4870   19.5850 C   0  0  0  0  0  3  0  0  0  0  0  0
  -28.8540  -13.4290   20.6610 C   0  0  0  0  0  2  0  0  0  0  0  0
  -30.1110  -13.8210   20.0100 N   0  0  0  0  0  0  0  0  0  0  0  0
  -31.9120  -15.1190   19.6970 O   0  0  0  0  0  0  0  0  0  0  0  0
  -29.9730  -16.2230   20.3090 N   0  0  0  0  0  0  0  0  0  0  0  0
  -29.0400  -16.0110   20.6230 H   0  0  0  0  0  0  0  0  0  0  0  0
  -25.4000  -14.0570   20.4340 C   0  0  0  0  0  0  0  0  0  0  0  0
  -24.3510  -13.2740   20.8340 C   0  0  0  0  0  0  0  0  0  0  0  0
  -24.8120  -11.9240   20.7540 C   0  0  0  0  0  0  0  0  0  0  0  0
  -26.4300  -13.1830   20.1310 N   0  0  0  0  0  0  0  0  0  0  0  0
  -26.0880  -11.8940   20.3890 N   0  0  0  0  0  0  0  0  0  0  0  0
  -24.0930  -10.6590   20.9470 C   0  0  0  0  0  0  0  0  0  0  0  0
  -24.5310   -9.6940   21.8820 C   0  0  0  0  0  3  0  0  0  0  0  0
  -23.8100   -8.4940   22.0640 C   0  0  0  0  0  3  0  0  0  0  0  0
  -22.6380   -8.2490   21.3100 C   0  0  0  0  0  0  0  0  0  0  0  0
  -22.2180   -9.2010   20.3650 C   0  0  0  0  0  3  0  0  0  0  0  0
  -22.9390  -10.3930   20.1820 C   0  0  0  0  0  3  0  0  0  0  0  0
  -21.8880   -7.1000   21.4020 O   0  0  0  0  0  0  0  0  0  0  0  0
  -21.8140   -6.3800   22.5660 C   0  0  0  0  0  0  0  0  0  0  0  0
  -21.3000   -6.9410   23.7560 C   0  0  0  0  0  3  0  0  0  0  0  0
  -21.1760   -6.1450   24.9130 C   0  0  0  0  0  3  0  0  0  0  0  0
  -21.5550   -4.7910   24.8810 C   0  0  0  0  0  0  0  0  0  0  0  0
  -22.0610   -4.2280   23.6950 C   0  0  0  0  0  3  0  0  0  0  0  0
  -22.1860   -5.0220   22.5400 C   0  0  0  0  0  0  0  0  0  0  0  0
  -22.6540   -4.4700   21.3950 F   0  0  0  0  0  0  0  0  0  0  0  0
  -21.4290   -4.0230   25.9890 F   0  0  0  0  0  0  0  0  0  0  0  0
  -22.9670  -13.7460   21.1740 C   0  0  0  0  0  0  0  0  0  0  0  0
  -22.2780  -13.0350   22.0580 N   0  0  0  0  0  0  0  0  0  0  0  0
  -22.5080  -14.7810   20.6900 O   0  0  0  0  0  0  0  0  0  0  0  0
  -22.6640  -12.1980   22.4690 H   0  0  0  0  0  0  0  0  0  0  0  0
  -21.3510  -13.3300   22.3300 H   0  0  0  0  0  0  0  0  0  0  0  0
  -25.5560  -15.4320   20.2770 N   0  0  0  0  0  0  0  0  0  0  0  0
  -24.7890  -16.0790   20.4240 H   0  0  0  0  0  0  0  0  0  0  0  0
  -26.3700  -15.8730   19.8690 H   0  0  0  0  0  0  0  0  0  0  0  0
  -28.3310  -26.4270   19.9410 O   0  0  0  0  0  0  0  0  0  0  0  0
  -24.6040  -31.8520   23.1480 C   0  0  0  0  0  0  0  0  0  0  0  0
  -27.2290  -27.3400   19.9170 C   0  0  0  0  0  0  0  0  0  0  0  0
  -23.4070  -30.4970   21.4730 C   0  0  0  0  0  3  0  0  0  0  0  0
  -24.8620  -29.0090   19.9750 C   0  0  0  0  0  0  0  0  0  0  0  0
  -25.9500  -30.8270   21.2840 C   0  0  0  0  0  2  0  0  0  0  0  0
  -26.0390  -29.4650   20.5830 C   0  0  0  0  0  0  0  0  0  0  0  0
  -27.2200  -28.6450   20.5400 C   0  0  0  0  0  3  0  0  0  0  0  0
  -26.0250  -26.9740   19.2740 C   0  0  0  0  0  3  0  0  0  0  0  0
  -24.8650  -27.7750   19.3090 C   0  0  0  0  0  3  0  0  0  0  0  0
  -23.6180  -29.8750   20.0680 C   0  0  0  0  0  2  0  0  0  0  0  0
  -24.6740  -31.0770   22.0240 N   0  0  0  0  0  0  0  0  0  0  0  0
  -23.5200  -32.0980   23.6980 O   0  0  0  0  0  0  0  0  0  0  0  0
  -22.7630  -29.4400   22.4050 C   0  0  0  0  0  0  0  0  0  0  0  0
  -21.4410  -29.2330   22.2730 N   0  0  0  0  0  0  0  0  0  0  0  0
  -23.4540  -28.8110   23.2110 O   0  0  0  0  0  0  0  0  0  0  0  0
  -20.9380  -29.7960   21.6000 H   0  0  0  0  0  0  0  0  0  0  0  0
  -18.0980  -27.9170   22.7230 C   0  0  0  0  0  0  0  0  0  0  0  0
  -20.6460  -28.2530   23.0170 C   0  0  0  0  0  3  0  0  0  0  0  0
  -20.7980  -26.8380   22.4110 C   0  0  0  0  0  2  0  0  0  0  0  0
  -19.7140  -26.5020   21.3820 C   0  0  0  0  0  2  0  0  0  0  0  0
  -18.3230  -26.5900   22.0170 C   0  0  0  0  0  2  0  0  0  0  0  0
  -19.1890  -28.7040   23.1780 C   0  0  0  0  0  0  0  0  0  0  0  0
  -18.9240  -29.9450   23.7990 C   0  0  0  0  0  3  0  0  0  0  0  0
  -17.6030  -30.3980   23.9680 C   0  0  0  0  0  3  0  0  0  0  0  0
  -16.5260  -29.6070   23.5300 C   0  0  0  0  0  3  0  0  0  0  0  0
  -16.7760  -28.3680   22.9130 C   0  0  0  0  0  3  0  0  0  0  0  0
  -25.8800  -32.4870   23.7810 C   0  0  0  0  0  3  0  0  0  0  0  0
  -25.5560  -33.8750   24.1440 N   0  0  0  0  0  0  0  0  0  0  0  0
  -25.8470  -34.9480   23.3970 C   0  0  0  0  0  0  0  0  0  0  0  0
  -26.4840  -34.8740   22.3430 O   0  0  0  0  0  0  0  0  0  0  0  0
  -24.9830  -34.0050   24.9660 H   0  0  0  0  0  0  0  0  0  0  0  0
  -24.0730  -36.7160   23.1460 C   0  0  0  0  0  1  0  0  0  0  0  0
  -25.3540  -36.3210   23.8970 C   0  0  0  0  0  3  0  0  0  0  0  0
  -27.4980  -37.2410   24.6620 C   0  0  0  0  0  1  0  0  0  0  0  0
  -26.3610  -37.3950   23.7580 N   0  0  0  0  0  0  0  0  0  0  0  0
  -25.9430  -38.3050   23.9290 H   0  0  0  0  0  0  0  0  0  0  0  0
  -26.4050  -31.6970   25.0440 C   0  0  1  0  0  0  0  0  0  0  0  0
  -25.3140  -31.4290   26.1070 C   0  0  0  0  0  1  0  0  0  0  0  0
  -27.0020  -30.3320   24.6280 C   0  0  0  0  0  1  0  0  0  0  0  0
  -27.5490  -32.4890   25.7180 C   0  0  0  0  0  1  0  0  0  0  0  0
  1  8  1  0
  2  3  1  0
  2  7  1  0
  3 55  1  0
  3  4  1  0
  4  6  1  1
  5  4  1  0
  7  1  1  0
  7  4  1  0
  8 10  1  0
  8  9  1  0
 11 13  2  0
 11 12  1  0
 12 15  2  0
 13 16  1  0
 15 14  1  0
 15  1  1  0
 16 25  1  0
 16 14  2  0
 17 25  1  0
 18 23  1  0
 19 20  1  0
 19 18  1  0
 21 20  1  0
 21 30  1  0
 21 22  1  0
 23 17  1  0
 23 22  1  0
 24 17  2  0
 25 26  1  0
 27 28  2  0
 28 47  1  0
 29 28  1  0
 29 32  1  0
 30 31  1  0
 30 27  1  0
 31 29  2  0
 32 33  1  0
 33 34  2  0
 35 38  1  0
 35 34  1  0
 36 35  2  0
 37 36  1  0
 37 32  2  0
 38 39  1  0
 39 40  1  0
 40 41  2  0
 42 41  1  0
 42 46  1  0
 43 42  2  0
 44 39  2  0
 44 43  1  0
 45 44  1  0
 47 48  1  0
 48 51  1  0
 48 50  1  0
 49 47  2  0
 52 53  1  0
 52 27  1  0
 54 52  1  0
 56 67  2  0
 57 55  1  0
 57 62  1  0
 58 66  1  0
 58 68  1  0
 59 65  1  0
 59 61  1  0
 60 66  1  0
 61 60  1  0
 62 61  2  0
 63 64  1  0
 63 57  2  0
 64 59  2  0
 65 58  1  0
 66 56  1  0
 68 70  2  0
 69 68  1  0
 71 69  1  0
 72 81  2  0
 72 77  1  0
 73 69  1  0
 73 77  1  0
 74 73  1  0
 75 76  1  0
 75 74  1  0
 76 72  1  0
 77 78  2  0
 78 79  1  0
 80 79  2  0
 81 80  1  0
 82 56  1  0
 82 83  1  0
 82 92  1  0
 83 86  1  0
 84 88  1  0
 84 83  1  0
 85 84  2  0
 88 87  1  0
 90 88  1  0
 90 91  1  0
 90 89  1  0
 92 95  1  1
 92 93  1  0
 94 92  1  0
M  ISO  4   3 101  17 100  25 100  55 101
M  END
>  <TORSDO>  (56) 
F 17

>  <SCORE>  (56) 
-14.893

>  <name>  (56) 
55

>  <ligand_id>  (56) 
55

>  <original_smiles>  (56) 
[H]c1c([H])c(C(N2C([H])([H])C([H])(Oc3c([H])c([H])c4c(c3[H])C([H])([H])N(C(=O)C([H])(N([H])C(=O)C([H])(N([H])C([H])([H])[H])C([H])([H])[H])C(C([H])([H])[H])(C([H])([H])[H])C([H])([H])[H])C([H])(C(=O)N([H])C3([H])c5c([H])c([H])c([H])c([H])c5C([H])([H])C([H])([H])C3([H])[H])C4([H])[H])C2(C([H])([H])[H])C([H])([H])[H])=[N+]([H])[H])c([H])c(N([H])C(=O)N2C([H])([H])C([H])([H])C([H])([H])C([H])(n3nc(-c4c([H])c([H])c(Oc5c([H])c([H])c(F)c([H])c5F)c([H])c4[H])c(C(=O)N([H])[H])c3N([H])[H])C2([H])[H])c1[H]

>  <smiles>  (56) 
[H]c1c([H])c(C(N2C([H])([H])C([H])(Oc3c([H])c([H])c4c(c3[H])C([H])([H])N(C(=O)C([H])(N([H])C(=O)C([H])(N([H])C([H])([H])[H])C([H])([H])[H])C(C([H])([H])[H])(C([H])([H])[H])C([H])([H])[H])C([H])(C(=O)N([H])C3([H])c5c([H])c([H])c([H])c([H])c5C([H])([H])C([H])([H])C3([H])[H])C4([H])[H])C2(C([H])([H])[H])C([H])([H])[H])=[N+]([H])[H])c([H])c(N([H])C(=O)N2C([H])([H])C([H])([H])C([H])([H])C([H])(n3nc(-c4c([H])c([H])c(Oc5c([H])c([H])c(F)c([H])c5F)c([H])c4[H])c(C(=O)N([H])[H])c3N([H])[H])C2([H])[H])c1[H]

$$$$
56:0:0
     RDKit          3D

 93101  0  0  1  0  0  0  0  0999 V2000
  -29.8560  -20.7440   21.7100 C   0  0  0  0  0  3  0  0  0  0  0  0
  -30.2560  -19.3520   21.6600 C   0  0  0  0  0  0  0  0  0  0  0  0
  -29.9090  -18.8230   20.4300 C   0  0  0  0  0  0  0  0  0  0  0  0
  -29.2780  -21.0740   20.5130 C   0  0  0  0  0  0  0  0  0  0  0  0
  -29.2800  -19.8950   19.7330 O   0  0  0  0  0  0  0  0  0  0  0  0
  -28.8530  -23.6290   20.5950 C   0  0  0  0  0  0  0  0  0  0  0  0
  -28.6820  -22.3080   20.1590 N   0  0  0  0  0  0  0  0  0  0  0  0
  -29.7970  -23.9360   21.3290 O   0  0  0  0  0  0  0  0  0  0  0  0
  -27.9590  -22.2210   19.4590 H   0  0  0  0  0  0  0  0  0  0  0  0
  -27.8120  -24.7940   20.1650 C   0  0  0  0  0  2  0  0  0  0  0  0
  -28.1310  -26.2760   20.3500 O   0  0  0  0  0  0  0  0  0  0  0  0
  -24.5970  -31.9720   23.2230 C   0  0  0  0  0  0  0  0  0  0  0  0
  -27.0780  -27.2340   20.2420 C   0  0  0  0  0  0  0  0  0  0  0  0
  -23.3520  -30.5540   21.6370 C   0  0  0  0  0  3  0  0  0  0  0  0
  -24.7590  -28.9530   20.2130 C   0  0  0  0  0  0  0  0  0  0  0  0
  -25.9000  -30.8110   21.4140 C   0  0  0  0  0  2  0  0  0  0  0  0
  -25.9480  -29.4130   20.7940 C   0  0  0  0  0  0  0  0  0  0  0  0
  -27.1090  -28.5640   20.8000 C   0  0  0  0  0  3  0  0  0  0  0  0
  -25.8720  -26.8730   19.5970 C   0  0  0  0  0  3  0  0  0  0  0  0
  -24.7290  -27.6940   19.6010 C   0  0  0  0  0  3  0  0  0  0  0  0
  -23.5380  -29.8520   20.2660 C   0  0  0  0  0  2  0  0  0  0  0  0
  -24.6370  -31.1330   22.1450 N   0  0  0  0  0  0  0  0  0  0  0  0
  -23.5240  -32.2760   23.7670 O   0  0  0  0  0  0  0  0  0  0  0  0
  -22.6900  -29.5670   22.6300 C   0  0  0  0  0  0  0  0  0  0  0  0
  -21.3750  -29.3350   22.4720 N   0  0  0  0  0  0  0  0  0  0  0  0
  -23.3600  -29.0130   23.5040 O   0  0  0  0  0  0  0  0  0  0  0  0
  -20.8890  -29.8340   21.7400 H   0  0  0  0  0  0  0  0  0  0  0  0
  -18.0490  -27.9620   22.8740 C   0  0  0  0  0  0  0  0  0  0  0  0
  -20.5650  -28.4110   23.2700 C   0  0  0  0  0  3  0  0  0  0  0  0
  -20.7900  -26.9470   22.8260 C   0  0  0  0  0  2  0  0  0  0  0  0
  -19.7760  -26.4710   21.7790 C   0  0  0  0  0  2  0  0  0  0  0  0
  -18.3500  -26.5760   22.3280 C   0  0  0  0  0  2  0  0  0  0  0  0
  -19.0890  -28.8290   23.3030 C   0  0  0  0  0  0  0  0  0  0  0  0
  -18.7550  -30.1170   23.7720 C   0  0  0  0  0  3  0  0  0  0  0  0
  -17.4140  -30.5420   23.8200 C   0  0  0  0  0  3  0  0  0  0  0  0
  -16.3870  -29.6740   23.4070 C   0  0  0  0  0  3  0  0  0  0  0  0
  -16.7060  -28.3870   22.9400 C   0  0  0  0  0  3  0  0  0  0  0  0
  -25.8940  -32.6060   23.8100 C   0  0  0  0  0  3  0  0  0  0  0  0
  -26.4450  -31.8360   25.0730 C   0  0  1  0  0  0  0  0  0  0  0  0
  -25.3780  -31.5800   26.1630 C   0  0  0  0  0  1  0  0  0  0  0  0
  -27.0380  -30.4670   24.6660 C   0  0  0  0  0  1  0  0  0  0  0  0
  -27.5990  -32.6420   25.7150 C   0  0  0  0  0  1  0  0  0  0  0  0
  -25.5920  -34.0040   24.1500 N   0  0  0  0  0  0  0  0  0  0  0  0
  -25.9120  -35.0610   23.3910 C   0  0  0  0  0  0  0  0  0  0  0  0
  -26.5610  -34.9610   22.3470 O   0  0  0  0  0  0  0  0  0  0  0  0
  -25.0120  -34.1550   24.9630 H   0  0  0  0  0  0  0  0  0  0  0  0
  -24.1820  -36.8630   23.0820 C   0  0  0  0  0  1  0  0  0  0  0  0
  -25.4380  -36.4500   23.8650 C   0  0  0  0  0  3  0  0  0  0  0  0
  -27.5860  -37.3320   24.6630 C   0  0  0  0  0  1  0  0  0  0  0  0
  -26.4730  -37.5000   23.7340 N   0  0  0  0  0  0  0  0  0  0  0  0
  -26.0710  -38.4220   23.8810 H   0  0  0  0  0  0  0  0  0  0  0  0
  -30.9790  -18.5760   22.6950 C   0  0  0  0  0  0  0  0  0  0  0  0
  -31.2880  -19.3050   23.9940 C   0  0  0  0  0  1  0  0  0  0  0  0
  -31.3270  -17.4030   22.5510 O   0  0  0  0  0  0  0  0  0  0  0  0
  -30.1570  -17.4420   19.6640 C   0  0  0  0  0  2  0  0  0  0  0  0
  -30.7190  -14.8830   20.0010 C   0  0  0  0  0  0  0  0  0  0  0  0
  -30.4930  -12.5890   19.0210 C   0  0  0  0  0  2  0  0  0  0  0  0
  -29.5000  -12.6510   17.8380 C   0  0  0  0  0  2  0  0  0  0  0  0
  -28.0540  -12.4640   18.3360 C   0  0  0  0  0  2  0  0  0  0  0  0
  -27.7320  -13.3480   19.5720 C   0  0  0  0  0  3  0  0  0  0  0  0
  -28.8430  -13.2780   20.6440 C   0  0  0  0  0  2  0  0  0  0  0  0
  -30.1050  -13.6450   19.9910 N   0  0  0  0  0  0  0  0  0  0  0  0
  -31.8760  -14.9790   19.5790 O   0  0  0  0  0  0  0  0  0  0  0  0
  -29.9570  -16.0260   20.2430 N   0  0  0  0  0  0  0  0  0  0  0  0
  -29.0430  -15.8510   20.6310 H   0  0  0  0  0  0  0  0  0  0  0  0
  -25.3930  -13.9240   20.4480 C   0  0  0  0  0  0  0  0  0  0  0  0
  -24.3450  -13.1440   20.8540 C   0  0  0  0  0  0  0  0  0  0  0  0
  -24.7980  -11.7920   20.7590 C   0  0  0  0  0  0  0  0  0  0  0  0
  -26.4170  -13.0480   20.1270 N   0  0  0  0  0  0  0  0  0  0  0  0
  -26.0700  -11.7590   20.3770 N   0  0  0  0  0  0  0  0  0  0  0  0
  -24.0760  -10.5290   20.9530 C   0  0  0  0  0  0  0  0  0  0  0  0
  -24.5140   -9.5630   21.8870 C   0  0  0  0  0  3  0  0  0  0  0  0
  -23.7910   -8.3640   22.0690 C   0  0  0  0  0  3  0  0  0  0  0  0
  -22.6160   -8.1220   21.3180 C   0  0  0  0  0  0  0  0  0  0  0  0
  -22.1970   -9.0770   20.3730 C   0  0  0  0  0  3  0  0  0  0  0  0
  -22.9200  -10.2670   20.1890 C   0  0  0  0  0  3  0  0  0  0  0  0
  -21.8640   -6.9760   21.4100 O   0  0  0  0  0  0  0  0  0  0  0  0
  -21.7750   -6.2660   22.5800 C   0  0  0  0  0  0  0  0  0  0  0  0
  -21.2660   -6.8430   23.7650 C   0  0  0  0  0  3  0  0  0  0  0  0
  -21.1260   -6.0570   24.9270 C   0  0  0  0  0  3  0  0  0  0  0  0
  -21.4830   -4.6950   24.9040 C   0  0  0  0  0  0  0  0  0  0  0  0
  -21.9850   -4.1180   23.7240 C   0  0  0  0  0  3  0  0  0  0  0  0
  -22.1270   -4.9010   22.5640 C   0  0  0  0  0  0  0  0  0  0  0  0
  -22.5900   -4.3350   21.4240 F   0  0  0  0  0  0  0  0  0  0  0  0
  -21.3420   -3.9390   26.0170 F   0  0  0  0  0  0  0  0  0  0  0  0
  -22.9680  -13.6200   21.2150 C   0  0  0  0  0  0  0  0  0  0  0  0
  -22.2850  -12.9050   22.1020 N   0  0  0  0  0  0  0  0  0  0  0  0
  -22.5080  -14.6600   20.7460 O   0  0  0  0  0  0  0  0  0  0  0  0
  -22.6710  -12.0640   22.5040 H   0  0  0  0  0  0  0  0  0  0  0  0
  -21.3640  -13.2060   22.3850 H   0  0  0  0  0  0  0  0  0  0  0  0
  -25.5550  -15.2990   20.3020 N   0  0  0  0  0  0  0  0  0  0  0  0
  -24.7950  -15.9490   20.4730 H   0  0  0  0  0  0  0  0  0  0  0  0
  -26.3770  -15.7460   19.9190 H   0  0  0  0  0  0  0  0  0  0  0  0
  2  1  1  0
  2 52  1  0
  3  2  2  0
  4  1  2  0
  5  3  1  0
  5  4  1  0
  6  8  2  0
  7  4  1  0
  7  6  1  0
  9  7  1  0
 10 11  1  0
 10  6  1  0
 12 23  2  0
 13 11  1  0
 13 18  1  0
 14 22  1  0
 14 24  1  0
 15 21  1  0
 15 17  1  0
 16 22  1  0
 17 18  2  0
 17 16  1  0
 19 20  1  0
 19 13  2  0
 20 15  2  0
 21 14  1  0
 22 12  1  0
 24 26  2  0
 25 24  1  0
 27 25  1  0
 28 37  2  0
 28 33  1  0
 29 25  1  0
 29 33  1  0
 30 29  1  0
 31 32  1  0
 31 30  1  0
 32 28  1  0
 33 34  2  0
 34 35  1  0
 36 35  2  0
 37 36  1  0
 38 12  1  0
 38 43  1  0
 38 39  1  0
 39 42  1  1
 39 40  1  0
 41 39  1  0
 43 46  1  0
 44 48  1  0
 44 43  1  0
 45 44  2  0
 48 47  1  0
 50 48  1  0
 50 51  1  0
 50 49  1  0
 52 53  1  0
 54 52  2  0
 55 64  1  0
 55  3  1  0
 56 64  1  0
 57 62  1  0
 58 59  1  0
 58 57  1  0
 60 59  1  0
 60 69  1  0
 60 61  1  0
 62 56  1  0
 62 61  1  0
 63 56  2  0
 64 65  1  0
 66 67  2  0
 67 86  1  0
 68 67  1  0
 68 71  1  0
 69 70  1  0
 69 66  1  0
 70 68  2  0
 71 72  1  0
 72 73  2  0
 74 77  1  0
 74 73  1  0
 75 74  2  0
 76 75  1  0
 76 71  2  0
 77 78  1  0
 78 79  1  0
 79 80  2  0
 81 80  1  0
 81 85  1  0
 82 81  2  0
 83 78  2  0
 83 82  1  0
 84 83  1  0
 86 87  1  0
 87 90  1  0
 87 89  1  0
 88 86  2  0
 91 66  1  0
 91 92  1  0
 93 91  1  0
M  ISO  4  10 101  11 101  56 100  64 100
M  END
>  <TORSDO>  (57) 
F 20

>  <SCORE>  (57) 
-12.929

>  <name>  (57) 
56

>  <ligand_id>  (57) 
56

>  <original_smiles>  (57) 
[H]c1c([H])c([H])c2c(c1[H])C([H])([H])C([H])([H])C([H])([H])C2([H])N([H])C(=O)C1([H])N(C(=O)C([H])(N([H])C(=O)C([H])(N([H])C([H])([H])[H])C([H])([H])[H])C(C([H])([H])[H])(C([H])([H])[H])C([H])([H])[H])C([H])([H])c2c([H])c(OC([H])([H])C(=O)N([H])c3oc(C([H])([H])N([H])C(=O)N4C([H])([H])C([H])([H])C([H])([H])C([H])(n5nc(-c6c([H])c([H])c(Oc7c([H])c([H])c(F)c([H])c7F)c([H])c6[H])c(C(=O)N([H])[H])c5N([H])[H])C4([H])[H])c(C(=O)C([H])([H])[H])c3[H])c([H])c([H])c2C1([H])[H]

>  <smiles>  (57) 
[H]c1c([H])c([H])c2c(c1[H])C([H])([H])C([H])([H])C([H])([H])C2([H])N([H])C(=O)C1([H])N(C(=O)C([H])(N([H])C(=O)C([H])(N([H])C([H])([H])[H])C([H])([H])[H])C(C([H])([H])[H])(C([H])([H])[H])C([H])([H])[H])C([H])([H])c2c([H])c(OC([H])([H])C(=O)N([H])c3oc(C([H])([H])N([H])C(=O)N4C([H])([H])C([H])([H])C([H])([H])C([H])(n5nc(-c6c([H])c([H])c(Oc7c([H])c([H])c(F)c([H])c7F)c([H])c6[H])c(C(=O)N([H])[H])c5N([H])[H])C4([H])[H])c(C(=O)C([H])([H])[H])c3[H])c([H])c([H])c2C1([H])[H]

$$$$
57:0:0
     RDKit          3D

 92101  0  0  1  0  0  0  0  0999 V2000
  -28.2980  -23.7650   20.8030 C   0  0  0  0  0  0  0  0  0  0  0  0
  -27.9650  -25.1320   20.8520 C   0  0  0  0  0  3  0  0  0  0  0  0
  -27.6720  -22.8240   21.8280 C   0  0  0  0  0  2  0  0  0  0  0  0
  -29.1690  -22.7760   19.9370 C   0  0  0  0  0  2  0  0  0  0  0  0
  -28.3410  -21.4260   21.7470 C   0  0  0  0  0  2  0  0  0  0  0  0
  -29.0720  -21.3580   20.4920 N   0  0  0  0  0  0  0  0  0  0  0  0
  -30.3730  -20.1580   18.7980 C   0  0  0  0  0  3  0  0  0  0  0  0
  -30.9090  -19.0030   18.1960 C   0  0  0  0  0  3  0  0  0  0  0  0
  -29.4880  -18.7360   20.5570 C   0  0  0  0  0  3  0  0  0  0  0  0
  -29.6230  -20.0920   19.9890 C   0  0  0  0  0  0  0  0  0  0  0  0
  -30.0590  -17.5090   19.9700 C   0  0  0  0  0  0  0  0  0  0  0  0
  -30.7470  -17.7150   18.7450 C   0  0  0  0  0  0  0  0  0  0  0  0
  -31.2190  -16.6700   18.0250 F   0  0  0  0  0  0  0  0  0  0  0  0
  -30.6460  -14.9310   20.2680 C   0  0  0  0  0  0  0  0  0  0  0  0
  -30.4720  -12.6230   19.3080 C   0  0  0  0  0  2  0  0  0  0  0  0
  -29.5440  -12.6570   18.0740 C   0  0  0  0  0  2  0  0  0  0  0  0
  -28.0730  -12.4720   18.4960 C   0  0  0  0  0  2  0  0  0  0  0  0
  -27.6820  -13.3720   19.6990 C   0  0  0  0  0  3  0  0  0  0  0  0
  -28.7360  -13.3260   20.8270 C   0  0  0  0  0  2  0  0  0  0  0  0
  -30.0270  -13.6950   20.2340 N   0  0  0  0  0  0  0  0  0  0  0  0
  -31.8470  -14.9900   19.9860 O   0  0  0  0  0  0  0  0  0  0  0  0
  -29.8870  -16.0940   20.4790 N   0  0  0  0  0  0  0  0  0  0  0  0
  -28.9970  -15.9170   20.9160 H   0  0  0  0  0  0  0  0  0  0  0  0
  -25.2900  -13.9470   20.4160 C   0  0  0  0  0  0  0  0  0  0  0  0
  -24.2270  -13.1680   20.7860 C   0  0  0  0  0  0  0  0  0  0  0  0
  -24.7000  -11.8190   20.7670 C   0  0  0  0  0  0  0  0  0  0  0  0
  -26.3400  -13.0730   20.1880 N   0  0  0  0  0  0  0  0  0  0  0  0
  -25.9930  -11.7880   20.4650 N   0  0  0  0  0  0  0  0  0  0  0  0
  -23.9800  -10.5540   20.9610 C   0  0  0  0  0  0  0  0  0  0  0  0
  -24.4020   -9.6010   21.9130 C   0  0  0  0  0  3  0  0  0  0  0  0
  -23.6800   -8.4020   22.0950 C   0  0  0  0  0  3  0  0  0  0  0  0
  -22.5220   -8.1450   21.3230 C   0  0  0  0  0  0  0  0  0  0  0  0
  -22.1200   -9.0870   20.3590 C   0  0  0  0  0  3  0  0  0  0  0  0
  -22.8420  -10.2770   20.1750 C   0  0  0  0  0  3  0  0  0  0  0  0
  -21.7740   -6.9970   21.4120 O   0  0  0  0  0  0  0  0  0  0  0  0
  -21.6930   -6.2780   22.5780 C   0  0  0  0  0  0  0  0  0  0  0  0
  -21.2140   -6.8520   23.7760 C   0  0  0  0  0  3  0  0  0  0  0  0
  -21.0840   -6.0590   24.9340 C   0  0  0  0  0  3  0  0  0  0  0  0
  -21.4230   -4.6930   24.8940 C   0  0  0  0  0  0  0  0  0  0  0  0
  -21.8950   -4.1190   23.7010 C   0  0  0  0  0  3  0  0  0  0  0  0
  -22.0260   -4.9090   22.5450 C   0  0  0  0  0  0  0  0  0  0  0  0
  -22.4620   -4.3460   21.3920 F   0  0  0  0  0  0  0  0  0  0  0  0
  -21.2910   -3.9290   26.0040 F   0  0  0  0  0  0  0  0  0  0  0  0
  -22.8260  -13.6380   21.0430 C   0  0  0  0  0  0  0  0  0  0  0  0
  -22.0960  -12.9450   21.9100 N   0  0  0  0  0  0  0  0  0  0  0  0
  -22.3860  -14.6580   20.5110 O   0  0  0  0  0  0  0  0  0  0  0  0
  -22.4630  -12.1210   22.3620 H   0  0  0  0  0  0  0  0  0  0  0  0
  -21.1560  -13.2430   22.1250 H   0  0  0  0  0  0  0  0  0  0  0  0
  -25.4460  -15.3170   20.2280 N   0  0  0  0  0  0  0  0  0  0  0  0
  -24.6730  -15.9660   20.3330 H   0  0  0  0  0  0  0  0  0  0  0  0
  -26.2830  -15.7550   19.8690 H   0  0  0  0  0  0  0  0  0  0  0  0
  -28.2620  -26.3490   20.1540 O   0  0  0  0  0  0  0  0  0  0  0  0
  -24.6230  -31.9100   23.2160 C   0  0  0  0  0  0  0  0  0  0  0  0
  -27.2210  -27.3190   20.1180 C   0  0  0  0  0  0  0  0  0  0  0  0
  -23.4160  -30.5120   21.5800 C   0  0  0  0  0  3  0  0  0  0  0  0
  -24.8650  -28.9760   20.1260 C   0  0  0  0  0  0  0  0  0  0  0  0
  -25.9580  -30.8280   21.3820 C   0  0  0  0  0  2  0  0  0  0  0  0
  -26.0430  -29.4480   20.7220 C   0  0  0  0  0  0  0  0  0  0  0  0
  -27.2260  -28.6330   20.7090 C   0  0  0  0  0  3  0  0  0  0  0  0
  -26.0240  -26.9260   19.4860 C   0  0  0  0  0  3  0  0  0  0  0  0
  -24.8620  -27.7240   19.4930 C   0  0  0  0  0  3  0  0  0  0  0  0
  -23.6250  -29.8480   20.1940 C   0  0  0  0  0  2  0  0  0  0  0  0
  -24.6850  -31.1020   22.1150 N   0  0  0  0  0  0  0  0  0  0  0  0
  -23.5420  -32.1780   23.7600 O   0  0  0  0  0  0  0  0  0  0  0  0
  -22.7630  -29.4890   22.5410 C   0  0  0  0  0  0  0  0  0  0  0  0
  -21.4370  -29.3050   22.4270 N   0  0  0  0  0  0  0  0  0  0  0  0
  -23.4520  -28.8640   23.3530 O   0  0  0  0  0  0  0  0  0  0  0  0
  -20.9380  -29.8610   21.7470 H   0  0  0  0  0  0  0  0  0  0  0  0
  -18.0720  -28.0760   22.9550 C   0  0  0  0  0  0  0  0  0  0  0  0
  -20.6310  -28.3580   23.2010 C   0  0  0  0  0  3  0  0  0  0  0  0
  -20.7390  -26.9290   22.6190 C   0  0  0  0  0  2  0  0  0  0  0  0
  -19.6300  -26.6020   21.6130 C   0  0  0  0  0  2  0  0  0  0  0  0
  -18.2530  -26.7320   22.2700 C   0  0  0  0  0  2  0  0  0  0  0  0
  -19.1870  -28.8460   23.3780 C   0  0  0  0  0  0  0  0  0  0  0  0
  -18.9620  -30.1030   23.9790 C   0  0  0  0  0  3  0  0  0  0  0  0
  -17.6550  -30.5920   24.1610 C   0  0  0  0  0  3  0  0  0  0  0  0
  -16.5530  -29.8190   23.7550 C   0  0  0  0  0  3  0  0  0  0  0  0
  -16.7630  -28.5630   23.1560 C   0  0  0  0  0  3  0  0  0  0  0  0
  -25.9060  -32.5490   23.8310 C   0  0  0  0  0  3  0  0  0  0  0  0
  -25.5900  -33.9460   24.1680 N   0  0  0  0  0  0  0  0  0  0  0  0
  -25.9050  -35.0040   23.4100 C   0  0  0  0  0  0  0  0  0  0  0  0
  -26.5630  -34.9070   22.3690 O   0  0  0  0  0  0  0  0  0  0  0  0
  -25.0070  -34.0940   24.9790 H   0  0  0  0  0  0  0  0  0  0  0  0
  -24.1680  -36.7930   23.0790 C   0  0  0  0  0  1  0  0  0  0  0  0
  -25.4170  -36.3890   23.8780 C   0  0  0  0  0  3  0  0  0  0  0  0
  -27.5550  -37.2780   24.6970 C   0  0  0  0  0  1  0  0  0  0  0  0
  -26.4450  -37.4470   23.7620 N   0  0  0  0  0  0  0  0  0  0  0  0
  -26.0370  -38.3640   23.9180 H   0  0  0  0  0  0  0  0  0  0  0  0
  -26.4340  -31.7800   25.1040 C   0  0  1  0  0  0  0  0  0  0  0  0
  -25.3480  -31.5360   26.1800 C   0  0  0  0  0  1  0  0  0  0  0  0
  -27.0210  -30.4050   24.7100 C   0  0  0  0  0  1  0  0  0  0  0  0
  -27.5850  -32.5780   25.7590 C   0  0  0  0  0  1  0  0  0  0  0  0
  1  2  2  0
  1  3  1  0
  4  6  1  0
  4  1  1  0
  5  3  1  0
  6  5  1  0
  7 10  1  0
  8 12  1  0
  8  7  2  0
 10  6  1  0
 10  9  2  0
 11 22  1  0
 11  9  1  0
 12 11  2  0
 13 12  1  0
 14 22  1  0
 15 20  1  0
 16 17  1  0
 16 15  1  0
 18 17  1  0
 18 27  1  0
 18 19  1  0
 20 14  1  0
 20 19  1  0
 21 14  2  0
 22 23  1  0
 24 25  2  0
 25 44  1  0
 26 25  1  0
 26 29  1  0
 27 24  1  0
 27 28  1  0
 28 26  2  0
 29 30  1  0
 30 31  2  0
 32 35  1  0
 32 31  1  0
 33 32  2  0
 34 33  1  0
 34 29  2  0
 35 36  1  0
 36 37  1  0
 37 38  2  0
 39 38  1  0
 39 43  1  0
 40 39  2  0
 41 36  2  0
 41 40  1  0
 42 41  1  0
 44 45  1  0
 45 48  1  0
 45 47  1  0
 46 44  2  0
 49 50  1  0
 49 24  1  0
 51 49  1  0
 52  2  1  0
 53 64  2  0
 54 52  1  0
 54 59  1  0
 55 63  1  0
 55 65  1  0
 56 62  1  0
 56 58  1  0
 57 63  1  0
 58 57  1  0
 59 58  2  0
 60 61  1  0
 60 54  2  0
 61 56  2  0
 62 55  1  0
 63 53  1  0
 65 67  2  0
 66 65  1  0
 68 66  1  0
 69 78  2  0
 69 74  1  0
 70 66  1  0
 70 74  1  0
 71 70  1  0
 72 73  1  0
 72 71  1  0
 73 69  1  0
 74 75  2  0
 75 76  1  0
 77 76  2  0
 78 77  1  0
 79 53  1  0
 79 80  1  0
 79 89  1  0
 80 83  1  0
 81 85  1  0
 81 80  1  0
 82 81  2  0
 85 84  1  0
 87 85  1  0
 87 88  1  0
 87 86  1  0
 89 92  1  1
 89 90  1  0
 91 89  1  0
M  ISO  4   2 101  14 100  22 100  52 101
M  END
>  <TORSDO>  (58) 
F 17

>  <SCORE>  (58) 
-15.010

>  <name>  (58) 
57

>  <ligand_id>  (58) 
57

>  <original_smiles>  (58) 
[H]C(Oc1c([H])c([H])c2c(c1[H])C([H])([H])N(C(=O)C([H])(N([H])C(=O)C([H])(N([H])C([H])([H])[H])C([H])([H])[H])C(C([H])([H])[H])(C([H])([H])[H])C([H])([H])[H])C([H])(C(=O)N([H])C1([H])c3c([H])c([H])c([H])c([H])c3C([H])([H])C([H])([H])C1([H])[H])C2([H])[H])=C1C([H])([H])N(c2c([H])c([H])c(F)c(N([H])C(=O)N3C([H])([H])C([H])([H])C([H])([H])C([H])(n4nc(-c5c([H])c([H])c(Oc6c([H])c([H])c(F)c([H])c6F)c([H])c5[H])c(C(=O)N([H])[H])c4N([H])[H])C3([H])[H])c2[H])C([H])([H])C1([H])[H]

>  <smiles>  (58) 
[H]C(Oc1c([H])c([H])c2c(c1[H])C([H])([H])N(C(=O)C([H])(N([H])C(=O)C([H])(N([H])C([H])([H])[H])C([H])([H])[H])C(C([H])([H])[H])(C([H])([H])[H])C([H])([H])[H])C([H])(C(=O)N([H])C1([H])c3c([H])c([H])c([H])c([H])c3C([H])([H])C([H])([H])C1([H])[H])C2([H])[H])=C1C([H])([H])N(c2c([H])c([H])c(F)c(N([H])C(=O)N3C([H])([H])C([H])([H])C([H])([H])C([H])(n4nc(-c5c([H])c([H])c(Oc6c([H])c([H])c(F)c([H])c6F)c([H])c5[H])c(C(=O)N([H])[H])c4N([H])[H])C3([H])[H])c2[H])C([H])([H])C1([H])[H]

$$$$
58:0:0
     RDKit          3D

 98107  0  0  1  0  0  0  0  0999 V2000
  -28.7950  -21.2900   21.4520 C   0  0  0  0  0  3  0  0  0  0  0  0
  -27.2340  -24.6210   20.7950 C   0  0  0  0  0  2  0  0  0  0  0  0
  -27.5490  -23.4490   21.7370 C   0  0  0  0  0  2  0  0  0  0  0  0
  -28.6710  -23.1530   19.6420 C   0  0  0  0  0  2  0  0  0  0  0  0
  -28.4890  -24.6870   19.9070 C   0  0  2  0  0  0  0  0  0  0  0  0
  -28.4140  -22.5160   20.9690 N   0  0  0  0  0  0  0  0  0  0  0  0
  -28.5110  -21.0130   22.7330 N   0  0  0  0  0  0  0  0  0  0  0  0
  -28.6630  -20.0720   23.0670 H   0  0  0  0  0  0  0  0  0  0  0  0
  -28.0580  -21.6460   23.3670 H   0  0  0  0  0  0  0  0  0  0  0  0
  -30.6620  -19.6190   21.2250 C   0  0  0  0  0  3  0  0  0  0  0  0
  -31.0280  -18.2670   20.9740 C   0  0  0  0  0  3  0  0  0  0  0  0
  -29.0050  -17.9900   19.6640 C   0  0  0  0  0  3  0  0  0  0  0  0
  -29.4360  -20.1520   20.7440 C   0  0  0  0  0  0  0  0  0  0  0  0
  -30.1520  -17.4060   20.2680 C   0  0  0  0  0  0  0  0  0  0  0  0
  -28.6540  -19.3480   19.8860 C   0  0  0  0  0  0  0  0  0  0  0  0
  -27.4740  -19.8170   19.4080 F   0  0  0  0  0  0  0  0  0  0  0  0
  -31.0210  -15.0020   19.9630 C   0  0  0  0  0  0  0  0  0  0  0  0
  -30.8370  -12.7140   18.9960 C   0  0  0  0  0  2  0  0  0  0  0  0
  -29.8410  -12.7840   17.8170 C   0  0  0  0  0  2  0  0  0  0  0  0
  -28.3830  -12.6420   18.3110 C   0  0  0  0  0  2  0  0  0  0  0  0
  -28.0650  -13.5520   19.5290 C   0  0  0  0  0  3  0  0  0  0  0  0
  -29.1700  -13.4100   20.6030 C   0  0  0  0  0  2  0  0  0  0  0  0
  -30.4570  -13.7540   19.9700 N   0  0  0  0  0  0  0  0  0  0  0  0
  -32.1230  -15.2320   19.4540 O   0  0  0  0  0  0  0  0  0  0  0  0
  -30.2000  -15.9710   20.4400 N   0  0  0  0  0  0  0  0  0  0  0  0
  -29.3530  -15.5810   20.8220 H   0  0  0  0  0  0  0  0  0  0  0  0
  -25.7320  -14.1840   20.4240 C   0  0  0  0  0  0  0  0  0  0  0  0
  -24.6660  -13.4200   20.8060 C   0  0  0  0  0  0  0  0  0  0  0  0
  -25.0790  -12.0590   20.6620 C   0  0  0  0  0  0  0  0  0  0  0  0
  -26.7350  -13.2900   20.0720 N   0  0  0  0  0  0  0  0  0  0  0  0
  -26.3460  -12.0040   20.2720 N   0  0  0  0  0  0  0  0  0  0  0  0
  -24.3240  -10.8080   20.8180 C   0  0  0  0  0  0  0  0  0  0  0  0
  -24.7180   -9.8120   21.7390 C   0  0  0  0  0  3  0  0  0  0  0  0
  -23.9620   -8.6280   21.8800 C   0  0  0  0  0  3  0  0  0  0  0  0
  -22.7970   -8.4320   21.1020 C   0  0  0  0  0  0  0  0  0  0  0  0
  -22.4220   -9.4160   20.1690 C   0  0  0  0  0  3  0  0  0  0  0  0
  -23.1780  -10.5890   20.0270 C   0  0  0  0  0  3  0  0  0  0  0  0
  -22.0160   -7.3010   21.1530 O   0  0  0  0  0  0  0  0  0  0  0  0
  -21.8370   -6.6040   22.3200 C   0  0  0  0  0  0  0  0  0  0  0  0
  -21.2600   -7.2030   23.4620 C   0  0  0  0  0  3  0  0  0  0  0  0
  -21.0320   -6.4330   24.6210 C   0  0  0  0  0  3  0  0  0  0  0  0
  -21.3690   -5.0660   24.6340 C   0  0  0  0  0  0  0  0  0  0  0  0
  -21.9390   -4.4670   23.4960 C   0  0  0  0  0  3  0  0  0  0  0  0
  -22.1690   -5.2340   22.3410 C   0  0  0  0  0  0  0  0  0  0  0  0
  -22.6990   -4.6500   21.2390 F   0  0  0  0  0  0  0  0  0  0  0  0
  -21.1370   -4.3230   25.7410 F   0  0  0  0  0  0  0  0  0  0  0  0
  -23.3000  -13.9140   21.1940 C   0  0  0  0  0  0  0  0  0  0  0  0
  -22.6130  -13.1960   22.0720 N   0  0  0  0  0  0  0  0  0  0  0  0
  -22.8580  -14.9760   20.7550 O   0  0  0  0  0  0  0  0  0  0  0  0
  -22.9780  -12.3350   22.4500 H   0  0  0  0  0  0  0  0  0  0  0  0
  -21.7000  -13.5120   22.3700 H   0  0  0  0  0  0  0  0  0  0  0  0
  -25.9270  -15.5580   20.3160 N   0  0  0  0  0  0  0  0  0  0  0  0
  -25.1900  -16.2220   20.5270 H   0  0  0  0  0  0  0  0  0  0  0  0
  -26.7450  -15.9940   19.9160 H   0  0  0  0  0  0  0  0  0  0  0  0
  -29.5720  -26.1640   21.5660 C   0  0  0  0  0  1  0  0  0  0  0  0
  -29.6750  -25.0960   20.6160 O   0  0  0  0  0  0  0  0  0  0  0  0
  -28.4090  -25.6010   18.6340 C   0  0  0  0  0  2  0  0  0  0  0  0
  -28.3130  -27.0140   18.9290 O   0  0  0  0  0  0  0  0  0  0  0  0
  -24.4690  -31.5380   22.9190 C   0  0  0  0  0  0  0  0  0  0  0  0
  -27.0930  -27.6300   19.1300 C   0  0  0  0  0  0  0  0  0  0  0  0
  -23.2290  -30.2820   21.1880 C   0  0  0  0  0  3  0  0  0  0  0  0
  -24.6470  -28.9970   19.5090 C   0  0  0  0  0  0  0  0  0  0  0  0
  -25.7220  -30.7850   20.8940 C   0  0  0  0  0  2  0  0  0  0  0  0
  -25.8210  -29.5120   20.0730 C   0  0  0  0  0  0  0  0  0  0  0  0
  -27.0490  -28.8370   19.8730 C   0  0  0  0  0  3  0  0  0  0  0  0
  -25.8870  -27.1180   18.6040 C   0  0  0  0  0  3  0  0  0  0  0  0
  -24.6750  -27.7980   18.7810 C   0  0  0  0  0  3  0  0  0  0  0  0
  -23.3750  -29.7780   19.7280 C   0  0  0  0  0  2  0  0  0  0  0  0
  -24.4940  -30.8810   21.7240 N   0  0  0  0  0  0  0  0  0  0  0  0
  -23.4150  -31.6860   23.5530 O   0  0  0  0  0  0  0  0  0  0  0  0
  -22.6840  -29.1250   22.0530 C   0  0  0  0  0  0  0  0  0  0  0  0
  -21.3650  -28.8850   21.9750 N   0  0  0  0  0  0  0  0  0  0  0  0
  -23.4430  -28.4420   22.7470 O   0  0  0  0  0  0  0  0  0  0  0  0
  -20.8080  -29.4890   21.3860 H   0  0  0  0  0  0  0  0  0  0  0  0
  -18.0930  -27.4410   22.4940 C   0  0  0  0  0  0  0  0  0  0  0  0
  -20.6450  -27.8180   22.6690 C   0  0  0  0  0  3  0  0  0  0  0  0
  -20.7920  -26.4680   21.9310 C   0  0  0  0  0  2  0  0  0  0  0  0
  -19.6560  -26.2010   20.9390 C   0  0  0  0  0  2  0  0  0  0  0  0
  -18.3030  -26.1900   21.6580 C   0  0  0  0  0  2  0  0  0  0  0  0
  -19.1920  -28.2130   22.9540 C   0  0  0  0  0  0  0  0  0  0  0  0
  -18.9410  -29.3870   23.6950 C   0  0  0  0  0  3  0  0  0  0  0  0
  -17.6230  -29.7880   23.9870 C   0  0  0  0  0  3  0  0  0  0  0  0
  -16.5390  -29.0110   23.5430 C   0  0  0  0  0  3  0  0  0  0  0  0
  -16.7750  -27.8400   22.8010 C   0  0  0  0  0  3  0  0  0  0  0  0
  -25.7630  -32.1560   23.5320 C   0  0  0  0  0  3  0  0  0  0  0  0
  -26.3540  -31.3070   24.7270 C   0  0  1  0  0  0  0  0  0  0  0  0
  -25.3190  -30.9770   25.8260 C   0  0  0  0  0  1  0  0  0  0  0  0
  -26.9500  -29.9730   24.2200 C   0  0  0  0  0  1  0  0  0  0  0  0
  -27.5160  -32.0820   25.3930 C   0  0  0  0  0  1  0  0  0  0  0  0
  -25.4360  -33.5160   23.9760 N   0  0  0  0  0  0  0  0  0  0  0  0
  -25.7140  -34.6370   23.2930 C   0  0  0  0  0  0  0  0  0  0  0  0
  -26.3570  -34.6310   22.2390 O   0  0  0  0  0  0  0  0  0  0  0  0
  -24.8640  -33.5870   24.8050 H   0  0  0  0  0  0  0  0  0  0  0  0
  -23.9290  -36.4020   23.1260 C   0  0  0  0  0  1  0  0  0  0  0  0
  -25.2050  -35.9720   23.8680 C   0  0  0  0  0  3  0  0  0  0  0  0
  -27.3350  -36.8650   24.7020 C   0  0  0  0  0  1  0  0  0  0  0  0
  -26.2020  -37.0630   23.8020 N   0  0  0  0  0  0  0  0  0  0  0  0
  -25.7740  -37.9570   24.0300 H   0  0  0  0  0  0  0  0  0  0  0  0
  1  7  1  0
  2  3  1  0
  4  5  1  0
  4  6  1  0
  5 57  1  6
  5 56  1  0
  5  2  1  0
  6  1  1  0
  6  3  1  0
  7  8  1  0
  7  9  1  0
 11 10  1  0
 12 15  2  0
 12 14  1  0
 13 10  2  0
 13  1  1  0
 14 25  1  0
 14 11  2  0
 15 13  1  0
 16 15  1  0
 17 23  1  0
 17 25  1  0
 18 23  1  0
 19 20  1  0
 19 18  1  0
 21 20  1  0
 21 30  1  0
 21 22  1  0
 23 22  1  0
 24 17  2  0
 25 26  1  0
 27 28  2  0
 28 47  1  0
 29 28  1  0
 29 32  1  0
 30 31  1  0
 30 27  1  0
 31 29  2  0
 32 33  1  0
 33 34  2  0
 35 38  1  0
 35 34  1  0
 36 35  2  0
 37 36  1  0
 37 32  2  0
 38 39  1  0
 39 44  2  0
 39 40  1  0
 40 41  2  0
 41 42  1  0
 42 46  1  0
 43 42  2  0
 44 43  1  0
 45 44  1  0
 47 48  1  0
 48 51  1  0
 48 50  1  0
 49 47  2  0
 52 27  1  0
 52 53  1  0
 54 52  1  0
 56 55  1  0
 57 58  1  0
 58 60  1  0
 59 70  2  0
 60 65  1  0
 61 69  1  0
 61 71  1  0
 62 68  1  0
 62 64  1  0
 63 69  1  0
 64 63  1  0
 65 64  2  0
 66 67  1  0
 66 60  2  0
 67 62  2  0
 68 61  1  0
 69 59  1  0
 71 73  2  0
 72 71  1  0
 74 72  1  0
 75 84  2  0
 75 80  1  0
 76 72  1  0
 76 80  1  0
 77 76  1  0
 78 79  1  0
 78 77  1  0
 79 75  1  0
 80 81  2  0
 81 82  1  0
 83 82  2  0
 84 83  1  0
 85 59  1  0
 85 90  1  0
 85 86  1  0
 86 89  1  1
 86 87  1  0
 88 86  1  0
 90 93  1  0
 91 95  1  0
 91 90  1  0
 92 91  2  0
 95 94  1  0
 97 95  1  0
 97 98  1  0
 97 96  1  0
M  ISO  4  17 100  25 100  57 101  58 101
M  END
>  <TORSDO>  (59) 
F 19

>  <SCORE>  (59) 
-12.053

>  <name>  (59) 
58

>  <ligand_id>  (59) 
58

>  <original_smiles>  (59) 
[H]c1c([H])c([H])c2c(c1[H])C([H])([H])C([H])([H])C([H])([H])C2([H])N([H])C(=O)C1([H])N(C(=O)C([H])(N([H])C(=O)C([H])(N([H])C([H])([H])[H])C([H])([H])[H])C(C([H])([H])[H])(C([H])([H])[H])C([H])([H])[H])C([H])([H])c2c([H])c(OC([H])([H])C3(OC([H])([H])[H])C([H])([H])N(C(c4c([H])c([H])c(N([H])C(=O)N5C([H])([H])C([H])([H])C([H])([H])C([H])(n6nc(-c7c([H])c([H])c(Oc8c([H])c([H])c(F)c([H])c8F)c([H])c7[H])c(C(=O)N([H])[H])c6N([H])[H])C5([H])[H])c([H])c4F)=[N+]([H])[H])C([H])([H])C3([H])[H])c([H])c([H])c2C1([H])[H]

>  <smiles>  (59) 
[H]c1c([H])c([H])c2c(c1[H])C([H])([H])C([H])([H])C([H])([H])C2([H])N([H])C(=O)C1([H])N(C(=O)C([H])(N([H])C(=O)C([H])(N([H])C([H])([H])[H])C([H])([H])[H])C(C([H])([H])[H])(C([H])([H])[H])C([H])([H])[H])C([H])([H])c2c([H])c(OC([H])([H])C3(OC([H])([H])[H])C([H])([H])N(C(c4c([H])c([H])c(N([H])C(=O)N5C([H])([H])C([H])([H])C([H])([H])C([H])(n6nc(-c7c([H])c([H])c(Oc8c([H])c([H])c(F)c([H])c8F)c([H])c7[H])c(C(=O)N([H])[H])c6N([H])[H])C5([H])[H])c([H])c4F)=[N+]([H])[H])C([H])([H])C3([H])[H])c([H])c([H])c2C1([H])[H]

$$$$
59:0:0
     RDKit          3D

 93102  0  0  1  0  0  0  0  0999 V2000
  -30.4880  -22.0620   20.9530 C   0  0  0  0  0  2  0  0  0  0  0  0
  -28.2250  -21.3300   20.2820 C   0  0  0  0  0  2  0  0  0  0  0  0
  -30.2250  -23.5000   20.3890 C   0  0  0  0  0  2  0  0  0  0  0  0
  -27.9630  -22.7440   19.6500 C   0  0  0  0  0  2  0  0  0  0  0  0
  -29.7130  -20.9100   20.2360 C   0  0  0  0  0  3  0  0  0  0  0  0
  -28.7340  -23.9420   20.2900 C   0  0  1  0  0  0  0  0  0  0  0  0
  -29.5180  -18.2360   20.3530 C   0  0  0  0  0  3  0  0  0  0  0  0
  -31.2060  -17.4610   21.7850 C   0  0  0  0  0  3  0  0  0  0  0  0
  -30.1990  -17.0900   20.9340 C   0  0  0  0  0  0  0  0  0  0  0  0
  -30.0460  -19.4720   20.7250 C   0  0  0  0  0  0  0  0  0  0  0  0
  -31.3350  -19.2010   21.8900 S   0  0  0  0  0  0  0  0  0  0  0  0
  -30.5990  -14.6190   20.4510 C   0  0  0  0  0  0  0  0  0  0  0  0
  -30.3440  -12.4140   19.3400 C   0  0  0  0  0  2  0  0  0  0  0  0
  -29.3960  -12.5660   18.1320 C   0  0  0  0  0  2  0  0  0  0  0  0
  -27.9240  -12.4150   18.5620 C   0  0  0  0  0  2  0  0  0  0  0  0
  -27.5760  -13.2660   19.8130 C   0  0  0  0  0  3  0  0  0  0  0  0
  -28.6360  -13.1000   20.9240 C   0  0  0  0  0  2  0  0  0  0  0  0
  -29.9460  -13.4230   20.3380 N   0  0  0  0  0  0  0  0  0  0  0  0
  -31.7740  -14.7480   20.0960 O   0  0  0  0  0  0  0  0  0  0  0  0
  -29.8180  -15.7040   20.7320 N   0  0  0  0  0  0  0  0  0  0  0  0
  -28.8300  -15.5070   20.7790 H   0  0  0  0  0  0  0  0  0  0  0  0
  -25.1840  -13.8700   20.5320 C   0  0  0  0  0  0  0  0  0  0  0  0
  -24.1160  -13.0970   20.9020 C   0  0  0  0  0  0  0  0  0  0  0  0
  -24.5780  -11.7460   20.8740 C   0  0  0  0  0  0  0  0  0  0  0  0
  -26.2270  -12.9870   20.3000 N   0  0  0  0  0  0  0  0  0  0  0  0
  -25.8690  -11.7050   20.5650 N   0  0  0  0  0  0  0  0  0  0  0  0
  -23.8500  -10.4840   21.0640 C   0  0  0  0  0  0  0  0  0  0  0  0
  -24.2900   -9.5120   21.9900 C   0  0  0  0  0  3  0  0  0  0  0  0
  -23.5630   -8.3150   22.1700 C   0  0  0  0  0  3  0  0  0  0  0  0
  -22.3830   -8.0830   21.4250 C   0  0  0  0  0  0  0  0  0  0  0  0
  -21.9640   -9.0440   20.4890 C   0  0  0  0  0  3  0  0  0  0  0  0
  -22.6920  -10.2320   20.3060 C   0  0  0  0  0  3  0  0  0  0  0  0
  -21.6250   -6.9400   21.5150 O   0  0  0  0  0  0  0  0  0  0  0  0
  -21.5960   -6.1850   22.6600 C   0  0  0  0  0  0  0  0  0  0  0  0
  -21.2020   -6.7300   23.9020 C   0  0  0  0  0  3  0  0  0  0  0  0
  -21.1200   -5.9020   25.0390 C   0  0  0  0  0  3  0  0  0  0  0  0
  -21.4160   -4.5300   24.9340 C   0  0  0  0  0  0  0  0  0  0  0  0
  -21.8010   -3.9850   23.6970 C   0  0  0  0  0  3  0  0  0  0  0  0
  -21.8870   -4.8090   22.5620 C   0  0  0  0  0  0  0  0  0  0  0  0
  -22.2390   -4.2750   21.3680 F   0  0  0  0  0  0  0  0  0  0  0  0
  -21.3290   -3.7320   26.0250 F   0  0  0  0  0  0  0  0  0  0  0  0
  -22.7200  -13.5760   21.1730 C   0  0  0  0  0  0  0  0  0  0  0  0
  -21.9900  -12.8800   22.0350 N   0  0  0  0  0  0  0  0  0  0  0  0
  -22.2840  -14.6030   20.6520 O   0  0  0  0  0  0  0  0  0  0  0  0
  -22.3560  -12.0490   22.4760 H   0  0  0  0  0  0  0  0  0  0  0  0
  -21.0520  -13.1800   22.2590 H   0  0  0  0  0  0  0  0  0  0  0  0
  -25.3490  -15.2400   20.3520 N   0  0  0  0  0  0  0  0  0  0  0  0
  -24.5840  -15.8940   20.4670 H   0  0  0  0  0  0  0  0  0  0  0  0
  -26.1900  -15.6790   20.0020 H   0  0  0  0  0  0  0  0  0  0  0  0
  -28.1970  -24.1010   21.5890 O   0  0  0  0  0  0  0  0  0  0  0  0
  -28.2840  -23.2650   22.0340 H   0  0  0  0  0  0  0  0  0  0  0  0
  -28.5130  -25.3040   19.4800 C   0  0  0  0  0  2  0  0  0  0  0  0
  -28.4000  -26.5950   20.1800 O   0  0  0  0  0  0  0  0  0  0  0  0
  -24.6040  -31.8940   23.2310 C   0  0  0  0  0  0  0  0  0  0  0  0
  -27.2290  -27.3670   20.1450 C   0  0  0  0  0  0  0  0  0  0  0  0
  -23.3950  -30.4930   21.5950 C   0  0  0  0  0  3  0  0  0  0  0  0
  -24.8430  -28.9500   20.1650 C   0  0  0  0  0  0  0  0  0  0  0  0
  -25.9290  -30.8240   21.3990 C   0  0  0  0  0  2  0  0  0  0  0  0
  -26.0100  -29.4470   20.7550 C   0  0  0  0  0  0  0  0  0  0  0  0
  -27.2000  -28.6650   20.7410 C   0  0  0  0  0  3  0  0  0  0  0  0
  -26.0250  -26.9090   19.5550 C   0  0  0  0  0  3  0  0  0  0  0  0
  -24.8510  -27.6860   19.5600 C   0  0  0  0  0  3  0  0  0  0  0  0
  -23.6060  -29.8210   20.2130 C   0  0  0  0  0  2  0  0  0  0  0  0
  -24.6620  -31.0860   22.1340 N   0  0  0  0  0  0  0  0  0  0  0  0
  -23.5230  -32.1700   23.7700 O   0  0  0  0  0  0  0  0  0  0  0  0
  -22.7390  -29.4750   22.5570 C   0  0  0  0  0  0  0  0  0  0  0  0
  -21.4120  -29.2960   22.4350 N   0  0  0  0  0  0  0  0  0  0  0  0
  -23.4220  -28.8500   23.3730 O   0  0  0  0  0  0  0  0  0  0  0  0
  -20.9200  -29.8500   21.7490 H   0  0  0  0  0  0  0  0  0  0  0  0
  -18.0410  -28.0980   22.9490 C   0  0  0  0  0  0  0  0  0  0  0  0
  -20.5990  -28.3600   23.2120 C   0  0  0  0  0  3  0  0  0  0  0  0
  -20.7020  -26.9270   22.6400 C   0  0  0  0  0  2  0  0  0  0  0  0
  -19.5970  -26.6010   21.6300 C   0  0  0  0  0  2  0  0  0  0  0  0
  -18.2160  -26.7470   22.2750 C   0  0  0  0  0  2  0  0  0  0  0  0
  -19.1600  -28.8610   23.3740 C   0  0  0  0  0  0  0  0  0  0  0  0
  -18.9390  -30.1260   23.9640 C   0  0  0  0  0  3  0  0  0  0  0  0
  -17.6350  -30.6250   24.1330 C   0  0  0  0  0  3  0  0  0  0  0  0
  -16.5310  -29.8580   23.7230 C   0  0  0  0  0  3  0  0  0  0  0  0
  -16.7340  -28.5970   23.1360 C   0  0  0  0  0  3  0  0  0  0  0  0
  -25.8890  -32.5290   23.8470 C   0  0  0  0  0  3  0  0  0  0  0  0
  -26.4190  -31.7550   25.1170 C   0  0  1  0  0  0  0  0  0  0  0  0
  -25.3350  -31.5070   26.1910 C   0  0  0  0  0  1  0  0  0  0  0  0
  -27.0010  -30.3800   24.7160 C   0  0  0  0  0  1  0  0  0  0  0  0
  -27.5760  -32.5460   25.7690 C   0  0  0  0  0  1  0  0  0  0  0  0
  -25.5790  -33.9260   24.1840 N   0  0  0  0  0  0  0  0  0  0  0  0
  -25.8990  -34.9820   23.4250 C   0  0  0  0  0  0  0  0  0  0  0  0
  -26.5610  -34.8840   22.3870 O   0  0  0  0  0  0  0  0  0  0  0  0
  -24.9970  -34.0760   24.9950 H   0  0  0  0  0  0  0  0  0  0  0  0
  -24.1640  -36.7700   23.0860 C   0  0  0  0  0  1  0  0  0  0  0  0
  -25.4110  -36.3660   23.8890 C   0  0  0  0  0  3  0  0  0  0  0  0
  -27.5480  -37.2550   24.7090 C   0  0  0  0  0  1  0  0  0  0  0  0
  -26.4390  -37.4240   23.7750 N   0  0  0  0  0  0  0  0  0  0  0  0
  -26.0300  -38.3410   23.9330 H   0  0  0  0  0  0  0  0  0  0  0  0
  3  1  1  0
  4  2  1  0
  4  6  1  0
  5  2  1  0
  5 10  1  0
  5  1  1  0
  6 52  1  6
  6  3  1  0
  6 50  1  0
  7 10  2  0
  7  9  1  0
  8 11  1  0
  9  8  2  0
 10 11  1  0
 12 20  1  0
 13 18  1  0
 14 15  1  0
 14 13  1  0
 16 15  1  0
 16 25  1  0
 16 17  1  0
 18 12  1  0
 18 17  1  0
 19 12  2  0
 20 21  1  0
 20  9  1  0
 22 23  2  0
 23 42  1  0
 24 23  1  0
 24 27  1  0
 25 22  1  0
 25 26  1  0
 26 24  2  0
 27 28  1  0
 28 29  2  0
 30 33  1  0
 30 29  1  0
 31 30  2  0
 32 31  1  0
 32 27  2  0
 33 34  1  0
 34 35  1  0
 35 36  2  0
 37 36  1  0
 37 41  1  0
 38 37  2  0
 39 34  2  0
 39 38  1  0
 40 39  1  0
 42 43  1  0
 43 46  1  0
 43 45  1  0
 44 42  2  0
 47 48  1  0
 47 22  1  0
 49 47  1  0
 50 51  1  0
 52 53  1  0
 54 65  2  0
 55 53  1  0
 55 60  1  0
 56 64  1  0
 56 66  1  0
 57 63  1  0
 57 59  1  0
 58 64  1  0
 59 58  1  0
 60 59  2  0
 61 62  1  0
 61 55  2  0
 62 57  2  0
 63 56  1  0
 64 54  1  0
 66 68  2  0
 67 66  1  0
 69 67  1  0
 70 79  2  0
 70 75  1  0
 71 67  1  0
 71 75  1  0
 72 71  1  0
 73 74  1  0
 73 72  1  0
 74 70  1  0
 75 76  2  0
 76 77  1  0
 78 77  2  0
 79 78  1  0
 80 54  1  0
 80 85  1  0
 80 81  1  0
 81 84  1  1
 81 82  1  0
 83 81  1  0
 85 88  1  0
 86 90  1  0
 86 85  1  0
 87 86  2  0
 90 89  1  0
 92 90  1  0
 92 93  1  0
 92 91  1  0
M  ISO  4  12 100  20 100  52 101  53 101
M  END
>  <TORSDO>  (60) 
F 19

>  <SCORE>  (60) 
-14.689

>  <name>  (60) 
59

>  <ligand_id>  (60) 
59

>  <original_smiles>  (60) 
[H]OC1(C([H])([H])Oc2c([H])c([H])c3c(c2[H])C([H])([H])N(C(=O)C([H])(N([H])C(=O)C([H])(N([H])C([H])([H])[H])C([H])([H])[H])C(C([H])([H])[H])(C([H])([H])[H])C([H])([H])[H])C([H])(C(=O)N([H])C2([H])c4c([H])c([H])c([H])c([H])c4C([H])([H])C([H])([H])C2([H])[H])C3([H])[H])C([H])([H])C([H])([H])C([H])(c2sc([H])c(N([H])C(=O)N3C([H])([H])C([H])([H])C([H])([H])C([H])(n4nc(-c5c([H])c([H])c(Oc6c([H])c([H])c(F)c([H])c6F)c([H])c5[H])c(C(=O)N([H])[H])c4N([H])[H])C3([H])[H])c2[H])C([H])([H])C1([H])[H]

>  <smiles>  (60) 
[H]OC1(C([H])([H])Oc2c([H])c([H])c3c(c2[H])C([H])([H])N(C(=O)C([H])(N([H])C(=O)C([H])(N([H])C([H])([H])[H])C([H])([H])[H])C(C([H])([H])[H])(C([H])([H])[H])C([H])([H])[H])C([H])(C(=O)N([H])C2([H])c4c([H])c([H])c([H])c([H])c4C([H])([H])C([H])([H])C2([H])[H])C3([H])[H])C([H])([H])C([H])([H])C([H])(c2sc([H])c(N([H])C(=O)N3C([H])([H])C([H])([H])C([H])([H])C([H])(n4nc(-c5c([H])c([H])c(Oc6c([H])c([H])c(F)c([H])c6F)c([H])c5[H])c(C(=O)N([H])[H])c4N([H])[H])C3([H])[H])c2[H])C([H])([H])C1([H])[H]

$$$$
60:0:0
     RDKit          3D

 90 99  0  0  1  0  0  0  0  0999 V2000
  -31.0990  -18.1720   19.7120 C   0  0  0  0  0  3  0  0  0  0  0  0
  -30.0800  -17.4990   20.3620 C   0  0  0  0  0  0  0  0  0  0  0  0
  -29.7280  -19.8100   20.3220 C   0  0  0  0  0  0  0  0  0  0  0  0
  -28.2080  -23.5810   20.7410 C   0  0  0  0  0  0  0  0  0  0  0  0
  -27.8670  -24.9580   20.7830 C   0  0  0  0  0  3  0  0  0  0  0  0
  -27.2470  -22.5970   21.3690 C   0  0  0  0  0  2  0  0  0  0  0  0
  -29.3220  -22.5760   20.2060 C   0  0  0  0  0  2  0  0  0  0  0  0
  -27.9590  -21.2360   21.5400 C   0  0  0  0  0  2  0  0  0  0  0  0
  -30.8720  -19.5700   19.6820 N   0  0  0  0  0  0  0  0  0  0  0  0
  -29.0680  -21.1030   20.5990 N   0  0  0  0  0  0  0  0  0  0  0  0
  -29.1990  -18.5780   20.7610 O   0  0  0  0  0  0  0  0  0  0  0  0
  -30.6080  -14.9580   20.3410 C   0  0  0  0  0  0  0  0  0  0  0  0
  -30.4550  -12.6380   19.3680 C   0  0  0  0  0  2  0  0  0  0  0  0
  -29.5200  -12.6530   18.1370 C   0  0  0  0  0  2  0  0  0  0  0  0
  -28.0530  -12.4580   18.5640 C   0  0  0  0  0  2  0  0  0  0  0  0
  -27.6620  -13.3590   19.7660 C   0  0  0  0  0  3  0  0  0  0  0  0
  -28.7190  -13.3200   20.8910 C   0  0  0  0  0  2  0  0  0  0  0  0
  -30.0030  -13.7090   20.2970 N   0  0  0  0  0  0  0  0  0  0  0  0
  -31.7930  -15.0420   20.0010 O   0  0  0  0  0  0  0  0  0  0  0  0
  -29.8370  -16.1110   20.5980 N   0  0  0  0  0  0  0  0  0  0  0  0
  -28.9090  -15.8990   20.9330 H   0  0  0  0  0  0  0  0  0  0  0  0
  -25.2730  -13.9350   20.4900 C   0  0  0  0  0  0  0  0  0  0  0  0
  -24.2100  -13.1570   20.8610 C   0  0  0  0  0  0  0  0  0  0  0  0
  -24.6800  -11.8070   20.8370 C   0  0  0  0  0  0  0  0  0  0  0  0
  -26.3200  -13.0590   20.2570 N   0  0  0  0  0  0  0  0  0  0  0  0
  -25.9710  -11.7760   20.5310 N   0  0  0  0  0  0  0  0  0  0  0  0
  -23.9570  -10.5440   21.0290 C   0  0  0  0  0  0  0  0  0  0  0  0
  -24.3940   -9.5780   21.9630 C   0  0  0  0  0  3  0  0  0  0  0  0
  -23.6700   -8.3790   22.1440 C   0  0  0  0  0  3  0  0  0  0  0  0
  -22.4960   -8.1370   21.3920 C   0  0  0  0  0  0  0  0  0  0  0  0
  -22.0790   -9.0920   20.4470 C   0  0  0  0  0  3  0  0  0  0  0  0
  -22.8030  -10.2810   20.2630 C   0  0  0  0  0  3  0  0  0  0  0  0
  -21.7430   -6.9910   21.4820 O   0  0  0  0  0  0  0  0  0  0  0  0
  -21.7000   -6.2480   22.6340 C   0  0  0  0  0  0  0  0  0  0  0  0
  -21.2700   -6.7970   23.8610 C   0  0  0  0  0  3  0  0  0  0  0  0
  -21.1750   -5.9790   25.0040 C   0  0  0  0  0  3  0  0  0  0  0  0
  -21.5020   -4.6130   24.9220 C   0  0  0  0  0  0  0  0  0  0  0  0
  -21.9270   -4.0620   23.7000 C   0  0  0  0  0  3  0  0  0  0  0  0
  -22.0230   -4.8770   22.5590 C   0  0  0  0  0  0  0  0  0  0  0  0
  -22.4120   -4.3370   21.3790 F   0  0  0  0  0  0  0  0  0  0  0  0
  -21.4040   -3.8250   26.0190 F   0  0  0  0  0  0  0  0  0  0  0  0
  -22.8110  -13.6290   21.1250 C   0  0  0  0  0  0  0  0  0  0  0  0
  -22.0830  -12.9370   21.9960 N   0  0  0  0  0  0  0  0  0  0  0  0
  -22.3690  -14.6490   20.5950 O   0  0  0  0  0  0  0  0  0  0  0  0
  -22.4540  -12.1130   22.4450 H   0  0  0  0  0  0  0  0  0  0  0  0
  -21.1440  -13.2360   22.2160 H   0  0  0  0  0  0  0  0  0  0  0  0
  -25.4300  -15.3060   20.3070 N   0  0  0  0  0  0  0  0  0  0  0  0
  -24.6550  -15.9520   20.4070 H   0  0  0  0  0  0  0  0  0  0  0  0
  -26.2650  -15.7450   19.9430 H   0  0  0  0  0  0  0  0  0  0  0  0
  -28.3230  -26.2640   20.3470 O   0  0  0  0  0  0  0  0  0  0  0  0
  -24.6720  -31.9370   23.2690 C   0  0  0  0  0  0  0  0  0  0  0  0
  -27.3180  -27.2850   20.2560 C   0  0  0  0  0  0  0  0  0  0  0  0
  -23.5050  -30.5510   21.5960 C   0  0  0  0  0  3  0  0  0  0  0  0
  -24.9870  -29.0000   20.1850 C   0  0  0  0  0  0  0  0  0  0  0  0
  -26.0600  -30.8310   21.4840 C   0  0  0  0  0  2  0  0  0  0  0  0
  -26.1510  -29.4470   20.8260 C   0  0  0  0  0  0  0  0  0  0  0  0
  -27.3210  -28.6030   20.8540 C   0  0  0  0  0  3  0  0  0  0  0  0
  -26.1390  -26.9420   19.5570 C   0  0  0  0  0  3  0  0  0  0  0  0
  -24.9920  -27.7590   19.5350 C   0  0  0  0  0  3  0  0  0  0  0  0
  -23.7540  -29.8870   20.2160 C   0  0  0  0  0  2  0  0  0  0  0  0
  -24.7640  -31.1260   22.1730 N   0  0  0  0  0  0  0  0  0  0  0  0
  -23.5750  -32.2160   23.7770 O   0  0  0  0  0  0  0  0  0  0  0  0
  -22.8120  -29.5330   22.5360 C   0  0  0  0  0  0  0  0  0  0  0  0
  -21.4840  -29.3750   22.3940 N   0  0  0  0  0  0  0  0  0  0  0  0
  -23.4700  -28.8890   23.3570 O   0  0  0  0  0  0  0  0  0  0  0  0
  -21.0100  -29.9460   21.7080 H   0  0  0  0  0  0  0  0  0  0  0  0
  -18.0800  -28.2370   22.8810 C   0  0  0  0  0  0  0  0  0  0  0  0
  -20.6450  -28.4370   23.1450 C   0  0  0  0  0  3  0  0  0  0  0  0
  -20.7130  -27.0180   22.5350 C   0  0  0  0  0  2  0  0  0  0  0  0
  -19.6020  -26.7440   21.5180 C   0  0  0  0  0  2  0  0  0  0  0  0
  -18.2260  -26.9020   22.1710 C   0  0  0  0  0  2  0  0  0  0  0  0
  -19.2160  -28.9650   23.3240 C   0  0  0  0  0  0  0  0  0  0  0  0
  -19.0260  -30.2160   23.9510 C   0  0  0  0  0  3  0  0  0  0  0  0
  -17.7310  -30.7380   24.1370 C   0  0  0  0  0  3  0  0  0  0  0  0
  -16.6110  -30.0070   23.7080 C   0  0  0  0  0  3  0  0  0  0  0  0
  -16.7860  -28.7580   23.0870 C   0  0  0  0  0  3  0  0  0  0  0  0
  -25.9390  -32.5670   23.9240 C   0  0  0  0  0  3  0  0  0  0  0  0
  -25.6230  -33.9680   24.2470 N   0  0  0  0  0  0  0  0  0  0  0  0
  -25.9390  -35.0180   23.4790 C   0  0  0  0  0  0  0  0  0  0  0  0
  -26.5920  -34.9120   22.4380 O   0  0  0  0  0  0  0  0  0  0  0  0
  -25.0400  -34.1230   25.0560 H   0  0  0  0  0  0  0  0  0  0  0  0
  -24.1810  -36.7900   23.1630 C   0  0  0  0  0  1  0  0  0  0  0  0
  -25.4530  -36.4080   23.9360 C   0  0  0  0  0  3  0  0  0  0  0  0
  -27.6040  -37.3280   24.6860 C   0  0  0  0  0  1  0  0  0  0  0  0
  -26.4700  -37.4690   23.7750 N   0  0  0  0  0  0  0  0  0  0  0  0
  -26.0580  -38.3870   23.9210 H   0  0  0  0  0  0  0  0  0  0  0  0
  -26.4160  -31.7970   25.2160 C   0  0  1  0  0  0  0  0  0  0  0  0
  -25.2950  -31.5680   26.2550 C   0  0  0  0  0  1  0  0  0  0  0  0
  -27.0040  -30.4150   24.8480 C   0  0  0  0  0  1  0  0  0  0  0  0
  -27.5530  -32.5880   25.9060 C   0  0  0  0  0  1  0  0  0  0  0  0
  1  2  2  0
  2 20  1  0
  2 11  1  0
  3 10  1  0
  3 11  1  0
  4  5  2  0
  4  6  1  0
  6  8  1  0
  7 10  1  0
  7  4  1  0
  9  1  1  0
  9  3  2  0
 10  8  1  0
 12 20  1  0
 13 18  1  0
 14 15  1  0
 14 13  1  0
 16 15  1  0
 16 25  1  0
 16 17  1  0
 18 12  1  0
 18 17  1  0
 19 12  2  0
 20 21  1  0
 22 23  2  0
 23 42  1  0
 24 23  1  0
 24 27  1  0
 25 22  1  0
 25 26  1  0
 26 24  2  0
 27 28  1  0
 28 29  2  0
 30 33  1  0
 30 29  1  0
 31 30  2  0
 32 31  1  0
 32 27  2  0
 33 34  1  0
 34 35  1  0
 35 36  2  0
 37 36  1  0
 37 41  1  0
 38 37  2  0
 39 34  2  0
 39 38  1  0
 40 39  1  0
 42 43  1  0
 43 46  1  0
 43 45  1  0
 44 42  2  0
 47 48  1  0
 47 22  1  0
 49 47  1  0
 50  5  1  0
 51 62  2  0
 52 50  1  0
 52 57  1  0
 53 61  1  0
 53 63  1  0
 54 60  1  0
 54 56  1  0
 55 61  1  0
 56 57  2  0
 56 55  1  0
 58 52  2  0
 59 58  1  0
 59 54  2  0
 60 53  1  0
 61 51  1  0
 63 65  2  0
 64 63  1  0
 66 64  1  0
 67 76  2  0
 67 72  1  0
 68 64  1  0
 68 72  1  0
 69 68  1  0
 70 71  1  0
 70 69  1  0
 71 67  1  0
 72 73  2  0
 73 74  1  0
 75 74  2  0
 76 75  1  0
 77 51  1  0
 77 78  1  0
 77 87  1  0
 78 81  1  0
 79 83  1  0
 79 78  1  0
 80 79  2  0
 83 82  1  0
 85 86  1  0
 85 83  1  0
 85 84  1  0
 87 90  1  1
 87 88  1  0
 89 87  1  0
M  ISO  4   5 101  12 100  20 100  50 101
M  END
>  <TORSDO>  (61) 
F 16

>  <SCORE>  (61) 
-15.234

>  <name>  (61) 
60

>  <ligand_id>  (61) 
60

>  <original_smiles>  (61) 
[H]C(Oc1c([H])c([H])c2c(c1[H])C([H])([H])N(C(=O)C([H])(N([H])C(=O)C([H])(N([H])C([H])([H])[H])C([H])([H])[H])C(C([H])([H])[H])(C([H])([H])[H])C([H])([H])[H])C([H])(C(=O)N([H])C1([H])c3c([H])c([H])c([H])c([H])c3C([H])([H])C([H])([H])C1([H])[H])C2([H])[H])=C1C([H])([H])N(c2nc([H])c(N([H])C(=O)N3C([H])([H])C([H])([H])C([H])([H])C([H])(n4nc(-c5c([H])c([H])c(Oc6c([H])c([H])c(F)c([H])c6F)c([H])c5[H])c(C(=O)N([H])[H])c4N([H])[H])C3([H])[H])o2)C([H])([H])C1([H])[H]

>  <smiles>  (61) 
[H]C(Oc1c([H])c([H])c2c(c1[H])C([H])([H])N(C(=O)C([H])(N([H])C(=O)C([H])(N([H])C([H])([H])[H])C([H])([H])[H])C(C([H])([H])[H])(C([H])([H])[H])C([H])([H])[H])C([H])(C(=O)N([H])C1([H])c3c([H])c([H])c([H])c([H])c3C([H])([H])C([H])([H])C1([H])[H])C2([H])[H])=C1C([H])([H])N(c2nc([H])c(N([H])C(=O)N3C([H])([H])C([H])([H])C([H])([H])C([H])(n4nc(-c5c([H])c([H])c(Oc6c([H])c([H])c(F)c([H])c6F)c([H])c5[H])c(C(=O)N([H])[H])c4N([H])[H])C3([H])[H])o2)C([H])([H])C1([H])[H]

$$$$
61:0:0
     RDKit          3D

 96105  0  0  1  0  0  0  0  0999 V2000
  -30.5200  -23.8630   20.4880 C   0  0  0  0  0  2  0  0  0  0  0  0
  -28.0800  -23.3620   20.5870 C   0  0  0  0  0  2  0  0  0  0  0  0
  -30.8000  -22.6050   21.3610 C   0  0  0  0  0  2  0  0  0  0  0  0
  -28.3870  -22.1400   21.4770 C   0  0  0  0  0  2  0  0  0  0  0  0
  -29.1180  -24.4940   20.6950 C   0  0  1  0  0  0  0  0  0  0  0  0
  -29.7380  -21.5570   21.2470 N   0  0  2  0  0  4  0  0  0  0  0  0
  -29.7690  -21.1910   20.3080 H   0  0  0  0  0  0  0  0  0  0  0  0
  -29.0880  -25.0890   21.9930 O   0  0  0  0  0  0  0  0  0  0  0  0
  -29.3560  -24.4660   22.6540 H   0  0  0  0  0  0  0  0  0  0  0  0
  -29.9540  -20.3550   22.1180 C   0  0  0  0  0  2  0  0  0  0  0  0
  -32.3100  -17.1950   20.4470 C   0  0  0  0  0  3  0  0  0  0  0  0
  -30.2050  -17.8760   21.3840 C   0  0  0  0  0  3  0  0  0  0  0  0
  -32.7330  -18.5290   20.5340 C   0  0  0  0  0  3  0  0  0  0  0  0
  -31.0010  -16.8320   20.8400 C   0  0  0  0  0  0  0  0  0  0  0  0
  -30.7210  -19.1990   21.4610 C   0  0  0  0  0  0  0  0  0  0  0  0
  -31.9570  -19.5140   21.0230 N   0  0  0  0  0  0  0  0  0  0  0  0
  -30.9880  -14.4500   20.0090 C   0  0  0  0  0  0  0  0  0  0  0  0
  -30.5690  -12.2600   18.9410 C   0  0  0  0  0  2  0  0  0  0  0  0
  -29.5820  -12.4160   17.7680 C   0  0  0  0  0  2  0  0  0  0  0  0
  -28.1360  -12.2800   18.2700 C   0  0  0  0  0  2  0  0  0  0  0  0
  -27.8470  -13.1690   19.5070 C   0  0  0  0  0  3  0  0  0  0  0  0
  -28.9550  -13.0330   20.5810 C   0  0  0  0  0  2  0  0  0  0  0  0
  -30.2550  -13.2980   19.9430 N   0  0  0  0  0  0  0  0  0  0  0  0
  -32.0330  -14.5610   19.3650 O   0  0  0  0  0  0  0  0  0  0  0  0
  -30.4870  -15.4810   20.7350 N   0  0  0  0  0  0  0  0  0  0  0  0
  -29.5950  -15.3050   21.1700 H   0  0  0  0  0  0  0  0  0  0  0  0
  -25.5110  -13.7900   20.3850 C   0  0  0  0  0  0  0  0  0  0  0  0
  -24.4500  -13.0210   20.7840 C   0  0  0  0  0  0  0  0  0  0  0  0
  -24.8790  -11.6620   20.6680 C   0  0  0  0  0  0  0  0  0  0  0  0
  -26.5210  -12.8970   20.0560 N   0  0  0  0  0  0  0  0  0  0  0  0
  -26.1470  -11.6110   20.2840 N   0  0  0  0  0  0  0  0  0  0  0  0
  -24.1380  -10.4080   20.8480 C   0  0  0  0  0  0  0  0  0  0  0  0
  -24.5470   -9.4350   21.7870 C   0  0  0  0  0  3  0  0  0  0  0  0
  -23.8080   -8.2450   21.9550 C   0  0  0  0  0  3  0  0  0  0  0  0
  -22.6430   -8.0190   21.1840 C   0  0  0  0  0  0  0  0  0  0  0  0
  -22.2520   -8.9780   20.2340 C   0  0  0  0  0  3  0  0  0  0  0  0
  -22.9930  -10.1600   20.0650 C   0  0  0  0  0  3  0  0  0  0  0  0
  -21.8750   -6.8800   21.2610 O   0  0  0  0  0  0  0  0  0  0  0  0
  -21.7480   -6.1780   22.4310 C   0  0  0  0  0  0  0  0  0  0  0  0
  -21.2120   -6.7650   23.5980 C   0  0  0  0  0  3  0  0  0  0  0  0
  -21.0320   -5.9890   24.7590 C   0  0  0  0  0  3  0  0  0  0  0  0
  -21.3770   -4.6230   24.7530 C   0  0  0  0  0  0  0  0  0  0  0  0
  -21.9030   -4.0340   23.5910 C   0  0  0  0  0  3  0  0  0  0  0  0
  -22.0850   -4.8100   22.4310 C   0  0  0  0  0  0  0  0  0  0  0  0
  -22.5730   -4.2330   21.3080 F   0  0  0  0  0  0  0  0  0  0  0  0
  -21.1960   -3.8740   25.8660 F   0  0  0  0  0  0  0  0  0  0  0  0
  -23.0830  -13.5130   21.1630 C   0  0  0  0  0  0  0  0  0  0  0  0
  -22.3910  -12.7870   22.0350 N   0  0  0  0  0  0  0  0  0  0  0  0
  -22.6370  -14.5700   20.7220 O   0  0  0  0  0  0  0  0  0  0  0  0
  -22.7630  -11.9260   22.4060 H   0  0  0  0  0  0  0  0  0  0  0  0
  -21.4750  -13.0930   22.3300 H   0  0  0  0  0  0  0  0  0  0  0  0
  -25.7000  -15.1620   20.2550 N   0  0  0  0  0  0  0  0  0  0  0  0
  -24.9670  -15.8390   20.4340 H   0  0  0  0  0  0  0  0  0  0  0  0
  -26.5410  -15.5850   19.8840 H   0  0  0  0  0  0  0  0  0  0  0  0
  -28.7970  -25.6150   19.6420 C   0  0  0  0  0  2  0  0  0  0  0  0
  -28.4920  -26.8930   20.2180 O   0  0  0  0  0  0  0  0  0  0  0  0
  -24.6090  -31.9290   23.2780 C   0  0  0  0  0  0  0  0  0  0  0  0
  -27.2470  -27.4930   20.1980 C   0  0  0  0  0  0  0  0  0  0  0  0
  -23.3770  -30.5190   21.6550 C   0  0  0  0  0  3  0  0  0  0  0  0
  -24.8190  -28.9620   20.2260 C   0  0  0  0  0  0  0  0  0  0  0  0
  -25.8880  -30.8940   21.4050 C   0  0  0  0  0  2  0  0  0  0  0  0
  -25.9730  -29.5100   20.7930 C   0  0  0  0  0  0  0  0  0  0  0  0
  -27.1800  -28.7800   20.7790 C   0  0  0  0  0  3  0  0  0  0  0  0
  -26.0710  -26.9470   19.6310 C   0  0  0  0  0  3  0  0  0  0  0  0
  -24.8620  -27.6790   19.6460 C   0  0  0  0  0  3  0  0  0  0  0  0
  -23.5640  -29.8100   20.2830 C   0  0  0  0  0  2  0  0  0  0  0  0
  -24.6470  -31.1280   22.1750 N   0  0  0  0  0  0  0  0  0  0  0  0
  -23.5360  -32.2060   23.8320 O   0  0  0  0  0  0  0  0  0  0  0  0
  -22.7350  -29.5110   22.6340 C   0  0  0  0  0  0  0  0  0  0  0  0
  -21.4140  -29.3140   22.5030 N   0  0  0  0  0  0  0  0  0  0  0  0
  -23.4210  -28.9040   23.4600 O   0  0  0  0  0  0  0  0  0  0  0  0
  -20.9240  -29.8550   21.8050 H   0  0  0  0  0  0  0  0  0  0  0  0
  -18.0560  -28.0660   22.9620 C   0  0  0  0  0  0  0  0  0  0  0  0
  -20.6030  -28.3750   23.2750 C   0  0  0  0  0  3  0  0  0  0  0  0
  -20.7440  -26.9370   22.7250 C   0  0  0  0  0  2  0  0  0  0  0  0
  -19.6640  -26.5740   21.7020 C   0  0  0  0  0  2  0  0  0  0  0  0
  -18.2680  -26.7060   22.3170 C   0  0  0  0  0  2  0  0  0  0  0  0
  -19.1530  -28.8570   23.3950 C   0  0  0  0  0  0  0  0  0  0  0  0
  -18.9030  -30.1290   23.9530 C   0  0  0  0  0  3  0  0  0  0  0  0
  -17.5870  -30.6100   24.0840 C   0  0  0  0  0  3  0  0  0  0  0  0
  -16.5030  -29.8160   23.6700 C   0  0  0  0  0  3  0  0  0  0  0  0
  -16.7390  -28.5460   23.1140 C   0  0  0  0  0  3  0  0  0  0  0  0
  -25.9040  -32.5570   23.8850 C   0  0  0  0  0  3  0  0  0  0  0  0
  -26.4440  -31.7720   25.1430 C   0  0  1  0  0  0  0  0  0  0  0  0
  -25.3700  -31.5080   26.2250 C   0  0  0  0  0  1  0  0  0  0  0  0
  -27.0350  -30.4100   24.7070 C   0  0  0  0  0  1  0  0  0  0  0  0
  -27.5960  -32.5660   25.8030 C   0  0  0  0  0  1  0  0  0  0  0  0
  -25.6010  -33.9520   24.2320 N   0  0  0  0  0  0  0  0  0  0  0  0
  -25.9370  -35.0090   23.4820 C   0  0  0  0  0  0  0  0  0  0  0  0
  -26.6020  -34.9120   22.4460 O   0  0  0  0  0  0  0  0  0  0  0  0
  -25.0190  -34.1010   25.0430 H   0  0  0  0  0  0  0  0  0  0  0  0
  -24.2220  -36.8120   23.1340 C   0  0  0  0  0  1  0  0  0  0  0  0
  -25.4560  -36.3950   23.9510 C   0  0  0  0  0  3  0  0  0  0  0  0
  -27.5850  -37.2570   24.8140 C   0  0  0  0  0  1  0  0  0  0  0  0
  -26.4960  -37.4420   23.8580 N   0  0  0  0  0  0  0  0  0  0  0  0
  -26.0950  -38.3640   24.0100 H   0  0  0  0  0  0  0  0  0  0  0  0
  1  5  1  0
  1  3  1  0
  2  5  1  0
  2  4  1  0
  5 55  1  6
  5  8  1  0
  6  3  1  0
  6  4  1  0
  6 10  1  0
  6  7  1  6
  8  9  1  0
 11 13  2  0
 11 14  1  0
 12 15  1  0
 13 16  1  0
 14 12  2  0
 15 10  1  0
 16 15  2  0
 17 25  1  0
 18 23  1  0
 19 20  1  0
 19 18  1  0
 21 20  1  0
 21 30  1  0
 21 22  1  0
 23 17  1  0
 23 22  1  0
 24 17  2  0
 25 14  1  0
 25 26  1  0
 27 28  2  0
 28 47  1  0
 29 28  1  0
 29 32  1  0
 30 31  1  0
 30 27  1  0
 31 29  2  0
 32 33  1  0
 33 34  2  0
 35 38  1  0
 35 34  1  0
 36 35  2  0
 37 36  1  0
 37 32  2  0
 38 39  1  0
 39 40  1  0
 40 41  2  0
 42 41  1  0
 42 46  1  0
 43 42  2  0
 44 39  2  0
 44 43  1  0
 45 44  1  0
 47 48  1  0
 48 51  1  0
 48 50  1  0
 49 47  2  0
 52 27  1  0
 52 53  1  0
 54 52  1  0
 55 56  1  0
 57 68  2  0
 58 56  1  0
 58 63  1  0
 59 67  1  0
 59 69  1  0
 60 66  1  0
 60 62  1  0
 61 67  1  0
 62 61  1  0
 63 62  2  0
 64 65  1  0
 64 58  2  0
 65 60  2  0
 66 59  1  0
 67 57  1  0
 69 71  2  0
 70 69  1  0
 72 70  1  0
 73 82  2  0
 73 78  1  0
 74 70  1  0
 74 78  1  0
 75 74  1  0
 76 77  1  0
 76 75  1  0
 77 73  1  0
 78 79  2  0
 79 80  1  0
 81 80  2  0
 82 81  1  0
 83 57  1  0
 83 88  1  0
 83 84  1  0
 84 87  1  1
 84 85  1  0
 86 84  1  0
 88 91  1  0
 89 93  1  0
 89 88  1  0
 90 89  2  0
 93 92  1  0
 95 93  1  0
 95 96  1  0
 95 94  1  0
M  ISO  4  17 100  25 100  55 101  56 101
M  END
>  <TORSDO>  (62) 
F 20

>  <SCORE>  (62) 
-13.769

>  <name>  (62) 
61

>  <ligand_id>  (62) 
61

>  <original_smiles>  (62) 
[H]OC1(C([H])([H])Oc2c([H])c([H])c3c(c2[H])C([H])([H])N(C(=O)C([H])(N([H])C(=O)C([H])(N([H])C([H])([H])[H])C([H])([H])[H])C(C([H])([H])[H])(C([H])([H])[H])C([H])([H])[H])C([H])(C(=O)N([H])C2([H])c4c([H])c([H])c([H])c([H])c4C([H])([H])C([H])([H])C2([H])[H])C3([H])[H])C([H])([H])C([H])([H])[N+]([H])(C([H])([H])c2nc([H])c([H])c(N([H])C(=O)N3C([H])([H])C([H])([H])C([H])([H])C([H])(n4nc(-c5c([H])c([H])c(Oc6c([H])c([H])c(F)c([H])c6F)c([H])c5[H])c(C(=O)N([H])[H])c4N([H])[H])C3([H])[H])c2[H])C([H])([H])C1([H])[H]

>  <smiles>  (62) 
[H]OC1(C([H])([H])Oc2c([H])c([H])c3c(c2[H])C([H])([H])N(C(=O)C([H])(N([H])C(=O)C([H])(N([H])C([H])([H])[H])C([H])([H])[H])C(C([H])([H])[H])(C([H])([H])[H])C([H])([H])[H])C([H])(C(=O)N([H])C2([H])c4c([H])c([H])c([H])c([H])c4C([H])([H])C([H])([H])C2([H])[H])C3([H])[H])C([H])([H])C([H])([H])[N+]([H])(C([H])([H])c2nc([H])c([H])c(N([H])C(=O)N3C([H])([H])C([H])([H])C([H])([H])C([H])(n4nc(-c5c([H])c([H])c(Oc6c([H])c([H])c(F)c([H])c6F)c([H])c5[H])c(C(=O)N([H])[H])c4N([H])[H])C3([H])[H])c2[H])C([H])([H])C1([H])[H]

$$$$
62:0:0
     RDKit          3D

 98107  0  0  1  0  0  0  0  0999 V2000
  -30.8800  -19.6940   19.9980 C   0  0  0  0  0  3  0  0  0  0  0  0
  -31.3080  -21.0510   19.9240 C   0  0  0  0  0  3  0  0  0  0  0  0
  -31.6910  -20.7560   17.5720 C   0  0  0  0  0  3  0  0  0  0  0  0
  -31.2510  -19.3920   17.6300 C   0  0  0  0  0  0  0  0  0  0  0  0
  -30.8110  -18.8300   18.8680 C   0  0  0  0  0  0  0  0  0  0  0  0
  -31.7020  -21.6320   18.6940 C   0  0  0  0  0  0  0  0  0  0  0  0
  -30.6860  -18.5200   14.0000 C   0  0  0  0  0  2  0  0  0  0  0  0
  -30.1180  -18.9730   15.3430 C   0  0  0  0  0  2  0  0  0  0  0  0
  -32.1930  -18.7630   14.1490 C   0  0  0  0  0  2  0  0  0  0  0  0
  -31.2230  -18.5760   16.3330 C   0  0  0  0  0  3  0  0  0  0  0  0
  -32.4950  -18.6660   15.5910 N   0  0  0  0  0  4  0  0  0  0  0  0
  -33.0060  -19.4830   15.8810 H   0  0  0  0  0  0  0  0  0  0  0  0
  -33.0690  -17.8590   15.7790 H   0  0  0  0  0  0  0  0  0  0  0  0
  -31.9220  -24.1860   19.2160 C   0  0  0  0  0  0  0  0  0  0  0  0
  -32.0990  -23.0280   18.4970 N   0  0  0  0  0  0  0  0  0  0  0  0
  -31.3570  -24.2160   20.3110 O   0  0  0  0  0  0  0  0  0  0  0  0
  -32.5790  -23.1970   17.6240 H   0  0  0  0  0  0  0  0  0  0  0  0
  -32.4820  -25.5190   18.5800 C   0  0  0  0  0  2  0  0  0  0  0  0
  -32.3980  -26.7600   19.3830 O   0  0  0  0  0  0  0  0  0  0  0  0
  -34.4060  -33.3630   17.3000 C   0  0  0  0  0  0  0  0  0  0  0  0
  -33.4240  -27.6780   19.1520 C   0  0  0  0  0  0  0  0  0  0  0  0
  -36.1430  -31.6070   17.2640 C   0  0  0  0  0  3  0  0  0  0  0  0
  -35.5650  -29.4400   18.4920 C   0  0  0  0  0  0  0  0  0  0  0  0
  -34.2070  -31.4850   18.9420 C   0  0  0  0  0  2  0  0  0  0  0  0
  -34.3350  -29.9680   18.9050 C   0  0  0  0  0  0  0  0  0  0  0  0
  -33.2650  -29.0920   19.2510 C   0  0  0  0  0  3  0  0  0  0  0  0
  -34.6920  -27.1860   18.7750 C   0  0  0  0  0  3  0  0  0  0  0  0
  -35.7490  -28.0490   18.4360 C   0  0  0  0  0  3  0  0  0  0  0  0
  -36.6600  -30.4190   18.1160 C   0  0  0  0  0  2  0  0  0  0  0  0
  -34.8730  -32.1870   17.8110 N   0  0  0  0  0  0  0  0  0  0  0  0
  -35.0270  -33.9730   16.4180 O   0  0  0  0  0  0  0  0  0  0  0  0
  -36.0230  -31.1530   15.7890 C   0  0  0  0  0  0  0  0  0  0  0  0
  -37.1310  -31.2530   15.0360 N   0  0  0  0  0  0  0  0  0  0  0  0
  -34.9620  -30.7000   15.3540 O   0  0  0  0  0  0  0  0  0  0  0  0
  -37.9600  -31.6430   15.4620 H   0  0  0  0  0  0  0  0  0  0  0  0
  -39.3600  -31.2580   12.1860 C   0  0  0  0  0  0  0  0  0  0  0  0
  -37.2580  -30.8470   13.6350 C   0  0  0  0  0  3  0  0  0  0  0  0
  -37.5990  -29.3430   13.5200 C   0  0  0  0  0  2  0  0  0  0  0  0
  -39.1040  -29.0710   13.4330 C   0  0  0  0  0  2  0  0  0  0  0  0
  -39.7100  -29.7800   12.2180 C   0  0  0  0  0  2  0  0  0  0  0  0
  -38.2170  -31.7600   12.8640 C   0  0  0  0  0  0  0  0  0  0  0  0
  -37.9570  -33.1480   12.8300 C   0  0  0  0  0  3  0  0  0  0  0  0
  -38.8110  -34.0240   12.1340 C   0  0  0  0  0  3  0  0  0  0  0  0
  -39.9310  -33.5190   11.4520 C   0  0  0  0  0  3  0  0  0  0  0  0
  -40.2020  -32.1390   11.4760 C   0  0  0  0  0  3  0  0  0  0  0  0
  -33.0820  -34.0080   17.8140 C   0  0  0  0  0  3  0  0  0  0  0  0
  -31.9330  -34.0140   16.7330 C   0  0  1  0  0  0  0  0  0  0  0  0
  -32.1070  -35.1000   15.6450 C   0  0  0  0  0  1  0  0  0  0  0  0
  -31.8460  -32.6440   16.0200 C   0  0  0  0  0  1  0  0  0  0  0  0
  -30.5660  -34.2420   17.4200 C   0  0  0  0  0  1  0  0  0  0  0  0
  -33.3930  -35.3780   18.2450 N   0  0  0  0  0  0  0  0  0  0  0  0
  -33.7940  -35.7150   19.4780 C   0  0  0  0  0  0  0  0  0  0  0  0
  -33.8750  -34.9010   20.4020 O   0  0  0  0  0  0  0  0  0  0  0  0
  -33.4000  -36.0870   17.5270 H   0  0  0  0  0  0  0  0  0  0  0  0
  -35.6840  -37.3710   19.5810 C   0  0  0  0  0  1  0  0  0  0  0  0
  -34.1650  -37.1900   19.7260 C   0  0  0  0  0  3  0  0  0  0  0  0
  -32.2830  -37.8950   21.1370 C   0  0  0  0  0  1  0  0  0  0  0  0
  -33.7270  -37.6930   21.0460 N   0  0  0  0  0  0  0  0  0  0  0  0
  -34.1850  -38.5740   21.2660 H   0  0  0  0  0  0  0  0  0  0  0  0
  -30.0560  -17.4540   19.0300 C   0  0  0  0  0  2  0  0  0  0  0  0
  -30.3080  -15.0170   19.6200 C   0  0  0  0  0  0  0  0  0  0  0  0
  -31.2860  -13.0010   20.6770 C   0  0  0  0  0  2  0  0  0  0  0  0
  -32.7230  -13.3110   21.1420 C   0  0  0  0  0  2  0  0  0  0  0  0
  -33.7240  -13.0500   20.0010 C   0  0  0  0  0  2  0  0  0  0  0  0
  -33.2850  -13.6930   18.6580 C   0  0  0  0  0  3  0  0  0  0  0  0
  -31.7990  -13.4100   18.3440 C   0  0  0  0  0  2  0  0  0  0  0  0
  -31.0140  -13.8520   19.5020 N   0  0  0  0  0  0  0  0  0  0  0  0
  -29.4940  -15.1690   20.5320 O   0  0  0  0  0  0  0  0  0  0  0  0
  -30.6730  -16.0940   18.8530 N   0  0  0  0  0  0  0  0  0  0  0  0
  -31.4360  -15.9790   18.2090 H   0  0  0  0  0  0  0  0  0  0  0  0
  -34.7470  -14.0880   16.5860 C   0  0  0  0  0  0  0  0  0  0  0  0
  -35.5380  -13.2480   15.8480 C   0  0  0  0  0  0  0  0  0  0  0  0
  -35.3850  -11.9510   16.4260 C   0  0  0  0  0  0  0  0  0  0  0  0
  -34.1620  -13.2960   17.5600 N   0  0  0  0  0  0  0  0  0  0  0  0
  -34.5040  -11.9900   17.4170 N   0  0  0  0  0  0  0  0  0  0  0  0
  -36.0710  -10.6850   16.1300 C   0  0  0  0  0  0  0  0  0  0  0  0
  -35.4710   -9.6920   15.3250 C   0  0  0  0  0  3  0  0  0  0  0  0
  -36.1580   -8.4920   15.0390 C   0  0  0  0  0  3  0  0  0  0  0  0
  -37.4590   -8.2780   15.5540 C   0  0  0  0  0  0  0  0  0  0  0  0
  -38.0420   -9.2610   16.3730 C   0  0  0  0  0  3  0  0  0  0  0  0
  -37.3540  -10.4520   16.6620 C   0  0  0  0  0  3  0  0  0  0  0  0
  -38.1910   -7.1340   15.3490 O   0  0  0  0  0  0  0  0  0  0  0  0
  -38.2300   -6.5140   14.1250 C   0  0  0  0  0  0  0  0  0  0  0  0
  -38.9980   -7.0250   13.0560 C   0  0  0  0  0  3  0  0  0  0  0  0
  -39.0650   -6.3190   11.8380 C   0  0  0  0  0  3  0  0  0  0  0  0
  -38.3760   -5.1010   11.6910 C   0  0  0  0  0  0  0  0  0  0  0  0
  -37.6170   -4.5880   12.7560 C   0  0  0  0  0  3  0  0  0  0  0  0
  -37.5470   -5.2910   13.9720 C   0  0  0  0  0  0  0  0  0  0  0  0
  -36.8310   -4.7810   15.0030 F   0  0  0  0  0  0  0  0  0  0  0  0
  -38.4470   -4.4180   10.5230 F   0  0  0  0  0  0  0  0  0  0  0  0
  -36.4640  -13.6440   14.7340 C   0  0  0  0  0  0  0  0  0  0  0  0
  -36.3950  -12.9510   13.6040 N   0  0  0  0  0  0  0  0  0  0  0  0
  -37.2220  -14.6060   14.8490 O   0  0  0  0  0  0  0  0  0  0  0  0
  -35.7590  -12.1740   13.5060 H   0  0  0  0  0  0  0  0  0  0  0  0
  -36.9870  -13.2010   12.8250 H   0  0  0  0  0  0  0  0  0  0  0  0
  -34.4950  -15.4580   16.5290 N   0  0  0  0  0  0  0  0  0  0  0  0
  -35.1170  -16.0260   15.9620 H   0  0  0  0  0  0  0  0  0  0  0  0
  -34.1790  -15.9460   17.3570 H   0  0  0  0  0  0  0  0  0  0  0  0
  2  1  1  0
  3  4  2  0
  3  6  1  0
  4  5  1  0
  5 60  1  0
  5  1  2  0
  6  2  2  0
  7  9  1  0
  7  8  1  0
  8 10  1  0
  9 11  1  0
 10  4  1  0
 11 13  1  0
 11 12  1  0
 11 10  1  0
 14 16  2  0
 15  6  1  0
 15 14  1  0
 17 15  1  0
 18 14  1  0
 18 19  1  0
 20 30  1  0
 21 26  1  0
 21 19  1  0
 22 32  1  0
 22 30  1  0
 22 29  1  0
 23 25  1  0
 25 24  1  0
 25 26  2  0
 27 21  2  0
 28 23  2  0
 28 27  1  0
 29 23  1  0
 30 24  1  0
 31 20  2  0
 33 35  1  0
 33 32  1  0
 34 32  2  0
 36 40  1  0
 36 41  1  0
 37 33  1  0
 38 37  1  0
 39 38  1  0
 40 39  1  0
 41 37  1  0
 42 41  2  0
 43 42  1  0
 44 45  1  0
 44 43  2  0
 45 36  2  0
 46 20  1  0
 46 51  1  0
 47 50  1  1
 47 46  1  0
 48 47  1  0
 49 47  1  0
 51 52  1  0
 52 56  1  0
 52 53  2  0
 54 51  1  0
 56 55  1  0
 56 58  1  0
 58 57  1  0
 58 59  1  0
 61 68  2  0
 62 63  1  0
 64 63  1  0
 65 74  1  0
 65 64  1  0
 66 65  1  0
 66 67  1  0
 67 61  1  0
 67 62  1  0
 69 60  1  0
 69 61  1  0
 70 69  1  0
 71 74  1  0
 72 73  1  0
 72 71  2  0
 73 75  2  0
 75 74  1  0
 76 73  1  0
 76 81  1  0
 77 76  2  0
 78 77  1  0
 78 79  2  0
 79 80  1  0
 80 81  2  0
 82 79  1  0
 83 82  1  0
 84 83  2  0
 85 84  1  0
 86 85  2  0
 86 87  1  0
 87 88  2  0
 88 83  1  0
 88 89  1  0
 90 86  1  0
 91 93  2  0
 91 72  1  0
 92 91  1  0
 94 92  1  0
 95 92  1  0
 96 71  1  0
 96 98  1  0
 97 96  1  0
M  ISO  4  18 101  19 101  61 100  69 100
M  END
>  <TORSDO>  (63) 
F 20

>  <SCORE>  (63) 
-4.476

>  <name>  (63) 
62

>  <ligand_id>  (63) 
62

>  <original_smiles>  (63) 
[H]c1c([H])c([H])c2c(c1[H])C([H])([H])C([H])([H])C([H])([H])C2([H])N([H])C(=O)C1([H])N(C(=O)C([H])(N([H])C(=O)C([H])(N([H])C([H])([H])[H])C([H])([H])[H])C(C([H])([H])[H])(C([H])([H])[H])C([H])([H])[H])C([H])([H])c2c([H])c(OC([H])([H])C(=O)N([H])c3c([H])c([H])c(C([H])([H])N([H])C(=O)N4C([H])([H])C([H])([H])C([H])([H])C([H])(n5nc(-c6c([H])c([H])c(Oc7c([H])c([H])c(F)c([H])c7F)c([H])c6[H])c(C(=O)N([H])[H])c5N([H])[H])C4([H])[H])c(C4([H])C([H])([H])C([H])([H])C([H])([H])[N+]4([H])[H])c3[H])c([H])c([H])c2C1([H])[H]

>  <smiles>  (63) 
[H]c1c([H])c([H])c2c(c1[H])C([H])([H])C([H])([H])C([H])([H])C2([H])N([H])C(=O)C1([H])N(C(=O)C([H])(N([H])C(=O)C([H])(N([H])C([H])([H])[H])C([H])([H])[H])C(C([H])([H])[H])(C([H])([H])[H])C([H])([H])[H])C([H])([H])c2c([H])c(OC([H])([H])C(=O)N([H])c3c([H])c([H])c(C([H])([H])N([H])C(=O)N4C([H])([H])C([H])([H])C([H])([H])C([H])(n5nc(-c6c([H])c([H])c(Oc7c([H])c([H])c(F)c([H])c7F)c([H])c6[H])c(C(=O)N([H])[H])c5N([H])[H])C4([H])[H])c(C4([H])C([H])([H])C([H])([H])C([H])([H])[N+]4([H])[H])c3[H])c([H])c([H])c2C1([H])[H]

$$$$
63:0:0
     RDKit          3D

 95104  0  0  1  0  0  0  0  0999 V2000
  -30.6910  -19.9510   23.7130 C   0  0  0  0  0  2  0  0  0  0  0  0
  -31.5300  -21.1190   23.2300 C   0  0  0  0  0  2  0  0  0  0  0  0
  -30.5000  -19.0680   22.4940 C   0  0  0  0  0  2  0  0  0  0  0  0
  -30.6850  -21.9630   22.2760 C   0  0  0  0  0  2  0  0  0  0  0  0
  -29.7940  -19.7280   21.2710 C   0  0  0  0  0  3  0  0  0  0  0  0
  -30.0810  -21.2750   21.0810 N   0  0  1  0  0  4  0  0  0  0  0  0
  -30.7860  -21.2890   20.3560 H   0  0  0  0  0  0  0  0  0  0  0  0
  -30.5680  -18.7910   17.8200 C   0  0  0  0  0  3  0  0  0  0  0  0
  -30.1320  -18.7560   20.0700 C   0  0  0  0  0  0  0  0  0  0  0  0
  -30.3760  -17.3360   19.8610 C   0  0  0  0  0  0  0  0  0  0  0  0
  -30.2880  -19.5100   18.8970 N   0  0  0  0  0  0  0  0  0  0  0  0
  -30.6970  -17.0880   18.1380 S   0  0  0  0  0  0  0  0  0  0  0  0
  -31.0030  -14.9240   20.2990 C   0  0  0  0  0  0  0  0  0  0  0  0
  -30.7110  -12.6530   19.2800 C   0  0  0  0  0  2  0  0  0  0  0  0
  -29.7970  -12.7690   18.0400 C   0  0  0  0  0  2  0  0  0  0  0  0
  -28.3130  -12.6330   18.4340 C   0  0  0  0  0  2  0  0  0  0  0  0
  -27.9580  -13.4880   19.6780 C   0  0  0  0  0  3  0  0  0  0  0  0
  -29.0080  -13.3960   20.8070 C   0  0  0  0  0  2  0  0  0  0  0  0
  -30.3200  -13.7230   20.2370 N   0  0  0  0  0  0  0  0  0  0  0  0
  -32.1790  -14.9510   19.9260 O   0  0  0  0  0  0  0  0  0  0  0  0
  -30.3510  -16.1310   20.6130 N   0  0  0  0  0  0  0  0  0  0  0  0
  -29.5710  -16.0360   21.2500 H   0  0  0  0  0  0  0  0  0  0  0  0
  -25.5750  -14.1070   20.3800 C   0  0  0  0  0  0  0  0  0  0  0  0
  -24.4980  -13.3530   20.7560 C   0  0  0  0  0  0  0  0  0  0  0  0
  -24.9450  -11.9950   20.7460 C   0  0  0  0  0  0  0  0  0  0  0  0
  -26.6090  -13.2140   20.1650 N   0  0  0  0  0  0  0  0  0  0  0  0
  -26.2370  -11.9380   20.4480 N   0  0  0  0  0  0  0  0  0  0  0  0
  -24.1980  -10.7470   20.9500 C   0  0  0  0  0  0  0  0  0  0  0  0
  -24.6010   -9.8000   21.9160 C   0  0  0  0  0  3  0  0  0  0  0  0
  -23.8620   -8.6120   22.1100 C   0  0  0  0  0  3  0  0  0  0  0  0
  -22.7010   -8.3670   21.3370 C   0  0  0  0  0  0  0  0  0  0  0  0
  -22.3160   -9.3040   20.3610 C   0  0  0  0  0  3  0  0  0  0  0  0
  -23.0570  -10.4830   20.1670 C   0  0  0  0  0  3  0  0  0  0  0  0
  -21.9290   -7.2350   21.4380 O   0  0  0  0  0  0  0  0  0  0  0  0
  -21.8330   -6.5310   22.6100 C   0  0  0  0  0  0  0  0  0  0  0  0
  -21.3660   -7.1290   23.8010 C   0  0  0  0  0  3  0  0  0  0  0  0
  -21.2150   -6.3530   24.9680 C   0  0  0  0  0  3  0  0  0  0  0  0
  -21.5170   -4.9780   24.9410 C   0  0  0  0  0  0  0  0  0  0  0  0
  -21.9740   -4.3780   23.7540 C   0  0  0  0  0  3  0  0  0  0  0  0
  -22.1280   -5.1540   22.5920 C   0  0  0  0  0  0  0  0  0  0  0  0
  -22.5470   -4.5670   21.4460 F   0  0  0  0  0  0  0  0  0  0  0  0
  -21.3690   -4.2280   26.0590 F   0  0  0  0  0  0  0  0  0  0  0  0
  -23.1070  -13.8500   21.0080 C   0  0  0  0  0  0  0  0  0  0  0  0
  -22.3650  -13.1870   21.8900 N   0  0  0  0  0  0  0  0  0  0  0  0
  -22.6880  -14.8700   20.4600 O   0  0  0  0  0  0  0  0  0  0  0  0
  -22.7170  -12.3680   22.3610 H   0  0  0  0  0  0  0  0  0  0  0  0
  -21.4280  -13.5070   22.0900 H   0  0  0  0  0  0  0  0  0  0  0  0
  -25.7580  -15.4710   20.1820 N   0  0  0  0  0  0  0  0  0  0  0  0
  -24.9980  -16.1390   20.2560 H   0  0  0  0  0  0  0  0  0  0  0  0
  -26.6190  -15.8900   19.8490 H   0  0  0  0  0  0  0  0  0  0  0  0
  -28.9420  -22.2120   20.5680 C   0  0  0  0  0  2  0  0  0  0  0  0
  -29.2610  -23.7940   20.3410 C   0  0  0  0  0  0  0  0  0  0  0  0
  -30.4150  -24.1500   20.0840 O   0  0  0  0  0  0  0  0  0  0  0  0
  -28.1000  -24.9110   20.3550 C   0  0  0  0  0  2  0  0  0  0  0  0
  -28.4470  -26.3900   20.2460 O   0  0  0  0  0  0  0  0  0  0  0  0
  -24.6720  -31.8750   23.2220 C   0  0  0  0  0  0  0  0  0  0  0  0
  -27.3660  -27.3080   20.1740 C   0  0  0  0  0  0  0  0  0  0  0  0
  -23.5080  -30.4680   21.5670 C   0  0  0  0  0  3  0  0  0  0  0  0
  -24.9960  -28.9480   20.1400 C   0  0  0  0  0  0  0  0  0  0  0  0
  -26.0540  -30.8030   21.4230 C   0  0  0  0  0  2  0  0  0  0  0  0
  -26.1580  -29.4310   20.7550 C   0  0  0  0  0  0  0  0  0  0  0  0
  -27.3470  -28.6250   20.7590 C   0  0  0  0  0  3  0  0  0  0  0  0
  -26.1820  -26.9170   19.5100 C   0  0  0  0  0  3  0  0  0  0  0  0
  -25.0150  -27.7010   19.5040 C   0  0  0  0  0  3  0  0  0  0  0  0
  -23.7470  -29.8050   20.1860 C   0  0  0  0  0  2  0  0  0  0  0  0
  -24.7640  -31.0670   22.1230 N   0  0  0  0  0  0  0  0  0  0  0  0
  -23.5790  -32.1330   23.7480 O   0  0  0  0  0  0  0  0  0  0  0  0
  -22.8500  -29.4360   22.5160 C   0  0  0  0  0  0  0  0  0  0  0  0
  -21.5290  -29.2330   22.3730 N   0  0  0  0  0  0  0  0  0  0  0  0
  -23.5300  -28.8200   23.3410 O   0  0  0  0  0  0  0  0  0  0  0  0
  -21.0390  -29.7680   21.6690 H   0  0  0  0  0  0  0  0  0  0  0  0
  -18.1670  -27.9810   22.8410 C   0  0  0  0  0  0  0  0  0  0  0  0
  -20.7180  -28.2810   23.1350 C   0  0  0  0  0  3  0  0  0  0  0  0
  -20.8520  -26.8540   22.5520 C   0  0  0  0  0  2  0  0  0  0  0  0
  -19.7630  -26.5200   21.5280 C   0  0  0  0  0  2  0  0  0  0  0  0
  -18.3720  -26.6390   22.1580 C   0  0  0  0  0  2  0  0  0  0  0  0
  -19.2680  -28.7580   23.2850 C   0  0  0  0  0  0  0  0  0  0  0  0
  -19.0220  -30.0150   23.8800 C   0  0  0  0  0  3  0  0  0  0  0  0
  -17.7070  -30.4920   24.0400 C   0  0  0  0  0  3  0  0  0  0  0  0
  -16.6200  -29.7100   23.6140 C   0  0  0  0  0  3  0  0  0  0  0  0
  -16.8500  -28.4580   23.0160 C   0  0  0  0  0  3  0  0  0  0  0  0
  -25.9400  -32.5210   23.8580 C   0  0  0  0  0  3  0  0  0  0  0  0
  -26.4440  -31.7610   25.1460 C   0  0  1  0  0  0  0  0  0  0  0  0
  -25.3330  -31.5170   26.1950 C   0  0  0  0  0  1  0  0  0  0  0  0
  -27.0530  -30.3880   24.7790 C   0  0  0  0  0  1  0  0  0  0  0  0
  -27.5710  -32.5750   25.8210 C   0  0  0  0  0  1  0  0  0  0  0  0
  -25.6070  -33.9180   24.1810 N   0  0  0  0  0  0  0  0  0  0  0  0
  -25.9330  -34.9740   23.4250 C   0  0  0  0  0  0  0  0  0  0  0  0
  -26.6130  -34.8780   22.3990 O   0  0  0  0  0  0  0  0  0  0  0  0
  -25.0000  -34.0650   24.9730 H   0  0  0  0  0  0  0  0  0  0  0  0
  -24.1840  -36.7440   23.0560 C   0  0  0  0  0  1  0  0  0  0  0  0
  -25.4250  -36.3580   23.8770 C   0  0  0  0  0  3  0  0  0  0  0  0
  -27.5410  -37.2740   24.7180 C   0  0  0  0  0  1  0  0  0  0  0  0
  -26.4430  -37.4240   23.7670 N   0  0  0  0  0  0  0  0  0  0  0  0
  -26.0240  -38.3390   23.9060 H   0  0  0  0  0  0  0  0  0  0  0  0
  2  1  1  0
  3  1  1  0
  4  2  1  0
  5  9  1  0
  5  3  1  0
  6  5  1  0
  6  4  1  0
  6  7  1  6
  8 12  1  0
  8 11  2  0
 10  9  2  0
 10 21  1  0
 11  9  1  0
 12 10  1  0
 13 21  1  0
 14 19  1  0
 15 16  1  0
 15 14  1  0
 17 16  1  0
 17 26  1  0
 17 18  1  0
 19 13  1  0
 19 18  1  0
 20 13  2  0
 21 22  1  0
 23 24  2  0
 24 43  1  0
 25 24  1  0
 25 28  1  0
 26 23  1  0
 26 27  1  0
 27 25  2  0
 28 29  1  0
 29 30  2  0
 31 34  1  0
 31 30  1  0
 32 31  2  0
 33 32  1  0
 33 28  2  0
 34 35  1  0
 35 36  1  0
 36 37  2  0
 38 37  1  0
 38 42  1  0
 39 38  2  0
 40 35  2  0
 40 39  1  0
 41 40  1  0
 43 44  1  0
 44 47  1  0
 44 46  1  0
 45 43  2  0
 48 49  1  0
 48 23  1  0
 50 48  1  0
 51  6  1  0
 52 54  1  0
 52 51  1  0
 53 52  2  0
 55 54  1  0
 56 67  2  0
 57 55  1  0
 57 62  1  0
 58 66  1  0
 58 68  1  0
 59 65  1  0
 59 61  1  0
 60 66  1  0
 61 62  2  0
 61 60  1  0
 63 57  2  0
 64 63  1  0
 64 59  2  0
 65 58  1  0
 66 56  1  0
 68 70  2  0
 69 68  1  0
 71 69  1  0
 72 81  2  0
 72 77  1  0
 73 69  1  0
 73 77  1  0
 74 73  1  0
 75 76  1  0
 75 74  1  0
 76 72  1  0
 77 78  2  0
 78 79  1  0
 80 79  2  0
 81 80  1  0
 82 56  1  0
 82 87  1  0
 82 83  1  0
 83 86  1  1
 83 84  1  0
 85 83  1  0
 87 90  1  0
 88 92  1  0
 88 87  1  0
 89 88  2  0
 92 91  1  0
 94 92  1  0
 94 95  1  0
 94 93  1  0
M  ISO  4  13 100  21 100  54 101  55 101
M  END
>  <TORSDO>  (64) 
F 20

>  <SCORE>  (64) 
-13.266

>  <name>  (64) 
63

>  <ligand_id>  (64) 
63

>  <original_smiles>  (64) 
[H]c1nc(C2([H])C([H])([H])C([H])([H])C([H])([H])C([H])([H])[N+]2([H])C([H])([H])C(=O)C([H])([H])Oc2c([H])c([H])c3c(c2[H])C([H])([H])N(C(=O)C([H])(N([H])C(=O)C([H])(N([H])C([H])([H])[H])C([H])([H])[H])C(C([H])([H])[H])(C([H])([H])[H])C([H])([H])[H])C([H])(C(=O)N([H])C2([H])c4c([H])c([H])c([H])c([H])c4C([H])([H])C([H])([H])C2([H])[H])C3([H])[H])c(N([H])C(=O)N2C([H])([H])C([H])([H])C([H])([H])C([H])(n3nc(-c4c([H])c([H])c(Oc5c([H])c([H])c(F)c([H])c5F)c([H])c4[H])c(C(=O)N([H])[H])c3N([H])[H])C2([H])[H])s1

>  <smiles>  (64) 
[H]c1nc(C2([H])C([H])([H])C([H])([H])C([H])([H])C([H])([H])[N+]2([H])C([H])([H])C(=O)C([H])([H])Oc2c([H])c([H])c3c(c2[H])C([H])([H])N(C(=O)C([H])(N([H])C(=O)C([H])(N([H])C([H])([H])[H])C([H])([H])[H])C(C([H])([H])[H])(C([H])([H])[H])C([H])([H])[H])C([H])(C(=O)N([H])C2([H])c4c([H])c([H])c([H])c([H])c4C([H])([H])C([H])([H])C2([H])[H])C3([H])[H])c(N([H])C(=O)N2C([H])([H])C([H])([H])C([H])([H])C([H])(n3nc(-c4c([H])c([H])c(Oc5c([H])c([H])c(F)c([H])c5F)c([H])c4[H])c(C(=O)N([H])[H])c3N([H])[H])C2([H])[H])s1

$$$$
64:0:0
     RDKit          3D

 94102  0  0  1  0  0  0  0  0999 V2000
  -28.6960  -23.3600   20.6340 C   0  0  0  0  0  0  0  0  0  0  0  0
  -29.2850  -22.2270   21.1300 N   0  0  0  0  0  0  0  0  0  0  0  0
  -28.1440  -23.3930   19.5330 O   0  0  0  0  0  0  0  0  0  0  0  0
  -29.8880  -22.4240   21.9170 H   0  0  0  0  0  0  0  0  0  0  0  0
  -28.6410  -18.7400   19.9370 C   0  0  0  0  0  3  0  0  0  0  0  0
  -28.3590  -20.1590   20.0110 C   0  0  0  0  0  3  0  0  0  0  0  0
  -29.7530  -18.3390   20.6450 C   0  0  0  0  0  0  0  0  0  0  0  0
  -29.2460  -20.8930   20.7730 C   0  0  0  0  0  0  0  0  0  0  0  0
  -30.4560  -19.7740   21.4050 S   0  0  0  0  0  0  0  0  0  0  0  0
  -30.6780  -14.6520   20.2720 C   0  0  0  0  0  0  0  0  0  0  0  0
  -30.3510  -12.4450   19.1820 C   0  0  0  0  0  2  0  0  0  0  0  0
  -29.3930  -12.5820   17.9830 C   0  0  0  0  0  2  0  0  0  0  0  0
  -27.9320  -12.4260   18.4440 C   0  0  0  0  0  2  0  0  0  0  0  0
  -27.5980  -13.2900   19.6910 C   0  0  0  0  0  3  0  0  0  0  0  0
  -28.6810  -13.1640   20.7850 C   0  0  0  0  0  2  0  0  0  0  0  0
  -29.9710  -13.4840   20.1620 N   0  0  0  0  0  0  0  0  0  0  0  0
  -31.8580  -14.6770   19.9120 O   0  0  0  0  0  0  0  0  0  0  0  0
  -30.5480  -17.0450   20.7720 C   0  0  0  0  0  0  0  0  0  0  0  0
  -29.9920  -15.8110   20.5460 N   0  0  0  0  0  0  0  0  0  0  0  0
  -31.7320  -17.1670   21.1130 O   0  0  0  0  0  0  0  0  0  0  0  0
  -28.9880  -15.7640   20.5290 H   0  0  0  0  0  0  0  0  0  0  0  0
  -25.2200  -13.8700   20.4640 C   0  0  0  0  0  0  0  0  0  0  0  0
  -24.1650  -13.0890   20.8480 C   0  0  0  0  0  0  0  0  0  0  0  0
  -24.6330  -11.7390   20.8020 C   0  0  0  0  0  0  0  0  0  0  0  0
  -26.2640  -12.9970   20.2060 N   0  0  0  0  0  0  0  0  0  0  0  0
  -25.9180  -11.7100   20.4720 N   0  0  0  0  0  0  0  0  0  0  0  0
  -23.9160  -10.4730   20.9970 C   0  0  0  0  0  0  0  0  0  0  0  0
  -24.3490   -9.5160   21.9420 C   0  0  0  0  0  3  0  0  0  0  0  0
  -23.6310   -8.3150   22.1240 C   0  0  0  0  0  3  0  0  0  0  0  0
  -22.4670   -8.0600   21.3610 C   0  0  0  0  0  0  0  0  0  0  0  0
  -22.0550   -9.0050   20.4050 C   0  0  0  0  0  3  0  0  0  0  0  0
  -22.7720  -10.1980   20.2210 C   0  0  0  0  0  3  0  0  0  0  0  0
  -21.7220   -6.9090   21.4530 O   0  0  0  0  0  0  0  0  0  0  0  0
  -21.6450   -6.1920   22.6190 C   0  0  0  0  0  0  0  0  0  0  0  0
  -21.1450   -6.7590   23.8110 C   0  0  0  0  0  3  0  0  0  0  0  0
  -21.0180   -5.9650   24.9690 C   0  0  0  0  0  3  0  0  0  0  0  0
  -21.3840   -4.6070   24.9370 C   0  0  0  0  0  0  0  0  0  0  0  0
  -21.8770   -4.0390   23.7480 C   0  0  0  0  0  3  0  0  0  0  0  0
  -22.0050   -4.8290   22.5920 C   0  0  0  0  0  0  0  0  0  0  0  0
  -22.4610   -4.2720   21.4450 F   0  0  0  0  0  0  0  0  0  0  0  0
  -21.2550   -3.8420   26.0460 F   0  0  0  0  0  0  0  0  0  0  0  0
  -22.7700  -13.5570   21.1430 C   0  0  0  0  0  0  0  0  0  0  0  0
  -22.0580  -12.8520   22.0150 N   0  0  0  0  0  0  0  0  0  0  0  0
  -22.3200  -14.5840   20.6360 O   0  0  0  0  0  0  0  0  0  0  0  0
  -22.4340  -12.0220   22.4480 H   0  0  0  0  0  0  0  0  0  0  0  0
  -21.1220  -13.1480   22.2550 H   0  0  0  0  0  0  0  0  0  0  0  0
  -25.3750  -15.2420   20.2900 N   0  0  0  0  0  0  0  0  0  0  0  0
  -24.6050  -15.8910   20.4140 H   0  0  0  0  0  0  0  0  0  0  0  0
  -26.2060  -15.6830   19.9180 H   0  0  0  0  0  0  0  0  0  0  0  0
  -28.6460  -25.8520   21.3340 C   0  0  0  0  0  3  0  0  0  0  0  0
  -28.8030  -24.5090   21.5790 C   0  0  0  0  0  0  0  0  0  0  0  0
  -29.0360  -24.1940   22.8650 O   0  0  0  0  0  0  0  0  0  0  0  0
  -28.7900  -23.2830   22.9780 H   0  0  0  0  0  0  0  0  0  0  0  0
  -28.4020  -26.5560   20.1660 O   0  0  0  0  0  0  0  0  0  0  0  0
  -24.6050  -31.8790   23.2200 C   0  0  0  0  0  0  0  0  0  0  0  0
  -27.3050  -27.4080   20.1700 C   0  0  0  0  0  0  0  0  0  0  0  0
  -23.4340  -30.4760   21.5570 C   0  0  0  0  0  3  0  0  0  0  0  0
  -24.9200  -28.9510   20.1430 C   0  0  0  0  0  0  0  0  0  0  0  0
  -25.9660  -30.8370   21.4020 C   0  0  0  0  0  2  0  0  0  0  0  0
  -26.0710  -29.4630   20.7570 C   0  0  0  0  0  0  0  0  0  0  0  0
  -27.2720  -28.6980   20.7730 C   0  0  0  0  0  3  0  0  0  0  0  0
  -26.1420  -26.9350   19.5370 C   0  0  0  0  0  3  0  0  0  0  0  0
  -24.9530  -27.6900   19.5250 C   0  0  0  0  0  3  0  0  0  0  0  0
  -23.6720  -29.8070   20.1760 C   0  0  0  0  0  2  0  0  0  0  0  0
  -24.6860  -31.0800   22.1180 N   0  0  0  0  0  0  0  0  0  0  0  0
  -23.5150  -32.1420   23.7460 O   0  0  0  0  0  0  0  0  0  0  0  0
  -22.7740  -29.4480   22.5040 C   0  0  0  0  0  0  0  0  0  0  0  0
  -21.4480  -29.2690   22.3710 N   0  0  0  0  0  0  0  0  0  0  0  0
  -23.4510  -28.8140   23.3180 O   0  0  0  0  0  0  0  0  0  0  0  0
  -20.9620  -29.8300   21.6870 H   0  0  0  0  0  0  0  0  0  0  0  0
  -18.0670  -28.0890   22.8700 C   0  0  0  0  0  0  0  0  0  0  0  0
  -20.6280  -28.3240   23.1300 C   0  0  0  0  0  3  0  0  0  0  0  0
  -20.7170  -26.9030   22.5290 C   0  0  0  0  0  2  0  0  0  0  0  0
  -19.6060  -26.6070   21.5160 C   0  0  0  0  0  2  0  0  0  0  0  0
  -18.2300  -26.7510   22.1710 C   0  0  0  0  0  2  0  0  0  0  0  0
  -19.1940  -28.8350   23.3080 C   0  0  0  0  0  0  0  0  0  0  0  0
  -18.9880  -30.0880   23.9230 C   0  0  0  0  0  3  0  0  0  0  0  0
  -17.6880  -30.5960   24.1070 C   0  0  0  0  0  3  0  0  0  0  0  0
  -16.5750  -29.8470   23.6840 C   0  0  0  0  0  3  0  0  0  0  0  0
  -16.7670  -28.5950   23.0720 C   0  0  0  0  0  3  0  0  0  0  0  0
  -25.8770  -32.5190   23.8590 C   0  0  0  0  0  3  0  0  0  0  0  0
  -26.3830  -31.7490   25.1410 C   0  0  1  0  0  0  0  0  0  0  0  0
  -25.2780  -31.5020   26.1930 C   0  0  0  0  0  1  0  0  0  0  0  0
  -26.9810  -30.3760   24.7550 C   0  0  0  0  0  1  0  0  0  0  0  0
  -27.5180  -32.5510   25.8210 C   0  0  0  0  0  1  0  0  0  0  0  0
  -25.5540  -33.9150   24.1860 N   0  0  0  0  0  0  0  0  0  0  0  0
  -25.8840  -34.9690   23.4280 C   0  0  0  0  0  0  0  0  0  0  0  0
  -26.5630  -34.8700   22.4030 O   0  0  0  0  0  0  0  0  0  0  0  0
  -24.9550  -34.0650   24.9840 H   0  0  0  0  0  0  0  0  0  0  0  0
  -24.1500  -36.7510   23.0530 C   0  0  0  0  0  1  0  0  0  0  0  0
  -25.3820  -36.3530   23.8810 C   0  0  0  0  0  3  0  0  0  0  0  0
  -27.4960  -37.2550   24.7470 C   0  0  0  0  0  1  0  0  0  0  0  0
  -26.4090  -37.4140   23.7830 N   0  0  0  0  0  0  0  0  0  0  0  0
  -25.9950  -38.3310   23.9230 H   0  0  0  0  0  0  0  0  0  0  0  0
  1  2  1  0
  1 51  1  0
  2  4  1  0
  3  1  2  0
  5  6  1  0
  5  7  2  0
  6  8  2  0
  7 18  1  0
  7  9  1  0
  8  2  1  0
  8  9  1  0
 10 19  1  0
 11 16  1  0
 12 13  1  0
 12 11  1  0
 14 13  1  0
 14 25  1  0
 14 15  1  0
 16 10  1  0
 16 15  1  0
 17 10  2  0
 18 20  2  0
 19 18  1  0
 21 19  1  0
 22 23  2  0
 23 42  1  0
 24 23  1  0
 24 27  1  0
 25 22  1  0
 25 26  1  0
 26 24  2  0
 27 28  1  0
 28 29  2  0
 30 33  1  0
 30 29  1  0
 31 30  2  0
 32 31  1  0
 32 27  2  0
 33 34  1  0
 34 35  1  0
 35 36  2  0
 37 36  1  0
 37 41  1  0
 38 37  2  0
 39 34  2  0
 39 38  1  0
 40 39  1  0
 42 43  1  0
 43 46  1  0
 43 45  1  0
 44 42  2  0
 47 48  1  0
 47 22  1  0
 49 47  1  0
 50 51  2  0
 51 52  1  0
 52 53  1  0
 54 56  1  0
 54 50  1  0
 55 66  2  0
 56 61  1  0
 57 65  1  0
 57 67  1  0
 58 64  1  0
 58 60  1  0
 59 65  1  0
 60 61  2  0
 60 59  1  0
 62 56  2  0
 63 62  1  0
 63 58  2  0
 64 57  1  0
 65 55  1  0
 67 69  2  0
 68 67  1  0
 70 68  1  0
 71 80  2  0
 71 76  1  0
 72 68  1  0
 72 76  1  0
 73 72  1  0
 74 75  1  0
 74 73  1  0
 75 71  1  0
 76 77  2  0
 77 78  1  0
 79 78  2  0
 80 79  1  0
 81 55  1  0
 81 86  1  0
 81 82  1  0
 82 85  1  1
 82 83  1  0
 84 82  1  0
 86 89  1  0
 87 91  1  0
 87 86  1  0
 88 87  2  0
 91 90  1  0
 93 91  1  0
 93 94  1  0
 93 92  1  0
M  ISO  4  10 100  19 100  50 101  54 101
M  END
>  <TORSDO>  (65) 
F 19

>  <SCORE>  (65) 
-14.886

>  <name>  (65) 
64

>  <ligand_id>  (65) 
64

>  <original_smiles>  (65) 
[H]OC(C(=O)N([H])c1sc(C(=O)N([H])C(=O)N2C([H])([H])C([H])([H])C([H])([H])C([H])(n3nc(-c4c([H])c([H])c(Oc5c([H])c([H])c(F)c([H])c5F)c([H])c4[H])c(C(=O)N([H])[H])c3N([H])[H])C2([H])[H])c([H])c1[H])=C([H])Oc1c([H])c([H])c2c(c1[H])C([H])([H])N(C(=O)C([H])(N([H])C(=O)C([H])(N([H])C([H])([H])[H])C([H])([H])[H])C(C([H])([H])[H])(C([H])([H])[H])C([H])([H])[H])C([H])(C(=O)N([H])C1([H])c3c([H])c([H])c([H])c([H])c3C([H])([H])C([H])([H])C1([H])[H])C2([H])[H]

>  <smiles>  (65) 
[H]OC(C(=O)N([H])c1sc(C(=O)N([H])C(=O)N2C([H])([H])C([H])([H])C([H])([H])C([H])(n3nc(-c4c([H])c([H])c(Oc5c([H])c([H])c(F)c([H])c5F)c([H])c4[H])c(C(=O)N([H])[H])c3N([H])[H])C2([H])[H])c([H])c1[H])=C([H])Oc1c([H])c([H])c2c(c1[H])C([H])([H])N(C(=O)C([H])(N([H])C(=O)C([H])(N([H])C([H])([H])[H])C([H])([H])[H])C(C([H])([H])[H])(C([H])([H])[H])C([H])([H])[H])C([H])(C(=O)N([H])C1([H])c3c([H])c([H])c([H])c([H])c3C([H])([H])C([H])([H])C1([H])[H])C2([H])[H]

$$$$
65:0:0
     RDKit          3D

 93102  0  0  1  0  0  0  0  0999 V2000
  -30.2150  -22.1440   22.9140 C   0  0  0  0  0  2  0  0  0  0  0  0
  -31.3110  -22.1180   21.8360 C   0  0  0  0  0  2  0  0  0  0  0  0
  -28.9260  -21.4400   22.4370 C   0  0  0  0  0  2  0  0  0  0  0  0
  -30.8400  -22.7210   20.4830 C   0  0  0  0  0  2  0  0  0  0  0  0
  -28.8070  -21.2990   20.8960 C   0  0  0  0  0  3  0  0  0  0  0  0
  -29.3750  -22.5640   20.2150 N   0  0  1  0  0  4  0  0  0  0  0  0
  -29.2830  -22.3950   19.2220 H   0  0  0  0  0  0  0  0  0  0  0  0
  -30.8690  -18.1970   19.7220 C   0  0  0  0  0  3  0  0  0  0  0  0
  -29.9810  -17.3200   20.3310 C   0  0  0  0  0  0  0  0  0  0  0  0
  -29.3960  -19.8910   20.4320 C   0  0  0  0  0  0  0  0  0  0  0  0
  -30.5380  -19.5900   19.7810 N   0  0  0  0  0  0  0  0  0  0  0  0
  -28.6440  -18.3320   20.9420 S   0  0  0  0  0  0  0  0  0  0  0  0
  -30.7800  -14.8950   20.0350 C   0  0  0  0  0  0  0  0  0  0  0  0
  -30.5960  -12.6540   18.9510 C   0  0  0  0  0  2  0  0  0  0  0  0
  -29.5880  -12.7520   17.7820 C   0  0  0  0  0  2  0  0  0  0  0  0
  -28.1390  -12.5690   18.2730 C   0  0  0  0  0  2  0  0  0  0  0  0
  -27.8270  -13.4190   19.5310 C   0  0  0  0  0  3  0  0  0  0  0  0
  -28.9310  -13.2560   20.5990 C   0  0  0  0  0  2  0  0  0  0  0  0
  -30.2050  -13.6470   19.9760 N   0  0  0  0  0  0  0  0  0  0  0  0
  -31.9170  -15.0820   19.5880 O   0  0  0  0  0  0  0  0  0  0  0  0
  -29.9710  -15.9240   20.4820 N   0  0  0  0  0  0  0  0  0  0  0  0
  -29.1410  -15.5710   20.9360 H   0  0  0  0  0  0  0  0  0  0  0  0
  -25.4690  -14.0150   20.3540 C   0  0  0  0  0  0  0  0  0  0  0  0
  -24.4150  -13.2390   20.7580 C   0  0  0  0  0  0  0  0  0  0  0  0
  -24.8730  -11.8870   20.6900 C   0  0  0  0  0  0  0  0  0  0  0  0
  -26.4990  -13.1330   20.0660 N   0  0  0  0  0  0  0  0  0  0  0  0
  -26.1490  -11.8490   20.3280 N   0  0  0  0  0  0  0  0  0  0  0  0
  -24.1520  -10.6230   20.8920 C   0  0  0  0  0  0  0  0  0  0  0  0
  -24.5790   -9.6720   21.8450 C   0  0  0  0  0  3  0  0  0  0  0  0
  -23.8590   -8.4730   22.0330 C   0  0  0  0  0  3  0  0  0  0  0  0
  -22.6960   -8.2170   21.2700 C   0  0  0  0  0  0  0  0  0  0  0  0
  -22.2870   -9.1560   20.3060 C   0  0  0  0  0  3  0  0  0  0  0  0
  -23.0080  -10.3460   20.1160 C   0  0  0  0  0  3  0  0  0  0  0  0
  -21.9470   -7.0690   21.3670 O   0  0  0  0  0  0  0  0  0  0  0  0
  -21.8300   -6.3840   22.5500 C   0  0  0  0  0  0  0  0  0  0  0  0
  -21.3250   -6.9950   23.7190 C   0  0  0  0  0  3  0  0  0  0  0  0
  -21.1580   -6.2350   24.8940 C   0  0  0  0  0  3  0  0  0  0  0  0
  -21.4860   -4.8670   24.9020 C   0  0  0  0  0  0  0  0  0  0  0  0
  -21.9830   -4.2550   23.7380 C   0  0  0  0  0  3  0  0  0  0  0  0
  -22.1530   -5.0120   22.5640 C   0  0  0  0  0  0  0  0  0  0  0  0
  -22.6130   -4.4130   21.4390 F   0  0  0  0  0  0  0  0  0  0  0  0
  -21.3170   -4.1350   26.0280 F   0  0  0  0  0  0  0  0  0  0  0  0
  -23.0310  -13.7170   21.0920 C   0  0  0  0  0  0  0  0  0  0  0  0
  -22.3410  -13.0170   21.9860 N   0  0  0  0  0  0  0  0  0  0  0  0
  -22.5710  -14.7440   20.5970 O   0  0  0  0  0  0  0  0  0  0  0  0
  -22.7240  -12.1840   22.4070 H   0  0  0  0  0  0  0  0  0  0  0  0
  -21.4160  -13.3210   22.2570 H   0  0  0  0  0  0  0  0  0  0  0  0
  -25.6350  -15.3860   20.1870 N   0  0  0  0  0  0  0  0  0  0  0  0
  -24.8820  -16.0480   20.3370 H   0  0  0  0  0  0  0  0  0  0  0  0
  -26.4640  -15.8140   19.7980 H   0  0  0  0  0  0  0  0  0  0  0  0
  -28.6060  -23.8910   20.5140 C   0  0  0  0  0  2  0  0  0  0  0  0
  -28.7930  -25.2040   19.5780 C   0  0  0  0  0  2  0  0  0  0  0  0
  -28.6340  -26.6030   20.1050 O   0  0  0  0  0  0  0  0  0  0  0  0
  -24.6580  -31.8390   23.1220 C   0  0  0  0  0  0  0  0  0  0  0  0
  -27.4700  -27.3990   20.0200 C   0  0  0  0  0  0  0  0  0  0  0  0
  -23.5280  -30.4380   21.4310 C   0  0  0  0  0  3  0  0  0  0  0  0
  -25.0530  -28.9600   19.9950 C   0  0  0  0  0  0  0  0  0  0  0  0
  -26.0620  -30.8290   21.3060 C   0  0  0  0  0  2  0  0  0  0  0  0
  -26.1960  -29.4680   20.6260 C   0  0  0  0  0  0  0  0  0  0  0  0
  -27.3990  -28.6960   20.6300 C   0  0  0  0  0  3  0  0  0  0  0  0
  -26.3010  -26.9480   19.3660 C   0  0  0  0  0  3  0  0  0  0  0  0
  -25.1110  -27.7080   19.3570 C   0  0  0  0  0  3  0  0  0  0  0  0
  -23.7880  -29.7960   20.0420 C   0  0  0  0  0  2  0  0  0  0  0  0
  -24.7660  -31.0560   22.0090 N   0  0  0  0  0  0  0  0  0  0  0  0
  -23.5560  -32.0740   23.6410 O   0  0  0  0  0  0  0  0  0  0  0  0
  -22.8800  -29.3840   22.3590 C   0  0  0  0  0  0  0  0  0  0  0  0
  -21.5530  -29.2080   22.2430 N   0  0  0  0  0  0  0  0  0  0  0  0
  -23.5710  -28.7260   23.1430 O   0  0  0  0  0  0  0  0  0  0  0  0
  -21.0530  -29.7930   21.5880 H   0  0  0  0  0  0  0  0  0  0  0  0
  -18.1770  -28.0210   22.7730 C   0  0  0  0  0  0  0  0  0  0  0  0
  -20.7450  -28.2360   22.9820 C   0  0  0  0  0  3  0  0  0  0  0  0
  -20.8120  -26.8400   22.3230 C   0  0  0  0  0  2  0  0  0  0  0  0
  -19.6770  -26.5890   21.3250 C   0  0  0  0  0  2  0  0  0  0  0  0
  -18.3160  -26.7100   22.0180 C   0  0  0  0  0  2  0  0  0  0  0  0
  -19.3170  -28.7460   23.2110 C   0  0  0  0  0  0  0  0  0  0  0  0
  -19.1310  -29.9750   23.8800 C   0  0  0  0  0  3  0  0  0  0  0  0
  -17.8380  -30.4800   24.1150 C   0  0  0  0  0  3  0  0  0  0  0  0
  -16.7130  -29.7500   23.6960 C   0  0  0  0  0  3  0  0  0  0  0  0
  -16.8830  -28.5230   23.0310 C   0  0  0  0  0  3  0  0  0  0  0  0
  -25.9080  -32.4990   23.7830 C   0  0  0  0  0  3  0  0  0  0  0  0
  -26.4150  -31.7280   25.0640 C   0  0  1  0  0  0  0  0  0  0  0  0
  -25.3040  -31.4440   26.1020 C   0  0  0  0  0  1  0  0  0  0  0  0
  -27.0490  -30.3730   24.6740 C   0  0  0  0  0  1  0  0  0  0  0  0
  -27.5270  -32.5480   25.7620 C   0  0  0  0  0  1  0  0  0  0  0  0
  -25.5530  -33.8850   24.1220 N   0  0  0  0  0  0  0  0  0  0  0  0
  -25.8790  -34.9570   23.3900 C   0  0  0  0  0  0  0  0  0  0  0  0
  -26.5790  -34.8870   22.3760 O   0  0  0  0  0  0  0  0  0  0  0  0
  -24.9330  -34.0120   24.9100 H   0  0  0  0  0  0  0  0  0  0  0  0
  -24.1210  -36.7160   23.0130 C   0  0  0  0  0  1  0  0  0  0  0  0
  -25.3460  -36.3260   23.8550 C   0  0  0  0  0  3  0  0  0  0  0  0
  -27.4280  -37.2450   24.7750 C   0  0  0  0  0  1  0  0  0  0  0  0
  -26.3570  -37.4050   23.7960 N   0  0  0  0  0  0  0  0  0  0  0  0
  -25.9240  -38.3120   23.9470 H   0  0  0  0  0  0  0  0  0  0  0  0
  2  1  1  0
  3  1  1  0
  4  2  1  0
  5 10  1  0
  5  3  1  0
  6  4  1  0
  6 51  1  0
  6  5  1  0
  6  7  1  6
  8 11  1  0
  8  9  2  0
  9 21  1  0
  9 12  1  0
 10 12  1  0
 11 10  2  0
 13 21  1  0
 14 19  1  0
 15 16  1  0
 15 14  1  0
 17 16  1  0
 17 26  1  0
 17 18  1  0
 19 13  1  0
 19 18  1  0
 20 13  2  0
 21 22  1  0
 23 24  2  0
 24 43  1  0
 25 24  1  0
 25 28  1  0
 26 27  1  0
 26 23  1  0
 27 25  2  0
 28 29  1  0
 29 30  2  0
 31 34  1  0
 31 30  1  0
 32 31  2  0
 33 32  1  0
 33 28  2  0
 34 35  1  0
 35 40  2  0
 35 36  1  0
 36 37  2  0
 37 38  1  0
 38 42  1  0
 39 38  2  0
 40 39  1  0
 41 40  1  0
 43 44  1  0
 44 47  1  0
 44 46  1  0
 45 43  2  0
 48 49  1  0
 48 23  1  0
 50 48  1  0
 52 53  1  0
 52 51  1  0
 54 65  2  0
 55 53  1  0
 55 60  1  0
 56 64  1  0
 56 66  1  0
 57 63  1  0
 57 59  1  0
 58 64  1  0
 59 60  2  0
 59 58  1  0
 61 55  2  0
 62 61  1  0
 62 57  2  0
 63 56  1  0
 64 54  1  0
 66 68  2  0
 67 66  1  0
 69 67  1  0
 70 79  2  0
 70 75  1  0
 71 67  1  0
 71 75  1  0
 72 71  1  0
 73 74  1  0
 73 72  1  0
 74 70  1  0
 75 76  2  0
 76 77  1  0
 78 77  2  0
 79 78  1  0
 80 54  1  0
 80 85  1  0
 80 81  1  0
 81 84  1  1
 81 82  1  0
 83 81  1  0
 85 88  1  0
 86 90  1  0
 86 85  1  0
 87 86  2  0
 90 89  1  0
 92 90  1  0
 92 93  1  0
 92 91  1  0
M  ISO  4  13 100  21 100  52 101  53 101
M  END
>  <TORSDO>  (66) 
F 19

>  <SCORE>  (66) 
-13.556

>  <name>  (66) 
65

>  <ligand_id>  (66) 
65

>  <original_smiles>  (66) 
[H]c1nc(C2([H])C([H])([H])C([H])([H])C([H])([H])C([H])([H])[N+]2([H])C([H])([H])C([H])([H])Oc2c([H])c([H])c3c(c2[H])C([H])([H])N(C(=O)C([H])(N([H])C(=O)C([H])(N([H])C([H])([H])[H])C([H])([H])[H])C(C([H])([H])[H])(C([H])([H])[H])C([H])([H])[H])C([H])(C(=O)N([H])C2([H])c4c([H])c([H])c([H])c([H])c4C([H])([H])C([H])([H])C2([H])[H])C3([H])[H])sc1N([H])C(=O)N1C([H])([H])C([H])([H])C([H])([H])C([H])(n2nc(-c3c([H])c([H])c(Oc4c([H])c([H])c(F)c([H])c4F)c([H])c3[H])c(C(=O)N([H])[H])c2N([H])[H])C1([H])[H]

>  <smiles>  (66) 
[H]c1nc(C2([H])C([H])([H])C([H])([H])C([H])([H])C([H])([H])[N+]2([H])C([H])([H])C([H])([H])Oc2c([H])c([H])c3c(c2[H])C([H])([H])N(C(=O)C([H])(N([H])C(=O)C([H])(N([H])C([H])([H])[H])C([H])([H])[H])C(C([H])([H])[H])(C([H])([H])[H])C([H])([H])[H])C([H])(C(=O)N([H])C2([H])c4c([H])c([H])c([H])c([H])c4C([H])([H])C([H])([H])C2([H])[H])C3([H])[H])sc1N([H])C(=O)N1C([H])([H])C([H])([H])C([H])([H])C([H])(n2nc(-c3c([H])c([H])c(Oc4c([H])c([H])c(F)c([H])c4F)c([H])c3[H])c(C(=O)N([H])[H])c2N([H])[H])C1([H])[H]

$$$$
66:0:0
     RDKit          3D

 91100  0  0  1  0  0  0  0  0999 V2000
  -28.4670  -24.1250   20.2210 C   0  0  0  0  0  0  0  0  0  0  0  0
  -28.8720  -23.0330   20.9220 N   0  0  0  0  0  0  0  0  0  0  0  0
  -28.1630  -24.0770   19.0250 O   0  0  0  0  0  0  0  0  0  0  0  0
  -29.1850  -23.2280   21.8620 H   0  0  0  0  0  0  0  0  0  0  0  0
  -28.4520  -19.6370   19.5080 C   0  0  0  0  0  3  0  0  0  0  0  0
  -28.1570  -21.0370   19.6180 C   0  0  0  0  0  3  0  0  0  0  0  0
  -29.4650  -19.1960   20.3280 C   0  0  0  0  0  0  0  0  0  0  0  0
  -28.9230  -21.7110   20.5420 C   0  0  0  0  0  0  0  0  0  0  0  0
  -30.0240  -20.5530   21.3020 S   0  0  0  0  0  0  0  0  0  0  0  0
  -30.6580  -14.6160   20.3910 C   0  0  0  0  0  0  0  0  0  0  0  0
  -30.4320  -12.3980   19.3200 C   0  0  0  0  0  2  0  0  0  0  0  0
  -29.4890  -12.5570   18.1090 C   0  0  0  0  0  2  0  0  0  0  0  0
  -28.0140  -12.4010   18.5400 C   0  0  0  0  0  2  0  0  0  0  0  0
  -27.6600  -13.2570   19.7860 C   0  0  0  0  0  3  0  0  0  0  0  0
  -28.7220  -13.0900   20.8970 C   0  0  0  0  0  2  0  0  0  0  0  0
  -30.0340  -13.4060   20.3140 N   0  0  0  0  0  0  0  0  0  0  0  0
  -31.8330  -14.7790   20.0470 O   0  0  0  0  0  0  0  0  0  0  0  0
  -29.9120  -16.7810   21.5240 C   0  0  0  0  0  2  0  0  0  0  0  0
  -29.6020  -16.6720   19.4570 C   0  0  0  0  0  2  0  0  0  0  0  0
  -30.0920  -17.7940   20.3800 C   0  0  0  0  0  3  0  0  0  0  0  0
  -29.8170  -15.6810   20.5350 N   0  0  0  0  0  0  0  0  0  0  0  0
  -25.2680  -13.8560   20.5170 C   0  0  0  0  0  0  0  0  0  0  0  0
  -24.2020  -13.0800   20.8850 C   0  0  0  0  0  0  0  0  0  0  0  0
  -24.6660  -11.7300   20.8450 C   0  0  0  0  0  0  0  0  0  0  0  0
  -26.3120  -12.9770   20.2740 N   0  0  0  0  0  0  0  0  0  0  0  0
  -25.9550  -11.6930   20.5330 N   0  0  0  0  0  0  0  0  0  0  0  0
  -23.9400  -10.4660   21.0280 C   0  0  0  0  0  0  0  0  0  0  0  0
  -24.3600   -9.5050   21.9740 C   0  0  0  0  0  3  0  0  0  0  0  0
  -23.6350   -8.3050   22.1440 C   0  0  0  0  0  3  0  0  0  0  0  0
  -22.4770   -8.0600   21.3680 C   0  0  0  0  0  0  0  0  0  0  0  0
  -22.0800   -9.0090   20.4110 C   0  0  0  0  0  3  0  0  0  0  0  0
  -22.8040  -10.2000   20.2390 C   0  0  0  0  0  3  0  0  0  0  0  0
  -21.7250   -6.9130   21.4480 O   0  0  0  0  0  0  0  0  0  0  0  0
  -21.6330   -6.1930   22.6100 C   0  0  0  0  0  0  0  0  0  0  0  0
  -21.1210   -6.7560   23.7990 C   0  0  0  0  0  3  0  0  0  0  0  0
  -20.9810   -5.9580   24.9530 C   0  0  0  0  0  3  0  0  0  0  0  0
  -21.3410   -4.5980   24.9170 C   0  0  0  0  0  0  0  0  0  0  0  0
  -21.8430   -4.0330   23.7310 C   0  0  0  0  0  3  0  0  0  0  0  0
  -21.9850   -4.8290   22.5810 C   0  0  0  0  0  0  0  0  0  0  0  0
  -22.4510   -4.2730   21.4360 F   0  0  0  0  0  0  0  0  0  0  0  0
  -21.1970   -3.8310   26.0220 F   0  0  0  0  0  0  0  0  0  0  0  0
  -22.8050  -13.5560   21.1630 C   0  0  0  0  0  0  0  0  0  0  0  0
  -22.0790  -12.8490   22.0210 N   0  0  0  0  0  0  0  0  0  0  0  0
  -22.3650  -14.5880   20.6550 O   0  0  0  0  0  0  0  0  0  0  0  0
  -22.4470  -12.0130   22.4510 H   0  0  0  0  0  0  0  0  0  0  0  0
  -21.1410  -13.1450   22.2500 H   0  0  0  0  0  0  0  0  0  0  0  0
  -25.4320  -15.2290   20.3490 N   0  0  0  0  0  0  0  0  0  0  0  0
  -24.6670  -15.8860   20.4640 H   0  0  0  0  0  0  0  0  0  0  0  0
  -26.2930  -15.6690   20.0490 H   0  0  0  0  0  0  0  0  0  0  0  0
  -28.4120  -25.4900   20.9780 C   0  0  0  0  0  2  0  0  0  0  0  0
  -28.4000  -26.6640   20.1190 O   0  0  0  0  0  0  0  0  0  0  0  0
  -24.6050  -31.8910   23.2350 C   0  0  0  0  0  0  0  0  0  0  0  0
  -27.2480  -27.4310   20.1480 C   0  0  0  0  0  0  0  0  0  0  0  0
  -23.4040  -30.4950   21.5850 C   0  0  0  0  0  3  0  0  0  0  0  0
  -24.8630  -28.9620   20.1520 C   0  0  0  0  0  0  0  0  0  0  0  0
  -25.9350  -30.8480   21.3950 C   0  0  0  0  0  2  0  0  0  0  0  0
  -26.0220  -29.4770   20.7480 C   0  0  0  0  0  0  0  0  0  0  0  0
  -27.2220  -28.7200   20.7390 C   0  0  0  0  0  3  0  0  0  0  0  0
  -26.0770  -26.9360   19.5430 C   0  0  0  0  0  3  0  0  0  0  0  0
  -24.8890  -27.6950   19.5410 C   0  0  0  0  0  3  0  0  0  0  0  0
  -23.6160  -29.8200   20.2030 C   0  0  0  0  0  2  0  0  0  0  0  0
  -24.6670  -31.0930   22.1300 N   0  0  0  0  0  0  0  0  0  0  0  0
  -23.5210  -32.1630   23.7690 O   0  0  0  0  0  0  0  0  0  0  0  0
  -22.7470  -29.4740   22.5410 C   0  0  0  0  0  0  0  0  0  0  0  0
  -21.4240  -29.2830   22.4030 N   0  0  0  0  0  0  0  0  0  0  0  0
  -23.4270  -28.8500   23.3630 O   0  0  0  0  0  0  0  0  0  0  0  0
  -20.9360  -29.8390   21.7130 H   0  0  0  0  0  0  0  0  0  0  0  0
  -18.0480  -28.0840   22.8810 C   0  0  0  0  0  0  0  0  0  0  0  0
  -20.6070  -28.3400   23.1650 C   0  0  0  0  0  3  0  0  0  0  0  0
  -20.7120  -26.9130   22.5800 C   0  0  0  0  0  2  0  0  0  0  0  0
  -19.6150  -26.5990   21.5580 C   0  0  0  0  0  2  0  0  0  0  0  0
  -18.2280  -26.7410   22.1960 C   0  0  0  0  0  2  0  0  0  0  0  0
  -19.1660  -28.8420   23.3220 C   0  0  0  0  0  0  0  0  0  0  0  0
  -18.9460  -30.1010   23.9200 C   0  0  0  0  0  3  0  0  0  0  0  0
  -17.6420  -30.6000   24.0850 C   0  0  0  0  0  3  0  0  0  0  0  0
  -16.5380  -29.8380   23.6620 C   0  0  0  0  0  3  0  0  0  0  0  0
  -16.7430  -28.5810   23.0660 C   0  0  0  0  0  3  0  0  0  0  0  0
  -25.8880  -32.5200   23.8640 C   0  0  0  0  0  3  0  0  0  0  0  0
  -25.5840  -33.9210   24.1810 N   0  0  0  0  0  0  0  0  0  0  0  0
  -25.9360  -34.9650   23.4190 C   0  0  0  0  0  0  0  0  0  0  0  0
  -26.6210  -34.8520   22.3990 O   0  0  0  0  0  0  0  0  0  0  0  0
  -24.9780  -34.0880   24.9720 H   0  0  0  0  0  0  0  0  0  0  0  0
  -24.2380  -36.7750   23.0180 C   0  0  0  0  0  1  0  0  0  0  0  0
  -25.4530  -36.3600   23.8630 C   0  0  0  0  0  3  0  0  0  0  0  0
  -27.5710  -37.2250   24.7480 C   0  0  0  0  0  1  0  0  0  0  0  0
  -26.4990  -37.4010   23.7730 N   0  0  0  0  0  0  0  0  0  0  0  0
  -26.1000  -38.3270   23.9060 H   0  0  0  0  0  0  0  0  0  0  0  0
  -26.3910  -31.7520   25.1470 C   0  0  1  0  0  0  0  0  0  0  0  0
  -25.2870  -31.5270   26.2050 C   0  0  0  0  0  1  0  0  0  0  0  0
  -26.9680  -30.3690   24.7620 C   0  0  0  0  0  1  0  0  0  0  0  0
  -27.5420  -32.5430   25.8120 C   0  0  0  0  0  1  0  0  0  0  0  0
  1  2  1  0
  1 50  1  0
  2  4  1  0
  3  1  2  0
  5  6  1  0
  5  7  2  0
  6  8  2  0
  7  9  1  0
  8  2  1  0
  8  9  1  0
 10 21  1  0
 11 16  1  0
 12 13  1  0
 12 11  1  0
 14 13  1  0
 14 25  1  0
 14 15  1  0
 16 10  1  0
 16 15  1  0
 17 10  2  0
 19 20  1  0
 19 21  1  0
 20  7  1  0
 20 18  1  0
 21 18  1  0
 22 23  2  0
 23 42  1  0
 24 23  1  0
 24 27  1  0
 25 22  1  0
 25 26  1  0
 26 24  2  0
 27 28  1  0
 28 29  2  0
 30 33  1  0
 30 29  1  0
 31 30  2  0
 32 31  1  0
 32 27  2  0
 33 34  1  0
 34 35  1  0
 35 36  2  0
 37 36  1  0
 37 41  1  0
 38 37  2  0
 39 34  2  0
 39 38  1  0
 40 39  1  0
 42 43  1  0
 43 46  1  0
 43 45  1  0
 44 42  2  0
 47 48  1  0
 47 22  1  0
 49 47  1  0
 51 53  1  0
 51 50  1  0
 52 63  2  0
 53 58  1  0
 54 62  1  0
 54 64  1  0
 55 61  1  0
 55 57  1  0
 56 62  1  0
 57 56  1  0
 58 57  2  0
 59 53  2  0
 60 59  1  0
 60 55  2  0
 61 54  1  0
 62 52  1  0
 64 66  2  0
 65 64  1  0
 67 65  1  0
 68 77  2  0
 68 73  1  0
 69 65  1  0
 69 73  1  0
 70 69  1  0
 71 72  1  0
 71 70  1  0
 72 68  1  0
 73 74  2  0
 74 75  1  0
 76 75  2  0
 77 76  1  0
 78 52  1  0
 78 79  1  0
 78 88  1  0
 79 82  1  0
 80 84  1  0
 80 79  1  0
 81 80  2  0
 84 83  1  0
 86 84  1  0
 86 87  1  0
 86 85  1  0
 88 91  1  1
 88 89  1  0
 90 88  1  0
M  ISO  4  10 100  21 100  50 101  51 101
M  END
>  <TORSDO>  (67) 
F 18

>  <SCORE>  (67) 
-14.858

>  <name>  (67) 
66

>  <ligand_id>  (67) 
66

>  <original_smiles>  (67) 
[H]c1c(N([H])C(=O)C([H])([H])Oc2c([H])c([H])c3c(c2[H])C([H])([H])N(C(=O)C([H])(N([H])C(=O)C([H])(N([H])C([H])([H])[H])C([H])([H])[H])C(C([H])([H])[H])(C([H])([H])[H])C([H])([H])[H])C([H])(C(=O)N([H])C2([H])c4c([H])c([H])c([H])c([H])c4C([H])([H])C([H])([H])C2([H])[H])C3([H])[H])sc(C2([H])C([H])([H])N(C(=O)N3C([H])([H])C([H])([H])C([H])([H])C([H])(n4nc(-c5c([H])c([H])c(Oc6c([H])c([H])c(F)c([H])c6F)c([H])c5[H])c(C(=O)N([H])[H])c4N([H])[H])C3([H])[H])C2([H])[H])c1[H]

>  <smiles>  (67) 
[H]c1c(N([H])C(=O)C([H])([H])Oc2c([H])c([H])c3c(c2[H])C([H])([H])N(C(=O)C([H])(N([H])C(=O)C([H])(N([H])C([H])([H])[H])C([H])([H])[H])C(C([H])([H])[H])(C([H])([H])[H])C([H])([H])[H])C([H])(C(=O)N([H])C2([H])c4c([H])c([H])c([H])c([H])c4C([H])([H])C([H])([H])C2([H])[H])C3([H])[H])sc(C2([H])C([H])([H])N(C(=O)N3C([H])([H])C([H])([H])C([H])([H])C([H])(n4nc(-c5c([H])c([H])c(Oc6c([H])c([H])c(F)c([H])c6F)c([H])c5[H])c(C(=O)N([H])[H])c4N([H])[H])C3([H])[H])C2([H])[H])c1[H]

$$$$
67:0:0
     RDKit          3D

 98107  0  0  1  0  0  0  0  0999 V2000
  -28.6330  -20.8120   20.5120 C   0  0  0  0  0  3  0  0  0  0  0  0
  -27.3480  -24.4210   20.1570 C   0  0  0  0  0  2  0  0  0  0  0  0
  -29.7570  -24.5340   19.9810 C   0  0  0  0  0  2  0  0  0  0  0  0
  -27.4400  -23.0100   20.7990 C   0  0  0  0  0  2  0  0  0  0  0  0
  -29.9120  -23.0590   20.5230 C   0  0  0  0  0  2  0  0  0  0  0  0
  -28.5340  -25.3460   20.5100 C   0  0  0  0  0  3  0  0  0  0  0  0
  -28.6760  -22.2110   20.4790 N   0  0  0  0  0  0  0  0  0  0  0  0
  -27.4180  -20.2690   20.5800 N   0  0  0  0  0  0  0  0  0  0  0  0
  -27.3350  -19.2740   20.7130 H   0  0  0  0  0  0  0  0  0  0  0  0
  -26.5780  -20.8140   20.5040 H   0  0  0  0  0  0  0  0  0  0  0  0
  -31.0290  -20.1030   21.0240 C   0  0  0  0  0  3  0  0  0  0  0  0
  -29.4920  -18.3890   20.2440 C   0  0  0  0  0  3  0  0  0  0  0  0
  -31.7430  -17.7530   20.8930 C   0  0  0  0  0  3  0  0  0  0  0  0
  -29.7430  -19.7810   20.5390 C   0  0  0  0  0  0  0  0  0  0  0  0
  -32.0180  -19.1090   21.1840 C   0  0  0  0  0  0  0  0  0  0  0  0
  -30.4650  -17.3510   20.4390 C   0  0  0  0  0  0  0  0  0  0  0  0
  -30.9190  -14.8450   20.0400 C   0  0  0  0  0  0  0  0  0  0  0  0
  -30.6680  -12.5790   19.0510 C   0  0  0  0  0  2  0  0  0  0  0  0
  -29.6850  -12.6570   17.8620 C   0  0  0  0  0  2  0  0  0  0  0  0
  -28.2280  -12.5080   18.3450 C   0  0  0  0  0  2  0  0  0  0  0  0
  -27.9030  -13.4170   19.5600 C   0  0  0  0  0  3  0  0  0  0  0  0
  -28.9980  -13.3180   20.6460 C   0  0  0  0  0  2  0  0  0  0  0  0
  -30.2840  -13.6340   20.0070 N   0  0  0  0  0  0  0  0  0  0  0  0
  -32.0840  -14.9680   19.6490 O   0  0  0  0  0  0  0  0  0  0  0  0
  -30.1260  -15.9370   20.2810 N   0  0  0  0  0  0  0  0  0  0  0  0
  -29.1490  -15.7110   20.3790 H   0  0  0  0  0  0  0  0  0  0  0  0
  -25.5530  -14.0370   20.3920 C   0  0  0  0  0  0  0  0  0  0  0  0
  -24.4930  -13.2730   20.7980 C   0  0  0  0  0  0  0  0  0  0  0  0
  -24.9340  -11.9160   20.7290 C   0  0  0  0  0  0  0  0  0  0  0  0
  -26.5740  -13.1460   20.1000 N   0  0  0  0  0  0  0  0  0  0  0  0
  -26.2100  -11.8650   20.3640 N   0  0  0  0  0  0  0  0  0  0  0  0
  -24.2000  -10.6620   20.9310 C   0  0  0  0  0  0  0  0  0  0  0  0
  -24.6190   -9.7050   21.8820 C   0  0  0  0  0  3  0  0  0  0  0  0
  -23.8850   -8.5150   22.0710 C   0  0  0  0  0  3  0  0  0  0  0  0
  -22.7180   -8.2720   21.3090 C   0  0  0  0  0  0  0  0  0  0  0  0
  -22.3180   -9.2160   20.3480 C   0  0  0  0  0  3  0  0  0  0  0  0
  -23.0530  -10.3980   20.1570 C   0  0  0  0  0  3  0  0  0  0  0  0
  -21.9570   -7.1320   21.4080 O   0  0  0  0  0  0  0  0  0  0  0  0
  -21.8430   -6.4410   22.5880 C   0  0  0  0  0  0  0  0  0  0  0  0
  -21.2900   -7.0310   23.7450 C   0  0  0  0  0  3  0  0  0  0  0  0
  -21.1280   -6.2650   24.9170 C   0  0  0  0  0  3  0  0  0  0  0  0
  -21.5070   -4.9090   24.9300 C   0  0  0  0  0  0  0  0  0  0  0  0
  -22.0530   -4.3180   23.7770 C   0  0  0  0  0  3  0  0  0  0  0  0
  -22.2170   -5.0830   22.6080 C   0  0  0  0  0  0  0  0  0  0  0  0
  -22.7230   -4.5040   21.4920 F   0  0  0  0  0  0  0  0  0  0  0  0
  -21.3450   -4.1700   26.0520 F   0  0  0  0  0  0  0  0  0  0  0  0
  -23.1140  -13.7660   21.1330 C   0  0  0  0  0  0  0  0  0  0  0  0
  -22.4220  -13.0820   22.0380 N   0  0  0  0  0  0  0  0  0  0  0  0
  -22.6620  -14.7910   20.6270 O   0  0  0  0  0  0  0  0  0  0  0  0
  -22.8040  -12.2520   22.4680 H   0  0  0  0  0  0  0  0  0  0  0  0
  -21.4990  -13.3930   22.3040 H   0  0  0  0  0  0  0  0  0  0  0  0
  -25.7270  -15.4080   20.2230 N   0  0  0  0  0  0  0  0  0  0  0  0
  -24.9590  -16.0570   20.3520 H   0  0  0  0  0  0  0  0  0  0  0  0
  -26.5320  -15.8310   19.7830 H   0  0  0  0  0  0  0  0  0  0  0  0
  -33.2730  -19.4740   21.6770 N   0  0  0  0  0  0  0  0  0  0  0  0
  -33.3610  -20.3520   22.1820 H   0  0  0  0  0  0  0  0  0  0  0  0
  -33.8680  -18.7460   22.0630 H   0  0  0  0  0  0  0  0  0  0  0  0
  -28.5440  -26.7540   20.0260 O   0  0  0  0  0  0  0  0  0  0  0  0
  -24.6430  -31.9520   23.2010 C   0  0  0  0  0  0  0  0  0  0  0  0
  -27.3920  -27.5500   20.0600 C   0  0  0  0  0  0  0  0  0  0  0  0
  -23.4910  -30.5730   21.5070 C   0  0  0  0  0  3  0  0  0  0  0  0
  -24.9930  -29.1000   20.0580 C   0  0  0  0  0  0  0  0  0  0  0  0
  -26.0220  -30.9570   21.3650 C   0  0  0  0  0  2  0  0  0  0  0  0
  -26.1390  -29.5960   20.6920 C   0  0  0  0  0  0  0  0  0  0  0  0
  -27.3420  -28.8310   20.6890 C   0  0  0  0  0  3  0  0  0  0  0  0
  -26.2360  -27.1280   19.3690 C   0  0  0  0  0  3  0  0  0  0  0  0
  -25.0420  -27.8710   19.3880 C   0  0  0  0  0  3  0  0  0  0  0  0
  -23.7360  -29.9430   20.1110 C   0  0  0  0  0  2  0  0  0  0  0  0
  -24.7360  -31.1780   22.0820 N   0  0  0  0  0  0  0  0  0  0  0  0
  -23.5480  -32.1900   23.7300 O   0  0  0  0  0  0  0  0  0  0  0  0
  -22.8440  -29.5120   22.4300 C   0  0  0  0  0  0  0  0  0  0  0  0
  -21.5170  -29.3340   22.3060 N   0  0  0  0  0  0  0  0  0  0  0  0
  -23.5320  -28.8560   23.2160 O   0  0  0  0  0  0  0  0  0  0  0  0
  -21.0210  -29.9190   21.6480 H   0  0  0  0  0  0  0  0  0  0  0  0
  -18.1410  -28.1460   22.8240 C   0  0  0  0  0  0  0  0  0  0  0  0
  -20.7080  -28.3620   23.0440 C   0  0  0  0  0  3  0  0  0  0  0  0
  -20.7790  -26.9640   22.3870 C   0  0  0  0  0  2  0  0  0  0  0  0
  -19.6480  -26.7100   21.3850 C   0  0  0  0  0  2  0  0  0  0  0  0
  -18.2840  -26.8350   22.0710 C   0  0  0  0  0  2  0  0  0  0  0  0
  -19.2790  -28.8710   23.2670 C   0  0  0  0  0  0  0  0  0  0  0  0
  -19.0900  -30.1020   23.9310 C   0  0  0  0  0  3  0  0  0  0  0  0
  -17.7960  -30.6070   24.1580 C   0  0  0  0  0  3  0  0  0  0  0  0
  -16.6730  -29.8770   23.7310 C   0  0  0  0  0  3  0  0  0  0  0  0
  -16.8470  -28.6490   23.0690 C   0  0  0  0  0  3  0  0  0  0  0  0
  -25.9050  -32.5950   23.8550 C   0  0  0  0  0  3  0  0  0  0  0  0
  -25.5740  -33.9880   24.1850 N   0  0  0  0  0  0  0  0  0  0  0  0
  -25.9150  -35.0480   23.4400 C   0  0  0  0  0  0  0  0  0  0  0  0
  -26.6110  -34.9570   22.4260 O   0  0  0  0  0  0  0  0  0  0  0  0
  -24.9610  -34.1320   24.9740 H   0  0  0  0  0  0  0  0  0  0  0  0
  -24.1920  -36.8350   23.0370 C   0  0  0  0  0  1  0  0  0  0  0  0
  -25.4020  -36.4290   23.8930 C   0  0  0  0  0  3  0  0  0  0  0  0
  -27.4870  -37.3250   24.8290 C   0  0  0  0  0  1  0  0  0  0  0  0
  -26.4330  -37.4880   23.8310 N   0  0  0  0  0  0  0  0  0  0  0  0
  -26.0150  -38.4060   23.9590 H   0  0  0  0  0  0  0  0  0  0  0  0
  -26.4000  -31.8210   25.1400 C   0  0  1  0  0  0  0  0  0  0  0  0
  -25.2790  -31.5430   26.1680 C   0  0  0  0  0  1  0  0  0  0  0  0
  -27.0300  -30.4640   24.7500 C   0  0  0  0  0  1  0  0  0  0  0  0
  -27.5080  -32.6350   25.8480 C   0  0  0  0  0  1  0  0  0  0  0  0
  1 14  1  0
  1  8  1  0
  2  6  1  0
  2  4  1  0
  3  6  1  0
  3  5  1  0
  6 58  1  0
  7  1  1  0
  7  5  1  0
  7  4  1  0
  8  9  1  0
 10  8  1  0
 11 15  1  0
 12 16  2  0
 12 14  1  0
 13 15  2  0
 14 11  2  0
 15 55  1  0
 16 13  1  0
 17 25  1  0
 18 23  1  0
 19 20  1  0
 19 18  1  0
 21 20  1  0
 21 30  1  0
 21 22  1  0
 23 17  1  0
 23 22  1  0
 24 17  2  0
 25 26  1  0
 25 16  1  0
 27 28  2  0
 28 47  1  0
 29 28  1  0
 29 32  1  0
 30 31  1  0
 30 27  1  0
 31 29  2  0
 32 33  1  0
 33 34  2  0
 35 38  1  0
 35 34  1  0
 36 35  2  0
 37 36  1  0
 37 32  2  0
 38 39  1  0
 39 44  2  0
 39 40  1  0
 40 41  2  0
 41 42  1  0
 42 46  1  0
 43 42  2  0
 44 43  1  0
 45 44  1  0
 47 48  1  0
 48 51  1  0
 48 50  1  0
 49 47  2  0
 52 53  1  0
 52 27  1  0
 54 52  1  0
 55 57  1  0
 55 56  1  0
 58 60  1  0
 59 70  2  0
 60 65  1  0
 61 69  1  0
 61 71  1  0
 62 68  1  0
 62 64  1  0
 63 69  1  0
 64 63  1  0
 65 64  2  0
 66 67  1  0
 66 60  2  0
 67 62  2  0
 68 61  1  0
 69 59  1  0
 71 73  2  0
 72 71  1  0
 74 72  1  0
 75 84  2  0
 75 80  1  0
 76 72  1  0
 76 80  1  0
 77 76  1  0
 78 79  1  0
 78 77  1  0
 79 75  1  0
 80 81  2  0
 81 82  1  0
 83 82  2  0
 84 83  1  0
 85 59  1  0
 85 86  1  0
 85 95  1  0
 86 89  1  0
 87 91  1  0
 87 86  1  0
 88 87  2  0
 91 90  1  0
 93 91  1  0
 93 94  1  0
 93 92  1  0
 95 98  1  1
 95 96  1  0
 97 95  1  0
M  ISO  4   6 101  17 100  25 100  58 101
M  END
>  <TORSDO>  (68) 
F 18

>  <SCORE>  (68) 
-14.992

>  <name>  (68) 
67

>  <ligand_id>  (68) 
67

>  <original_smiles>  (68) 
[H]c1c([H])c([H])c2c(c1[H])C([H])([H])C([H])([H])C([H])([H])C2([H])N([H])C(=O)C1([H])N(C(=O)C([H])(N([H])C(=O)C([H])(N([H])C([H])([H])[H])C([H])([H])[H])C(C([H])([H])[H])(C([H])([H])[H])C([H])([H])[H])C([H])([H])c2c([H])c(OC3([H])C([H])([H])C([H])([H])N(C(c4c([H])c(N([H])[H])c([H])c(N([H])C(=O)N5C([H])([H])C([H])([H])C([H])([H])C([H])(n6nc(-c7c([H])c([H])c(Oc8c([H])c([H])c(F)c([H])c8F)c([H])c7[H])c(C(=O)N([H])[H])c6N([H])[H])C5([H])[H])c4[H])=[N+]([H])[H])C([H])([H])C3([H])[H])c([H])c([H])c2C1([H])[H]

>  <smiles>  (68) 
[H]c1c([H])c([H])c2c(c1[H])C([H])([H])C([H])([H])C([H])([H])C2([H])N([H])C(=O)C1([H])N(C(=O)C([H])(N([H])C(=O)C([H])(N([H])C([H])([H])[H])C([H])([H])[H])C(C([H])([H])[H])(C([H])([H])[H])C([H])([H])[H])C([H])([H])c2c([H])c(OC3([H])C([H])([H])C([H])([H])N(C(c4c([H])c(N([H])[H])c([H])c(N([H])C(=O)N5C([H])([H])C([H])([H])C([H])([H])C([H])(n6nc(-c7c([H])c([H])c(Oc8c([H])c([H])c(F)c([H])c8F)c([H])c7[H])c(C(=O)N([H])[H])c6N([H])[H])C5([H])[H])c4[H])=[N+]([H])[H])C([H])([H])C3([H])[H])c([H])c([H])c2C1([H])[H]

$$$$
68:0:0
     RDKit          3D

 89 97  0  0  1  0  0  0  0  0999 V2000
  -29.6070  -18.2810   18.8960 C   0  0  0  0  0  3  0  0  0  0  0  0
  -29.6430  -17.7390   20.1730 C   0  0  0  0  0  0  0  0  0  0  0  0
  -29.1870  -20.1490   20.1170 C   0  0  0  0  0  0  0  0  0  0  0  0
  -29.3020  -19.6820   18.8700 N   0  0  0  0  0  0  0  0  0  0  0  0
  -29.0140  -21.5880   20.5970 N   0  0  0  0  0  0  0  0  0  0  0  0
  -29.3720  -18.9860   20.9550 O   0  0  0  0  0  0  0  0  0  0  0  0
  -29.4010  -21.5660   21.5350 H   0  0  0  0  0  0  0  0  0  0  0  0
  -30.4470  -15.1340   20.3120 C   0  0  0  0  0  0  0  0  0  0  0  0
  -30.3980  -12.7240   19.4330 C   0  0  0  0  0  2  0  0  0  0  0  0
  -29.4880  -12.6210   18.1830 C   0  0  0  0  0  2  0  0  0  0  0  0
  -28.0260  -12.3790   18.5970 C   0  0  0  0  0  2  0  0  0  0  0  0
  -27.5870  -13.3140   19.7540 C   0  0  0  0  0  3  0  0  0  0  0  0
  -28.6250  -13.3790   20.8960 C   0  0  0  0  0  2  0  0  0  0  0  0
  -29.8900  -13.8370   20.3060 N   0  0  0  0  0  0  0  0  0  0  0  0
  -31.6320  -15.1850   19.9580 O   0  0  0  0  0  0  0  0  0  0  0  0
  -29.6980  -16.3390   20.6350 N   0  0  0  0  0  0  0  0  0  0  0  0
  -28.8890  -16.0990   21.1900 H   0  0  0  0  0  0  0  0  0  0  0  0
  -25.1980  -13.8750   20.4590 C   0  0  0  0  0  0  0  0  0  0  0  0
  -24.1350  -13.0970   20.8220 C   0  0  0  0  0  0  0  0  0  0  0  0
  -24.6070  -11.7480   20.8080 C   0  0  0  0  0  0  0  0  0  0  0  0
  -26.2490  -13.0030   20.2380 N   0  0  0  0  0  0  0  0  0  0  0  0
  -25.9020  -11.7170   20.5140 N   0  0  0  0  0  0  0  0  0  0  0  0
  -23.8820  -10.4850   20.9980 C   0  0  0  0  0  0  0  0  0  0  0  0
  -24.2990   -9.5300   21.9530 C   0  0  0  0  0  3  0  0  0  0  0  0
  -23.5720   -8.3330   22.1310 C   0  0  0  0  0  3  0  0  0  0  0  0
  -22.4160   -8.0800   21.3550 C   0  0  0  0  0  0  0  0  0  0  0  0
  -22.0190   -9.0240   20.3920 C   0  0  0  0  0  3  0  0  0  0  0  0
  -22.7460  -10.2120   20.2110 C   0  0  0  0  0  3  0  0  0  0  0  0
  -21.6630   -6.9340   21.4430 O   0  0  0  0  0  0  0  0  0  0  0  0
  -21.5860   -6.2110   22.6060 C   0  0  0  0  0  0  0  0  0  0  0  0
  -21.1200   -6.7830   23.8100 C   0  0  0  0  0  3  0  0  0  0  0  0
  -20.9900   -5.9850   24.9650 C   0  0  0  0  0  3  0  0  0  0  0  0
  -21.3160   -4.6160   24.9160 C   0  0  0  0  0  0  0  0  0  0  0  0
  -21.7750   -4.0430   23.7160 C   0  0  0  0  0  3  0  0  0  0  0  0
  -21.9060   -4.8380   22.5640 C   0  0  0  0  0  0  0  0  0  0  0  0
  -22.3280   -4.2770   21.4050 F   0  0  0  0  0  0  0  0  0  0  0  0
  -21.1840   -3.8480   26.0220 F   0  0  0  0  0  0  0  0  0  0  0  0
  -22.7310  -13.5700   21.0680 C   0  0  0  0  0  0  0  0  0  0  0  0
  -21.9930  -12.8790   21.9290 N   0  0  0  0  0  0  0  0  0  0  0  0
  -22.2980  -14.5900   20.5330 O   0  0  0  0  0  0  0  0  0  0  0  0
  -22.3560  -12.0540   22.3840 H   0  0  0  0  0  0  0  0  0  0  0  0
  -21.0520  -13.1780   22.1360 H   0  0  0  0  0  0  0  0  0  0  0  0
  -25.3560  -15.2450   20.2720 N   0  0  0  0  0  0  0  0  0  0  0  0
  -24.5800  -15.8930   20.3620 H   0  0  0  0  0  0  0  0  0  0  0  0
  -26.2000  -15.6850   19.9290 H   0  0  0  0  0  0  0  0  0  0  0  0
  -28.1580  -22.9570   20.5500 C   0  0  0  0  0  2  0  0  0  0  0  0
  -29.9600  -24.5340   19.4820 C   0  0  0  0  0  1  0  0  0  0  0  0
  -28.4780  -24.5360   19.8750 C   0  0  0  0  0  3  0  0  0  0  0  0
  -28.2890  -26.0450   20.3990 O   0  0  0  0  0  0  0  0  0  0  0  0
  -24.6270  -31.8540   23.2210 C   0  0  0  0  0  0  0  0  0  0  0  0
  -27.2340  -27.0510   20.2400 C   0  0  0  0  0  0  0  0  0  0  0  0
  -23.4450  -30.4450   21.5790 C   0  0  0  0  0  3  0  0  0  0  0  0
  -24.9100  -28.8490   20.1680 C   0  0  0  0  0  0  0  0  0  0  0  0
  -26.0040  -30.6920   21.4410 C   0  0  0  0  0  2  0  0  0  0  0  0
  -26.0820  -29.2870   20.7940 C   0  0  0  0  0  0  0  0  0  0  0  0
  -27.2370  -28.4020   20.8110 C   0  0  0  0  0  3  0  0  0  0  0  0
  -26.0370  -26.7360   19.5630 C   0  0  0  0  0  3  0  0  0  0  0  0
  -24.9060  -27.5930   19.5350 C   0  0  0  0  0  3  0  0  0  0  0  0
  -23.6810  -29.7540   20.2060 C   0  0  0  0  0  2  0  0  0  0  0  0
  -24.7130  -31.0230   22.1350 N   0  0  0  0  0  0  0  0  0  0  0  0
  -23.5360  -32.1420   23.7380 O   0  0  0  0  0  0  0  0  0  0  0  0
  -22.7550  -29.4500   22.5460 C   0  0  0  0  0  0  0  0  0  0  0  0
  -21.4240  -29.2910   22.4230 N   0  0  0  0  0  0  0  0  0  0  0  0
  -23.4210  -28.8220   23.3730 O   0  0  0  0  0  0  0  0  0  0  0  0
  -20.9420  -29.8490   21.7330 H   0  0  0  0  0  0  0  0  0  0  0  0
  -18.0350  -28.1140   22.9400 C   0  0  0  0  0  0  0  0  0  0  0  0
  -20.5980  -28.3590   23.1960 C   0  0  0  0  0  3  0  0  0  0  0  0
  -20.6860  -26.9280   22.6170 C   0  0  0  0  0  2  0  0  0  0  0  0
  -19.5770  -26.6170   21.6060 C   0  0  0  0  0  2  0  0  0  0  0  0
  -18.1990  -26.7680   22.2570 C   0  0  0  0  0  2  0  0  0  0  0  0
  -19.1610  -28.8690   23.3660 C   0  0  0  0  0  0  0  0  0  0  0  0
  -18.9510  -30.1280   23.9690 C   0  0  0  0  0  3  0  0  0  0  0  0
  -17.6500  -30.6340   24.1470 C   0  0  0  0  0  3  0  0  0  0  0  0
  -16.5390  -29.8780   23.7350 C   0  0  0  0  0  3  0  0  0  0  0  0
  -16.7320  -28.6200   23.1370 C   0  0  0  0  0  3  0  0  0  0  0  0
  -25.8960  -32.5000   23.8570 C   0  0  0  0  0  3  0  0  0  0  0  0
  -25.5760  -33.9020   24.1800 N   0  0  0  0  0  0  0  0  0  0  0  0
  -25.9120  -34.9580   23.4290 C   0  0  0  0  0  0  0  0  0  0  0  0
  -26.5880  -34.8560   22.4020 O   0  0  0  0  0  0  0  0  0  0  0  0
  -24.9730  -34.0540   24.9760 H   0  0  0  0  0  0  0  0  0  0  0  0
  -24.1840  -36.7550   23.0730 C   0  0  0  0  0  1  0  0  0  0  0  0
  -25.4230  -36.3480   23.8860 C   0  0  0  0  0  3  0  0  0  0  0  0
  -27.5540  -37.2370   24.7230 C   0  0  0  0  0  1  0  0  0  0  0  0
  -26.4550  -37.4020   23.7760 N   0  0  0  0  0  0  0  0  0  0  0  0
  -26.0480  -38.3220   23.9200 H   0  0  0  0  0  0  0  0  0  0  0  0
  -26.3940  -31.7450   25.1510 C   0  0  1  0  0  0  0  0  0  0  0  0
  -25.2870  -31.5210   26.2090 C   0  0  0  0  0  1  0  0  0  0  0  0
  -26.9810  -30.3610   24.7900 C   0  0  0  0  0  1  0  0  0  0  0  0
  -27.5370  -32.5450   25.8200 C   0  0  0  0  0  1  0  0  0  0  0  0
  1  2  2  0
  2 16  1  0
  2  6  1  0
  3  5  1  0
  3  6  1  0
  4  1  1  0
  4  3  2  0
  5  7  1  0
  8 16  1  0
  9 14  1  0
 10 11  1  0
 10  9  1  0
 12 11  1  0
 12 21  1  0
 12 13  1  0
 14  8  1  0
 14 13  1  0
 15  8  2  0
 16 17  1  0
 18 19  2  0
 19 38  1  0
 20 19  1  0
 20 23  1  0
 21 18  1  0
 21 22  1  0
 22 20  2  0
 23 24  1  0
 24 25  2  0
 26 29  1  0
 26 25  1  0
 27 26  2  0
 28 27  1  0
 28 23  2  0
 29 30  1  0
 30 31  1  0
 31 32  2  0
 33 32  1  0
 33 37  1  0
 34 33  2  0
 35 30  2  0
 35 34  1  0
 36 35  1  0
 38 39  1  0
 39 42  1  0
 39 41  1  0
 40 38  2  0
 43 44  1  0
 43 18  1  0
 45 43  1  0
 46  5  1  0
 48 47  1  0
 48 49  1  0
 48 46  1  0
 50 61  2  0
 51 49  1  0
 51 56  1  0
 52 60  1  0
 52 62  1  0
 53 59  1  0
 53 55  1  0
 54 60  1  0
 55 56  2  0
 55 54  1  0
 57 51  2  0
 58 57  1  0
 58 53  2  0
 59 52  1  0
 60 50  1  0
 62 64  2  0
 63 62  1  0
 65 63  1  0
 66 75  2  0
 66 71  1  0
 67 63  1  0
 67 71  1  0
 68 67  1  0
 69 70  1  0
 69 68  1  0
 70 66  1  0
 71 72  2  0
 72 73  1  0
 74 73  2  0
 75 74  1  0
 76 50  1  0
 76 77  1  0
 76 86  1  0
 77 80  1  0
 78 82  1  0
 78 77  1  0
 79 78  2  0
 82 81  1  0
 84 82  1  0
 84 85  1  0
 84 83  1  0
 86 89  1  1
 86 87  1  0
 88 86  1  0
M  ISO  4   8 100  16 100  48 101  49 101
M  END
>  <TORSDO>  (69) 
F 18

>  <SCORE>  (69) 
-15.074

>  <name>  (69) 
68

>  <ligand_id>  (69) 
68

>  <original_smiles>  (69) 
[H]c1nc(N([H])C([H])([H])C([H])(Oc2c([H])c([H])c3c(c2[H])C([H])([H])N(C(=O)C([H])(N([H])C(=O)C([H])(N([H])C([H])([H])[H])C([H])([H])[H])C(C([H])([H])[H])(C([H])([H])[H])C([H])([H])[H])C([H])(C(=O)N([H])C2([H])c4c([H])c([H])c([H])c([H])c4C([H])([H])C([H])([H])C2([H])[H])C3([H])[H])C([H])([H])[H])oc1N([H])C(=O)N1C([H])([H])C([H])([H])C([H])([H])C([H])(n2nc(-c3c([H])c([H])c(Oc4c([H])c([H])c(F)c([H])c4F)c([H])c3[H])c(C(=O)N([H])[H])c2N([H])[H])C1([H])[H]

>  <smiles>  (69) 
[H]c1nc(N([H])C([H])([H])C([H])(Oc2c([H])c([H])c3c(c2[H])C([H])([H])N(C(=O)C([H])(N([H])C(=O)C([H])(N([H])C([H])([H])[H])C([H])([H])[H])C(C([H])([H])[H])(C([H])([H])[H])C([H])([H])[H])C([H])(C(=O)N([H])C2([H])c4c([H])c([H])c([H])c([H])c4C([H])([H])C([H])([H])C2([H])[H])C3([H])[H])C([H])([H])[H])oc1N([H])C(=O)N1C([H])([H])C([H])([H])C([H])([H])C([H])(n2nc(-c3c([H])c([H])c(Oc4c([H])c([H])c(F)c([H])c4F)c([H])c3[H])c(C(=O)N([H])[H])c2N([H])[H])C1([H])[H]

$$$$
69:0:0
     RDKit          3D

 92100  0  0  1  0  0  0  0  0999 V2000
  -29.0580  -21.8040   20.8310 N   0  0  0  0  0  0  0  0  0  0  0  0
  -28.4720  -22.0480   21.6250 H   0  0  0  0  0  0  0  0  0  0  0  0
  -30.1050  -19.6080   20.1840 C   0  0  0  0  0  3  0  0  0  0  0  0
  -27.7950  -19.7210   20.3530 C   0  0  0  0  0  3  0  0  0  0  0  0
  -28.9600  -20.4430   20.4290 C   0  0  0  0  0  0  0  0  0  0  0  0
  -29.8130  -18.2680   20.0030 C   0  0  0  0  0  0  0  0  0  0  0  0
  -28.0850  -18.0160   20.0520 S   0  0  0  0  0  0  0  0  0  0  0  0
  -30.9900  -14.6640   19.8160 C   0  0  0  0  0  0  0  0  0  0  0  0
  -30.6530  -12.3610   18.9900 C   0  0  0  0  0  2  0  0  0  0  0  0
  -29.6940  -12.4000   17.7810 C   0  0  0  0  0  2  0  0  0  0  0  0
  -28.2280  -12.3070   18.2460 C   0  0  0  0  0  2  0  0  0  0  0  0
  -27.9070  -13.2820   19.4110 C   0  0  0  0  0  3  0  0  0  0  0  0
  -28.9940  -13.2540   20.5090 C   0  0  0  0  0  2  0  0  0  0  0  0
  -30.2920  -13.4910   19.8680 N   0  0  0  0  0  0  0  0  0  0  0  0
  -32.1570  -14.6700   19.4130 O   0  0  0  0  0  0  0  0  0  0  0  0
  -30.7440  -17.0940   19.8770 C   0  0  0  0  0  0  0  0  0  0  0  0
  -30.2890  -15.8150   20.0250 N   0  0  0  0  0  0  0  0  0  0  0  0
  -31.9210  -17.3780   19.6170 O   0  0  0  0  0  0  0  0  0  0  0  0
  -29.3200  -15.7080   20.2600 H   0  0  0  0  0  0  0  0  0  0  0  0
  -25.5710  -13.9540   20.2530 C   0  0  0  0  0  0  0  0  0  0  0  0
  -24.4990  -13.2100   20.6660 C   0  0  0  0  0  0  0  0  0  0  0  0
  -24.9180  -11.8440   20.6110 C   0  0  0  0  0  0  0  0  0  0  0  0
  -26.5750  -13.0420   19.9630 N   0  0  0  0  0  0  0  0  0  0  0  0
  -26.1910  -11.7690   20.2410 N   0  0  0  0  0  0  0  0  0  0  0  0
  -24.1610  -10.6030   20.8300 C   0  0  0  0  0  0  0  0  0  0  0  0
  -24.5800   -9.6410   21.7750 C   0  0  0  0  0  3  0  0  0  0  0  0
  -23.8260   -8.4660   21.9840 C   0  0  0  0  0  3  0  0  0  0  0  0
  -22.6400   -8.2430   21.2460 C   0  0  0  0  0  0  0  0  0  0  0  0
  -22.2390   -9.1930   20.2910 C   0  0  0  0  0  3  0  0  0  0  0  0
  -22.9920  -10.3590   20.0800 C   0  0  0  0  0  3  0  0  0  0  0  0
  -21.8590   -7.1180   21.3610 O   0  0  0  0  0  0  0  0  0  0  0  0
  -21.7660   -6.4250   22.5400 C   0  0  0  0  0  0  0  0  0  0  0  0
  -21.3150   -7.0340   23.7320 C   0  0  0  0  0  3  0  0  0  0  0  0
  -21.1680   -6.2660   24.9040 C   0  0  0  0  0  3  0  0  0  0  0  0
  -21.4630   -4.8900   24.8860 C   0  0  0  0  0  0  0  0  0  0  0  0
  -21.9050   -4.2790   23.7000 C   0  0  0  0  0  3  0  0  0  0  0  0
  -22.0540   -5.0450   22.5300 C   0  0  0  0  0  0  0  0  0  0  0  0
  -22.4600   -4.4480   21.3830 F   0  0  0  0  0  0  0  0  0  0  0  0
  -21.3140   -4.1480   26.0090 F   0  0  0  0  0  0  0  0  0  0  0  0
  -23.1280  -13.7270   20.9960 C   0  0  0  0  0  0  0  0  0  0  0  0
  -22.4250  -13.0660   21.9080 N   0  0  0  0  0  0  0  0  0  0  0  0
  -22.6910  -14.7540   20.4800 O   0  0  0  0  0  0  0  0  0  0  0  0
  -22.7820  -12.2280   22.3440 H   0  0  0  0  0  0  0  0  0  0  0  0
  -21.5120  -13.4040   22.1760 H   0  0  0  0  0  0  0  0  0  0  0  0
  -25.7670  -15.3200   20.0710 N   0  0  0  0  0  0  0  0  0  0  0  0
  -25.0190  -15.9910   20.2140 H   0  0  0  0  0  0  0  0  0  0  0  0
  -26.5990  -15.7400   19.6760 H   0  0  0  0  0  0  0  0  0  0  0  0
  -29.1090  -22.9680   19.9190 C   0  0  0  0  0  2  0  0  0  0  0  0
  -28.8950  -24.3380   20.6420 C   0  0  0  0  0  0  0  0  0  0  0  0
  -28.5880  -24.3670   21.8410 O   0  0  0  0  0  0  0  0  0  0  0  0
  -29.0810  -25.6500   19.8260 C   0  0  0  0  0  2  0  0  0  0  0  0
  -28.8410  -26.8680   20.5960 O   0  0  0  0  0  0  0  0  0  0  0  0
  -24.7260  -31.9710   23.4510 C   0  0  0  0  0  0  0  0  0  0  0  0
  -27.6400  -27.5620   20.5120 C   0  0  0  0  0  0  0  0  0  0  0  0
  -23.6420  -30.5370   21.7530 C   0  0  0  0  0  3  0  0  0  0  0  0
  -25.2060  -29.0300   20.4120 C   0  0  0  0  0  0  0  0  0  0  0  0
  -26.1690  -30.9540   21.6850 C   0  0  0  0  0  2  0  0  0  0  0  0
  -26.3240  -29.5830   21.0490 C   0  0  0  0  0  0  0  0  0  0  0  0
  -27.5410  -28.8550   21.0920 C   0  0  0  0  0  3  0  0  0  0  0  0
  -26.4910  -27.0350   19.8760 C   0  0  0  0  0  3  0  0  0  0  0  0
  -25.2870  -27.7600   19.8230 C   0  0  0  0  0  3  0  0  0  0  0  0
  -23.9380  -29.8530   20.3920 C   0  0  0  0  0  2  0  0  0  0  0  0
  -24.8600  -31.1720   22.3530 N   0  0  0  0  0  0  0  0  0  0  0  0
  -23.6120  -32.2150   23.9370 O   0  0  0  0  0  0  0  0  0  0  0  0
  -22.9670  -29.5070   22.6880 C   0  0  0  0  0  0  0  0  0  0  0  0
  -21.6620  -29.2730   22.4780 N   0  0  0  0  0  0  0  0  0  0  0  0
  -23.6170  -28.9190   23.5550 O   0  0  0  0  0  0  0  0  0  0  0  0
  -21.2040  -29.7820   21.7340 H   0  0  0  0  0  0  0  0  0  0  0  0
  -18.3080  -27.9570   22.7970 C   0  0  0  0  0  0  0  0  0  0  0  0
  -20.8360  -28.3120   23.2100 C   0  0  0  0  0  3  0  0  0  0  0  0
  -21.0260  -26.8840   22.6470 C   0  0  0  0  0  2  0  0  0  0  0  0
  -19.9920  -26.5100   21.5800 C   0  0  0  0  0  2  0  0  0  0  0  0
  -18.5740  -26.6080   22.1480 C   0  0  0  0  0  2  0  0  0  0  0  0
  -19.3720  -28.7620   23.2840 C   0  0  0  0  0  0  0  0  0  0  0  0
  -19.0720  -30.0200   23.8520 C   0  0  0  0  0  3  0  0  0  0  0  0
  -17.7410  -30.4720   23.9410 C   0  0  0  0  0  3  0  0  0  0  0  0
  -16.6930  -29.6640   23.4720 C   0  0  0  0  0  3  0  0  0  0  0  0
  -16.9780  -28.4090   22.9030 C   0  0  0  0  0  3  0  0  0  0  0  0
  -25.9620  -32.6400   24.1310 C   0  0  0  0  0  3  0  0  0  0  0  0
  -26.3770  -31.9440   25.4860 C   0  0  1  0  0  0  0  0  0  0  0  0
  -25.1980  -31.7450   26.4650 C   0  0  0  0  0  1  0  0  0  0  0  0
  -27.0110  -30.5580   25.2210 C   0  0  0  0  0  1  0  0  0  0  0  0
  -27.4530  -32.7930   26.2030 C   0  0  0  0  0  1  0  0  0  0  0  0
  -25.6290  -34.0520   24.3580 N   0  0  0  0  0  0  0  0  0  0  0  0
  -26.0080  -35.0610   23.5610 C   0  0  0  0  0  0  0  0  0  0  0  0
  -26.7440  -34.9010   22.5830 O   0  0  0  0  0  0  0  0  0  0  0  0
  -24.9850  -34.2490   25.1080 H   0  0  0  0  0  0  0  0  0  0  0  0
  -24.3000  -36.8190   22.9900 C   0  0  0  0  0  1  0  0  0  0  0  0
  -25.4870  -36.4690   23.9030 C   0  0  0  0  0  3  0  0  0  0  0  0
  -27.5550  -37.4190   24.8230 C   0  0  0  0  0  1  0  0  0  0  0  0
  -26.5220  -37.5210   23.7970 N   0  0  0  0  0  0  0  0  0  0  0  0
  -26.1020  -38.4450   23.8630 H   0  0  0  0  0  0  0  0  0  0  0  0
  1  2  1  0
  3  5  1  0
  4  5  2  0
  5  1  1  0
  6  7  1  0
  6  3  2  0
  7  4  1  0
  8 14  1  0
  8 17  1  0
  9 14  1  0
 10 11  1  0
 10  9  1  0
 12 11  1  0
 12 23  1  0
 12 13  1  0
 14 13  1  0
 15  8  2  0
 16  6  1  0
 16 17  1  0
 17 19  1  0
 18 16  2  0
 20 21  2  0
 21 40  1  0
 22 21  1  0
 22 25  1  0
 23 24  1  0
 23 20  1  0
 24 22  2  0
 25 26  1  0
 26 27  2  0
 28 31  1  0
 28 27  1  0
 29 28  2  0
 30 29  1  0
 30 25  2  0
 31 32  1  0
 32 33  1  0
 33 34  2  0
 35 34  1  0
 35 39  1  0
 36 35  2  0
 37 32  2  0
 37 36  1  0
 38 37  1  0
 40 41  1  0
 41 44  1  0
 41 43  1  0
 42 40  2  0
 45 46  1  0
 45 20  1  0
 47 45  1  0
 48 49  1  0
 48  1  1  0
 49 50  2  0
 51 52  1  0
 51 49  1  0
 53 64  2  0
 54 52  1  0
 54 59  1  0
 55 63  1  0
 55 65  1  0
 56 58  1  0
 57 63  1  0
 58 59  2  0
 58 57  1  0
 60 54  2  0
 61 60  1  0
 61 56  2  0
 62 56  1  0
 62 55  1  0
 63 53  1  0
 65 67  2  0
 66 65  1  0
 68 66  1  0
 69 78  2  0
 69 74  1  0
 70 66  1  0
 70 74  1  0
 71 70  1  0
 72 73  1  0
 72 71  1  0
 73 69  1  0
 74 75  2  0
 75 76  1  0
 77 76  2  0
 78 77  1  0
 79 53  1  0
 79 84  1  0
 79 80  1  0
 80 83  1  1
 80 81  1  0
 82 80  1  0
 84 87  1  0
 85 89  1  0
 85 84  1  0
 86 85  2  0
 89 88  1  0
 91 92  1  0
 91 89  1  0
 91 90  1  0
M  ISO  4   8 100  17 100  51 101  52 101
M  END
>  <TORSDO>  (70) 
F 20

>  <SCORE>  (70) 
-13.493

>  <name>  (70) 
69

>  <ligand_id>  (70) 
69

>  <original_smiles>  (70) 
[H]c1sc(C(=O)N([H])C(=O)N2C([H])([H])C([H])([H])C([H])([H])C([H])(n3nc(-c4c([H])c([H])c(Oc5c([H])c([H])c(F)c([H])c5F)c([H])c4[H])c(C(=O)N([H])[H])c3N([H])[H])C2([H])[H])c([H])c1N([H])C([H])([H])C(=O)C([H])([H])Oc1c([H])c([H])c2c(c1[H])C([H])([H])N(C(=O)C([H])(N([H])C(=O)C([H])(N([H])C([H])([H])[H])C([H])([H])[H])C(C([H])([H])[H])(C([H])([H])[H])C([H])([H])[H])C([H])(C(=O)N([H])C1([H])c3c([H])c([H])c([H])c([H])c3C([H])([H])C([H])([H])C1([H])[H])C2([H])[H]

>  <smiles>  (70) 
[H]c1sc(C(=O)N([H])C(=O)N2C([H])([H])C([H])([H])C([H])([H])C([H])(n3nc(-c4c([H])c([H])c(Oc5c([H])c([H])c(F)c([H])c5F)c([H])c4[H])c(C(=O)N([H])[H])c3N([H])[H])C2([H])[H])c([H])c1N([H])C([H])([H])C(=O)C([H])([H])Oc1c([H])c([H])c2c(c1[H])C([H])([H])N(C(=O)C([H])(N([H])C(=O)C([H])(N([H])C([H])([H])[H])C([H])([H])[H])C(C([H])([H])[H])(C([H])([H])[H])C([H])([H])[H])C([H])(C(=O)N([H])C1([H])c3c([H])c([H])c([H])c([H])c3C([H])([H])C([H])([H])C1([H])[H])C2([H])[H]

$$$$
70:0:0
     RDKit          3D

101110  0  0  1  0  0  0  0  0999 V2000
  -31.2830  -23.1080   21.1240 C   0  0  0  0  0  3  0  0  0  0  0  0
  -29.5330  -24.4550   20.5300 C   0  0  0  0  0  0  0  0  0  0  0  0
  -30.9190  -24.4090   20.8660 C   0  0  0  0  0  0  0  0  0  0  0  0
  -29.0840  -23.1420   20.7330 C   0  0  0  0  0  0  0  0  0  0  0  0
  -30.1900  -22.2650   20.9640 N   0  0  0  0  0  0  0  0  0  0  0  0
  -30.7030  -20.0490   22.1550 C   0  0  0  0  0  3  0  0  0  0  0  0
  -30.8040  -18.6150   22.1450 C   0  0  0  0  0  3  0  0  0  0  0  0
  -30.0380  -20.0050   19.8690 C   0  0  0  0  0  3  0  0  0  0  0  0
  -30.0980  -18.5800   19.8500 C   0  0  0  0  0  0  0  0  0  0  0  0
  -30.2850  -20.7930   21.0160 C   0  0  0  0  0  0  0  0  0  0  0  0
  -30.4970  -17.8250   20.9990 C   0  0  0  0  0  0  0  0  0  0  0  0
  -31.1780  -15.3160   20.6720 C   0  0  0  0  0  0  0  0  0  0  0  0
  -31.0490  -13.1030   19.5100 C   0  0  0  0  0  2  0  0  0  0  0  0
  -30.1570  -13.1970   18.2500 C   0  0  0  0  0  2  0  0  0  0  0  0
  -28.6690  -13.0160   18.6050 C   0  0  0  0  0  2  0  0  0  0  0  0
  -28.2370  -13.8510   19.8370 C   0  0  0  0  0  3  0  0  0  0  0  0
  -29.2420  -13.7070   21.0020 C   0  0  0  0  0  2  0  0  0  0  0  0
  -30.5700  -14.0940   20.4990 N   0  0  0  0  0  0  0  0  0  0  0  0
  -32.3570  -15.4840   20.3520 O   0  0  0  0  0  0  0  0  0  0  0  0
  -30.3610  -16.3560   21.0610 N   0  0  0  0  0  0  0  0  0  0  0  0
  -29.4210  -16.0430   21.2460 H   0  0  0  0  0  0  0  0  0  0  0  0
  -25.8000  -14.4120   20.4350 C   0  0  0  0  0  0  0  0  0  0  0  0
  -24.7270  -13.6220   20.7360 C   0  0  0  0  0  0  0  0  0  0  0  0
  -25.2080  -12.2740   20.7140 C   0  0  0  0  0  0  0  0  0  0  0  0
  -26.8700  -13.5500   20.2480 N   0  0  0  0  0  0  0  0  0  0  0  0
  -26.5130  -12.2600   20.4760 N   0  0  0  0  0  0  0  0  0  0  0  0
  -24.4910  -11.0020   20.8490 C   0  0  0  0  0  0  0  0  0  0  0  0
  -24.8820  -10.0310   21.7960 C   0  0  0  0  0  3  0  0  0  0  0  0
  -24.1660   -8.8200   21.9170 C   0  0  0  0  0  3  0  0  0  0  0  0
  -23.0460   -8.5740   21.0880 C   0  0  0  0  0  0  0  0  0  0  0  0
  -22.6760   -9.5330   20.1290 C   0  0  0  0  0  3  0  0  0  0  0  0
  -23.3940  -10.7340   20.0060 C   0  0  0  0  0  3  0  0  0  0  0  0
  -22.3050   -7.4180   21.1190 O   0  0  0  0  0  0  0  0  0  0  0  0
  -22.1700   -6.6780   22.2670 C   0  0  0  0  0  0  0  0  0  0  0  0
  -21.6240   -7.2290   23.4470 C   0  0  0  0  0  3  0  0  0  0  0  0
  -21.4390   -6.4160   24.5830 C   0  0  0  0  0  3  0  0  0  0  0  0
  -21.7890   -5.0530   24.5390 C   0  0  0  0  0  0  0  0  0  0  0  0
  -22.3310   -4.5010   23.3620 C   0  0  0  0  0  3  0  0  0  0  0  0
  -22.5160   -5.3120   22.2280 C   0  0  0  0  0  0  0  0  0  0  0  0
  -23.0170   -4.7700   21.0920 F   0  0  0  0  0  0  0  0  0  0  0  0
  -21.6040   -4.2690   25.6280 F   0  0  0  0  0  0  0  0  0  0  0  0
  -23.3110  -14.0760   20.9380 C   0  0  0  0  0  0  0  0  0  0  0  0
  -22.5510  -13.3680   21.7660 N   0  0  0  0  0  0  0  0  0  0  0  0
  -22.8830  -15.0950   20.3930 O   0  0  0  0  0  0  0  0  0  0  0  0
  -22.9090  -12.5450   22.2280 H   0  0  0  0  0  0  0  0  0  0  0  0
  -21.6000  -13.6560   21.9450 H   0  0  0  0  0  0  0  0  0  0  0  0
  -25.9520  -15.7900   20.2860 N   0  0  0  0  0  0  0  0  0  0  0  0
  -25.1650  -16.4240   20.3680 H   0  0  0  0  0  0  0  0  0  0  0  0
  -26.8030  -16.2530   20.0000 H   0  0  0  0  0  0  0  0  0  0  0  0
  -29.6380  -17.9150   18.5630 C   0  0  0  0  0  2  0  0  0  0  0  0
  -30.5070  -19.8690   17.1330 C   0  0  0  0  0  1  0  0  0  0  0  0
  -31.8290  -17.7610   17.2890 C   0  0  0  0  0  1  0  0  0  0  0  0
  -29.6280  -17.7840   16.0720 C   0  0  0  0  0  1  0  0  0  0  0  0
  -30.4030  -18.3370   17.2810 C   0  0  1  0  0  0  0  0  0  0  0  0
  -27.7010  -22.6250   20.6690 C   0  0  0  0  0  0  0  0  0  0  0  0
  -26.5850  -23.3970   21.3660 C   0  0  0  0  0  1  0  0  0  0  0  0
  -27.3950  -21.5560   20.1410 O   0  0  0  0  0  0  0  0  0  0  0  0
  -31.7620  -25.4820   20.8590 O   0  0  0  0  0  0  0  0  0  0  0  0
  -32.6710  -25.2710   21.0480 H   0  0  0  0  0  0  0  0  0  0  0  0
  -28.7520  -25.6660   19.8850 C   0  0  0  0  0  2  0  0  0  0  0  0
  -28.7560  -27.0370   20.4570 O   0  0  0  0  0  0  0  0  0  0  0  0
  -24.7320  -32.1660   23.5260 C   0  0  0  0  0  0  0  0  0  0  0  0
  -27.6090  -27.8550   20.3470 C   0  0  0  0  0  0  0  0  0  0  0  0
  -23.6210  -30.7880   21.8000 C   0  0  0  0  0  3  0  0  0  0  0  0
  -25.1740  -29.3780   20.3340 C   0  0  0  0  0  0  0  0  0  0  0  0
  -26.1460  -31.2230   21.6920 C   0  0  0  0  0  2  0  0  0  0  0  0
  -26.3040  -29.8770   20.9950 C   0  0  0  0  0  0  0  0  0  0  0  0
  -27.5160  -29.1240   21.0060 C   0  0  0  0  0  3  0  0  0  0  0  0
  -26.4640  -27.4430   19.6200 C   0  0  0  0  0  3  0  0  0  0  0  0
  -25.2610  -28.1680   19.6350 C   0  0  0  0  0  3  0  0  0  0  0  0
  -23.8930  -30.1850   20.3970 C   0  0  0  0  0  2  0  0  0  0  0  0
  -24.8480  -31.4080   22.3970 N   0  0  0  0  0  0  0  0  0  0  0  0
  -23.6280  -32.3760   24.0470 O   0  0  0  0  0  0  0  0  0  0  0  0
  -22.9850  -29.7030   22.7010 C   0  0  0  0  0  0  0  0  0  0  0  0
  -21.6760  -29.4570   22.5190 N   0  0  0  0  0  0  0  0  0  0  0  0
  -23.6690  -29.0890   23.5220 O   0  0  0  0  0  0  0  0  0  0  0  0
  -21.1780  -30.0110   21.8370 H   0  0  0  0  0  0  0  0  0  0  0  0
  -18.3540  -28.0680   22.8580 C   0  0  0  0  0  0  0  0  0  0  0  0
  -20.8850  -28.4530   23.2310 C   0  0  0  0  0  3  0  0  0  0  0  0
  -21.0830  -27.0470   22.6160 C   0  0  0  0  0  2  0  0  0  0  0  0
  -20.0370  -26.7020   21.5520 C   0  0  0  0  0  2  0  0  0  0  0  0
  -18.6260  -26.7550   22.1450 C   0  0  0  0  0  2  0  0  0  0  0  0
  -19.4140  -28.8720   23.3540 C   0  0  0  0  0  0  0  0  0  0  0  0
  -19.1090  -30.1010   23.9770 C   0  0  0  0  0  3  0  0  0  0  0  0
  -17.7740  -30.5280   24.1090 C   0  0  0  0  0  3  0  0  0  0  0  0
  -16.7270  -29.7200   23.6310 C   0  0  0  0  0  3  0  0  0  0  0  0
  -17.0180  -28.4920   23.0120 C   0  0  0  0  0  3  0  0  0  0  0  0
  -25.9780  -32.8190   24.2020 C   0  0  0  0  0  3  0  0  0  0  0  0
  -25.6440  -34.2230   24.4800 N   0  0  0  0  0  0  0  0  0  0  0  0
  -26.0030  -35.2580   23.7080 C   0  0  0  0  0  0  0  0  0  0  0  0
  -26.7200  -35.1330   22.7110 O   0  0  0  0  0  0  0  0  0  0  0  0
  -25.0060  -34.3960   25.2450 H   0  0  0  0  0  0  0  0  0  0  0  0
  -24.2720  -37.0160   23.2360 C   0  0  0  0  0  1  0  0  0  0  0  0
  -25.4830  -36.6520   24.1050 C   0  0  0  0  0  3  0  0  0  0  0  0
  -27.5770  -37.5800   24.9900 C   0  0  0  0  0  1  0  0  0  0  0  0
  -26.5070  -37.7130   24.0040 N   0  0  0  0  0  0  0  0  0  0  0  0
  -26.0840  -38.6300   24.1220 H   0  0  0  0  0  0  0  0  0  0  0  0
  -26.4290  -32.0810   25.5220 C   0  0  1  0  0  0  0  0  0  0  0  0
  -25.2730  -31.8300   26.5170 C   0  0  0  0  0  1  0  0  0  0  0  0
  -27.0740  -30.7120   25.1960 C   0  0  0  0  0  1  0  0  0  0  0  0
  -27.5110  -32.9170   26.2440 C   0  0  0  0  0  1  0  0  0  0  0  0
  2  4  2  0
  2  3  1  0
  3  1  2  0
  4  5  1  0
  5 10  1  0
  5  1  1  0
  7  6  1  0
  8 10  1  0
  9  8  2  0
  9 11  1  0
 10  6  2  0
 11 20  1  0
 11  7  2  0
 12 20  1  0
 13 18  1  0
 14 15  1  0
 14 13  1  0
 16 15  1  0
 16 25  1  0
 16 17  1  0
 18 12  1  0
 18 17  1  0
 19 12  2  0
 20 21  1  0
 22 23  2  0
 23 42  1  0
 24 23  1  0
 24 27  1  0
 25 22  1  0
 25 26  1  0
 26 24  2  0
 27 28  1  0
 28 29  2  0
 30 33  1  0
 30 29  1  0
 31 30  2  0
 32 31  1  0
 32 27  2  0
 33 34  1  0
 34 35  1  0
 35 36  2  0
 37 36  1  0
 37 41  1  0
 38 37  2  0
 39 34  2  0
 39 38  1  0
 40 39  1  0
 42 43  1  0
 43 46  1  0
 43 45  1  0
 44 42  2  0
 47 48  1  0
 47 22  1  0
 49 47  1  0
 50  9  1  0
 54 51  1  6
 53 54  1  0
 54 52  1  0
 54 50  1  0
 55  4  1  0
 55 56  1  0
 57 55  2  0
 58  3  1  0
 58 59  1  0
 60 61  1  0
 60  2  1  0
 62 73  2  0
 63 61  1  0
 63 68  1  0
 64 72  1  0
 64 74  1  0
 65 71  1  0
 65 67  1  0
 66 72  1  0
 67 68  2  0
 67 66  1  0
 69 70  1  0
 69 63  2  0
 70 65  2  0
 71 64  1  0
 72 62  1  0
 74 76  2  0
 75 74  1  0
 77 75  1  0
 78 87  2  0
 78 83  1  0
 79 75  1  0
 79 83  1  0
 80 79  1  0
 81 82  1  0
 81 80  1  0
 82 78  1  0
 83 84  2  0
 84 85  1  0
 86 85  2  0
 87 86  1  0
 88 62  1  0
 88 89  1  0
 88 98  1  0
 89 92  1  0
 90 94  1  0
 90 89  1  0
 91 90  2  0
 94 93  1  0
 96 94  1  0
 96 97  1  0
 96 95  1  0
 98101  1  1
 98 99  1  0
100 98  1  0
M  ISO  4  12 100  20 100  60 101  61 101
M  END
>  <TORSDO>  (71) 
F 22

>  <SCORE>  (71) 
-11.779

>  <name>  (71) 
70

>  <ligand_id>  (71) 
70

>  <original_smiles>  (71) 
[H]Oc1c(C([H])([H])Oc2c([H])c([H])c3c(c2[H])C([H])([H])N(C(=O)C([H])(N([H])C(=O)C([H])(N([H])C([H])([H])[H])C([H])([H])[H])C(C([H])([H])[H])(C([H])([H])[H])C([H])([H])[H])C([H])(C(=O)N([H])C2([H])c4c([H])c([H])c([H])c([H])c4C([H])([H])C([H])([H])C2([H])[H])C3([H])[H])c(C(=O)C([H])([H])[H])n(-c2c([H])c([H])c(N([H])C(=O)N3C([H])([H])C([H])([H])C([H])([H])C([H])(n4nc(-c5c([H])c([H])c(Oc6c([H])c([H])c(F)c([H])c6F)c([H])c5[H])c(C(=O)N([H])[H])c4N([H])[H])C3([H])[H])c(C([H])([H])C(C([H])([H])[H])(C([H])([H])[H])C([H])([H])[H])c2[H])c1[H]

>  <smiles>  (71) 
[H]Oc1c(C([H])([H])Oc2c([H])c([H])c3c(c2[H])C([H])([H])N(C(=O)C([H])(N([H])C(=O)C([H])(N([H])C([H])([H])[H])C([H])([H])[H])C(C([H])([H])[H])(C([H])([H])[H])C([H])([H])[H])C([H])(C(=O)N([H])C2([H])c4c([H])c([H])c([H])c([H])c4C([H])([H])C([H])([H])C2([H])[H])C3([H])[H])c(C(=O)C([H])([H])[H])n(-c2c([H])c([H])c(N([H])C(=O)N3C([H])([H])C([H])([H])C([H])([H])C([H])(n4nc(-c5c([H])c([H])c(Oc6c([H])c([H])c(F)c([H])c6F)c([H])c5[H])c(C(=O)N([H])[H])c4N([H])[H])C3([H])[H])c(C([H])([H])C(C([H])([H])[H])(C([H])([H])[H])C([H])([H])[H])c2[H])c1[H]

$$$$
71:0:0
     RDKit          3D

 96105  0  0  1  0  0  0  0  0999 V2000
  -28.6460  -24.0630   21.3530 C   0  0  0  0  0  0  0  0  0  0  0  0
  -28.8650  -21.4680   20.9400 C   0  0  0  0  0  3  0  0  0  0  0  0
  -28.1300  -23.5640   19.4440 C   0  0  0  0  0  2  0  0  0  0  0  0
  -28.6940  -24.9380   20.0470 C   0  0  0  0  0  3  0  0  0  0  0  0
  -28.7510  -22.8350   20.6040 N   0  0  0  0  0  0  0  0  0  0  0  0
  -28.6150  -21.2290   22.2430 N   0  0  0  0  0  0  0  0  0  0  0  0
  -28.5280  -24.2720   22.5500 O   0  0  0  0  0  0  0  0  0  0  0  0
  -28.8310  -20.3260   22.6320 H   0  0  0  0  0  0  0  0  0  0  0  0
  -28.3450  -21.9600   22.8850 H   0  0  0  0  0  0  0  0  0  0  0  0
  -29.1670  -18.7390   20.7480 C   0  0  0  0  0  3  0  0  0  0  0  0
  -29.3680  -20.1400   20.2320 C   0  0  0  0  0  0  0  0  0  0  0  0
  -29.8660  -17.6460   20.1510 C   0  0  0  0  0  0  0  0  0  0  0  0
  -30.2300  -20.0790   19.1600 C   0  0  0  0  0  0  0  0  0  0  0  0
  -30.7980  -18.4070   18.8540 S   0  0  0  0  0  0  0  0  0  0  0  0
  -30.6170  -15.0940   20.0930 C   0  0  0  0  0  0  0  0  0  0  0  0
  -30.4970  -12.7530   19.1360 C   0  0  0  0  0  2  0  0  0  0  0  0
  -29.5280  -12.7410   17.9290 C   0  0  0  0  0  2  0  0  0  0  0  0
  -28.0760  -12.5270   18.3970 C   0  0  0  0  0  2  0  0  0  0  0  0
  -27.7050  -13.4300   19.6010 C   0  0  0  0  0  3  0  0  0  0  0  0
  -28.7880  -13.4100   20.7010 C   0  0  0  0  0  2  0  0  0  0  0  0
  -30.0500  -13.8230   20.0740 N   0  0  0  0  0  0  0  0  0  0  0  0
  -31.7900  -15.1990   19.7160 O   0  0  0  0  0  0  0  0  0  0  0  0
  -29.8200  -16.2270   20.4150 N   0  0  0  0  0  0  0  0  0  0  0  0
  -28.9650  -15.9460   20.8700 H   0  0  0  0  0  0  0  0  0  0  0  0
  -25.3430  -13.9920   20.4090 C   0  0  0  0  0  0  0  0  0  0  0  0
  -24.2910  -13.2090   20.7930 C   0  0  0  0  0  0  0  0  0  0  0  0
  -24.7590  -11.8590   20.7360 C   0  0  0  0  0  0  0  0  0  0  0  0
  -26.3820  -13.1210   20.1280 N   0  0  0  0  0  0  0  0  0  0  0  0
  -26.0410  -11.8320   20.3900 N   0  0  0  0  0  0  0  0  0  0  0  0
  -24.0390  -10.5950   20.9290 C   0  0  0  0  0  0  0  0  0  0  0  0
  -24.4570   -9.6470   21.8890 C   0  0  0  0  0  3  0  0  0  0  0  0
  -23.7390   -8.4450   22.0690 C   0  0  0  0  0  3  0  0  0  0  0  0
  -22.5880   -8.1810   21.2870 C   0  0  0  0  0  0  0  0  0  0  0  0
  -22.1890   -9.1190   20.3170 C   0  0  0  0  0  3  0  0  0  0  0  0
  -22.9080  -10.3130   20.1370 C   0  0  0  0  0  3  0  0  0  0  0  0
  -21.8440   -7.0310   21.3780 O   0  0  0  0  0  0  0  0  0  0  0  0
  -21.7250   -6.3410   22.5590 C   0  0  0  0  0  0  0  0  0  0  0  0
  -21.1800   -6.9340   23.7180 C   0  0  0  0  0  3  0  0  0  0  0  0
  -21.0110   -6.1670   24.8870 C   0  0  0  0  0  3  0  0  0  0  0  0
  -21.3760   -4.8070   24.9000 C   0  0  0  0  0  0  0  0  0  0  0  0
  -21.9080   -4.2120   23.7430 C   0  0  0  0  0  3  0  0  0  0  0  0
  -22.0800   -4.9770   22.5760 C   0  0  0  0  0  0  0  0  0  0  0  0
  -22.5780   -4.3920   21.4580 F   0  0  0  0  0  0  0  0  0  0  0  0
  -21.2040   -4.0690   26.0200 F   0  0  0  0  0  0  0  0  0  0  0  0
  -22.8990  -13.6800   21.1040 C   0  0  0  0  0  0  0  0  0  0  0  0
  -22.1910  -12.9670   21.9740 N   0  0  0  0  0  0  0  0  0  0  0  0
  -22.4490  -14.7120   20.6100 O   0  0  0  0  0  0  0  0  0  0  0  0
  -22.5700  -12.1350   22.3980 H   0  0  0  0  0  0  0  0  0  0  0  0
  -21.2570  -13.2650   22.2230 H   0  0  0  0  0  0  0  0  0  0  0  0
  -25.5020  -15.3650   20.2520 N   0  0  0  0  0  0  0  0  0  0  0  0
  -24.7450  -16.0200   20.4180 H   0  0  0  0  0  0  0  0  0  0  0  0
  -26.3430  -15.8090   19.9060 H   0  0  0  0  0  0  0  0  0  0  0  0
  -30.6980  -21.1180   18.3600 N   0  0  0  0  0  0  0  0  0  0  0  0
  -30.0310  -21.3930   17.6430 H   0  0  0  0  0  0  0  0  0  0  0  0
  -31.5490  -20.8740   17.8630 H   0  0  0  0  0  0  0  0  0  0  0  0
  -28.3730  -26.4670   20.1190 O   0  0  0  0  0  0  0  0  0  0  0  0
  -24.5940  -31.9300   23.1940 C   0  0  0  0  0  0  0  0  0  0  0  0
  -27.1980  -27.2830   20.1160 C   0  0  0  0  0  0  0  0  0  0  0  0
  -23.3840  -30.5160   21.5700 C   0  0  0  0  0  3  0  0  0  0  0  0
  -24.8260  -28.9490   20.1240 C   0  0  0  0  0  0  0  0  0  0  0  0
  -25.9210  -30.8310   21.3530 C   0  0  0  0  0  2  0  0  0  0  0  0
  -26.0010  -29.4360   20.7080 C   0  0  0  0  0  0  0  0  0  0  0  0
  -27.1820  -28.6170   20.6800 C   0  0  0  0  0  3  0  0  0  0  0  0
  -25.9960  -26.8710   19.5100 C   0  0  0  0  0  3  0  0  0  0  0  0
  -24.8320  -27.6810   19.5110 C   0  0  0  0  0  3  0  0  0  0  0  0
  -23.5880  -29.8310   20.1880 C   0  0  0  0  0  2  0  0  0  0  0  0
  -24.6540  -31.1150   22.0950 N   0  0  0  0  0  0  0  0  0  0  0  0
  -23.5140  -32.2010   23.7410 O   0  0  0  0  0  0  0  0  0  0  0  0
  -22.7340  -29.5030   22.5440 C   0  0  0  0  0  0  0  0  0  0  0  0
  -21.4080  -29.3110   22.4350 N   0  0  0  0  0  0  0  0  0  0  0  0
  -23.4280  -28.8920   23.3610 O   0  0  0  0  0  0  0  0  0  0  0  0
  -20.9080  -29.8680   21.7550 H   0  0  0  0  0  0  0  0  0  0  0  0
  -18.0560  -28.0460   22.9630 C   0  0  0  0  0  0  0  0  0  0  0  0
  -20.6120  -28.3580   23.2110 C   0  0  0  0  0  3  0  0  0  0  0  0
  -20.7390  -26.9270   22.6390 C   0  0  0  0  0  2  0  0  0  0  0  0
  -19.6340  -26.5730   21.6390 C   0  0  0  0  0  2  0  0  0  0  0  0
  -18.2540  -26.6970   22.2910 C   0  0  0  0  0  2  0  0  0  0  0  0
  -19.1640  -28.8310   23.3820 C   0  0  0  0  0  0  0  0  0  0  0  0
  -18.9250  -30.0910   23.9730 C   0  0  0  0  0  3  0  0  0  0  0  0
  -17.6120  -30.5630   24.1510 C   0  0  0  0  0  3  0  0  0  0  0  0
  -16.5180  -29.7760   23.7460 C   0  0  0  0  0  3  0  0  0  0  0  0
  -16.7420  -28.5170   23.1600 C   0  0  0  0  0  3  0  0  0  0  0  0
  -25.8760  -32.5750   23.8030 C   0  0  0  0  0  3  0  0  0  0  0  0
  -25.5540  -33.9670   24.1570 N   0  0  0  0  0  0  0  0  0  0  0  0
  -25.8530  -35.0350   23.4050 C   0  0  0  0  0  0  0  0  0  0  0  0
  -26.4990  -34.9520   22.3560 O   0  0  0  0  0  0  0  0  0  0  0  0
  -24.9760  -34.1030   24.9740 H   0  0  0  0  0  0  0  0  0  0  0  0
  -24.0950  -36.8140   23.1170 C   0  0  0  0  0  1  0  0  0  0  0  0
  -25.3600  -36.4120   23.8920 C   0  0  0  0  0  3  0  0  0  0  0  0
  -27.5000  -37.3210   24.6880 C   0  0  0  0  0  1  0  0  0  0  0  0
  -26.3770  -37.4790   23.7660 N   0  0  0  0  0  0  0  0  0  0  0  0
  -25.9630  -38.3930   23.9280 H   0  0  0  0  0  0  0  0  0  0  0  0
  -26.4220  -31.8010   25.0670 C   0  0  1  0  0  0  0  0  0  0  0  0
  -25.3500  -31.5410   26.1500 C   0  0  0  0  0  1  0  0  0  0  0  0
  -27.0190  -30.4340   24.6590 C   0  0  0  0  0  1  0  0  0  0  0  0
  -27.5720  -32.6060   25.7180 C   0  0  0  0  0  1  0  0  0  0  0  0
  1  7  2  0
  2  6  1  0
  3  4  1  0
  3  5  1  0
  4 56  1  0
  4  1  1  0
  5  2  1  0
  5  1  1  0
  6  8  1  0
  6  9  1  0
 11 10  1  0
 11  2  1  0
 12 23  1  0
 12 10  2  0
 13 11  2  0
 14 13  1  0
 14 12  1  0
 15 23  1  0
 16 21  1  0
 17 18  1  0
 17 16  1  0
 19 18  1  0
 19 28  1  0
 19 20  1  0
 21 15  1  0
 21 20  1  0
 22 15  2  0
 23 24  1  0
 25 26  2  0
 26 45  1  0
 27 26  1  0
 27 30  1  0
 28 29  1  0
 28 25  1  0
 29 27  2  0
 30 31  1  0
 31 32  2  0
 33 36  1  0
 33 32  1  0
 34 33  2  0
 35 34  1  0
 35 30  2  0
 36 37  1  0
 37 42  2  0
 37 38  1  0
 38 39  2  0
 39 40  1  0
 40 44  1  0
 41 40  2  0
 42 41  1  0
 43 42  1  0
 45 46  1  0
 46 49  1  0
 46 48  1  0
 47 45  2  0
 50 25  1  0
 50 51  1  0
 52 50  1  0
 53 13  1  0
 54 53  1  0
 55 53  1  0
 57 68  2  0
 58 56  1  0
 58 63  1  0
 59 67  1  0
 59 69  1  0
 60 66  1  0
 60 62  1  0
 61 67  1  0
 62 61  1  0
 63 62  2  0
 64 65  1  0
 64 58  2  0
 65 60  2  0
 66 59  1  0
 67 57  1  0
 69 71  2  0
 70 69  1  0
 72 70  1  0
 73 82  2  0
 73 78  1  0
 74 70  1  0
 74 78  1  0
 75 74  1  0
 76 77  1  0
 76 75  1  0
 77 73  1  0
 78 79  2  0
 79 80  1  0
 81 80  2  0
 82 81  1  0
 83 57  1  0
 83 84  1  0
 83 93  1  0
 84 87  1  0
 85 89  1  0
 85 84  1  0
 86 85  2  0
 89 88  1  0
 91 89  1  0
 91 92  1  0
 91 90  1  0
 93 96  1  1
 93 94  1  0
 95 93  1  0
M  ISO  4   4 101  15 100  23 100  56 101
M  END
>  <TORSDO>  (72) 
F 18

>  <SCORE>  (72) 
-14.700

>  <name>  (72) 
71

>  <ligand_id>  (72) 
71

>  <original_smiles>  (72) 
[H]c1c([H])c([H])c2c(c1[H])C([H])([H])C([H])([H])C([H])([H])C2([H])N([H])C(=O)C1([H])N(C(=O)C([H])(N([H])C(=O)C([H])(N([H])C([H])([H])[H])C([H])([H])[H])C(C([H])([H])[H])(C([H])([H])[H])C([H])([H])[H])C([H])([H])c2c([H])c(OC3([H])C(=O)N(C(c4c(N([H])[H])sc(N([H])C(=O)N5C([H])([H])C([H])([H])C([H])([H])C([H])(n6nc(-c7c([H])c([H])c(Oc8c([H])c([H])c(F)c([H])c8F)c([H])c7[H])c(C(=O)N([H])[H])c6N([H])[H])C5([H])[H])c4[H])=[N+]([H])[H])C3([H])[H])c([H])c([H])c2C1([H])[H]

>  <smiles>  (72) 
[H]c1c([H])c([H])c2c(c1[H])C([H])([H])C([H])([H])C([H])([H])C2([H])N([H])C(=O)C1([H])N(C(=O)C([H])(N([H])C(=O)C([H])(N([H])C([H])([H])[H])C([H])([H])[H])C(C([H])([H])[H])(C([H])([H])[H])C([H])([H])[H])C([H])([H])c2c([H])c(OC3([H])C(=O)N(C(c4c(N([H])[H])sc(N([H])C(=O)N5C([H])([H])C([H])([H])C([H])([H])C([H])(n6nc(-c7c([H])c([H])c(Oc8c([H])c([H])c(F)c([H])c8F)c([H])c7[H])c(C(=O)N([H])[H])c6N([H])[H])C5([H])[H])c4[H])=[N+]([H])[H])C3([H])[H])c([H])c([H])c2C1([H])[H]

$$$$
72:0:0
     RDKit          3D

 93102  0  0  1  0  0  0  0  0999 V2000
  -30.7050  -14.7230   20.3520 C   0  0  0  0  0  0  0  0  0  0  0  0
  -30.4380  -12.4610   19.3430 C   0  0  0  0  0  2  0  0  0  0  0  0
  -29.5200  -12.5570   18.1070 C   0  0  0  0  0  2  0  0  0  0  0  0
  -28.0430  -12.4180   18.5220 C   0  0  0  0  0  2  0  0  0  0  0  0
  -27.6720  -13.3190   19.7330 C   0  0  0  0  0  3  0  0  0  0  0  0
  -28.7160  -13.2240   20.8660 C   0  0  0  0  0  2  0  0  0  0  0  0
  -30.0240  -13.5310   20.2770 N   0  0  0  0  0  0  0  0  0  0  0  0
  -31.9030  -14.7580   20.0510 O   0  0  0  0  0  0  0  0  0  0  0  0
  -29.9820  -19.1990   18.2470 C   0  0  0  0  0  2  0  0  0  0  0  0
  -29.1590  -20.4120   20.6300 C   0  0  0  0  0  3  0  0  0  0  0  0
  -29.7900  -18.3630   19.3660 C   0  0  0  0  0  0  0  0  0  0  0  0
  -29.3820  -18.9790   20.5650 C   0  0  0  0  0  0  0  0  0  0  0  0
  -29.7680  -20.6020   18.2950 C   0  0  0  0  0  0  0  0  0  0  0  0
  -29.3430  -21.2660   19.4840 C   0  0  0  0  0  0  0  0  0  0  0  0
  -29.1590  -18.0200   21.7350 C   0  0  0  0  0  3  0  0  0  0  0  0
  -30.0030  -16.8200   19.2280 C   0  0  0  0  0  3  0  0  0  0  0  0
  -30.0060  -16.6910   21.6910 C   0  0  0  0  0  3  0  0  0  0  0  0
  -30.0020  -21.3920   17.0140 C   0  0  0  0  0  1  0  0  0  0  0  0
  -29.9860  -15.9130   20.4260 N   0  0  0  0  0  0  0  0  0  0  0  0
  -25.2830  -13.9430   20.4200 C   0  0  0  0  0  0  0  0  0  0  0  0
  -24.2040  -13.1840   20.7840 C   0  0  0  0  0  0  0  0  0  0  0  0
  -24.6540  -11.8280   20.7810 C   0  0  0  0  0  0  0  0  0  0  0  0
  -26.3200  -13.0500   20.2120 N   0  0  0  0  0  0  0  0  0  0  0  0
  -25.9490  -11.7740   20.4920 N   0  0  0  0  0  0  0  0  0  0  0  0
  -23.9120  -10.5760   20.9780 C   0  0  0  0  0  0  0  0  0  0  0  0
  -24.3210   -9.6160   21.9300 C   0  0  0  0  0  3  0  0  0  0  0  0
  -23.5790   -8.4300   22.1150 C   0  0  0  0  0  3  0  0  0  0  0  0
  -22.4140   -8.1930   21.3470 C   0  0  0  0  0  0  0  0  0  0  0  0
  -22.0240   -9.1420   20.3850 C   0  0  0  0  0  3  0  0  0  0  0  0
  -22.7660  -10.3200   20.1970 C   0  0  0  0  0  3  0  0  0  0  0  0
  -21.6450   -7.0580   21.4400 O   0  0  0  0  0  0  0  0  0  0  0  0
  -21.5670   -6.3360   22.6040 C   0  0  0  0  0  0  0  0  0  0  0  0
  -21.1250   -6.9160   23.8130 C   0  0  0  0  0  3  0  0  0  0  0  0
  -20.9930   -6.1200   24.9680 C   0  0  0  0  0  3  0  0  0  0  0  0
  -21.2920   -4.7460   24.9150 C   0  0  0  0  0  0  0  0  0  0  0  0
  -21.7280   -4.1660   23.7120 C   0  0  0  0  0  3  0  0  0  0  0  0
  -21.8610   -4.9580   22.5580 C   0  0  0  0  0  0  0  0  0  0  0  0
  -22.2610   -4.3900   21.3950 F   0  0  0  0  0  0  0  0  0  0  0  0
  -21.1580   -3.9790   26.0240 F   0  0  0  0  0  0  0  0  0  0  0  0
  -22.8080  -13.6790   21.0270 C   0  0  0  0  0  0  0  0  0  0  0  0
  -22.0600  -13.0040   21.8930 N   0  0  0  0  0  0  0  0  0  0  0  0
  -22.3880  -14.7000   20.4840 O   0  0  0  0  0  0  0  0  0  0  0  0
  -22.4120  -12.1790   22.3550 H   0  0  0  0  0  0  0  0  0  0  0  0
  -21.1230  -13.3180   22.0990 H   0  0  0  0  0  0  0  0  0  0  0  0
  -25.4640  -15.3090   20.2280 N   0  0  0  0  0  0  0  0  0  0  0  0
  -24.7070  -15.9760   20.3270 H   0  0  0  0  0  0  0  0  0  0  0  0
  -26.3330  -15.7360   19.9320 H   0  0  0  0  0  0  0  0  0  0  0  0
  -28.7970  -23.8120   20.1220 C   0  0  0  0  0  0  0  0  0  0  0  0
  -29.1320  -22.7250   19.3460 N   0  0  0  0  0  0  0  0  0  0  0  0
  -28.5680  -23.7260   21.3310 O   0  0  0  0  0  0  0  0  0  0  0  0
  -29.2910  -23.0280   18.3950 H   0  0  0  0  0  0  0  0  0  0  0  0
  -28.7200  -25.2240   19.3680 C   0  0  0  0  0  2  0  0  0  0  0  0
  -28.5320  -26.4860   20.1460 O   0  0  0  0  0  0  0  0  0  0  0  0
  -24.5580  -31.7640   23.0880 C   0  0  0  0  0  0  0  0  0  0  0  0
  -27.3830  -27.2990   20.0440 C   0  0  0  0  0  0  0  0  0  0  0  0
  -23.4420  -30.3520   21.3980 C   0  0  0  0  0  3  0  0  0  0  0  0
  -24.9740  -28.8620   19.9910 C   0  0  0  0  0  0  0  0  0  0  0  0
  -25.9770  -30.7390   21.2910 C   0  0  0  0  0  2  0  0  0  0  0  0
  -26.1120  -29.3700   20.6270 C   0  0  0  0  0  0  0  0  0  0  0  0
  -27.3150  -28.5980   20.6460 C   0  0  0  0  0  3  0  0  0  0  0  0
  -26.2090  -26.8430   19.3980 C   0  0  0  0  0  3  0  0  0  0  0  0
  -25.0270  -27.6050   19.3710 C   0  0  0  0  0  3  0  0  0  0  0  0
  -23.7120  -29.7030   20.0160 C   0  0  0  0  0  2  0  0  0  0  0  0
  -24.6760  -30.9700   21.9830 N   0  0  0  0  0  0  0  0  0  0  0  0
  -23.4530  -32.0040   23.5930 O   0  0  0  0  0  0  0  0  0  0  0  0
  -22.7820  -29.3050   22.3270 C   0  0  0  0  0  0  0  0  0  0  0  0
  -21.4570  -29.1260   22.1930 N   0  0  0  0  0  0  0  0  0  0  0  0
  -23.4620  -28.6590   23.1280 O   0  0  0  0  0  0  0  0  0  0  0  0
  -20.9670  -29.7010   21.5210 H   0  0  0  0  0  0  0  0  0  0  0  0
  -18.0780  -27.9300   22.6840 C   0  0  0  0  0  0  0  0  0  0  0  0
  -20.6400  -28.1630   22.9360 C   0  0  0  0  0  3  0  0  0  0  0  0
  -20.7270  -26.7550   22.3030 C   0  0  0  0  0  2  0  0  0  0  0  0
  -19.6120  -26.4790   21.2880 C   0  0  0  0  0  2  0  0  0  0  0  0
  -18.2380  -26.6080   21.9520 C   0  0  0  0  0  2  0  0  0  0  0  0
  -19.2050  -28.6680   23.1310 C   0  0  0  0  0  0  0  0  0  0  0  0
  -19.0000  -29.9080   23.7750 C   0  0  0  0  0  3  0  0  0  0  0  0
  -17.7000  -30.4090   23.9750 C   0  0  0  0  0  3  0  0  0  0  0  0
  -16.5870  -29.6670   23.5440 C   0  0  0  0  0  3  0  0  0  0  0  0
  -16.7770  -28.4290   22.9030 C   0  0  0  0  0  3  0  0  0  0  0  0
  -25.8040  -32.4250   23.7530 C   0  0  0  0  0  3  0  0  0  0  0  0
  -25.4390  -33.8050   24.1060 N   0  0  0  0  0  0  0  0  0  0  0  0
  -25.7470  -34.8850   23.3750 C   0  0  0  0  0  0  0  0  0  0  0  0
  -26.4370  -34.8270   22.3530 O   0  0  0  0  0  0  0  0  0  0  0  0
  -24.8250  -33.9220   24.8990 H   0  0  0  0  0  0  0  0  0  0  0  0
  -23.9600  -36.6240   23.0320 C   0  0  0  0  0  1  0  0  0  0  0  0
  -25.2040  -36.2460   23.8540 C   0  0  0  0  0  3  0  0  0  0  0  0
  -27.2930  -37.1910   24.7320 C   0  0  0  0  0  1  0  0  0  0  0  0
  -26.2000  -37.3370   23.7760 N   0  0  0  0  0  0  0  0  0  0  0  0
  -25.7590  -38.2400   23.9340 H   0  0  0  0  0  0  0  0  0  0  0  0
  -26.3150  -31.6450   25.0270 C   0  0  1  0  0  0  0  0  0  0  0  0
  -25.2050  -31.3540   26.0640 C   0  0  0  0  0  1  0  0  0  0  0  0
  -26.9490  -30.2940   24.6240 C   0  0  0  0  0  1  0  0  0  0  0  0
  -27.4250  -32.4610   25.7300 C   0  0  0  0  0  1  0  0  0  0  0  0
  1 19  1  0
  2  7  1  0
  3  4  1  0
  3  2  1  0
  5  4  1  0
  5 23  1  0
  5  6  1  0
  7  1  1  0
  7  6  1  0
  8  1  2  0
  9 13  1  0
  9 11  1  0
 11 12  1  0
 12 10  2  0
 12 15  1  0
 13 14  2  0
 14 10  1  0
 16 11  2  0
 16 19  1  0
 17 15  2  0
 18 13  1  0
 19 17  1  0
 20 21  2  0
 21 40  1  0
 22 21  1  0
 22 25  1  0
 23 20  1  0
 23 24  1  0
 24 22  2  0
 25 26  1  0
 26 27  2  0
 28 31  1  0
 28 27  1  0
 29 28  2  0
 30 29  1  0
 30 25  2  0
 31 32  1  0
 32 33  1  0
 33 34  2  0
 35 34  1  0
 35 39  1  0
 36 35  2  0
 37 32  2  0
 37 36  1  0
 38 37  1  0
 40 41  1  0
 41 44  1  0
 41 43  1  0
 42 40  2  0
 45 46  1  0
 45 20  1  0
 47 45  1  0
 48 50  2  0
 49 14  1  0
 49 48  1  0
 51 49  1  0
 52 48  1  0
 52 53  1  0
 54 65  2  0
 55 53  1  0
 55 60  1  0
 56 64  1  0
 56 66  1  0
 57 63  1  0
 57 59  1  0
 58 64  1  0
 59 60  2  0
 59 58  1  0
 61 55  2  0
 62 61  1  0
 62 57  2  0
 63 56  1  0
 64 54  1  0
 66 68  2  0
 67 66  1  0
 69 67  1  0
 70 79  2  0
 70 75  1  0
 71 67  1  0
 71 75  1  0
 72 71  1  0
 73 74  1  0
 73 72  1  0
 74 70  1  0
 75 76  2  0
 76 77  1  0
 78 77  2  0
 79 78  1  0
 80 54  1  0
 80 81  1  0
 80 90  1  0
 81 84  1  0
 82 86  1  0
 82 81  1  0
 83 82  2  0
 86 85  1  0
 88 86  1  0
 88 89  1  0
 88 87  1  0
 90 93  1  1
 90 91  1  0
 92 90  1  0
M  ISO  4   1 100  19 100  52 101  53 101
M  END
>  <TORSDO>  (73) 
F 17

>  <SCORE>  (73) 
-14.248

>  <name>  (73) 
72

>  <ligand_id>  (73) 
72

>  <original_smiles>  (73) 
[H]c1c([H])c([H])c2c(c1[H])C([H])([H])C([H])([H])C([H])([H])C2([H])N([H])C(=O)C1([H])N(C(=O)C([H])(N([H])C(=O)C([H])(N([H])C([H])([H])[H])C([H])([H])[H])C(C([H])([H])[H])(C([H])([H])[H])C([H])([H])[H])C([H])([H])c2c([H])c(OC([H])([H])C(=O)N([H])c3c([H])c4c(c([H])c3C([H])([H])[H])C([H])([H])N(C(=O)N3C([H])([H])C([H])([H])C([H])([H])C([H])(n5nc(-c6c([H])c([H])c(Oc7c([H])c([H])c(F)c([H])c7F)c([H])c6[H])c(C(=O)N([H])[H])c5N([H])[H])C3([H])[H])C([H])([H])C4([H])[H])c([H])c([H])c2C1([H])[H]

>  <smiles>  (73) 
[H]c1c([H])c([H])c2c(c1[H])C([H])([H])C([H])([H])C([H])([H])C2([H])N([H])C(=O)C1([H])N(C(=O)C([H])(N([H])C(=O)C([H])(N([H])C([H])([H])[H])C([H])([H])[H])C(C([H])([H])[H])(C([H])([H])[H])C([H])([H])[H])C([H])([H])c2c([H])c(OC([H])([H])C(=O)N([H])c3c([H])c4c(c([H])c3C([H])([H])[H])C([H])([H])N(C(=O)N3C([H])([H])C([H])([H])C([H])([H])C([H])(n5nc(-c6c([H])c([H])c(Oc7c([H])c([H])c(F)c([H])c7F)c([H])c6[H])c(C(=O)N([H])[H])c5N([H])[H])C3([H])[H])C([H])([H])C4([H])[H])c([H])c([H])c2C1([H])[H]

$$$$
73:0:0
     RDKit          3D

 97105  0  0  1  0  0  0  0  0999 V2000
  -29.4400  -20.4380   19.7030 C   0  0  0  0  0  0  0  0  0  0  0  0
  -28.7440  -22.8830   19.5110 C   0  0  0  0  0  0  0  0  0  0  0  0
  -29.1690  -21.6810   20.2380 N   0  0  0  0  0  0  0  0  0  0  0  0
  -29.3400  -20.2210   18.3710 N   0  0  0  0  0  4  0  0  0  0  0  0
  -28.4950  -22.7980   18.3020 O   0  0  0  0  0  0  0  0  0  0  0  0
  -29.3290  -21.7400   21.2330 H   0  0  0  0  0  0  0  0  0  0  0  0
  -29.6510  -19.3700   17.9260 H   0  0  0  0  0  0  0  0  0  0  0  0
  -29.0070  -20.9740   17.7720 H   0  0  0  0  0  0  0  0  0  0  0  0
  -29.5980  -17.8830   20.2180 C   0  0  0  0  0  3  0  0  0  0  0  0
  -29.8910  -19.2670   20.5370 C   0  0  0  0  0  0  0  0  0  0  0  0
  -30.1670  -16.9430   21.0760 C   0  0  0  0  0  0  0  0  0  0  0  0
  -30.6660  -19.3610   21.6640 C   0  0  0  0  0  0  0  0  0  0  0  0
  -31.0530  -20.5220   22.2540 F   0  0  0  0  0  0  0  0  0  0  0  0
  -31.0910  -17.7930   22.3230 S   0  0  0  0  0  0  0  0  0  0  0  0
  -30.6390  -14.5840   20.4710 C   0  0  0  0  0  0  0  0  0  0  0  0
  -30.3700  -12.4020   19.3090 C   0  0  0  0  0  2  0  0  0  0  0  0
  -29.4410  -12.5950   18.0910 C   0  0  0  0  0  2  0  0  0  0  0  0
  -27.9600  -12.4390   18.5090 C   0  0  0  0  0  2  0  0  0  0  0  0
  -27.6080  -13.2680   19.7780 C   0  0  0  0  0  3  0  0  0  0  0  0
  -28.6590  -13.0600   20.8950 C   0  0  0  0  0  2  0  0  0  0  0  0
  -29.9840  -13.3890   20.3370 N   0  0  0  0  0  0  0  0  0  0  0  0
  -31.7480  -14.7810   19.9700 O   0  0  0  0  0  0  0  0  0  0  0  0
  -29.9560  -15.5800   21.1090 N   0  0  0  0  0  0  0  0  0  0  0  0
  -29.1050  -15.2810   21.5600 H   0  0  0  0  0  0  0  0  0  0  0  0
  -25.2060  -13.8560   20.4970 C   0  0  0  0  0  0  0  0  0  0  0  0
  -24.1470  -13.0810   20.8780 C   0  0  0  0  0  0  0  0  0  0  0  0
  -24.6090  -11.7290   20.8370 C   0  0  0  0  0  0  0  0  0  0  0  0
  -26.2570  -12.9790   20.2560 N   0  0  0  0  0  0  0  0  0  0  0  0
  -25.8970  -11.6950   20.5150 N   0  0  0  0  0  0  0  0  0  0  0  0
  -23.8800  -10.4680   21.0350 C   0  0  0  0  0  0  0  0  0  0  0  0
  -24.3180   -9.4960   21.9620 C   0  0  0  0  0  3  0  0  0  0  0  0
  -23.5990   -8.2940   22.1390 C   0  0  0  0  0  3  0  0  0  0  0  0
  -22.4170   -8.0610   21.3960 C   0  0  0  0  0  0  0  0  0  0  0  0
  -21.9970   -9.0160   20.4540 C   0  0  0  0  0  3  0  0  0  0  0  0
  -22.7190  -10.2070   20.2760 C   0  0  0  0  0  3  0  0  0  0  0  0
  -21.6600   -6.9200   21.4910 O   0  0  0  0  0  0  0  0  0  0  0  0
  -21.6250   -6.1790   22.6430 C   0  0  0  0  0  0  0  0  0  0  0  0
  -21.2040   -6.7260   23.8770 C   0  0  0  0  0  3  0  0  0  0  0  0
  -21.1230   -5.9030   25.0170 C   0  0  0  0  0  3  0  0  0  0  0  0
  -21.4440   -4.5360   24.9260 C   0  0  0  0  0  0  0  0  0  0  0  0
  -21.8540   -3.9880   23.6990 C   0  0  0  0  0  3  0  0  0  0  0  0
  -21.9430   -4.8080   22.5590 C   0  0  0  0  0  0  0  0  0  0  0  0
  -22.3240   -4.2700   21.3750 F   0  0  0  0  0  0  0  0  0  0  0  0
  -21.3500   -3.7430   26.0200 F   0  0  0  0  0  0  0  0  0  0  0  0
  -22.7510  -13.5550   21.1700 C   0  0  0  0  0  0  0  0  0  0  0  0
  -22.0190  -12.8560   22.0340 N   0  0  0  0  0  0  0  0  0  0  0  0
  -22.3120  -14.5850   20.6630 O   0  0  0  0  0  0  0  0  0  0  0  0
  -22.3710  -12.0200   22.4720 H   0  0  0  0  0  0  0  0  0  0  0  0
  -21.0800  -13.1600   22.2550 H   0  0  0  0  0  0  0  0  0  0  0  0
  -25.3670  -15.2280   20.3160 N   0  0  0  0  0  0  0  0  0  0  0  0
  -24.5910  -15.8750   20.4360 H   0  0  0  0  0  0  0  0  0  0  0  0
  -26.2040  -15.6800   19.9750 H   0  0  0  0  0  0  0  0  0  0  0  0
  -28.3380  -25.3160   19.6580 C   0  0  0  0  0  3  0  0  0  0  0  0
  -28.6710  -24.1450   20.2810 C   0  0  0  0  0  0  0  0  0  0  0  0
  -28.9530  -24.1380   21.5950 O   0  0  0  0  0  0  0  0  0  0  0  0
  -28.8680  -25.0290   21.9010 H   0  0  0  0  0  0  0  0  0  0  0  0
  -28.2980  -26.5770   20.2520 O   0  0  0  0  0  0  0  0  0  0  0  0
  -24.5800  -31.9010   23.2540 C   0  0  0  0  0  0  0  0  0  0  0  0
  -27.1600  -27.3750   20.1780 C   0  0  0  0  0  0  0  0  0  0  0  0
  -23.3590  -30.5020   21.6300 C   0  0  0  0  0  3  0  0  0  0  0  0
  -24.7930  -28.9540   20.1870 C   0  0  0  0  0  0  0  0  0  0  0  0
  -25.8910  -30.8270   21.4190 C   0  0  0  0  0  2  0  0  0  0  0  0
  -25.9600  -29.4530   20.7780 C   0  0  0  0  0  0  0  0  0  0  0  0
  -27.1450  -28.6700   20.7730 C   0  0  0  0  0  3  0  0  0  0  0  0
  -25.9710  -26.9170   19.5640 C   0  0  0  0  0  3  0  0  0  0  0  0
  -24.7960  -27.6920   19.5740 C   0  0  0  0  0  3  0  0  0  0  0  0
  -23.5520  -29.8160   20.2500 C   0  0  0  0  0  2  0  0  0  0  0  0
  -24.6300  -31.0900   22.1600 N   0  0  0  0  0  0  0  0  0  0  0  0
  -23.5030  -32.1850   23.7920 O   0  0  0  0  0  0  0  0  0  0  0  0
  -22.7000  -29.4890   22.5950 C   0  0  0  0  0  0  0  0  0  0  0  0
  -21.3750  -29.3170   22.4670 N   0  0  0  0  0  0  0  0  0  0  0  0
  -23.3780  -28.8670   23.4140 O   0  0  0  0  0  0  0  0  0  0  0  0
  -20.8890  -29.8740   21.7770 H   0  0  0  0  0  0  0  0  0  0  0  0
  -17.9900  -28.1490   22.9640 C   0  0  0  0  0  0  0  0  0  0  0  0
  -20.5470  -28.3860   23.2350 C   0  0  0  0  0  3  0  0  0  0  0  0
  -20.6380  -26.9560   22.6490 C   0  0  0  0  0  2  0  0  0  0  0  0
  -19.5310  -26.6450   21.6390 C   0  0  0  0  0  2  0  0  0  0  0  0
  -18.1520  -26.7980   22.2870 C   0  0  0  0  0  2  0  0  0  0  0  0
  -19.1140  -28.9010   23.3940 C   0  0  0  0  0  0  0  0  0  0  0  0
  -18.9070  -30.1650   23.9850 C   0  0  0  0  0  3  0  0  0  0  0  0
  -17.6070  -30.6780   24.1510 C   0  0  0  0  0  3  0  0  0  0  0  0
  -16.4960  -29.9200   23.7450 C   0  0  0  0  0  3  0  0  0  0  0  0
  -16.6880  -28.6560   23.1590 C   0  0  0  0  0  3  0  0  0  0  0  0
  -25.8680  -32.5260   23.8690 C   0  0  0  0  0  3  0  0  0  0  0  0
  -26.3840  -31.7450   25.1400 C   0  0  1  0  0  0  0  0  0  0  0  0
  -25.2860  -31.5040   26.2040 C   0  0  0  0  0  1  0  0  0  0  0  0
  -26.9540  -30.3630   24.7380 C   0  0  0  0  0  1  0  0  0  0  0  0
  -27.5480  -32.5220   25.7990 C   0  0  0  0  0  1  0  0  0  0  0  0
  -25.5710  -33.9250   24.2050 N   0  0  0  0  0  0  0  0  0  0  0  0
  -25.9000  -34.9760   23.4440 C   0  0  0  0  0  0  0  0  0  0  0  0
  -26.5610  -34.8740   22.4070 O   0  0  0  0  0  0  0  0  0  0  0  0
  -24.9850  -34.0780   25.0100 H   0  0  0  0  0  0  0  0  0  0  0  0
  -24.1800  -36.7790   23.0940 C   0  0  0  0  0  1  0  0  0  0  0  0
  -25.4210  -36.3660   23.9010 C   0  0  0  0  0  3  0  0  0  0  0  0
  -27.5660  -37.2420   24.7180 C   0  0  0  0  0  1  0  0  0  0  0  0
  -26.4570  -37.4160   23.7870 N   0  0  0  0  0  0  0  0  0  0  0  0
  -26.0540  -38.3400   23.9330 H   0  0  0  0  0  0  0  0  0  0  0  0
  1  3  1  0
  1 10  1  0
  2  3  1  0
  2 54  1  0
  3  6  1  0
  4  1  2  0
  5  2  2  0
  7  4  1  0
  8  4  1  0
  9 10  1  0
  9 11  2  0
 10 12  2  0
 11 23  1  0
 11 14  1  0
 12 13  1  0
 12 14  1  0
 15 23  1  0
 16 21  1  0
 17 18  1  0
 17 16  1  0
 19 18  1  0
 19 28  1  0
 19 20  1  0
 21 15  1  0
 21 20  1  0
 22 15  2  0
 23 24  1  0
 25 26  2  0
 26 45  1  0
 27 26  1  0
 27 30  1  0
 28 25  1  0
 28 29  1  0
 29 27  2  0
 30 31  1  0
 31 32  2  0
 33 36  1  0
 33 32  1  0
 34 33  2  0
 35 34  1  0
 35 30  2  0
 36 37  1  0
 37 38  1  0
 38 39  2  0
 40 39  1  0
 40 44  1  0
 41 40  2  0
 42 37  2  0
 42 41  1  0
 43 42  1  0
 45 46  1  0
 46 49  1  0
 46 48  1  0
 47 45  2  0
 50 51  1  0
 50 25  1  0
 52 50  1  0
 53 57  1  0
 53 54  2  0
 54 55  1  0
 55 56  1  0
 58 69  2  0
 59 57  1  0
 59 64  1  0
 60 68  1  0
 60 70  1  0
 61 67  1  0
 61 63  1  0
 62 68  1  0
 63 62  1  0
 64 63  2  0
 65 66  1  0
 65 59  2  0
 66 61  2  0
 67 60  1  0
 68 58  1  0
 70 72  2  0
 71 70  1  0
 73 71  1  0
 74 83  2  0
 74 79  1  0
 75 71  1  0
 75 79  1  0
 76 75  1  0
 77 78  1  0
 77 76  1  0
 78 74  1  0
 79 80  2  0
 80 81  1  0
 82 81  2  0
 83 82  1  0
 84 58  1  0
 84 89  1  0
 84 85  1  0
 85 88  1  1
 85 86  1  0
 87 85  1  0
 89 92  1  0
 90 94  1  0
 90 89  1  0
 91 90  2  0
 94 93  1  0
 96 94  1  0
 96 97  1  0
 96 95  1  0
M  ISO  4  15 100  23 100  53 101  57 101
M  END
>  <TORSDO>  (74) 
F 19

>  <SCORE>  (74) 
-14.531

>  <name>  (74) 
73

>  <ligand_id>  (74) 
73

>  <original_smiles>  (74) 
[H]OC(C(=O)N([H])C(c1c(F)sc(N([H])C(=O)N2C([H])([H])C([H])([H])C([H])([H])C([H])(n3nc(-c4c([H])c([H])c(Oc5c([H])c([H])c(F)c([H])c5F)c([H])c4[H])c(C(=O)N([H])[H])c3N([H])[H])C2([H])[H])c1[H])=[N+]([H])[H])=C([H])Oc1c([H])c([H])c2c(c1[H])C([H])([H])N(C(=O)C([H])(N([H])C(=O)C([H])(N([H])C([H])([H])[H])C([H])([H])[H])C(C([H])([H])[H])(C([H])([H])[H])C([H])([H])[H])C([H])(C(=O)N([H])C1([H])c3c([H])c([H])c([H])c([H])c3C([H])([H])C([H])([H])C1([H])[H])C2([H])[H]

>  <smiles>  (74) 
[H]OC(C(=O)N([H])C(c1c(F)sc(N([H])C(=O)N2C([H])([H])C([H])([H])C([H])([H])C([H])(n3nc(-c4c([H])c([H])c(Oc5c([H])c([H])c(F)c([H])c5F)c([H])c4[H])c(C(=O)N([H])[H])c3N([H])[H])C2([H])[H])c1[H])=[N+]([H])[H])=C([H])Oc1c([H])c([H])c2c(c1[H])C([H])([H])N(C(=O)C([H])(N([H])C(=O)C([H])(N([H])C([H])([H])[H])C([H])([H])[H])C(C([H])([H])[H])(C([H])([H])[H])C([H])([H])[H])C([H])(C(=O)N([H])C1([H])c3c([H])c([H])c([H])c([H])c3C([H])([H])C([H])([H])C1([H])[H])C2([H])[H]

$$$$
74:0:0
     RDKit          3D

 95104  0  0  1  0  0  0  0  0999 V2000
  -31.4310  -23.5770   21.5920 C   0  0  0  0  0  2  0  0  0  0  0  0
  -31.4100  -22.1330   21.0660 C   0  0  0  0  0  2  0  0  0  0  0  0
  -30.6790  -24.5230   20.6400 C   0  0  0  0  0  2  0  0  0  0  0  0
  -29.9700  -21.6140   20.8340 C   0  0  0  0  0  3  0  0  0  0  0  0
  -29.2300  -24.0470   20.4050 C   0  0  0  0  0  3  0  0  0  0  0  0
  -29.2320  -22.5870   19.9350 N   0  0  0  0  0  4  0  0  0  0  0  0
  -28.2820  -22.2660   19.8500 H   0  0  0  0  0  0  0  0  0  0  0  0
  -29.6390  -22.5280   19.0150 H   0  0  0  0  0  0  0  0  0  0  0  0
  -31.0890  -19.3120   20.1340 C   0  0  0  0  0  3  0  0  0  0  0  0
  -31.1050  -17.8820   20.0910 C   0  0  0  0  0  3  0  0  0  0  0  0
  -28.7830  -19.2850   20.8040 C   0  0  0  0  0  3  0  0  0  0  0  0
  -29.9370  -20.0610   20.5230 C   0  0  0  0  0  0  0  0  0  0  0  0
  -29.9540  -17.1190   20.4190 C   0  0  0  0  0  0  0  0  0  0  0  0
  -28.7920  -17.8610   20.7490 C   0  0  0  0  0  0  0  0  0  0  0  0
  -27.6560  -17.1850   21.0520 F   0  0  0  0  0  0  0  0  0  0  0  0
  -30.5980  -14.6390   19.9350 C   0  0  0  0  0  0  0  0  0  0  0  0
  -30.2760  -12.4450   18.8040 C   0  0  0  0  0  2  0  0  0  0  0  0
  -29.2410  -12.6320   17.6730 C   0  0  0  0  0  2  0  0  0  0  0  0
  -27.8030  -12.4790   18.2090 C   0  0  0  0  0  2  0  0  0  0  0  0
  -27.5560  -13.3040   19.4980 C   0  0  0  0  0  3  0  0  0  0  0  0
  -28.6920  -13.0820   20.5240 C   0  0  0  0  0  2  0  0  0  0  0  0
  -29.9630  -13.4260   19.8630 N   0  0  0  0  0  0  0  0  0  0  0  0
  -31.7170  -14.8100   19.4400 O   0  0  0  0  0  0  0  0  0  0  0  0
  -29.8490  -15.6610   20.4460 N   0  0  0  0  0  0  0  0  0  0  0  0
  -28.9860  -15.3420   20.8590 H   0  0  0  0  0  0  0  0  0  0  0  0
  -25.2250  -13.9190   20.3900 C   0  0  0  0  0  0  0  0  0  0  0  0
  -24.1760  -13.1520   20.8190 C   0  0  0  0  0  0  0  0  0  0  0  0
  -24.6180  -11.7960   20.7330 C   0  0  0  0  0  0  0  0  0  0  0  0
  -26.2400  -13.0320   20.0710 N   0  0  0  0  0  0  0  0  0  0  0  0
  -25.8830  -11.7490   20.3350 N   0  0  0  0  0  0  0  0  0  0  0  0
  -23.8920  -10.5390   20.9520 C   0  0  0  0  0  0  0  0  0  0  0  0
  -24.3630   -9.5610   21.8570 C   0  0  0  0  0  3  0  0  0  0  0  0
  -23.6360   -8.3690   22.0640 C   0  0  0  0  0  3  0  0  0  0  0  0
  -22.4260   -8.1450   21.3650 C   0  0  0  0  0  0  0  0  0  0  0  0
  -21.9750   -9.1110   20.4480 C   0  0  0  0  0  3  0  0  0  0  0  0
  -22.7010  -10.2950   20.2400 C   0  0  0  0  0  3  0  0  0  0  0  0
  -21.6680   -7.0060   21.4830 O   0  0  0  0  0  0  0  0  0  0  0  0
  -21.6470   -6.2710   22.6410 C   0  0  0  0  0  0  0  0  0  0  0  0
  -21.2720   -6.8400   23.8770 C   0  0  0  0  0  3  0  0  0  0  0  0
  -21.1970   -6.0330   25.0300 C   0  0  0  0  0  3  0  0  0  0  0  0
  -21.4880   -4.6590   24.9480 C   0  0  0  0  0  0  0  0  0  0  0  0
  -21.8570   -4.0890   23.7170 C   0  0  0  0  0  3  0  0  0  0  0  0
  -21.9330   -4.8930   22.5660 C   0  0  0  0  0  0  0  0  0  0  0  0
  -22.2680   -4.3350   21.3790 F   0  0  0  0  0  0  0  0  0  0  0  0
  -21.4090   -3.8810   26.0540 F   0  0  0  0  0  0  0  0  0  0  0  0
  -22.8080  -13.6390   21.1990 C   0  0  0  0  0  0  0  0  0  0  0  0
  -22.1410  -12.9420   22.1130 N   0  0  0  0  0  0  0  0  0  0  0  0
  -22.3420  -14.6740   20.7230 O   0  0  0  0  0  0  0  0  0  0  0  0
  -22.5300  -12.1030   22.5160 H   0  0  0  0  0  0  0  0  0  0  0  0
  -21.2280  -13.2540   22.4150 H   0  0  0  0  0  0  0  0  0  0  0  0
  -25.3920  -15.2910   20.2270 N   0  0  0  0  0  0  0  0  0  0  0  0
  -24.6550  -15.9530   20.4410 H   0  0  0  0  0  0  0  0  0  0  0  0
  -26.2450  -15.7390   19.9220 H   0  0  0  0  0  0  0  0  0  0  0  0
  -28.4120  -25.0770   19.5090 C   0  0  0  0  0  2  0  0  0  0  0  0
  -28.4420  -26.5100   19.8920 O   0  0  0  0  0  0  0  0  0  0  0  0
  -24.5020  -31.6390   23.0440 C   0  0  0  0  0  0  0  0  0  0  0  0
  -27.2810  -27.2960   19.8350 C   0  0  0  0  0  0  0  0  0  0  0  0
  -23.3500  -30.2590   21.3490 C   0  0  0  0  0  3  0  0  0  0  0  0
  -24.8590  -28.8190   19.8700 C   0  0  0  0  0  0  0  0  0  0  0  0
  -25.8760  -30.6750   21.1870 C   0  0  0  0  0  2  0  0  0  0  0  0
  -26.0050  -29.3270   20.4920 C   0  0  0  0  0  0  0  0  0  0  0  0
  -27.2150  -28.5730   20.4710 C   0  0  0  0  0  3  0  0  0  0  0  0
  -26.1140  -26.8500   19.1710 C   0  0  0  0  0  3  0  0  0  0  0  0
  -24.9140  -27.5880   19.2000 C   0  0  0  0  0  3  0  0  0  0  0  0
  -23.5910  -29.6440   19.9460 C   0  0  0  0  0  2  0  0  0  0  0  0
  -24.5940  -30.8740   21.9180 N   0  0  0  0  0  0  0  0  0  0  0  0
  -23.4090  -31.8580   23.5850 O   0  0  0  0  0  0  0  0  0  0  0  0
  -22.7250  -29.1840   22.2680 C   0  0  0  0  0  0  0  0  0  0  0  0
  -21.4010  -28.9860   22.1520 N   0  0  0  0  0  0  0  0  0  0  0  0
  -23.4290  -28.5330   23.0440 O   0  0  0  0  0  0  0  0  0  0  0  0
  -20.8930  -29.5660   21.5010 H   0  0  0  0  0  0  0  0  0  0  0  0
  -18.0480  -27.7350   22.6640 C   0  0  0  0  0  0  0  0  0  0  0  0
  -20.6090  -27.9990   22.8880 C   0  0  0  0  0  3  0  0  0  0  0  0
  -20.7070  -26.6040   22.2300 C   0  0  0  0  0  2  0  0  0  0  0  0
  -19.5830  -26.3290   21.2260 C   0  0  0  0  0  2  0  0  0  0  0  0
  -18.2170  -26.4260   21.9120 C   0  0  0  0  0  2  0  0  0  0  0  0
  -19.1710  -28.4810   23.1100 C   0  0  0  0  0  0  0  0  0  0  0  0
  -18.9590  -29.7070   23.7750 C   0  0  0  0  0  3  0  0  0  0  0  0
  -17.6560  -30.1880   24.0030 C   0  0  0  0  0  3  0  0  0  0  0  0
  -16.5460  -29.4370   23.5760 C   0  0  0  0  0  3  0  0  0  0  0  0
  -16.7440  -28.2120   22.9120 C   0  0  0  0  0  3  0  0  0  0  0  0
  -25.7630  -32.2900   23.6910 C   0  0  0  0  0  3  0  0  0  0  0  0
  -25.4090  -33.6660   24.0660 N   0  0  0  0  0  0  0  0  0  0  0  0
  -25.7140  -34.7530   23.3450 C   0  0  0  0  0  0  0  0  0  0  0  0
  -26.3900  -34.7040   22.3130 O   0  0  0  0  0  0  0  0  0  0  0  0
  -24.8100  -33.7750   24.8710 H   0  0  0  0  0  0  0  0  0  0  0  0
  -23.9240  -36.4960   23.0500 C   0  0  0  0  0  1  0  0  0  0  0  0
  -25.1800  -36.1100   23.8470 C   0  0  0  0  0  3  0  0  0  0  0  0
  -27.2850  -37.0420   24.7010 C   0  0  0  0  0  1  0  0  0  0  0  0
  -26.1750  -37.2000   23.7650 N   0  0  0  0  0  0  0  0  0  0  0  0
  -25.7390  -38.1010   23.9390 H   0  0  0  0  0  0  0  0  0  0  0  0
  -26.3000  -31.4930   24.9420 C   0  0  1  0  0  0  0  0  0  0  0  0
  -25.2120  -31.1890   26.0000 C   0  0  0  0  0  1  0  0  0  0  0  0
  -26.9260  -30.1480   24.5070 C   0  0  0  0  0  1  0  0  0  0  0  0
  -27.4240  -32.2990   25.6350 C   0  0  0  0  0  1  0  0  0  0  0  0
  2  1  1  0
  3  1  1  0
  4 12  1  0
  4  2  1  0
  5 54  1  0
  5  3  1  0
  6  5  1  0
  6  4  1  0
  7  6  1  0
  8  6  1  0
  9 12  1  0
 10  9  2  0
 10 13  1  0
 12 11  2  0
 13 24  1  0
 13 14  2  0
 14 11  1  0
 14 15  1  0
 16 24  1  0
 17 22  1  0
 18 19  1  0
 18 17  1  0
 20 19  1  0
 20 29  1  0
 20 21  1  0
 22 16  1  0
 22 21  1  0
 23 16  2  0
 24 25  1  0
 26 27  2  0
 27 46  1  0
 28 27  1  0
 28 31  1  0
 29 30  1  0
 29 26  1  0
 30 28  2  0
 31 32  1  0
 32 33  2  0
 34 37  1  0
 34 33  1  0
 35 34  2  0
 36 35  1  0
 36 31  2  0
 37 38  1  0
 38 39  1  0
 39 40  2  0
 41 40  1  0
 41 45  1  0
 42 41  2  0
 43 38  2  0
 43 42  1  0
 44 43  1  0
 46 47  1  0
 47 50  1  0
 47 49  1  0
 48 46  2  0
 51 26  1  0
 51 52  1  0
 53 51  1  0
 54 55  1  0
 56 67  2  0
 57 55  1  0
 57 62  1  0
 58 66  1  0
 58 68  1  0
 59 65  1  0
 59 61  1  0
 60 66  1  0
 61 60  1  0
 62 61  2  0
 63 64  1  0
 63 57  2  0
 64 59  2  0
 65 58  1  0
 66 56  1  0
 68 70  2  0
 69 68  1  0
 71 69  1  0
 72 81  2  0
 72 77  1  0
 73 69  1  0
 73 77  1  0
 74 73  1  0
 75 76  1  0
 75 74  1  0
 76 72  1  0
 77 78  2  0
 78 79  1  0
 80 79  2  0
 81 80  1  0
 82 56  1  0
 82 83  1  0
 82 92  1  0
 83 86  1  0
 84 88  1  0
 84 83  1  0
 85 84  2  0
 88 87  1  0
 90 88  1  0
 90 91  1  0
 90 89  1  0
 92 95  1  1
 92 93  1  0
 94 92  1  0
M  ISO  4  16 100  24 100  54 101  55 101
M  END
>  <TORSDO>  (75) 
F 18

>  <SCORE>  (75) 
-13.401

>  <name>  (75) 
74

>  <ligand_id>  (75) 
74

>  <original_smiles>  (75) 
[H]c1c([H])c([H])c2c(c1[H])C([H])([H])C([H])([H])C([H])([H])C2([H])N([H])C(=O)C1([H])N(C(=O)C([H])(N([H])C(=O)C([H])(N([H])C([H])([H])[H])C([H])([H])[H])C(C([H])([H])[H])(C([H])([H])[H])C([H])([H])[H])C([H])([H])c2c([H])c(OC([H])([H])C3([H])C([H])([H])C([H])([H])C([H])([H])C([H])(c4c([H])c([H])c(N([H])C(=O)N5C([H])([H])C([H])([H])C([H])([H])C([H])(n6nc(-c7c([H])c([H])c(Oc8c([H])c([H])c(F)c([H])c8F)c([H])c7[H])c(C(=O)N([H])[H])c6N([H])[H])C5([H])[H])c(F)c4[H])[N+]3([H])[H])c([H])c([H])c2C1([H])[H]

>  <smiles>  (75) 
[H]c1c([H])c([H])c2c(c1[H])C([H])([H])C([H])([H])C([H])([H])C2([H])N([H])C(=O)C1([H])N(C(=O)C([H])(N([H])C(=O)C([H])(N([H])C([H])([H])[H])C([H])([H])[H])C(C([H])([H])[H])(C([H])([H])[H])C([H])([H])[H])C([H])([H])c2c([H])c(OC([H])([H])C3([H])C([H])([H])C([H])([H])C([H])([H])C([H])(c4c([H])c([H])c(N([H])C(=O)N5C([H])([H])C([H])([H])C([H])([H])C([H])(n6nc(-c7c([H])c([H])c(Oc8c([H])c([H])c(F)c([H])c8F)c([H])c7[H])c(C(=O)N([H])[H])c6N([H])[H])C5([H])[H])c(F)c4[H])[N+]3([H])[H])c([H])c([H])c2C1([H])[H]

$$$$
75:0:0
     RDKit          3D

 92101  0  0  1  0  0  0  0  0999 V2000
  -28.4770  -23.5450   19.7930 C   0  0  0  0  0  0  0  0  0  0  0  0
  -31.8510  -22.8310   20.0150 C   0  0  0  0  0  2  0  0  0  0  0  0
  -31.5590  -21.3590   19.7260 C   0  0  0  0  0  2  0  0  0  0  0  0
  -30.6570  -23.1900   20.8840 C   0  0  0  0  0  2  0  0  0  0  0  0
  -30.0120  -21.2900   19.5540 C   0  0  0  0  0  3  0  0  0  0  0  0
  -29.5150  -22.6600   20.1490 N   0  0  0  0  0  0  0  0  0  0  0  0
  -27.3570  -23.0710   19.5640 O   0  0  0  0  0  0  0  0  0  0  0  0
  -30.5980  -14.9250   20.3320 C   0  0  0  0  0  0  0  0  0  0  0  0
  -30.5250  -12.5940   19.3800 C   0  0  0  0  0  2  0  0  0  0  0  0
  -29.5890  -12.6200   18.1460 C   0  0  0  0  0  2  0  0  0  0  0  0
  -28.1130  -12.4230   18.5530 C   0  0  0  0  0  2  0  0  0  0  0  0
  -27.7110  -13.3000   19.7710 C   0  0  0  0  0  3  0  0  0  0  0  0
  -28.7690  -13.2290   20.8950 C   0  0  0  0  0  2  0  0  0  0  0  0
  -30.0590  -13.6480   20.3190 N   0  0  0  0  0  0  0  0  0  0  0  0
  -31.7740  -15.0840   19.9860 O   0  0  0  0  0  0  0  0  0  0  0  0
  -28.1220  -19.5710   20.0730 C   0  0  0  0  0  3  0  0  0  0  0  0
  -29.4590  -19.8290   19.9530 C   0  0  0  0  0  0  0  0  0  0  0  0
  -29.4420  -17.4180   20.3180 C   0  0  0  0  0  0  0  0  0  0  0  0
  -30.2030  -18.5550   20.0660 N   0  0  0  0  0  0  0  0  0  0  0  0
  -29.7310  -15.9760   20.6510 N   0  0  0  0  0  0  0  0  0  0  0  0
  -27.7420  -17.8890   20.4030 S   0  0  0  0  0  0  0  0  0  0  0  0
  -28.9030  -15.5610   21.0520 H   0  0  0  0  0  0  0  0  0  0  0  0
  -25.3030  -13.8620   20.4660 C   0  0  0  0  0  0  0  0  0  0  0  0
  -24.2390  -13.0790   20.8280 C   0  0  0  0  0  0  0  0  0  0  0  0
  -24.7170  -11.7330   20.8090 C   0  0  0  0  0  0  0  0  0  0  0  0
  -26.3610  -12.9950   20.2490 N   0  0  0  0  0  0  0  0  0  0  0  0
  -26.0130  -11.7090   20.5160 N   0  0  0  0  0  0  0  0  0  0  0  0
  -23.9950  -10.4650   20.9920 C   0  0  0  0  0  0  0  0  0  0  0  0
  -24.4060   -9.5170   21.9570 C   0  0  0  0  0  3  0  0  0  0  0  0
  -23.6890   -8.3140   22.1300 C   0  0  0  0  0  3  0  0  0  0  0  0
  -22.5450   -8.0520   21.3400 C   0  0  0  0  0  0  0  0  0  0  0  0
  -22.1500   -8.9890   20.3680 C   0  0  0  0  0  3  0  0  0  0  0  0
  -22.8670  -10.1830   20.1950 C   0  0  0  0  0  3  0  0  0  0  0  0
  -21.7970   -6.9000   21.4230 O   0  0  0  0  0  0  0  0  0  0  0  0
  -21.6920   -6.1910   22.5920 C   0  0  0  0  0  0  0  0  0  0  0  0
  -21.1730   -6.7690   23.7720 C   0  0  0  0  0  3  0  0  0  0  0  0
  -21.0220   -5.9840   24.9310 C   0  0  0  0  0  3  0  0  0  0  0  0
  -21.3810   -4.6220   24.9130 C   0  0  0  0  0  0  0  0  0  0  0  0
  -21.8880   -4.0430   23.7360 C   0  0  0  0  0  3  0  0  0  0  0  0
  -22.0430   -4.8260   22.5800 C   0  0  0  0  0  0  0  0  0  0  0  0
  -22.5170   -4.2590   21.4450 F   0  0  0  0  0  0  0  0  0  0  0  0
  -21.2260   -3.8650   26.0230 F   0  0  0  0  0  0  0  0  0  0  0  0
  -22.8340  -13.5460   21.0790 C   0  0  0  0  0  0  0  0  0  0  0  0
  -22.0930  -12.8510   21.9350 N   0  0  0  0  0  0  0  0  0  0  0  0
  -22.3970  -14.5680   20.5490 O   0  0  0  0  0  0  0  0  0  0  0  0
  -22.4510  -12.0200   22.3870 H   0  0  0  0  0  0  0  0  0  0  0  0
  -21.1500  -13.1530   22.1420 H   0  0  0  0  0  0  0  0  0  0  0  0
  -25.4520  -15.2300   20.2800 N   0  0  0  0  0  0  0  0  0  0  0  0
  -24.6630  -15.8650   20.3300 H   0  0  0  0  0  0  0  0  0  0  0  0
  -26.2890  -15.6650   19.9130 H   0  0  0  0  0  0  0  0  0  0  0  0
  -28.6820  -25.1310   19.4000 C   0  0  0  0  0  2  0  0  0  0  0  0
  -28.3420  -26.3360   20.2740 O   0  0  0  0  0  0  0  0  0  0  0  0
  -24.6090  -31.8700   23.1910 C   0  0  0  0  0  0  0  0  0  0  0  0
  -27.2490  -27.2470   20.1270 C   0  0  0  0  0  0  0  0  0  0  0  0
  -23.4180  -30.4710   21.5440 C   0  0  0  0  0  3  0  0  0  0  0  0
  -24.8790  -28.9110   20.1110 C   0  0  0  0  0  0  0  0  0  0  0  0
  -25.9630  -30.7700   21.3810 C   0  0  0  0  0  2  0  0  0  0  0  0
  -26.0450  -29.3860   20.7220 C   0  0  0  0  0  0  0  0  0  0  0  0
  -27.2210  -28.5600   20.7290 C   0  0  0  0  0  3  0  0  0  0  0  0
  -26.0580  -26.8510   19.4790 C   0  0  0  0  0  3  0  0  0  0  0  0
  -24.8930  -27.6540   19.4810 C   0  0  0  0  0  3  0  0  0  0  0  0
  -23.6410  -29.7920   20.1630 C   0  0  0  0  0  2  0  0  0  0  0  0
  -24.6820  -31.0600   22.0930 N   0  0  0  0  0  0  0  0  0  0  0  0
  -23.5220  -32.1440   23.7250 O   0  0  0  0  0  0  0  0  0  0  0  0
  -22.7430  -29.4620   22.5080 C   0  0  0  0  0  0  0  0  0  0  0  0
  -21.4160  -29.2900   22.3910 N   0  0  0  0  0  0  0  0  0  0  0  0
  -23.4210  -28.8340   23.3250 O   0  0  0  0  0  0  0  0  0  0  0  0
  -20.9220  -29.8440   21.7040 H   0  0  0  0  0  0  0  0  0  0  0  0
  -18.0370  -28.1000   22.9230 C   0  0  0  0  0  0  0  0  0  0  0  0
  -20.6010  -28.3480   23.1650 C   0  0  0  0  0  3  0  0  0  0  0  0
  -20.6910  -26.9220   22.5750 C   0  0  0  0  0  2  0  0  0  0  0  0
  -19.5770  -26.6140   21.5710 C   0  0  0  0  0  2  0  0  0  0  0  0
  -18.2000  -26.7590   22.2280 C   0  0  0  0  0  2  0  0  0  0  0  0
  -19.1620  -28.8520   23.3490 C   0  0  0  0  0  0  0  0  0  0  0  0
  -18.9550  -30.1070   23.9620 C   0  0  0  0  0  3  0  0  0  0  0  0
  -17.6530  -30.6120   24.1450 C   0  0  0  0  0  3  0  0  0  0  0  0
  -16.5420  -29.8560   23.7380 C   0  0  0  0  0  3  0  0  0  0  0  0
  -16.7330  -28.6020   23.1320 C   0  0  0  0  0  3  0  0  0  0  0  0
  -25.8840  -32.5120   23.8200 C   0  0  0  0  0  3  0  0  0  0  0  0
  -25.5690  -33.9100   24.1490 N   0  0  0  0  0  0  0  0  0  0  0  0
  -25.9030  -34.9680   23.3990 C   0  0  0  0  0  0  0  0  0  0  0  0
  -26.5770  -34.8720   22.3700 O   0  0  0  0  0  0  0  0  0  0  0  0
  -24.9750  -34.0590   24.9520 H   0  0  0  0  0  0  0  0  0  0  0  0
  -24.1820  -36.7680   23.0390 C   0  0  0  0  0  1  0  0  0  0  0  0
  -25.4110  -36.3540   23.8630 C   0  0  0  0  0  3  0  0  0  0  0  0
  -27.5340  -37.2340   24.7320 C   0  0  0  0  0  1  0  0  0  0  0  0
  -26.4450  -37.4080   23.7720 N   0  0  0  0  0  0  0  0  0  0  0  0
  -26.0370  -38.3260   23.9190 H   0  0  0  0  0  0  0  0  0  0  0  0
  -26.3970  -31.7480   25.1030 C   0  0  1  0  0  0  0  0  0  0  0  0
  -25.2990  -31.5140   26.1660 C   0  0  0  0  0  1  0  0  0  0  0  0
  -26.9860  -30.3690   24.7260 C   0  0  0  0  0  1  0  0  0  0  0  0
  -27.5410  -32.5460   25.7690 C   0  0  0  0  0  1  0  0  0  0  0  0
  1  6  1  0
  2  4  1  0
  3  2  1  0
  5  3  1  0
  5 17  1  0
  5  6  1  0
  6  4  1  0
  7  1  2  0
  8 20  1  0
  9 14  1  0
 10 11  1  0
 10  9  1  0
 12 11  1  0
 12 26  1  0
 12 13  1  0
 14  8  1  0
 14 13  1  0
 15  8  2  0
 16 21  1  0
 17 19  1  0
 17 16  2  0
 18 21  1  0
 18 20  1  0
 19 18  2  0
 20 22  1  0
 23 24  2  0
 24 43  1  0
 25 24  1  0
 25 28  1  0
 26 23  1  0
 26 27  1  0
 27 25  2  0
 28 29  1  0
 29 30  2  0
 31 34  1  0
 31 30  1  0
 32 31  2  0
 33 32  1  0
 33 28  2  0
 34 35  1  0
 35 36  1  0
 36 37  2  0
 38 37  1  0
 38 42  1  0
 39 38  2  0
 40 35  2  0
 40 39  1  0
 41 40  1  0
 43 44  1  0
 44 47  1  0
 44 46  1  0
 45 43  2  0
 48 49  1  0
 48 23  1  0
 50 48  1  0
 51  1  1  0
 51 52  1  0
 53 64  2  0
 54 52  1  0
 54 59  1  0
 55 63  1  0
 55 65  1  0
 56 62  1  0
 56 58  1  0
 57 63  1  0
 58 59  2  0
 58 57  1  0
 60 61  1  0
 60 54  2  0
 61 56  2  0
 62 55  1  0
 63 53  1  0
 65 67  2  0
 66 65  1  0
 68 66  1  0
 69 78  2  0
 69 74  1  0
 70 66  1  0
 70 74  1  0
 71 70  1  0
 72 73  1  0
 72 71  1  0
 73 69  1  0
 74 75  2  0
 75 76  1  0
 77 76  2  0
 78 77  1  0
 79 53  1  0
 79 80  1  0
 79 89  1  0
 80 83  1  0
 81 85  1  0
 81 80  1  0
 82 81  2  0
 85 84  1  0
 87 85  1  0
 87 88  1  0
 87 86  1  0
 89 92  1  1
 89 90  1  0
 91 89  1  0
M  ISO  4   8 100  20 100  51 101  52 101
M  END
>  <TORSDO>  (76) 
F 17

>  <SCORE>  (76) 
-15.114

>  <name>  (76) 
75

>  <ligand_id>  (76) 
75

>  <original_smiles>  (76) 
[H]c1sc(N([H])C(=O)N2C([H])([H])C([H])([H])C([H])([H])C([H])(n3nc(-c4c([H])c([H])c(Oc5c([H])c([H])c(F)c([H])c5F)c([H])c4[H])c(C(=O)N([H])[H])c3N([H])[H])C2([H])[H])nc1C1([H])N(C(=O)C([H])([H])Oc2c([H])c([H])c3c(c2[H])C([H])([H])N(C(=O)C([H])(N([H])C(=O)C([H])(N([H])C([H])([H])[H])C([H])([H])[H])C(C([H])([H])[H])(C([H])([H])[H])C([H])([H])[H])C([H])(C(=O)N([H])C2([H])c4c([H])c([H])c([H])c([H])c4C([H])([H])C([H])([H])C2([H])[H])C3([H])[H])C([H])([H])C([H])([H])C1([H])[H]

>  <smiles>  (76) 
[H]c1sc(N([H])C(=O)N2C([H])([H])C([H])([H])C([H])([H])C([H])(n3nc(-c4c([H])c([H])c(Oc5c([H])c([H])c(F)c([H])c5F)c([H])c4[H])c(C(=O)N([H])[H])c3N([H])[H])C2([H])[H])nc1C1([H])N(C(=O)C([H])([H])Oc2c([H])c([H])c3c(c2[H])C([H])([H])N(C(=O)C([H])(N([H])C(=O)C([H])(N([H])C([H])([H])[H])C([H])([H])[H])C(C([H])([H])[H])(C([H])([H])[H])C([H])([H])[H])C([H])(C(=O)N([H])C2([H])c4c([H])c([H])c([H])c([H])c4C([H])([H])C([H])([H])C2([H])[H])C3([H])[H])C([H])([H])C([H])([H])C1([H])[H]

$$$$
76:0:0
     RDKit          3D

100109  0  0  1  0  0  0  0  0999 V2000
  -28.5910  -22.5800   19.5010 C   0  0  0  0  0  0  0  0  0  0  0  0
  -28.7860  -23.8140   20.0680 C   0  0  0  0  0  0  0  0  0  0  0  0
  -29.5040  -23.5940   21.3800 C   0  0  0  0  0  2  0  0  0  0  0  0
  -29.0270  -21.3710   20.3960 C   0  0  0  0  0  3  0  0  0  0  0  0
  -29.8170  -22.1210   21.4160 N   0  0  0  0  0  4  0  0  0  0  0  0
  -29.6660  -21.7470   22.3380 H   0  0  0  0  0  0  0  0  0  0  0  0
  -30.7960  -22.0030   21.2030 H   0  0  0  0  0  0  0  0  0  0  0  0
  -31.4730  -19.0760   18.4020 C   0  0  0  0  0  3  0  0  0  0  0  0
  -30.7640  -20.1900   18.8900 C   0  0  0  0  0  3  0  0  0  0  0  0
  -31.1960  -17.7650   18.8530 C   0  0  0  0  0  3  0  0  0  0  0  0
  -29.4600  -18.6730   20.2850 C   0  0  0  0  0  3  0  0  0  0  0  0
  -29.7420  -20.0430   19.8510 C   0  0  0  0  0  0  0  0  0  0  0  0
  -30.1880  -17.4970   19.8170 C   0  0  0  0  0  0  0  0  0  0  0  0
  -30.6340  -14.9150   20.1030 C   0  0  0  0  0  0  0  0  0  0  0  0
  -30.3760  -12.6230   19.1650 C   0  0  0  0  0  2  0  0  0  0  0  0
  -29.4050  -12.6910   17.9690 C   0  0  0  0  0  2  0  0  0  0  0  0
  -27.9420  -12.5410   18.4350 C   0  0  0  0  0  2  0  0  0  0  0  0
  -27.6070  -13.4090   19.6790 C   0  0  0  0  0  3  0  0  0  0  0  0
  -28.7090  -13.3550   20.7580 C   0  0  0  0  0  2  0  0  0  0  0  0
  -29.9830  -13.6970   20.1060 N   0  0  0  0  0  0  0  0  0  0  0  0
  -31.8280  -14.9470   19.7960 O   0  0  0  0  0  0  0  0  0  0  0  0
  -29.8970  -16.0880   20.2410 N   0  0  0  0  0  0  0  0  0  0  0  0
  -28.9680  -15.9370   20.6070 H   0  0  0  0  0  0  0  0  0  0  0  0
  -25.2480  -13.9750   20.5240 C   0  0  0  0  0  0  0  0  0  0  0  0
  -24.1960  -13.1930   20.9180 C   0  0  0  0  0  0  0  0  0  0  0  0
  -24.6550  -11.8420   20.8330 C   0  0  0  0  0  0  0  0  0  0  0  0
  -26.2800  -13.1040   20.2210 N   0  0  0  0  0  0  0  0  0  0  0  0
  -25.9340  -11.8120   20.4710 N   0  0  0  0  0  0  0  0  0  0  0  0
  -23.9310  -10.5780   21.0230 C   0  0  0  0  0  0  0  0  0  0  0  0
  -24.3650   -9.6050   21.9520 C   0  0  0  0  0  3  0  0  0  0  0  0
  -23.6410   -8.4050   22.1280 C   0  0  0  0  0  3  0  0  0  0  0  0
  -22.4650   -8.1700   21.3770 C   0  0  0  0  0  0  0  0  0  0  0  0
  -22.0490   -9.1290   20.4390 C   0  0  0  0  0  3  0  0  0  0  0  0
  -22.7740  -10.3200   20.2580 C   0  0  0  0  0  3  0  0  0  0  0  0
  -21.7120   -7.0220   21.4630 O   0  0  0  0  0  0  0  0  0  0  0  0
  -21.6660   -6.2750   22.6130 C   0  0  0  0  0  0  0  0  0  0  0  0
  -21.1950   -6.8120   23.8310 C   0  0  0  0  0  3  0  0  0  0  0  0
  -21.0960   -5.9890   24.9710 C   0  0  0  0  0  3  0  0  0  0  0  0
  -21.4620   -4.6310   24.8940 C   0  0  0  0  0  0  0  0  0  0  0  0
  -21.9240   -4.0950   23.6800 C   0  0  0  0  0  3  0  0  0  0  0  0
  -22.0240   -4.9150   22.5410 C   0  0  0  0  0  0  0  0  0  0  0  0
  -22.4490   -4.3860   21.3690 F   0  0  0  0  0  0  0  0  0  0  0  0
  -21.3610   -3.8380   25.9850 F   0  0  0  0  0  0  0  0  0  0  0  0
  -22.8090  -13.6670   21.2500 C   0  0  0  0  0  0  0  0  0  0  0  0
  -22.1040  -12.9480   22.1170 N   0  0  0  0  0  0  0  0  0  0  0  0
  -22.3580  -14.7060   20.7710 O   0  0  0  0  0  0  0  0  0  0  0  0
  -22.4760  -12.1070   22.5320 H   0  0  0  0  0  0  0  0  0  0  0  0
  -21.1720  -13.2470   22.3690 H   0  0  0  0  0  0  0  0  0  0  0  0
  -25.4020  -15.3500   20.3730 N   0  0  0  0  0  0  0  0  0  0  0  0
  -24.6430  -15.9980   20.5530 H   0  0  0  0  0  0  0  0  0  0  0  0
  -26.2190  -15.8030   19.9840 H   0  0  0  0  0  0  0  0  0  0  0  0
  -27.9850  -22.3900   18.1570 C   0  0  0  0  0  0  0  0  0  0  0  0
  -28.3610  -23.0350   17.1730 O   0  0  0  0  0  0  0  0  0  0  0  0
  -26.8420  -21.3760   17.9460 C   0  0  0  0  0  2  0  0  0  0  0  0
  -25.1030  -22.3160   19.5530 C   0  0  0  0  0  1  0  0  0  0  0  0
  -25.1390  -23.1320   17.1610 C   0  0  0  0  0  1  0  0  0  0  0  0
  -24.4200  -20.7960   17.6920 C   0  0  0  0  0  1  0  0  0  0  0  0
  -25.3950  -21.9240   18.0900 C   0  0  1  0  0  0  0  0  0  0  0  0
  -28.4100  -25.2640   19.5010 C   0  0  0  0  0  2  0  0  0  0  0  0
  -28.2890  -26.4920   20.3700 O   0  0  0  0  0  0  0  0  0  0  0  0
  -24.5950  -32.0070   23.3850 C   0  0  0  0  0  0  0  0  0  0  0  0
  -27.1840  -27.3840   20.3070 C   0  0  0  0  0  0  0  0  0  0  0  0
  -23.3950  -30.6150   21.7460 C   0  0  0  0  0  3  0  0  0  0  0  0
  -24.8420  -29.0700   20.3140 C   0  0  0  0  0  0  0  0  0  0  0  0
  -25.9470  -30.8960   21.5950 C   0  0  0  0  0  2  0  0  0  0  0  0
  -26.0140  -29.5200   20.9310 C   0  0  0  0  0  0  0  0  0  0  0  0
  -27.1800  -28.6830   20.9300 C   0  0  0  0  0  3  0  0  0  0  0  0
  -25.9750  -27.0120   19.6730 C   0  0  0  0  0  3  0  0  0  0  0  0
  -24.8270  -27.8240   19.6790 C   0  0  0  0  0  3  0  0  0  0  0  0
  -23.6140  -29.9580   20.3610 C   0  0  0  0  0  2  0  0  0  0  0  0
  -24.6630  -31.1920   22.2940 N   0  0  0  0  0  0  0  0  0  0  0  0
  -23.5090  -32.2890   23.9130 O   0  0  0  0  0  0  0  0  0  0  0  0
  -22.7300  -29.5900   22.6980 C   0  0  0  0  0  0  0  0  0  0  0  0
  -21.4200  -29.3500   22.5160 N   0  0  0  0  0  0  0  0  0  0  0  0
  -23.3940  -29.0160   23.5660 O   0  0  0  0  0  0  0  0  0  0  0  0
  -20.9380  -29.8630   21.7910 H   0  0  0  0  0  0  0  0  0  0  0  0
  -18.0850  -27.9970   22.8790 C   0  0  0  0  0  0  0  0  0  0  0  0
  -20.6070  -28.4060   23.2850 C   0  0  0  0  0  3  0  0  0  0  0  0
  -20.8130  -26.9570   22.7840 C   0  0  0  0  0  2  0  0  0  0  0  0
  -19.7940  -26.5330   21.7230 C   0  0  0  0  0  2  0  0  0  0  0  0
  -18.3700  -26.6320   22.2770 C   0  0  0  0  0  2  0  0  0  0  0  0
  -19.1360  -28.8360   23.3390 C   0  0  0  0  0  0  0  0  0  0  0  0
  -18.8150  -30.1090   23.8580 C   0  0  0  0  0  3  0  0  0  0  0  0
  -17.4780  -30.5440   23.9300 C   0  0  0  0  0  3  0  0  0  0  0  0
  -16.4410  -29.7000   23.4890 C   0  0  0  0  0  3  0  0  0  0  0  0
  -16.7470  -28.4310   22.9690 C   0  0  0  0  0  3  0  0  0  0  0  0
  -25.8760  -32.6420   24.0070 C   0  0  0  0  0  3  0  0  0  0  0  0
  -25.5760  -34.0510   24.2940 N   0  0  0  0  0  0  0  0  0  0  0  0
  -25.8990  -35.0790   23.4980 C   0  0  0  0  0  0  0  0  0  0  0  0
  -26.5560  -34.9410   22.4610 O   0  0  0  0  0  0  0  0  0  0  0  0
  -24.9990  -34.2330   25.1010 H   0  0  0  0  0  0  0  0  0  0  0  0
  -24.1670  -36.8600   23.1120 C   0  0  0  0  0  1  0  0  0  0  0  0
  -25.4200  -36.4810   23.9180 C   0  0  0  0  0  3  0  0  0  0  0  0
  -27.5630  -37.3940   24.6940 C   0  0  0  0  0  1  0  0  0  0  0  0
  -26.4490  -37.5330   23.7590 N   0  0  0  0  0  0  0  0  0  0  0  0
  -26.0400  -38.4540   23.8870 H   0  0  0  0  0  0  0  0  0  0  0  0
  -26.3630  -31.9030   25.3150 C   0  0  1  0  0  0  0  0  0  0  0  0
  -25.2440  -31.6940   26.3630 C   0  0  0  0  0  1  0  0  0  0  0  0
  -26.9580  -30.5160   24.9820 C   0  0  0  0  0  1  0  0  0  0  0  0
  -27.4990  -32.7160   25.9820 C   0  0  0  0  0  1  0  0  0  0  0  0
  1  2  2  0
  1  4  1  0
  2  3  1  0
  3  5  1  0
  4 12  1  0
  4  5  1  0
  5  6  1  0
  7  5  1  0
  8 10  2  0
  8  9  1  0
  9 12  2  0
 10 13  1  0
 12 11  1  0
 13 22  1  0
 13 11  2  0
 14 20  1  0
 14 22  1  0
 15 20  1  0
 16 17  1  0
 16 15  1  0
 18 17  1  0
 18 27  1  0
 18 19  1  0
 20 19  1  0
 21 14  2  0
 22 23  1  0
 24 25  2  0
 25 44  1  0
 26 25  1  0
 26 29  1  0
 27 28  1  0
 27 24  1  0
 28 26  2  0
 29 30  1  0
 30 31  2  0
 32 35  1  0
 32 31  1  0
 33 32  2  0
 34 33  1  0
 34 29  2  0
 35 36  1  0
 36 37  1  0
 37 38  2  0
 39 38  1  0
 39 43  1  0
 40 39  2  0
 41 36  2  0
 41 40  1  0
 42 41  1  0
 44 45  1  0
 45 48  1  0
 45 47  1  0
 46 44  2  0
 49 24  1  0
 49 50  1  0
 51 49  1  0
 52  1  1  0
 53 52  2  0
 54 58  1  0
 54 52  1  0
 58 56  1  6
 57 58  1  0
 58 55  1  0
 59  2  1  0
 59 60  1  0
 61 72  2  0
 62 60  1  0
 62 67  1  0
 63 71  1  0
 63 73  1  0
 64 70  1  0
 64 66  1  0
 65 71  1  0
 66 65  1  0
 67 66  2  0
 68 69  1  0
 68 62  2  0
 69 64  2  0
 70 63  1  0
 71 61  1  0
 73 75  2  0
 74 73  1  0
 76 74  1  0
 77 86  2  0
 77 82  1  0
 78 74  1  0
 78 82  1  0
 79 78  1  0
 80 81  1  0
 80 79  1  0
 81 77  1  0
 82 83  2  0
 83 84  1  0
 85 84  2  0
 86 85  1  0
 87 61  1  0
 87 88  1  0
 87 97  1  0
 88 91  1  0
 89 93  1  0
 89 88  1  0
 90 89  2  0
 93 92  1  0
 95 96  1  0
 95 93  1  0
 95 94  1  0
 97100  1  1
 97 98  1  0
 99 97  1  0
M  ISO  4  14 100  22 100  59 101  60 101
M  END
>  <TORSDO>  (77) 
F 21

>  <SCORE>  (77) 
-13.434

>  <name>  (77) 
76

>  <ligand_id>  (77) 
76

>  <original_smiles>  (77) 
[H]c1c([H])c([H])c2c(c1[H])C([H])([H])C([H])([H])C([H])([H])C2([H])N([H])C(=O)C1([H])N(C(=O)C([H])(N([H])C(=O)C([H])(N([H])C([H])([H])[H])C([H])([H])[H])C(C([H])([H])[H])(C([H])([H])[H])C([H])([H])[H])C([H])([H])c2c([H])c(OC([H])([H])C3=C(C(=O)C([H])([H])C(C([H])([H])[H])(C([H])([H])[H])C([H])([H])[H])C([H])(c4c([H])c([H])c([H])c(N([H])C(=O)N5C([H])([H])C([H])([H])C([H])([H])C([H])(n6nc(-c7c([H])c([H])c(Oc8c([H])c([H])c(F)c([H])c8F)c([H])c7[H])c(C(=O)N([H])[H])c6N([H])[H])C5([H])[H])c4[H])[N+]([H])([H])C3([H])[H])c([H])c([H])c2C1([H])[H]

>  <smiles>  (77) 
[H]c1c([H])c([H])c2c(c1[H])C([H])([H])C([H])([H])C([H])([H])C2([H])N([H])C(=O)C1([H])N(C(=O)C([H])(N([H])C(=O)C([H])(N([H])C([H])([H])[H])C([H])([H])[H])C(C([H])([H])[H])(C([H])([H])[H])C([H])([H])[H])C([H])([H])c2c([H])c(OC([H])([H])C3=C(C(=O)C([H])([H])C(C([H])([H])[H])(C([H])([H])[H])C([H])([H])[H])C([H])(c4c([H])c([H])c([H])c(N([H])C(=O)N5C([H])([H])C([H])([H])C([H])([H])C([H])(n6nc(-c7c([H])c([H])c(Oc8c([H])c([H])c(F)c([H])c8F)c([H])c7[H])c(C(=O)N([H])[H])c6N([H])[H])C5([H])[H])c4[H])[N+]([H])([H])C3([H])[H])c([H])c([H])c2C1([H])[H]

$$$$
77:0:0
     RDKit          3D

 93102  0  0  1  0  0  0  0  0999 V2000
  -29.1910  -17.8850   21.0860 C   0  0  0  0  0  3  0  0  0  0  0  0
  -29.4140  -19.2360   20.6410 C   0  0  0  0  0  0  0  0  0  0  0  0
  -30.4110  -19.2980   19.7110 C   0  0  0  0  0  0  0  0  0  0  0  0
  -30.0250  -16.9370   20.5210 C   0  0  0  0  0  0  0  0  0  0  0  0
  -28.7020  -20.4960   21.1260 C   0  0  0  0  0  2  0  0  0  0  0  0
  -30.8560  -20.5680   19.0740 C   0  0  0  0  0  2  0  0  0  0  0  0
  -30.5150  -21.7720   19.9780 C   0  0  0  0  0  2  0  0  0  0  0  0
  -29.0800  -21.7590   20.3980 N   0  0  2  0  0  4  0  0  0  0  0  0
  -31.1160  -17.7340   19.3950 S   0  0  0  0  0  0  0  0  0  0  0  0
  -28.5380  -21.7770   19.5470 H   0  0  0  0  0  0  0  0  0  0  0  0
  -30.7130  -14.5900   20.2060 C   0  0  0  0  0  0  0  0  0  0  0  0
  -30.4110  -12.4360   19.0460 C   0  0  0  0  0  2  0  0  0  0  0  0
  -29.4230  -12.6480   17.8800 C   0  0  0  0  0  2  0  0  0  0  0  0
  -27.9640  -12.5080   18.3590 C   0  0  0  0  0  2  0  0  0  0  0  0
  -27.6720  -13.3230   19.6470 C   0  0  0  0  0  3  0  0  0  0  0  0
  -28.7630  -13.0740   20.7130 C   0  0  0  0  0  2  0  0  0  0  0  0
  -30.0660  -13.3960   20.1090 N   0  0  0  0  0  0  0  0  0  0  0  0
  -31.8340  -14.7710   19.7200 O   0  0  0  0  0  0  0  0  0  0  0  0
  -29.9860  -15.5870   20.7640 N   0  0  0  0  0  0  0  0  0  0  0  0
  -29.1750  -15.2650   21.2690 H   0  0  0  0  0  0  0  0  0  0  0  0
  -25.2980  -13.9280   20.4400 C   0  0  0  0  0  0  0  0  0  0  0  0
  -24.2430  -13.1540   20.8360 C   0  0  0  0  0  0  0  0  0  0  0  0
  -24.7000  -11.8020   20.7740 C   0  0  0  0  0  0  0  0  0  0  0  0
  -26.3340  -13.0480   20.1660 N   0  0  0  0  0  0  0  0  0  0  0  0
  -25.9780  -11.7640   20.4240 N   0  0  0  0  0  0  0  0  0  0  0  0
  -23.9790  -10.5380   20.9740 C   0  0  0  0  0  0  0  0  0  0  0  0
  -24.4260   -9.5720   21.9020 C   0  0  0  0  0  3  0  0  0  0  0  0
  -23.7060   -8.3720   22.0890 C   0  0  0  0  0  3  0  0  0  0  0  0
  -22.5250   -8.1310   21.3480 C   0  0  0  0  0  0  0  0  0  0  0  0
  -22.0970   -9.0840   20.4080 C   0  0  0  0  0  3  0  0  0  0  0  0
  -22.8190  -10.2750   20.2200 C   0  0  0  0  0  3  0  0  0  0  0  0
  -21.7750   -6.9830   21.4440 O   0  0  0  0  0  0  0  0  0  0  0  0
  -21.7250   -6.2500   22.6020 C   0  0  0  0  0  0  0  0  0  0  0  0
  -21.2640   -6.8050   23.8170 C   0  0  0  0  0  3  0  0  0  0  0  0
  -21.1670   -5.9970   24.9670 C   0  0  0  0  0  3  0  0  0  0  0  0
  -21.5180   -4.6350   24.9040 C   0  0  0  0  0  0  0  0  0  0  0  0
  -21.9700   -4.0800   23.6950 C   0  0  0  0  0  3  0  0  0  0  0  0
  -22.0720   -4.8840   22.5470 C   0  0  0  0  0  0  0  0  0  0  0  0
  -22.4890   -4.3400   21.3780 F   0  0  0  0  0  0  0  0  0  0  0  0
  -21.4160   -3.8570   26.0080 F   0  0  0  0  0  0  0  0  0  0  0  0
  -22.8540  -13.6290   21.1590 C   0  0  0  0  0  0  0  0  0  0  0  0
  -22.1550  -12.9220   22.0410 N   0  0  0  0  0  0  0  0  0  0  0  0
  -22.4010  -14.6610   20.6650 O   0  0  0  0  0  0  0  0  0  0  0  0
  -22.5380  -12.0900   22.4640 H   0  0  0  0  0  0  0  0  0  0  0  0
  -21.2250  -13.2170   22.2980 H   0  0  0  0  0  0  0  0  0  0  0  0
  -25.4590  -15.3000   20.2710 N   0  0  0  0  0  0  0  0  0  0  0  0
  -24.6910  -15.9500   20.3970 H   0  0  0  0  0  0  0  0  0  0  0  0
  -26.2890  -15.7360   19.8890 H   0  0  0  0  0  0  0  0  0  0  0  0
  -28.6730  -22.9860   21.1590 C   0  0  0  0  0  2  0  0  0  0  0  0
  -28.5420  -24.2480   20.2700 C   0  0  0  0  0  0  0  0  0  0  0  0
  -28.5390  -24.1710   19.0350 O   0  0  0  0  0  0  0  0  0  0  0  0
  -28.3780  -25.5980   21.0120 C   0  0  0  0  0  2  0  0  0  0  0  0
  -28.4250  -26.7490   20.1430 O   0  0  0  0  0  0  0  0  0  0  0  0
  -24.5730  -31.8980   23.2390 C   0  0  0  0  0  0  0  0  0  0  0  0
  -27.2700  -27.4980   20.1440 C   0  0  0  0  0  0  0  0  0  0  0  0
  -23.3900  -30.5040   21.5720 C   0  0  0  0  0  3  0  0  0  0  0  0
  -24.8670  -28.9870   20.1480 C   0  0  0  0  0  0  0  0  0  0  0  0
  -25.9150  -30.8830   21.3990 C   0  0  0  0  0  2  0  0  0  0  0  0
  -26.0170  -29.5170   20.7490 C   0  0  0  0  0  0  0  0  0  0  0  0
  -27.2250  -28.7810   20.7400 C   0  0  0  0  0  3  0  0  0  0  0  0
  -26.1070  -26.9810   19.5390 C   0  0  0  0  0  3  0  0  0  0  0  0
  -24.9070  -27.7200   19.5400 C   0  0  0  0  0  3  0  0  0  0  0  0
  -23.6170  -29.8350   20.1900 C   0  0  0  0  0  2  0  0  0  0  0  0
  -24.6430  -31.1100   22.1290 N   0  0  0  0  0  0  0  0  0  0  0  0
  -23.4860  -32.1560   23.7750 O   0  0  0  0  0  0  0  0  0  0  0  0
  -22.7370  -29.4710   22.5190 C   0  0  0  0  0  0  0  0  0  0  0  0
  -21.4130  -29.2930   22.3880 N   0  0  0  0  0  0  0  0  0  0  0  0
  -23.4190  -28.8310   23.3240 O   0  0  0  0  0  0  0  0  0  0  0  0
  -20.9250  -29.8600   21.7090 H   0  0  0  0  0  0  0  0  0  0  0  0
  -18.0320  -28.1230   22.8910 C   0  0  0  0  0  0  0  0  0  0  0  0
  -20.5930  -28.3440   23.1430 C   0  0  0  0  0  3  0  0  0  0  0  0
  -20.6750  -26.9270   22.5280 C   0  0  0  0  0  2  0  0  0  0  0  0
  -19.5590  -26.6450   21.5180 C   0  0  0  0  0  2  0  0  0  0  0  0
  -18.1860  -26.7900   22.1780 C   0  0  0  0  0  2  0  0  0  0  0  0
  -19.1620  -28.8610   23.3290 C   0  0  0  0  0  0  0  0  0  0  0  0
  -18.9660  -30.1130   23.9530 C   0  0  0  0  0  3  0  0  0  0  0  0
  -17.6690  -30.6250   24.1440 C   0  0  0  0  0  3  0  0  0  0  0  0
  -16.5510  -29.8840   23.7210 C   0  0  0  0  0  3  0  0  0  0  0  0
  -16.7340  -28.6350   23.1010 C   0  0  0  0  0  3  0  0  0  0  0  0
  -25.8490  -32.5320   23.8760 C   0  0  0  0  0  3  0  0  0  0  0  0
  -26.3420  -31.7680   25.1650 C   0  0  1  0  0  0  0  0  0  0  0  0
  -25.2320  -31.5390   26.2170 C   0  0  0  0  0  1  0  0  0  0  0  0
  -26.9290  -30.3880   24.7890 C   0  0  0  0  0  1  0  0  0  0  0  0
  -27.4820  -32.5650   25.8410 C   0  0  0  0  0  1  0  0  0  0  0  0
  -25.5390  -33.9320   24.1910 N   0  0  0  0  0  0  0  0  0  0  0  0
  -25.8860  -34.9770   23.4280 C   0  0  0  0  0  0  0  0  0  0  0  0
  -26.5710  -34.8620   22.4080 O   0  0  0  0  0  0  0  0  0  0  0  0
  -24.9320  -34.0940   24.9810 H   0  0  0  0  0  0  0  0  0  0  0  0
  -24.1730  -36.7720   23.0180 C   0  0  0  0  0  1  0  0  0  0  0  0
  -25.3910  -36.3690   23.8640 C   0  0  0  0  0  3  0  0  0  0  0  0
  -27.5040  -37.2540   24.7490 C   0  0  0  0  0  1  0  0  0  0  0  0
  -26.4320  -37.4180   23.7710 N   0  0  0  0  0  0  0  0  0  0  0  0
  -26.0250  -38.3410   23.8990 H   0  0  0  0  0  0  0  0  0  0  0  0
  2  1  1  0
  2  5  1  0
  3  2  2  0
  4 19  1  0
  4  1  2  0
  6  3  1  0
  6  7  1  0
  7  8  1  0
  8  5  1  0
  8 49  1  0
  9  3  1  0
  9  4  1  0
  8 10  1  6
 11 19  1  0
 12 17  1  0
 13 14  1  0
 13 12  1  0
 15 14  1  0
 15 24  1  0
 15 16  1  0
 17 11  1  0
 17 16  1  0
 18 11  2  0
 19 20  1  0
 21 22  2  0
 22 41  1  0
 23 22  1  0
 23 26  1  0
 24 25  1  0
 24 21  1  0
 25 23  2  0
 26 27  1  0
 27 28  2  0
 29 32  1  0
 29 28  1  0
 30 29  2  0
 31 30  1  0
 31 26  2  0
 32 33  1  0
 33 34  1  0
 34 35  2  0
 36 35  1  0
 36 40  1  0
 37 36  2  0
 38 33  2  0
 38 37  1  0
 39 38  1  0
 41 42  1  0
 42 45  1  0
 42 44  1  0
 43 41  2  0
 46 47  1  0
 46 21  1  0
 48 46  1  0
 50 52  1  0
 50 49  1  0
 51 50  2  0
 53 55  1  0
 53 52  1  0
 54 65  2  0
 55 60  1  0
 56 64  1  0
 56 66  1  0
 57 63  1  0
 57 59  1  0
 58 64  1  0
 59 58  1  0
 60 59  2  0
 61 62  1  0
 61 55  2  0
 62 57  2  0
 63 56  1  0
 64 54  1  0
 66 68  2  0
 67 66  1  0
 69 67  1  0
 70 79  2  0
 70 75  1  0
 71 67  1  0
 71 75  1  0
 72 71  1  0
 73 74  1  0
 73 72  1  0
 74 70  1  0
 75 76  2  0
 76 77  1  0
 78 77  2  0
 79 78  1  0
 80 54  1  0
 80 85  1  0
 80 81  1  0
 81 84  1  1
 81 82  1  0
 83 81  1  0
 85 88  1  0
 86 90  1  0
 86 85  1  0
 87 86  2  0
 90 89  1  0
 92 90  1  0
 92 93  1  0
 92 91  1  0
M  ISO  4  11 100  19 100  52 101  53 101
M  END
>  <TORSDO>  (78) 
F 19

>  <SCORE>  (78) 
-14.132

>  <name>  (78) 
77

>  <ligand_id>  (78) 
77

>  <original_smiles>  (78) 
[H]c1c([H])c([H])c2c(c1[H])C([H])([H])C([H])([H])C([H])([H])C2([H])N([H])C(=O)C1([H])N(C(=O)C([H])(N([H])C(=O)C([H])(N([H])C([H])([H])[H])C([H])([H])[H])C(C([H])([H])[H])(C([H])([H])[H])C([H])([H])[H])C([H])([H])c2c([H])c(OC([H])([H])C(=O)C([H])([H])[N+]3([H])C([H])([H])c4c(sc(N([H])C(=O)N5C([H])([H])C([H])([H])C([H])([H])C([H])(n6nc(-c7c([H])c([H])c(Oc8c([H])c([H])c(F)c([H])c8F)c([H])c7[H])c(C(=O)N([H])[H])c6N([H])[H])C5([H])[H])c4[H])C([H])([H])C3([H])[H])c([H])c([H])c2C1([H])[H]

>  <smiles>  (78) 
[H]c1c([H])c([H])c2c(c1[H])C([H])([H])C([H])([H])C([H])([H])C2([H])N([H])C(=O)C1([H])N(C(=O)C([H])(N([H])C(=O)C([H])(N([H])C([H])([H])[H])C([H])([H])[H])C(C([H])([H])[H])(C([H])([H])[H])C([H])([H])[H])C([H])([H])c2c([H])c(OC([H])([H])C(=O)C([H])([H])[N+]3([H])C([H])([H])c4c(sc(N([H])C(=O)N5C([H])([H])C([H])([H])C([H])([H])C([H])(n6nc(-c7c([H])c([H])c(Oc8c([H])c([H])c(F)c([H])c8F)c([H])c7[H])c(C(=O)N([H])[H])c6N([H])[H])C5([H])[H])c4[H])C([H])([H])C3([H])[H])c([H])c([H])c2C1([H])[H]

$$$$
78:0:0
     RDKit          3D

 98107  0  0  1  0  0  0  0  0999 V2000
  -30.1590  -21.9780   20.7950 C   0  0  0  0  0  2  0  0  0  0  0  0
  -28.0340  -21.6970   19.4880 C   0  0  0  0  0  2  0  0  0  0  0  0
  -29.9460  -23.5510   20.7610 C   0  0  0  0  0  2  0  0  0  0  0  0
  -27.8100  -23.2560   19.4930 C   0  0  0  0  0  2  0  0  0  0  0  0
  -29.5280  -21.2790   19.5630 C   0  0  0  0  0  3  0  0  0  0  0  0
  -28.4500  -24.0020   20.7040 C   0  0  1  0  0  0  0  0  0  0  0  0
  -30.0230  -18.6420   20.1100 C   0  0  0  0  0  3  0  0  0  0  0  0
  -30.5830  -17.1200   18.2790 C   0  0  0  0  0  3  0  0  0  0  0  0
  -29.8760  -19.7630   19.1950 C   0  0  0  0  0  0  0  0  0  0  0  0
  -30.3790  -17.3020   19.6630 C   0  0  0  0  0  0  0  0  0  0  0  0
  -30.0570  -19.4630   17.8100 C   0  0  0  0  0  0  0  0  0  0  0  0
  -30.4160  -18.1740   17.3740 C   0  0  0  0  0  0  0  0  0  0  0  0
  -30.5780  -17.9410   16.0460 F   0  0  0  0  0  0  0  0  0  0  0  0
  -31.1580  -14.9450   20.2330 C   0  0  0  0  0  0  0  0  0  0  0  0
  -30.8840  -12.6930   19.2380 C   0  0  0  0  0  2  0  0  0  0  0  0
  -29.9700  -12.8300   18.0010 C   0  0  0  0  0  2  0  0  0  0  0  0
  -28.4870  -12.7240   18.4040 C   0  0  0  0  0  2  0  0  0  0  0  0
  -28.1320  -13.6060   19.6340 C   0  0  0  0  0  3  0  0  0  0  0  0
  -29.1690  -13.4560   20.7680 C   0  0  0  0  0  2  0  0  0  0  0  0
  -30.4940  -13.7450   20.2020 N   0  0  0  0  0  0  0  0  0  0  0  0
  -32.3330  -15.0210   19.8610 O   0  0  0  0  0  0  0  0  0  0  0  0
  -30.4390  -16.0920   20.4980 N   0  0  0  0  0  0  0  0  0  0  0  0
  -29.6250  -15.9500   21.0760 H   0  0  0  0  0  0  0  0  0  0  0  0
  -25.7470  -14.2660   20.3170 C   0  0  0  0  0  0  0  0  0  0  0  0
  -24.6550  -13.5230   20.6750 C   0  0  0  0  0  0  0  0  0  0  0  0
  -25.0820  -12.1600   20.6590 C   0  0  0  0  0  0  0  0  0  0  0  0
  -26.7710  -13.3580   20.1010 N   0  0  0  0  0  0  0  0  0  0  0  0
  -26.3750  -12.0860   20.3660 N   0  0  0  0  0  0  0  0  0  0  0  0
  -24.3190  -10.9190   20.8500 C   0  0  0  0  0  0  0  0  0  0  0  0
  -24.7010   -9.9570   21.8120 C   0  0  0  0  0  3  0  0  0  0  0  0
  -23.9410   -8.7810   21.9900 C   0  0  0  0  0  3  0  0  0  0  0  0
  -22.7850   -8.5570   21.2050 C   0  0  0  0  0  0  0  0  0  0  0  0
  -22.4240   -9.5050   20.2320 C   0  0  0  0  0  3  0  0  0  0  0  0
  -23.1840  -10.6730   20.0530 C   0  0  0  0  0  3  0  0  0  0  0  0
  -22.0000   -7.4320   21.2900 O   0  0  0  0  0  0  0  0  0  0  0  0
  -21.8850   -6.7210   22.4570 C   0  0  0  0  0  0  0  0  0  0  0  0
  -21.3990   -7.3100   23.6440 C   0  0  0  0  0  3  0  0  0  0  0  0
  -21.2340   -6.5260   24.8020 C   0  0  0  0  0  3  0  0  0  0  0  0
  -21.5410   -5.1520   24.7730 C   0  0  0  0  0  0  0  0  0  0  0  0
  -22.0160   -4.5620   23.5890 C   0  0  0  0  0  3  0  0  0  0  0  0
  -22.1870   -5.3430   22.4330 C   0  0  0  0  0  0  0  0  0  0  0  0
  -22.6270   -4.7660   21.2890 F   0  0  0  0  0  0  0  0  0  0  0  0
  -21.3740   -4.3960   25.8820 F   0  0  0  0  0  0  0  0  0  0  0  0
  -23.2670  -14.0370   20.9230 C   0  0  0  0  0  0  0  0  0  0  0  0
  -22.5130  -13.3750   21.7940 N   0  0  0  0  0  0  0  0  0  0  0  0
  -22.8600  -15.0630   20.3810 O   0  0  0  0  0  0  0  0  0  0  0  0
  -22.8530  -12.5450   22.2550 H   0  0  0  0  0  0  0  0  0  0  0  0
  -21.5790  -13.7020   21.9960 H   0  0  0  0  0  0  0  0  0  0  0  0
  -25.9480  -15.6320   20.1330 N   0  0  0  0  0  0  0  0  0  0  0  0
  -25.1960  -16.3040   20.2270 H   0  0  0  0  0  0  0  0  0  0  0  0
  -26.8080  -16.0460   19.7970 H   0  0  0  0  0  0  0  0  0  0  0  0
  -29.8710  -20.4110   16.7990 N   0  0  0  0  0  0  0  0  0  0  0  0
  -29.2200  -21.1670   16.9760 H   0  0  0  0  0  0  0  0  0  0  0  0
  -29.7880  -20.0360   15.8600 H   0  0  0  0  0  0  0  0  0  0  0  0
  -26.6120  -23.4470   22.2880 C   0  0  0  0  0  1  0  0  0  0  0  0
  -27.9890  -23.3880   21.9210 O   0  0  0  0  0  0  0  0  0  0  0  0
  -28.1360  -25.5890   20.8400 C   0  0  0  0  0  2  0  0  0  0  0  0
  -28.1820  -26.6200   19.7860 O   0  0  0  0  0  0  0  0  0  0  0  0
  -24.5470  -31.9040   23.0910 C   0  0  0  0  0  0  0  0  0  0  0  0
  -27.0960  -27.5010   19.7960 C   0  0  0  0  0  0  0  0  0  0  0  0
  -23.3010  -30.5580   21.4370 C   0  0  0  0  0  3  0  0  0  0  0  0
  -24.7210  -29.0750   19.9080 C   0  0  0  0  0  0  0  0  0  0  0  0
  -25.8290  -30.9110   21.1860 C   0  0  0  0  0  2  0  0  0  0  0  0
  -25.9020  -29.5600   20.4860 C   0  0  0  0  0  0  0  0  0  0  0  0
  -27.0970  -28.7830   20.4230 C   0  0  0  0  0  3  0  0  0  0  0  0
  -25.8980  -27.0630   19.1970 C   0  0  0  0  0  3  0  0  0  0  0  0
  -24.7190  -27.8310   19.2550 C   0  0  0  0  0  3  0  0  0  0  0  0
  -23.4770  -29.9340   20.0280 C   0  0  0  0  0  2  0  0  0  0  0  0
  -24.5800  -31.1390   21.9610 N   0  0  0  0  0  0  0  0  0  0  0  0
  -23.4790  -32.1530   23.6700 O   0  0  0  0  0  0  0  0  0  0  0  0
  -22.6750  -29.5010   22.3790 C   0  0  0  0  0  0  0  0  0  0  0  0
  -21.3490  -29.3100   22.2760 N   0  0  0  0  0  0  0  0  0  0  0  0
  -23.3810  -28.8580   23.1610 O   0  0  0  0  0  0  0  0  0  0  0  0
  -20.8380  -29.8810   21.6180 H   0  0  0  0  0  0  0  0  0  0  0  0
  -17.9950  -28.0820   22.8420 C   0  0  0  0  0  0  0  0  0  0  0  0
  -20.5600  -28.3390   23.0350 C   0  0  0  0  0  3  0  0  0  0  0  0
  -20.6460  -26.9340   22.3970 C   0  0  0  0  0  2  0  0  0  0  0  0
  -19.5100  -26.6490   21.4090 C   0  0  0  0  0  2  0  0  0  0  0  0
  -18.1500  -26.7620   22.1040 C   0  0  0  0  0  2  0  0  0  0  0  0
  -19.1260  -28.8300   23.2640 C   0  0  0  0  0  0  0  0  0  0  0  0
  -18.9230  -30.0650   23.9170 C   0  0  0  0  0  3  0  0  0  0  0  0
  -17.6240  -30.5550   24.1470 C   0  0  0  0  0  3  0  0  0  0  0  0
  -16.5080  -29.8030   23.7400 C   0  0  0  0  0  3  0  0  0  0  0  0
  -16.6940  -28.5680   23.0960 C   0  0  0  0  0  3  0  0  0  0  0  0
  -25.8470  -32.5200   23.6980 C   0  0  0  0  0  3  0  0  0  0  0  0
  -26.3920  -31.7210   24.9450 C   0  0  1  0  0  0  0  0  0  0  0  0
  -25.3210  -31.4610   26.0300 C   0  0  0  0  0  1  0  0  0  0  0  0
  -26.9650  -30.3520   24.5110 C   0  0  0  0  0  1  0  0  0  0  0  0
  -27.5600  -32.4990   25.5950 C   0  0  0  0  0  1  0  0  0  0  0  0
  -25.5460  -33.9110   24.0650 N   0  0  0  0  0  0  0  0  0  0  0  0
  -25.8910  -34.9820   23.3370 C   0  0  0  0  0  0  0  0  0  0  0  0
  -26.5640  -34.9020   22.3050 O   0  0  0  0  0  0  0  0  0  0  0  0
  -24.9500  -34.0490   24.8680 H   0  0  0  0  0  0  0  0  0  0  0  0
  -24.1910  -36.8080   23.0180 C   0  0  0  0  0  1  0  0  0  0  0  0
  -25.4150  -36.3610   23.8330 C   0  0  0  0  0  3  0  0  0  0  0  0
  -27.5460  -37.1930   24.7260 C   0  0  0  0  0  1  0  0  0  0  0  0
  -26.4640  -37.4030   23.7680 N   0  0  0  0  0  0  0  0  0  0  0  0
  -26.0680  -38.3240   23.9360 H   0  0  0  0  0  0  0  0  0  0  0  0
  2  4  1  0
  2  5  1  0
  3  1  1  0
  4  6  1  0
  5  9  1  0
  5  1  1  0
  6  3  1  0
  6 57  1  1
  6 56  1  0
  8 10  2  0
  9  7  2  0
 10  7  1  0
 10 22  1  0
 11  9  1  0
 12 11  2  0
 12  8  1  0
 13 12  1  0
 14 22  1  0
 15 20  1  0
 16 17  1  0
 16 15  1  0
 18 17  1  0
 18 27  1  0
 18 19  1  0
 20 14  1  0
 20 19  1  0
 21 14  2  0
 22 23  1  0
 24 25  2  0
 25 44  1  0
 26 25  1  0
 26 29  1  0
 27 24  1  0
 27 28  1  0
 28 26  2  0
 29 30  1  0
 30 31  2  0
 32 35  1  0
 32 31  1  0
 33 32  2  0
 34 33  1  0
 34 29  2  0
 35 36  1  0
 36 37  1  0
 37 38  2  0
 39 38  1  0
 39 43  1  0
 40 39  2  0
 41 36  2  0
 41 40  1  0
 42 41  1  0
 44 45  1  0
 45 48  1  0
 45 47  1  0
 46 44  2  0
 49 50  1  0
 49 24  1  0
 51 49  1  0
 52 53  1  0
 52 11  1  0
 54 52  1  0
 56 55  1  0
 58 60  1  0
 58 57  1  0
 59 70  2  0
 60 65  1  0
 61 69  1  0
 61 71  1  0
 62 68  1  0
 62 64  1  0
 63 69  1  0
 64 63  1  0
 65 64  2  0
 66 67  1  0
 66 60  2  0
 67 62  2  0
 68 61  1  0
 69 59  1  0
 71 73  2  0
 72 71  1  0
 74 72  1  0
 75 84  2  0
 75 80  1  0
 76 72  1  0
 76 80  1  0
 77 76  1  0
 78 79  1  0
 78 77  1  0
 79 75  1  0
 80 81  2  0
 81 82  1  0
 83 82  2  0
 84 83  1  0
 85 59  1  0
 85 90  1  0
 85 86  1  0
 86 89  1  1
 86 87  1  0
 88 86  1  0
 90 93  1  0
 91 95  1  0
 91 90  1  0
 92 91  2  0
 95 94  1  0
 97 95  1  0
 97 98  1  0
 97 96  1  0
M  ISO  4  14 100  22 100  57 101  58 101
M  END
>  <TORSDO>  (79) 
F 20

>  <SCORE>  (79) 
-13.045

>  <name>  (79) 
78

>  <ligand_id>  (79) 
78

>  <original_smiles>  (79) 
[H]c1c([H])c([H])c2c(c1[H])C([H])([H])C([H])([H])C([H])([H])C2([H])N([H])C(=O)C1([H])N(C(=O)C([H])(N([H])C(=O)C([H])(N([H])C([H])([H])[H])C([H])([H])[H])C(C([H])([H])[H])(C([H])([H])[H])C([H])([H])[H])C([H])([H])c2c([H])c(OC([H])([H])C3(OC([H])([H])[H])C([H])([H])C([H])([H])C([H])(c4c([H])c(N([H])C(=O)N5C([H])([H])C([H])([H])C([H])([H])C([H])(n6nc(-c7c([H])c([H])c(Oc8c([H])c([H])c(F)c([H])c8F)c([H])c7[H])c(C(=O)N([H])[H])c6N([H])[H])C5([H])[H])c([H])c(F)c4N([H])[H])C([H])([H])C3([H])[H])c([H])c([H])c2C1([H])[H]

>  <smiles>  (79) 
[H]c1c([H])c([H])c2c(c1[H])C([H])([H])C([H])([H])C([H])([H])C2([H])N([H])C(=O)C1([H])N(C(=O)C([H])(N([H])C(=O)C([H])(N([H])C([H])([H])[H])C([H])([H])[H])C(C([H])([H])[H])(C([H])([H])[H])C([H])([H])[H])C([H])([H])c2c([H])c(OC([H])([H])C3(OC([H])([H])[H])C([H])([H])C([H])([H])C([H])(c4c([H])c(N([H])C(=O)N5C([H])([H])C([H])([H])C([H])([H])C([H])(n6nc(-c7c([H])c([H])c(Oc8c([H])c([H])c(F)c([H])c8F)c([H])c7[H])c(C(=O)N([H])[H])c6N([H])[H])C5([H])[H])c([H])c(F)c4N([H])[H])C([H])([H])C3([H])[H])c([H])c([H])c2C1([H])[H]

$$$$
79:0:0
     RDKit          3D

 94103  0  0  1  0  0  0  0  0999 V2000
  -30.5220  -20.2680   19.9300 C   0  0  0  0  0  3  0  0  0  0  0  0
  -30.2990  -21.6550   19.7400 C   0  0  0  0  0  3  0  0  0  0  0  0
  -28.6930  -20.2010   21.5190 C   0  0  0  0  0  3  0  0  0  0  0  0
  -29.7230  -19.5240   20.8300 C   0  0  0  0  0  0  0  0  0  0  0  0
  -28.4680  -21.5830   21.3420 C   0  0  0  0  0  0  0  0  0  0  0  0
  -29.2740  -22.3340   20.4500 C   0  0  0  0  0  0  0  0  0  0  0  0
  -27.3530  -22.2470   22.1350 C   0  0  0  0  0  1  0  0  0  0  0  0
  -31.2320  -14.8270   19.8530 C   0  0  0  0  0  0  0  0  0  0  0  0
  -30.8310  -12.6120   18.8270 C   0  0  0  0  0  2  0  0  0  0  0  0
  -29.8120  -12.7380   17.6780 C   0  0  0  0  0  2  0  0  0  0  0  0
  -28.3700  -12.6360   18.2110 C   0  0  0  0  0  2  0  0  0  0  0  0
  -28.1190  -13.5630   19.4300 C   0  0  0  0  0  3  0  0  0  0  0  0
  -29.2390  -13.4070   20.4820 C   0  0  0  0  0  2  0  0  0  0  0  0
  -30.5300  -13.6600   19.8160 N   0  0  0  0  0  0  0  0  0  0  0  0
  -32.2710  -15.0040   19.2070 O   0  0  0  0  0  0  0  0  0  0  0  0
  -31.1940  -17.7470   21.9800 C   0  0  0  0  0  2  0  0  0  0  0  0
  -31.3640  -16.2280   21.8490 C   0  0  0  0  0  2  0  0  0  0  0  0
  -30.1170  -17.0320   19.9870 C   0  0  0  0  0  2  0  0  0  0  0  0
  -29.9590  -18.0360   21.1430 C   0  0  0  0  0  3  0  0  0  0  0  0
  -30.7010  -15.8220   20.6010 N   0  0  0  0  0  0  0  0  0  0  0  0
  -25.8410  -14.2590   20.4080 C   0  0  0  0  0  0  0  0  0  0  0  0
  -24.7570  -13.5270   20.8120 C   0  0  0  0  0  0  0  0  0  0  0  0
  -25.1140  -12.1570   20.6270 C   0  0  0  0  0  0  0  0  0  0  0  0
  -26.7960  -13.3360   20.0100 N   0  0  0  0  0  0  0  0  0  0  0  0
  -26.3660  -12.0610   20.1950 N   0  0  0  0  0  0  0  0  0  0  0  0
  -24.3190  -10.9320   20.7790 C   0  0  0  0  0  0  0  0  0  0  0  0
  -24.7180   -9.8960   21.6540 C   0  0  0  0  0  3  0  0  0  0  0  0
  -23.9270   -8.7370   21.7980 C   0  0  0  0  0  3  0  0  0  0  0  0
  -22.7220   -8.6040   21.0670 C   0  0  0  0  0  0  0  0  0  0  0  0
  -22.3420   -9.6280   20.1820 C   0  0  0  0  0  3  0  0  0  0  0  0
  -23.1330  -10.7790   20.0350 C   0  0  0  0  0  3  0  0  0  0  0  0
  -21.9030   -7.5020   21.1240 O   0  0  0  0  0  0  0  0  0  0  0  0
  -21.7730   -6.7600   22.2710 C   0  0  0  0  0  0  0  0  0  0  0  0
  -21.3220   -7.3310   23.4820 C   0  0  0  0  0  3  0  0  0  0  0  0
  -21.1370   -6.5170   24.6170 C   0  0  0  0  0  3  0  0  0  0  0  0
  -21.3940   -5.1350   24.5440 C   0  0  0  0  0  0  0  0  0  0  0  0
  -21.8370   -4.5640   23.3380 C   0  0  0  0  0  3  0  0  0  0  0  0
  -22.0230   -5.3740   22.2040 C   0  0  0  0  0  0  0  0  0  0  0  0
  -22.4310   -4.8160   21.0390 F   0  0  0  0  0  0  0  0  0  0  0  0
  -21.2080   -4.3520   25.6320 F   0  0  0  0  0  0  0  0  0  0  0  0
  -23.4270  -14.0670   21.2550 C   0  0  0  0  0  0  0  0  0  0  0  0
  -22.7370  -13.3500   22.1350 N   0  0  0  0  0  0  0  0  0  0  0  0
  -23.0150  -15.1550   20.8570 O   0  0  0  0  0  0  0  0  0  0  0  0
  -23.0840  -12.4670   22.4780 H   0  0  0  0  0  0  0  0  0  0  0  0
  -21.8480  -13.6910   22.4730 H   0  0  0  0  0  0  0  0  0  0  0  0
  -26.0890  -15.6260   20.3290 N   0  0  0  0  0  0  0  0  0  0  0  0
  -25.3860  -16.3180   20.5690 H   0  0  0  0  0  0  0  0  0  0  0  0
  -26.9430  -16.0350   19.9740 H   0  0  0  0  0  0  0  0  0  0  0  0
  -29.2550  -24.6580   19.4090 C   0  0  0  0  0  0  0  0  0  0  0  0
  -29.0440  -23.7490   20.3830 N   0  0  0  0  0  0  0  0  0  0  0  0
  -29.6650  -24.3800   18.2780 O   0  0  0  0  0  0  0  0  0  0  0  0
  -28.6300  -24.1430   21.2150 H   0  0  0  0  0  0  0  0  0  0  0  0
  -28.9370  -26.1250   19.7960 C   0  0  0  0  0  2  0  0  0  0  0  0
  -28.5330  -26.9270   18.6700 O   0  0  0  0  0  0  0  0  0  0  0  0
  -24.5700  -31.3080   22.6740 C   0  0  0  0  0  0  0  0  0  0  0  0
  -27.3330  -27.5730   18.8540 C   0  0  0  0  0  0  0  0  0  0  0  0
  -23.3640  -30.0270   20.9360 C   0  0  0  0  0  3  0  0  0  0  0  0
  -24.8300  -28.8290   19.2230 C   0  0  0  0  0  0  0  0  0  0  0  0
  -25.8270  -30.6440   20.6260 C   0  0  0  0  0  2  0  0  0  0  0  0
  -25.9810  -29.3800   19.8030 C   0  0  0  0  0  0  0  0  0  0  0  0
  -27.2370  -28.7590   19.6190 C   0  0  0  0  0  3  0  0  0  0  0  0
  -26.1690  -27.0330   18.2710 C   0  0  0  0  0  3  0  0  0  0  0  0
  -24.9180  -27.6540   18.4550 C   0  0  0  0  0  3  0  0  0  0  0  0
  -23.5240  -29.5540   19.4670 C   0  0  0  0  0  2  0  0  0  0  0  0
  -24.6080  -30.6680   21.4710 N   0  0  0  0  0  0  0  0  0  0  0  0
  -23.5140  -31.4060   23.3150 O   0  0  0  0  0  0  0  0  0  0  0  0
  -22.8740  -28.8340   21.7890 C   0  0  0  0  0  0  0  0  0  0  0  0
  -21.5660  -28.5350   21.7050 N   0  0  0  0  0  0  0  0  0  0  0  0
  -23.6630  -28.1850   22.4810 O   0  0  0  0  0  0  0  0  0  0  0  0
  -20.9850  -29.1190   21.1210 H   0  0  0  0  0  0  0  0  0  0  0  0
  -18.3680  -26.9160   22.1640 C   0  0  0  0  0  0  0  0  0  0  0  0
  -20.8920  -27.4300   22.3860 C   0  0  0  0  0  3  0  0  0  0  0  0
  -21.1250  -26.0940   21.6450 C   0  0  0  0  0  2  0  0  0  0  0  0
  -20.0220  -25.7630   20.6340 C   0  0  0  0  0  2  0  0  0  0  0  0
  -18.6620  -25.6790   21.3330 C   0  0  0  0  0  2  0  0  0  0  0  0
  -19.4140  -27.7470   22.6460 C   0  0  0  0  0  0  0  0  0  0  0  0
  -19.0860  -28.9040   23.3840 C   0  0  0  0  0  3  0  0  0  0  0  0
  -17.7430  -29.2350   23.6460 C   0  0  0  0  0  3  0  0  0  0  0  0
  -16.7110  -28.4000   23.1820 C   0  0  0  0  0  3  0  0  0  0  0  0
  -17.0240  -27.2420   22.4470 C   0  0  0  0  0  3  0  0  0  0  0  0
  -25.8430  -31.9690   23.2900 C   0  0  0  0  0  3  0  0  0  0  0  0
  -25.4470  -33.2790   23.8230 N   0  0  0  0  0  0  0  0  0  0  0  0
  -25.6850  -34.4490   23.2170 C   0  0  0  0  0  0  0  0  0  0  0  0
  -26.3320  -34.5430   22.1700 O   0  0  0  0  0  0  0  0  0  0  0  0
  -24.8660  -33.2740   24.6490 H   0  0  0  0  0  0  0  0  0  0  0  0
  -23.8250  -36.1410   23.1540 C   0  0  0  0  0  1  0  0  0  0  0  0
  -25.1150  -35.7200   23.8760 C   0  0  0  0  0  3  0  0  0  0  0  0
  -27.2020  -36.6370   24.7850 C   0  0  0  0  0  1  0  0  0  0  0  0
  -26.0670  -36.8520   23.8940 N   0  0  0  0  0  0  0  0  0  0  0  0
  -25.6020  -37.7110   24.1750 H   0  0  0  0  0  0  0  0  0  0  0  0
  -26.5180  -31.0900   24.4130 C   0  0  1  0  0  0  0  0  0  0  0  0
  -25.5350  -30.6260   25.5140 C   0  0  0  0  0  1  0  0  0  0  0  0
  -27.1690  -29.8290   23.7990 C   0  0  0  0  0  1  0  0  0  0  0  0
  -27.6550  -31.8890   25.0920 C   0  0  0  0  0  1  0  0  0  0  0  0
  1  4  1  0
  2  1  2  0
  2  6  1  0
  4  3  2  0
  5  3  1  0
  5  7  1  0
  6  5  2  0
  8 20  1  0
  9 14  1  0
 10 11  1  0
 10  9  1  0
 12 11  1  0
 12 24  1  0
 12 13  1  0
 14  8  1  0
 14 13  1  0
 15  8  2  0
 17 16  1  0
 18 20  1  0
 18 19  1  0
 19  4  1  0
 19 16  1  0
 20 17  1  0
 21 22  2  0
 22 41  1  0
 23 26  1  0
 23 22  1  0
 24 25  1  0
 24 21  1  0
 25 23  2  0
 26 27  1  0
 27 28  2  0
 29 32  1  0
 29 28  1  0
 30 29  2  0
 31 30  1  0
 31 26  2  0
 32 33  1  0
 33 34  1  0
 34 35  2  0
 36 35  1  0
 36 40  1  0
 37 36  2  0
 38 33  2  0
 38 37  1  0
 39 38  1  0
 41 42  1  0
 42 45  1  0
 42 44  1  0
 43 41  2  0
 46 21  1  0
 46 47  1  0
 48 46  1  0
 49 53  1  0
 49 50  1  0
 50  6  1  0
 50 52  1  0
 51 49  2  0
 54 56  1  0
 54 53  1  0
 55 66  2  0
 56 61  1  0
 57 65  1  0
 57 67  1  0
 58 64  1  0
 58 60  1  0
 59 65  1  0
 60 59  1  0
 61 60  2  0
 62 63  1  0
 62 56  2  0
 63 58  2  0
 64 57  1  0
 65 55  1  0
 67 69  2  0
 68 67  1  0
 70 68  1  0
 71 80  2  0
 71 76  1  0
 72 68  1  0
 72 76  1  0
 73 72  1  0
 74 75  1  0
 74 73  1  0
 75 71  1  0
 76 77  2  0
 77 78  1  0
 79 78  2  0
 80 79  1  0
 81 55  1  0
 81 82  1  0
 81 91  1  0
 82 85  1  0
 83 82  1  0
 83 87  1  0
 84 83  2  0
 87 86  1  0
 87 89  1  0
 89 90  1  0
 89 88  1  0
 91 94  1  1
 91 92  1  0
 93 91  1  0
M  ISO  4   8 100  20 100  53 101  54 101
M  END
>  <TORSDO>  (80) 
F 18

>  <SCORE>  (80) 
-10.052

>  <name>  (80) 
79

>  <ligand_id>  (80) 
79

>  <original_smiles>  (80) 
[H]c1c([H])c([H])c2c(c1[H])C([H])([H])C([H])([H])C([H])([H])C2([H])N([H])C(=O)C1([H])N(C(=O)C([H])(N([H])C(=O)C([H])(N([H])C([H])([H])[H])C([H])([H])[H])C(C([H])([H])[H])(C([H])([H])[H])C([H])([H])[H])C([H])([H])c2c([H])c(OC([H])([H])C(=O)N([H])c3c([H])c([H])c(C4([H])C([H])([H])N(C(=O)N5C([H])([H])C([H])([H])C([H])([H])C([H])(n6nc(-c7c([H])c([H])c(Oc8c([H])c([H])c(F)c([H])c8F)c([H])c7[H])c(C(=O)N([H])[H])c6N([H])[H])C5([H])[H])C([H])([H])C4([H])[H])c([H])c3C([H])([H])[H])c([H])c([H])c2C1([H])[H]

>  <smiles>  (80) 
[H]c1c([H])c([H])c2c(c1[H])C([H])([H])C([H])([H])C([H])([H])C2([H])N([H])C(=O)C1([H])N(C(=O)C([H])(N([H])C(=O)C([H])(N([H])C([H])([H])[H])C([H])([H])[H])C(C([H])([H])[H])(C([H])([H])[H])C([H])([H])[H])C([H])([H])c2c([H])c(OC([H])([H])C(=O)N([H])c3c([H])c([H])c(C4([H])C([H])([H])N(C(=O)N5C([H])([H])C([H])([H])C([H])([H])C([H])(n6nc(-c7c([H])c([H])c(Oc8c([H])c([H])c(F)c([H])c8F)c([H])c7[H])c(C(=O)N([H])[H])c6N([H])[H])C5([H])[H])C([H])([H])C4([H])[H])c([H])c3C([H])([H])[H])c([H])c([H])c2C1([H])[H]

$$$$
80:0:0
     RDKit          3D

 96106  0  0  1  0  0  0  0  0999 V2000
  -29.4520  -24.9630   21.2690 C   0  0  0  0  0  2  0  0  0  0  0  0
  -28.6630  -24.7560   20.2000 C   0  0  0  0  0  3  0  0  0  0  0  0
  -30.3090  -23.8880   21.8110 C   0  0  0  0  0  0  0  0  0  0  0  0
  -30.7950  -22.7690   20.8540 C   0  0  0  0  0  2  0  0  0  0  0  0
  -28.6880  -23.1680   19.6060 C   0  0  0  0  0  3  0  0  0  0  0  0
  -28.6880  -23.1940   18.0760 C   0  0  0  0  0  1  0  0  0  0  0  0
  -29.7380  -22.0630   20.1110 N   0  0  0  0  0  0  0  0  0  0  0  0
  -30.6970  -23.8910   22.9790 O   0  0  0  0  0  0  0  0  0  0  0  0
  -30.0290  -19.2720   19.5140 C   0  0  0  0  0  3  0  0  0  0  0  0
  -29.8030  -20.5260   20.3980 C   0  0  0  0  0  0  0  0  0  0  0  0
  -29.8730  -20.0330   21.6880 C   0  0  0  0  0  0  0  0  0  0  0  0
  -30.2630  -17.9440   20.0930 C   0  0  0  0  0  0  0  0  0  0  0  0
  -30.1700  -18.2780   21.8080 S   0  0  0  0  0  0  0  0  0  0  0  0
  -31.0140  -15.2860   19.8180 C   0  0  0  0  0  0  0  0  0  0  0  0
  -30.8100  -12.8840   18.9090 C   0  0  0  0  0  2  0  0  0  0  0  0
  -29.8270  -12.7730   17.7180 C   0  0  0  0  0  2  0  0  0  0  0  0
  -28.3760  -12.6160   18.2130 C   0  0  0  0  0  2  0  0  0  0  0  0
  -28.0350  -13.5980   19.3630 C   0  0  0  0  0  3  0  0  0  0  0  0
  -29.1330  -13.6370   20.4440 C   0  0  0  0  0  2  0  0  0  0  0  0
  -30.3730  -14.0350   19.7610 N   0  0  0  0  0  0  0  0  0  0  0  0
  -32.2400  -15.2560   19.6430 O   0  0  0  0  0  0  0  0  0  0  0  0
  -30.2560  -16.5230   19.6870 N   0  0  0  0  0  0  0  0  0  0  0  0
  -29.3090  -16.2420   19.4850 H   0  0  0  0  0  0  0  0  0  0  0  0
  -25.7350  -14.3080   20.2180 C   0  0  0  0  0  0  0  0  0  0  0  0
  -24.6370  -13.5970   20.6130 C   0  0  0  0  0  0  0  0  0  0  0  0
  -25.0100  -12.2200   20.5390 C   0  0  0  0  0  0  0  0  0  0  0  0
  -26.7070  -13.3700   19.9180 N   0  0  0  0  0  0  0  0  0  0  0  0
  -26.2850  -12.1060   20.1790 N   0  0  0  0  0  0  0  0  0  0  0  0
  -24.2080  -11.0050   20.7300 C   0  0  0  0  0  0  0  0  0  0  0  0
  -24.5800  -10.0120   21.6630 C   0  0  0  0  0  3  0  0  0  0  0  0
  -23.7790   -8.8630   21.8430 C   0  0  0  0  0  3  0  0  0  0  0  0
  -22.5910   -8.7000   21.0920 C   0  0  0  0  0  0  0  0  0  0  0  0
  -22.2380   -9.6810   20.1490 C   0  0  0  0  0  3  0  0  0  0  0  0
  -23.0380  -10.8200   19.9650 C   0  0  0  0  0  3  0  0  0  0  0  0
  -21.7650   -7.6050   21.1820 O   0  0  0  0  0  0  0  0  0  0  0  0
  -21.6260   -6.9050   22.3530 C   0  0  0  0  0  0  0  0  0  0  0  0
  -21.2100   -7.5280   23.5510 C   0  0  0  0  0  3  0  0  0  0  0  0
  -21.0110   -6.7580   24.7130 C   0  0  0  0  0  3  0  0  0  0  0  0
  -21.2180   -5.3660   24.6810 C   0  0  0  0  0  0  0  0  0  0  0  0
  -21.6270   -4.7430   23.4890 C   0  0  0  0  0  3  0  0  0  0  0  0
  -21.8280   -5.5100   22.3270 C   0  0  0  0  0  0  0  0  0  0  0  0
  -22.2010   -4.9010   21.1760 F   0  0  0  0  0  0  0  0  0  0  0  0
  -21.0200   -4.6240   25.7960 F   0  0  0  0  0  0  0  0  0  0  0  0
  -23.2840  -14.1610   20.9380 C   0  0  0  0  0  0  0  0  0  0  0  0
  -22.5720  -13.5400   21.8720 N   0  0  0  0  0  0  0  0  0  0  0  0
  -22.8740  -15.1870   20.3990 O   0  0  0  0  0  0  0  0  0  0  0  0
  -22.9210  -12.7110   22.3290 H   0  0  0  0  0  0  0  0  0  0  0  0
  -21.6650  -13.9000   22.1330 H   0  0  0  0  0  0  0  0  0  0  0  0
  -25.9790  -15.6700   20.0600 N   0  0  0  0  0  0  0  0  0  0  0  0
  -25.2530  -16.3610   20.2110 H   0  0  0  0  0  0  0  0  0  0  0  0
  -26.8270  -16.0690   19.6840 H   0  0  0  0  0  0  0  0  0  0  0  0
  -29.7780  -20.7990   22.9720 C   0  0  0  0  0  2  0  0  0  0  0  0
  -31.3020  -21.7280   24.9070 C   0  0  0  0  0  2  0  0  0  0  0  0
  -31.9510  -20.4540   24.4300 C   0  0  0  0  0  2  0  0  0  0  0  0
  -31.1270  -21.2870   23.4710 C   0  0  0  0  0  3  0  0  0  0  0  0
  -28.2700  -26.0340   19.5150 O   0  0  0  0  0  0  0  0  0  0  0  0
  -24.4480  -31.5130   23.0110 C   0  0  0  0  0  0  0  0  0  0  0  0
  -27.1700  -26.9800   19.7270 C   0  0  0  0  0  0  0  0  0  0  0  0
  -23.3010  -30.1900   21.2800 C   0  0  0  0  0  3  0  0  0  0  0  0
  -24.8030  -28.7230   19.7840 C   0  0  0  0  0  0  0  0  0  0  0  0
  -25.8550  -30.5100   21.1570 C   0  0  0  0  0  2  0  0  0  0  0  0
  -25.9720  -29.1480   20.4290 C   0  0  0  0  0  0  0  0  0  0  0  0
  -27.1570  -28.2980   20.3740 C   0  0  0  0  0  3  0  0  0  0  0  0
  -25.9660  -26.6800   19.0600 C   0  0  0  0  0  3  0  0  0  0  0  0
  -24.8160  -27.5060   19.0840 C   0  0  0  0  0  3  0  0  0  0  0  0
  -23.5560  -29.5980   19.8680 C   0  0  0  0  0  2  0  0  0  0  0  0
  -24.5550  -30.7600   21.8720 N   0  0  0  0  0  0  0  0  0  0  0  0
  -23.3500  -31.7350   23.5460 O   0  0  0  0  0  0  0  0  0  0  0  0
  -22.6390  -29.1100   22.1740 C   0  0  0  0  0  0  0  0  0  0  0  0
  -21.3020  -28.9780   22.0970 N   0  0  0  0  0  0  0  0  0  0  0  0
  -23.3320  -28.3940   22.9010 O   0  0  0  0  0  0  0  0  0  0  0  0
  -20.7980  -29.6070   21.4880 H   0  0  0  0  0  0  0  0  0  0  0  0
  -17.9190  -27.7990   22.6630 C   0  0  0  0  0  0  0  0  0  0  0  0
  -20.4950  -27.9840   22.8110 C   0  0  0  0  0  3  0  0  0  0  0  0
  -20.5280  -26.6170   22.0870 C   0  0  0  0  0  2  0  0  0  0  0  0
  -19.3650  -26.4250   21.1070 C   0  0  0  0  0  2  0  0  0  0  0  0
  -18.0240  -26.5280   21.8390 C   0  0  0  0  0  2  0  0  0  0  0  0
  -19.0780  -28.4920   23.1060 C   0  0  0  0  0  0  0  0  0  0  0  0
  -18.9220  -29.6860   23.8420 C   0  0  0  0  0  3  0  0  0  0  0  0
  -17.6400  -30.1890   24.1330 C   0  0  0  0  0  3  0  0  0  0  0  0
  -16.4960  -29.4930   23.7040 C   0  0  0  0  0  3  0  0  0  0  0  0
  -16.6380  -28.2980   22.9760 C   0  0  0  0  0  3  0  0  0  0  0  0
  -25.7000  -32.1470   23.6920 C   0  0  0  0  0  3  0  0  0  0  0  0
  -26.1650  -31.3670   24.9830 C   0  0  1  0  0  0  0  0  0  0  0  0
  -25.0350  -31.1390   26.0150 C   0  0  0  0  0  1  0  0  0  0  0  0
  -26.7460  -29.9840   24.6120 C   0  0  0  0  0  1  0  0  0  0  0  0
  -27.3030  -32.1470   25.6850 C   0  0  0  0  0  1  0  0  0  0  0  0
  -25.3710  -33.5430   24.0290 N   0  0  0  0  0  0  0  0  0  0  0  0
  -25.7270  -34.6110   23.3050 C   0  0  0  0  0  0  0  0  0  0  0  0
  -26.4300  -34.5270   22.2940 O   0  0  0  0  0  0  0  0  0  0  0  0
  -24.7470  -33.6810   24.8110 H   0  0  0  0  0  0  0  0  0  0  0  0
  -23.9340  -36.3570   23.0190 C   0  0  0  0  0  1  0  0  0  0  0  0
  -25.2250  -35.9930   23.7720 C   0  0  0  0  0  3  0  0  0  0  0  0
  -27.3730  -36.9410   24.4900 C   0  0  0  0  0  1  0  0  0  0  0  0
  -26.2220  -37.0720   23.6000 N   0  0  0  0  0  0  0  0  0  0  0  0
  -25.8010  -37.9830   23.7610 H   0  0  0  0  0  0  0  0  0  0  0  0
  1  3  1  0
  2 56  1  0
  2  1  1  0
  3  8  2  0
  4  3  1  0
  5  6  1  0
  5  7  1  0
  5  2  1  0
  7 10  1  0
  7  4  1  0
  9 12  2  0
  9 10  1  0
 10 11  2  0
 11 13  1  0
 11 52  1  0
 12 13  1  0
 15 20  1  0
 16 17  1  0
 16 15  1  0
 18 17  1  0
 18 27  1  0
 18 19  1  0
 20 14  1  0
 20 19  1  0
 21 14  2  0
 22 14  1  0
 22 12  1  0
 23 22  1  0
 24 25  2  0
 25 44  1  0
 26 25  1  0
 26 29  1  0
 27 28  1  0
 27 24  1  0
 28 26  2  0
 29 30  1  0
 30 31  2  0
 32 35  1  0
 32 31  1  0
 33 32  2  0
 34 33  1  0
 34 29  2  0
 35 36  1  0
 36 37  1  0
 37 38  2  0
 39 38  1  0
 39 43  1  0
 40 39  2  0
 41 36  2  0
 41 40  1  0
 42 41  1  0
 44 45  1  0
 45 48  1  0
 45 47  1  0
 46 44  2  0
 49 50  1  0
 49 24  1  0
 51 49  1  0
 52 55  1  0
 54 53  1  0
 55 54  1  0
 55 53  1  0
 56 58  1  0
 57 68  2  0
 58 63  1  0
 59 67  1  0
 59 69  1  0
 60 66  1  0
 60 62  1  0
 61 67  1  0
 62 61  1  0
 63 62  2  0
 64 65  1  0
 64 58  2  0
 65 60  2  0
 66 59  1  0
 67 57  1  0
 69 71  2  0
 70 69  1  0
 72 70  1  0
 73 82  2  0
 73 78  1  0
 74 70  1  0
 74 78  1  0
 75 74  1  0
 76 77  1  0
 76 75  1  0
 77 73  1  0
 78 79  2  0
 79 80  1  0
 81 80  2  0
 82 81  1  0
 83 57  1  0
 83 88  1  0
 83 84  1  0
 84 87  1  1
 84 85  1  0
 86 84  1  0
 88 91  1  0
 89 93  1  0
 89 88  1  0
 90 89  2  0
 93 92  1  0
 95 96  1  0
 95 93  1  0
 95 94  1  0
M  ISO  4   2 101  14 100  22 100  56 101
M  END
>  <TORSDO>  (81) 
F 19

>  <SCORE>  (81) 
-11.660

>  <name>  (81) 
80

>  <ligand_id>  (81) 
80

>  <original_smiles>  (81) 
[H]C1=C(Oc2c([H])c([H])c3c(c2[H])C([H])([H])N(C(=O)C([H])(N([H])C(=O)C([H])(N([H])C([H])([H])[H])C([H])([H])[H])C(C([H])([H])[H])(C([H])([H])[H])C([H])([H])[H])C([H])(C(=O)N([H])C2([H])c4c([H])c([H])c([H])c([H])c4C([H])([H])C([H])([H])C2([H])[H])C3([H])[H])C([H])(C([H])([H])[H])N(c2c(C([H])([H])C3([H])C([H])([H])C3([H])[H])sc(N([H])C(=O)N3C([H])([H])C([H])([H])C([H])([H])C([H])(n4nc(-c5c([H])c([H])c(Oc6c([H])c([H])c(F)c([H])c6F)c([H])c5[H])c(C(=O)N([H])[H])c4N([H])[H])C3([H])[H])c2[H])C([H])([H])C1=O

>  <smiles>  (81) 
[H]C1=C(Oc2c([H])c([H])c3c(c2[H])C([H])([H])N(C(=O)C([H])(N([H])C(=O)C([H])(N([H])C([H])([H])[H])C([H])([H])[H])C(C([H])([H])[H])(C([H])([H])[H])C([H])([H])[H])C([H])(C(=O)N([H])C2([H])c4c([H])c([H])c([H])c([H])c4C([H])([H])C([H])([H])C2([H])[H])C3([H])[H])C([H])(C([H])([H])[H])N(c2c(C([H])([H])C3([H])C([H])([H])C3([H])[H])sc(N([H])C(=O)N3C([H])([H])C([H])([H])C([H])([H])C([H])(n4nc(-c5c([H])c([H])c(Oc6c([H])c([H])c(F)c([H])c6F)c([H])c5[H])c(C(=O)N([H])[H])c4N([H])[H])C3([H])[H])c2[H])C([H])([H])C1=O

$$$$
81:0:0
     RDKit          3D

 94102  0  0  1  0  0  0  0  0999 V2000
  -28.6530  -23.1690   20.4870 C   0  0  0  0  0  0  0  0  0  0  0  0
  -29.1400  -21.9470   20.9370 N   0  0  0  0  0  0  0  0  0  0  0  0
  -28.1530  -23.2870   19.3680 O   0  0  0  0  0  0  0  0  0  0  0  0
  -29.7140  -22.0110   21.7670 H   0  0  0  0  0  0  0  0  0  0  0  0
  -29.6520  -19.3450   20.8020 C   0  0  0  0  0  3  0  0  0  0  0  0
  -28.0420  -20.1840   19.4920 C   0  0  0  0  0  3  0  0  0  0  0  0
  -28.9580  -20.5740   20.4250 C   0  0  0  0  0  0  0  0  0  0  0  0
  -29.1150  -18.2780   20.0780 C   0  0  0  0  0  0  0  0  0  0  0  0
  -28.1340  -18.8290   19.2770 O   0  0  0  0  0  0  0  0  0  0  0  0
  -30.6650  -14.7560   20.4200 C   0  0  0  0  0  0  0  0  0  0  0  0
  -30.3810  -12.5070   19.3700 C   0  0  0  0  0  2  0  0  0  0  0  0
  -29.4490  -12.5880   18.1450 C   0  0  0  0  0  2  0  0  0  0  0  0
  -27.9800  -12.4190   18.5770 C   0  0  0  0  0  2  0  0  0  0  0  0
  -27.6060  -13.3030   19.8000 C   0  0  0  0  0  3  0  0  0  0  0  0
  -28.6730  -13.2430   20.9130 C   0  0  0  0  0  2  0  0  0  0  0  0
  -29.9630  -13.5790   20.3000 N   0  0  0  0  0  0  0  0  0  0  0  0
  -31.8560  -14.7890   20.1060 O   0  0  0  0  0  0  0  0  0  0  0  0
  -29.3810  -16.7660   19.8470 C   0  0  0  0  0  0  0  0  0  0  0  0
  -30.0390  -15.9470   20.7280 N   0  0  0  0  0  0  0  0  0  0  0  0
  -28.9310  -16.3030   18.7930 O   0  0  0  0  0  0  0  0  0  0  0  0
  -30.5240  -16.4970   21.4170 H   0  0  0  0  0  0  0  0  0  0  0  0
  -25.2280  -13.8740   20.5570 C   0  0  0  0  0  0  0  0  0  0  0  0
  -24.1670  -13.0910   20.9190 C   0  0  0  0  0  0  0  0  0  0  0  0
  -24.6350  -11.7420   20.8710 C   0  0  0  0  0  0  0  0  0  0  0  0
  -26.2710  -13.0020   20.3010 N   0  0  0  0  0  0  0  0  0  0  0  0
  -25.9250  -11.7140   20.5540 N   0  0  0  0  0  0  0  0  0  0  0  0
  -23.9150  -10.4760   21.0480 C   0  0  0  0  0  0  0  0  0  0  0  0
  -24.3330   -9.5150   21.9950 C   0  0  0  0  0  3  0  0  0  0  0  0
  -23.6130   -8.3130   22.1620 C   0  0  0  0  0  3  0  0  0  0  0  0
  -22.4580   -8.0630   21.3850 C   0  0  0  0  0  0  0  0  0  0  0  0
  -22.0580   -9.0120   20.4260 C   0  0  0  0  0  3  0  0  0  0  0  0
  -22.7800  -10.2070   20.2570 C   0  0  0  0  0  3  0  0  0  0  0  0
  -21.7120   -6.9120   21.4600 O   0  0  0  0  0  0  0  0  0  0  0  0
  -21.6150   -6.1930   22.6250 C   0  0  0  0  0  0  0  0  0  0  0  0
  -21.0850   -6.7550   23.8060 C   0  0  0  0  0  3  0  0  0  0  0  0
  -20.9380   -5.9590   24.9610 C   0  0  0  0  0  3  0  0  0  0  0  0
  -21.3120   -4.6020   24.9310 C   0  0  0  0  0  0  0  0  0  0  0  0
  -21.8350   -4.0390   23.7540 C   0  0  0  0  0  3  0  0  0  0  0  0
  -21.9820   -4.8330   22.6030 C   0  0  0  0  0  0  0  0  0  0  0  0
  -22.4680   -4.2820   21.4640 F   0  0  0  0  0  0  0  0  0  0  0  0
  -21.1650   -3.8340   26.0370 F   0  0  0  0  0  0  0  0  0  0  0  0
  -22.7690  -13.5610   21.1960 C   0  0  0  0  0  0  0  0  0  0  0  0
  -22.0400  -12.8450   22.0460 N   0  0  0  0  0  0  0  0  0  0  0  0
  -22.3310  -14.5960   20.6980 O   0  0  0  0  0  0  0  0  0  0  0  0
  -22.4070  -12.0090   22.4740 H   0  0  0  0  0  0  0  0  0  0  0  0
  -21.1000  -13.1380   22.2720 H   0  0  0  0  0  0  0  0  0  0  0  0
  -25.3870  -15.2460   20.3970 N   0  0  0  0  0  0  0  0  0  0  0  0
  -24.6180  -15.8970   20.5230 H   0  0  0  0  0  0  0  0  0  0  0  0
  -26.2280  -15.6850   20.0450 H   0  0  0  0  0  0  0  0  0  0  0  0
  -28.5890  -25.6720   21.2780 C   0  0  0  0  0  3  0  0  0  0  0  0
  -28.7780  -24.3100   21.4590 C   0  0  0  0  0  0  0  0  0  0  0  0
  -29.0650  -23.9570   22.7210 O   0  0  0  0  0  0  0  0  0  0  0  0
  -28.8130  -23.0470   22.8190 H   0  0  0  0  0  0  0  0  0  0  0  0
  -28.3080  -26.4750   20.1660 O   0  0  0  0  0  0  0  0  0  0  0  0
  -24.6120  -31.9340   23.2500 C   0  0  0  0  0  0  0  0  0  0  0  0
  -27.2230  -27.3580   20.2190 C   0  0  0  0  0  0  0  0  0  0  0  0
  -23.4250  -30.5130   21.6410 C   0  0  0  0  0  3  0  0  0  0  0  0
  -24.8570  -28.9550   20.2090 C   0  0  0  0  0  0  0  0  0  0  0  0
  -25.9470  -30.8430   21.4240 C   0  0  0  0  0  2  0  0  0  0  0  0
  -26.0280  -29.4550   20.7990 C   0  0  0  0  0  0  0  0  0  0  0  0
  -27.2170  -28.6640   20.8010 C   0  0  0  0  0  3  0  0  0  0  0  0
  -26.0360  -26.9110   19.6100 C   0  0  0  0  0  3  0  0  0  0  0  0
  -24.8600  -27.6870   19.6070 C   0  0  0  0  0  3  0  0  0  0  0  0
  -23.6180  -29.8240   20.2640 C   0  0  0  0  0  2  0  0  0  0  0  0
  -24.6840  -31.1140   22.1620 N   0  0  0  0  0  0  0  0  0  0  0  0
  -23.5290  -32.2070   23.7870 O   0  0  0  0  0  0  0  0  0  0  0  0
  -22.7750  -29.5100   22.6220 C   0  0  0  0  0  0  0  0  0  0  0  0
  -21.4530  -29.4370   22.5010 N   0  0  0  0  0  0  0  0  0  0  0  0
  -23.4350  -28.8280   23.4050 O   0  0  0  0  0  0  0  0  0  0  0  0
  -21.0510  -30.1250   21.8810 H   0  0  0  0  0  0  0  0  0  0  0  0
  -18.0280  -28.0180   22.9900 C   0  0  0  0  0  0  0  0  0  0  0  0
  -20.5020  -28.4330   22.9150 C   0  0  0  0  0  3  0  0  0  0  0  0
  -20.7620  -26.9330   22.7410 C   0  0  0  0  0  2  0  0  0  0  0  0
  -19.6610  -26.3560   21.8260 C   0  0  0  0  0  2  0  0  0  0  0  0
  -18.2400  -26.6380   22.3640 C   0  0  0  0  0  2  0  0  0  0  0  0
  -19.1190  -28.8440   23.3560 C   0  0  0  0  0  0  0  0  0  0  0  0
  -18.8940  -30.1070   23.9390 C   0  0  0  0  0  3  0  0  0  0  0  0
  -17.5790  -30.5720   24.1140 C   0  0  0  0  0  3  0  0  0  0  0  0
  -16.4910  -29.7700   23.7240 C   0  0  0  0  0  3  0  0  0  0  0  0
  -16.7160  -28.4920   23.1800 C   0  0  0  0  0  3  0  0  0  0  0  0
  -25.8910  -32.5820   23.8570 C   0  0  0  0  0  3  0  0  0  0  0  0
  -26.4160  -31.8230   25.1350 C   0  0  1  0  0  0  0  0  0  0  0  0
  -25.3290  -31.5860   26.2090 C   0  0  0  0  0  1  0  0  0  0  0  0
  -27.0100  -30.4470   24.7520 C   0  0  0  0  0  1  0  0  0  0  0  0
  -27.5620  -32.6330   25.7850 C   0  0  0  0  0  1  0  0  0  0  0  0
  -25.5710  -33.9800   24.1750 N   0  0  0  0  0  0  0  0  0  0  0  0
  -25.8820  -35.0260   23.3980 C   0  0  0  0  0  0  0  0  0  0  0  0
  -26.5370  -34.9140   22.3580 O   0  0  0  0  0  0  0  0  0  0  0  0
  -24.9900  -34.1390   24.9830 H   0  0  0  0  0  0  0  0  0  0  0  0
  -24.1520  -36.8140   23.0280 C   0  0  0  0  0  1  0  0  0  0  0  0
  -25.3900  -36.4150   23.8460 C   0  0  0  0  0  3  0  0  0  0  0  0
  -27.5170  -37.3130   24.6830 C   0  0  0  0  0  1  0  0  0  0  0  0
  -26.4200  -37.4690   23.7310 N   0  0  0  0  0  0  0  0  0  0  0  0
  -26.0110  -38.3890   23.8680 H   0  0  0  0  0  0  0  0  0  0  0  0
  1  2  1  0
  1 51  1  0
  2  4  1  0
  3  1  2  0
  6  7  2  0
  7  5  1  0
  7  2  1  0
  8  5  2  0
  9  6  1  0
  9  8  1  0
 10 19  1  0
 11 16  1  0
 12 13  1  0
 12 11  1  0
 14 13  1  0
 14 25  1  0
 14 15  1  0
 16 10  1  0
 16 15  1  0
 17 10  2  0
 18  8  1  0
 18 19  1  0
 19 21  1  0
 20 18  2  0
 22 23  2  0
 23 42  1  0
 24 23  1  0
 24 27  1  0
 25 26  1  0
 25 22  1  0
 26 24  2  0
 27 28  1  0
 28 29  2  0
 30 33  1  0
 30 29  1  0
 31 30  2  0
 32 31  1  0
 32 27  2  0
 33 34  1  0
 34 35  1  0
 35 36  2  0
 37 36  1  0
 37 41  1  0
 38 37  2  0
 39 34  2  0
 39 38  1  0
 40 39  1  0
 42 43  1  0
 43 46  1  0
 43 45  1  0
 44 42  2  0
 47 48  1  0
 47 22  1  0
 49 47  1  0
 50 51  2  0
 51 52  1  0
 52 53  1  0
 54 56  1  0
 54 50  1  0
 55 66  2  0
 56 61  1  0
 57 65  1  0
 57 67  1  0
 58 64  1  0
 58 60  1  0
 59 65  1  0
 60 61  2  0
 60 59  1  0
 62 56  2  0
 63 62  1  0
 63 58  2  0
 64 57  1  0
 65 55  1  0
 67 69  2  0
 68 67  1  0
 70 68  1  0
 71 80  2  0
 71 76  1  0
 72 68  1  0
 72 76  1  0
 73 72  1  0
 74 75  1  0
 74 73  1  0
 75 71  1  0
 76 77  2  0
 77 78  1  0
 79 78  2  0
 80 79  1  0
 81 55  1  0
 81 86  1  0
 81 82  1  0
 82 85  1  1
 82 83  1  0
 84 82  1  0
 86 89  1  0
 87 91  1  0
 87 86  1  0
 88 87  2  0
 91 90  1  0
 93 91  1  0
 93 94  1  0
 93 92  1  0
M  ISO  4  10 100  19 100  50 101  54 101
M  END
>  <TORSDO>  (82) 
F 19

>  <SCORE>  (82) 
-14.709

>  <name>  (82) 
81

>  <ligand_id>  (82) 
81

>  <original_smiles>  (82) 
[H]OC(C(=O)N([H])c1c([H])oc(C(=O)N([H])C(=O)N2C([H])([H])C([H])([H])C([H])([H])C([H])(n3nc(-c4c([H])c([H])c(Oc5c([H])c([H])c(F)c([H])c5F)c([H])c4[H])c(C(=O)N([H])[H])c3N([H])[H])C2([H])[H])c1[H])=C([H])Oc1c([H])c([H])c2c(c1[H])C([H])([H])N(C(=O)C([H])(N([H])C(=O)C([H])(N([H])C([H])([H])[H])C([H])([H])[H])C(C([H])([H])[H])(C([H])([H])[H])C([H])([H])[H])C([H])(C(=O)N([H])C1([H])c3c([H])c([H])c([H])c([H])c3C([H])([H])C([H])([H])C1([H])[H])C2([H])[H]

>  <smiles>  (82) 
[H]OC(C(=O)N([H])c1c([H])oc(C(=O)N([H])C(=O)N2C([H])([H])C([H])([H])C([H])([H])C([H])(n3nc(-c4c([H])c([H])c(Oc5c([H])c([H])c(F)c([H])c5F)c([H])c4[H])c(C(=O)N([H])[H])c3N([H])[H])C2([H])[H])c1[H])=C([H])Oc1c([H])c([H])c2c(c1[H])C([H])([H])N(C(=O)C([H])(N([H])C(=O)C([H])(N([H])C([H])([H])[H])C([H])([H])[H])C(C([H])([H])[H])(C([H])([H])[H])C([H])([H])[H])C([H])(C(=O)N([H])C1([H])c3c([H])c([H])c([H])c([H])c3C([H])([H])C([H])([H])C1([H])[H])C2([H])[H]

$$$$
82:0:0
     RDKit          3D

 92100  0  0  1  0  0  0  0  0999 V2000
  -29.2810  -22.6800   19.4570 N   0  0  0  0  0  0  0  0  0  0  0  0
  -29.5750  -22.7850   18.4920 H   0  0  0  0  0  0  0  0  0  0  0  0
  -29.9600  -20.1840   22.2210 C   0  0  0  0  0  3  0  0  0  0  0  0
  -30.2680  -18.9860   21.5340 C   0  0  0  0  0  3  0  0  0  0  0  0
  -29.6180  -21.3740   21.5360 C   0  0  0  0  0  3  0  0  0  0  0  0
  -29.8970  -20.1770   19.4480 C   0  0  0  0  0  3  0  0  0  0  0  0
  -30.2410  -18.9300   20.1250 C   0  0  0  0  0  0  0  0  0  0  0  0
  -29.5880  -21.4280   20.1240 C   0  0  0  0  0  0  0  0  0  0  0  0
  -30.6470  -17.5760   19.3750 C   0  0  0  0  0  2  0  0  0  0  0  0
  -31.1530  -15.0270   19.7440 C   0  0  0  0  0  0  0  0  0  0  0  0
  -30.9300  -12.6910   18.8920 C   0  0  0  0  0  2  0  0  0  0  0  0
  -29.9330  -12.6890   17.7120 C   0  0  0  0  0  2  0  0  0  0  0  0
  -28.4910  -12.5220   18.2260 C   0  0  0  0  0  2  0  0  0  0  0  0
  -28.1660  -13.4790   19.4050 C   0  0  0  0  0  3  0  0  0  0  0  0
  -29.2770  -13.4730   20.4750 C   0  0  0  0  0  2  0  0  0  0  0  0
  -30.5410  -13.7930   19.8010 N   0  0  0  0  0  0  0  0  0  0  0  0
  -32.3140  -15.1130   19.3310 O   0  0  0  0  0  0  0  0  0  0  0  0
  -30.3790  -16.1670   19.9180 N   0  0  0  0  0  0  0  0  0  0  0  0
  -29.4380  -16.0020   20.2380 H   0  0  0  0  0  0  0  0  0  0  0  0
  -25.8640  -14.1060   20.3440 C   0  0  0  0  0  0  0  0  0  0  0  0
  -24.8040  -13.3460   20.7620 C   0  0  0  0  0  0  0  0  0  0  0  0
  -25.2230  -11.9850   20.6420 C   0  0  0  0  0  0  0  0  0  0  0  0
  -26.8540  -13.2070   19.9860 N   0  0  0  0  0  0  0  0  0  0  0  0
  -26.4830  -11.9250   20.2310 N   0  0  0  0  0  0  0  0  0  0  0  0
  -24.4760  -10.7360   20.8340 C   0  0  0  0  0  0  0  0  0  0  0  0
  -24.8330   -9.8100   21.8390 C   0  0  0  0  0  3  0  0  0  0  0  0
  -24.0840   -8.6250   22.0180 C   0  0  0  0  0  3  0  0  0  0  0  0
  -22.9670   -8.3600   21.1910 C   0  0  0  0  0  0  0  0  0  0  0  0
  -22.6310   -9.2750   20.1770 C   0  0  0  0  0  3  0  0  0  0  0  0
  -23.3790  -10.4500   19.9970 C   0  0  0  0  0  3  0  0  0  0  0  0
  -22.1980   -7.2240   21.2720 O   0  0  0  0  0  0  0  0  0  0  0  0
  -21.9030   -6.6420   22.4800 C   0  0  0  0  0  0  0  0  0  0  0  0
  -21.2120   -7.3390   23.4950 C   0  0  0  0  0  3  0  0  0  0  0  0
  -20.8690   -6.6800   24.6920 C   0  0  0  0  0  3  0  0  0  0  0  0
  -21.2020   -5.3240   24.8720 C   0  0  0  0  0  0  0  0  0  0  0  0
  -21.8850   -4.6280   23.8610 C   0  0  0  0  0  3  0  0  0  0  0  0
  -22.2310   -5.2840   22.6660 C   0  0  0  0  0  0  0  0  0  0  0  0
  -22.8700   -4.6010   21.6870 F   0  0  0  0  0  0  0  0  0  0  0  0
  -20.8660   -4.6900   26.0200 F   0  0  0  0  0  0  0  0  0  0  0  0
  -23.4480  -13.8510   21.1610 C   0  0  0  0  0  0  0  0  0  0  0  0
  -22.7760  -13.1580   22.0730 N   0  0  0  0  0  0  0  0  0  0  0  0
  -22.9930  -14.8930   20.6920 O   0  0  0  0  0  0  0  0  0  0  0  0
  -23.1570  -12.3150   22.4780 H   0  0  0  0  0  0  0  0  0  0  0  0
  -21.8680  -13.4790   22.3750 H   0  0  0  0  0  0  0  0  0  0  0  0
  -26.0550  -15.4790   20.2150 N   0  0  0  0  0  0  0  0  0  0  0  0
  -25.3150  -16.1450   20.4150 H   0  0  0  0  0  0  0  0  0  0  0  0
  -26.8830  -15.9160   19.8340 H   0  0  0  0  0  0  0  0  0  0  0  0
  -28.6950  -23.9490   20.0730 C   0  0  0  0  0  2  0  0  0  0  0  0
  -28.1760  -25.1820   17.8170 C   0  0  0  0  0  1  0  0  0  0  0  0
  -28.7860  -25.3370   19.2240 C   0  0  2  0  0  0  0  0  0  0  0  0
  -30.1080  -25.3610   18.9160 F   0  0  0  0  0  0  0  0  0  0  0  0
  -28.5310  -26.6040   19.8160 O   0  0  0  0  0  0  0  0  0  0  0  0
  -24.7140  -31.8290   23.0720 C   0  0  0  0  0  0  0  0  0  0  0  0
  -27.3560  -27.4000   19.8030 C   0  0  0  0  0  0  0  0  0  0  0  0
  -23.5040  -30.4520   21.4210 C   0  0  0  0  0  3  0  0  0  0  0  0
  -24.9510  -28.9780   19.9120 C   0  0  0  0  0  0  0  0  0  0  0  0
  -26.0290  -30.8400   21.1740 C   0  0  0  0  0  2  0  0  0  0  0  0
  -26.1270  -29.4790   20.4830 C   0  0  0  0  0  0  0  0  0  0  0  0
  -27.3270  -28.7030   20.4120 C   0  0  0  0  0  3  0  0  0  0  0  0
  -26.1350  -26.9430   19.2630 C   0  0  0  0  0  3  0  0  0  0  0  0
  -24.9600  -27.7170   19.2960 C   0  0  0  0  0  3  0  0  0  0  0  0
  -23.6980  -29.8230   20.0160 C   0  0  0  0  0  2  0  0  0  0  0  0
  -24.7700  -31.0580   21.9460 N   0  0  0  0  0  0  0  0  0  0  0  0
  -23.6390  -32.0600   23.6430 O   0  0  0  0  0  0  0  0  0  0  0  0
  -22.8920  -29.3890   22.3680 C   0  0  0  0  0  0  0  0  0  0  0  0
  -21.5740  -29.1600   22.2520 N   0  0  0  0  0  0  0  0  0  0  0  0
  -23.6050  -28.7760   23.1660 O   0  0  0  0  0  0  0  0  0  0  0  0
  -21.0530  -29.7120   21.5840 H   0  0  0  0  0  0  0  0  0  0  0  0
  -18.2660  -27.7700   22.7180 C   0  0  0  0  0  0  0  0  0  0  0  0
  -20.8030  -28.1730   23.0110 C   0  0  0  0  0  3  0  0  0  0  0  0
  -20.9880  -26.7510   22.4290 C   0  0  0  0  0  2  0  0  0  0  0  0
  -19.9160  -26.3760   21.4010 C   0  0  0  0  0  2  0  0  0  0  0  0
  -18.5220  -26.4380   22.0310 C   0  0  0  0  0  2  0  0  0  0  0  0
  -19.3350  -28.5910   23.1630 C   0  0  0  0  0  0  0  0  0  0  0  0
  -19.0400  -29.8350   23.7640 C   0  0  0  0  0  3  0  0  0  0  0  0
  -17.7080  -30.2600   23.9220 C   0  0  0  0  0  3  0  0  0  0  0  0
  -16.6530  -29.4380   23.4920 C   0  0  0  0  0  3  0  0  0  0  0  0
  -16.9310  -28.1940   22.8960 C   0  0  0  0  0  3  0  0  0  0  0  0
  -25.9950  -32.4790   23.6820 C   0  0  0  0  0  3  0  0  0  0  0  0
  -26.6060  -31.6440   24.8740 C   0  0  1  0  0  0  0  0  0  0  0  0
  -25.5750  -31.2690   25.9640 C   0  0  0  0  0  1  0  0  0  0  0  0
  -27.2420  -30.3330   24.3540 C   0  0  0  0  0  1  0  0  0  0  0  0
  -27.7420  -32.4480   25.5500 C   0  0  0  0  0  1  0  0  0  0  0  0
  -25.6380  -33.8340   24.1320 N   0  0  0  0  0  0  0  0  0  0  0  0
  -25.8820  -34.9550   23.4410 C   0  0  0  0  0  0  0  0  0  0  0  0
  -26.5020  -34.9590   22.3730 O   0  0  0  0  0  0  0  0  0  0  0  0
  -25.0810  -33.8960   24.9710 H   0  0  0  0  0  0  0  0  0  0  0  0
  -24.0580  -36.6820   23.3100 C   0  0  0  0  0  1  0  0  0  0  0  0
  -25.3560  -36.2800   24.0260 C   0  0  0  0  0  3  0  0  0  0  0  0
  -27.4860  -37.2120   24.8230 C   0  0  0  0  0  1  0  0  0  0  0  0
  -26.3330  -37.3880   23.9420 N   0  0  0  0  0  0  0  0  0  0  0  0
  -25.8920  -38.2750   24.1700 H   0  0  0  0  0  0  0  0  0  0  0  0
  1 48  1  0
  1  8  1  0
  2  1  1  0
  4  3  2  0
  5  3  1  0
  6  8  1  0
  6  7  2  0
  7  4  1  0
  8  5  2  0
  9 18  1  0
  9  7  1  0
 10 16  1  0
 10 18  1  0
 11 16  1  0
 12 13  1  0
 12 11  1  0
 14 13  1  0
 14 23  1  0
 14 15  1  0
 16 15  1  0
 17 10  2  0
 18 19  1  0
 20 21  2  0
 21 40  1  0
 22 21  1  0
 22 25  1  0
 23 24  1  0
 23 20  1  0
 24 22  2  0
 25 26  1  0
 26 27  2  0
 28 31  1  0
 28 27  1  0
 29 28  2  0
 30 29  1  0
 30 25  2  0
 31 32  1  0
 32 37  2  0
 32 33  1  0
 33 34  2  0
 34 35  1  0
 35 39  1  0
 36 35  2  0
 37 36  1  0
 38 37  1  0
 40 41  1  0
 41 44  1  0
 41 43  1  0
 42 40  2  0
 45 20  1  0
 45 46  1  0
 47 45  1  0
 50 49  1  6
 50 52  1  0
 50 48  1  0
 51 50  1  0
 53 64  2  0
 54 52  1  0
 54 59  1  0
 55 63  1  0
 55 65  1  0
 56 62  1  0
 56 58  1  0
 57 63  1  0
 58 57  1  0
 59 58  2  0
 60 61  1  0
 60 54  2  0
 61 56  2  0
 62 55  1  0
 63 53  1  0
 65 67  2  0
 66 65  1  0
 68 66  1  0
 69 78  2  0
 69 74  1  0
 70 66  1  0
 70 74  1  0
 71 70  1  0
 72 73  1  0
 72 71  1  0
 73 69  1  0
 74 75  2  0
 75 76  1  0
 77 76  2  0
 78 77  1  0
 79 53  1  0
 79 84  1  0
 79 80  1  0
 80 83  1  1
 80 81  1  0
 82 80  1  0
 84 87  1  0
 85 89  1  0
 85 84  1  0
 86 85  2  0
 89 88  1  0
 91 89  1  0
 91 92  1  0
 91 90  1  0
M  ISO  4  10 100  18 100  50 101  52 101
M  END
>  <TORSDO>  (83) 
F 20

>  <SCORE>  (83) 
-12.152

>  <name>  (83) 
82

>  <ligand_id>  (83) 
82

>  <original_smiles>  (83) 
[H]c1c([H])c(N([H])C([H])([H])C(F)(Oc2c([H])c([H])c3c(c2[H])C([H])([H])N(C(=O)C([H])(N([H])C(=O)C([H])(N([H])C([H])([H])[H])C([H])([H])[H])C(C([H])([H])[H])(C([H])([H])[H])C([H])([H])[H])C([H])(C(=O)N([H])C2([H])c4c([H])c([H])c([H])c([H])c4C([H])([H])C([H])([H])C2([H])[H])C3([H])[H])C([H])([H])[H])c([H])c(C([H])([H])N([H])C(=O)N2C([H])([H])C([H])([H])C([H])([H])C([H])(n3nc(-c4c([H])c([H])c(Oc5c([H])c([H])c(F)c([H])c5F)c([H])c4[H])c(C(=O)N([H])[H])c3N([H])[H])C2([H])[H])c1[H]

>  <smiles>  (83) 
[H]c1c([H])c(N([H])C([H])([H])C(F)(Oc2c([H])c([H])c3c(c2[H])C([H])([H])N(C(=O)C([H])(N([H])C(=O)C([H])(N([H])C([H])([H])[H])C([H])([H])[H])C(C([H])([H])[H])(C([H])([H])[H])C([H])([H])[H])C([H])(C(=O)N([H])C2([H])c4c([H])c([H])c([H])c([H])c4C([H])([H])C([H])([H])C2([H])[H])C3([H])[H])C([H])([H])[H])c([H])c(C([H])([H])N([H])C(=O)N2C([H])([H])C([H])([H])C([H])([H])C([H])(n3nc(-c4c([H])c([H])c(Oc5c([H])c([H])c(F)c([H])c5F)c([H])c4[H])c(C(=O)N([H])[H])c3N([H])[H])C2([H])[H])c1[H]

$$$$
83:0:0
     RDKit          3D

 91 99  0  0  1  0  0  0  0  0999 V2000
  -30.6750  -19.4410   21.1840 C   0  0  0  0  0  3  0  0  0  0  0  0
  -30.2040  -18.1530   21.0700 C   0  0  0  0  0  0  0  0  0  0  0  0
  -29.6530  -20.2730   20.6400 C   0  0  0  0  0  0  0  0  0  0  0  0
  -28.9300  -22.6560   20.1190 C   0  0  0  0  0  0  0  0  0  0  0  0
  -28.6330  -19.5350   20.2110 N   0  0  0  0  0  0  0  0  0  0  0  0
  -29.7660  -21.7090   20.6200 N   0  0  0  0  0  0  0  0  0  0  0  0
  -27.9090  -22.3720   19.4850 O   0  0  0  0  0  0  0  0  0  0  0  0
  -28.9740  -18.1930   20.4790 O   0  0  0  0  0  0  0  0  0  0  0  0
  -30.5950  -22.0700   21.0660 H   0  0  0  0  0  0  0  0  0  0  0  0
  -30.7920  -16.8180   21.5160 C   0  0  0  0  0  2  0  0  0  0  0  0
  -30.7020  -14.5280   20.4940 C   0  0  0  0  0  0  0  0  0  0  0  0
  -30.3700  -12.3590   19.3520 C   0  0  0  0  0  2  0  0  0  0  0  0
  -29.4430  -12.5450   18.1340 C   0  0  0  0  0  2  0  0  0  0  0  0
  -27.9660  -12.4070   18.5560 C   0  0  0  0  0  2  0  0  0  0  0  0
  -27.6210  -13.2580   19.8100 C   0  0  0  0  0  3  0  0  0  0  0  0
  -28.6700  -13.0680   20.9290 C   0  0  0  0  0  2  0  0  0  0  0  0
  -29.9940  -13.3680   20.3600 N   0  0  0  0  0  0  0  0  0  0  0  0
  -31.8200  -14.6650   19.9970 O   0  0  0  0  0  0  0  0  0  0  0  0
  -30.1060  -15.5610   21.1300 N   0  0  0  0  0  0  0  0  0  0  0  0
  -29.1750  -15.4160   21.4880 H   0  0  0  0  0  0  0  0  0  0  0  0
  -25.2220  -13.8700   20.5020 C   0  0  0  0  0  0  0  0  0  0  0  0
  -24.1460  -13.1000   20.8600 C   0  0  0  0  0  0  0  0  0  0  0  0
  -24.6030  -11.7470   20.8360 C   0  0  0  0  0  0  0  0  0  0  0  0
  -26.2640  -12.9850   20.2820 N   0  0  0  0  0  0  0  0  0  0  0  0
  -25.8960  -11.7040   20.5400 N   0  0  0  0  0  0  0  0  0  0  0  0
  -23.8680  -10.4880   21.0220 C   0  0  0  0  0  0  0  0  0  0  0  0
  -24.2910   -9.5220   21.9600 C   0  0  0  0  0  3  0  0  0  0  0  0
  -23.5600   -8.3270   22.1370 C   0  0  0  0  0  3  0  0  0  0  0  0
  -22.3900   -8.0900   21.3750 C   0  0  0  0  0  0  0  0  0  0  0  0
  -21.9880   -9.0470   20.4240 C   0  0  0  0  0  3  0  0  0  0  0  0
  -22.7200  -10.2340   20.2470 C   0  0  0  0  0  3  0  0  0  0  0  0
  -21.6340   -6.9470   21.4560 O   0  0  0  0  0  0  0  0  0  0  0  0
  -21.5670   -6.2090   22.6110 C   0  0  0  0  0  0  0  0  0  0  0  0
  -21.1150   -6.7670   23.8270 C   0  0  0  0  0  3  0  0  0  0  0  0
  -20.9980   -5.9550   24.9730 C   0  0  0  0  0  3  0  0  0  0  0  0
  -21.3220   -4.5870   24.9040 C   0  0  0  0  0  0  0  0  0  0  0  0
  -21.7680   -4.0280   23.6930 C   0  0  0  0  0  3  0  0  0  0  0  0
  -21.8880   -4.8380   22.5490 C   0  0  0  0  0  0  0  0  0  0  0  0
  -22.2970   -4.2910   21.3790 F   0  0  0  0  0  0  0  0  0  0  0  0
  -21.2030   -3.8040   26.0020 F   0  0  0  0  0  0  0  0  0  0  0  0
  -22.7500  -13.5850   21.1230 C   0  0  0  0  0  0  0  0  0  0  0  0
  -22.0140  -12.8910   21.9850 N   0  0  0  0  0  0  0  0  0  0  0  0
  -22.3190  -14.6120   20.6010 O   0  0  0  0  0  0  0  0  0  0  0  0
  -22.3750  -12.0560   22.4240 H   0  0  0  0  0  0  0  0  0  0  0  0
  -21.0760  -13.1960   22.2080 H   0  0  0  0  0  0  0  0  0  0  0  0
  -25.3950  -15.2390   20.3250 N   0  0  0  0  0  0  0  0  0  0  0  0
  -24.6300  -15.8990   20.4120 H   0  0  0  0  0  0  0  0  0  0  0  0
  -26.2600  -15.6740   20.0240 H   0  0  0  0  0  0  0  0  0  0  0  0
  -29.2890  -24.1630   20.3380 C   0  0  0  0  0  2  0  0  0  0  0  0
  -28.1720  -25.1760   19.9150 C   0  0  0  0  0  2  0  0  0  0  0  0
  -28.3530  -26.5950   20.2210 O   0  0  0  0  0  0  0  0  0  0  0  0
  -24.5940  -31.9210   23.2300 C   0  0  0  0  0  0  0  0  0  0  0  0
  -27.2130  -27.4020   20.1710 C   0  0  0  0  0  0  0  0  0  0  0  0
  -23.3890  -30.5260   21.5850 C   0  0  0  0  0  3  0  0  0  0  0  0
  -24.8390  -28.9820   20.1660 C   0  0  0  0  0  0  0  0  0  0  0  0
  -25.9280  -30.8510   21.4070 C   0  0  0  0  0  2  0  0  0  0  0  0
  -26.0050  -29.4780   20.7620 C   0  0  0  0  0  0  0  0  0  0  0  0
  -27.1950  -28.6990   20.7580 C   0  0  0  0  0  3  0  0  0  0  0  0
  -26.0220  -26.9510   19.5520 C   0  0  0  0  0  3  0  0  0  0  0  0
  -24.8480  -27.7210   19.5540 C   0  0  0  0  0  3  0  0  0  0  0  0
  -23.6020  -29.8500   20.2070 C   0  0  0  0  0  2  0  0  0  0  0  0
  -24.6560  -31.1130   22.1330 N   0  0  0  0  0  0  0  0  0  0  0  0
  -23.5090  -32.2040   23.7600 O   0  0  0  0  0  0  0  0  0  0  0  0
  -22.7240  -29.5090   22.5440 C   0  0  0  0  0  0  0  0  0  0  0  0
  -21.3960  -29.3430   22.4180 N   0  0  0  0  0  0  0  0  0  0  0  0
  -23.4000  -28.8750   23.3570 O   0  0  0  0  0  0  0  0  0  0  0  0
  -20.9140  -29.9070   21.7340 H   0  0  0  0  0  0  0  0  0  0  0  0
  -18.0040  -28.2030   22.9320 C   0  0  0  0  0  0  0  0  0  0  0  0
  -20.5680  -28.4130   23.1860 C   0  0  0  0  0  3  0  0  0  0  0  0
  -20.6390  -26.9850   22.5970 C   0  0  0  0  0  2  0  0  0  0  0  0
  -19.5250  -26.6900   21.5900 C   0  0  0  0  0  2  0  0  0  0  0  0
  -18.1520  -26.8550   22.2450 C   0  0  0  0  0  2  0  0  0  0  0  0
  -19.1390  -28.9420   23.3590 C   0  0  0  0  0  0  0  0  0  0  0  0
  -18.9470  -30.2050   23.9610 C   0  0  0  0  0  3  0  0  0  0  0  0
  -17.6530  -30.7280   24.1400 C   0  0  0  0  0  3  0  0  0  0  0  0
  -16.5330  -29.9850   23.7290 C   0  0  0  0  0  3  0  0  0  0  0  0
  -16.7090  -28.7240   23.1300 C   0  0  0  0  0  3  0  0  0  0  0  0
  -25.8790  -32.5470   23.8540 C   0  0  0  0  0  3  0  0  0  0  0  0
  -26.3880  -31.7750   25.1300 C   0  0  1  0  0  0  0  0  0  0  0  0
  -25.2910  -31.5390   26.1950 C   0  0  0  0  0  1  0  0  0  0  0  0
  -26.9700  -30.3960   24.7360 C   0  0  0  0  0  1  0  0  0  0  0  0
  -27.5360  -32.5660   25.7990 C   0  0  0  0  0  1  0  0  0  0  0  0
  -25.5720  -33.9470   24.1850 N   0  0  0  0  0  0  0  0  0  0  0  0
  -25.9010  -34.9980   23.4240 C   0  0  0  0  0  0  0  0  0  0  0  0
  -26.5670  -34.8950   22.3910 O   0  0  0  0  0  0  0  0  0  0  0  0
  -24.9820  -34.1020   24.9890 H   0  0  0  0  0  0  0  0  0  0  0  0
  -24.1720  -36.7910   23.0810 C   0  0  0  0  0  1  0  0  0  0  0  0
  -25.4170  -36.3870   23.8860 C   0  0  0  0  0  3  0  0  0  0  0  0
  -27.5580  -37.2680   24.7060 C   0  0  0  0  0  1  0  0  0  0  0  0
  -26.4510  -37.4390   23.7690 N   0  0  0  0  0  0  0  0  0  0  0  0
  -26.0460  -38.3580   23.9230 H   0  0  0  0  0  0  0  0  0  0  0  0
  2  1  2  0
  2 10  1  0
  3  1  1  0
  4 49  1  0
  4  6  1  0
  5  8  1  0
  5  3  2  0
  6  3  1  0
  6  9  1  0
  7  4  2  0
  8  2  1  0
 11 19  1  0
 12 17  1  0
 13 14  1  0
 13 12  1  0
 15 14  1  0
 15 24  1  0
 15 16  1  0
 17 11  1  0
 17 16  1  0
 18 11  2  0
 19 20  1  0
 19 10  1  0
 21 22  2  0
 22 41  1  0
 23 22  1  0
 23 26  1  0
 24 21  1  0
 24 25  1  0
 25 23  2  0
 26 27  1  0
 27 28  2  0
 29 32  1  0
 29 28  1  0
 30 29  2  0
 31 30  1  0
 31 26  2  0
 32 33  1  0
 33 34  1  0
 34 35  2  0
 36 35  1  0
 36 40  1  0
 37 36  2  0
 38 33  2  0
 38 37  1  0
 39 38  1  0
 41 42  1  0
 42 45  1  0
 42 44  1  0
 43 41  2  0
 46 47  1  0
 46 21  1  0
 48 46  1  0
 50 51  1  0
 50 49  1  0
 52 63  2  0
 53 51  1  0
 53 58  1  0
 54 62  1  0
 54 64  1  0
 55 61  1  0
 55 57  1  0
 56 62  1  0
 57 56  1  0
 58 57  2  0
 59 60  1  0
 59 53  2  0
 60 55  2  0
 61 54  1  0
 62 52  1  0
 64 66  2  0
 65 64  1  0
 67 65  1  0
 68 77  2  0
 68 73  1  0
 69 65  1  0
 69 73  1  0
 70 69  1  0
 71 72  1  0
 71 70  1  0
 72 68  1  0
 73 74  2  0
 74 75  1  0
 76 75  2  0
 77 76  1  0
 78 52  1  0
 78 83  1  0
 78 79  1  0
 79 82  1  1
 79 80  1  0
 81 79  1  0
 83 86  1  0
 84 88  1  0
 84 83  1  0
 85 84  2  0
 88 87  1  0
 90 88  1  0
 90 91  1  0
 90 89  1  0
M  ISO  4  11 100  19 100  50 101  51 101
M  END
>  <TORSDO>  (84) 
F 19

>  <SCORE>  (84) 
-14.470

>  <name>  (84) 
83

>  <ligand_id>  (84) 
83

>  <original_smiles>  (84) 
[H]c1c(N([H])C(=O)C([H])([H])C([H])([H])Oc2c([H])c([H])c3c(c2[H])C([H])([H])N(C(=O)C([H])(N([H])C(=O)C([H])(N([H])C([H])([H])[H])C([H])([H])[H])C(C([H])([H])[H])(C([H])([H])[H])C([H])([H])[H])C([H])(C(=O)N([H])C2([H])c4c([H])c([H])c([H])c([H])c4C([H])([H])C([H])([H])C2([H])[H])C3([H])[H])noc1C([H])([H])N([H])C(=O)N1C([H])([H])C([H])([H])C([H])([H])C([H])(n2nc(-c3c([H])c([H])c(Oc4c([H])c([H])c(F)c([H])c4F)c([H])c3[H])c(C(=O)N([H])[H])c2N([H])[H])C1([H])[H]

>  <smiles>  (84) 
[H]c1c(N([H])C(=O)C([H])([H])C([H])([H])Oc2c([H])c([H])c3c(c2[H])C([H])([H])N(C(=O)C([H])(N([H])C(=O)C([H])(N([H])C([H])([H])[H])C([H])([H])[H])C(C([H])([H])[H])(C([H])([H])[H])C([H])([H])[H])C([H])(C(=O)N([H])C2([H])c4c([H])c([H])c([H])c([H])c4C([H])([H])C([H])([H])C2([H])[H])C3([H])[H])noc1C([H])([H])N([H])C(=O)N1C([H])([H])C([H])([H])C([H])([H])C([H])(n2nc(-c3c([H])c([H])c(Oc4c([H])c([H])c(F)c([H])c4F)c([H])c3[H])c(C(=O)N([H])[H])c2N([H])[H])C1([H])[H]

$$$$
84:0:0
     RDKit          3D

 99108  0  0  1  0  0  0  0  0999 V2000
  -31.1100  -20.3260   19.8870 C   0  0  0  0  0  3  0  0  0  0  0  0
  -31.6180  -17.9190   19.8670 C   0  0  0  0  0  3  0  0  0  0  0  0
  -29.3170  -18.6770   20.1040 C   0  0  0  0  0  0  0  0  0  0  0  0
  -29.7230  -20.1130   20.0570 C   0  0  0  0  0  0  0  0  0  0  0  0
  -32.0310  -19.2650   19.8030 C   0  0  0  0  0  0  0  0  0  0  0  0
  -30.2620  -17.5320   20.0050 C   0  0  0  0  0  0  0  0  0  0  0  0
  -30.6500  -14.8800   19.6450 C   0  0  0  0  0  0  0  0  0  0  0  0
  -30.3110  -12.6670   18.5020 C   0  0  0  0  0  2  0  0  0  0  0  0
  -29.2420  -12.8130   17.3980 C   0  0  0  0  0  2  0  0  0  0  0  0
  -27.8330  -12.5980   17.9810 C   0  0  0  0  0  2  0  0  0  0  0  0
  -27.6050  -13.3900   19.2960 C   0  0  0  0  0  3  0  0  0  0  0  0
  -28.7860  -13.2450   20.2780 C   0  0  0  0  0  2  0  0  0  0  0  0
  -29.9970  -13.6620   19.5620 N   0  0  0  0  0  0  0  0  0  0  0  0
  -31.8020  -14.9340   19.2090 O   0  0  0  0  0  0  0  0  0  0  0  0
  -29.9360  -16.0380   20.0240 N   0  0  0  0  0  0  0  0  0  0  0  0
  -28.9990  -15.8110   20.3160 H   0  0  0  0  0  0  0  0  0  0  0  0
  -25.3140  -13.9090   20.3150 C   0  0  0  0  0  0  0  0  0  0  0  0
  -24.3040  -13.1060   20.7660 C   0  0  0  0  0  0  0  0  0  0  0  0
  -24.7710  -11.7640   20.6200 C   0  0  0  0  0  0  0  0  0  0  0  0
  -26.3300  -13.0560   19.9200 N   0  0  0  0  0  0  0  0  0  0  0  0
  -26.0190  -11.7570   20.1670 N   0  0  0  0  0  0  0  0  0  0  0  0
  -24.0760  -10.4860   20.8270 C   0  0  0  0  0  0  0  0  0  0  0  0
  -24.5270   -9.5460   21.7800 C   0  0  0  0  0  3  0  0  0  0  0  0
  -23.8310   -8.3330   21.9750 C   0  0  0  0  0  3  0  0  0  0  0  0
  -22.6710   -8.0510   21.2150 C   0  0  0  0  0  0  0  0  0  0  0  0
  -22.2390   -8.9790   20.2510 C   0  0  0  0  0  3  0  0  0  0  0  0
  -22.9360  -10.1830   20.0540 C   0  0  0  0  0  3  0  0  0  0  0  0
  -21.9450   -6.8890   21.3190 O   0  0  0  0  0  0  0  0  0  0  0  0
  -21.7850   -6.2450   22.5190 C   0  0  0  0  0  0  0  0  0  0  0  0
  -21.1940   -6.8810   23.6330 C   0  0  0  0  0  3  0  0  0  0  0  0
  -20.9860   -6.1600   24.8260 C   0  0  0  0  0  3  0  0  0  0  0  0
  -21.3570   -4.8040   24.9050 C   0  0  0  0  0  0  0  0  0  0  0  0
  -21.9390   -4.1680   23.7940 C   0  0  0  0  0  3  0  0  0  0  0  0
  -22.1500   -4.8850   22.6050 C   0  0  0  0  0  0  0  0  0  0  0  0
  -22.6920   -4.2620   21.5310 F   0  0  0  0  0  0  0  0  0  0  0  0
  -21.1490   -4.1100   26.0480 F   0  0  0  0  0  0  0  0  0  0  0  0
  -22.9410  -13.5540   21.2090 C   0  0  0  0  0  0  0  0  0  0  0  0
  -22.3300  -12.8290   22.1390 N   0  0  0  0  0  0  0  0  0  0  0  0
  -22.4300  -14.5820   20.7650 O   0  0  0  0  0  0  0  0  0  0  0  0
  -22.7590  -11.9970   22.5180 H   0  0  0  0  0  0  0  0  0  0  0  0
  -21.4220  -13.1090   22.4780 H   0  0  0  0  0  0  0  0  0  0  0  0
  -25.4420  -15.2880   20.1760 N   0  0  0  0  0  0  0  0  0  0  0  0
  -24.6500  -15.8990   20.3430 H   0  0  0  0  0  0  0  0  0  0  0  0
  -26.1660  -15.7290   19.6270 H   0  0  0  0  0  0  0  0  0  0  0  0
  -28.2080  -23.6820   20.6190 C   0  0  0  0  0  0  0  0  0  0  0  0
  -28.9650  -22.6880   19.7660 C   0  0  0  0  0  0  0  0  0  0  0  0
  -27.9070  -25.0740   20.5900 C   0  0  0  0  0  0  0  0  0  0  0  0
  -27.7040  -22.8380   21.7740 C   0  0  0  0  0  2  0  0  0  0  0  0
  -27.9310  -21.3800   21.3910 C   0  0  0  0  0  2  0  0  0  0  0  0
  -27.1860  -25.6410   21.8280 C   0  0  0  0  0  1  0  0  0  0  0  0
  -28.8930  -21.3730   20.2960 N   0  0  0  0  0  0  0  0  0  0  0  0
  -29.5740  -22.9710   18.7310 O   0  0  0  0  0  0  0  0  0  0  0  0
  -28.1470  -26.1690   19.6710 O   0  0  0  0  0  0  0  0  0  0  0  0
  -24.5330  -31.6310   22.8880 C   0  0  0  0  0  0  0  0  0  0  0  0
  -27.1550  -27.1960   19.5850 C   0  0  0  0  0  0  0  0  0  0  0  0
  -23.3480  -30.3350   21.1570 C   0  0  0  0  0  3  0  0  0  0  0  0
  -24.8160  -28.8770   19.6360 C   0  0  0  0  0  0  0  0  0  0  0  0
  -25.8950  -30.6470   21.0180 C   0  0  0  0  0  2  0  0  0  0  0  0
  -25.9850  -29.3090   20.2780 C   0  0  0  0  0  0  0  0  0  0  0  0
  -27.1620  -28.4820   20.2410 C   0  0  0  0  0  3  0  0  0  0  0  0
  -25.9730  -26.8570   18.8980 C   0  0  0  0  0  3  0  0  0  0  0  0
  -24.8190  -27.6650   18.9290 C   0  0  0  0  0  3  0  0  0  0  0  0
  -23.5770  -29.7480   19.7380 C   0  0  0  0  0  2  0  0  0  0  0  0
  -24.6110  -30.8860   21.7460 N   0  0  0  0  0  0  0  0  0  0  0  0
  -23.4440  -31.8760   23.4290 O   0  0  0  0  0  0  0  0  0  0  0  0
  -22.6740  -29.2630   22.0490 C   0  0  0  0  0  0  0  0  0  0  0  0
  -21.3370  -29.1460   21.9570 N   0  0  0  0  0  0  0  0  0  0  0  0
  -23.3530  -28.5430   22.7860 O   0  0  0  0  0  0  0  0  0  0  0  0
  -20.8470  -29.7790   21.3400 H   0  0  0  0  0  0  0  0  0  0  0  0
  -17.9240  -28.1270   22.6100 C   0  0  0  0  0  0  0  0  0  0  0  0
  -20.5090  -28.1730   22.6730 C   0  0  0  0  0  3  0  0  0  0  0  0
  -20.4480  -26.8280   21.9130 C   0  0  0  0  0  2  0  0  0  0  0  0
  -19.2450  -26.7210   20.9710 C   0  0  0  0  0  2  0  0  0  0  0  0
  -17.9360  -26.8740   21.7520 C   0  0  0  0  0  2  0  0  0  0  0  0
  -19.1320  -28.7460   23.0290 C   0  0  0  0  0  0  0  0  0  0  0  0
  -19.0620  -29.9280   23.7980 C   0  0  0  0  0  3  0  0  0  0  0  0
  -17.8200  -30.4880   24.1480 C   0  0  0  0  0  3  0  0  0  0  0  0
  -16.6280  -29.8630   23.7420 C   0  0  0  0  0  3  0  0  0  0  0  0
  -16.6820  -28.6830   22.9790 C   0  0  0  0  0  3  0  0  0  0  0  0
  -25.8080  -32.2300   23.5600 C   0  0  0  0  0  3  0  0  0  0  0  0
  -26.3310  -31.3690   24.7750 C   0  0  1  0  0  0  0  0  0  0  0  0
  -25.2420  -31.0510   25.8280 C   0  0  0  0  0  1  0  0  0  0  0  0
  -26.9180  -30.0260   24.2840 C   0  0  0  0  0  1  0  0  0  0  0  0
  -27.4800  -32.1170   25.4910 C   0  0  0  0  0  1  0  0  0  0  0  0
  -25.4800  -33.5940   24.0030 N   0  0  0  0  0  0  0  0  0  0  0  0
  -25.7790  -34.7100   23.3230 C   0  0  0  0  0  0  0  0  0  0  0  0
  -26.4280  -34.6980   22.2740 O   0  0  0  0  0  0  0  0  0  0  0  0
  -24.9040  -33.6750   24.8270 H   0  0  0  0  0  0  0  0  0  0  0  0
  -24.0100  -36.4890   23.1530 C   0  0  0  0  0  1  0  0  0  0  0  0
  -25.2800  -36.0500   23.8980 C   0  0  0  0  0  3  0  0  0  0  0  0
  -27.4150  -36.9180   24.7450 C   0  0  0  0  0  1  0  0  0  0  0  0
  -26.2900  -37.1290   23.8390 N   0  0  0  0  0  0  0  0  0  0  0  0
  -25.8700  -38.0290   24.0600 H   0  0  0  0  0  0  0  0  0  0  0  0
  -27.8680  -18.3530   20.1660 C   0  0  0  0  0  0  0  0  0  0  0  0
  -27.4210  -17.4080   21.2750 C   0  0  0  0  0  1  0  0  0  0  0  0
  -27.0290  -18.8370   19.4030 O   0  0  0  0  0  0  0  0  0  0  0  0
  -33.3860  -19.5570   19.6650 N   0  0  0  0  0  0  0  0  0  0  0  0
  -33.7140  -20.4970   19.8660 H   0  0  0  0  0  0  0  0  0  0  0  0
  -34.0730  -18.8410   19.8860 H   0  0  0  0  0  0  0  0  0  0  0  0
  1  4  1  0
  2  6  2  0
  3 94  1  0
  4  3  2  0
  4 51  1  0
  5  2  1  0
  5  1  2  0
  6 15  1  0
  6  3  1  0
  7 15  1  0
  8 13  1  0
  9 10  1  0
  9  8  1  0
 11 10  1  0
 11 20  1  0
 11 12  1  0
 13  7  1  0
 13 12  1  0
 14  7  2  0
 15 16  1  0
 17 18  2  0
 18 37  1  0
 19 18  1  0
 19 22  1  0
 20 21  1  0
 20 17  1  0
 21 19  2  0
 22 23  1  0
 23 24  2  0
 25 28  1  0
 25 24  1  0
 26 25  2  0
 27 26  1  0
 27 22  2  0
 28 29  1  0
 29 34  2  0
 29 30  1  0
 30 31  2  0
 31 32  1  0
 32 36  1  0
 33 32  2  0
 34 33  1  0
 35 34  1  0
 37 38  1  0
 38 41  1  0
 38 40  1  0
 39 37  2  0
 42 17  1  0
 42 43  1  0
 44 42  1  0
 45 48  1  0
 46 51  1  0
 46 45  1  0
 47 45  2  0
 47 50  1  0
 49 48  1  0
 51 49  1  0
 52 46  2  0
 53 47  1  0
 54 65  2  0
 55 53  1  0
 55 60  1  0
 56 64  1  0
 56 66  1  0
 57 63  1  0
 57 59  1  0
 58 64  1  0
 59 58  1  0
 60 59  2  0
 61 62  1  0
 61 55  2  0
 62 57  2  0
 63 56  1  0
 64 54  1  0
 66 68  2  0
 67 66  1  0
 69 67  1  0
 70 79  2  0
 70 75  1  0
 71 67  1  0
 71 75  1  0
 72 71  1  0
 73 74  1  0
 73 72  1  0
 74 70  1  0
 75 76  2  0
 76 77  1  0
 78 77  2  0
 79 78  1  0
 80 54  1  0
 80 85  1  0
 80 81  1  0
 81 84  1  1
 81 82  1  0
 83 81  1  0
 85 88  1  0
 86 90  1  0
 86 85  1  0
 87 86  2  0
 90 89  1  0
 92 90  1  0
 92 93  1  0
 92 91  1  0
 94 95  1  0
 96 94  2  0
 97  5  1  0
 97 98  1  0
 97 99  1  0
M  ISO  4   7 100  15 100  47 101  53 101
M  END
>  <TORSDO>  (85) 
F 19

>  <SCORE>  (85) 
-11.662

>  <name>  (85) 
84

>  <ligand_id>  (85) 
84

>  <original_smiles>  (85) 
[H]c1c([H])c([H])c2c(c1[H])C([H])([H])C([H])([H])C([H])([H])C2([H])N([H])C(=O)C1([H])N(C(=O)C([H])(N([H])C(=O)C([H])(N([H])C([H])([H])[H])C([H])([H])[H])C(C([H])([H])[H])(C([H])([H])[H])C([H])([H])[H])C([H])([H])c2c([H])c(OC(=C3C(=O)N(c4c([H])c(N([H])[H])c([H])c(N([H])C(=O)N5C([H])([H])C([H])([H])C([H])([H])C([H])(n6nc(-c7c([H])c([H])c(Oc8c([H])c([H])c(F)c([H])c8F)c([H])c7[H])c(C(=O)N([H])[H])c6N([H])[H])C5([H])[H])c4C(=O)C([H])([H])[H])C([H])([H])C3([H])[H])C([H])([H])[H])c([H])c([H])c2C1([H])[H]

>  <smiles>  (85) 
[H]c1c([H])c([H])c2c(c1[H])C([H])([H])C([H])([H])C([H])([H])C2([H])N([H])C(=O)C1([H])N(C(=O)C([H])(N([H])C(=O)C([H])(N([H])C([H])([H])[H])C([H])([H])[H])C(C([H])([H])[H])(C([H])([H])[H])C([H])([H])[H])C([H])([H])c2c([H])c(OC(=C3C(=O)N(c4c([H])c(N([H])[H])c([H])c(N([H])C(=O)N5C([H])([H])C([H])([H])C([H])([H])C([H])(n6nc(-c7c([H])c([H])c(Oc8c([H])c([H])c(F)c([H])c8F)c([H])c7[H])c(C(=O)N([H])[H])c6N([H])[H])C5([H])[H])c4C(=O)C([H])([H])[H])C([H])([H])C3([H])[H])C([H])([H])[H])c([H])c([H])c2C1([H])[H]

$$$$
85:0:0
     RDKit          3D

 97105  0  0  1  0  0  0  0  0999 V2000
  -29.3320  -21.0690   19.8360 C   0  0  0  0  0  0  0  0  0  0  0  0
  -29.4030  -21.1630   18.4980 N   0  0  0  0  0  4  0  0  0  0  0  0
  -28.9900  -22.2560   20.5100 N   0  0  0  0  0  0  0  0  0  0  0  0
  -29.7420  -20.3720   17.9730 H   0  0  0  0  0  0  0  0  0  0  0  0
  -29.1980  -22.0000   17.9780 H   0  0  0  0  0  0  0  0  0  0  0  0
  -28.9260  -22.1800   21.5150 H   0  0  0  0  0  0  0  0  0  0  0  0
  -29.4170  -18.3570   19.7540 C   0  0  0  0  0  3  0  0  0  0  0  0
  -29.6810  -19.6530   20.3850 C   0  0  0  0  0  0  0  0  0  0  0  0
  -30.0550  -17.3350   20.4760 C   0  0  0  0  0  0  0  0  0  0  0  0
  -30.3910  -19.2850   21.5060 C   0  0  0  0  0  0  0  0  0  0  0  0
  -30.6460  -17.9210   21.5730 O   0  0  0  0  0  0  0  0  0  0  0  0
  -30.7250  -14.8420   20.1890 C   0  0  0  0  0  0  0  0  0  0  0  0
  -30.5460  -12.5400   19.1910 C   0  0  0  0  0  2  0  0  0  0  0  0
  -29.5780  -12.5910   17.9850 C   0  0  0  0  0  2  0  0  0  0  0  0
  -28.1200  -12.4100   18.4520 C   0  0  0  0  0  2  0  0  0  0  0  0
  -27.7670  -13.3220   19.6560 C   0  0  0  0  0  3  0  0  0  0  0  0
  -28.8460  -13.2380   20.7600 C   0  0  0  0  0  2  0  0  0  0  0  0
  -30.1260  -13.5990   20.1390 N   0  0  0  0  0  0  0  0  0  0  0  0
  -31.9100  -14.9630   19.8590 O   0  0  0  0  0  0  0  0  0  0  0  0
  -29.8780  -15.9400   20.3550 N   0  0  0  0  0  0  0  0  0  0  0  0
  -28.9210  -15.6460   20.4620 H   0  0  0  0  0  0  0  0  0  0  0  0
  -25.4060  -13.9450   20.4450 C   0  0  0  0  0  0  0  0  0  0  0  0
  -24.3390  -13.1840   20.8360 C   0  0  0  0  0  0  0  0  0  0  0  0
  -24.7860  -11.8280   20.7880 C   0  0  0  0  0  0  0  0  0  0  0  0
  -26.4320  -13.0520   20.1770 N   0  0  0  0  0  0  0  0  0  0  0  0
  -26.0680  -11.7740   20.4490 N   0  0  0  0  0  0  0  0  0  0  0  0
  -24.0480  -10.5740   20.9900 C   0  0  0  0  0  0  0  0  0  0  0  0
  -24.4770   -9.6010   21.9180 C   0  0  0  0  0  3  0  0  0  0  0  0
  -23.7390   -8.4130   22.1050 C   0  0  0  0  0  3  0  0  0  0  0  0
  -22.5560   -8.1890   21.3630 C   0  0  0  0  0  0  0  0  0  0  0  0
  -22.1470   -9.1480   20.4200 C   0  0  0  0  0  3  0  0  0  0  0  0
  -22.8840  -10.3280   20.2330 C   0  0  0  0  0  3  0  0  0  0  0  0
  -21.7870   -7.0540   21.4610 O   0  0  0  0  0  0  0  0  0  0  0  0
  -21.7320   -6.3190   22.6170 C   0  0  0  0  0  0  0  0  0  0  0  0
  -21.2820   -6.8780   23.8340 C   0  0  0  0  0  3  0  0  0  0  0  0
  -21.1750   -6.0690   24.9820 C   0  0  0  0  0  3  0  0  0  0  0  0
  -21.5060   -4.7030   24.9160 C   0  0  0  0  0  0  0  0  0  0  0  0
  -21.9470   -4.1430   23.7040 C   0  0  0  0  0  3  0  0  0  0  0  0
  -22.0570   -4.9490   22.5570 C   0  0  0  0  0  0  0  0  0  0  0  0
  -22.4640   -4.4010   21.3870 F   0  0  0  0  0  0  0  0  0  0  0  0
  -21.3970   -3.9240   26.0170 F   0  0  0  0  0  0  0  0  0  0  0  0
  -22.9540  -13.6790   21.1400 C   0  0  0  0  0  0  0  0  0  0  0  0
  -22.2340  -12.9860   22.0140 N   0  0  0  0  0  0  0  0  0  0  0  0
  -22.5240  -14.7160   20.6380 O   0  0  0  0  0  0  0  0  0  0  0  0
  -22.5970  -12.1460   22.4420 H   0  0  0  0  0  0  0  0  0  0  0  0
  -21.3060  -13.3010   22.2630 H   0  0  0  0  0  0  0  0  0  0  0  0
  -25.5840  -15.3140   20.2750 N   0  0  0  0  0  0  0  0  0  0  0  0
  -24.8320  -15.9770   20.4310 H   0  0  0  0  0  0  0  0  0  0  0  0
  -26.4230  -15.7490   19.9160 H   0  0  0  0  0  0  0  0  0  0  0  0
  -30.8330  -20.1080   22.5370 N   0  0  0  0  0  0  0  0  0  0  0  0
  -30.0580  -20.5170   23.0550 H   0  0  0  0  0  0  0  0  0  0  0  0
  -31.4220  -19.6370   23.2160 H   0  0  0  0  0  0  0  0  0  0  0  0
  -28.7370  -23.6880   19.9430 C   0  0  0  0  0  2  0  0  0  0  0  0
  -26.9330  -24.6370   21.5270 C   0  0  0  0  0  1  0  0  0  0  0  0
  -29.3370  -25.0790   22.0350 C   0  0  0  0  0  1  0  0  0  0  0  0
  -28.3120  -24.9540   20.8960 C   0  0  1  0  0  0  0  0  0  0  0  0
  -28.3870  -26.3700   20.3250 O   0  0  0  0  0  0  0  0  0  0  0  0
  -24.6070  -31.8760   23.2540 C   0  0  0  0  0  0  0  0  0  0  0  0
  -27.2930  -27.2700   20.2890 C   0  0  0  0  0  0  0  0  0  0  0  0
  -23.4510  -30.4750   21.5820 C   0  0  0  0  0  3  0  0  0  0  0  0
  -24.9440  -28.9240   20.1940 C   0  0  0  0  0  0  0  0  0  0  0  0
  -25.9980  -30.7880   21.4650 C   0  0  0  0  0  2  0  0  0  0  0  0
  -26.0990  -29.4030   20.8250 C   0  0  0  0  0  0  0  0  0  0  0  0
  -27.2790  -28.5880   20.8620 C   0  0  0  0  0  3  0  0  0  0  0  0
  -26.1300  -26.8740   19.5970 C   0  0  0  0  0  3  0  0  0  0  0  0
  -24.9660  -27.6700   19.5620 C   0  0  0  0  0  3  0  0  0  0  0  0
  -23.7070  -29.8030   20.2070 C   0  0  0  0  0  2  0  0  0  0  0  0
  -24.7040  -31.0650   22.1580 N   0  0  0  0  0  0  0  0  0  0  0  0
  -23.5080  -32.1480   23.7630 O   0  0  0  0  0  0  0  0  0  0  0  0
  -22.7690  -29.4560   22.5260 C   0  0  0  0  0  0  0  0  0  0  0  0
  -21.4410  -29.2890   22.3890 N   0  0  0  0  0  0  0  0  0  0  0  0
  -23.4370  -28.8170   23.3420 O   0  0  0  0  0  0  0  0  0  0  0  0
  -20.9590  -29.8670   21.7140 H   0  0  0  0  0  0  0  0  0  0  0  0
  -18.0530  -28.1020   22.8590 C   0  0  0  0  0  0  0  0  0  0  0  0
  -20.6130  -28.3430   23.1420 C   0  0  0  0  0  3  0  0  0  0  0  0
  -20.7090  -26.9180   22.5480 C   0  0  0  0  0  2  0  0  0  0  0  0
  -19.6100  -26.6230   21.5220 C   0  0  0  0  0  2  0  0  0  0  0  0
  -18.2250  -26.7640   22.1590 C   0  0  0  0  0  2  0  0  0  0  0  0
  -19.1750  -28.8500   23.3070 C   0  0  0  0  0  0  0  0  0  0  0  0
  -18.9630  -30.1030   23.9210 C   0  0  0  0  0  3  0  0  0  0  0  0
  -17.6610  -30.6100   24.0890 C   0  0  0  0  0  3  0  0  0  0  0  0
  -16.5540  -29.8620   23.6520 C   0  0  0  0  0  3  0  0  0  0  0  0
  -16.7510  -28.6100   23.0450 C   0  0  0  0  0  3  0  0  0  0  0  0
  -25.8700  -32.5190   23.9090 C   0  0  0  0  0  3  0  0  0  0  0  0
  -26.3440  -31.7650   25.2120 C   0  0  1  0  0  0  0  0  0  0  0  0
  -25.2160  -31.5440   26.2490 C   0  0  0  0  0  1  0  0  0  0  0  0
  -26.9430  -30.3830   24.8610 C   0  0  0  0  0  1  0  0  0  0  0  0
  -27.4700  -32.5720   25.9020 C   0  0  0  0  0  1  0  0  0  0  0  0
  -25.5470  -33.9200   24.2140 N   0  0  0  0  0  0  0  0  0  0  0  0
  -25.8830  -34.9660   23.4470 C   0  0  0  0  0  0  0  0  0  0  0  0
  -26.5690  -34.8520   22.4270 O   0  0  0  0  0  0  0  0  0  0  0  0
  -24.9440  -34.0850   25.0080 H   0  0  0  0  0  0  0  0  0  0  0  0
  -24.1580  -36.7540   23.0420 C   0  0  0  0  0  1  0  0  0  0  0  0
  -25.3840  -36.3580   23.8790 C   0  0  0  0  0  3  0  0  0  0  0  0
  -27.4990  -37.2670   24.7410 C   0  0  0  0  0  1  0  0  0  0  0  0
  -26.4150  -37.4150   23.7720 N   0  0  0  0  0  0  0  0  0  0  0  0
  -26.0010  -38.3340   23.8940 H   0  0  0  0  0  0  0  0  0  0  0  0
  1  8  1  0
  1  3  1  0
  2  1  2  0
  3  6  1  0
  4  2  1  0
  5  2  1  0
  7  8  1  0
  7  9  2  0
  8 10  2  0
  9 11  1  0
 10 11  1  0
 10 50  1  0
 12 20  1  0
 13 18  1  0
 14 15  1  0
 14 13  1  0
 16 15  1  0
 16 25  1  0
 16 17  1  0
 18 12  1  0
 18 17  1  0
 19 12  2  0
 20 21  1  0
 20  9  1  0
 22 23  2  0
 23 42  1  0
 24 23  1  0
 24 27  1  0
 25 22  1  0
 25 26  1  0
 26 24  2  0
 27 28  1  0
 28 29  2  0
 30 33  1  0
 30 29  1  0
 31 30  2  0
 32 31  1  0
 32 27  2  0
 33 34  1  0
 34 35  1  0
 35 36  2  0
 37 36  1  0
 37 41  1  0
 38 37  2  0
 39 34  2  0
 39 38  1  0
 40 39  1  0
 42 43  1  0
 43 46  1  0
 43 45  1  0
 44 42  2  0
 47 48  1  0
 47 22  1  0
 49 47  1  0
 50 51  1  0
 50 52  1  0
 53  3  1  0
 53 56  1  0
 56 54  1  1
 56 55  1  0
 57 56  1  0
 58 69  2  0
 59 57  1  0
 59 64  1  0
 60 68  1  0
 60 70  1  0
 61 67  1  0
 61 63  1  0
 62 68  1  0
 63 64  2  0
 63 62  1  0
 65 59  2  0
 66 65  1  0
 66 61  2  0
 67 60  1  0
 68 58  1  0
 70 72  2  0
 71 70  1  0
 73 71  1  0
 74 83  2  0
 74 79  1  0
 75 71  1  0
 75 79  1  0
 76 75  1  0
 77 78  1  0
 77 76  1  0
 78 74  1  0
 79 80  2  0
 80 81  1  0
 82 81  2  0
 83 82  1  0
 84 58  1  0
 84 89  1  0
 84 85  1  0
 85 88  1  1
 85 86  1  0
 87 85  1  0
 89 92  1  0
 90 94  1  0
 90 89  1  0
 91 90  2  0
 94 93  1  0
 96 94  1  0
 96 97  1  0
 96 95  1  0
M  ISO  4  12 100  20 100  56 101  57 101
M  END
>  <TORSDO>  (86) 
F 20

>  <SCORE>  (86) 
-14.343

>  <name>  (86) 
85

>  <ligand_id>  (86) 
85

>  <original_smiles>  (86) 
[H]c1c([H])c([H])c2c(c1[H])C([H])([H])C([H])([H])C([H])([H])C2([H])N([H])C(=O)C1([H])N(C(=O)C([H])(N([H])C(=O)C([H])(N([H])C([H])([H])[H])C([H])([H])[H])C(C([H])([H])[H])(C([H])([H])[H])C([H])([H])[H])C([H])([H])c2c([H])c(OC(C([H])([H])[H])(C([H])([H])[H])C([H])([H])[N+]([H])=C(c3c(N([H])[H])oc(N([H])C(=O)N4C([H])([H])C([H])([H])C([H])([H])C([H])(n5nc(-c6c([H])c([H])c(Oc7c([H])c([H])c(F)c([H])c7F)c([H])c6[H])c(C(=O)N([H])[H])c5N([H])[H])C4([H])[H])c3[H])N([H])[H])c([H])c([H])c2C1([H])[H]

>  <smiles>  (86) 
[H]c1c([H])c([H])c2c(c1[H])C([H])([H])C([H])([H])C([H])([H])C2([H])N([H])C(=O)C1([H])N(C(=O)C([H])(N([H])C(=O)C([H])(N([H])C([H])([H])[H])C([H])([H])[H])C(C([H])([H])[H])(C([H])([H])[H])C([H])([H])[H])C([H])([H])c2c([H])c(OC(C([H])([H])[H])(C([H])([H])[H])C([H])([H])[N+]([H])=C(c3c(N([H])[H])oc(N([H])C(=O)N4C([H])([H])C([H])([H])C([H])([H])C([H])(n5nc(-c6c([H])c([H])c(Oc7c([H])c([H])c(F)c([H])c7F)c([H])c6[H])c(C(=O)N([H])[H])c5N([H])[H])C4([H])[H])c3[H])N([H])[H])c([H])c([H])c2C1([H])[H]

$$$$
86:0:0
     RDKit          3D

 95104  0  0  1  0  0  0  0  0999 V2000
  -28.5660  -23.5310   20.4070 C   0  0  0  0  0  3  0  0  0  0  0  0
  -28.3930  -21.6660   21.8780 C   0  0  0  0  0  2  0  0  0  0  0  0
  -29.5000  -21.3140   20.8700 C   0  0  0  0  0  3  0  0  0  0  0  0
  -29.3520  -22.4980   19.9310 N   0  0  0  0  0  0  0  0  0  0  0  0
  -28.0310  -23.0850   21.5630 N   0  0  0  0  0  0  0  0  0  0  0  0
  -29.7060  -22.4190   18.9870 H   0  0  0  0  0  0  0  0  0  0  0  0
  -27.3370  -23.5960   22.0910 H   0  0  0  0  0  0  0  0  0  0  0  0
  -30.6320  -14.9010   20.2670 C   0  0  0  0  0  0  0  0  0  0  0  0
  -30.4520  -12.5920   19.2940 C   0  0  0  0  0  2  0  0  0  0  0  0
  -29.5110  -12.6520   18.0680 C   0  0  0  0  0  2  0  0  0  0  0  0
  -28.0440  -12.4590   18.4970 C   0  0  0  0  0  2  0  0  0  0  0  0
  -27.6710  -13.3480   19.7110 C   0  0  0  0  0  3  0  0  0  0  0  0
  -28.7320  -13.2820   20.8330 C   0  0  0  0  0  2  0  0  0  0  0  0
  -30.0260  -13.6550   20.2460 N   0  0  0  0  0  0  0  0  0  0  0  0
  -31.7840  -15.0070   19.8350 O   0  0  0  0  0  0  0  0  0  0  0  0
  -29.6210  -19.8500   20.2090 C   0  0  0  0  0  0  0  0  0  0  0  0
  -29.9200  -19.5890   18.8800 C   0  0  0  0  0  0  0  0  0  0  0  0
  -29.9450  -17.4380   20.2130 C   0  0  0  0  0  0  0  0  0  0  0  0
  -29.6290  -18.5780   20.9320 N   0  0  0  0  0  0  0  0  0  0  0  0
  -29.9120  -16.0230   20.6880 N   0  0  0  0  0  0  0  0  0  0  0  0
  -30.2320  -17.8830   18.5340 S   0  0  0  0  0  0  0  0  0  0  0  0
  -29.1080  -15.8020   21.2530 H   0  0  0  0  0  0  0  0  0  0  0  0
  -25.2910  -13.9290   20.4670 C   0  0  0  0  0  0  0  0  0  0  0  0
  -24.2300  -13.1520   20.8460 C   0  0  0  0  0  0  0  0  0  0  0  0
  -24.6950  -11.8020   20.8040 C   0  0  0  0  0  0  0  0  0  0  0  0
  -26.3330  -13.0530   20.2120 N   0  0  0  0  0  0  0  0  0  0  0  0
  -25.9820  -11.7680   20.4790 N   0  0  0  0  0  0  0  0  0  0  0  0
  -23.9710  -10.5380   21.0020 C   0  0  0  0  0  0  0  0  0  0  0  0
  -24.4080   -9.5740   21.9390 C   0  0  0  0  0  3  0  0  0  0  0  0
  -23.6850   -8.3750   22.1210 C   0  0  0  0  0  3  0  0  0  0  0  0
  -22.5130   -8.1320   21.3650 C   0  0  0  0  0  0  0  0  0  0  0  0
  -22.0950   -9.0830   20.4180 C   0  0  0  0  0  3  0  0  0  0  0  0
  -22.8170  -10.2750   20.2350 C   0  0  0  0  0  3  0  0  0  0  0  0
  -21.7620   -6.9860   21.4570 O   0  0  0  0  0  0  0  0  0  0  0  0
  -21.7030   -6.2520   22.6150 C   0  0  0  0  0  0  0  0  0  0  0  0
  -21.2460   -6.8120   23.8260 C   0  0  0  0  0  3  0  0  0  0  0  0
  -21.1370   -6.0070   24.9780 C   0  0  0  0  0  3  0  0  0  0  0  0
  -21.4720   -4.6410   24.9160 C   0  0  0  0  0  0  0  0  0  0  0  0
  -21.9240   -4.0790   23.7080 C   0  0  0  0  0  3  0  0  0  0  0  0
  -22.0350   -4.8840   22.5590 C   0  0  0  0  0  0  0  0  0  0  0  0
  -22.4500   -4.3330   21.3920 F   0  0  0  0  0  0  0  0  0  0  0  0
  -21.3600   -3.8640   26.0180 F   0  0  0  0  0  0  0  0  0  0  0  0
  -22.8350  -13.6270   21.1330 C   0  0  0  0  0  0  0  0  0  0  0  0
  -22.1210  -12.9250   22.0050 N   0  0  0  0  0  0  0  0  0  0  0  0
  -22.3880  -14.6540   20.6220 O   0  0  0  0  0  0  0  0  0  0  0  0
  -22.5030  -12.0960   22.4340 H   0  0  0  0  0  0  0  0  0  0  0  0
  -21.1850  -13.2170   22.2440 H   0  0  0  0  0  0  0  0  0  0  0  0
  -25.4530  -15.3000   20.2980 N   0  0  0  0  0  0  0  0  0  0  0  0
  -24.6790  -15.9480   20.3920 H   0  0  0  0  0  0  0  0  0  0  0  0
  -26.2950  -15.7380   19.9450 H   0  0  0  0  0  0  0  0  0  0  0  0
  -30.0600  -20.4920   17.8270 N   0  0  0  0  0  0  0  0  0  0  0  0
  -31.0230  -20.8020   17.7130 H   0  0  0  0  0  0  0  0  0  0  0  0
  -29.8420  -20.0190   16.9540 H   0  0  0  0  0  0  0  0  0  0  0  0
  -28.1570  -24.8990   19.6750 C   0  0  0  0  0  2  0  0  0  0  0  0
  -28.2330  -26.3140   20.2620 O   0  0  0  0  0  0  0  0  0  0  0  0
  -24.6100  -31.9270   23.2220 C   0  0  0  0  0  0  0  0  0  0  0  0
  -27.1680  -27.2690   20.1490 C   0  0  0  0  0  0  0  0  0  0  0  0
  -23.4020  -30.5400   21.5860 C   0  0  0  0  0  3  0  0  0  0  0  0
  -24.8390  -28.9940   20.1360 C   0  0  0  0  0  0  0  0  0  0  0  0
  -25.9520  -30.8170   21.4080 C   0  0  0  0  0  2  0  0  0  0  0  0
  -26.0180  -29.4350   20.7490 C   0  0  0  0  0  0  0  0  0  0  0  0
  -27.1780  -28.5830   20.7540 C   0  0  0  0  0  3  0  0  0  0  0  0
  -25.9680  -26.9380   19.4710 C   0  0  0  0  0  3  0  0  0  0  0  0
  -24.8240  -27.7570   19.4850 C   0  0  0  0  0  3  0  0  0  0  0  0
  -23.6120  -29.8870   20.1980 C   0  0  0  0  0  2  0  0  0  0  0  0
  -24.6760  -31.1140   22.1270 N   0  0  0  0  0  0  0  0  0  0  0  0
  -23.5260  -32.2080   23.7560 O   0  0  0  0  0  0  0  0  0  0  0  0
  -22.7350  -29.5190   22.5380 C   0  0  0  0  0  0  0  0  0  0  0  0
  -21.4080  -29.3420   22.4100 N   0  0  0  0  0  0  0  0  0  0  0  0
  -23.4110  -28.8870   23.3540 O   0  0  0  0  0  0  0  0  0  0  0  0
  -20.9190  -29.9000   21.7240 H   0  0  0  0  0  0  0  0  0  0  0  0
  -18.0290  -28.1510   22.9260 C   0  0  0  0  0  0  0  0  0  0  0  0
  -20.5890  -28.4040   23.1800 C   0  0  0  0  0  3  0  0  0  0  0  0
  -20.6840  -26.9760   22.5950 C   0  0  0  0  0  2  0  0  0  0  0  0
  -19.5740  -26.6610   21.5870 C   0  0  0  0  0  2  0  0  0  0  0  0
  -18.1960  -26.8070   22.2380 C   0  0  0  0  0  2  0  0  0  0  0  0
  -19.1510  -28.9090   23.3530 C   0  0  0  0  0  0  0  0  0  0  0  0
  -18.9380  -30.1660   23.9570 C   0  0  0  0  0  3  0  0  0  0  0  0
  -17.6340  -30.6670   24.1370 C   0  0  0  0  0  3  0  0  0  0  0  0
  -16.5270  -29.9060   23.7250 C   0  0  0  0  0  3  0  0  0  0  0  0
  -16.7240  -28.6510   23.1250 C   0  0  0  0  0  3  0  0  0  0  0  0
  -25.8910  -32.5570   23.8460 C   0  0  0  0  0  3  0  0  0  0  0  0
  -25.5820  -33.9570   24.1770 N   0  0  0  0  0  0  0  0  0  0  0  0
  -25.9080  -35.0110   23.4170 C   0  0  0  0  0  0  0  0  0  0  0  0
  -26.5720  -34.9090   22.3820 O   0  0  0  0  0  0  0  0  0  0  0  0
  -24.9940  -34.1120   24.9830 H   0  0  0  0  0  0  0  0  0  0  0  0
  -24.1850  -36.8100   23.0660 C   0  0  0  0  0  1  0  0  0  0  0  0
  -25.4250  -36.4000   23.8780 C   0  0  0  0  0  3  0  0  0  0  0  0
  -27.5600  -37.2810   24.7140 C   0  0  0  0  0  1  0  0  0  0  0  0
  -26.4620  -37.4500   23.7660 N   0  0  0  0  0  0  0  0  0  0  0  0
  -26.0580  -38.3720   23.9120 H   0  0  0  0  0  0  0  0  0  0  0  0
  -26.4010  -31.7860   25.1250 C   0  0  1  0  0  0  0  0  0  0  0  0
  -25.3040  -31.5520   26.1890 C   0  0  0  0  0  1  0  0  0  0  0  0
  -26.9840  -30.4070   24.7400 C   0  0  0  0  0  1  0  0  0  0  0  0
  -27.5510  -32.5810   25.7910 C   0  0  0  0  0  1  0  0  0  0  0  0
  1 54  1  0
  1  5  1  0
  3 16  1  0
  3  2  1  0
  4  1  1  0
  4  3  1  0
  5  2  1  0
  5  7  1  0
  6  4  1  0
  8 20  1  0
  9 14  1  0
 10 11  1  0
 10  9  1  0
 12 11  1  0
 12 26  1  0
 12 13  1  0
 14  8  1  0
 14 13  1  0
 15  8  2  0
 16 19  1  0
 17 16  2  0
 18 20  1  0
 18 19  2  0
 20 22  1  0
 21 17  1  0
 21 18  1  0
 23 24  2  0
 24 43  1  0
 25 24  1  0
 25 28  1  0
 26 23  1  0
 26 27  1  0
 27 25  2  0
 28 29  1  0
 29 30  2  0
 31 34  1  0
 31 30  1  0
 32 31  2  0
 33 32  1  0
 33 28  2  0
 34 35  1  0
 35 36  1  0
 36 37  2  0
 38 37  1  0
 38 42  1  0
 39 38  2  0
 40 35  2  0
 40 39  1  0
 41 40  1  0
 43 44  1  0
 44 47  1  0
 44 46  1  0
 45 43  2  0
 48 49  1  0
 48 23  1  0
 50 48  1  0
 51 17  1  0
 52 51  1  0
 53 51  1  0
 54 55  1  0
 56 67  2  0
 57 55  1  0
 57 62  1  0
 58 66  1  0
 58 68  1  0
 59 65  1  0
 59 61  1  0
 60 66  1  0
 61 62  2  0
 61 60  1  0
 63 64  1  0
 63 57  2  0
 64 59  2  0
 65 58  1  0
 66 56  1  0
 68 70  2  0
 69 68  1  0
 71 69  1  0
 72 81  2  0
 72 77  1  0
 73 69  1  0
 73 77  1  0
 74 73  1  0
 75 76  1  0
 75 74  1  0
 76 72  1  0
 77 78  2  0
 78 79  1  0
 80 79  2  0
 81 80  1  0
 82 56  1  0
 82 83  1  0
 82 92  1  0
 83 86  1  0
 84 88  1  0
 84 83  1  0
 85 84  2  0
 88 87  1  0
 90 88  1  0
 90 91  1  0
 90 89  1  0
 92 95  1  1
 92 93  1  0
 94 92  1  0
M  ISO  4   8 100  20 100  54 101  55 101
M  END
>  <TORSDO>  (87) 
F 18

>  <SCORE>  (87) 
-15.011

>  <name>  (87) 
86

>  <ligand_id>  (87) 
86

>  <original_smiles>  (87) 
[H]c1c([H])c([H])c2c(c1[H])C([H])([H])C([H])([H])C([H])([H])C2([H])N([H])C(=O)C1([H])N(C(=O)C([H])(N([H])C(=O)C([H])(N([H])C([H])([H])[H])C([H])([H])[H])C(C([H])([H])[H])(C([H])([H])[H])C([H])([H])[H])C([H])([H])c2c([H])c(OC([H])([H])C3=[N+]([H])C([H])([H])C([H])(c4nc(N([H])C(=O)N5C([H])([H])C([H])([H])C([H])([H])C([H])(n6nc(-c7c([H])c([H])c(Oc8c([H])c([H])c(F)c([H])c8F)c([H])c7[H])c(C(=O)N([H])[H])c6N([H])[H])C5([H])[H])sc4N([H])[H])N3[H])c([H])c([H])c2C1([H])[H]

>  <smiles>  (87) 
[H]c1c([H])c([H])c2c(c1[H])C([H])([H])C([H])([H])C([H])([H])C2([H])N([H])C(=O)C1([H])N(C(=O)C([H])(N([H])C(=O)C([H])(N([H])C([H])([H])[H])C([H])([H])[H])C(C([H])([H])[H])(C([H])([H])[H])C([H])([H])[H])C([H])([H])c2c([H])c(OC([H])([H])C3=[N+]([H])C([H])([H])C([H])(c4nc(N([H])C(=O)N5C([H])([H])C([H])([H])C([H])([H])C([H])(n6nc(-c7c([H])c([H])c(Oc8c([H])c([H])c(F)c([H])c8F)c([H])c7[H])c(C(=O)N([H])[H])c6N([H])[H])C5([H])[H])sc4N([H])[H])N3[H])c([H])c([H])c2C1([H])[H]

$$$$
87:0:0
     RDKit          3D

 93102  0  0  1  0  0  0  0  0999 V2000
  -27.8560  -22.5110   20.2310 C   0  0  0  0  0  2  0  0  0  0  0  0
  -30.0350  -23.2880   20.9960 C   0  0  0  0  0  2  0  0  0  0  0  0
  -28.4720  -21.1120   19.8510 C   0  0  0  0  0  2  0  0  0  0  0  0
  -30.6410  -21.8910   20.6040 C   0  0  0  0  0  2  0  0  0  0  0  0
  -28.8030  -23.7620   20.1600 C   0  0  1  0  0  0  0  0  0  0  0  0
  -29.6800  -20.7630   20.6110 N   0  0  0  0  0  0  0  0  0  0  0  0
  -31.4990  -19.0490   20.7550 C   0  0  0  0  0  3  0  0  0  0  0  0
  -31.5610  -17.6210   20.7720 C   0  0  0  0  0  3  0  0  0  0  0  0
  -30.1800  -19.4060   20.6360 C   0  0  0  0  0  0  0  0  0  0  0  0
  -30.2750  -17.1490   20.6620 C   0  0  0  0  0  0  0  0  0  0  0  0
  -29.3980  -18.2470   20.5800 O   0  0  0  0  0  0  0  0  0  0  0  0
  -30.6250  -14.6720   20.3940 C   0  0  0  0  0  0  0  0  0  0  0  0
  -30.3590  -12.4410   19.3310 C   0  0  0  0  0  2  0  0  0  0  0  0
  -29.4230  -12.5770   18.1100 C   0  0  0  0  0  2  0  0  0  0  0  0
  -27.9510  -12.4140   18.5390 C   0  0  0  0  0  2  0  0  0  0  0  0
  -27.5920  -13.2730   19.7830 C   0  0  0  0  0  3  0  0  0  0  0  0
  -28.6550  -13.1440   20.8980 C   0  0  0  0  0  2  0  0  0  0  0  0
  -29.9590  -13.4760   20.3070 N   0  0  0  0  0  0  0  0  0  0  0  0
  -31.8030  -14.7440   20.0340 O   0  0  0  0  0  0  0  0  0  0  0  0
  -29.8910  -15.8060   20.6740 N   0  0  0  0  0  0  0  0  0  0  0  0
  -28.9130  -15.6340   20.8500 H   0  0  0  0  0  0  0  0  0  0  0  0
  -25.1960  -13.8550   20.4980 C   0  0  0  0  0  0  0  0  0  0  0  0
  -24.1330  -13.0770   20.8690 C   0  0  0  0  0  0  0  0  0  0  0  0
  -24.6030  -11.7270   20.8400 C   0  0  0  0  0  0  0  0  0  0  0  0
  -26.2470  -12.9810   20.2700 N   0  0  0  0  0  0  0  0  0  0  0  0
  -25.8950  -11.6960   20.5360 N   0  0  0  0  0  0  0  0  0  0  0  0
  -23.8840  -10.4610   21.0280 C   0  0  0  0  0  0  0  0  0  0  0  0
  -24.3140   -9.4990   21.9680 C   0  0  0  0  0  3  0  0  0  0  0  0
  -23.5910   -8.3000   22.1430 C   0  0  0  0  0  3  0  0  0  0  0  0
  -22.4250   -8.0530   21.3810 C   0  0  0  0  0  0  0  0  0  0  0  0
  -22.0150   -9.0040   20.4320 C   0  0  0  0  0  3  0  0  0  0  0  0
  -22.7380  -10.1960   20.2530 C   0  0  0  0  0  3  0  0  0  0  0  0
  -21.6740   -6.9050   21.4690 O   0  0  0  0  0  0  0  0  0  0  0  0
  -21.6140   -6.1700   22.6260 C   0  0  0  0  0  0  0  0  0  0  0  0
  -21.1590   -6.7280   23.8410 C   0  0  0  0  0  3  0  0  0  0  0  0
  -21.0480   -5.9180   24.9890 C   0  0  0  0  0  3  0  0  0  0  0  0
  -21.3820   -4.5520   24.9220 C   0  0  0  0  0  0  0  0  0  0  0  0
  -21.8280   -3.9940   23.7120 C   0  0  0  0  0  3  0  0  0  0  0  0
  -21.9420   -4.8010   22.5660 C   0  0  0  0  0  0  0  0  0  0  0  0
  -22.3530   -4.2550   21.3970 F   0  0  0  0  0  0  0  0  0  0  0  0
  -21.2680   -3.7720   26.0230 F   0  0  0  0  0  0  0  0  0  0  0  0
  -22.7330  -13.5480   21.1340 C   0  0  0  0  0  0  0  0  0  0  0  0
  -22.0050  -12.8490   21.9970 N   0  0  0  0  0  0  0  0  0  0  0  0
  -22.2930  -14.5730   20.6120 O   0  0  0  0  0  0  0  0  0  0  0  0
  -22.3740  -12.0210   22.4410 H   0  0  0  0  0  0  0  0  0  0  0  0
  -21.0650  -13.1460   22.2180 H   0  0  0  0  0  0  0  0  0  0  0  0
  -25.3490  -15.2260   20.3110 N   0  0  0  0  0  0  0  0  0  0  0  0
  -24.5660  -15.8640   20.4020 H   0  0  0  0  0  0  0  0  0  0  0  0
  -26.1800  -15.6680   19.9370 H   0  0  0  0  0  0  0  0  0  0  0  0
  -30.2380  -24.7060   18.4340 C   0  0  0  0  0  1  0  0  0  0  0  0
  -29.0830  -23.9390   18.7660 O   0  0  0  0  0  0  0  0  0  0  0  0
  -28.0620  -25.0820   20.7200 C   0  0  0  0  0  2  0  0  0  0  0  0
  -28.3190  -26.4690   20.2440 O   0  0  0  0  0  0  0  0  0  0  0  0
  -24.5940  -31.8910   23.2430 C   0  0  0  0  0  0  0  0  0  0  0  0
  -27.2150  -27.3350   20.2010 C   0  0  0  0  0  0  0  0  0  0  0  0
  -23.3930  -30.4870   21.6040 C   0  0  0  0  0  3  0  0  0  0  0  0
  -24.8470  -28.9390   20.1810 C   0  0  0  0  0  0  0  0  0  0  0  0
  -25.9320  -30.8120   21.4230 C   0  0  0  0  0  2  0  0  0  0  0  0
  -26.0160  -29.4330   20.7790 C   0  0  0  0  0  0  0  0  0  0  0  0
  -27.2040  -28.6420   20.7780 C   0  0  0  0  0  3  0  0  0  0  0  0
  -26.0310  -26.9030   19.5630 C   0  0  0  0  0  3  0  0  0  0  0  0
  -24.8580  -27.6790   19.5640 C   0  0  0  0  0  3  0  0  0  0  0  0
  -23.6090  -29.8110   20.2240 C   0  0  0  0  0  2  0  0  0  0  0  0
  -24.6580  -31.0810   22.1460 N   0  0  0  0  0  0  0  0  0  0  0  0
  -23.5090  -32.1670   23.7760 O   0  0  0  0  0  0  0  0  0  0  0  0
  -22.7310  -29.4720   22.5640 C   0  0  0  0  0  0  0  0  0  0  0  0
  -21.4040  -29.2970   22.4390 N   0  0  0  0  0  0  0  0  0  0  0  0
  -23.4100  -28.8450   23.3820 O   0  0  0  0  0  0  0  0  0  0  0  0
  -20.9150  -29.8550   21.7540 H   0  0  0  0  0  0  0  0  0  0  0  0
  -18.0250  -28.1120   22.9490 C   0  0  0  0  0  0  0  0  0  0  0  0
  -20.5850  -28.3610   23.2120 C   0  0  0  0  0  3  0  0  0  0  0  0
  -20.6790  -26.9290   22.6350 C   0  0  0  0  0  2  0  0  0  0  0  0
  -19.5730  -26.6130   21.6230 C   0  0  0  0  0  2  0  0  0  0  0  0
  -18.1930  -26.7630   22.2710 C   0  0  0  0  0  2  0  0  0  0  0  0
  -19.1480  -28.8700   23.3760 C   0  0  0  0  0  0  0  0  0  0  0  0
  -18.9350  -30.1330   23.9700 C   0  0  0  0  0  3  0  0  0  0  0  0
  -17.6330  -30.6390   24.1400 C   0  0  0  0  0  3  0  0  0  0  0  0
  -16.5240  -29.8780   23.7280 C   0  0  0  0  0  3  0  0  0  0  0  0
  -16.7210  -28.6170   23.1390 C   0  0  0  0  0  3  0  0  0  0  0  0
  -25.8760  -32.5250   23.8650 C   0  0  0  0  0  3  0  0  0  0  0  0
  -26.3900  -31.7580   25.1460 C   0  0  1  0  0  0  0  0  0  0  0  0
  -25.2940  -31.5260   26.2130 C   0  0  0  0  0  1  0  0  0  0  0  0
  -26.9740  -30.3790   24.7610 C   0  0  0  0  0  1  0  0  0  0  0  0
  -27.5390  -32.5540   25.8070 C   0  0  0  0  0  1  0  0  0  0  0  0
  -25.5660  -33.9240   24.1900 N   0  0  0  0  0  0  0  0  0  0  0  0
  -25.9000  -34.9740   23.4280 C   0  0  0  0  0  0  0  0  0  0  0  0
  -26.5700  -34.8670   22.3970 O   0  0  0  0  0  0  0  0  0  0  0  0
  -24.9730  -34.0820   24.9910 H   0  0  0  0  0  0  0  0  0  0  0  0
  -24.1760  -36.7700   23.0640 C   0  0  0  0  0  1  0  0  0  0  0  0
  -25.4140  -36.3640   23.8810 C   0  0  0  0  0  3  0  0  0  0  0  0
  -27.5450  -37.2480   24.7190 C   0  0  0  0  0  1  0  0  0  0  0  0
  -26.4480  -37.4160   23.7700 N   0  0  0  0  0  0  0  0  0  0  0  0
  -26.0430  -38.3370   23.9140 H   0  0  0  0  0  0  0  0  0  0  0  0
  3  1  1  0
  3  6  1  0
  4  6  1  0
  4  2  1  0
  5  1  1  0
  5 52  1  1
  5  2  1  0
  6  9  1  0
  7  8  1  0
  9  7  2  0
 10 20  1  0
 10  8  2  0
 11  9  1  0
 11 10  1  0
 12 20  1  0
 13 18  1  0
 14 15  1  0
 14 13  1  0
 16 15  1  0
 16 25  1  0
 16 17  1  0
 18 12  1  0
 18 17  1  0
 19 12  2  0
 20 21  1  0
 22 23  2  0
 23 42  1  0
 24 23  1  0
 24 27  1  0
 25 22  1  0
 25 26  1  0
 26 24  2  0
 27 28  1  0
 28 29  2  0
 30 33  1  0
 30 29  1  0
 31 30  2  0
 32 31  1  0
 32 27  2  0
 33 34  1  0
 34 35  1  0
 35 36  2  0
 37 36  1  0
 37 41  1  0
 38 37  2  0
 39 34  2  0
 39 38  1  0
 40 39  1  0
 42 43  1  0
 43 46  1  0
 43 45  1  0
 44 42  2  0
 47 48  1  0
 47 22  1  0
 49 47  1  0
 50 51  1  0
 51  5  1  0
 53 52  1  0
 54 65  2  0
 55 53  1  0
 55 60  1  0
 56 64  1  0
 56 66  1  0
 57 63  1  0
 57 59  1  0
 58 64  1  0
 59 58  1  0
 60 59  2  0
 61 62  1  0
 61 55  2  0
 62 57  2  0
 63 56  1  0
 64 54  1  0
 66 68  2  0
 67 66  1  0
 69 67  1  0
 70 79  2  0
 70 75  1  0
 71 67  1  0
 71 75  1  0
 72 71  1  0
 73 74  1  0
 73 72  1  0
 74 70  1  0
 75 76  2  0
 76 77  1  0
 78 77  2  0
 79 78  1  0
 80 54  1  0
 80 85  1  0
 80 81  1  0
 81 84  1  1
 81 82  1  0
 83 81  1  0
 85 88  1  0
 86 90  1  0
 86 85  1  0
 87 86  2  0
 90 89  1  0
 92 90  1  0
 92 93  1  0
 92 91  1  0
M  ISO  4  12 100  20 100  52 101  53 101
M  END
>  <TORSDO>  (88) 
F 19

>  <SCORE>  (88) 
-14.538

>  <name>  (88) 
87

>  <ligand_id>  (88) 
87

>  <original_smiles>  (88) 
[H]c1c(N([H])C(=O)N2C([H])([H])C([H])([H])C([H])([H])C([H])(n3nc(-c4c([H])c([H])c(Oc5c([H])c([H])c(F)c([H])c5F)c([H])c4[H])c(C(=O)N([H])[H])c3N([H])[H])C2([H])[H])oc(N2C([H])([H])C([H])([H])C(OC([H])([H])[H])(C([H])([H])Oc3c([H])c([H])c4c(c3[H])C([H])([H])N(C(=O)C([H])(N([H])C(=O)C([H])(N([H])C([H])([H])[H])C([H])([H])[H])C(C([H])([H])[H])(C([H])([H])[H])C([H])([H])[H])C([H])(C(=O)N([H])C3([H])c5c([H])c([H])c([H])c([H])c5C([H])([H])C([H])([H])C3([H])[H])C4([H])[H])C([H])([H])C2([H])[H])c1[H]

>  <smiles>  (88) 
[H]c1c(N([H])C(=O)N2C([H])([H])C([H])([H])C([H])([H])C([H])(n3nc(-c4c([H])c([H])c(Oc5c([H])c([H])c(F)c([H])c5F)c([H])c4[H])c(C(=O)N([H])[H])c3N([H])[H])C2([H])[H])oc(N2C([H])([H])C([H])([H])C(OC([H])([H])[H])(C([H])([H])Oc3c([H])c([H])c4c(c3[H])C([H])([H])N(C(=O)C([H])(N([H])C(=O)C([H])(N([H])C([H])([H])[H])C([H])([H])[H])C(C([H])([H])[H])(C([H])([H])[H])C([H])([H])[H])C([H])(C(=O)N([H])C3([H])c5c([H])c([H])c([H])c([H])c5C([H])([H])C([H])([H])C3([H])[H])C4([H])[H])C([H])([H])C2([H])[H])c1[H]

$$$$
88:0:0
     RDKit          3D

 93102  0  0  1  0  0  0  0  0999 V2000
  -28.7330  -21.8230   17.8370 C   0  0  0  0  0  2  0  0  0  0  0  0
  -30.1580  -21.5850   18.3570 C   0  0  0  0  0  2  0  0  0  0  0  0
  -27.8930  -22.1140   19.0880 C   0  0  0  0  0  2  0  0  0  0  0  0
  -30.0290  -21.5160   19.8900 C   0  0  0  0  0  3  0  0  0  0  0  0
  -28.8580  -22.4380   20.1680 N   0  0  1  0  0  4  0  0  0  0  0  0
  -28.4470  -22.1450   21.0430 H   0  0  0  0  0  0  0  0  0  0  0  0
  -31.1940  -17.8380   20.5440 C   0  0  0  0  0  3  0  0  0  0  0  0
  -31.1950  -19.2490   20.3810 C   0  0  0  0  0  3  0  0  0  0  0  0
  -28.8090  -17.9730   20.6350 C   0  0  0  0  0  3  0  0  0  0  0  0
  -29.9650  -17.1440   20.6590 C   0  0  0  0  0  0  0  0  0  0  0  0
  -29.9890  -19.9910   20.3170 C   0  0  0  0  0  0  0  0  0  0  0  0
  -28.8080  -19.3300   20.4580 N   0  0  0  0  0  0  0  0  0  0  0  0
  -30.6330  -14.6550   20.4280 C   0  0  0  0  0  0  0  0  0  0  0  0
  -30.4380  -12.4280   19.3430 C   0  0  0  0  0  2  0  0  0  0  0  0
  -29.4890  -12.5620   18.1310 C   0  0  0  0  0  2  0  0  0  0  0  0
  -28.0160  -12.3950   18.5600 C   0  0  0  0  0  2  0  0  0  0  0  0
  -27.6580  -13.2440   19.8100 C   0  0  0  0  0  3  0  0  0  0  0  0
  -28.7190  -13.0760   20.9200 C   0  0  0  0  0  2  0  0  0  0  0  0
  -30.0260  -13.4300   20.3460 N   0  0  0  0  0  0  0  0  0  0  0  0
  -31.7860  -14.8310   20.0220 O   0  0  0  0  0  0  0  0  0  0  0  0
  -29.8310  -15.6930   20.8160 N   0  0  0  0  0  0  0  0  0  0  0  0
  -28.9140  -15.3820   21.1050 H   0  0  0  0  0  0  0  0  0  0  0  0
  -25.2630  -13.8320   20.5380 C   0  0  0  0  0  0  0  0  0  0  0  0
  -24.2000  -13.0540   20.9070 C   0  0  0  0  0  0  0  0  0  0  0  0
  -24.6650  -11.7030   20.8640 C   0  0  0  0  0  0  0  0  0  0  0  0
  -26.3100  -12.9560   20.2940 N   0  0  0  0  0  0  0  0  0  0  0  0
  -25.9540  -11.6700   20.5480 N   0  0  0  0  0  0  0  0  0  0  0  0
  -23.9430  -10.4370   21.0490 C   0  0  0  0  0  0  0  0  0  0  0  0
  -24.3760   -9.4710   21.9810 C   0  0  0  0  0  3  0  0  0  0  0  0
  -23.6580   -8.2680   22.1540 C   0  0  0  0  0  3  0  0  0  0  0  0
  -22.4890   -8.0260   21.3930 C   0  0  0  0  0  0  0  0  0  0  0  0
  -22.0740   -8.9820   20.4500 C   0  0  0  0  0  3  0  0  0  0  0  0
  -22.7940  -10.1760   20.2750 C   0  0  0  0  0  3  0  0  0  0  0  0
  -21.7390   -6.8770   21.4750 O   0  0  0  0  0  0  0  0  0  0  0  0
  -21.6780   -6.1380   22.6290 C   0  0  0  0  0  0  0  0  0  0  0  0
  -21.2030   -6.6860   23.8410 C   0  0  0  0  0  3  0  0  0  0  0  0
  -21.0920   -5.8710   24.9860 C   0  0  0  0  0  3  0  0  0  0  0  0
  -21.4470   -4.5090   24.9190 C   0  0  0  0  0  0  0  0  0  0  0  0
  -21.9150   -3.9620   23.7120 C   0  0  0  0  0  3  0  0  0  0  0  0
  -22.0270   -4.7740   22.5700 C   0  0  0  0  0  0  0  0  0  0  0  0
  -22.4600   -4.2360   21.4040 F   0  0  0  0  0  0  0  0  0  0  0  0
  -21.3330   -3.7250   26.0170 F   0  0  0  0  0  0  0  0  0  0  0  0
  -22.8020  -13.5250   21.1890 C   0  0  0  0  0  0  0  0  0  0  0  0
  -22.0800  -12.8220   22.0540 N   0  0  0  0  0  0  0  0  0  0  0  0
  -22.3590  -14.5520   20.6760 O   0  0  0  0  0  0  0  0  0  0  0  0
  -22.4530  -11.9920   22.4920 H   0  0  0  0  0  0  0  0  0  0  0  0
  -21.1420  -13.1160   22.2830 H   0  0  0  0  0  0  0  0  0  0  0  0
  -25.4230  -15.2040   20.3680 N   0  0  0  0  0  0  0  0  0  0  0  0
  -24.6430  -15.8460   20.4660 H   0  0  0  0  0  0  0  0  0  0  0  0
  -26.2460  -15.6390   19.9730 H   0  0  0  0  0  0  0  0  0  0  0  0
  -29.2120  -23.9380   20.2750 C   0  0  0  0  0  3  0  0  0  0  0  0
  -28.0740  -25.0240   19.9860 C   0  0  0  0  0  3  0  0  0  0  0  0
  -28.3040  -26.4760   20.2030 O   0  0  0  0  0  0  0  0  0  0  0  0
  -24.5970  -31.8800   23.2380 C   0  0  0  0  0  0  0  0  0  0  0  0
  -27.1840  -27.3290   20.1510 C   0  0  0  0  0  0  0  0  0  0  0  0
  -23.3820  -30.4870   21.6030 C   0  0  0  0  0  3  0  0  0  0  0  0
  -24.8200  -28.9450   20.1620 C   0  0  0  0  0  0  0  0  0  0  0  0
  -25.9200  -30.8050   21.4020 C   0  0  0  0  0  2  0  0  0  0  0  0
  -25.9940  -29.4300   20.7500 C   0  0  0  0  0  0  0  0  0  0  0  0
  -27.1800  -28.6340   20.7340 C   0  0  0  0  0  3  0  0  0  0  0  0
  -25.9810  -26.9010   19.5390 C   0  0  0  0  0  3  0  0  0  0  0  0
  -24.8150  -27.6860   19.5470 C   0  0  0  0  0  3  0  0  0  0  0  0
  -23.5850  -29.8190   20.2190 C   0  0  0  0  0  2  0  0  0  0  0  0
  -24.6530  -31.0740   22.1370 N   0  0  0  0  0  0  0  0  0  0  0  0
  -23.5190  -32.1580   23.7800 O   0  0  0  0  0  0  0  0  0  0  0  0
  -22.7260  -29.4660   22.5630 C   0  0  0  0  0  0  0  0  0  0  0  0
  -21.4000  -29.2850   22.4390 N   0  0  0  0  0  0  0  0  0  0  0  0
  -23.4080  -28.8420   23.3800 O   0  0  0  0  0  0  0  0  0  0  0  0
  -20.9090  -29.8410   21.7530 H   0  0  0  0  0  0  0  0  0  0  0  0
  -18.0250  -28.0890   22.9520 C   0  0  0  0  0  0  0  0  0  0  0  0
  -20.5840  -28.3460   23.2120 C   0  0  0  0  0  3  0  0  0  0  0  0
  -20.6850  -26.9160   22.6340 C   0  0  0  0  0  2  0  0  0  0  0  0
  -19.5790  -26.5940   21.6250 C   0  0  0  0  0  2  0  0  0  0  0  0
  -18.1990  -26.7400   22.2740 C   0  0  0  0  0  2  0  0  0  0  0  0
  -19.1460  -28.8500   23.3780 C   0  0  0  0  0  0  0  0  0  0  0  0
  -18.9310  -30.1120   23.9720 C   0  0  0  0  0  3  0  0  0  0  0  0
  -17.6270  -30.6130   24.1470 C   0  0  0  0  0  3  0  0  0  0  0  0
  -16.5200  -29.8490   23.7370 C   0  0  0  0  0  3  0  0  0  0  0  0
  -16.7210  -28.5890   23.1440 C   0  0  0  0  0  3  0  0  0  0  0  0
  -25.8860  -32.5080   23.8530 C   0  0  0  0  0  3  0  0  0  0  0  0
  -26.4040  -31.7410   25.1310 C   0  0  1  0  0  0  0  0  0  0  0  0
  -25.3120  -31.5110   26.2020 C   0  0  0  0  0  1  0  0  0  0  0  0
  -26.9830  -30.3600   24.7430 C   0  0  0  0  0  1  0  0  0  0  0  0
  -27.5570  -32.5350   25.7890 C   0  0  0  0  0  1  0  0  0  0  0  0
  -25.5840  -33.9090   24.1780 N   0  0  0  0  0  0  0  0  0  0  0  0
  -25.9080  -34.9580   23.4090 C   0  0  0  0  0  0  0  0  0  0  0  0
  -26.5630  -34.8470   22.3690 O   0  0  0  0  0  0  0  0  0  0  0  0
  -25.0020  -34.0700   24.9870 H   0  0  0  0  0  0  0  0  0  0  0  0
  -24.1800  -36.7530   23.0680 C   0  0  0  0  0  1  0  0  0  0  0  0
  -25.4290  -36.3480   23.8670 C   0  0  0  0  0  3  0  0  0  0  0  0
  -27.5710  -37.2350   24.6760 C   0  0  0  0  0  1  0  0  0  0  0  0
  -26.4630  -37.3990   23.7400 N   0  0  0  0  0  0  0  0  0  0  0  0
  -26.0590  -38.3200   23.8830 H   0  0  0  0  0  0  0  0  0  0  0  0
  1  2  1  0
  1  3  1  0
  2  4  1  0
  3  5  1  0
  4  5  1  0
  4 11  1  0
  5 51  1  0
  5  6  1  1
  7 10  1  0
  8  7  2  0
  9 10  2  0
 10 21  1  0
 11  8  1  0
 11 12  2  0
 12  9  1  0
 13 21  1  0
 14 19  1  0
 15 16  1  0
 15 14  1  0
 17 16  1  0
 17 26  1  0
 17 18  1  0
 19 13  1  0
 19 18  1  0
 20 13  2  0
 21 22  1  0
 23 24  2  0
 24 43  1  0
 25 24  1  0
 25 28  1  0
 26 23  1  0
 26 27  1  0
 27 25  2  0
 28 29  1  0
 29 30  2  0
 31 34  1  0
 31 30  1  0
 32 31  2  0
 33 32  1  0
 33 28  2  0
 34 35  1  0
 35 36  1  0
 36 37  2  0
 38 37  1  0
 38 42  1  0
 39 38  2  0
 40 35  2  0
 40 39  1  0
 41 40  1  0
 43 44  1  0
 44 47  1  0
 44 46  1  0
 45 43  2  0
 48 49  1  0
 48 23  1  0
 50 48  1  0
 52 53  1  0
 52 51  2  0
 54 65  2  0
 55 53  1  0
 55 60  1  0
 56 64  1  0
 56 66  1  0
 57 63  1  0
 57 59  1  0
 58 64  1  0
 59 58  1  0
 60 59  2  0
 61 62  1  0
 61 55  2  0
 62 57  2  0
 63 56  1  0
 64 54  1  0
 66 68  2  0
 67 66  1  0
 69 67  1  0
 70 79  2  0
 70 75  1  0
 71 67  1  0
 71 75  1  0
 72 71  1  0
 73 74  1  0
 73 72  1  0
 74 70  1  0
 75 76  2  0
 76 77  1  0
 78 77  2  0
 79 78  1  0
 80 54  1  0
 80 85  1  0
 80 81  1  0
 81 84  1  1
 81 82  1  0
 83 81  1  0
 85 88  1  0
 86 90  1  0
 86 85  1  0
 87 86  2  0
 90 89  1  0
 92 90  1  0
 92 93  1  0
 92 91  1  0
M  ISO  4  13 100  21 100  52 101  53 101
M  END
>  <TORSDO>  (89) 
F 19

>  <SCORE>  (89) 
-14.458

>  <name>  (89) 
88

>  <ligand_id>  (89) 
88

>  <original_smiles>  (89) 
[H]c1nc(C2([H])C([H])([H])C([H])([H])C([H])([H])[N+]2([H])C([H])([H])C([H])([H])Oc2c([H])c([H])c3c(c2[H])C([H])([H])N(C(=O)C([H])(N([H])C(=O)C([H])(N([H])C([H])([H])[H])C([H])([H])[H])C(C([H])([H])[H])(C([H])([H])[H])C([H])([H])[H])C([H])(C(=O)N([H])C2([H])c4c([H])c([H])c([H])c([H])c4C([H])([H])C([H])([H])C2([H])[H])C3([H])[H])c([H])c([H])c1N([H])C(=O)N1C([H])([H])C([H])([H])C([H])([H])C([H])(n2nc(-c3c([H])c([H])c(Oc4c([H])c([H])c(F)c([H])c4F)c([H])c3[H])c(C(=O)N([H])[H])c2N([H])[H])C1([H])[H]

>  <smiles>  (89) 
[H]c1nc(C2([H])C([H])([H])C([H])([H])C([H])([H])[N+]2([H])C([H])([H])C([H])([H])Oc2c([H])c([H])c3c(c2[H])C([H])([H])N(C(=O)C([H])(N([H])C(=O)C([H])(N([H])C([H])([H])[H])C([H])([H])[H])C(C([H])([H])[H])(C([H])([H])[H])C([H])([H])[H])C([H])(C(=O)N([H])C2([H])c4c([H])c([H])c([H])c([H])c4C([H])([H])C([H])([H])C2([H])[H])C3([H])[H])c([H])c([H])c1N([H])C(=O)N1C([H])([H])C([H])([H])C([H])([H])C([H])(n2nc(-c3c([H])c([H])c(Oc4c([H])c([H])c(F)c([H])c4F)c([H])c3[H])c(C(=O)N([H])[H])c2N([H])[H])C1([H])[H]

$$$$
89:0:0
     RDKit          3D

 94103  0  0  1  0  0  0  0  0999 V2000
  -30.1240  -23.7650   18.9150 C   0  0  0  0  0  3  0  0  0  0  0  0
  -29.0710  -23.5660   19.7290 C   0  0  0  0  0  0  0  0  0  0  0  0
  -31.0120  -22.6550   18.4930 C   0  0  0  0  0  0  0  0  0  0  0  0
  -30.9110  -21.2690   19.1750 C   0  0  0  0  0  2  0  0  0  0  0  0
  -28.7730  -22.0660   20.2250 C   0  0  0  0  0  3  0  0  0  0  0  0
  -28.9280  -22.0160   21.7550 C   0  0  0  0  0  1  0  0  0  0  0  0
  -29.5660  -20.9010   19.6160 N   0  0  0  0  0  0  0  0  0  0  0  0
  -31.8510  -22.8090   17.6040 O   0  0  0  0  0  0  0  0  0  0  0  0
  -28.1970  -17.4700   19.8280 C   0  0  0  0  0  3  0  0  0  0  0  0
  -28.0250  -18.8780   19.6100 C   0  0  0  0  0  0  0  0  0  0  0  0
  -29.2650  -19.4610   19.7620 C   0  0  0  0  0  0  0  0  0  0  0  0
  -29.5140  -17.1760   20.0540 C   0  0  0  0  0  0  0  0  0  0  0  0
  -26.6990  -19.4970   19.2490 C   0  0  0  0  0  1  0  0  0  0  0  0
  -30.2230  -18.4110   20.0170 O   0  0  0  0  0  0  0  0  0  0  0  0
  -30.7720  -14.8130   19.9130 C   0  0  0  0  0  0  0  0  0  0  0  0
  -30.7630  -12.4030   19.1790 C   0  0  0  0  0  2  0  0  0  0  0  0
  -29.7740  -12.2600   17.9950 C   0  0  0  0  0  2  0  0  0  0  0  0
  -28.3250  -12.0660   18.4900 C   0  0  0  0  0  2  0  0  0  0  0  0
  -27.9420  -13.0670   19.6090 C   0  0  0  0  0  3  0  0  0  0  0  0
  -29.0380  -13.1280   20.6980 C   0  0  0  0  0  2  0  0  0  0  0  0
  -30.2950  -13.5190   20.0330 N   0  0  0  0  0  0  0  0  0  0  0  0
  -31.9050  -15.0140   19.4620 O   0  0  0  0  0  0  0  0  0  0  0  0
  -29.8420  -15.8040   20.2190 N   0  0  0  0  0  0  0  0  0  0  0  0
  -29.0630  -15.3210   20.6380 H   0  0  0  0  0  0  0  0  0  0  0  0
  -25.6110  -13.6810   20.4890 C   0  0  0  0  0  0  0  0  0  0  0  0
  -24.5580  -12.9160   20.9110 C   0  0  0  0  0  0  0  0  0  0  0  0
  -24.9970  -11.5590   20.8240 C   0  0  0  0  0  0  0  0  0  0  0  0
  -26.6240  -12.7910   20.1700 N   0  0  0  0  0  0  0  0  0  0  0  0
  -26.2640  -11.5080   20.4310 N   0  0  0  0  0  0  0  0  0  0  0  0
  -24.2660  -10.3030   21.0320 C   0  0  0  0  0  0  0  0  0  0  0  0
  -24.6710   -9.3650   22.0060 C   0  0  0  0  0  3  0  0  0  0  0  0
  -23.9400   -8.1740   22.2010 C   0  0  0  0  0  3  0  0  0  0  0  0
  -22.7890   -7.9120   21.4210 C   0  0  0  0  0  0  0  0  0  0  0  0
  -22.4030   -8.8390   20.4360 C   0  0  0  0  0  3  0  0  0  0  0  0
  -23.1360  -10.0210   20.2400 C   0  0  0  0  0  3  0  0  0  0  0  0
  -22.0340   -6.7690   21.5220 O   0  0  0  0  0  0  0  0  0  0  0  0
  -21.8540   -6.1290   22.7220 C   0  0  0  0  0  0  0  0  0  0  0  0
  -21.2700   -6.7760   23.8320 C   0  0  0  0  0  3  0  0  0  0  0  0
  -21.0400   -6.0590   25.0240 C   0  0  0  0  0  3  0  0  0  0  0  0
  -21.3840   -4.6970   25.1050 C   0  0  0  0  0  0  0  0  0  0  0  0
  -21.9600   -4.0500   23.9980 C   0  0  0  0  0  3  0  0  0  0  0  0
  -22.1910   -4.7620   22.8090 C   0  0  0  0  0  0  0  0  0  0  0  0
  -22.7270   -4.1280   21.7390 F   0  0  0  0  0  0  0  0  0  0  0  0
  -21.1560   -4.0060   26.2470 F   0  0  0  0  0  0  0  0  0  0  0  0
  -23.1870  -13.4060   21.2770 C   0  0  0  0  0  0  0  0  0  0  0  0
  -22.5120  -12.7150   22.1890 N   0  0  0  0  0  0  0  0  0  0  0  0
  -22.7260  -14.4380   20.7910 O   0  0  0  0  0  0  0  0  0  0  0  0
  -22.8990  -11.8800   22.6010 H   0  0  0  0  0  0  0  0  0  0  0  0
  -21.5950  -13.0260   22.4780 H   0  0  0  0  0  0  0  0  0  0  0  0
  -25.7840  -15.0520   20.3270 N   0  0  0  0  0  0  0  0  0  0  0  0
  -25.0250  -15.7050   20.4860 H   0  0  0  0  0  0  0  0  0  0  0  0
  -26.5730  -15.4750   19.8580 H   0  0  0  0  0  0  0  0  0  0  0  0
  -28.0900  -24.7880   20.1290 C   0  0  0  0  0  2  0  0  0  0  0  0
  -28.3790  -26.2570   19.8290 O   0  0  0  0  0  0  0  0  0  0  0  0
  -24.6760  -31.7040   23.0310 C   0  0  0  0  0  0  0  0  0  0  0  0
  -27.2930  -27.1830   19.8330 C   0  0  0  0  0  0  0  0  0  0  0  0
  -23.4780  -30.3590   21.3440 C   0  0  0  0  0  3  0  0  0  0  0  0
  -24.9350  -28.8520   19.8690 C   0  0  0  0  0  0  0  0  0  0  0  0
  -26.0250  -30.6680   21.1790 C   0  0  0  0  0  2  0  0  0  0  0  0
  -26.1100  -29.3040   20.4850 C   0  0  0  0  0  0  0  0  0  0  0  0
  -27.2920  -28.4870   20.4510 C   0  0  0  0  0  3  0  0  0  0  0  0
  -26.0960  -26.8160   19.1810 C   0  0  0  0  0  3  0  0  0  0  0  0
  -24.9360  -27.6160   19.2060 C   0  0  0  0  0  3  0  0  0  0  0  0
  -23.6980  -29.7290   19.9440 C   0  0  0  0  0  2  0  0  0  0  0  0
  -24.7460  -30.9280   21.9080 N   0  0  0  0  0  0  0  0  0  0  0  0
  -23.5890  -31.9630   23.5710 O   0  0  0  0  0  0  0  0  0  0  0  0
  -22.8120  -29.3120   22.2710 C   0  0  0  0  0  0  0  0  0  0  0  0
  -21.4790  -29.1670   22.1680 N   0  0  0  0  0  0  0  0  0  0  0  0
  -23.4950  -28.6340   23.0440 O   0  0  0  0  0  0  0  0  0  0  0  0
  -20.9870  -29.7650   21.5200 H   0  0  0  0  0  0  0  0  0  0  0  0
  -18.0850  -28.0460   22.7430 C   0  0  0  0  0  0  0  0  0  0  0  0
  -20.6610  -28.2070   22.9130 C   0  0  0  0  0  3  0  0  0  0  0  0
  -20.6880  -26.8150   22.2430 C   0  0  0  0  0  2  0  0  0  0  0  0
  -19.5340  -26.5940   21.2590 C   0  0  0  0  0  2  0  0  0  0  0  0
  -18.1870  -26.7390   21.9730 C   0  0  0  0  0  2  0  0  0  0  0  0
  -19.2470  -28.7430   23.1700 C   0  0  0  0  0  0  0  0  0  0  0  0
  -19.0970  -29.9690   23.8540 C   0  0  0  0  0  3  0  0  0  0  0  0
  -17.8180  -30.4980   24.1100 C   0  0  0  0  0  3  0  0  0  0  0  0
  -16.6720  -29.7980   23.6960 C   0  0  0  0  0  3  0  0  0  0  0  0
  -16.8060  -28.5720   23.0200 C   0  0  0  0  0  3  0  0  0  0  0  0
  -25.9530  -32.3220   23.6760 C   0  0  0  0  0  3  0  0  0  0  0  0
  -25.6290  -33.7010   24.0710 N   0  0  0  0  0  0  0  0  0  0  0  0
  -25.9470  -34.7920   23.3610 C   0  0  0  0  0  0  0  0  0  0  0  0
  -26.6100  -34.7440   22.3220 O   0  0  0  0  0  0  0  0  0  0  0  0
  -25.0340  -33.8130   24.8780 H   0  0  0  0  0  0  0  0  0  0  0  0
  -24.1990  -36.5850   23.1090 C   0  0  0  0  0  1  0  0  0  0  0  0
  -25.4510  -36.1540   23.8880 C   0  0  0  0  0  3  0  0  0  0  0  0
  -27.5830  -37.0240   24.7450 C   0  0  0  0  0  1  0  0  0  0  0  0
  -26.4730  -37.2200   23.8140 N   0  0  0  0  0  0  0  0  0  0  0  0
  -26.0590  -38.1280   24.0040 H   0  0  0  0  0  0  0  0  0  0  0  0
  -26.4810  -31.5010   24.9170 C   0  0  1  0  0  0  0  0  0  0  0  0
  -25.3940  -31.2140   25.9790 C   0  0  0  0  0  1  0  0  0  0  0  0
  -27.0700  -30.1430   24.4690 C   0  0  0  0  0  1  0  0  0  0  0  0
  -27.6270  -32.2760   25.6080 C   0  0  0  0  0  1  0  0  0  0  0  0
  1  2  2  0
  2 53  1  0
  2  5  1  0
  3  1  1  0
  3  4  1  0
  4  7  1  0
  5  6  1  0
  7 11  1  0
  7  5  1  0
  8  3  2  0
  9 12  2  0
 10 11  2  0
 10  9  1  0
 11 14  1  0
 12 23  1  0
 13 10  1  0
 14 12  1  0
 15 21  1  0
 15 23  1  0
 16 21  1  0
 17 18  1  0
 17 16  1  0
 19 18  1  0
 19 28  1  0
 19 20  1  0
 21 20  1  0
 22 15  2  0
 23 24  1  0
 25 26  2  0
 26 45  1  0
 27 26  1  0
 27 30  1  0
 28 29  1  0
 28 25  1  0
 29 27  2  0
 30 31  1  0
 31 32  2  0
 33 36  1  0
 33 32  1  0
 34 33  2  0
 35 34  1  0
 35 30  2  0
 36 37  1  0
 37 42  2  0
 37 38  1  0
 38 39  2  0
 39 40  1  0
 40 44  1  0
 41 40  2  0
 42 41  1  0
 43 42  1  0
 45 46  1  0
 46 49  1  0
 46 48  1  0
 47 45  2  0
 50 51  1  0
 50 25  1  0
 52 50  1  0
 54 56  1  0
 54 53  1  0
 55 66  2  0
 56 61  1  0
 57 65  1  0
 57 67  1  0
 58 64  1  0
 58 60  1  0
 59 65  1  0
 60 59  1  0
 61 60  2  0
 62 63  1  0
 62 56  2  0
 63 58  2  0
 64 57  1  0
 65 55  1  0
 67 69  2  0
 68 67  1  0
 70 68  1  0
 71 80  2  0
 71 76  1  0
 72 68  1  0
 72 76  1  0
 73 72  1  0
 74 75  1  0
 74 73  1  0
 75 71  1  0
 76 77  2  0
 77 78  1  0
 79 78  2  0
 80 79  1  0
 81 55  1  0
 81 82  1  0
 81 91  1  0
 82 85  1  0
 83 87  1  0
 83 82  1  0
 84 83  2  0
 87 86  1  0
 89 87  1  0
 89 90  1  0
 89 88  1  0
 91 94  1  1
 91 92  1  0
 93 91  1  0
M  ISO  4  15 100  23 100  53 101  54 101
M  END
>  <TORSDO>  (90) 
F 18

>  <SCORE>  (90) 
-13.992

>  <name>  (90) 
89

>  <ligand_id>  (90) 
89

>  <original_smiles>  (90) 
[H]C1=C(C([H])([H])Oc2c([H])c([H])c3c(c2[H])C([H])([H])N(C(=O)C([H])(N([H])C(=O)C([H])(N([H])C([H])([H])[H])C([H])([H])[H])C(C([H])([H])[H])(C([H])([H])[H])C([H])([H])[H])C([H])(C(=O)N([H])C2([H])c4c([H])c([H])c([H])c([H])c4C([H])([H])C([H])([H])C2([H])[H])C3([H])[H])C([H])(C([H])([H])[H])N(c2oc(N([H])C(=O)N3C([H])([H])C([H])([H])C([H])([H])C([H])(n4nc(-c5c([H])c([H])c(Oc6c([H])c([H])c(F)c([H])c6F)c([H])c5[H])c(C(=O)N([H])[H])c4N([H])[H])C3([H])[H])c([H])c2C([H])([H])[H])C([H])([H])C1=O

>  <smiles>  (90) 
[H]C1=C(C([H])([H])Oc2c([H])c([H])c3c(c2[H])C([H])([H])N(C(=O)C([H])(N([H])C(=O)C([H])(N([H])C([H])([H])[H])C([H])([H])[H])C(C([H])([H])[H])(C([H])([H])[H])C([H])([H])[H])C([H])(C(=O)N([H])C2([H])c4c([H])c([H])c([H])c([H])c4C([H])([H])C([H])([H])C2([H])[H])C3([H])[H])C([H])(C([H])([H])[H])N(c2oc(N([H])C(=O)N3C([H])([H])C([H])([H])C([H])([H])C([H])(n4nc(-c5c([H])c([H])c(Oc6c([H])c([H])c(F)c([H])c6F)c([H])c5[H])c(C(=O)N([H])[H])c4N([H])[H])C3([H])[H])c([H])c2C([H])([H])[H])C([H])([H])C1=O

$$$$
90:0:0
     RDKit          3D

 96105  0  0  1  0  0  0  0  0999 V2000
  -31.0290  -18.1840   20.1350 C   0  0  0  0  0  3  0  0  0  0  0  0
  -30.8430  -19.6310   20.0230 C   0  0  0  0  0  0  0  0  0  0  0  0
  -29.5730  -20.1640   20.2460 C   0  0  0  0  0  0  0  0  0  0  0  0
  -29.9060  -17.4300   20.4240 C   0  0  0  0  0  0  0  0  0  0  0  0
  -28.5950  -18.6800   20.6070 S   0  0  0  0  0  0  0  0  0  0  0  0
  -30.5360  -14.8910   20.2980 C   0  0  0  0  0  0  0  0  0  0  0  0
  -30.3710  -12.5900   19.2880 C   0  0  0  0  0  2  0  0  0  0  0  0
  -29.4030  -12.6290   18.0830 C   0  0  0  0  0  2  0  0  0  0  0  0
  -27.9460  -12.4290   18.5440 C   0  0  0  0  0  2  0  0  0  0  0  0
  -27.5840  -13.3110   19.7670 C   0  0  0  0  0  3  0  0  0  0  0  0
  -28.6680  -13.2450   20.8660 C   0  0  0  0  0  2  0  0  0  0  0  0
  -29.9400  -13.6420   20.2460 N   0  0  0  0  0  0  0  0  0  0  0  0
  -31.7180  -14.9960   19.9540 O   0  0  0  0  0  0  0  0  0  0  0  0
  -29.7320  -16.0170   20.5510 N   0  0  0  0  0  0  0  0  0  0  0  0
  -28.7940  -15.7490   20.8120 H   0  0  0  0  0  0  0  0  0  0  0  0
  -25.2140  -13.8820   20.5600 C   0  0  0  0  0  0  0  0  0  0  0  0
  -24.1590  -13.1010   20.9430 C   0  0  0  0  0  0  0  0  0  0  0  0
  -24.6240  -11.7510   20.8830 C   0  0  0  0  0  0  0  0  0  0  0  0
  -26.2540  -13.0090   20.2860 N   0  0  0  0  0  0  0  0  0  0  0  0
  -25.9080  -11.7210   20.5450 N   0  0  0  0  0  0  0  0  0  0  0  0
  -23.9030  -10.4850   21.0710 C   0  0  0  0  0  0  0  0  0  0  0  0
  -24.3520   -9.5080   21.9860 C   0  0  0  0  0  3  0  0  0  0  0  0
  -23.6310   -8.3070   22.1630 C   0  0  0  0  0  3  0  0  0  0  0  0
  -22.4470   -8.0750   21.4250 C   0  0  0  0  0  0  0  0  0  0  0  0
  -22.0180   -9.0410   20.4970 C   0  0  0  0  0  3  0  0  0  0  0  0
  -22.7400  -10.2330   20.3180 C   0  0  0  0  0  3  0  0  0  0  0  0
  -21.6960   -6.9280   21.5120 O   0  0  0  0  0  0  0  0  0  0  0  0
  -21.6620   -6.1750   22.6580 C   0  0  0  0  0  0  0  0  0  0  0  0
  -21.2230   -6.7090   23.8880 C   0  0  0  0  0  3  0  0  0  0  0  0
  -21.1400   -5.8820   25.0270 C   0  0  0  0  0  3  0  0  0  0  0  0
  -21.4850   -4.5200   24.9340 C   0  0  0  0  0  0  0  0  0  0  0  0
  -21.9160   -3.9850   23.7080 C   0  0  0  0  0  3  0  0  0  0  0  0
  -22.0020   -4.8090   22.5720 C   0  0  0  0  0  0  0  0  0  0  0  0
  -22.3980   -4.2830   21.3880 F   0  0  0  0  0  0  0  0  0  0  0  0
  -21.3960   -3.7220   26.0240 F   0  0  0  0  0  0  0  0  0  0  0  0
  -22.7660  -13.5710   21.2480 C   0  0  0  0  0  0  0  0  0  0  0  0
  -22.0580  -12.8640   22.1210 N   0  0  0  0  0  0  0  0  0  0  0  0
  -22.3160  -14.6010   20.7480 O   0  0  0  0  0  0  0  0  0  0  0  0
  -22.4350  -12.0300   22.5470 H   0  0  0  0  0  0  0  0  0  0  0  0
  -21.1240  -13.1610   22.3670 H   0  0  0  0  0  0  0  0  0  0  0  0
  -25.3690  -15.2560   20.3940 N   0  0  0  0  0  0  0  0  0  0  0  0
  -24.5950  -15.9000   20.5200 H   0  0  0  0  0  0  0  0  0  0  0  0
  -26.1900  -15.6990   20.0040 H   0  0  0  0  0  0  0  0  0  0  0  0
  -32.0050  -20.4360   19.6400 C   0  0  0  0  0  0  0  0  0  0  0  0
  -33.1160  -20.4070   20.3850 N   0  0  0  0  0  0  0  0  0  0  0  0
  -31.9880  -21.1700   18.5230 N   0  0  0  0  0  4  0  0  0  0  0  0
  -33.1250  -19.8710   21.2410 H   0  0  0  0  0  0  0  0  0  0  0  0
  -33.9510  -20.9220   20.1610 H   0  0  0  0  0  0  0  0  0  0  0  0
  -31.1610  -21.1470   17.9440 H   0  0  0  0  0  0  0  0  0  0  0  0
  -32.7760  -21.7050   18.1970 H   0  0  0  0  0  0  0  0  0  0  0  0
  -28.4620  -23.6030   20.5210 C   0  0  0  0  0  0  0  0  0  0  0  0
  -27.8750  -24.8820   20.6300 C   0  0  0  0  0  3  0  0  0  0  0  0
  -29.7720  -22.8950   20.0590 C   0  0  0  0  0  2  0  0  0  0  0  0
  -27.9260  -22.1860   20.9150 C   0  0  0  0  0  2  0  0  0  0  0  0
  -29.0330  -21.5870   20.1290 N   0  0  0  0  0  0  0  0  0  0  0  0
  -28.2510  -26.2520   20.3400 O   0  0  0  0  0  0  0  0  0  0  0  0
  -24.6250  -31.9380   23.2550 C   0  0  0  0  0  0  0  0  0  0  0  0
  -27.2140  -27.2400   20.2750 C   0  0  0  0  0  0  0  0  0  0  0  0
  -23.4290  -30.5300   21.6220 C   0  0  0  0  0  3  0  0  0  0  0  0
  -24.8830  -28.9490   20.2170 C   0  0  0  0  0  0  0  0  0  0  0  0
  -25.9810  -30.8020   21.4660 C   0  0  0  0  0  2  0  0  0  0  0  0
  -26.0570  -29.4080   20.8300 C   0  0  0  0  0  0  0  0  0  0  0  0
  -27.2260  -28.5650   20.8520 C   0  0  0  0  0  3  0  0  0  0  0  0
  -26.0240  -26.8780   19.6100 C   0  0  0  0  0  3  0  0  0  0  0  0
  -24.8760  -27.6940   19.5920 C   0  0  0  0  0  3  0  0  0  0  0  0
  -23.6550  -29.8420   20.2500 C   0  0  0  0  0  2  0  0  0  0  0  0
  -24.6980  -31.1110   22.1690 N   0  0  0  0  0  0  0  0  0  0  0  0
  -23.5380  -32.2290   23.7750 O   0  0  0  0  0  0  0  0  0  0  0  0
  -22.7470  -29.5300   22.5890 C   0  0  0  0  0  0  0  0  0  0  0  0
  -21.4180  -29.3630   22.4590 N   0  0  0  0  0  0  0  0  0  0  0  0
  -23.4140  -28.9070   23.4180 O   0  0  0  0  0  0  0  0  0  0  0  0
  -20.9370  -29.9180   21.7640 H   0  0  0  0  0  0  0  0  0  0  0  0
  -18.0270  -28.2040   22.9720 C   0  0  0  0  0  0  0  0  0  0  0  0
  -20.5890  -28.4390   23.2350 C   0  0  0  0  0  3  0  0  0  0  0  0
  -20.6730  -27.0030   22.6650 C   0  0  0  0  0  2  0  0  0  0  0  0
  -19.5660  -26.6880   21.6540 C   0  0  0  0  0  2  0  0  0  0  0  0
  -18.1880  -26.8500   22.3010 C   0  0  0  0  0  2  0  0  0  0  0  0
  -19.1540  -28.9560   23.3960 C   0  0  0  0  0  0  0  0  0  0  0  0
  -18.9490  -30.2230   23.9860 C   0  0  0  0  0  3  0  0  0  0  0  0
  -17.6490  -30.7370   24.1540 C   0  0  0  0  0  3  0  0  0  0  0  0
  -16.5360  -29.9810   23.7450 C   0  0  0  0  0  3  0  0  0  0  0  0
  -16.7260  -28.7170   23.1600 C   0  0  0  0  0  3  0  0  0  0  0  0
  -25.9030  -32.5750   23.8810 C   0  0  0  0  0  3  0  0  0  0  0  0
  -25.5940  -33.9760   24.2010 N   0  0  0  0  0  0  0  0  0  0  0  0
  -25.9170  -35.0250   23.4320 C   0  0  0  0  0  0  0  0  0  0  0  0
  -26.5770  -34.9130   22.3940 O   0  0  0  0  0  0  0  0  0  0  0  0
  -25.0080  -34.1370   25.0080 H   0  0  0  0  0  0  0  0  0  0  0  0
  -24.1810  -36.8130   23.0880 C   0  0  0  0  0  1  0  0  0  0  0  0
  -25.4350  -36.4170   23.8840 C   0  0  0  0  0  3  0  0  0  0  0  0
  -27.5800  -37.3150   24.6760 C   0  0  0  0  0  1  0  0  0  0  0  0
  -26.4640  -37.4720   23.7460 N   0  0  0  0  0  0  0  0  0  0  0  0
  -26.0580  -38.3920   23.8900 H   0  0  0  0  0  0  0  0  0  0  0  0
  -26.4070  -31.8140   25.1690 C   0  0  1  0  0  0  0  0  0  0  0  0
  -25.3040  -31.5890   26.2300 C   0  0  0  0  0  1  0  0  0  0  0  0
  -26.9920  -30.4320   24.7970 C   0  0  0  0  0  1  0  0  0  0  0  0
  -27.5530  -32.6130   25.8340 C   0  0  0  0  0  1  0  0  0  0  0  0
  1  4  2  0
  2  1  1  0
  2  3  2  0
  3  5  1  0
  4 14  1  0
  4  5  1  0
  6 14  1  0
  7 12  1  0
  8  9  1  0
  8  7  1  0
 10  9  1  0
 10 19  1  0
 10 11  1  0
 12  6  1  0
 12 11  1  0
 13  6  2  0
 14 15  1  0
 16 17  2  0
 17 36  1  0
 18 17  1  0
 18 21  1  0
 19 20  1  0
 19 16  1  0
 20 18  2  0
 21 22  1  0
 22 23  2  0
 24 27  1  0
 24 23  1  0
 25 24  2  0
 26 25  1  0
 26 21  2  0
 27 28  1  0
 28 29  1  0
 29 30  2  0
 31 30  1  0
 31 35  1  0
 32 31  2  0
 33 28  2  0
 33 32  1  0
 34 33  1  0
 36 37  1  0
 37 40  1  0
 37 39  1  0
 38 36  2  0
 41 42  1  0
 41 16  1  0
 43 41  1  0
 44  2  1  0
 44 45  1  0
 45 47  1  0
 46 44  2  0
 48 45  1  0
 49 46  1  0
 50 46  1  0
 51 52  2  0
 51 54  1  0
 53 55  1  0
 53 51  1  0
 55  3  1  0
 55 54  1  0
 56 52  1  0
 57 68  2  0
 58 56  1  0
 58 63  1  0
 59 67  1  0
 59 69  1  0
 60 66  1  0
 60 62  1  0
 61 67  1  0
 62 63  2  0
 62 61  1  0
 64 58  2  0
 65 64  1  0
 65 60  2  0
 66 59  1  0
 67 57  1  0
 69 71  2  0
 70 69  1  0
 72 70  1  0
 73 82  2  0
 73 78  1  0
 74 70  1  0
 74 78  1  0
 75 74  1  0
 76 77  1  0
 76 75  1  0
 77 73  1  0
 78 79  2  0
 79 80  1  0
 81 80  2  0
 82 81  1  0
 83 57  1  0
 83 84  1  0
 83 93  1  0
 84 87  1  0
 85 89  1  0
 85 84  1  0
 86 85  2  0
 89 88  1  0
 91 89  1  0
 91 92  1  0
 91 90  1  0
 93 96  1  1
 93 94  1  0
 95 93  1  0
M  ISO  4   6 100  14 100  52 101  56 101
M  END
>  <TORSDO>  (91) 
F 18

>  <SCORE>  (91) 
-14.663

>  <name>  (91) 
90

>  <ligand_id>  (91) 
90

>  <original_smiles>  (91) 
[H]C(Oc1c([H])c([H])c2c(c1[H])C([H])([H])N(C(=O)C([H])(N([H])C(=O)C([H])(N([H])C([H])([H])[H])C([H])([H])[H])C(C([H])([H])[H])(C([H])([H])[H])C([H])([H])[H])C([H])(C(=O)N([H])C1([H])c3c([H])c([H])c([H])c([H])c3C([H])([H])C([H])([H])C1([H])[H])C2([H])[H])=C1C([H])([H])N(c2sc(N([H])C(=O)N3C([H])([H])C([H])([H])C([H])([H])C([H])(n4nc(-c5c([H])c([H])c(Oc6c([H])c([H])c(F)c([H])c6F)c([H])c5[H])c(C(=O)N([H])[H])c4N([H])[H])C3([H])[H])c([H])c2C(N([H])[H])=[N+]([H])[H])C1([H])[H]

>  <smiles>  (91) 
[H]C(Oc1c([H])c([H])c2c(c1[H])C([H])([H])N(C(=O)C([H])(N([H])C(=O)C([H])(N([H])C([H])([H])[H])C([H])([H])[H])C(C([H])([H])[H])(C([H])([H])[H])C([H])([H])[H])C([H])(C(=O)N([H])C1([H])c3c([H])c([H])c([H])c([H])c3C([H])([H])C([H])([H])C1([H])[H])C2([H])[H])=C1C([H])([H])N(c2sc(N([H])C(=O)N3C([H])([H])C([H])([H])C([H])([H])C([H])(n4nc(-c5c([H])c([H])c(Oc6c([H])c([H])c(F)c([H])c6F)c([H])c5[H])c(C(=O)N([H])[H])c4N([H])[H])C3([H])[H])c([H])c2C(N([H])[H])=[N+]([H])[H])C1([H])[H]

$$$$
91:0:0
     RDKit          3D

 94103  0  0  1  0  0  0  0  0999 V2000
  -29.5920  -20.6140   20.5280 C   0  0  0  0  0  3  0  0  0  0  0  0
  -31.7970  -19.6500   20.8920 C   0  0  0  0  0  3  0  0  0  0  0  0
  -31.5500  -22.0600   20.5820 C   0  0  0  0  0  3  0  0  0  0  0  0
  -30.4040  -19.4680   20.7510 C   0  0  0  0  0  0  0  0  0  0  0  0
  -30.1470  -21.9220   20.4490 C   0  0  0  0  0  0  0  0  0  0  0  0
  -32.3640  -20.9340   20.8040 C   0  0  0  0  0  0  0  0  0  0  0  0
  -33.7040  -21.0860   20.9330 F   0  0  0  0  0  0  0  0  0  0  0  0
  -30.8340  -14.5630   20.0900 C   0  0  0  0  0  0  0  0  0  0  0  0
  -30.4560  -12.4370   18.8870 C   0  0  0  0  0  2  0  0  0  0  0  0
  -29.4400  -12.6710   17.7510 C   0  0  0  0  0  2  0  0  0  0  0  0
  -27.9960  -12.5110   18.2660 C   0  0  0  0  0  2  0  0  0  0  0  0
  -27.7390  -13.2960   19.5800 C   0  0  0  0  0  3  0  0  0  0  0  0
  -28.8640  -13.0350   20.6040 C   0  0  0  0  0  2  0  0  0  0  0  0
  -30.1400  -13.3920   19.9660 N   0  0  0  0  0  0  0  0  0  0  0  0
  -31.9300  -14.7170   19.5400 O   0  0  0  0  0  0  0  0  0  0  0  0
  -30.0120  -17.3760   22.2170 C   0  0  0  0  0  2  0  0  0  0  0  0
  -29.7730  -15.8870   21.9220 C   0  0  0  0  0  2  0  0  0  0  0  0
  -30.3410  -16.9900   19.8920 C   0  0  0  0  0  2  0  0  0  0  0  0
  -29.7980  -18.0550   20.8690 C   0  0  0  0  0  3  0  0  0  0  0  0
  -30.1410  -15.6600   20.5170 N   0  0  0  0  0  0  0  0  0  0  0  0
  -25.3890  -13.8650   20.4620 C   0  0  0  0  0  0  0  0  0  0  0  0
  -24.3490  -13.0750   20.8680 C   0  0  0  0  0  0  0  0  0  0  0  0
  -24.8100  -11.7270   20.7590 C   0  0  0  0  0  0  0  0  0  0  0  0
  -26.4190  -12.9970   20.1340 N   0  0  0  0  0  0  0  0  0  0  0  0
  -26.0770  -11.7050   20.3670 N   0  0  0  0  0  0  0  0  0  0  0  0
  -24.1000  -10.4550   20.9490 C   0  0  0  0  0  0  0  0  0  0  0  0
  -24.5300   -9.5040   21.9000 C   0  0  0  0  0  3  0  0  0  0  0  0
  -23.8200   -8.2980   22.0770 C   0  0  0  0  0  3  0  0  0  0  0  0
  -22.6660   -8.0320   21.3020 C   0  0  0  0  0  0  0  0  0  0  0  0
  -22.2550   -8.9720   20.3420 C   0  0  0  0  0  3  0  0  0  0  0  0
  -22.9650  -10.1710   20.1620 C   0  0  0  0  0  3  0  0  0  0  0  0
  -21.9290   -6.8760   21.3880 O   0  0  0  0  0  0  0  0  0  0  0  0
  -21.7810   -6.2010   22.5740 C   0  0  0  0  0  0  0  0  0  0  0  0
  -21.2060   -6.8110   23.7100 C   0  0  0  0  0  3  0  0  0  0  0  0
  -21.0100   -6.0610   24.8870 C   0  0  0  0  0  3  0  0  0  0  0  0
  -21.3790   -4.7020   24.9270 C   0  0  0  0  0  0  0  0  0  0  0  0
  -21.9460   -4.0930   23.7950 C   0  0  0  0  0  3  0  0  0  0  0  0
  -22.1440   -4.8410   22.6200 C   0  0  0  0  0  0  0  0  0  0  0  0
  -22.6720   -4.2430   21.5250 F   0  0  0  0  0  0  0  0  0  0  0  0
  -21.1830   -3.9800   26.0550 F   0  0  0  0  0  0  0  0  0  0  0  0
  -22.9700  -13.5360   21.2480 C   0  0  0  0  0  0  0  0  0  0  0  0
  -22.3180  -12.8260   22.1620 N   0  0  0  0  0  0  0  0  0  0  0  0
  -22.4840  -14.5590   20.7700 O   0  0  0  0  0  0  0  0  0  0  0  0
  -22.7250  -11.9990   22.5690 H   0  0  0  0  0  0  0  0  0  0  0  0
  -21.3970  -13.1180   22.4590 H   0  0  0  0  0  0  0  0  0  0  0  0
  -25.5410  -15.2410   20.3260 N   0  0  0  0  0  0  0  0  0  0  0  0
  -24.7880  -15.8930   20.5120 H   0  0  0  0  0  0  0  0  0  0  0  0
  -26.3800  -15.6930   19.9800 H   0  0  0  0  0  0  0  0  0  0  0  0
  -29.4690  -24.3750   20.2990 C   0  0  0  0  0  0  0  0  0  0  0  0
  -29.2690  -23.0350   20.2060 N   0  0  0  0  0  0  0  0  0  0  0  0
  -30.5110  -24.8960   20.7080 O   0  0  0  0  0  0  0  0  0  0  0  0
  -28.3320  -22.7850   19.9180 H   0  0  0  0  0  0  0  0  0  0  0  0
  -28.2770  -25.2600   19.8740 C   0  0  0  0  0  2  0  0  0  0  0  0
  -28.4400  -26.6690   20.1860 O   0  0  0  0  0  0  0  0  0  0  0  0
  -24.6590  -31.8860   23.2770 C   0  0  0  0  0  0  0  0  0  0  0  0
  -27.2860  -27.4420   20.1510 C   0  0  0  0  0  0  0  0  0  0  0  0
  -23.4520  -30.5050   21.6220 C   0  0  0  0  0  3  0  0  0  0  0  0
  -24.9010  -28.9860   20.1770 C   0  0  0  0  0  0  0  0  0  0  0  0
  -25.9830  -30.8520   21.4330 C   0  0  0  0  0  2  0  0  0  0  0  0
  -26.0650  -29.4870   20.7740 C   0  0  0  0  0  0  0  0  0  0  0  0
  -27.2600  -28.7240   20.7580 C   0  0  0  0  0  3  0  0  0  0  0  0
  -26.0990  -26.9760   19.5330 C   0  0  0  0  0  3  0  0  0  0  0  0
  -24.9150  -27.7310   19.5520 C   0  0  0  0  0  3  0  0  0  0  0  0
  -23.6610  -29.8460   20.2350 C   0  0  0  0  0  2  0  0  0  0  0  0
  -24.7170  -31.0950   22.1690 N   0  0  0  0  0  0  0  0  0  0  0  0
  -23.5780  -32.1550   23.8200 O   0  0  0  0  0  0  0  0  0  0  0  0
  -22.7980  -29.4730   22.5690 C   0  0  0  0  0  0  0  0  0  0  0  0
  -21.4750  -29.2860   22.4320 N   0  0  0  0  0  0  0  0  0  0  0  0
  -23.4790  -28.8440   23.3850 O   0  0  0  0  0  0  0  0  0  0  0  0
  -20.9870  -29.8450   21.7460 H   0  0  0  0  0  0  0  0  0  0  0  0
  -18.0970  -28.0930   22.9180 C   0  0  0  0  0  0  0  0  0  0  0  0
  -20.6570  -28.3390   23.1900 C   0  0  0  0  0  3  0  0  0  0  0  0
  -20.7540  -26.9160   22.5940 C   0  0  0  0  0  2  0  0  0  0  0  0
  -19.6490  -26.6110   21.5770 C   0  0  0  0  0  2  0  0  0  0  0  0
  -18.2690  -26.7520   22.2260 C   0  0  0  0  0  2  0  0  0  0  0  0
  -19.2190  -28.8450   23.3580 C   0  0  0  0  0  0  0  0  0  0  0  0
  -19.0060  -30.1020   23.9660 C   0  0  0  0  0  3  0  0  0  0  0  0
  -17.7030  -30.6060   24.1380 C   0  0  0  0  0  3  0  0  0  0  0  0
  -16.5950  -29.8490   23.7160 C   0  0  0  0  0  3  0  0  0  0  0  0
  -16.7940  -28.5950   23.1120 C   0  0  0  0  0  3  0  0  0  0  0  0
  -25.9460  -32.5090   23.9040 C   0  0  0  0  0  3  0  0  0  0  0  0
  -25.6410  -33.9060   24.2390 N   0  0  0  0  0  0  0  0  0  0  0  0
  -25.9520  -34.9580   23.4670 C   0  0  0  0  0  0  0  0  0  0  0  0
  -26.5960  -34.8520   22.4200 O   0  0  0  0  0  0  0  0  0  0  0  0
  -25.0670  -34.0610   25.0540 H   0  0  0  0  0  0  0  0  0  0  0  0
  -24.1960  -36.7320   23.1660 C   0  0  0  0  0  1  0  0  0  0  0  0
  -25.4710  -36.3450   23.9320 C   0  0  0  0  0  3  0  0  0  0  0  0
  -27.6250  -37.2570   24.6780 C   0  0  0  0  0  1  0  0  0  0  0  0
  -26.4900  -37.4050   23.7710 N   0  0  0  0  0  0  0  0  0  0  0  0
  -26.0820  -38.3240   23.9220 H   0  0  0  0  0  0  0  0  0  0  0  0
  -26.4580  -31.7280   25.1760 C   0  0  1  0  0  0  0  0  0  0  0  0
  -25.3600  -31.4800   26.2360 C   0  0  0  0  0  1  0  0  0  0  0  0
  -27.0460  -30.3560   24.7760 C   0  0  0  0  0  1  0  0  0  0  0  0
  -27.6040  -32.5190   25.8500 C   0  0  0  0  0  1  0  0  0  0  0  0
  1  4  1  0
  3  6  2  0
  4  2  2  0
  5  1  2  0
  5  3  1  0
  6  2  1  0
  6  7  1  0
  8 20  1  0
  9 14  1  0
 10 11  1  0
 10  9  1  0
 12 11  1  0
 12 24  1  0
 12 13  1  0
 14  8  1  0
 14 13  1  0
 15  8  2  0
 17 16  1  0
 18 20  1  0
 18 19  1  0
 19  4  1  0
 19 16  1  0
 20 17  1  0
 21 22  2  0
 22 41  1  0
 23 22  1  0
 23 26  1  0
 24 25  1  0
 24 21  1  0
 25 23  2  0
 26 27  1  0
 27 28  2  0
 29 32  1  0
 29 28  1  0
 30 29  2  0
 31 30  1  0
 31 26  2  0
 32 33  1  0
 33 38  2  0
 33 34  1  0
 34 35  2  0
 35 36  1  0
 36 40  1  0
 37 36  2  0
 38 37  1  0
 39 38  1  0
 41 42  1  0
 42 45  1  0
 42 44  1  0
 43 41  2  0
 46 21  1  0
 46 47  1  0
 48 46  1  0
 49 51  2  0
 50 49  1  0
 50  5  1  0
 52 50  1  0
 53 54  1  0
 53 49  1  0
 55 66  2  0
 56 54  1  0
 56 61  1  0
 57 65  1  0
 57 67  1  0
 58 64  1  0
 58 60  1  0
 59 65  1  0
 60 59  1  0
 61 60  2  0
 62 63  1  0
 62 56  2  0
 63 58  2  0
 64 57  1  0
 65 55  1  0
 67 69  2  0
 68 67  1  0
 70 68  1  0
 71 80  2  0
 71 76  1  0
 72 68  1  0
 72 76  1  0
 73 72  1  0
 74 75  1  0
 74 73  1  0
 75 71  1  0
 76 77  2  0
 77 78  1  0
 79 78  2  0
 80 79  1  0
 81 55  1  0
 81 82  1  0
 81 91  1  0
 82 85  1  0
 83 87  1  0
 83 82  1  0
 84 83  2  0
 87 86  1  0
 89 90  1  0
 89 87  1  0
 89 88  1  0
 91 94  1  1
 91 92  1  0
 93 91  1  0
M  ISO  4   8 100  20 100  53 101  54 101
M  END
>  <TORSDO>  (92) 
F 18

>  <SCORE>  (92) 
-14.046

>  <name>  (92) 
91

>  <ligand_id>  (92) 
91

>  <original_smiles>  (92) 
[H]c1c([H])c([H])c2c(c1[H])C([H])([H])C([H])([H])C([H])([H])C2([H])N([H])C(=O)C1([H])N(C(=O)C([H])(N([H])C(=O)C([H])(N([H])C([H])([H])[H])C([H])([H])[H])C(C([H])([H])[H])(C([H])([H])[H])C([H])([H])[H])C([H])([H])c2c([H])c(OC([H])([H])C(=O)N([H])c3c([H])c(F)c([H])c(C4([H])C([H])([H])N(C(=O)N5C([H])([H])C([H])([H])C([H])([H])C([H])(n6nc(-c7c([H])c([H])c(Oc8c([H])c([H])c(F)c([H])c8F)c([H])c7[H])c(C(=O)N([H])[H])c6N([H])[H])C5([H])[H])C([H])([H])C4([H])[H])c3[H])c([H])c([H])c2C1([H])[H]

>  <smiles>  (92) 
[H]c1c([H])c([H])c2c(c1[H])C([H])([H])C([H])([H])C([H])([H])C2([H])N([H])C(=O)C1([H])N(C(=O)C([H])(N([H])C(=O)C([H])(N([H])C([H])([H])[H])C([H])([H])[H])C(C([H])([H])[H])(C([H])([H])[H])C([H])([H])[H])C([H])([H])c2c([H])c(OC([H])([H])C(=O)N([H])c3c([H])c(F)c([H])c(C4([H])C([H])([H])N(C(=O)N5C([H])([H])C([H])([H])C([H])([H])C([H])(n6nc(-c7c([H])c([H])c(Oc8c([H])c([H])c(F)c([H])c8F)c([H])c7[H])c(C(=O)N([H])[H])c6N([H])[H])C5([H])[H])C([H])([H])C4([H])[H])c3[H])c([H])c([H])c2C1([H])[H]

$$$$
92:0:0
     RDKit          3D

 94103  0  0  1  0  0  0  0  0999 V2000
  -29.3470  -20.0190   20.7290 C   0  0  0  0  0  3  0  0  0  0  0  0
  -29.8680  -18.8460   19.9700 C   0  0  0  0  0  0  0  0  0  0  0  0
  -29.1610  -21.2320   20.0350 C   0  0  0  0  0  0  0  0  0  0  0  0
  -30.0320  -19.1650   18.6980 N   0  0  0  0  0  0  0  0  0  0  0  0
  -29.6330  -20.8050   18.4110 S   0  0  0  0  0  0  0  0  0  0  0  0
  -32.3000  -16.5030   21.8370 C   0  0  0  0  0  2  0  0  0  0  0  0
  -31.0060  -16.2710   22.6210 C   0  0  0  0  0  2  0  0  0  0  0  0
  -31.9340  -17.4880   20.7110 C   0  0  0  0  0  2  0  0  0  0  0  0
  -29.9810  -17.2190   21.9860 C   0  0  0  0  0  2  0  0  0  0  0  0
  -30.3990  -17.4170   20.5090 C   0  0  1  0  0  0  0  0  0  0  0  0
  -30.7110  -14.9520   19.3960 C   0  0  0  0  0  0  0  0  0  0  0  0
  -30.3620  -12.6800   18.3680 C   0  0  0  0  0  2  0  0  0  0  0  0
  -29.2640  -12.7330   17.2830 C   0  0  0  0  0  2  0  0  0  0  0  0
  -27.8680  -12.5590   17.9110 C   0  0  0  0  0  2  0  0  0  0  0  0
  -27.6620  -13.4530   19.1620 C   0  0  0  0  0  3  0  0  0  0  0  0
  -28.8600  -13.3680   20.1290 C   0  0  0  0  0  2  0  0  0  0  0  0
  -30.0570  -13.7360   19.3630 N   0  0  0  0  0  0  0  0  0  0  0  0
  -31.8430  -15.0320   18.9110 O   0  0  0  0  0  0  0  0  0  0  0  0
  -30.0100  -16.0760   19.8390 N   0  0  0  0  0  0  0  0  0  0  0  0
  -29.0340  -15.8700   19.9800 H   0  0  0  0  0  0  0  0  0  0  0  0
  -25.4390  -14.0680   20.2780 C   0  0  0  0  0  0  0  0  0  0  0  0
  -24.4060  -13.3040   20.7500 C   0  0  0  0  0  0  0  0  0  0  0  0
  -24.8010  -11.9450   20.5590 C   0  0  0  0  0  0  0  0  0  0  0  0
  -26.3960  -13.1740   19.8290 N   0  0  0  0  0  0  0  0  0  0  0  0
  -26.0280  -11.8870   20.0580 N   0  0  0  0  0  0  0  0  0  0  0  0
  -24.0560  -10.6970   20.7670 C   0  0  0  0  0  0  0  0  0  0  0  0
  -24.5140   -9.7020   21.6580 C   0  0  0  0  0  3  0  0  0  0  0  0
  -23.7700   -8.5190   21.8580 C   0  0  0  0  0  3  0  0  0  0  0  0
  -22.5530   -8.3230   21.1630 C   0  0  0  0  0  0  0  0  0  0  0  0
  -22.1130   -9.3060   20.2600 C   0  0  0  0  0  3  0  0  0  0  0  0
  -22.8570  -10.4790   20.0590 C   0  0  0  0  0  3  0  0  0  0  0  0
  -21.7760   -7.1950   21.2740 O   0  0  0  0  0  0  0  0  0  0  0  0
  -21.6870   -6.4950   22.4510 C   0  0  0  0  0  0  0  0  0  0  0  0
  -21.2210   -7.0950   23.6410 C   0  0  0  0  0  3  0  0  0  0  0  0
  -21.0800   -6.3210   24.8100 C   0  0  0  0  0  3  0  0  0  0  0  0
  -21.3910   -4.9490   24.7890 C   0  0  0  0  0  0  0  0  0  0  0  0
  -21.8490   -4.3500   23.6030 C   0  0  0  0  0  3  0  0  0  0  0  0
  -21.9920   -5.1200   22.4360 C   0  0  0  0  0  0  0  0  0  0  0  0
  -22.4130   -4.5310   21.2910 F   0  0  0  0  0  0  0  0  0  0  0  0
  -21.2480   -4.2040   25.9090 F   0  0  0  0  0  0  0  0  0  0  0  0
  -23.0850  -13.8060   21.2580 C   0  0  0  0  0  0  0  0  0  0  0  0
  -22.4660  -13.0760   22.1790 N   0  0  0  0  0  0  0  0  0  0  0  0
  -22.6190  -14.8770   20.8730 O   0  0  0  0  0  0  0  0  0  0  0  0
  -22.8590  -12.2060   22.5050 H   0  0  0  0  0  0  0  0  0  0  0  0
  -21.5870  -13.3940   22.5620 H   0  0  0  0  0  0  0  0  0  0  0  0
  -25.6340  -15.4410   20.1720 N   0  0  0  0  0  0  0  0  0  0  0  0
  -24.9110  -16.1050   20.4290 H   0  0  0  0  0  0  0  0  0  0  0  0
  -26.4190  -15.8770   19.7060 H   0  0  0  0  0  0  0  0  0  0  0  0
  -28.7440  -23.7960   19.9390 C   0  0  0  0  0  0  0  0  0  0  0  0
  -28.7060  -22.5020   20.4770 N   0  0  0  0  0  0  0  0  0  0  0  0
  -29.3040  -24.0160   18.8630 O   0  0  0  0  0  0  0  0  0  0  0  0
  -28.2460  -22.4800   21.3790 H   0  0  0  0  0  0  0  0  0  0  0  0
  -28.0590  -25.0470   20.7100 C   0  0  0  0  0  2  0  0  0  0  0  0
  -28.3270  -26.4770   20.2680 O   0  0  0  0  0  0  0  0  0  0  0  0
  -24.7030  -32.0300   23.2900 C   0  0  0  0  0  0  0  0  0  0  0  0
  -27.2430  -27.3930   20.2490 C   0  0  0  0  0  0  0  0  0  0  0  0
  -23.4640  -30.6200   21.6870 C   0  0  0  0  0  3  0  0  0  0  0  0
  -24.8880  -29.0510   20.2400 C   0  0  0  0  0  0  0  0  0  0  0  0
  -26.0030  -30.9270   21.4480 C   0  0  0  0  0  2  0  0  0  0  0  0
  -26.0730  -29.5370   20.8120 C   0  0  0  0  0  0  0  0  0  0  0  0
  -27.2540  -28.7230   20.7970 C   0  0  0  0  0  3  0  0  0  0  0  0
  -26.0390  -26.9800   19.6420 C   0  0  0  0  0  3  0  0  0  0  0  0
  -24.8780  -27.7810   19.6410 C   0  0  0  0  0  3  0  0  0  0  0  0
  -23.6530  -29.9300   20.3070 C   0  0  0  0  0  2  0  0  0  0  0  0
  -24.7430  -31.2110   22.1970 N   0  0  0  0  0  0  0  0  0  0  0  0
  -23.6320  -32.3130   23.8470 O   0  0  0  0  0  0  0  0  0  0  0  0
  -22.8200  -29.6120   22.6700 C   0  0  0  0  0  0  0  0  0  0  0  0
  -21.5000  -29.3890   22.5380 N   0  0  0  0  0  0  0  0  0  0  0  0
  -23.5090  -29.0320   23.5120 O   0  0  0  0  0  0  0  0  0  0  0  0
  -21.0010  -29.9130   21.8330 H   0  0  0  0  0  0  0  0  0  0  0  0
  -18.1740  -28.0440   23.0020 C   0  0  0  0  0  0  0  0  0  0  0  0
  -20.7060  -28.4480   23.3310 C   0  0  0  0  0  3  0  0  0  0  0  0
  -20.8960  -26.9980   22.8300 C   0  0  0  0  0  2  0  0  0  0  0  0
  -19.8440  -26.5730   21.8000 C   0  0  0  0  0  2  0  0  0  0  0  0
  -18.4380  -26.6760   22.3950 C   0  0  0  0  0  2  0  0  0  0  0  0
  -19.2400  -28.8820   23.4280 C   0  0  0  0  0  0  0  0  0  0  0  0
  -18.9380  -30.1570   23.9540 C   0  0  0  0  0  3  0  0  0  0  0  0
  -17.6060  -30.5970   24.0580 C   0  0  0  0  0  3  0  0  0  0  0  0
  -16.5550  -29.7560   23.6510 C   0  0  0  0  0  3  0  0  0  0  0  0
  -16.8400  -28.4820   23.1290 C   0  0  0  0  0  3  0  0  0  0  0  0
  -25.9970  -32.6700   23.8790 C   0  0  0  0  0  3  0  0  0  0  0  0
  -26.5510  -31.9020   25.1420 C   0  0  1  0  0  0  0  0  0  0  0  0
  -25.4740  -31.6180   26.2150 C   0  0  0  0  0  1  0  0  0  0  0  0
  -27.1750  -30.5490   24.7320 C   0  0  0  0  0  1  0  0  0  0  0  0
  -27.6820  -32.7260   25.8010 C   0  0  0  0  0  1  0  0  0  0  0  0
  -25.6910  -34.0660   24.2180 N   0  0  0  0  0  0  0  0  0  0  0  0
  -25.9850  -35.1230   23.4490 C   0  0  0  0  0  0  0  0  0  0  0  0
  -26.6110  -35.0210   22.3890 O   0  0  0  0  0  0  0  0  0  0  0  0
  -25.1310  -34.2190   25.0440 H   0  0  0  0  0  0  0  0  0  0  0  0
  -24.2250  -36.8990   23.1740 C   0  0  0  0  0  1  0  0  0  0  0  0
  -25.5080  -36.5080   23.9260 C   0  0  0  0  0  3  0  0  0  0  0  0
  -27.6710  -37.4150   24.6490 C   0  0  0  0  0  1  0  0  0  0  0  0
  -26.5230  -37.5690   23.7590 N   0  0  0  0  0  0  0  0  0  0  0  0
  -26.1180  -38.4870   23.9230 H   0  0  0  0  0  0  0  0  0  0  0  0
  2 10  1  0
  2  1  1  0
  3 50  1  0
  3  1  2  0
  4  2  2  0
  5  4  1  0
  5  3  1  0
  6  7  1  0
  8  6  1  0
  9  7  1  0
 10  8  1  0
 10  9  1  0
 11 19  1  0
 12 17  1  0
 13 14  1  0
 13 12  1  0
 15 14  1  0
 15 24  1  0
 15 16  1  0
 17 11  1  0
 17 16  1  0
 18 11  2  0
 19 20  1  0
 10 19  1  6
 21 22  2  0
 22 41  1  0
 23 22  1  0
 23 26  1  0
 24 25  1  0
 24 21  1  0
 25 23  2  0
 26 27  1  0
 27 28  2  0
 29 32  1  0
 29 28  1  0
 30 29  2  0
 31 30  1  0
 31 26  2  0
 32 33  1  0
 33 34  1  0
 34 35  2  0
 36 35  1  0
 36 40  1  0
 37 36  2  0
 38 33  2  0
 38 37  1  0
 39 38  1  0
 41 42  1  0
 42 44  1  0
 42 45  1  0
 43 41  2  0
 46 21  1  0
 46 47  1  0
 48 46  1  0
 49 50  1  0
 49 53  1  0
 50 52  1  0
 51 49  2  0
 54 53  1  0
 55 66  2  0
 56 54  1  0
 56 61  1  0
 57 65  1  0
 57 67  1  0
 58 64  1  0
 58 60  1  0
 59 65  1  0
 60 59  1  0
 61 60  2  0
 62 56  2  0
 63 62  1  0
 63 58  2  0
 64 57  1  0
 65 55  1  0
 67 69  2  0
 68 67  1  0
 70 68  1  0
 71 80  2  0
 71 76  1  0
 72 68  1  0
 72 76  1  0
 73 72  1  0
 74 75  1  0
 74 73  1  0
 75 71  1  0
 76 77  2  0
 77 78  1  0
 79 78  2  0
 80 79  1  0
 81 55  1  0
 81 86  1  0
 81 82  1  0
 82 85  1  1
 82 83  1  0
 84 82  1  0
 86 89  1  0
 87 91  1  0
 87 86  1  0
 88 87  2  0
 91 90  1  0
 93 94  1  0
 93 91  1  0
 93 92  1  0
M  ISO  4  11 100  19 100  53 101  54 101
M  END
>  <TORSDO>  (93) 
F 19

>  <SCORE>  (93) 
-11.072

>  <name>  (93) 
92

>  <ligand_id>  (93) 
92

>  <original_smiles>  (93) 
[H]c1c(C2(N([H])C(=O)N3C([H])([H])C([H])([H])C([H])([H])C([H])(n4nc(-c5c([H])c([H])c(Oc6c([H])c([H])c(F)c([H])c6F)c([H])c5[H])c(C(=O)N([H])[H])c4N([H])[H])C3([H])[H])C([H])([H])C([H])([H])C([H])([H])C2([H])[H])nsc1N([H])C(=O)C([H])([H])Oc1c([H])c([H])c2c(c1[H])C([H])([H])N(C(=O)C([H])(N([H])C(=O)C([H])(N([H])C([H])([H])[H])C([H])([H])[H])C(C([H])([H])[H])(C([H])([H])[H])C([H])([H])[H])C([H])(C(=O)N([H])C1([H])c3c([H])c([H])c([H])c([H])c3C([H])([H])C([H])([H])C1([H])[H])C2([H])[H]

>  <smiles>  (93) 
[H]c1c(C2(N([H])C(=O)N3C([H])([H])C([H])([H])C([H])([H])C([H])(n4nc(-c5c([H])c([H])c(Oc6c([H])c([H])c(F)c([H])c6F)c([H])c5[H])c(C(=O)N([H])[H])c4N([H])[H])C3([H])[H])C([H])([H])C([H])([H])C([H])([H])C2([H])[H])nsc1N([H])C(=O)C([H])([H])Oc1c([H])c([H])c2c(c1[H])C([H])([H])N(C(=O)C([H])(N([H])C(=O)C([H])(N([H])C([H])([H])[H])C([H])([H])[H])C(C([H])([H])[H])(C([H])([H])[H])C([H])([H])[H])C([H])(C(=O)N([H])C1([H])c3c([H])c([H])c([H])c([H])c3C([H])([H])C([H])([H])C1([H])[H])C2([H])[H]

$$$$
93:0:0
     RDKit          3D

101110  0  0  1  0  0  0  0  0999 V2000
  -28.8270  -20.7930   19.5580 C   0  0  0  0  0  3  0  0  0  0  0  0
  -28.3310  -24.4890   18.7530 C   0  0  0  0  0  2  0  0  0  0  0  0
  -28.0140  -24.2960   21.2640 C   0  0  0  0  0  2  0  0  0  0  0  0
  -27.7570  -23.0230   18.8720 C   0  0  0  0  0  2  0  0  0  0  0  0
  -28.5420  -22.7880   21.2090 C   0  0  0  0  0  2  0  0  0  0  0  0
  -28.6480  -25.1600   20.1290 C   0  0  1  0  0  0  0  0  0  0  0  0
  -28.4450  -22.1130   19.8660 N   0  0  0  0  0  0  0  0  0  0  0  0
  -28.4620  -20.3660   18.3460 N   0  0  0  0  0  0  0  0  0  0  0  0
  -28.8250  -19.4900   18.0020 H   0  0  0  0  0  0  0  0  0  0  0  0
  -27.8810  -20.9150   17.7380 H   0  0  0  0  0  0  0  0  0  0  0  0
  -29.2740  -18.3310   20.2490 C   0  0  0  0  0  3  0  0  0  0  0  0
  -31.2880  -17.6250   21.4010 C   0  0  0  0  0  3  0  0  0  0  0  0
  -29.6300  -19.7400   20.3320 C   0  0  0  0  0  0  0  0  0  0  0  0
  -30.1060  -17.2470   20.7320 C   0  0  0  0  0  0  0  0  0  0  0  0
  -30.8680  -20.0230   20.9870 C   0  0  0  0  0  0  0  0  0  0  0  0
  -31.6490  -18.9780   21.5330 C   0  0  0  0  0  0  0  0  0  0  0  0
  -32.8130  -19.2860   22.1620 F   0  0  0  0  0  0  0  0  0  0  0  0
  -30.5740  -14.7120   20.4150 C   0  0  0  0  0  0  0  0  0  0  0  0
  -30.3880  -12.4580   19.3700 C   0  0  0  0  0  2  0  0  0  0  0  0
  -29.4440  -12.5480   18.1490 C   0  0  0  0  0  2  0  0  0  0  0  0
  -27.9740  -12.3760   18.5790 C   0  0  0  0  0  2  0  0  0  0  0  0
  -27.6010  -13.2510   19.8050 C   0  0  0  0  0  3  0  0  0  0  0  0
  -28.6580  -13.1410   20.9250 C   0  0  0  0  0  2  0  0  0  0  0  0
  -29.9550  -13.4910   20.3330 N   0  0  0  0  0  0  0  0  0  0  0  0
  -31.7620  -14.8330   20.0980 O   0  0  0  0  0  0  0  0  0  0  0  0
  -29.7640  -15.8160   20.6070 N   0  0  0  0  0  0  0  0  0  0  0  0
  -28.7810  -15.6000   20.6540 H   0  0  0  0  0  0  0  0  0  0  0  0
  -25.2120  -13.8470   20.5250 C   0  0  0  0  0  0  0  0  0  0  0  0
  -24.1470  -13.0740   20.9000 C   0  0  0  0  0  0  0  0  0  0  0  0
  -24.6130  -11.7230   20.8720 C   0  0  0  0  0  0  0  0  0  0  0  0
  -26.2570  -12.9660   20.2920 N   0  0  0  0  0  0  0  0  0  0  0  0
  -25.9030  -11.6850   20.5630 N   0  0  0  0  0  0  0  0  0  0  0  0
  -23.8870  -10.4600   21.0610 C   0  0  0  0  0  0  0  0  0  0  0  0
  -24.3280   -9.4880   21.9870 C   0  0  0  0  0  3  0  0  0  0  0  0
  -23.6050   -8.2890   22.1630 C   0  0  0  0  0  3  0  0  0  0  0  0
  -22.4270   -8.0540   21.4180 C   0  0  0  0  0  0  0  0  0  0  0  0
  -22.0050   -9.0140   20.4800 C   0  0  0  0  0  3  0  0  0  0  0  0
  -22.7290  -10.2040   20.3010 C   0  0  0  0  0  3  0  0  0  0  0  0
  -21.6710   -6.9100   21.5080 O   0  0  0  0  0  0  0  0  0  0  0  0
  -21.6370   -6.1580   22.6550 C   0  0  0  0  0  0  0  0  0  0  0  0
  -21.2300   -6.7040   23.8930 C   0  0  0  0  0  3  0  0  0  0  0  0
  -21.1440   -5.8770   25.0320 C   0  0  0  0  0  3  0  0  0  0  0  0
  -21.4560   -4.5080   24.9340 C   0  0  0  0  0  0  0  0  0  0  0  0
  -21.8550   -3.9630   23.7010 C   0  0  0  0  0  3  0  0  0  0  0  0
  -21.9430   -4.7850   22.5660 C   0  0  0  0  0  0  0  0  0  0  0  0
  -22.3090   -4.2500   21.3760 F   0  0  0  0  0  0  0  0  0  0  0  0
  -21.3660   -3.7140   26.0250 F   0  0  0  0  0  0  0  0  0  0  0  0
  -22.7500  -13.5480   21.1690 C   0  0  0  0  0  0  0  0  0  0  0  0
  -22.0200  -12.8510   22.0310 N   0  0  0  0  0  0  0  0  0  0  0  0
  -22.3140  -14.5750   20.6480 O   0  0  0  0  0  0  0  0  0  0  0  0
  -22.3830  -12.0210   22.4750 H   0  0  0  0  0  0  0  0  0  0  0  0
  -21.0800  -13.1510   22.2520 H   0  0  0  0  0  0  0  0  0  0  0  0
  -25.3720  -15.2170   20.3370 N   0  0  0  0  0  0  0  0  0  0  0  0
  -24.5950  -15.8600   20.4390 H   0  0  0  0  0  0  0  0  0  0  0  0
  -26.1870  -15.6530   19.9290 H   0  0  0  0  0  0  0  0  0  0  0  0
  -31.4400  -21.2980   21.0810 N   0  0  0  0  0  0  0  0  0  0  0  0
  -31.2350  -21.9890   20.3680 H   0  0  0  0  0  0  0  0  0  0  0  0
  -32.4070  -21.3240   21.3910 H   0  0  0  0  0  0  0  0  0  0  0  0
  -30.0460  -25.0440   20.2910 O   0  0  0  0  0  0  0  0  0  0  0  0
  -30.2730  -25.4720   21.1080 H   0  0  0  0  0  0  0  0  0  0  0  0
  -28.4060  -26.6050   20.2010 O   0  0  0  0  0  0  0  0  0  0  0  0
  -24.5890  -31.9000   23.2360 C   0  0  0  0  0  0  0  0  0  0  0  0
  -27.1900  -27.3090   20.2070 C   0  0  0  0  0  0  0  0  0  0  0  0
  -23.3750  -30.4930   21.6070 C   0  0  0  0  0  3  0  0  0  0  0  0
  -24.8120  -28.9120   20.1960 C   0  0  0  0  0  0  0  0  0  0  0  0
  -25.9100  -30.8060   21.4070 C   0  0  0  0  0  2  0  0  0  0  0  0
  -25.9810  -29.4200   20.7730 C   0  0  0  0  0  0  0  0  0  0  0  0
  -27.1670  -28.6320   20.7540 C   0  0  0  0  0  3  0  0  0  0  0  0
  -25.9850  -26.8310   19.6470 C   0  0  0  0  0  3  0  0  0  0  0  0
  -24.8160  -27.6250   19.6280 C   0  0  0  0  0  3  0  0  0  0  0  0
  -23.5800  -29.7960   20.2340 C   0  0  0  0  0  2  0  0  0  0  0  0
  -24.6440  -31.0850   22.1390 N   0  0  0  0  0  0  0  0  0  0  0  0
  -23.5090  -32.1820   23.7740 O   0  0  0  0  0  0  0  0  0  0  0  0
  -22.7120  -29.4880   22.5800 C   0  0  0  0  0  0  0  0  0  0  0  0
  -21.3860  -29.3140   22.4560 N   0  0  0  0  0  0  0  0  0  0  0  0
  -23.3920  -28.8670   23.4000 O   0  0  0  0  0  0  0  0  0  0  0  0
  -20.8980  -29.8650   21.7630 H   0  0  0  0  0  0  0  0  0  0  0  0
  -18.0080  -28.1330   22.9710 C   0  0  0  0  0  0  0  0  0  0  0  0
  -20.5670  -28.3840   23.2350 C   0  0  0  0  0  3  0  0  0  0  0  0
  -20.6630  -26.9500   22.6660 C   0  0  0  0  0  2  0  0  0  0  0  0
  -19.5570  -26.6250   21.6560 C   0  0  0  0  0  2  0  0  0  0  0  0
  -18.1780  -26.7790   22.3030 C   0  0  0  0  0  2  0  0  0  0  0  0
  -19.1300  -28.8930   23.3950 C   0  0  0  0  0  0  0  0  0  0  0  0
  -18.9170  -30.1590   23.9810 C   0  0  0  0  0  3  0  0  0  0  0  0
  -17.6150  -30.6660   24.1470 C   0  0  0  0  0  3  0  0  0  0  0  0
  -16.5060  -29.9030   23.7420 C   0  0  0  0  0  3  0  0  0  0  0  0
  -16.7040  -28.6400   23.1590 C   0  0  0  0  0  3  0  0  0  0  0  0
  -25.8750  -32.5320   23.8510 C   0  0  0  0  0  3  0  0  0  0  0  0
  -26.3990  -31.7610   25.1260 C   0  0  1  0  0  0  0  0  0  0  0  0
  -25.3130  -31.5240   26.2000 C   0  0  0  0  0  1  0  0  0  0  0  0
  -26.9790  -30.3830   24.7310 C   0  0  0  0  0  1  0  0  0  0  0  0
  -27.5540  -32.5560   25.7800 C   0  0  0  0  0  1  0  0  0  0  0  0
  -25.5680  -33.9300   24.1850 N   0  0  0  0  0  0  0  0  0  0  0  0
  -25.8980  -34.9850   23.4280 C   0  0  0  0  0  0  0  0  0  0  0  0
  -26.5640  -34.8850   22.3950 O   0  0  0  0  0  0  0  0  0  0  0  0
  -24.9740  -34.0820   24.9870 H   0  0  0  0  0  0  0  0  0  0  0  0
  -24.1720  -36.7850   23.0840 C   0  0  0  0  0  1  0  0  0  0  0  0
  -25.4140  -36.3730   23.8920 C   0  0  0  0  0  3  0  0  0  0  0  0
  -27.5500  -37.2540   24.7240 C   0  0  0  0  0  1  0  0  0  0  0  0
  -26.4460  -37.4250   23.7830 N   0  0  0  0  0  0  0  0  0  0  0  0
  -26.0420  -38.3450   23.9350 H   0  0  0  0  0  0  0  0  0  0  0  0
  1  8  1  0
  1  7  1  0
  1 13  1  0
  2  4  1  0
  2  6  1  0
  4  7  1  0
  5  3  1  0
  6 61  1  6
  6 59  1  0
  6  3  1  0
  7  5  1  0
  9  8  1  0
 10  8  1  0
 11 13  2  0
 11 14  1  0
 12 16  1  0
 13 15  1  0
 14 12  2  0
 15 56  1  0
 15 16  2  0
 16 17  1  0
 18 26  1  0
 19 24  1  0
 20 21  1  0
 20 19  1  0
 22 21  1  0
 22 31  1  0
 22 23  1  0
 24 18  1  0
 24 23  1  0
 25 18  2  0
 26 27  1  0
 26 14  1  0
 28 29  2  0
 29 48  1  0
 30 29  1  0
 30 33  1  0
 31 28  1  0
 31 32  1  0
 32 30  2  0
 33 34  1  0
 34 35  2  0
 36 39  1  0
 36 35  1  0
 37 36  2  0
 38 37  1  0
 38 33  2  0
 39 40  1  0
 40 41  1  0
 41 42  2  0
 43 42  1  0
 43 47  1  0
 44 43  2  0
 45 40  2  0
 45 44  1  0
 46 45  1  0
 48 49  1  0
 49 52  1  0
 49 51  1  0
 50 48  2  0
 53 54  1  0
 53 28  1  0
 55 53  1  0
 56 58  1  0
 57 56  1  0
 59 60  1  0
 61 63  1  0
 62 73  2  0
 63 68  1  0
 64 72  1  0
 64 74  1  0
 65 71  1  0
 65 67  1  0
 66 72  1  0
 67 66  1  0
 68 67  2  0
 69 63  2  0
 70 69  1  0
 70 65  2  0
 71 64  1  0
 72 62  1  0
 74 76  2  0
 75 74  1  0
 77 75  1  0
 78 87  2  0
 78 83  1  0
 79 75  1  0
 79 83  1  0
 80 79  1  0
 81 82  1  0
 81 80  1  0
 82 78  1  0
 83 84  2  0
 84 85  1  0
 86 85  2  0
 87 86  1  0
 88 62  1  0
 88 93  1  0
 88 89  1  0
 89 92  1  1
 89 90  1  0
 91 89  1  0
 93 96  1  0
 94 98  1  0
 94 93  1  0
 95 94  2  0
 98 97  1  0
100 98  1  0
100101  1  0
100 99  1  0
M  ISO  4   6 101  18 100  26 100  61 101
M  END
>  <TORSDO>  (94) 
F 19

>  <SCORE>  (94) 
-15.275

>  <name>  (94) 
93

>  <ligand_id>  (94) 
93

>  <original_smiles>  (94) 
[H]OC1(Oc2c([H])c([H])c3c(c2[H])C([H])([H])N(C(=O)C([H])(N([H])C(=O)C([H])(N([H])C([H])([H])[H])C([H])([H])[H])C(C([H])([H])[H])(C([H])([H])[H])C([H])([H])[H])C([H])(C(=O)N([H])C2([H])c4c([H])c([H])c([H])c([H])c4C([H])([H])C([H])([H])C2([H])[H])C3([H])[H])C([H])([H])C([H])([H])N(C(c2c([H])c(N([H])C(=O)N3C([H])([H])C([H])([H])C([H])([H])C([H])(n4nc(-c5c([H])c([H])c(Oc6c([H])c([H])c(F)c([H])c6F)c([H])c5[H])c(C(=O)N([H])[H])c4N([H])[H])C3([H])[H])c([H])c(F)c2N([H])[H])=[N+]([H])[H])C([H])([H])C1([H])[H]

>  <smiles>  (94) 
[H]OC1(Oc2c([H])c([H])c3c(c2[H])C([H])([H])N(C(=O)C([H])(N([H])C(=O)C([H])(N([H])C([H])([H])[H])C([H])([H])[H])C(C([H])([H])[H])(C([H])([H])[H])C([H])([H])[H])C([H])(C(=O)N([H])C2([H])c4c([H])c([H])c([H])c([H])c4C([H])([H])C([H])([H])C2([H])[H])C3([H])[H])C([H])([H])C([H])([H])N(C(c2c([H])c(N([H])C(=O)N3C([H])([H])C([H])([H])C([H])([H])C([H])(n4nc(-c5c([H])c([H])c(Oc6c([H])c([H])c(F)c([H])c6F)c([H])c5[H])c(C(=O)N([H])[H])c4N([H])[H])C3([H])[H])c([H])c(F)c2N([H])[H])=[N+]([H])[H])C([H])([H])C1([H])[H]

$$$$
94:0:0
     RDKit          3D

 95104  0  0  1  0  0  0  0  0999 V2000
  -28.5930  -23.8190   19.5400 C   0  0  0  0  0  0  0  0  0  0  0  0
  -28.7270  -21.3050   19.5930 C   0  0  0  0  0  0  0  0  0  0  0  0
  -28.0360  -24.3410   21.7840 C   0  0  0  0  0  2  0  0  0  0  0  0
  -28.5290  -22.8560   21.6220 C   0  0  0  0  0  2  0  0  0  0  0  0
  -28.5940  -25.0320   20.5450 C   0  0  0  0  0  3  0  0  0  0  0  0
  -28.6880  -22.5840   20.1790 N   0  0  0  0  0  0  0  0  0  0  0  0
  -28.5580  -24.0160   18.3190 O   0  0  0  0  0  0  0  0  0  0  0  0
  -28.2910  -21.1630   18.4430 O   0  0  0  0  0  0  0  0  0  0  0  0
  -30.6920  -18.1800   21.0670 C   0  0  0  0  0  3  0  0  0  0  0  0
  -30.4360  -19.6190   20.9480 C   0  0  0  0  0  0  0  0  0  0  0  0
  -29.3110  -19.9820   20.2180 C   0  0  0  0  0  0  0  0  0  0  0  0
  -29.7880  -17.3250   20.4590 C   0  0  0  0  0  0  0  0  0  0  0  0
  -28.5790  -18.4180   19.7030 S   0  0  0  0  0  0  0  0  0  0  0  0
  -30.5530  -14.8350   20.3460 C   0  0  0  0  0  0  0  0  0  0  0  0
  -30.4260  -12.5310   19.3540 C   0  0  0  0  0  2  0  0  0  0  0  0
  -29.4680  -12.5660   18.1420 C   0  0  0  0  0  2  0  0  0  0  0  0
  -28.0020  -12.3800   18.5880 C   0  0  0  0  0  2  0  0  0  0  0  0
  -27.6300  -13.2760   19.7970 C   0  0  0  0  0  3  0  0  0  0  0  0
  -28.6990  -13.1980   20.9080 C   0  0  0  0  0  2  0  0  0  0  0  0
  -29.9810  -13.5800   20.3000 N   0  0  0  0  0  0  0  0  0  0  0  0
  -31.7460  -14.9760   20.0560 O   0  0  0  0  0  0  0  0  0  0  0  0
  -29.6750  -15.9130   20.4710 N   0  0  0  0  0  0  0  0  0  0  0  0
  -28.7210  -15.5910   20.5120 H   0  0  0  0  0  0  0  0  0  0  0  0
  -25.2540  -13.8710   20.5600 C   0  0  0  0  0  0  0  0  0  0  0  0
  -24.1910  -13.0980   20.9370 C   0  0  0  0  0  0  0  0  0  0  0  0
  -24.6500  -11.7450   20.8900 C   0  0  0  0  0  0  0  0  0  0  0  0
  -26.2910  -12.9890   20.3020 N   0  0  0  0  0  0  0  0  0  0  0  0
  -25.9360  -11.7060   20.5650 N   0  0  0  0  0  0  0  0  0  0  0  0
  -23.9210  -10.4850   21.0760 C   0  0  0  0  0  0  0  0  0  0  0  0
  -24.3640   -9.5040   21.9920 C   0  0  0  0  0  3  0  0  0  0  0  0
  -23.6360   -8.3080   22.1680 C   0  0  0  0  0  3  0  0  0  0  0  0
  -22.4510   -8.0840   21.4270 C   0  0  0  0  0  0  0  0  0  0  0  0
  -22.0270   -9.0520   20.5010 C   0  0  0  0  0  3  0  0  0  0  0  0
  -22.7560  -10.2400   20.3240 C   0  0  0  0  0  3  0  0  0  0  0  0
  -21.6930   -6.9400   21.5140 O   0  0  0  0  0  0  0  0  0  0  0  0
  -21.6600   -6.1830   22.6570 C   0  0  0  0  0  0  0  0  0  0  0  0
  -21.2460   -6.7210   23.8950 C   0  0  0  0  0  3  0  0  0  0  0  0
  -21.1610   -5.8900   25.0300 C   0  0  0  0  0  3  0  0  0  0  0  0
  -21.4800   -4.5220   24.9290 C   0  0  0  0  0  0  0  0  0  0  0  0
  -21.8860   -3.9840   23.6950 C   0  0  0  0  0  3  0  0  0  0  0  0
  -21.9730   -4.8120   22.5620 C   0  0  0  0  0  0  0  0  0  0  0  0
  -22.3460   -4.2840   21.3710 F   0  0  0  0  0  0  0  0  0  0  0  0
  -21.3900   -3.7230   26.0170 F   0  0  0  0  0  0  0  0  0  0  0  0
  -22.7990  -13.5770   21.2270 C   0  0  0  0  0  0  0  0  0  0  0  0
  -22.0760  -12.8750   22.0930 N   0  0  0  0  0  0  0  0  0  0  0  0
  -22.3590  -14.6090   20.7220 O   0  0  0  0  0  0  0  0  0  0  0  0
  -22.4440  -12.0380   22.5230 H   0  0  0  0  0  0  0  0  0  0  0  0
  -21.1420  -13.1770   22.3300 H   0  0  0  0  0  0  0  0  0  0  0  0
  -25.4180  -15.2430   20.3890 N   0  0  0  0  0  0  0  0  0  0  0  0
  -24.6440  -15.8880   20.5060 H   0  0  0  0  0  0  0  0  0  0  0  0
  -26.2380  -15.6850   19.9980 H   0  0  0  0  0  0  0  0  0  0  0  0
  -31.3610  -20.5050   21.5270 N   0  0  0  0  0  0  0  0  0  0  0  0
  -32.0310  -20.1450   22.2020 H   0  0  0  0  0  0  0  0  0  0  0  0
  -31.1080  -21.4720   21.6970 H   0  0  0  0  0  0  0  0  0  0  0  0
  -28.3910  -26.4830   20.1320 O   0  0  0  0  0  0  0  0  0  0  0  0
  -24.6120  -31.8820   23.2400 C   0  0  0  0  0  0  0  0  0  0  0  0
  -27.2210  -27.2700   20.2050 C   0  0  0  0  0  0  0  0  0  0  0  0
  -23.4050  -30.4770   21.6050 C   0  0  0  0  0  3  0  0  0  0  0  0
  -24.8520  -28.9020   20.1880 C   0  0  0  0  0  0  0  0  0  0  0  0
  -25.9450  -30.7880   21.4120 C   0  0  0  0  0  2  0  0  0  0  0  0
  -26.0230  -29.3970   20.7750 C   0  0  0  0  0  0  0  0  0  0  0  0
  -27.2090  -28.5960   20.7600 C   0  0  0  0  0  3  0  0  0  0  0  0
  -26.0240  -26.8270   19.6090 C   0  0  0  0  0  3  0  0  0  0  0  0
  -24.8570  -27.6260   19.5950 C   0  0  0  0  0  3  0  0  0  0  0  0
  -23.6180  -29.7870   20.2290 C   0  0  0  0  0  2  0  0  0  0  0  0
  -24.6740  -31.0690   22.1420 N   0  0  0  0  0  0  0  0  0  0  0  0
  -23.5300  -32.1580   23.7780 O   0  0  0  0  0  0  0  0  0  0  0  0
  -22.7440  -29.4670   22.5750 C   0  0  0  0  0  0  0  0  0  0  0  0
  -21.4190  -29.2850   22.4490 N   0  0  0  0  0  0  0  0  0  0  0  0
  -23.4250  -28.8490   23.3960 O   0  0  0  0  0  0  0  0  0  0  0  0
  -20.9270  -29.8360   21.7590 H   0  0  0  0  0  0  0  0  0  0  0  0
  -18.0470  -28.0710   22.9560 C   0  0  0  0  0  0  0  0  0  0  0  0
  -20.6040  -28.3460   23.2230 C   0  0  0  0  0  3  0  0  0  0  0  0
  -20.7140  -26.9130   22.6500 C   0  0  0  0  0  2  0  0  0  0  0  0
  -19.6120  -26.5830   21.6370 C   0  0  0  0  0  2  0  0  0  0  0  0
  -18.2300  -26.7210   22.2830 C   0  0  0  0  0  2  0  0  0  0  0  0
  -19.1620  -28.8400   23.3820 C   0  0  0  0  0  0  0  0  0  0  0  0
  -18.9370  -30.1030   23.9730 C   0  0  0  0  0  3  0  0  0  0  0  0
  -17.6280  -30.5970   24.1390 C   0  0  0  0  0  3  0  0  0  0  0  0
  -16.5280  -29.8250   23.7280 C   0  0  0  0  0  3  0  0  0  0  0  0
  -16.7390  -28.5640   23.1410 C   0  0  0  0  0  3  0  0  0  0  0  0
  -25.8940  -32.5180   23.8590 C   0  0  0  0  0  3  0  0  0  0  0  0
  -25.5830  -33.9160   24.1910 N   0  0  0  0  0  0  0  0  0  0  0  0
  -25.9070  -34.9720   23.4310 C   0  0  0  0  0  0  0  0  0  0  0  0
  -26.5670  -34.8700   22.3930 O   0  0  0  0  0  0  0  0  0  0  0  0
  -24.9960  -34.0690   24.9980 H   0  0  0  0  0  0  0  0  0  0  0  0
  -24.1720  -36.7620   23.0970 C   0  0  0  0  0  1  0  0  0  0  0  0
  -25.4220  -36.3590   23.8940 C   0  0  0  0  0  3  0  0  0  0  0  0
  -27.5630  -37.2500   24.7030 C   0  0  0  0  0  1  0  0  0  0  0  0
  -26.4510  -37.4160   23.7720 N   0  0  0  0  0  0  0  0  0  0  0  0
  -26.0420  -38.3330   23.9260 H   0  0  0  0  0  0  0  0  0  0  0  0
  -26.4150  -31.7500   25.1370 C   0  0  1  0  0  0  0  0  0  0  0  0
  -25.3250  -31.5150   26.2080 C   0  0  0  0  0  1  0  0  0  0  0  0
  -26.9980  -30.3730   24.7470 C   0  0  0  0  0  1  0  0  0  0  0  0
  -27.5660  -32.5490   25.7950 C   0  0  0  0  0  1  0  0  0  0  0  0
  1  6  1  0
  1  5  1  0
  2  6  1  0
  2 11  1  0
  4  3  1  0
  5 55  1  0
  5  3  1  0
  6  4  1  0
  7  1  2  0
  8  2  2  0
 10  9  1  0
 10 52  1  0
 11 10  2  0
 12 22  1  0
 12  9  2  0
 13 11  1  0
 13 12  1  0
 14 22  1  0
 15 20  1  0
 16 17  1  0
 16 15  1  0
 18 17  1  0
 18 27  1  0
 18 19  1  0
 20 14  1  0
 20 19  1  0
 21 14  2  0
 22 23  1  0
 24 25  2  0
 25 44  1  0
 26 25  1  0
 26 29  1  0
 27 24  1  0
 27 28  1  0
 28 26  2  0
 29 30  1  0
 30 31  2  0
 32 35  1  0
 32 31  1  0
 33 32  2  0
 34 33  1  0
 34 29  2  0
 35 36  1  0
 36 37  1  0
 37 38  2  0
 39 38  1  0
 39 43  1  0
 40 39  2  0
 41 36  2  0
 41 40  1  0
 42 41  1  0
 44 45  1  0
 45 48  1  0
 45 47  1  0
 46 44  2  0
 49 50  1  0
 49 24  1  0
 51 49  1  0
 52 54  1  0
 52 53  1  0
 55 57  1  0
 56 67  2  0
 57 62  1  0
 58 66  1  0
 58 68  1  0
 59 65  1  0
 59 61  1  0
 60 66  1  0
 61 60  1  0
 62 61  2  0
 63 57  2  0
 64 63  1  0
 64 59  2  0
 65 58  1  0
 66 56  1  0
 68 70  2  0
 69 68  1  0
 71 69  1  0
 72 81  2  0
 72 77  1  0
 73 69  1  0
 73 77  1  0
 74 73  1  0
 75 76  1  0
 75 74  1  0
 76 72  1  0
 77 78  2  0
 78 79  1  0
 80 79  2  0
 81 80  1  0
 82 56  1  0
 82 83  1  0
 82 92  1  0
 83 86  1  0
 84 88  1  0
 84 83  1  0
 85 84  2  0
 88 87  1  0
 90 88  1  0
 90 91  1  0
 90 89  1  0
 92 95  1  1
 92 93  1  0
 94 92  1  0
M  ISO  4   5 101  14 100  22 100  55 101
M  END
>  <TORSDO>  (95) 
F 18

>  <SCORE>  (95) 
-15.209

>  <name>  (95) 
94

>  <ligand_id>  (95) 
94

>  <original_smiles>  (95) 
[H]c1c([H])c([H])c2c(c1[H])C([H])([H])C([H])([H])C([H])([H])C2([H])N([H])C(=O)C1([H])N(C(=O)C([H])(N([H])C(=O)C([H])(N([H])C([H])([H])[H])C([H])([H])[H])C(C([H])([H])[H])(C([H])([H])[H])C([H])([H])[H])C([H])([H])c2c([H])c(OC3([H])C(=O)N(C(=O)c4sc(N([H])C(=O)N5C([H])([H])C([H])([H])C([H])([H])C([H])(n6nc(-c7c([H])c([H])c(Oc8c([H])c([H])c(F)c([H])c8F)c([H])c7[H])c(C(=O)N([H])[H])c6N([H])[H])C5([H])[H])c([H])c4N([H])[H])C([H])([H])C3([H])[H])c([H])c([H])c2C1([H])[H]

>  <smiles>  (95) 
[H]c1c([H])c([H])c2c(c1[H])C([H])([H])C([H])([H])C([H])([H])C2([H])N([H])C(=O)C1([H])N(C(=O)C([H])(N([H])C(=O)C([H])(N([H])C([H])([H])[H])C([H])([H])[H])C(C([H])([H])[H])(C([H])([H])[H])C([H])([H])[H])C([H])([H])c2c([H])c(OC3([H])C(=O)N(C(=O)c4sc(N([H])C(=O)N5C([H])([H])C([H])([H])C([H])([H])C([H])(n6nc(-c7c([H])c([H])c(Oc8c([H])c([H])c(F)c([H])c8F)c([H])c7[H])c(C(=O)N([H])[H])c6N([H])[H])C5([H])[H])c([H])c4N([H])[H])C([H])([H])C3([H])[H])c([H])c([H])c2C1([H])[H]

$$$$
95:0:0
     RDKit          3D

 94103  0  0  1  0  0  0  0  0999 V2000
  -29.4450  -21.2240   20.3150 C   0  0  0  0  0  3  0  0  0  0  0  0
  -29.3050  -19.7920   20.3250 C   0  0  0  0  0  0  0  0  0  0  0  0
  -28.4020  -21.8740   19.6920 C   0  0  0  0  0  0  0  0  0  0  0  0
  -28.2030  -19.3430   19.7610 N   0  0  0  0  0  0  0  0  0  0  0  0
  -27.2940  -20.6380   19.1860 S   0  0  0  0  0  0  0  0  0  0  0  0
  -29.8480  -18.1690   22.2410 C   0  0  0  0  0  2  0  0  0  0  0  0
  -30.8560  -17.0360   22.4640 C   0  0  0  0  0  2  0  0  0  0  0  0
  -30.7650  -17.6380   20.0790 C   0  0  0  0  0  2  0  0  0  0  0  0
  -30.3080  -18.8340   20.9430 C   0  0  0  0  0  3  0  0  0  0  0  0
  -31.3350  -16.5840   21.0680 C   0  0  0  0  0  3  0  0  0  0  0  0
  -31.3520  -14.2930   19.9920 C   0  0  0  0  0  0  0  0  0  0  0  0
  -30.8850  -12.0980   18.9480 C   0  0  0  0  0  2  0  0  0  0  0  0
  -29.9120  -12.2850   17.7660 C   0  0  0  0  0  2  0  0  0  0  0  0
  -28.4520  -12.2430   18.2620 C   0  0  0  0  0  2  0  0  0  0  0  0
  -28.2030  -13.2000   19.4580 C   0  0  0  0  0  3  0  0  0  0  0  0
  -29.2770  -12.9730   20.5460 C   0  0  0  0  0  2  0  0  0  0  0  0
  -30.6060  -13.1580   19.9290 N   0  0  0  0  0  0  0  0  0  0  0  0
  -32.3860  -14.4760   19.3410 O   0  0  0  0  0  0  0  0  0  0  0  0
  -30.8480  -15.2270   20.8120 N   0  0  0  0  0  0  0  0  0  0  0  0
  -30.0280  -14.9370   21.3200 H   0  0  0  0  0  0  0  0  0  0  0  0
  -25.8970  -14.0060   20.2830 C   0  0  0  0  0  0  0  0  0  0  0  0
  -24.7790  -13.3280   20.6800 C   0  0  0  0  0  0  0  0  0  0  0  0
  -25.1070  -11.9380   20.5930 C   0  0  0  0  0  0  0  0  0  0  0  0
  -26.8480  -13.0400   19.9870 N   0  0  0  0  0  0  0  0  0  0  0  0
  -26.3740  -11.7900   20.2230 N   0  0  0  0  0  0  0  0  0  0  0  0
  -24.2720  -10.7470   20.7880 C   0  0  0  0  0  0  0  0  0  0  0  0
  -24.6240   -9.7370   21.7100 C   0  0  0  0  0  3  0  0  0  0  0  0
  -23.7950   -8.6100   21.8900 C   0  0  0  0  0  3  0  0  0  0  0  0
  -22.5960   -8.4830   21.1490 C   0  0  0  0  0  0  0  0  0  0  0  0
  -22.2630   -9.4790   20.2140 C   0  0  0  0  0  3  0  0  0  0  0  0
  -23.0930  -10.5970   20.0320 C   0  0  0  0  0  3  0  0  0  0  0  0
  -21.7410   -7.4100   21.2410 O   0  0  0  0  0  0  0  0  0  0  0  0
  -21.5960   -6.7040   22.4080 C   0  0  0  0  0  0  0  0  0  0  0  0
  -21.1820   -7.3250   23.6060 C   0  0  0  0  0  3  0  0  0  0  0  0
  -20.9790   -6.5520   24.7680 C   0  0  0  0  0  3  0  0  0  0  0  0
  -21.1790   -5.1600   24.7310 C   0  0  0  0  0  0  0  0  0  0  0  0
  -21.5870   -4.5370   23.5370 C   0  0  0  0  0  3  0  0  0  0  0  0
  -21.7940   -5.3080   22.3800 C   0  0  0  0  0  0  0  0  0  0  0  0
  -22.1660   -4.7020   21.2270 F   0  0  0  0  0  0  0  0  0  0  0  0
  -20.9780   -4.4150   25.8430 F   0  0  0  0  0  0  0  0  0  0  0  0
  -23.4450  -13.9210   21.0360 C   0  0  0  0  0  0  0  0  0  0  0  0
  -22.7040  -13.2820   21.9330 N   0  0  0  0  0  0  0  0  0  0  0  0
  -23.0770  -14.9910   20.5520 O   0  0  0  0  0  0  0  0  0  0  0  0
  -23.0170  -12.4170   22.3500 H   0  0  0  0  0  0  0  0  0  0  0  0
  -21.8080  -13.6630   22.2070 H   0  0  0  0  0  0  0  0  0  0  0  0
  -26.1800  -15.3610   20.1350 N   0  0  0  0  0  0  0  0  0  0  0  0
  -25.4860  -16.0770   20.3150 H   0  0  0  0  0  0  0  0  0  0  0  0
  -27.0620  -15.7390   19.8110 H   0  0  0  0  0  0  0  0  0  0  0  0
  -28.8160  -24.2940   19.8300 C   0  0  0  0  0  0  0  0  0  0  0  0
  -28.1600  -23.1900   19.4160 N   0  0  0  0  0  0  0  0  0  0  0  0
  -29.7260  -24.2670   20.6660 O   0  0  0  0  0  0  0  0  0  0  0  0
  -27.3970  -23.3660   18.7770 H   0  0  0  0  0  0  0  0  0  0  0  0
  -28.3960  -25.6430   19.2020 C   0  0  0  0  0  2  0  0  0  0  0  0
  -28.1840  -26.6590   20.2080 O   0  0  0  0  0  0  0  0  0  0  0  0
  -24.5200  -31.9450   23.3310 C   0  0  0  0  0  0  0  0  0  0  0  0
  -27.0050  -27.3870   20.2370 C   0  0  0  0  0  0  0  0  0  0  0  0
  -23.2550  -30.5520   21.7320 C   0  0  0  0  0  3  0  0  0  0  0  0
  -24.6440  -28.9600   20.3050 C   0  0  0  0  0  0  0  0  0  0  0  0
  -25.7900  -30.8330   21.4920 C   0  0  0  0  0  2  0  0  0  0  0  0
  -25.8280  -29.4550   20.8620 C   0  0  0  0  0  0  0  0  0  0  0  0
  -27.0110  -28.6760   20.8220 C   0  0  0  0  0  3  0  0  0  0  0  0
  -25.7830  -26.8950   19.7190 C   0  0  0  0  0  3  0  0  0  0  0  0
  -24.6140  -27.6780   19.7390 C   0  0  0  0  0  3  0  0  0  0  0  0
  -23.4310  -29.8640   20.3550 C   0  0  0  0  0  2  0  0  0  0  0  0
  -24.5420  -31.1240   22.2430 N   0  0  0  0  0  0  0  0  0  0  0  0
  -23.4540  -32.2530   23.8800 O   0  0  0  0  0  0  0  0  0  0  0  0
  -22.6010  -29.5480   22.7080 C   0  0  0  0  0  0  0  0  0  0  0  0
  -21.2900  -29.3060   22.5310 N   0  0  0  0  0  0  0  0  0  0  0  0
  -23.2660  -28.9900   23.5840 O   0  0  0  0  0  0  0  0  0  0  0  0
  -20.8190  -29.7930   21.7810 H   0  0  0  0  0  0  0  0  0  0  0  0
  -17.9580  -27.9550   22.8750 C   0  0  0  0  0  0  0  0  0  0  0  0
  -20.4700  -28.3890   23.3200 C   0  0  0  0  0  3  0  0  0  0  0  0
  -20.6930  -26.9210   22.8740 C   0  0  0  0  0  2  0  0  0  0  0  0
  -19.6860  -26.4490   21.8250 C   0  0  0  0  0  2  0  0  0  0  0  0
  -18.2580  -26.5610   22.3640 C   0  0  0  0  0  2  0  0  0  0  0  0
  -18.9950  -28.8170   23.3200 C   0  0  0  0  0  0  0  0  0  0  0  0
  -18.6580  -30.1090   23.7790 C   0  0  0  0  0  3  0  0  0  0  0  0
  -17.3160  -30.5370   23.7990 C   0  0  0  0  0  3  0  0  0  0  0  0
  -16.2940  -29.6710   23.3730 C   0  0  0  0  0  3  0  0  0  0  0  0
  -16.6150  -28.3820   22.9150 C   0  0  0  0  0  3  0  0  0  0  0  0
  -25.8290  -32.5530   23.9200 C   0  0  0  0  0  3  0  0  0  0  0  0
  -26.3400  -31.7980   25.2080 C   0  0  1  0  0  0  0  0  0  0  0  0
  -25.2470  -31.5900   26.2820 C   0  0  0  0  0  1  0  0  0  0  0  0
  -26.9060  -30.4080   24.8350 C   0  0  0  0  0  1  0  0  0  0  0  0
  -27.5000  -32.5910   25.8550 C   0  0  0  0  0  1  0  0  0  0  0  0
  -25.5620  -33.9680   24.2180 N   0  0  0  0  0  0  0  0  0  0  0  0
  -25.9010  -34.9890   23.4210 C   0  0  0  0  0  0  0  0  0  0  0  0
  -26.5410  -34.8400   22.3760 O   0  0  0  0  0  0  0  0  0  0  0  0
  -24.9920  -34.1600   25.0270 H   0  0  0  0  0  0  0  0  0  0  0  0
  -24.1980  -36.8060   23.0670 C   0  0  0  0  0  1  0  0  0  0  0  0
  -25.4550  -36.3990   23.8500 C   0  0  0  0  0  3  0  0  0  0  0  0
  -27.6330  -37.2670   24.5860 C   0  0  0  0  0  1  0  0  0  0  0  0
  -26.5050  -37.4260   23.6720 N   0  0  0  0  0  0  0  0  0  0  0  0
  -26.1220  -38.3580   23.8000 H   0  0  0  0  0  0  0  0  0  0  0  0
  1  2  1  0
  3  1  2  0
  4  2  2  0
  5  3  1  0
  5  4  1  0
  6  7  1  0
  8  9  1  0
  8 10  1  0
  9  2  1  0
  9  6  1  0
 10 19  1  0
 10  7  1  0
 11 19  1  0
 12 17  1  0
 13 14  1  0
 13 12  1  0
 15 14  1  0
 15 24  1  0
 15 16  1  0
 17 11  1  0
 17 16  1  0
 18 11  2  0
 19 20  1  0
 21 22  2  0
 22 41  1  0
 23 22  1  0
 23 26  1  0
 24 25  1  0
 24 21  1  0
 25 23  2  0
 26 27  1  0
 27 28  2  0
 29 32  1  0
 29 28  1  0
 30 29  2  0
 31 30  1  0
 31 26  2  0
 32 33  1  0
 33 34  1  0
 34 35  2  0
 36 35  1  0
 36 40  1  0
 37 36  2  0
 38 33  2  0
 38 37  1  0
 39 38  1  0
 41 42  1  0
 42 45  1  0
 42 44  1  0
 43 41  2  0
 46 21  1  0
 46 47  1  0
 48 46  1  0
 49 51  2  0
 50  3  1  0
 50 49  1  0
 52 50  1  0
 53 49  1  0
 53 54  1  0
 54 56  1  0
 55 66  2  0
 56 61  1  0
 57 65  1  0
 57 67  1  0
 58 64  1  0
 58 60  1  0
 59 65  1  0
 60 59  1  0
 61 60  2  0
 62 63  1  0
 62 56  2  0
 63 58  2  0
 64 57  1  0
 65 55  1  0
 67 69  2  0
 68 67  1  0
 70 68  1  0
 71 80  2  0
 71 76  1  0
 72 68  1  0
 73 72  1  0
 74 75  1  0
 74 73  1  0
 75 71  1  0
 76 72  1  0
 76 77  2  0
 77 78  1  0
 79 78  2  0
 80 79  1  0
 81 55  1  0
 81 86  1  0
 81 82  1  0
 82 85  1  1
 82 83  1  0
 84 82  1  0
 86 89  1  0
 87 91  1  0
 87 86  1  0
 88 87  2  0
 91 90  1  0
 93 94  1  0
 93 91  1  0
 93 92  1  0
M  ISO  4  11 100  19 100  53 101  54 101
M  END
>  <TORSDO>  (96) 
F 19

>  <SCORE>  (96) 
-13.036

>  <name>  (96) 
95

>  <ligand_id>  (96) 
95

>  <original_smiles>  (96) 
[H]c1c(C2([H])C([H])([H])C([H])([H])C([H])(N([H])C(=O)N3C([H])([H])C([H])([H])C([H])([H])C([H])(n4nc(-c5c([H])c([H])c(Oc6c([H])c([H])c(F)c([H])c6F)c([H])c5[H])c(C(=O)N([H])[H])c4N([H])[H])C3([H])[H])C2([H])[H])nsc1N([H])C(=O)C([H])([H])Oc1c([H])c([H])c2c(c1[H])C([H])([H])N(C(=O)C([H])(N([H])C(=O)C([H])(N([H])C([H])([H])[H])C([H])([H])[H])C(C([H])([H])[H])(C([H])([H])[H])C([H])([H])[H])C([H])(C(=O)N([H])C1([H])c3c([H])c([H])c([H])c([H])c3C([H])([H])C([H])([H])C1([H])[H])C2([H])[H]

>  <smiles>  (96) 
[H]c1c(C2([H])C([H])([H])C([H])([H])C([H])(N([H])C(=O)N3C([H])([H])C([H])([H])C([H])([H])C([H])(n4nc(-c5c([H])c([H])c(Oc6c([H])c([H])c(F)c([H])c6F)c([H])c5[H])c(C(=O)N([H])[H])c4N([H])[H])C3([H])[H])C2([H])[H])nsc1N([H])C(=O)C([H])([H])Oc1c([H])c([H])c2c(c1[H])C([H])([H])N(C(=O)C([H])(N([H])C(=O)C([H])(N([H])C([H])([H])[H])C([H])([H])[H])C(C([H])([H])[H])(C([H])([H])[H])C([H])([H])[H])C([H])(C(=O)N([H])C1([H])c3c([H])c([H])c([H])c([H])c3C([H])([H])C([H])([H])C1([H])[H])C2([H])[H]

$$$$
