0:0:0
     RDKit          3D

 97106  0  0  1  0  0  0  0  0999 V2000
  -28.7990  -23.7840   20.9630 C   0  0  0  0  0  0  0  0  0  0  0  0
  -29.4370  -21.2320   20.9210 C   0  0  0  0  0  3  0  0  0  0  0  0
  -28.5070  -24.2430   18.6700 C   0  0  0  0  0  2  0  0  0  0  0  0
  -28.7230  -22.7030   18.8810 C   0  0  0  0  0  2  0  0  0  0  0  0
  -28.0770  -24.8330   20.0220 C   0  0  0  0  0  3  0  0  0  0  0  0
  -29.0450  -22.4560   20.3060 N   0  0  0  0  0  0  0  0  0  0  0  0
  -29.5570  -21.2370   22.2630 N   0  0  0  0  0  0  0  0  0  0  0  0
  -29.0650  -24.0030   22.1560 O   0  0  0  0  0  0  0  0  0  0  0  0
  -29.8950  -20.4260   22.7590 H   0  0  0  0  0  0  0  0  0  0  0  0
  -29.4240  -22.0990   22.7840 H   0  0  0  0  0  0  0  0  0  0  0  0
  -29.4080  -18.5180   20.8710 C   0  0  0  0  0  3  0  0  0  0  0  0
  -29.8050  -19.8400   20.3210 C   0  0  0  0  0  0  0  0  0  0  0  0
  -30.0180  -17.3550   20.3310 C   0  0  0  0  0  0  0  0  0  0  0  0
  -30.7290  -19.6530   19.3170 C   0  0  0  0  0  0  0  0  0  0  0  0
  -31.0770  -17.9360   19.0510 S   0  0  0  0  0  0  0  0  0  0  0  0
  -30.5880  -14.8340   20.3170 C   0  0  0  0  0  0  0  0  0  0  0  0
  -30.3850  -12.5390   19.3290 C   0  0  0  0  0  2  0  0  0  0  0  0
  -29.4440  -12.6070   18.1040 C   0  0  0  0  0  2  0  0  0  0  0  0
  -27.9760  -12.4310   18.5360 C   0  0  0  0  0  2  0  0  0  0  0  0
  -27.6070  -13.3170   19.7560 C   0  0  0  0  0  3  0  0  0  0  0  0
  -28.6700  -13.2370   20.8730 C   0  0  0  0  0  2  0  0  0  0  0  0
  -29.9650  -13.6000   20.2790 N   0  0  0  0  0  0  0  0  0  0  0  0
  -31.7640  -14.9150   19.9530 O   0  0  0  0  0  0  0  0  0  0  0  0
  -29.8390  -15.9760   20.6300 N   0  0  0  0  0  0  0  0  0  0  0  0
  -28.9570  -15.7510   21.0670 H   0  0  0  0  0  0  0  0  0  0  0  0
  -25.2240  -13.9110   20.4880 C   0  0  0  0  0  0  0  0  0  0  0  0
  -24.1570  -13.1400   20.8580 C   0  0  0  0  0  0  0  0  0  0  0  0
  -24.6150  -11.7870   20.8250 C   0  0  0  0  0  0  0  0  0  0  0  0
  -26.2650  -13.0280   20.2490 N   0  0  0  0  0  0  0  0  0  0  0  0
  -25.9050  -11.7450   20.5170 N   0  0  0  0  0  0  0  0  0  0  0  0
  -23.8830  -10.5280   21.0130 C   0  0  0  0  0  0  0  0  0  0  0  0
  -24.3050   -9.5630   21.9550 C   0  0  0  0  0  3  0  0  0  0  0  0
  -23.5740   -8.3680   22.1330 C   0  0  0  0  0  3  0  0  0  0  0  0
  -22.4070   -8.1290   21.3690 C   0  0  0  0  0  0  0  0  0  0  0  0
  -22.0060   -9.0820   20.4160 C   0  0  0  0  0  3  0  0  0  0  0  0
  -22.7370  -10.2680   20.2360 C   0  0  0  0  0  3  0  0  0  0  0  0
  -21.6480   -6.9890   21.4560 O   0  0  0  0  0  0  0  0  0  0  0  0
  -21.5730   -6.2610   22.6160 C   0  0  0  0  0  0  0  0  0  0  0  0
  -21.1090   -6.8290   23.8240 C   0  0  0  0  0  3  0  0  0  0  0  0
  -20.9830   -6.0260   24.9750 C   0  0  0  0  0  3  0  0  0  0  0  0
  -21.3090   -4.6570   24.9200 C   0  0  0  0  0  0  0  0  0  0  0  0
  -21.7640   -4.0900   23.7170 C   0  0  0  0  0  3  0  0  0  0  0  0
  -21.8920   -4.8890   22.5670 C   0  0  0  0  0  0  0  0  0  0  0  0
  -22.3110   -4.3330   21.4060 F   0  0  0  0  0  0  0  0  0  0  0  0
  -21.1790   -3.8840   26.0250 F   0  0  0  0  0  0  0  0  0  0  0  0
  -22.7610  -13.6210   21.1300 C   0  0  0  0  0  0  0  0  0  0  0  0
  -22.0310  -12.9240   21.9940 N   0  0  0  0  0  0  0  0  0  0  0  0
  -22.3260  -14.6490   20.6110 O   0  0  0  0  0  0  0  0  0  0  0  0
  -22.3990  -12.0940   22.4330 H   0  0  0  0  0  0  0  0  0  0  0  0
  -21.0920  -13.2220   22.2180 H   0  0  0  0  0  0  0  0  0  0  0  0
  -25.3920  -15.2810   20.3090 N   0  0  0  0  0  0  0  0  0  0  0  0
  -24.6250  -15.9350   20.4140 H   0  0  0  0  0  0  0  0  0  0  0  0
  -26.2360  -15.7140   19.9540 H   0  0  0  0  0  0  0  0  0  0  0  0
  -31.4540  -20.5860   18.5860 N   0  0  0  0  0  0  0  0  0  0  0  0
  -31.7730  -21.4460   19.0200 H   0  0  0  0  0  0  0  0  0  0  0  0
  -32.1770  -20.2260   17.9690 H   0  0  0  0  0  0  0  0  0  0  0  0
  -28.2830  -26.3340   20.2310 O   0  0  0  0  0  0  0  0  0  0  0  0
  -24.6030  -31.8750   23.2230 C   0  0  0  0  0  0  0  0  0  0  0  0
  -27.1900  -27.2470   20.1550 C   0  0  0  0  0  0  0  0  0  0  0  0
  -23.3920  -30.4760   21.5890 C   0  0  0  0  0  3  0  0  0  0  0  0
  -24.8350  -28.9200   20.1490 C   0  0  0  0  0  0  0  0  0  0  0  0
  -25.9370  -30.7710   21.4020 C   0  0  0  0  0  2  0  0  0  0  0  0
  -26.0110  -29.3880   20.7500 C   0  0  0  0  0  0  0  0  0  0  0  0
  -27.1870  -28.5630   20.7430 C   0  0  0  0  0  3  0  0  0  0  0  0
  -25.9940  -26.8710   19.5010 C   0  0  0  0  0  3  0  0  0  0  0  0
  -24.8350  -27.6710   19.5120 C   0  0  0  0  0  3  0  0  0  0  0  0
  -23.6020  -29.8020   20.2070 C   0  0  0  0  0  2  0  0  0  0  0  0
  -24.6630  -31.0610   22.1260 N   0  0  0  0  0  0  0  0  0  0  0  0
  -23.5210  -32.1550   23.7600 O   0  0  0  0  0  0  0  0  0  0  0  0
  -22.7280  -29.4630   22.5540 C   0  0  0  0  0  0  0  0  0  0  0  0
  -21.4020  -29.2850   22.4330 N   0  0  0  0  0  0  0  0  0  0  0  0
  -23.4090  -28.8400   23.3730 O   0  0  0  0  0  0  0  0  0  0  0  0
  -20.9100  -29.8400   21.7470 H   0  0  0  0  0  0  0  0  0  0  0  0
  -18.0280  -28.0800   22.9520 C   0  0  0  0  0  0  0  0  0  0  0  0
  -20.5860  -28.3470   23.2100 C   0  0  0  0  0  3  0  0  0  0  0  0
  -20.6890  -26.9150   22.6370 C   0  0  0  0  0  2  0  0  0  0  0  0
  -19.5840  -26.5880   21.6270 C   0  0  0  0  0  2  0  0  0  0  0  0
  -18.2040  -26.7310   22.2770 C   0  0  0  0  0  2  0  0  0  0  0  0
  -19.1460  -28.8470   23.3760 C   0  0  0  0  0  0  0  0  0  0  0  0
  -18.9260  -30.1100   23.9670 C   0  0  0  0  0  3  0  0  0  0  0  0
  -17.6200  -30.6060   24.1390 C   0  0  0  0  0  3  0  0  0  0  0  0
  -16.5170  -29.8370   23.7310 C   0  0  0  0  0  3  0  0  0  0  0  0
  -16.7220  -28.5760   23.1430 C   0  0  0  0  0  3  0  0  0  0  0  0
  -25.8860  -32.5100   23.8400 C   0  0  0  0  0  3  0  0  0  0  0  0
  -25.5760  -33.9080   24.1780 N   0  0  0  0  0  0  0  0  0  0  0  0
  -25.8930  -34.9660   23.4190 C   0  0  0  0  0  0  0  0  0  0  0  0
  -26.5470  -34.8680   22.3770 O   0  0  0  0  0  0  0  0  0  0  0  0
  -24.9940  -34.0570   24.9900 H   0  0  0  0  0  0  0  0  0  0  0  0
  -24.1550  -36.7570   23.0970 C   0  0  0  0  0  1  0  0  0  0  0  0
  -25.4090  -36.3510   23.8900 C   0  0  0  0  0  3  0  0  0  0  0  0
  -27.5530  -37.2380   24.6980 C   0  0  0  0  0  1  0  0  0  0  0  0
  -26.4380  -37.4080   23.7690 N   0  0  0  0  0  0  0  0  0  0  0  0
  -26.0310  -38.3260   23.9270 H   0  0  0  0  0  0  0  0  0  0  0  0
  -26.4120  -31.7380   25.1110 C   0  0  1  0  0  0  0  0  0  0  0  0
  -25.3270  -31.4940   26.1870 C   0  0  0  0  0  1  0  0  0  0  0  0
  -26.9960  -30.3620   24.7160 C   0  0  0  0  0  1  0  0  0  0  0  0
  -27.5660  -32.5320   25.7680 C   0  0  0  0  0  1  0  0  0  0  0  0
  1  8  2  0
  2  7  1  0
  3  4  1  0
  3  5  1  0
  4  6  1  0
  5 57  1  0
  5  1  1  0
  6  2  1  0
  6  1  1  0
  7  9  1  0
  7 10  1  0
 12 11  1  0
 12  2  1  0
 13 24  1  0
 13 11  2  0
 14 12  2  0
 15 14  1  0
 15 13  1  0
 16 24  1  0
 17 22  1  0
 18 19  1  0
 18 17  1  0
 20 19  1  0
 20 29  1  0
 20 21  1  0
 22 16  1  0
 22 21  1  0
 23 16  2  0
 24 25  1  0
 26 27  2  0
 27 46  1  0
 28 27  1  0
 28 31  1  0
 29 26  1  0
 29 30  1  0
 30 28  2  0
 31 32  1  0
 32 33  2  0
 34 37  1  0
 34 33  1  0
 35 34  2  0
 36 35  1  0
 36 31  2  0
 37 38  1  0
 38 39  1  0
 39 40  2  0
 41 40  1  0
 41 45  1  0
 42 41  2  0
 43 38  2  0
 43 42  1  0
 44 43  1  0
 46 47  1  0
 47 50  1  0
 47 49  1  0
 48 46  2  0
 51 52  1  0
 51 26  1  0
 53 51  1  0
 54 55  1  0
 54 14  1  0
 56 54  1  0
 58 69  2  0
 59 57  1  0
 59 64  1  0
 60 68  1  0
 60 70  1  0
 61 67  1  0
 61 63  1  0
 62 68  1  0
 63 62  1  0
 64 63  2  0
 65 66  1  0
 65 59  2  0
 66 61  2  0
 67 60  1  0
 68 58  1  0
 70 72  2  0
 71 70  1  0
 73 71  1  0
 74 83  2  0
 74 79  1  0
 75 71  1  0
 75 79  1  0
 76 75  1  0
 77 78  1  0
 77 76  1  0
 78 74  1  0
 79 80  2  0
 80 81  1  0
 82 81  2  0
 83 82  1  0
 84 58  1  0
 84 85  1  0
 84 94  1  0
 85 88  1  0
 86 90  1  0
 86 85  1  0
 87 86  2  0
 90 89  1  0
 92 90  1  0
 92 93  1  0
 92 91  1  0
 94 97  1  1
 94 95  1  0
 96 94  1  0
M  ISO  4   5 101  16 100  24 100  57 101
M  END
>  <TORSDO>  (1) 
F 18

>  <SCORE>  (1) 
-15.148

>  <name>  (1) 
0

>  <ligand_id>  (1) 
0

>  <original_smiles>  (1) 
[H]c1c([H])c([H])c2c(c1[H])C([H])([H])C([H])([H])C([H])([H])C2([H])N([H])C(=O)C1([H])N(C(=O)C([H])(N([H])C(=O)C([H])(N([H])C([H])([H])[H])C([H])([H])[H])C(C([H])([H])[H])(C([H])([H])[H])C([H])([H])[H])C([H])([H])c2c([H])c(OC3([H])C(=O)N(C(c4c(N([H])[H])sc(N([H])C(=O)N5C([H])([H])C([H])([H])C([H])([H])C([H])(n6nc(-c7c([H])c([H])c(Oc8c([H])c([H])c(F)c([H])c8F)c([H])c7[H])c(C(=O)N([H])[H])c6N([H])[H])C5([H])[H])c4[H])=[N+]([H])[H])C([H])([H])C3([H])[H])c([H])c([H])c2C1([H])[H]

>  <smiles>  (1) 
[H]c1c([H])c([H])c2c(c1[H])C([H])([H])C([H])([H])C([H])([H])C2([H])N([H])C(=O)C1([H])N(C(=O)C([H])(N([H])C(=O)C([H])(N([H])C([H])([H])[H])C([H])([H])[H])C(C([H])([H])[H])(C([H])([H])[H])C([H])([H])[H])C([H])([H])c2c([H])c(OC3([H])C(=O)N(C(c4c(N([H])[H])sc(N([H])C(=O)N5C([H])([H])C([H])([H])C([H])([H])C([H])(n6nc(-c7c([H])c([H])c(Oc8c([H])c([H])c(F)c([H])c8F)c([H])c7[H])c(C(=O)N([H])[H])c6N([H])[H])C5([H])[H])c4[H])=[N+]([H])[H])C([H])([H])C3([H])[H])c([H])c([H])c2C1([H])[H]

$$$$
1:0:0
     RDKit          3D

 90 99  0  0  1  0  0  0  0  0999 V2000
  -27.7550  -21.6080   21.6040 C   0  0  0  0  0  2  0  0  0  0  0  0
  -27.3510  -23.1070   21.5240 C   0  0  0  0  0  2  0  0  0  0  0  0
  -29.3390  -22.7330   20.2100 C   0  0  0  0  0  2  0  0  0  0  0  0
  -28.6480  -21.3100   20.3980 C   0  0  0  0  0  3  0  0  0  0  0  0
  -28.2180  -23.8520   20.4700 C   0  0  0  0  0  3  0  0  0  0  0  0
  -30.9140  -18.2000   20.9240 C   0  0  0  0  0  3  0  0  0  0  0  0
  -29.9190  -17.3360   20.4890 C   0  0  0  0  0  0  0  0  0  0  0  0
  -29.3750  -19.9050   20.4330 C   0  0  0  0  0  0  0  0  0  0  0  0
  -30.5840  -19.5940   20.9380 N   0  0  0  0  0  0  0  0  0  0  0  0
  -28.5600  -18.3680   19.9710 S   0  0  0  0  0  0  0  0  0  0  0  0
  -30.7090  -14.8920   20.3050 C   0  0  0  0  0  0  0  0  0  0  0  0
  -30.5710  -12.6200   19.2660 C   0  0  0  0  0  2  0  0  0  0  0  0
  -29.6130  -12.7000   18.0550 C   0  0  0  0  0  2  0  0  0  0  0  0
  -28.1460  -12.5110   18.4980 C   0  0  0  0  0  2  0  0  0  0  0  0
  -27.7770  -13.3850   19.7260 C   0  0  0  0  0  3  0  0  0  0  0  0
  -28.8460  -13.2660   20.8350 C   0  0  0  0  0  2  0  0  0  0  0  0
  -30.1380  -13.6440   20.2400 N   0  0  0  0  0  0  0  0  0  0  0  0
  -31.8900  -15.0680   19.9880 O   0  0  0  0  0  0  0  0  0  0  0  0
  -29.8220  -15.9380   20.4920 N   0  0  0  0  0  0  0  0  0  0  0  0
  -28.8780  -15.5980   20.5710 H   0  0  0  0  0  0  0  0  0  0  0  0
  -25.3890  -13.9660   20.4690 C   0  0  0  0  0  0  0  0  0  0  0  0
  -24.3300  -13.1830   20.8430 C   0  0  0  0  0  0  0  0  0  0  0  0
  -24.8020  -11.8360   20.8050 C   0  0  0  0  0  0  0  0  0  0  0  0
  -26.4370  -13.0920   20.2220 N   0  0  0  0  0  0  0  0  0  0  0  0
  -26.0900  -11.8060   20.4880 N   0  0  0  0  0  0  0  0  0  0  0  0
  -24.0860  -10.5680   20.9950 C   0  0  0  0  0  0  0  0  0  0  0  0
  -24.5150   -9.6150   21.9440 C   0  0  0  0  0  3  0  0  0  0  0  0
  -23.7980   -8.4110   22.1220 C   0  0  0  0  0  3  0  0  0  0  0  0
  -22.6400   -8.1540   21.3500 C   0  0  0  0  0  0  0  0  0  0  0  0
  -22.2310   -9.0970   20.3910 C   0  0  0  0  0  3  0  0  0  0  0  0
  -22.9490  -10.2920   20.2120 C   0  0  0  0  0  3  0  0  0  0  0  0
  -21.8950   -7.0030   21.4370 O   0  0  0  0  0  0  0  0  0  0  0  0
  -21.8130   -6.2850   22.6030 C   0  0  0  0  0  0  0  0  0  0  0  0
  -21.3120   -6.8530   23.7950 C   0  0  0  0  0  3  0  0  0  0  0  0
  -21.1800   -6.0590   24.9520 C   0  0  0  0  0  3  0  0  0  0  0  0
  -21.5400   -4.6990   24.9180 C   0  0  0  0  0  0  0  0  0  0  0  0
  -22.0320   -4.1300   23.7300 C   0  0  0  0  0  3  0  0  0  0  0  0
  -22.1670   -4.9210   22.5760 C   0  0  0  0  0  0  0  0  0  0  0  0
  -22.6230   -4.3630   21.4280 F   0  0  0  0  0  0  0  0  0  0  0  0
  -21.4060   -3.9340   26.0260 F   0  0  0  0  0  0  0  0  0  0  0  0
  -22.9320  -13.6510   21.1250 C   0  0  0  0  0  0  0  0  0  0  0  0
  -22.2120  -12.9450   21.9900 N   0  0  0  0  0  0  0  0  0  0  0  0
  -22.4850  -14.6760   20.6140 O   0  0  0  0  0  0  0  0  0  0  0  0
  -22.5850  -12.1120   22.4210 H   0  0  0  0  0  0  0  0  0  0  0  0
  -21.2760  -13.2400   22.2240 H   0  0  0  0  0  0  0  0  0  0  0  0
  -25.5410  -15.3390   20.2970 N   0  0  0  0  0  0  0  0  0  0  0  0
  -24.7610  -15.9780   20.4170 H   0  0  0  0  0  0  0  0  0  0  0  0
  -26.3680  -15.7930   19.9360 H   0  0  0  0  0  0  0  0  0  0  0  0
  -28.5340  -25.3730   20.9470 C   0  0  0  0  0  2  0  0  0  0  0  0
  -28.4380  -26.6110   20.1230 O   0  0  0  0  0  0  0  0  0  0  0  0
  -24.6260  -31.9600   23.2470 C   0  0  0  0  0  0  0  0  0  0  0  0
  -27.3010  -27.4330   20.1870 C   0  0  0  0  0  0  0  0  0  0  0  0
  -23.4430  -30.5590   21.5940 C   0  0  0  0  0  3  0  0  0  0  0  0
  -24.9180  -29.0250   20.1700 C   0  0  0  0  0  0  0  0  0  0  0  0
  -25.9800  -30.9070   21.4170 C   0  0  0  0  0  2  0  0  0  0  0  0
  -26.0790  -29.5260   20.7710 C   0  0  0  0  0  0  0  0  0  0  0  0
  -27.2760  -28.7450   20.7640 C   0  0  0  0  0  3  0  0  0  0  0  0
  -26.1160  -26.9800   19.5730 C   0  0  0  0  0  3  0  0  0  0  0  0
  -24.9390  -27.7570   19.5610 C   0  0  0  0  0  3  0  0  0  0  0  0
  -23.6720  -29.8900   20.2120 C   0  0  0  0  0  2  0  0  0  0  0  0
  -24.7020  -31.1590   22.1440 N   0  0  0  0  0  0  0  0  0  0  0  0
  -23.5370  -32.2220   23.7800 O   0  0  0  0  0  0  0  0  0  0  0  0
  -22.7880  -29.5300   22.5470 C   0  0  0  0  0  0  0  0  0  0  0  0
  -21.4630  -29.3460   22.4230 N   0  0  0  0  0  0  0  0  0  0  0  0
  -23.4750  -28.8980   23.3540 O   0  0  0  0  0  0  0  0  0  0  0  0
  -20.9690  -29.9080   21.7440 H   0  0  0  0  0  0  0  0  0  0  0  0
  -18.0930  -28.1280   22.9230 C   0  0  0  0  0  0  0  0  0  0  0  0
  -20.6530  -28.3950   23.1860 C   0  0  0  0  0  3  0  0  0  0  0  0
  -20.7580  -26.9700   22.5910 C   0  0  0  0  0  2  0  0  0  0  0  0
  -19.6530  -26.6550   21.5800 C   0  0  0  0  0  2  0  0  0  0  0  0
  -18.2730  -26.7890   22.2290 C   0  0  0  0  0  2  0  0  0  0  0  0
  -19.2110  -28.8890   23.3580 C   0  0  0  0  0  0  0  0  0  0  0  0
  -18.9890  -30.1450   23.9660 C   0  0  0  0  0  3  0  0  0  0  0  0
  -17.6830  -30.6370   24.1440 C   0  0  0  0  0  3  0  0  0  0  0  0
  -16.5790  -29.8730   23.7260 C   0  0  0  0  0  3  0  0  0  0  0  0
  -16.7860  -28.6190   23.1210 C   0  0  0  0  0  3  0  0  0  0  0  0
  -25.8990  -32.6030   23.8790 C   0  0  0  0  0  3  0  0  0  0  0  0
  -25.5790  -34.0020   24.1990 N   0  0  0  0  0  0  0  0  0  0  0  0
  -25.9110  -35.0530   23.4370 C   0  0  0  0  0  0  0  0  0  0  0  0
  -26.5870  -34.9470   22.4110 O   0  0  0  0  0  0  0  0  0  0  0  0
  -24.9800  -34.1600   24.9960 H   0  0  0  0  0  0  0  0  0  0  0  0
  -24.1870  -36.8410   23.0530 C   0  0  0  0  0  1  0  0  0  0  0  0
  -25.4150  -36.4410   23.8850 C   0  0  0  0  0  3  0  0  0  0  0  0
  -27.5310  -37.3320   24.7530 C   0  0  0  0  0  1  0  0  0  0  0  0
  -26.4480  -37.4950   23.7870 N   0  0  0  0  0  0  0  0  0  0  0  0
  -26.0380  -38.4140   23.9230 H   0  0  0  0  0  0  0  0  0  0  0  0
  -26.4060  -31.8440   25.1660 C   0  0  1  0  0  0  0  0  0  0  0  0
  -25.3010  -31.6090   26.2230 C   0  0  0  0  0  1  0  0  0  0  0  0
  -27.0000  -30.4670   24.7880 C   0  0  0  0  0  1  0  0  0  0  0  0
  -27.5440  -32.6490   25.8360 C   0  0  0  0  0  1  0  0  0  0  0  0
  2  1  1  0
  3  4  1  0
  3  5  1  0
  4  8  1  0
  4  1  1  0
  5 49  1  0
  5  2  1  0
  6  9  1  0
  7 19  1  0
  7  6  2  0
  8  9  2  0
 10  8  1  0
 10  7  1  0
 11 19  1  0
 12 17  1  0
 13 14  1  0
 13 12  1  0
 15 14  1  0
 15 24  1  0
 15 16  1  0
 17 11  1  0
 17 16  1  0
 18 11  2  0
 19 20  1  0
 21 22  2  0
 22 41  1  0
 23 22  1  0
 23 26  1  0
 24 21  1  0
 24 25  1  0
 25 23  2  0
 26 27  1  0
 27 28  2  0
 29 32  1  0
 29 28  1  0
 30 29  2  0
 31 30  1  0
 31 26  2  0
 32 33  1  0
 33 34  1  0
 34 35  2  0
 36 35  1  0
 36 40  1  0
 37 36  2  0
 38 33  2  0
 38 37  1  0
 39 38  1  0
 41 42  1  0
 42 45  1  0
 42 44  1  0
 43 41  2  0
 46 47  1  0
 46 21  1  0
 48 46  1  0
 50 52  1  0
 50 49  1  0
 51 62  2  0
 52 57  1  0
 53 61  1  0
 53 63  1  0
 54 60  1  0
 54 56  1  0
 55 61  1  0
 56 55  1  0
 57 56  2  0
 58 52  2  0
 59 58  1  0
 59 54  2  0
 60 53  1  0
 61 51  1  0
 63 65  2  0
 64 63  1  0
 66 64  1  0
 67 76  2  0
 67 72  1  0
 68 64  1  0
 68 72  1  0
 69 68  1  0
 70 71  1  0
 70 69  1  0
 71 67  1  0
 72 73  2  0
 73 74  1  0
 75 74  2  0
 76 75  1  0
 77 51  1  0
 77 78  1  0
 77 87  1  0
 78 81  1  0
 79 83  1  0
 79 78  1  0
 80 79  2  0
 83 82  1  0
 85 83  1  0
 85 86  1  0
 85 84  1  0
 87 90  1  1
 87 88  1  0
 89 87  1  0
M  ISO  4  11 100  19 100  49 101  50 101
M  END
>  <TORSDO>  (2) 
F 18

>  <SCORE>  (2) 
-14.540

>  <name>  (2) 
1

>  <ligand_id>  (2) 
1

>  <original_smiles>  (2) 
[H]c1nc(C2([H])C([H])([H])C([H])([H])C([H])(C([H])([H])Oc3c([H])c([H])c4c(c3[H])C([H])([H])N(C(=O)C([H])(N([H])C(=O)C([H])(N([H])C([H])([H])[H])C([H])([H])[H])C(C([H])([H])[H])(C([H])([H])[H])C([H])([H])[H])C([H])(C(=O)N([H])C3([H])c5c([H])c([H])c([H])c([H])c5C([H])([H])C([H])([H])C3([H])[H])C4([H])[H])C2([H])[H])sc1N([H])C(=O)N1C([H])([H])C([H])([H])C([H])([H])C([H])(n2nc(-c3c([H])c([H])c(Oc4c([H])c([H])c(F)c([H])c4F)c([H])c3[H])c(C(=O)N([H])[H])c2N([H])[H])C1([H])[H]

>  <smiles>  (2) 
[H]c1nc(C2([H])C([H])([H])C([H])([H])C([H])(C([H])([H])Oc3c([H])c([H])c4c(c3[H])C([H])([H])N(C(=O)C([H])(N([H])C(=O)C([H])(N([H])C([H])([H])[H])C([H])([H])[H])C(C([H])([H])[H])(C([H])([H])[H])C([H])([H])[H])C([H])(C(=O)N([H])C3([H])c5c([H])c([H])c([H])c([H])c5C([H])([H])C([H])([H])C3([H])[H])C4([H])[H])C2([H])[H])sc1N([H])C(=O)N1C([H])([H])C([H])([H])C([H])([H])C([H])(n2nc(-c3c([H])c([H])c(Oc4c([H])c([H])c(F)c([H])c4F)c([H])c3[H])c(C(=O)N([H])[H])c2N([H])[H])C1([H])[H]

$$$$
2:0:0
     RDKit          3D

 98108  0  0  1  0  0  0  0  0999 V2000
  -30.9210  -20.3140   20.9220 C   0  0  0  0  0  3  0  0  0  0  0  0
  -29.3090  -18.5030   20.7300 C   0  0  0  0  0  3  0  0  0  0  0  0
  -31.6920  -18.0080   20.7170 C   0  0  0  0  0  3  0  0  0  0  0  0
  -29.5750  -19.9080   20.8750 C   0  0  0  0  0  0  0  0  0  0  0  0
  -31.9900  -19.3860   20.8630 C   0  0  0  0  0  0  0  0  0  0  0  0
  -30.3600  -17.5260   20.6480 C   0  0  0  0  0  0  0  0  0  0  0  0
  -30.8710  -15.0280   20.2480 C   0  0  0  0  0  0  0  0  0  0  0  0
  -30.6740  -12.7580   19.2530 C   0  0  0  0  0  2  0  0  0  0  0  0
  -29.7120  -12.8130   18.0460 C   0  0  0  0  0  2  0  0  0  0  0  0
  -28.2490  -12.6520   18.5030 C   0  0  0  0  0  2  0  0  0  0  0  0
  -27.8890  -13.5620   19.7070 C   0  0  0  0  0  3  0  0  0  0  0  0
  -28.9620  -13.4720   20.8140 C   0  0  0  0  0  2  0  0  0  0  0  0
  -30.2560  -13.8060   20.2040 N   0  0  0  0  0  0  0  0  0  0  0  0
  -32.0210  -15.1700   19.8270 O   0  0  0  0  0  0  0  0  0  0  0  0
  -30.0720  -16.0930   20.5800 N   0  0  0  0  0  0  0  0  0  0  0  0
  -29.1170  -15.8330   20.7720 H   0  0  0  0  0  0  0  0  0  0  0  0
  -25.5240  -14.1560   20.5170 C   0  0  0  0  0  0  0  0  0  0  0  0
  -24.4650  -13.3770   20.8960 C   0  0  0  0  0  0  0  0  0  0  0  0
  -24.9190  -12.0250   20.8100 C   0  0  0  0  0  0  0  0  0  0  0  0
  -26.5560  -13.2770   20.2230 N   0  0  0  0  0  0  0  0  0  0  0  0
  -26.1980  -11.9900   20.4610 N   0  0  0  0  0  0  0  0  0  0  0  0
  -24.1910  -10.7620   20.9840 C   0  0  0  0  0  0  0  0  0  0  0  0
  -24.6030   -9.7950   21.9280 C   0  0  0  0  0  3  0  0  0  0  0  0
  -23.8750   -8.5950   22.0870 C   0  0  0  0  0  3  0  0  0  0  0  0
  -22.7220   -8.3550   21.3010 C   0  0  0  0  0  0  0  0  0  0  0  0
  -22.3330   -9.3100   20.3450 C   0  0  0  0  0  3  0  0  0  0  0  0
  -23.0600  -10.5010   20.1850 C   0  0  0  0  0  3  0  0  0  0  0  0
  -21.9670   -7.2100   21.3710 O   0  0  0  0  0  0  0  0  0  0  0  0
  -21.8140   -6.5190   22.5460 C   0  0  0  0  0  0  0  0  0  0  0  0
  -21.2360   -7.1130   23.6900 C   0  0  0  0  0  3  0  0  0  0  0  0
  -21.0310   -6.3460   24.8550 C   0  0  0  0  0  3  0  0  0  0  0  0
  -21.3960   -4.9860   24.8760 C   0  0  0  0  0  0  0  0  0  0  0  0
  -21.9670   -4.3910   23.7370 C   0  0  0  0  0  3  0  0  0  0  0  0
  -22.1730   -5.1560   22.5750 C   0  0  0  0  0  0  0  0  0  0  0  0
  -22.7040   -4.5730   21.4730 F   0  0  0  0  0  0  0  0  0  0  0  0
  -21.1940   -4.2470   25.9920 F   0  0  0  0  0  0  0  0  0  0  0  0
  -23.0790  -13.8530   21.2210 C   0  0  0  0  0  0  0  0  0  0  0  0
  -22.3740  -13.1430   22.0930 N   0  0  0  0  0  0  0  0  0  0  0  0
  -22.6300  -14.8910   20.7350 O   0  0  0  0  0  0  0  0  0  0  0  0
  -22.7470  -12.3020   22.5080 H   0  0  0  0  0  0  0  0  0  0  0  0
  -21.4430  -13.4430   22.3470 H   0  0  0  0  0  0  0  0  0  0  0  0
  -25.6910  -15.5300   20.3750 N   0  0  0  0  0  0  0  0  0  0  0  0
  -24.9240  -16.1780   20.5180 H   0  0  0  0  0  0  0  0  0  0  0  0
  -26.5090  -15.9710   19.9730 H   0  0  0  0  0  0  0  0  0  0  0  0
  -35.0910  -21.1040   22.0080 C   0  0  0  0  0  2  0  0  0  0  0  0
  -35.6310  -19.7620   21.5100 C   0  0  0  0  0  2  0  0  0  0  0  0
  -33.6070  -21.1130   21.6260 C   0  0  0  0  0  2  0  0  0  0  0  0
  -34.3850  -18.8960   21.3370 C   0  0  0  0  0  2  0  0  0  0  0  0
  -33.3300  -19.8340   20.9780 N   0  0  0  0  0  0  0  0  0  0  0  0
  -28.4840  -20.9620   21.2590 C   0  0  0  0  0  2  0  0  0  0  0  0
  -28.3250  -24.5170   20.1310 C   0  0  0  0  0  3  0  0  0  0  0  0
  -28.6240  -25.7020   19.5100 C   0  0  0  0  0  2  0  0  0  0  0  0
  -27.3480  -24.2660   21.2380 C   0  0  0  0  0  2  0  0  0  0  0  0
  -28.9620  -23.1330   19.8520 C   0  0  0  0  0  2  0  0  0  0  0  0
  -26.8660  -22.8290   20.9270 C   0  0  0  0  0  2  0  0  0  0  0  0
  -28.0100  -22.0710   20.3330 N   0  0  2  0  0  4  0  0  0  0  0  0
  -27.6500  -21.6010   19.5150 H   0  0  0  0  0  0  0  0  0  0  0  0
  -28.4040  -27.0190   19.9420 O   0  0  0  0  0  0  0  0  0  0  0  0
  -24.6920  -32.0210   23.4290 C   0  0  0  0  0  0  0  0  0  0  0  0
  -27.2130  -27.7390   19.9630 C   0  0  0  0  0  0  0  0  0  0  0  0
  -23.4260  -30.7290   21.7420 C   0  0  0  0  0  3  0  0  0  0  0  0
  -24.8230  -29.2790   20.1560 C   0  0  0  0  0  0  0  0  0  0  0  0
  -25.9440  -31.0930   21.4710 C   0  0  0  0  0  2  0  0  0  0  0  0
  -26.0020  -29.7590   20.7370 C   0  0  0  0  0  0  0  0  0  0  0  0
  -27.1920  -28.9970   20.6320 C   0  0  0  0  0  3  0  0  0  0  0  0
  -26.0190  -27.2910   19.3660 C   0  0  0  0  0  3  0  0  0  0  0  0
  -24.8310  -28.0520   19.4650 C   0  0  0  0  0  3  0  0  0  0  0  0
  -23.5810  -30.1330   20.3140 C   0  0  0  0  0  2  0  0  0  0  0  0
  -24.7100  -31.2960   22.2720 N   0  0  0  0  0  0  0  0  0  0  0  0
  -23.6320  -32.2520   24.0280 O   0  0  0  0  0  0  0  0  0  0  0  0
  -22.8080  -29.6500   22.6620 C   0  0  0  0  0  0  0  0  0  0  0  0
  -21.4910  -29.4240   22.5220 N   0  0  0  0  0  0  0  0  0  0  0  0
  -23.5120  -29.0170   23.4530 O   0  0  0  0  0  0  0  0  0  0  0  0
  -20.9800  -29.9850   21.8550 H   0  0  0  0  0  0  0  0  0  0  0  0
  -18.1810  -28.0210   22.9060 C   0  0  0  0  0  0  0  0  0  0  0  0
  -20.7120  -28.4210   23.2500 C   0  0  0  0  0  3  0  0  0  0  0  0
  -20.9090  -27.0140   22.6410 C   0  0  0  0  0  2  0  0  0  0  0  0
  -19.8540  -26.6560   21.5890 C   0  0  0  0  0  2  0  0  0  0  0  0
  -18.4520  -26.7050   22.2000 C   0  0  0  0  0  2  0  0  0  0  0  0
  -19.2420  -28.8360   23.3850 C   0  0  0  0  0  0  0  0  0  0  0  0
  -18.9340  -30.0670   24.0030 C   0  0  0  0  0  3  0  0  0  0  0  0
  -17.5980  -30.4880   24.1460 C   0  0  0  0  0  3  0  0  0  0  0  0
  -16.5520  -29.6720   23.6800 C   0  0  0  0  0  3  0  0  0  0  0  0
  -16.8440  -28.4400   23.0690 C   0  0  0  0  0  3  0  0  0  0  0  0
  -25.9970  -32.6130   24.0450 C   0  0  0  0  0  3  0  0  0  0  0  0
  -26.5120  -31.8110   25.3030 C   0  0  1  0  0  0  0  0  0  0  0  0
  -25.4240  -31.5620   26.3730 C   0  0  0  0  0  1  0  0  0  0  0  0
  -27.0780  -30.4360   24.8770 C   0  0  0  0  0  1  0  0  0  0  0  0
  -27.6790  -32.5760   25.9730 C   0  0  0  0  0  1  0  0  0  0  0  0
  -25.7240  -34.0130   24.4040 N   0  0  0  0  0  0  0  0  0  0  0  0
  -26.0640  -35.0690   23.6540 C   0  0  0  0  0  0  0  0  0  0  0  0
  -26.7080  -34.9670   22.6050 O   0  0  0  0  0  0  0  0  0  0  0  0
  -25.1470  -34.1660   25.2180 H   0  0  0  0  0  0  0  0  0  0  0  0
  -24.3520  -36.8920   23.3820 C   0  0  0  0  0  1  0  0  0  0  0  0
  -25.6170  -36.4600   24.1420 C   0  0  0  0  0  3  0  0  0  0  0  0
  -27.7900  -37.3060   24.9130 C   0  0  0  0  0  1  0  0  0  0  0  0
  -26.6620  -37.4980   24.0040 N   0  0  0  0  0  0  0  0  0  0  0  0
  -26.2750  -38.4240   24.1680 H   0  0  0  0  0  0  0  0  0  0  0  0
  2  4  2  0
  3  5  1  0
  4  1  1  0
  4 50  1  0
  5  1  2  0
  5 49  1  0
  6  3  2  0
  6  2  1  0
  7 15  1  0
  8 13  1  0
  9 10  1  0
  9  8  1  0
 11 10  1  0
 11 20  1  0
 11 12  1  0
 13  7  1  0
 13 12  1  0
 14  7  2  0
 15  6  1  0
 15 16  1  0
 17 18  2  0
 18 37  1  0
 19 18  1  0
 19 22  1  0
 20 21  1  0
 20 17  1  0
 21 19  2  0
 22 23  1  0
 23 24  2  0
 25 28  1  0
 25 24  1  0
 26 25  2  0
 27 26  1  0
 27 22  2  0
 28 29  1  0
 29 34  2  0
 29 30  1  0
 30 31  2  0
 31 32  1  0
 32 36  1  0
 33 32  2  0
 34 33  1  0
 35 34  1  0
 37 38  1  0
 38 41  1  0
 38 40  1  0
 39 37  2  0
 42 17  1  0
 42 43  1  0
 44 42  1  0
 46 45  1  0
 47 45  1  0
 48 46  1  0
 49 48  1  0
 49 47  1  0
 51 52  1  0
 51 53  1  0
 52 58  1  0
 54 51  1  0
 54 56  1  0
 55 53  1  0
 56 55  1  0
 56 50  1  0
 56 57  1  6
 58 60  1  0
 59 70  2  0
 60 65  1  0
 61 69  1  0
 61 71  1  0
 62 68  1  0
 62 64  1  0
 63 69  1  0
 64 63  1  0
 65 64  2  0
 66 67  1  0
 66 60  2  0
 67 62  2  0
 68 61  1  0
 69 59  1  0
 71 73  2  0
 72 71  1  0
 74 72  1  0
 75 84  2  0
 75 80  1  0
 76 72  1  0
 76 80  1  0
 77 76  1  0
 78 79  1  0
 78 77  1  0
 79 75  1  0
 80 81  2  0
 81 82  1  0
 83 82  2  0
 84 83  1  0
 85 59  1  0
 85 90  1  0
 85 86  1  0
 86 89  1  1
 86 87  1  0
 88 86  1  0
 90 93  1  0
 91 95  1  0
 91 90  1  0
 92 91  2  0
 95 94  1  0
 97 95  1  0
 97 98  1  0
 97 96  1  0
M  ISO  4   7 100  15 100  52 101  58 101
M  END
>  <TORSDO>  (3) 
F 19

>  <SCORE>  (3) 
-13.725

>  <name>  (3) 
2

>  <ligand_id>  (3) 
2

>  <original_smiles>  (3) 
[H]C(Oc1c([H])c([H])c2c(c1[H])C([H])([H])N(C(=O)C([H])(N([H])C(=O)C([H])(N([H])C([H])([H])[H])C([H])([H])[H])C(C([H])([H])[H])(C([H])([H])[H])C([H])([H])[H])C([H])(C(=O)N([H])C1([H])c3c([H])c([H])c([H])c([H])c3C([H])([H])C([H])([H])C1([H])[H])C2([H])[H])=C1C([H])([H])C([H])([H])[N+]([H])(C([H])([H])c2c([H])c(N([H])C(=O)N3C([H])([H])C([H])([H])C([H])([H])C([H])(n4nc(-c5c([H])c([H])c(Oc6c([H])c([H])c(F)c([H])c6F)c([H])c5[H])c(C(=O)N([H])[H])c4N([H])[H])C3([H])[H])c([H])c(N3C([H])([H])C([H])([H])C([H])([H])C3([H])[H])c2[H])C1([H])[H]

>  <smiles>  (3) 
[H]C(Oc1c([H])c([H])c2c(c1[H])C([H])([H])N(C(=O)C([H])(N([H])C(=O)C([H])(N([H])C([H])([H])[H])C([H])([H])[H])C(C([H])([H])[H])(C([H])([H])[H])C([H])([H])[H])C([H])(C(=O)N([H])C1([H])c3c([H])c([H])c([H])c([H])c3C([H])([H])C([H])([H])C1([H])[H])C2([H])[H])=C1C([H])([H])C([H])([H])[N+]([H])(C([H])([H])c2c([H])c(N([H])C(=O)N3C([H])([H])C([H])([H])C([H])([H])C([H])(n4nc(-c5c([H])c([H])c(Oc6c([H])c([H])c(F)c([H])c6F)c([H])c5[H])c(C(=O)N([H])[H])c4N([H])[H])C3([H])[H])c([H])c(N3C([H])([H])C([H])([H])C([H])([H])C3([H])[H])c2[H])C1([H])[H]

$$$$
3:0:0
     RDKit          3D

 95104  0  0  1  0  0  0  0  0999 V2000
  -29.9670  -21.5050   17.9920 C   0  0  0  0  0  2  0  0  0  0  0  0
  -30.4760  -21.3230   19.4210 C   0  0  0  0  0  2  0  0  0  0  0  0
  -28.7620  -22.4280   18.1780 C   0  0  0  0  0  2  0  0  0  0  0  0
  -29.1930  -21.1500   20.2400 C   0  0  0  0  0  3  0  0  0  0  0  0
  -28.2470  -22.1850   19.5500 N   0  0  1  0  0  4  0  0  0  0  0  0
  -27.4480  -21.5930   19.3730 H   0  0  0  0  0  0  0  0  0  0  0  0
  -30.5150  -14.8060   20.3430 C   0  0  0  0  0  0  0  0  0  0  0  0
  -30.3650  -12.4950   19.3490 C   0  0  0  0  0  2  0  0  0  0  0  0
  -29.4380  -12.6150   18.1160 C   0  0  0  0  0  2  0  0  0  0  0  0
  -27.9570  -12.4310   18.5200 C   0  0  0  0  0  2  0  0  0  0  0  0
  -27.5820  -13.2710   19.7720 C   0  0  0  0  0  3  0  0  0  0  0  0
  -28.6520  -13.1570   20.8860 C   0  0  0  0  0  2  0  0  0  0  0  0
  -29.9480  -13.5450   20.3120 N   0  0  0  0  0  0  0  0  0  0  0  0
  -31.6550  -14.9580   19.8780 O   0  0  0  0  0  0  0  0  0  0  0  0
  -27.5810  -19.0620   20.0360 C   0  0  0  0  0  3  0  0  0  0  0  0
  -28.8400  -19.5760   20.2240 C   0  0  0  0  0  0  0  0  0  0  0  0
  -29.2450  -17.1700   20.4030 C   0  0  0  0  0  0  0  0  0  0  0  0
  -29.7640  -18.4560   20.4970 N   0  0  0  0  0  0  0  0  0  0  0  0
  -29.7710  -15.8490   20.8850 N   0  0  0  0  0  0  0  0  0  0  0  0
  -27.5240  -17.3100   20.0580 S   0  0  0  0  0  0  0  0  0  0  0  0
  -29.0510  -15.3810   21.4120 H   0  0  0  0  0  0  0  0  0  0  0  0
  -25.1760  -13.8180   20.4990 C   0  0  0  0  0  0  0  0  0  0  0  0
  -24.1260  -13.0420   20.8800 C   0  0  0  0  0  0  0  0  0  0  0  0
  -24.6050  -11.7010   20.8540 C   0  0  0  0  0  0  0  0  0  0  0  0
  -26.2410  -12.9600   20.2690 N   0  0  0  0  0  0  0  0  0  0  0  0
  -25.8990  -11.6730   20.5460 N   0  0  0  0  0  0  0  0  0  0  0  0
  -23.8840  -10.4390   21.0500 C   0  0  0  0  0  0  0  0  0  0  0  0
  -24.3330   -9.4780   21.9790 C   0  0  0  0  0  3  0  0  0  0  0  0
  -23.6150   -8.2800   22.1660 C   0  0  0  0  0  3  0  0  0  0  0  0
  -22.4330   -8.0340   21.4260 C   0  0  0  0  0  0  0  0  0  0  0  0
  -22.0030   -8.9870   20.4900 C   0  0  0  0  0  3  0  0  0  0  0  0
  -22.7220  -10.1790   20.2970 C   0  0  0  0  0  3  0  0  0  0  0  0
  -21.6790   -6.8910   21.5280 O   0  0  0  0  0  0  0  0  0  0  0  0
  -21.6560   -6.1430   22.6780 C   0  0  0  0  0  0  0  0  0  0  0  0
  -21.2530   -6.6900   23.9140 C   0  0  0  0  0  3  0  0  0  0  0  0
  -21.1740   -5.8680   25.0550 C   0  0  0  0  0  3  0  0  0  0  0  0
  -21.4910   -4.5000   24.9580 C   0  0  0  0  0  0  0  0  0  0  0  0
  -21.8910   -3.9530   23.7260 C   0  0  0  0  0  3  0  0  0  0  0  0
  -21.9660   -4.7710   22.5890 C   0  0  0  0  0  0  0  0  0  0  0  0
  -22.3290   -4.2370   21.3990 F   0  0  0  0  0  0  0  0  0  0  0  0
  -21.4040   -3.7070   26.0510 F   0  0  0  0  0  0  0  0  0  0  0  0
  -22.7280  -13.5150   21.1480 C   0  0  0  0  0  0  0  0  0  0  0  0
  -22.0150  -12.8310   22.0340 N   0  0  0  0  0  0  0  0  0  0  0  0
  -22.2790  -14.5290   20.6150 O   0  0  0  0  0  0  0  0  0  0  0  0
  -22.3990  -12.0240   22.5030 H   0  0  0  0  0  0  0  0  0  0  0  0
  -21.0660  -13.1160   22.2400 H   0  0  0  0  0  0  0  0  0  0  0  0
  -25.2750  -15.1800   20.2960 N   0  0  0  0  0  0  0  0  0  0  0  0
  -24.4590  -15.7750   20.3750 H   0  0  0  0  0  0  0  0  0  0  0  0
  -26.0870  -15.6600   19.9370 H   0  0  0  0  0  0  0  0  0  0  0  0
  -27.5760  -23.4660   20.1780 C   0  0  0  0  0  2  0  0  0  0  0  0
  -28.2950  -24.9030   20.6130 C   0  0  0  0  0  3  0  0  0  0  0  0
  -29.7920  -24.6660   20.8500 C   0  0  0  0  0  0  0  0  0  0  0  0
  -30.2100  -24.0150   22.1640 C   0  0  0  0  0  1  0  0  0  0  0  0
  -30.6300  -24.9660   19.9910 O   0  0  0  0  0  0  0  0  0  0  0  0
  -28.2090  -26.3070   20.0070 O   0  0  0  0  0  0  0  0  0  0  0  0
  -24.6090  -31.8730   23.2090 C   0  0  0  0  0  0  0  0  0  0  0  0
  -27.1190  -27.2030   20.1270 C   0  0  0  0  0  0  0  0  0  0  0  0
  -23.3890  -30.4920   21.5820 C   0  0  0  0  0  3  0  0  0  0  0  0
  -24.8060  -28.9190   20.1410 C   0  0  0  0  0  0  0  0  0  0  0  0
  -25.9380  -30.7590   21.3810 C   0  0  0  0  0  2  0  0  0  0  0  0
  -25.9960  -29.3710   20.7290 C   0  0  0  0  0  0  0  0  0  0  0  0
  -27.1590  -28.5280   20.7050 C   0  0  0  0  0  3  0  0  0  0  0  0
  -25.9090  -26.8280   19.5150 C   0  0  0  0  0  3  0  0  0  0  0  0
  -24.7700  -27.6570   19.5290 C   0  0  0  0  0  3  0  0  0  0  0  0
  -23.5880  -29.8230   20.2000 C   0  0  0  0  0  2  0  0  0  0  0  0
  -24.6690  -31.0580   22.1140 N   0  0  0  0  0  0  0  0  0  0  0  0
  -23.5310  -32.1590   23.7480 O   0  0  0  0  0  0  0  0  0  0  0  0
  -22.7240  -29.4740   22.5410 C   0  0  0  0  0  0  0  0  0  0  0  0
  -21.3940  -29.3040   22.4210 N   0  0  0  0  0  0  0  0  0  0  0  0
  -23.4030  -28.8390   23.3500 O   0  0  0  0  0  0  0  0  0  0  0  0
  -20.9050  -29.8630   21.7370 H   0  0  0  0  0  0  0  0  0  0  0  0
  -18.0160  -28.1270   22.9430 C   0  0  0  0  0  0  0  0  0  0  0  0
  -20.5780  -28.3690   23.1940 C   0  0  0  0  0  3  0  0  0  0  0  0
  -20.6660  -26.9410   22.6070 C   0  0  0  0  0  2  0  0  0  0  0  0
  -19.5550  -26.6320   21.6000 C   0  0  0  0  0  2  0  0  0  0  0  0
  -18.1780  -26.7810   22.2550 C   0  0  0  0  0  2  0  0  0  0  0  0
  -19.1410  -28.8800   23.3680 C   0  0  0  0  0  0  0  0  0  0  0  0
  -18.9310  -30.1420   23.9680 C   0  0  0  0  0  3  0  0  0  0  0  0
  -17.6310  -30.6450   24.1470 C   0  0  0  0  0  3  0  0  0  0  0  0
  -16.5190  -29.8880   23.7390 C   0  0  0  0  0  3  0  0  0  0  0  0
  -16.7140  -28.6300   23.1400 C   0  0  0  0  0  3  0  0  0  0  0  0
  -25.8990  -32.4990   23.8230 C   0  0  0  0  0  3  0  0  0  0  0  0
  -26.4120  -31.7240   25.0970 C   0  0  1  0  0  0  0  0  0  0  0  0
  -25.3170  -31.4870   26.1620 C   0  0  0  0  0  1  0  0  0  0  0  0
  -26.9820  -30.3420   24.6980 C   0  0  0  0  0  1  0  0  0  0  0  0
  -27.5630  -32.5160   25.7610 C   0  0  0  0  0  1  0  0  0  0  0  0
  -25.5940  -33.8990   24.1540 N   0  0  0  0  0  0  0  0  0  0  0  0
  -25.9280  -34.9570   23.4060 C   0  0  0  0  0  0  0  0  0  0  0  0
  -26.5960  -34.8600   22.3710 O   0  0  0  0  0  0  0  0  0  0  0  0
  -24.9830  -34.0470   24.9450 H   0  0  0  0  0  0  0  0  0  0  0  0
  -24.2010  -36.7600   23.0860 C   0  0  0  0  0  1  0  0  0  0  0  0
  -25.4490  -36.3420   23.8810 C   0  0  0  0  0  3  0  0  0  0  0  0
  -27.5910  -37.2190   24.7010 C   0  0  0  0  0  1  0  0  0  0  0  0
  -26.4810  -37.3950   23.7670 N   0  0  0  0  0  0  0  0  0  0  0  0
  -26.0760  -38.3140   23.9250 H   0  0  0  0  0  0  0  0  0  0  0  0
  1  3  1  0
  1  2  1  0
  2  4  1  0
  3  5  1  0
  4 16  1  0
  5 50  1  0
  5  4  1  0
  5  6  1  6
  7 19  1  0
  8 13  1  0
  9 10  1  0
  9  8  1  0
 11 10  1  0
 11 25  1  0
 11 12  1  0
 13  7  1  0
 13 12  1  0
 14  7  2  0
 15 20  1  0
 15 16  2  0
 16 18  1  0
 17 18  2  0
 17 19  1  0
 19 21  1  0
 20 17  1  0
 22 23  2  0
 23 42  1  0
 24 23  1  0
 24 27  1  0
 25 22  1  0
 25 26  1  0
 26 24  2  0
 27 28  1  0
 28 29  2  0
 30 33  1  0
 30 29  1  0
 31 30  2  0
 32 31  1  0
 32 27  2  0
 33 34  1  0
 34 35  1  0
 35 36  2  0
 37 36  1  0
 37 41  1  0
 38 37  2  0
 39 34  2  0
 39 38  1  0
 40 39  1  0
 42 43  1  0
 43 46  1  0
 43 45  1  0
 44 42  2  0
 47 48  1  0
 47 22  1  0
 49 47  1  0
 51 50  1  0
 51 52  1  0
 52 53  1  0
 54 52  2  0
 55 57  1  0
 55 51  1  0
 56 67  2  0
 57 62  1  0
 58 66  1  0
 58 68  1  0
 59 65  1  0
 59 61  1  0
 60 66  1  0
 61 60  1  0
 62 61  2  0
 63 64  1  0
 63 57  2  0
 64 59  2  0
 65 58  1  0
 66 56  1  0
 68 70  2  0
 69 68  1  0
 71 69  1  0
 72 81  2  0
 72 77  1  0
 73 69  1  0
 73 77  1  0
 74 73  1  0
 75 76  1  0
 75 74  1  0
 76 72  1  0
 77 78  2  0
 78 79  1  0
 80 79  2  0
 81 80  1  0
 82 56  1  0
 82 87  1  0
 82 83  1  0
 83 86  1  1
 83 84  1  0
 85 83  1  0
 87 90  1  0
 88 92  1  0
 88 87  1  0
 89 88  2  0
 92 91  1  0
 94 92  1  0
 94 95  1  0
 94 93  1  0
M  ISO  4   7 100  19 100  51 101  55 101
M  END
>  <TORSDO>  (4) 
F 19

>  <SCORE>  (4) 
-14.493

>  <name>  (4) 
3

>  <ligand_id>  (4) 
3

>  <original_smiles>  (4) 
[H]c1sc(N([H])C(=O)N2C([H])([H])C([H])([H])C([H])([H])C([H])(n3nc(-c4c([H])c([H])c(Oc5c([H])c([H])c(F)c([H])c5F)c([H])c4[H])c(C(=O)N([H])[H])c3N([H])[H])C2([H])[H])nc1C1([H])C([H])([H])C([H])([H])C([H])([H])[N+]1([H])C([H])([H])C([H])(Oc1c([H])c([H])c2c(c1[H])C([H])([H])N(C(=O)C([H])(N([H])C(=O)C([H])(N([H])C([H])([H])[H])C([H])([H])[H])C(C([H])([H])[H])(C([H])([H])[H])C([H])([H])[H])C([H])(C(=O)N([H])C1([H])c3c([H])c([H])c([H])c([H])c3C([H])([H])C([H])([H])C1([H])[H])C2([H])[H])C(=O)C([H])([H])[H]

>  <smiles>  (4) 
[H]c1sc(N([H])C(=O)N2C([H])([H])C([H])([H])C([H])([H])C([H])(n3nc(-c4c([H])c([H])c(Oc5c([H])c([H])c(F)c([H])c5F)c([H])c4[H])c(C(=O)N([H])[H])c3N([H])[H])C2([H])[H])nc1C1([H])C([H])([H])C([H])([H])C([H])([H])[N+]1([H])C([H])([H])C([H])(Oc1c([H])c([H])c2c(c1[H])C([H])([H])N(C(=O)C([H])(N([H])C(=O)C([H])(N([H])C([H])([H])[H])C([H])([H])[H])C(C([H])([H])[H])(C([H])([H])[H])C([H])([H])[H])C([H])(C(=O)N([H])C1([H])c3c([H])c([H])c([H])c([H])c3C([H])([H])C([H])([H])C1([H])[H])C2([H])[H])C(=O)C([H])([H])[H]

$$$$
4:0:0
     RDKit          3D

 97106  0  0  1  0  0  0  0  0999 V2000
  -29.9940  -22.7200   19.1640 C   0  0  0  0  0  2  0  0  0  0  0  0
  -28.0300  -22.5650   20.5610 C   0  0  0  0  0  2  0  0  0  0  0  0
  -30.6740  -21.4780   19.8870 C   0  0  0  0  0  2  0  0  0  0  0  0
  -28.6800  -21.3170   21.2480 C   0  0  0  0  0  2  0  0  0  0  0  0
  -29.0490  -23.6100   20.0550 C   0  0  1  0  0  0  0  0  0  0  0  0
  -29.7220  -20.5310   20.5140 N   0  0  0  0  0  0  0  0  0  0  0  0
  -29.7720  -24.0640   21.0800 F   0  0  0  0  0  0  0  0  0  0  0  0
  -30.1900  -19.5620   22.7610 C   0  0  0  0  0  3  0  0  0  0  0  0
  -30.2450  -19.4330   21.3290 C   0  0  0  0  0  0  0  0  0  0  0  0
  -30.7750  -18.1200   21.1040 C   0  0  0  0  0  0  0  0  0  0  0  0
  -30.5570  -18.3700   23.2760 C   0  0  0  0  0  0  0  0  0  0  0  0
  -30.9220  -17.5070   22.3270 O   0  0  0  0  0  0  0  0  0  0  0  0
  -31.6180  -14.6840   19.7280 C   0  0  0  0  0  0  0  0  0  0  0  0
  -31.1120  -12.5220   18.6150 C   0  0  0  0  0  2  0  0  0  0  0  0
  -30.1030  -12.8360   17.4890 C   0  0  0  0  0  2  0  0  0  0  0  0
  -28.6510  -12.8030   18.0140 C   0  0  0  0  0  2  0  0  0  0  0  0
  -28.4780  -13.5890   19.3420 C   0  0  0  0  0  3  0  0  0  0  0  0
  -29.5990  -13.2540   20.3510 C   0  0  0  0  0  2  0  0  0  0  0  0
  -30.8860  -13.5170   19.6860 N   0  0  0  0  0  0  0  0  0  0  0  0
  -32.7590  -14.7060   19.2580 O   0  0  0  0  0  0  0  0  0  0  0  0
  -31.2820  -17.1640   20.0250 C   0  0  0  0  0  0  0  0  0  0  0  0
  -30.9750  -15.8180   20.1780 N   0  0  0  0  0  0  0  0  0  0  0  0
  -31.9670  -17.6050   19.0960 O   0  0  0  0  0  0  0  0  0  0  0  0
  -30.1850  -15.6480   20.7750 H   0  0  0  0  0  0  0  0  0  0  0  0
  -26.2000  -14.3380   20.2610 C   0  0  0  0  0  0  0  0  0  0  0  0
  -25.1080  -13.6360   20.6910 C   0  0  0  0  0  0  0  0  0  0  0  0
  -25.4580  -12.2530   20.5880 C   0  0  0  0  0  0  0  0  0  0  0  0
  -27.1510  -13.3900   19.9210 N   0  0  0  0  0  0  0  0  0  0  0  0
  -26.7170  -12.1290   20.1800 N   0  0  0  0  0  0  0  0  0  0  0  0
  -24.6480  -11.0440   20.7910 C   0  0  0  0  0  0  0  0  0  0  0  0
  -25.0270  -10.0470   21.7190 C   0  0  0  0  0  3  0  0  0  0  0  0
  -24.2200   -8.9070   21.9130 C   0  0  0  0  0  3  0  0  0  0  0  0
  -23.0200   -8.7510   21.1810 C   0  0  0  0  0  0  0  0  0  0  0  0
  -22.6590   -9.7320   20.2410 C   0  0  0  0  0  3  0  0  0  0  0  0
  -23.4660  -10.8670   20.0430 C   0  0  0  0  0  3  0  0  0  0  0  0
  -22.1890   -7.6610   21.2850 O   0  0  0  0  0  0  0  0  0  0  0  0
  -22.0210   -6.9950   22.4720 C   0  0  0  0  0  0  0  0  0  0  0  0
  -21.5960   -7.6580   23.6460 C   0  0  0  0  0  3  0  0  0  0  0  0
  -21.3690   -6.9230   24.8260 C   0  0  0  0  0  3  0  0  0  0  0  0
  -21.5570   -5.5280   24.8330 C   0  0  0  0  0  0  0  0  0  0  0  0
  -21.9750   -4.8660   23.6670 C   0  0  0  0  0  3  0  0  0  0  0  0
  -22.2040   -5.5980   22.4880 C   0  0  0  0  0  0  0  0  0  0  0  0
  -22.5870   -4.9530   21.3600 F   0  0  0  0  0  0  0  0  0  0  0  0
  -21.3300   -4.8190   25.9660 F   0  0  0  0  0  0  0  0  0  0  0  0
  -23.7730  -14.2070   21.0830 C   0  0  0  0  0  0  0  0  0  0  0  0
  -23.0870  -13.5810   22.0300 N   0  0  0  0  0  0  0  0  0  0  0  0
  -23.3530  -15.2450   20.5710 O   0  0  0  0  0  0  0  0  0  0  0  0
  -23.4360  -12.7390   22.4650 H   0  0  0  0  0  0  0  0  0  0  0  0
  -22.1960  -13.9520   22.3360 H   0  0  0  0  0  0  0  0  0  0  0  0
  -26.4640  -15.6950   20.1120 N   0  0  0  0  0  0  0  0  0  0  0  0
  -25.7640  -16.4060   20.2910 H   0  0  0  0  0  0  0  0  0  0  0  0
  -27.3030  -16.0670   19.6910 H   0  0  0  0  0  0  0  0  0  0  0  0
  -30.5580  -18.0200   24.6160 N   0  0  0  0  0  0  0  0  0  0  0  0
  -30.0560  -18.6150   25.2730 H   0  0  0  0  0  0  0  0  0  0  0  0
  -30.4950  -17.0470   24.8870 H   0  0  0  0  0  0  0  0  0  0  0  0
  -28.3980  -24.9190   19.3690 C   0  0  0  0  0  2  0  0  0  0  0  0
  -28.2300  -26.1990   20.1120 O   0  0  0  0  0  0  0  0  0  0  0  0
  -24.5310  -31.6900   23.0320 C   0  0  0  0  0  0  0  0  0  0  0  0
  -27.0900  -27.0190   20.0550 C   0  0  0  0  0  0  0  0  0  0  0  0
  -23.3050  -30.2630   21.4350 C   0  0  0  0  0  3  0  0  0  0  0  0
  -24.7300  -28.6500   20.0460 C   0  0  0  0  0  0  0  0  0  0  0  0
  -25.8460  -30.5420   21.2320 C   0  0  0  0  0  2  0  0  0  0  0  0
  -25.9080  -29.1430   20.6220 C   0  0  0  0  0  0  0  0  0  0  0  0
  -27.0840  -28.3340   20.6240 C   0  0  0  0  0  3  0  0  0  0  0  0
  -25.8810  -26.5720   19.4780 C   0  0  0  0  0  3  0  0  0  0  0  0
  -24.7210  -27.3720   19.4700 C   0  0  0  0  0  3  0  0  0  0  0  0
  -23.5040  -29.5400   20.0770 C   0  0  0  0  0  2  0  0  0  0  0  0
  -24.5790  -30.8490   21.9560 N   0  0  0  0  0  0  0  0  0  0  0  0
  -23.4510  -31.9960   23.5610 O   0  0  0  0  0  0  0  0  0  0  0  0
  -22.6280  -29.2860   22.4270 C   0  0  0  0  0  0  0  0  0  0  0  0
  -21.2990  -29.1330   22.3110 N   0  0  0  0  0  0  0  0  0  0  0  0
  -23.2990  -28.6650   23.2550 O   0  0  0  0  0  0  0  0  0  0  0  0
  -20.8200  -29.6860   21.6120 H   0  0  0  0  0  0  0  0  0  0  0  0
  -17.9030  -27.9990   22.8560 C   0  0  0  0  0  0  0  0  0  0  0  0
  -20.4660  -28.2280   23.1060 C   0  0  0  0  0  3  0  0  0  0  0  0
  -20.5490  -26.7780   22.5710 C   0  0  0  0  0  2  0  0  0  0  0  0
  -19.4350  -26.4390   21.5760 C   0  0  0  0  0  2  0  0  0  0  0  0
  -18.0550  -26.6280   22.2200 C   0  0  0  0  0  2  0  0  0  0  0  0
  -19.0360  -28.7560   23.2600 C   0  0  0  0  0  0  0  0  0  0  0  0
  -18.8380  -30.0390   23.8160 C   0  0  0  0  0  3  0  0  0  0  0  0
  -17.5410  -30.5660   23.9720 C   0  0  0  0  0  3  0  0  0  0  0  0
  -16.4260  -29.8050   23.5820 C   0  0  0  0  0  3  0  0  0  0  0  0
  -16.6070  -28.5260   23.0290 C   0  0  0  0  0  3  0  0  0  0  0  0
  -25.8210  -32.3240   23.6370 C   0  0  0  0  0  3  0  0  0  0  0  0
  -26.3970  -31.5080   24.8610 C   0  0  1  0  0  0  0  0  0  0  0  0
  -25.3440  -31.1980   25.9540 C   0  0  0  0  0  1  0  0  0  0  0  0
  -26.9950  -30.1640   24.3860 C   0  0  0  0  0  1  0  0  0  0  0  0
  -27.5520  -32.2990   25.5200 C   0  0  0  0  0  1  0  0  0  0  0  0
  -25.4960  -33.6990   24.0420 N   0  0  0  0  0  0  0  0  0  0  0  0
  -25.7860  -34.7930   23.3240 C   0  0  0  0  0  0  0  0  0  0  0  0
  -26.4280  -34.7510   22.2720 O   0  0  0  0  0  0  0  0  0  0  0  0
  -24.9160  -33.8030   24.8620 H   0  0  0  0  0  0  0  0  0  0  0  0
  -24.0170  -36.5690   23.1040 C   0  0  0  0  0  1  0  0  0  0  0  0
  -25.2890  -36.1500   23.8600 C   0  0  0  0  0  3  0  0  0  0  0  0
  -27.4320  -37.0360   24.6680 C   0  0  0  0  0  1  0  0  0  0  0  0
  -26.2990  -37.2270   23.7640 N   0  0  0  0  0  0  0  0  0  0  0  0
  -25.8820  -38.1320   23.9660 H   0  0  0  0  0  0  0  0  0  0  0  0
  1  3  1  0
  1  5  1  0
  2  4  1  0
  3  6  1  0
  5  2  1  0
  5  7  1  1
  6  4  1  0
  6  9  1  0
  8 11  2  0
  9  8  1  0
 10  9  2  0
 10 12  1  0
 11 53  1  0
 12 11  1  0
 13 22  1  0
 14 19  1  0
 15 16  1  0
 15 14  1  0
 17 16  1  0
 17 28  1  0
 17 18  1  0
 19 13  1  0
 19 18  1  0
 20 13  2  0
 21 22  1  0
 21 10  1  0
 22 24  1  0
 23 21  2  0
 25 26  2  0
 26 45  1  0
 27 26  1  0
 27 30  1  0
 28 29  1  0
 28 25  1  0
 29 27  2  0
 30 31  1  0
 31 32  2  0
 33 36  1  0
 33 32  1  0
 34 33  2  0
 35 34  1  0
 35 30  2  0
 36 37  1  0
 37 42  2  0
 37 38  1  0
 38 39  2  0
 39 40  1  0
 40 44  1  0
 41 40  2  0
 42 41  1  0
 43 42  1  0
 45 46  1  0
 46 49  1  0
 46 48  1  0
 47 45  2  0
 50 25  1  0
 50 51  1  0
 52 50  1  0
 53 55  1  0
 53 54  1  0
 56  5  1  0
 56 57  1  0
 58 69  2  0
 59 57  1  0
 59 64  1  0
 60 68  1  0
 60 70  1  0
 61 67  1  0
 61 63  1  0
 62 68  1  0
 63 64  2  0
 63 62  1  0
 65 59  2  0
 66 65  1  0
 66 61  2  0
 67 60  1  0
 68 58  1  0
 70 72  2  0
 71 70  1  0
 73 71  1  0
 74 83  2  0
 74 79  1  0
 75 71  1  0
 75 79  1  0
 76 75  1  0
 77 78  1  0
 77 76  1  0
 78 74  1  0
 79 80  2  0
 80 81  1  0
 82 81  2  0
 83 82  1  0
 84 58  1  0
 84 89  1  0
 84 85  1  0
 85 88  1  1
 85 86  1  0
 87 85  1  0
 89 92  1  0
 90 94  1  0
 90 89  1  0
 91 90  2  0
 94 93  1  0
 96 94  1  0
 96 97  1  0
 96 95  1  0
M  ISO  4  13 100  22 100  56 101  57 101
M  END
>  <TORSDO>  (5) 
F 19

>  <SCORE>  (5) 
-11.446

>  <name>  (5) 
4

>  <ligand_id>  (5) 
4

>  <original_smiles>  (5) 
[H]c1c([H])c([H])c2c(c1[H])C([H])([H])C([H])([H])C([H])([H])C2([H])N([H])C(=O)C1([H])N(C(=O)C([H])(N([H])C(=O)C([H])(N([H])C([H])([H])[H])C([H])([H])[H])C(C([H])([H])[H])(C([H])([H])[H])C([H])([H])[H])C([H])([H])c2c([H])c(OC([H])([H])C3(F)C([H])([H])C([H])([H])N(c4c(C(=O)N([H])C(=O)N5C([H])([H])C([H])([H])C([H])([H])C([H])(n6nc(-c7c([H])c([H])c(Oc8c([H])c([H])c(F)c([H])c8F)c([H])c7[H])c(C(=O)N([H])[H])c6N([H])[H])C5([H])[H])oc(N([H])[H])c4[H])C([H])([H])C3([H])[H])c([H])c([H])c2C1([H])[H]

>  <smiles>  (5) 
[H]c1c([H])c([H])c2c(c1[H])C([H])([H])C([H])([H])C([H])([H])C2([H])N([H])C(=O)C1([H])N(C(=O)C([H])(N([H])C(=O)C([H])(N([H])C([H])([H])[H])C([H])([H])[H])C(C([H])([H])[H])(C([H])([H])[H])C([H])([H])[H])C([H])([H])c2c([H])c(OC([H])([H])C3(F)C([H])([H])C([H])([H])N(c4c(C(=O)N([H])C(=O)N5C([H])([H])C([H])([H])C([H])([H])C([H])(n6nc(-c7c([H])c([H])c(Oc8c([H])c([H])c(F)c([H])c8F)c([H])c7[H])c(C(=O)N([H])[H])c6N([H])[H])C5([H])[H])oc(N([H])[H])c4[H])C([H])([H])C3([H])[H])c([H])c([H])c2C1([H])[H]

$$$$
5:0:0
     RDKit          3D

 91100  0  0  1  0  0  0  0  0999 V2000
  -28.4480  -23.6320   20.4030 C   0  0  0  0  0  0  0  0  0  0  0  0
  -29.2010  -22.5720   20.8600 C   0  0  0  0  0  0  0  0  0  0  0  0
  -27.5240  -23.0890   19.3420 C   0  0  0  0  0  3  0  0  0  0  0  0
  -27.8290  -21.5540   19.3020 C   0  0  0  0  0  3  0  0  0  0  0  0
  -30.1730  -22.6080   22.0230 C   0  0  0  0  0  1  0  0  0  0  0  0
  -28.9100  -21.3060   20.2600 N   0  0  0  0  0  0  0  0  0  0  0  0
  -30.7210  -19.5240   20.7750 C   0  0  0  0  0  3  0  0  0  0  0  0
  -30.9460  -18.0820   20.7970 C   0  0  0  0  0  3  0  0  0  0  0  0
  -29.4540  -19.9490   20.4230 C   0  0  0  0  0  0  0  0  0  0  0  0
  -29.8550  -17.2850   20.5040 C   0  0  0  0  0  0  0  0  0  0  0  0
  -28.5240  -18.4400   20.1360 S   0  0  0  0  0  0  0  0  0  0  0  0
  -30.5350  -14.7950   20.3150 C   0  0  0  0  0  0  0  0  0  0  0  0
  -30.3750  -12.5130   19.2940 C   0  0  0  0  0  2  0  0  0  0  0  0
  -29.4150  -12.5680   18.0830 C   0  0  0  0  0  2  0  0  0  0  0  0
  -27.9510  -12.3830   18.5300 C   0  0  0  0  0  2  0  0  0  0  0  0
  -27.5820  -13.2710   19.7480 C   0  0  0  0  0  3  0  0  0  0  0  0
  -28.6530  -13.1800   20.8570 C   0  0  0  0  0  2  0  0  0  0  0  0
  -29.9400  -13.5520   20.2550 N   0  0  0  0  0  0  0  0  0  0  0  0
  -31.7170  -14.9300   19.9830 O   0  0  0  0  0  0  0  0  0  0  0  0
  -29.6930  -15.8820   20.5270 N   0  0  0  0  0  0  0  0  0  0  0  0
  -28.7390  -15.5870   20.6700 H   0  0  0  0  0  0  0  0  0  0  0  0
  -25.1990  -13.8650   20.4950 C   0  0  0  0  0  0  0  0  0  0  0  0
  -24.1360  -13.0900   20.8740 C   0  0  0  0  0  0  0  0  0  0  0  0
  -24.5990  -11.7390   20.8400 C   0  0  0  0  0  0  0  0  0  0  0  0
  -26.2400  -12.9850   20.2490 N   0  0  0  0  0  0  0  0  0  0  0  0
  -25.8870  -11.7020   20.5200 N   0  0  0  0  0  0  0  0  0  0  0  0
  -23.8740  -10.4770   21.0350 C   0  0  0  0  0  0  0  0  0  0  0  0
  -24.3180   -9.5050   21.9600 C   0  0  0  0  0  3  0  0  0  0  0  0
  -23.5940   -8.3090   22.1440 C   0  0  0  0  0  3  0  0  0  0  0  0
  -22.4130   -8.0720   21.4010 C   0  0  0  0  0  0  0  0  0  0  0  0
  -21.9880   -9.0320   20.4640 C   0  0  0  0  0  3  0  0  0  0  0  0
  -22.7140  -10.2200   20.2790 C   0  0  0  0  0  3  0  0  0  0  0  0
  -21.6610   -6.9270   21.4930 O   0  0  0  0  0  0  0  0  0  0  0  0
  -21.6280   -6.1750   22.6410 C   0  0  0  0  0  0  0  0  0  0  0  0
  -21.2220   -6.7240   23.8770 C   0  0  0  0  0  3  0  0  0  0  0  0
  -21.1350   -5.9010   25.0170 C   0  0  0  0  0  3  0  0  0  0  0  0
  -21.4480   -4.5310   24.9240 C   0  0  0  0  0  0  0  0  0  0  0  0
  -21.8470   -3.9820   23.6930 C   0  0  0  0  0  3  0  0  0  0  0  0
  -21.9350   -4.8030   22.5540 C   0  0  0  0  0  0  0  0  0  0  0  0
  -22.2990   -4.2650   21.3650 F   0  0  0  0  0  0  0  0  0  0  0  0
  -21.3580   -3.7380   26.0170 F   0  0  0  0  0  0  0  0  0  0  0  0
  -22.7400  -13.5660   21.1560 C   0  0  0  0  0  0  0  0  0  0  0  0
  -22.0170  -12.8690   22.0250 N   0  0  0  0  0  0  0  0  0  0  0  0
  -22.2990  -14.5930   20.6420 O   0  0  0  0  0  0  0  0  0  0  0  0
  -22.3840  -12.0330   22.4580 H   0  0  0  0  0  0  0  0  0  0  0  0
  -21.0830  -13.1740   22.2590 H   0  0  0  0  0  0  0  0  0  0  0  0
  -25.3610  -15.2360   20.3150 N   0  0  0  0  0  0  0  0  0  0  0  0
  -24.5930  -15.8880   20.4330 H   0  0  0  0  0  0  0  0  0  0  0  0
  -26.1910  -15.6720   19.9330 H   0  0  0  0  0  0  0  0  0  0  0  0
  -28.2420  -25.1180   20.9910 C   0  0  0  0  0  2  0  0  0  0  0  0
  -28.3220  -26.3820   20.1820 O   0  0  0  0  0  0  0  0  0  0  0  0
  -24.6120  -31.8740   23.2420 C   0  0  0  0  0  0  0  0  0  0  0  0
  -27.2240  -27.2750   20.2030 C   0  0  0  0  0  0  0  0  0  0  0  0
  -23.4100  -30.4730   21.6050 C   0  0  0  0  0  3  0  0  0  0  0  0
  -24.8640  -28.9130   20.1820 C   0  0  0  0  0  0  0  0  0  0  0  0
  -25.9510  -30.7870   21.4170 C   0  0  0  0  0  2  0  0  0  0  0  0
  -26.0360  -29.4010   20.7760 C   0  0  0  0  0  0  0  0  0  0  0  0
  -27.2230  -28.5960   20.7700 C   0  0  0  0  0  3  0  0  0  0  0  0
  -26.0300  -26.8500   19.5890 C   0  0  0  0  0  3  0  0  0  0  0  0
  -24.8660  -27.6480   19.5740 C   0  0  0  0  0  3  0  0  0  0  0  0
  -23.6250  -29.7900   20.2280 C   0  0  0  0  0  2  0  0  0  0  0  0
  -24.6760  -31.0640   22.1450 N   0  0  0  0  0  0  0  0  0  0  0  0
  -23.5270  -32.1510   23.7790 O   0  0  0  0  0  0  0  0  0  0  0  0
  -22.7450  -29.4610   22.5700 C   0  0  0  0  0  0  0  0  0  0  0  0
  -21.4190  -29.2800   22.4460 N   0  0  0  0  0  0  0  0  0  0  0  0
  -23.4240  -28.8380   23.3900 O   0  0  0  0  0  0  0  0  0  0  0  0
  -20.9280  -29.8320   21.7570 H   0  0  0  0  0  0  0  0  0  0  0  0
  -18.0450  -28.0710   22.9530 C   0  0  0  0  0  0  0  0  0  0  0  0
  -20.6030  -28.3430   23.2210 C   0  0  0  0  0  3  0  0  0  0  0  0
  -20.7130  -26.9110   22.6490 C   0  0  0  0  0  2  0  0  0  0  0  0
  -19.6120  -26.5800   21.6360 C   0  0  0  0  0  2  0  0  0  0  0  0
  -18.2290  -26.7230   22.2780 C   0  0  0  0  0  2  0  0  0  0  0  0
  -19.1610  -28.8390   23.3810 C   0  0  0  0  0  0  0  0  0  0  0  0
  -18.9360  -30.1030   23.9690 C   0  0  0  0  0  3  0  0  0  0  0  0
  -17.6280  -30.5950   24.1390 C   0  0  0  0  0  3  0  0  0  0  0  0
  -16.5270  -29.8250   23.7250 C   0  0  0  0  0  3  0  0  0  0  0  0
  -16.7370  -28.5640   23.1370 C   0  0  0  0  0  3  0  0  0  0  0  0
  -25.8900  -32.5130   23.8650 C   0  0  0  0  0  3  0  0  0  0  0  0
  -25.5810  -33.9130   24.1910 N   0  0  0  0  0  0  0  0  0  0  0  0
  -25.9120  -34.9640   23.4290 C   0  0  0  0  0  0  0  0  0  0  0  0
  -26.5780  -34.8580   22.3960 O   0  0  0  0  0  0  0  0  0  0  0  0
  -24.9960  -34.0720   24.9990 H   0  0  0  0  0  0  0  0  0  0  0  0
  -24.1830  -36.7550   23.0740 C   0  0  0  0  0  1  0  0  0  0  0  0
  -25.4270  -36.3540   23.8820 C   0  0  0  0  0  3  0  0  0  0  0  0
  -27.5660  -37.2390   24.7050 C   0  0  0  0  0  1  0  0  0  0  0  0
  -26.4610  -37.4060   23.7640 N   0  0  0  0  0  0  0  0  0  0  0  0
  -26.0550  -38.3250   23.9140 H   0  0  0  0  0  0  0  0  0  0  0  0
  -26.4060  -31.7490   25.1450 C   0  0  1  0  0  0  0  0  0  0  0  0
  -25.3110  -31.5220   26.2140 C   0  0  0  0  0  1  0  0  0  0  0  0
  -26.9840  -30.3680   24.7630 C   0  0  0  0  0  1  0  0  0  0  0  0
  -27.5600  -32.5420   25.8030 C   0  0  0  0  0  1  0  0  0  0  0  0
  1  2  2  0
  1 50  1  0
  2  5  1  0
  3  1  1  0
  4  3  2  0
  4  6  1  0
  6  9  1  0
  6  2  1  0
  7  8  1  0
  9  7  2  0
 10 20  1  0
 10  8  2  0
 11  9  1  0
 11 10  1  0
 12 20  1  0
 13 18  1  0
 14 15  1  0
 14 13  1  0
 16 15  1  0
 16 25  1  0
 16 17  1  0
 18 12  1  0
 18 17  1  0
 19 12  2  0
 20 21  1  0
 22 23  2  0
 23 42  1  0
 24 23  1  0
 24 27  1  0
 25 22  1  0
 25 26  1  0
 26 24  2  0
 27 28  1  0
 28 29  2  0
 30 33  1  0
 30 29  1  0
 31 30  2  0
 32 31  1  0
 32 27  2  0
 33 34  1  0
 34 35  1  0
 35 36  2  0
 37 36  1  0
 37 41  1  0
 38 37  2  0
 39 34  2  0
 39 38  1  0
 40 39  1  0
 42 43  1  0
 43 46  1  0
 43 45  1  0
 44 42  2  0
 47 48  1  0
 47 22  1  0
 49 47  1  0
 51 53  1  0
 51 50  1  0
 52 63  2  0
 53 58  1  0
 54 62  1  0
 54 64  1  0
 55 61  1  0
 55 57  1  0
 56 62  1  0
 57 56  1  0
 58 57  2  0
 59 53  2  0
 60 59  1  0
 60 55  2  0
 61 54  1  0
 62 52  1  0
 64 66  2  0
 65 64  1  0
 67 65  1  0
 68 77  2  0
 68 73  1  0
 69 65  1  0
 69 73  1  0
 70 69  1  0
 71 72  1  0
 71 70  1  0
 72 68  1  0
 73 74  2  0
 74 75  1  0
 76 75  2  0
 77 76  1  0
 78 52  1  0
 78 79  1  0
 78 88  1  0
 79 82  1  0
 80 84  1  0
 80 79  1  0
 81 80  2  0
 84 83  1  0
 86 84  1  0
 86 87  1  0
 86 85  1  0
 88 91  1  1
 88 89  1  0
 90 88  1  0
M  ISO  4  12 100  20 100  50 101  51 101
M  END
>  <TORSDO>  (6) 
F 18

>  <SCORE>  (6) 
-14.917

>  <name>  (6) 
5

>  <ligand_id>  (6) 
5

>  <original_smiles>  (6) 
[H]c1c(N([H])C(=O)N2C([H])([H])C([H])([H])C([H])([H])C([H])(n3nc(-c4c([H])c([H])c(Oc5c([H])c([H])c(F)c([H])c5F)c([H])c4[H])c(C(=O)N([H])[H])c3N([H])[H])C2([H])[H])sc(N2C(C([H])([H])[H])=C(C([H])([H])Oc3c([H])c([H])c4c(c3[H])C([H])([H])N(C(=O)C([H])(N([H])C(=O)C([H])(N([H])C([H])([H])[H])C([H])([H])[H])C(C([H])([H])[H])(C([H])([H])[H])C([H])([H])[H])C([H])(C(=O)N([H])C3([H])c5c([H])c([H])c([H])c([H])c5C([H])([H])C([H])([H])C3([H])[H])C4([H])[H])C([H])([H])C2([H])[H])c1[H]

>  <smiles>  (6) 
[H]c1c(N([H])C(=O)N2C([H])([H])C([H])([H])C([H])([H])C([H])(n3nc(-c4c([H])c([H])c(Oc5c([H])c([H])c(F)c([H])c5F)c([H])c4[H])c(C(=O)N([H])[H])c3N([H])[H])C2([H])[H])sc(N2C(C([H])([H])[H])=C(C([H])([H])Oc3c([H])c([H])c4c(c3[H])C([H])([H])N(C(=O)C([H])(N([H])C(=O)C([H])(N([H])C([H])([H])[H])C([H])([H])[H])C(C([H])([H])[H])(C([H])([H])[H])C([H])([H])[H])C([H])(C(=O)N([H])C3([H])c5c([H])c([H])c([H])c([H])c5C([H])([H])C([H])([H])C3([H])[H])C4([H])[H])C([H])([H])C2([H])[H])c1[H]

$$$$
6:0:0
     RDKit          3D

 93102  0  0  1  0  0  0  0  0999 V2000
  -28.8680  -23.6880   20.3170 C   0  0  0  0  0  0  0  0  0  0  0  0
  -26.4170  -21.8590   18.9120 C   0  0  0  0  0  2  0  0  0  0  0  0
  -27.0440  -20.6340   19.5700 C   0  0  0  0  0  2  0  0  0  0  0  0
  -27.6460  -22.6300   18.4480 C   0  0  0  0  0  2  0  0  0  0  0  0
  -28.4350  -21.0740   20.0980 C   0  0  0  0  0  3  0  0  0  0  0  0
  -28.5510  -22.5330   19.5940 N   0  0  0  0  0  0  0  0  0  0  0  0
  -29.8710  -23.7010   21.0380 O   0  0  0  0  0  0  0  0  0  0  0  0
  -31.5200  -19.1670   18.6390 C   0  0  0  0  0  3  0  0  0  0  0  0
  -30.6070  -20.1860   18.9770 C   0  0  0  0  0  3  0  0  0  0  0  0
  -31.3470  -17.8320   19.0690 C   0  0  0  0  0  3  0  0  0  0  0  0
  -29.3060  -18.5100   20.1730 C   0  0  0  0  0  3  0  0  0  0  0  0
  -29.4700  -19.9020   19.7570 C   0  0  0  0  0  0  0  0  0  0  0  0
  -30.2350  -17.4360   19.8530 C   0  0  0  0  0  0  0  0  0  0  0  0
  -30.8270  -14.8710   19.9910 C   0  0  0  0  0  0  0  0  0  0  0  0
  -30.5800  -12.6110   18.9770 C   0  0  0  0  0  2  0  0  0  0  0  0
  -29.5780  -12.7180   17.8070 C   0  0  0  0  0  2  0  0  0  0  0  0
  -28.1350  -12.5370   18.3150 C   0  0  0  0  0  2  0  0  0  0  0  0
  -27.8300  -13.3970   19.5670 C   0  0  0  0  0  3  0  0  0  0  0  0
  -28.9460  -13.2850   20.6280 C   0  0  0  0  0  2  0  0  0  0  0  0
  -30.2080  -13.6430   19.9690 N   0  0  0  0  0  0  0  0  0  0  0  0
  -32.0100  -14.9540   19.6410 O   0  0  0  0  0  0  0  0  0  0  0  0
  -30.0470  -16.0010   20.2270 N   0  0  0  0  0  0  0  0  0  0  0  0
  -29.1390  -15.7760   20.6080 H   0  0  0  0  0  0  0  0  0  0  0  0
  -25.5000  -13.9760   20.4700 C   0  0  0  0  0  0  0  0  0  0  0  0
  -24.4530  -13.1960   20.8750 C   0  0  0  0  0  0  0  0  0  0  0  0
  -24.9010  -11.8450   20.7640 C   0  0  0  0  0  0  0  0  0  0  0  0
  -26.5170  -13.0990   20.1300 N   0  0  0  0  0  0  0  0  0  0  0  0
  -26.1680  -11.8100   20.3700 N   0  0  0  0  0  0  0  0  0  0  0  0
  -24.1760  -10.5800   20.9450 C   0  0  0  0  0  0  0  0  0  0  0  0
  -24.5920   -9.6190   21.8950 C   0  0  0  0  0  3  0  0  0  0  0  0
  -23.8670   -8.4200   22.0630 C   0  0  0  0  0  3  0  0  0  0  0  0
  -22.7120   -8.1740   21.2840 C   0  0  0  0  0  0  0  0  0  0  0  0
  -22.3150   -9.1230   20.3260 C   0  0  0  0  0  3  0  0  0  0  0  0
  -23.0390  -10.3140   20.1540 C   0  0  0  0  0  3  0  0  0  0  0  0
  -21.9590   -7.0270   21.3610 O   0  0  0  0  0  0  0  0  0  0  0  0
  -21.8020   -6.3500   22.5450 C   0  0  0  0  0  0  0  0  0  0  0  0
  -21.2140   -6.9540   23.6760 C   0  0  0  0  0  3  0  0  0  0  0  0
  -21.0070   -6.2010   24.8500 C   0  0  0  0  0  3  0  0  0  0  0  0
  -21.3770   -4.8430   24.8900 C   0  0  0  0  0  0  0  0  0  0  0  0
  -21.9590   -4.2380   23.7620 C   0  0  0  0  0  3  0  0  0  0  0  0
  -22.1680   -4.9900   22.5920 C   0  0  0  0  0  0  0  0  0  0  0  0
  -22.7090   -4.3960   21.5010 F   0  0  0  0  0  0  0  0  0  0  0  0
  -21.1720   -4.1160   26.0140 F   0  0  0  0  0  0  0  0  0  0  0  0
  -23.0800  -13.6740   21.2500 C   0  0  0  0  0  0  0  0  0  0  0  0
  -22.3950  -12.9530   22.1300 N   0  0  0  0  0  0  0  0  0  0  0  0
  -22.6220  -14.7230   20.7970 O   0  0  0  0  0  0  0  0  0  0  0  0
  -22.7760  -12.1030   22.5210 H   0  0  0  0  0  0  0  0  0  0  0  0
  -21.4760  -13.2570   22.4200 H   0  0  0  0  0  0  0  0  0  0  0  0
  -25.6670  -15.3530   20.3360 N   0  0  0  0  0  0  0  0  0  0  0  0
  -24.9030  -16.0020   20.4950 H   0  0  0  0  0  0  0  0  0  0  0  0
  -26.4820  -15.7930   19.9290 H   0  0  0  0  0  0  0  0  0  0  0  0
  -27.8560  -24.9440   20.4220 C   0  0  0  0  0  2  0  0  0  0  0  0
  -28.2750  -26.3680   20.1200 O   0  0  0  0  0  0  0  0  0  0  0  0
  -24.5810  -31.8580   23.1810 C   0  0  0  0  0  0  0  0  0  0  0  0
  -27.2180  -27.3120   20.0640 C   0  0  0  0  0  0  0  0  0  0  0  0
  -23.4010  -30.4950   21.4950 C   0  0  0  0  0  3  0  0  0  0  0  0
  -24.8740  -28.9800   20.0530 C   0  0  0  0  0  0  0  0  0  0  0  0
  -25.9480  -30.7990   21.3660 C   0  0  0  0  0  2  0  0  0  0  0  0
  -26.0370  -29.4320   20.6900 C   0  0  0  0  0  0  0  0  0  0  0  0
  -27.2140  -28.6070   20.6910 C   0  0  0  0  0  3  0  0  0  0  0  0
  -26.0410  -26.9580   19.3670 C   0  0  0  0  0  3  0  0  0  0  0  0
  -24.8840  -27.7520   19.3790 C   0  0  0  0  0  3  0  0  0  0  0  0
  -23.6420  -29.8600   20.1030 C   0  0  0  0  0  2  0  0  0  0  0  0
  -24.6600  -31.0670   22.0710 N   0  0  0  0  0  0  0  0  0  0  0  0
  -23.4880  -32.1280   23.7050 O   0  0  0  0  0  0  0  0  0  0  0  0
  -22.7220  -29.4570   22.4210 C   0  0  0  0  0  0  0  0  0  0  0  0
  -21.3930  -29.3000   22.2870 N   0  0  0  0  0  0  0  0  0  0  0  0
  -23.3890  -28.7980   23.2220 O   0  0  0  0  0  0  0  0  0  0  0  0
  -20.9100  -29.8830   21.6160 H   0  0  0  0  0  0  0  0  0  0  0  0
  -17.9930  -28.1720   22.8020 C   0  0  0  0  0  0  0  0  0  0  0  0
  -20.5630  -28.3470   23.0280 C   0  0  0  0  0  3  0  0  0  0  0  0
  -20.6130  -26.9420   22.3820 C   0  0  0  0  0  2  0  0  0  0  0  0
  -19.4800  -26.7010   21.3780 C   0  0  0  0  0  2  0  0  0  0  0  0
  -18.1160  -26.8510   22.0580 C   0  0  0  0  0  2  0  0  0  0  0  0
  -19.1430  -28.8800   23.2430 C   0  0  0  0  0  0  0  0  0  0  0  0
  -18.9770  -30.1150   23.9040 C   0  0  0  0  0  3  0  0  0  0  0  0
  -17.6940  -30.6480   24.1200 C   0  0  0  0  0  3  0  0  0  0  0  0
  -16.5580  -29.9390   23.6950 C   0  0  0  0  0  3  0  0  0  0  0  0
  -16.7060  -28.7000   23.0430 C   0  0  0  0  0  3  0  0  0  0  0  0
  -25.8530  -32.4790   23.8320 C   0  0  0  0  0  3  0  0  0  0  0  0
  -25.5440  -33.8780   24.1690 N   0  0  0  0  0  0  0  0  0  0  0  0
  -25.8600  -34.9320   23.4050 C   0  0  0  0  0  0  0  0  0  0  0  0
  -26.5150  -34.8300   22.3640 O   0  0  0  0  0  0  0  0  0  0  0  0
  -24.9630  -34.0280   24.9800 H   0  0  0  0  0  0  0  0  0  0  0  0
  -24.1130  -36.7130   23.0860 C   0  0  0  0  0  1  0  0  0  0  0  0
  -25.3750  -36.3190   23.8700 C   0  0  0  0  0  3  0  0  0  0  0  0
  -27.5170  -37.2250   24.6580 C   0  0  0  0  0  1  0  0  0  0  0  0
  -26.3990  -37.3770   23.7310 N   0  0  0  0  0  0  0  0  0  0  0  0
  -25.9890  -38.2950   23.8820 H   0  0  0  0  0  0  0  0  0  0  0  0
  -26.3370  -31.6960   25.1140 C   0  0  1  0  0  0  0  0  0  0  0  0
  -25.2190  -31.4560   26.1540 C   0  0  0  0  0  1  0  0  0  0  0  0
  -26.9280  -30.3200   24.7280 C   0  0  0  0  0  1  0  0  0  0  0  0
  -27.4730  -32.4810   25.8090 C   0  0  0  0  0  1  0  0  0  0  0  0
  1 52  1  0
  1  7  2  0
  2  3  1  0
  3  5  1  0
  4  2  1  0
  4  6  1  0
  5 12  1  0
  6  5  1  0
  6  1  1  0
  8  9  2  0
  8 10  1  0
  9 12  1  0
 10 13  2  0
 12 11  2  0
 13 11  1  0
 13 22  1  0
 14 22  1  0
 15 20  1  0
 16 17  1  0
 16 15  1  0
 18 17  1  0
 18 27  1  0
 18 19  1  0
 20 14  1  0
 20 19  1  0
 21 14  2  0
 22 23  1  0
 24 25  2  0
 25 44  1  0
 26 25  1  0
 26 29  1  0
 27 28  1  0
 27 24  1  0
 28 26  2  0
 29 30  1  0
 30 31  2  0
 32 35  1  0
 32 31  1  0
 33 32  2  0
 34 33  1  0
 34 29  2  0
 35 36  1  0
 36 41  2  0
 36 37  1  0
 37 38  2  0
 38 39  1  0
 39 43  1  0
 40 39  2  0
 41 40  1  0
 42 41  1  0
 44 45  1  0
 45 48  1  0
 45 47  1  0
 46 44  2  0
 49 24  1  0
 49 50  1  0
 51 49  1  0
 53 52  1  0
 54 65  2  0
 55 53  1  0
 55 60  1  0
 56 64  1  0
 56 66  1  0
 57 63  1  0
 57 59  1  0
 58 64  1  0
 59 60  2  0
 59 58  1  0
 61 62  1  0
 61 55  2  0
 62 57  2  0
 63 56  1  0
 64 54  1  0
 66 68  2  0
 67 66  1  0
 69 67  1  0
 70 79  2  0
 70 75  1  0
 71 67  1  0
 71 75  1  0
 72 71  1  0
 73 74  1  0
 73 72  1  0
 74 70  1  0
 75 76  2  0
 76 77  1  0
 78 77  2  0
 79 78  1  0
 80 54  1  0
 80 81  1  0
 80 90  1  0
 81 84  1  0
 82 86  1  0
 82 81  1  0
 83 82  2  0
 86 85  1  0
 88 86  1  0
 88 89  1  0
 88 87  1  0
 90 93  1  1
 90 91  1  0
 92 90  1  0
M  ISO  4  14 100  22 100  52 101  53 101
M  END
>  <TORSDO>  (7) 
F 18

>  <SCORE>  (7) 
-14.205

>  <name>  (7) 
6

>  <ligand_id>  (7) 
6

>  <original_smiles>  (7) 
[H]c1c([H])c([H])c2c(c1[H])C([H])([H])C([H])([H])C([H])([H])C2([H])N([H])C(=O)C1([H])N(C(=O)C([H])(N([H])C(=O)C([H])(N([H])C([H])([H])[H])C([H])([H])[H])C(C([H])([H])[H])(C([H])([H])[H])C([H])([H])[H])C([H])([H])c2c([H])c(OC([H])([H])C(=O)N3C([H])([H])C([H])([H])C([H])([H])C3([H])c3c([H])c([H])c([H])c(N([H])C(=O)N4C([H])([H])C([H])([H])C([H])([H])C([H])(n5nc(-c6c([H])c([H])c(Oc7c([H])c([H])c(F)c([H])c7F)c([H])c6[H])c(C(=O)N([H])[H])c5N([H])[H])C4([H])[H])c3[H])c([H])c([H])c2C1([H])[H]

>  <smiles>  (7) 
[H]c1c([H])c([H])c2c(c1[H])C([H])([H])C([H])([H])C([H])([H])C2([H])N([H])C(=O)C1([H])N(C(=O)C([H])(N([H])C(=O)C([H])(N([H])C([H])([H])[H])C([H])([H])[H])C(C([H])([H])[H])(C([H])([H])[H])C([H])([H])[H])C([H])([H])c2c([H])c(OC([H])([H])C(=O)N3C([H])([H])C([H])([H])C([H])([H])C3([H])c3c([H])c([H])c([H])c(N([H])C(=O)N4C([H])([H])C([H])([H])C([H])([H])C([H])(n5nc(-c6c([H])c([H])c(Oc7c([H])c([H])c(F)c([H])c7F)c([H])c6[H])c(C(=O)N([H])[H])c5N([H])[H])C4([H])[H])c3[H])c([H])c([H])c2C1([H])[H]

$$$$
7:0:0
     RDKit          3D

 94103  0  0  1  0  0  0  0  0999 V2000
  -30.5890  -14.8060   20.4000 C   0  0  0  0  0  0  0  0  0  0  0  0
  -30.4330  -12.4940   19.4800 C   0  0  0  0  0  2  0  0  0  0  0  0
  -29.5190  -12.5140   18.2330 C   0  0  0  0  0  2  0  0  0  0  0  0
  -28.0300  -12.4040   18.6250 C   0  0  0  0  0  2  0  0  0  0  0  0
  -27.6310  -13.3000   19.8290 C   0  0  0  0  0  3  0  0  0  0  0  0
  -28.6720  -13.2370   20.9670 C   0  0  0  0  0  2  0  0  0  0  0  0
  -29.9800  -13.5700   20.3860 N   0  0  0  0  0  0  0  0  0  0  0  0
  -31.8150  -14.8920   20.2820 O   0  0  0  0  0  0  0  0  0  0  0  0
  -29.7770  -18.5820   20.7340 C   0  0  0  0  0  3  0  0  0  0  0  0
  -29.4620  -19.7670   18.5570 C   0  0  0  0  0  3  0  0  0  0  0  0
  -29.6510  -17.3980   18.5700 C   0  0  0  0  0  0  0  0  0  0  0  0
  -29.8220  -17.3440   19.9890 C   0  0  0  0  0  0  0  0  0  0  0  0
  -29.5860  -19.8390   19.9900 C   0  0  0  0  0  0  0  0  0  0  0  0
  -29.4800  -18.5550   17.8170 C   0  0  0  0  0  0  0  0  0  0  0  0
  -29.6380  -15.9120   18.4560 C   0  0  0  0  0  2  0  0  0  0  0  0
  -29.7830  -15.8510   19.9620 N   0  0  0  0  0  0  0  0  0  0  0  0
  -25.2230  -13.9050   20.4720 C   0  0  0  0  0  0  0  0  0  0  0  0
  -24.1470  -13.1360   20.8210 C   0  0  0  0  0  0  0  0  0  0  0  0
  -24.6170  -11.7880   20.8380 C   0  0  0  0  0  0  0  0  0  0  0  0
  -26.2770  -13.0230   20.2930 N   0  0  0  0  0  0  0  0  0  0  0  0
  -25.9170  -11.7460   20.5770 N   0  0  0  0  0  0  0  0  0  0  0  0
  -23.8900  -10.5270   21.0330 C   0  0  0  0  0  0  0  0  0  0  0  0
  -24.3160   -9.5690   21.9790 C   0  0  0  0  0  3  0  0  0  0  0  0
  -23.5900   -8.3720   22.1610 C   0  0  0  0  0  3  0  0  0  0  0  0
  -22.4240   -8.1260   21.3960 C   0  0  0  0  0  0  0  0  0  0  0  0
  -22.0190   -9.0730   20.4390 C   0  0  0  0  0  3  0  0  0  0  0  0
  -22.7460  -10.2610   20.2550 C   0  0  0  0  0  3  0  0  0  0  0  0
  -21.6700   -6.9820   21.4870 O   0  0  0  0  0  0  0  0  0  0  0  0
  -21.6290   -6.2380   22.6390 C   0  0  0  0  0  0  0  0  0  0  0  0
  -21.2280   -6.7940   23.8720 C   0  0  0  0  0  3  0  0  0  0  0  0
  -21.1340   -5.9760   25.0160 C   0  0  0  0  0  3  0  0  0  0  0  0
  -21.4290   -4.6030   24.9260 C   0  0  0  0  0  0  0  0  0  0  0  0
  -21.8250   -4.0460   23.6970 C   0  0  0  0  0  3  0  0  0  0  0  0
  -21.9200   -4.8610   22.5560 C   0  0  0  0  0  0  0  0  0  0  0  0
  -22.2790   -4.3160   21.3680 F   0  0  0  0  0  0  0  0  0  0  0  0
  -21.3310   -3.8150   26.0230 F   0  0  0  0  0  0  0  0  0  0  0  0
  -22.7410  -13.6140   21.0330 C   0  0  0  0  0  0  0  0  0  0  0  0
  -21.9870  -12.9380   21.8950 N   0  0  0  0  0  0  0  0  0  0  0  0
  -22.3160  -14.6230   20.4730 O   0  0  0  0  0  0  0  0  0  0  0  0
  -22.3430  -12.1210   22.3700 H   0  0  0  0  0  0  0  0  0  0  0  0
  -21.0420  -13.2390   22.0810 H   0  0  0  0  0  0  0  0  0  0  0  0
  -25.3890  -15.2730   20.2710 N   0  0  0  0  0  0  0  0  0  0  0  0
  -24.6190  -15.9290   20.3530 H   0  0  0  0  0  0  0  0  0  0  0  0
  -26.2590  -15.7150   20.0040 H   0  0  0  0  0  0  0  0  0  0  0  0
  -29.3060  -18.5180   16.4330 N   0  0  0  0  0  0  0  0  0  0  0  0
  -29.4330  -19.3670   15.8890 H   0  0  0  0  0  0  0  0  0  0  0  0
  -29.5490  -17.6760   15.9190 H   0  0  0  0  0  0  0  0  0  0  0  0
  -29.5030  -21.1520   20.6050 N   0  0  0  0  0  0  0  0  0  0  0  0
  -29.5800  -21.2160   21.6190 H   0  0  0  0  0  0  0  0  0  0  0  0
  -28.9010  -22.3750   19.9260 C   0  0  0  0  0  2  0  0  0  0  0  0
  -29.0090  -23.8410   20.5550 C   0  0  0  0  0  0  0  0  0  0  0  0
  -29.8070  -24.0590   21.4720 O   0  0  0  0  0  0  0  0  0  0  0  0
  -28.0650  -25.0010   19.9950 C   0  0  0  0  0  2  0  0  0  0  0  0
  -28.3160  -26.4340   20.3620 O   0  0  0  0  0  0  0  0  0  0  0  0
  -24.6330  -31.9690   23.2620 C   0  0  0  0  0  0  0  0  0  0  0  0
  -27.2270  -27.3330   20.2700 C   0  0  0  0  0  0  0  0  0  0  0  0
  -23.4290  -30.5610   21.6320 C   0  0  0  0  0  3  0  0  0  0  0  0
  -24.8770  -28.9900   20.2270 C   0  0  0  0  0  0  0  0  0  0  0  0
  -25.9750  -30.8530   21.4620 C   0  0  0  0  0  2  0  0  0  0  0  0
  -26.0490  -29.4640   20.8310 C   0  0  0  0  0  0  0  0  0  0  0  0
  -27.2240  -28.6470   20.8460 C   0  0  0  0  0  3  0  0  0  0  0  0
  -26.0320  -26.9340   19.6210 C   0  0  0  0  0  3  0  0  0  0  0  0
  -24.8740  -27.7310   19.6130 C   0  0  0  0  0  3  0  0  0  0  0  0
  -23.6480  -29.8740   20.2600 C   0  0  0  0  0  2  0  0  0  0  0  0
  -24.6980  -31.1450   22.1760 N   0  0  0  0  0  0  0  0  0  0  0  0
  -23.5470  -32.2600   23.7870 O   0  0  0  0  0  0  0  0  0  0  0  0
  -22.7540  -29.5580   22.5990 C   0  0  0  0  0  0  0  0  0  0  0  0
  -21.4270  -29.3900   22.4710 N   0  0  0  0  0  0  0  0  0  0  0  0
  -23.4240  -28.9330   23.4250 O   0  0  0  0  0  0  0  0  0  0  0  0
  -20.9430  -29.9470   21.7810 H   0  0  0  0  0  0  0  0  0  0  0  0
  -18.0380  -28.2220   22.9710 C   0  0  0  0  0  0  0  0  0  0  0  0
  -20.5970  -28.4670   23.2490 C   0  0  0  0  0  3  0  0  0  0  0  0
  -20.6910  -27.0270   22.6920 C   0  0  0  0  0  2  0  0  0  0  0  0
  -19.5920  -26.7000   21.6770 C   0  0  0  0  0  2  0  0  0  0  0  0
  -18.2080  -26.8640   22.3130 C   0  0  0  0  0  2  0  0  0  0  0  0
  -19.1600  -28.9820   23.3970 C   0  0  0  0  0  0  0  0  0  0  0  0
  -18.9480  -30.2530   23.9720 C   0  0  0  0  0  3  0  0  0  0  0  0
  -17.6450  -30.7660   24.1250 C   0  0  0  0  0  3  0  0  0  0  0  0
  -16.5370  -30.0030   23.7160 C   0  0  0  0  0  3  0  0  0  0  0  0
  -16.7350  -28.7330   23.1440 C   0  0  0  0  0  3  0  0  0  0  0  0
  -25.9150  -32.6020   23.8830 C   0  0  0  0  0  3  0  0  0  0  0  0
  -26.4310  -31.8300   25.1590 C   0  0  1  0  0  0  0  0  0  0  0  0
  -25.3390  -31.5950   26.2290 C   0  0  0  0  0  1  0  0  0  0  0  0
  -27.0120  -30.4510   24.7670 C   0  0  0  0  0  1  0  0  0  0  0  0
  -27.5840  -32.6220   25.8200 C   0  0  0  0  0  1  0  0  0  0  0  0
  -25.6040  -34.0000   24.2150 N   0  0  0  0  0  0  0  0  0  0  0  0
  -25.9240  -35.0540   23.4510 C   0  0  0  0  0  0  0  0  0  0  0  0
  -26.5820  -34.9510   22.4120 O   0  0  0  0  0  0  0  0  0  0  0  0
  -25.0190  -34.1530   25.0230 H   0  0  0  0  0  0  0  0  0  0  0  0
  -24.1770  -36.8350   23.1320 C   0  0  0  0  0  1  0  0  0  0  0  0
  -25.4390  -36.4410   23.9140 C   0  0  0  0  0  3  0  0  0  0  0  0
  -27.5900  -37.3430   24.6870 C   0  0  0  0  0  1  0  0  0  0  0  0
  -26.4630  -37.5010   23.7710 N   0  0  0  0  0  0  0  0  0  0  0  0
  -26.0550  -38.4180   23.9260 H   0  0  0  0  0  0  0  0  0  0  0  0
  2  7  1  0
  3  4  1  0
  3  2  1  0
  5  4  1  0
  5 20  1  0
  5  6  1  0
  7  1  1  0
  7  6  1  0
  8  1  2  0
 10 13  2  0
 11 12  1  0
 12  9  2  0
 13 48  1  0
 13  9  1  0
 14 10  1  0
 14 11  2  0
 15 11  1  0
 15 16  1  0
 16 12  1  0
 16  1  1  0
 17 18  2  0
 18 19  1  0
 18 37  1  0
 19 22  1  0
 20 17  1  0
 20 21  1  0
 21 19  2  0
 22 23  1  0
 23 24  2  0
 25 28  1  0
 25 24  1  0
 26 25  2  0
 27 26  1  0
 27 22  2  0
 28 29  1  0
 29 30  1  0
 30 31  2  0
 32 31  1  0
 32 36  1  0
 33 32  2  0
 34 29  2  0
 34 33  1  0
 35 34  1  0
 37 38  1  0
 38 41  1  0
 38 40  1  0
 39 37  2  0
 42 43  1  0
 42 17  1  0
 44 42  1  0
 45 14  1  0
 46 45  1  0
 47 45  1  0
 48 49  1  0
 50 51  1  0
 50 48  1  0
 51 52  2  0
 53 54  1  0
 53 51  1  0
 55 66  2  0
 56 54  1  0
 56 61  1  0
 57 65  1  0
 57 67  1  0
 58 64  1  0
 58 60  1  0
 59 65  1  0
 60 61  2  0
 60 59  1  0
 62 56  2  0
 63 62  1  0
 63 58  2  0
 64 57  1  0
 65 55  1  0
 67 69  2  0
 68 67  1  0
 70 68  1  0
 71 80  2  0
 71 76  1  0
 72 68  1  0
 72 76  1  0
 73 72  1  0
 74 75  1  0
 74 73  1  0
 75 71  1  0
 76 77  2  0
 77 78  1  0
 79 78  2  0
 80 79  1  0
 81 55  1  0
 81 86  1  0
 81 82  1  0
 82 85  1  1
 82 83  1  0
 84 82  1  0
 86 89  1  0
 87 91  1  0
 87 86  1  0
 88 87  2  0
 91 90  1  0
 93 91  1  0
 93 94  1  0
 93 92  1  0
M  ISO  4   1 100  16 100  53 101  54 101
M  END
>  <TORSDO>  (8) 
F 20

>  <SCORE>  (8) 
-13.669

>  <name>  (8) 
7

>  <ligand_id>  (8) 
7

>  <original_smiles>  (8) 
[H]c1c([H])c([H])c2c(c1[H])C([H])([H])C([H])([H])C([H])([H])C2([H])N([H])C(=O)C1([H])N(C(=O)C([H])(N([H])C(=O)C([H])(N([H])C([H])([H])[H])C([H])([H])[H])C(C([H])([H])[H])(C([H])([H])[H])C([H])([H])[H])C([H])([H])c2c([H])c(OC([H])([H])C(=O)C([H])([H])N([H])c3c([H])c(N([H])[H])c4c(c3[H])N(C(=O)N3C([H])([H])C([H])([H])C([H])([H])C([H])(n5nc(-c6c([H])c([H])c(Oc7c([H])c([H])c(F)c([H])c7F)c([H])c6[H])c(C(=O)N([H])[H])c5N([H])[H])C3([H])[H])C4([H])[H])c([H])c([H])c2C1([H])[H]

>  <smiles>  (8) 
[H]c1c([H])c([H])c2c(c1[H])C([H])([H])C([H])([H])C([H])([H])C2([H])N([H])C(=O)C1([H])N(C(=O)C([H])(N([H])C(=O)C([H])(N([H])C([H])([H])[H])C([H])([H])[H])C(C([H])([H])[H])(C([H])([H])[H])C([H])([H])[H])C([H])([H])c2c([H])c(OC([H])([H])C(=O)C([H])([H])N([H])c3c([H])c(N([H])[H])c4c(c3[H])N(C(=O)N3C([H])([H])C([H])([H])C([H])([H])C([H])(n5nc(-c6c([H])c([H])c(Oc7c([H])c([H])c(F)c([H])c7F)c([H])c6[H])c(C(=O)N([H])[H])c5N([H])[H])C3([H])[H])C4([H])[H])c([H])c([H])c2C1([H])[H]

$$$$
8:0:0
     RDKit          3D

 97106  0  0  1  0  0  0  0  0999 V2000
  -29.2360  -21.1650   20.9480 C   0  0  0  0  0  3  0  0  0  0  0  0
  -28.9360  -24.6750   19.5250 C   0  0  0  0  0  2  0  0  0  0  0  0
  -29.0050  -23.1360   19.2280 C   0  0  0  0  0  2  0  0  0  0  0  0
  -28.8280  -23.6980   21.4450 C   0  0  0  0  0  3  0  0  0  0  0  0
  -28.0220  -24.9920   20.7820 C   0  0  2  0  0  0  0  0  0  0  0  0
  -30.2040  -24.0090   22.1240 C   0  0  0  0  0  1  0  0  0  0  0  0
  -28.0410  -25.6970   22.2200 C   0  0  0  0  0  1  0  0  0  0  0  0
  -29.0000  -22.5000   20.5440 N   0  0  0  0  0  0  0  0  0  0  0  0
  -29.1640  -20.9640   22.2630 N   0  0  0  0  0  0  0  0  0  0  0  0
  -29.4300  -20.0650   22.6310 H   0  0  0  0  0  0  0  0  0  0  0  0
  -28.9550  -21.7010   22.9110 H   0  0  0  0  0  0  0  0  0  0  0  0
  -29.4510  -18.5370   20.6640 C   0  0  0  0  0  3  0  0  0  0  0  0
  -30.4090  -20.0340   19.0000 C   0  0  0  0  0  3  0  0  0  0  0  0
  -30.7590  -17.6030   18.8490 C   0  0  0  0  0  3  0  0  0  0  0  0
  -29.6450  -19.9030   20.1780 C   0  0  0  0  0  0  0  0  0  0  0  0
  -30.0280  -17.3560   20.0350 C   0  0  0  0  0  0  0  0  0  0  0  0
  -30.9400  -18.9070   18.3420 C   0  0  0  0  0  0  0  0  0  0  0  0
  -31.8540  -19.1330   16.8940 Cl  0  0  0  0  0  0  0  0  0  0  0  0
  -30.6150  -14.8190   20.2420 C   0  0  0  0  0  0  0  0  0  0  0  0
  -30.4120  -12.5420   19.2530 C   0  0  0  0  0  2  0  0  0  0  0  0
  -29.4600  -12.6190   18.0380 C   0  0  0  0  0  2  0  0  0  0  0  0
  -27.9950  -12.4470   18.4820 C   0  0  0  0  0  2  0  0  0  0  0  0
  -27.6350  -13.3260   19.7080 C   0  0  0  0  0  3  0  0  0  0  0  0
  -28.7060  -13.2360   20.8180 C   0  0  0  0  0  2  0  0  0  0  0  0
  -29.9970  -13.5900   20.2150 N   0  0  0  0  0  0  0  0  0  0  0  0
  -31.7910  -14.9150   19.8790 O   0  0  0  0  0  0  0  0  0  0  0  0
  -29.8570  -15.9530   20.5150 N   0  0  0  0  0  0  0  0  0  0  0  0
  -28.9910  -15.7630   20.9970 H   0  0  0  0  0  0  0  0  0  0  0  0
  -25.2490  -13.9040   20.4550 C   0  0  0  0  0  0  0  0  0  0  0  0
  -24.1920  -13.1240   20.8350 C   0  0  0  0  0  0  0  0  0  0  0  0
  -24.6620  -11.7750   20.7980 C   0  0  0  0  0  0  0  0  0  0  0  0
  -26.2970  -13.0310   20.2100 N   0  0  0  0  0  0  0  0  0  0  0  0
  -25.9500  -11.7460   20.4790 N   0  0  0  0  0  0  0  0  0  0  0  0
  -23.9450  -10.5080   20.9930 C   0  0  0  0  0  0  0  0  0  0  0  0
  -24.3840   -9.5480   21.9310 C   0  0  0  0  0  3  0  0  0  0  0  0
  -23.6660   -8.3460   22.1130 C   0  0  0  0  0  3  0  0  0  0  0  0
  -22.4950   -8.0960   21.3590 C   0  0  0  0  0  0  0  0  0  0  0  0
  -22.0760   -9.0450   20.4110 C   0  0  0  0  0  3  0  0  0  0  0  0
  -22.7940  -10.2390   20.2270 C   0  0  0  0  0  3  0  0  0  0  0  0
  -21.7490   -6.9450   21.4510 O   0  0  0  0  0  0  0  0  0  0  0  0
  -21.6960   -6.2130   22.6100 C   0  0  0  0  0  0  0  0  0  0  0  0
  -21.2380   -6.7700   23.8240 C   0  0  0  0  0  3  0  0  0  0  0  0
  -21.1340   -5.9640   24.9740 C   0  0  0  0  0  3  0  0  0  0  0  0
  -21.4760   -4.6010   24.9120 C   0  0  0  0  0  0  0  0  0  0  0  0
  -21.9270   -4.0410   23.7040 C   0  0  0  0  0  3  0  0  0  0  0  0
  -22.0340   -4.8460   22.5550 C   0  0  0  0  0  0  0  0  0  0  0  0
  -22.4480   -4.2990   21.3880 F   0  0  0  0  0  0  0  0  0  0  0  0
  -21.3690   -3.8230   26.0150 F   0  0  0  0  0  0  0  0  0  0  0  0
  -22.7940  -13.5910   21.1180 C   0  0  0  0  0  0  0  0  0  0  0  0
  -22.0770  -12.8850   21.9850 N   0  0  0  0  0  0  0  0  0  0  0  0
  -22.3490  -14.6200   20.6120 O   0  0  0  0  0  0  0  0  0  0  0  0
  -22.4530  -12.0530   22.4160 H   0  0  0  0  0  0  0  0  0  0  0  0
  -21.1400  -13.1790   22.2210 H   0  0  0  0  0  0  0  0  0  0  0  0
  -25.4030  -15.2760   20.2740 N   0  0  0  0  0  0  0  0  0  0  0  0
  -24.6300  -15.9220   20.3830 H   0  0  0  0  0  0  0  0  0  0  0  0
  -26.2320  -15.7130   19.8950 H   0  0  0  0  0  0  0  0  0  0  0  0
  -28.2820  -26.4420   20.3550 O   0  0  0  0  0  0  0  0  0  0  0  0
  -24.6090  -31.9350   23.2220 C   0  0  0  0  0  0  0  0  0  0  0  0
  -27.2030  -27.3480   20.1820 C   0  0  0  0  0  0  0  0  0  0  0  0
  -23.3950  -30.5140   21.6080 C   0  0  0  0  0  3  0  0  0  0  0  0
  -24.8400  -28.9630   20.1660 C   0  0  0  0  0  0  0  0  0  0  0  0
  -25.9310  -30.8480   21.3850 C   0  0  0  0  0  2  0  0  0  0  0  0
  -26.0130  -29.4680   20.7380 C   0  0  0  0  0  0  0  0  0  0  0  0
  -27.2020  -28.6760   20.7240 C   0  0  0  0  0  3  0  0  0  0  0  0
  -26.0130  -26.9000   19.5760 C   0  0  0  0  0  3  0  0  0  0  0  0
  -24.8460  -27.6900   19.5670 C   0  0  0  0  0  3  0  0  0  0  0  0
  -23.5960  -29.8280   20.2310 C   0  0  0  0  0  2  0  0  0  0  0  0
  -24.6640  -31.1170   22.1290 N   0  0  0  0  0  0  0  0  0  0  0  0
  -23.5310  -32.2120   23.7670 O   0  0  0  0  0  0  0  0  0  0  0  0
  -22.7500  -29.5040   22.5870 C   0  0  0  0  0  0  0  0  0  0  0  0
  -21.4260  -29.3090   22.4720 N   0  0  0  0  0  0  0  0  0  0  0  0
  -23.4400  -28.8990   23.4120 O   0  0  0  0  0  0  0  0  0  0  0  0
  -20.9260  -29.8530   21.7830 H   0  0  0  0  0  0  0  0  0  0  0  0
  -18.0720  -28.0490   22.9780 C   0  0  0  0  0  0  0  0  0  0  0  0
  -20.6220  -28.3730   23.2580 C   0  0  0  0  0  3  0  0  0  0  0  0
  -20.7590  -26.9290   22.7170 C   0  0  0  0  0  2  0  0  0  0  0  0
  -19.6720  -26.5590   21.7040 C   0  0  0  0  0  2  0  0  0  0  0  0
  -18.2820  -26.6870   22.3360 C   0  0  0  0  0  2  0  0  0  0  0  0
  -19.1700  -28.8460   23.3970 C   0  0  0  0  0  0  0  0  0  0  0  0
  -18.9200  -30.1160   23.9610 C   0  0  0  0  0  3  0  0  0  0  0  0
  -17.6050  -30.5910   24.1080 C   0  0  0  0  0  3  0  0  0  0  0  0
  -16.5190  -29.7930   23.7070 C   0  0  0  0  0  3  0  0  0  0  0  0
  -16.7540  -28.5240   23.1480 C   0  0  0  0  0  3  0  0  0  0  0  0
  -25.8950  -32.5840   23.8230 C   0  0  0  0  0  3  0  0  0  0  0  0
  -25.5790  -33.9830   24.1480 N   0  0  0  0  0  0  0  0  0  0  0  0
  -25.9010  -35.0350   23.3830 C   0  0  0  0  0  0  0  0  0  0  0  0
  -26.5620  -34.9290   22.3470 O   0  0  0  0  0  0  0  0  0  0  0  0
  -24.9930  -34.1380   24.9560 H   0  0  0  0  0  0  0  0  0  0  0  0
  -24.1720  -36.8270   23.0220 C   0  0  0  0  0  1  0  0  0  0  0  0
  -25.4110  -36.4240   23.8380 C   0  0  0  0  0  3  0  0  0  0  0  0
  -27.5410  -37.3130   24.6740 C   0  0  0  0  0  1  0  0  0  0  0  0
  -26.4430  -37.4770   23.7260 N   0  0  0  0  0  0  0  0  0  0  0  0
  -26.0390  -38.3990   23.8660 H   0  0  0  0  0  0  0  0  0  0  0  0
  -26.4310  -31.8290   25.1020 C   0  0  1  0  0  0  0  0  0  0  0  0
  -25.3500  -31.5930   26.1870 C   0  0  0  0  0  1  0  0  0  0  0  0
  -27.0210  -30.4530   24.7130 C   0  0  0  0  0  1  0  0  0  0  0  0
  -27.5830  -32.6380   25.7430 C   0  0  0  0  0  1  0  0  0  0  0  0
  1  9  1  0
  2  5  1  0
  3  2  1  0
  3  8  1  0
  4  6  1  0
  5  4  1  0
  5  7  1  1
  8  1  1  0
  8  4  1  0
  9 10  1  0
  9 11  1  0
 13 15  2  0
 14 16  1  0
 15 12  1  0
 15  1  1  0
 16 27  1  0
 16 12  2  0
 17 14  2  0
 17 13  1  0
 18 17  1  0
 19 27  1  0
 20 25  1  0
 21 22  1  0
 21 20  1  0
 23 22  1  0
 23 32  1  0
 23 24  1  0
 25 19  1  0
 25 24  1  0
 26 19  2  0
 27 28  1  0
 29 30  2  0
 30 49  1  0
 31 30  1  0
 31 34  1  0
 32 29  1  0
 32 33  1  0
 33 31  2  0
 34 35  1  0
 35 36  2  0
 37 40  1  0
 37 36  1  0
 38 37  2  0
 39 38  1  0
 39 34  2  0
 40 41  1  0
 41 42  1  0
 42 43  2  0
 44 43  1  0
 44 48  1  0
 45 44  2  0
 46 41  2  0
 46 45  1  0
 47 46  1  0
 49 50  1  0
 50 53  1  0
 50 52  1  0
 51 49  2  0
 54 55  1  0
 54 29  1  0
 56 54  1  0
 57  5  1  0
 58 69  2  0
 59 57  1  0
 59 64  1  0
 60 68  1  0
 60 70  1  0
 61 67  1  0
 61 63  1  0
 62 68  1  0
 63 62  1  0
 64 63  2  0
 65 59  2  0
 66 65  1  0
 66 61  2  0
 67 60  1  0
 68 58  1  0
 70 72  2  0
 71 70  1  0
 73 71  1  0
 74 83  2  0
 74 79  1  0
 75 71  1  0
 75 79  1  0
 76 75  1  0
 77 78  1  0
 77 76  1  0
 78 74  1  0
 79 80  2  0
 80 81  1  0
 82 81  2  0
 83 82  1  0
 84 58  1  0
 84 85  1  0
 84 94  1  0
 85 88  1  0
 86 90  1  0
 86 85  1  0
 87 86  2  0
 90 89  1  0
 92 90  1  0
 92 93  1  0
 92 91  1  0
 94 97  1  1
 94 95  1  0
 96 94  1  0
M  ISO  4   5 101  19 100  27 100  57 101
M  END
>  <TORSDO>  (9) 
F 17

>  <SCORE>  (9) 
-15.412

>  <name>  (9) 
8

>  <ligand_id>  (9) 
8

>  <original_smiles>  (9) 
[H]c1c([H])c([H])c2c(c1[H])C([H])([H])C([H])([H])C([H])([H])C2([H])N([H])C(=O)C1([H])N(C(=O)C([H])(N([H])C(=O)C([H])(N([H])C([H])([H])[H])C([H])([H])[H])C(C([H])([H])[H])(C([H])([H])[H])C([H])([H])[H])C([H])([H])c2c([H])c(OC3(C([H])([H])[H])C([H])([H])C([H])([H])N(C(c4c([H])c(Cl)c([H])c(N([H])C(=O)N5C([H])([H])C([H])([H])C([H])([H])C([H])(n6nc(-c7c([H])c([H])c(Oc8c([H])c([H])c(F)c([H])c8F)c([H])c7[H])c(C(=O)N([H])[H])c6N([H])[H])C5([H])[H])c4[H])=[N+]([H])[H])C3([H])C([H])([H])[H])c([H])c([H])c2C1([H])[H]

>  <smiles>  (9) 
[H]c1c([H])c([H])c2c(c1[H])C([H])([H])C([H])([H])C([H])([H])C2([H])N([H])C(=O)C1([H])N(C(=O)C([H])(N([H])C(=O)C([H])(N([H])C([H])([H])[H])C([H])([H])[H])C(C([H])([H])[H])(C([H])([H])[H])C([H])([H])[H])C([H])([H])c2c([H])c(OC3(C([H])([H])[H])C([H])([H])C([H])([H])N(C(c4c([H])c(Cl)c([H])c(N([H])C(=O)N5C([H])([H])C([H])([H])C([H])([H])C([H])(n6nc(-c7c([H])c([H])c(Oc8c([H])c([H])c(F)c([H])c8F)c([H])c7[H])c(C(=O)N([H])[H])c6N([H])[H])C5([H])[H])c4[H])=[N+]([H])[H])C3([H])C([H])([H])[H])c([H])c([H])c2C1([H])[H]

$$$$
9:0:0
     RDKit          3D

 98107  0  0  1  0  0  0  0  0999 V2000
  -30.7000  -19.5990   20.1640 C   0  0  0  0  0  3  0  0  0  0  0  0
  -31.0800  -18.1840   20.2300 C   0  0  0  0  0  0  0  0  0  0  0  0
  -29.3890  -19.9090   20.4390 C   0  0  0  0  0  0  0  0  0  0  0  0
  -30.0090  -17.3130   20.4820 C   0  0  0  0  0  0  0  0  0  0  0  0
  -28.5720  -18.3570   20.7230 S   0  0  0  0  0  0  0  0  0  0  0  0
  -30.6370  -14.8120   20.2610 C   0  0  0  0  0  0  0  0  0  0  0  0
  -30.4260  -12.5560   19.2230 C   0  0  0  0  0  2  0  0  0  0  0  0
  -29.4650  -12.6600   18.0170 C   0  0  0  0  0  2  0  0  0  0  0  0
  -28.0030  -12.4830   18.4690 C   0  0  0  0  0  2  0  0  0  0  0  0
  -27.6540  -13.3390   19.7160 C   0  0  0  0  0  3  0  0  0  0  0  0
  -28.7340  -13.2210   20.8150 C   0  0  0  0  0  2  0  0  0  0  0  0
  -30.0210  -13.5830   20.2090 N   0  0  0  0  0  0  0  0  0  0  0  0
  -31.7820  -14.9330   19.8250 O   0  0  0  0  0  0  0  0  0  0  0  0
  -29.8740  -15.9120   20.6140 N   0  0  0  0  0  0  0  0  0  0  0  0
  -28.9590  -15.6280   20.9310 H   0  0  0  0  0  0  0  0  0  0  0  0
  -25.2760  -13.9050   20.4980 C   0  0  0  0  0  0  0  0  0  0  0  0
  -24.2240  -13.1200   20.8800 C   0  0  0  0  0  0  0  0  0  0  0  0
  -24.6940  -11.7710   20.8180 C   0  0  0  0  0  0  0  0  0  0  0  0
  -26.3200  -13.0360   20.2270 N   0  0  0  0  0  0  0  0  0  0  0  0
  -25.9780  -11.7460   20.4810 N   0  0  0  0  0  0  0  0  0  0  0  0
  -23.9790  -10.5020   21.0050 C   0  0  0  0  0  0  0  0  0  0  0  0
  -24.4220   -9.5340   21.9330 C   0  0  0  0  0  3  0  0  0  0  0  0
  -23.7070   -8.3300   22.1070 C   0  0  0  0  0  3  0  0  0  0  0  0
  -22.5340   -8.0850   21.3540 C   0  0  0  0  0  0  0  0  0  0  0  0
  -22.1100   -9.0420   20.4160 C   0  0  0  0  0  3  0  0  0  0  0  0
  -22.8270  -10.2380   20.2380 C   0  0  0  0  0  3  0  0  0  0  0  0
  -21.7890   -6.9330   21.4400 O   0  0  0  0  0  0  0  0  0  0  0  0
  -21.7270   -6.2000   22.5980 C   0  0  0  0  0  0  0  0  0  0  0  0
  -21.2610   -6.7550   23.8090 C   0  0  0  0  0  3  0  0  0  0  0  0
  -21.1500   -5.9470   24.9580 C   0  0  0  0  0  3  0  0  0  0  0  0
  -21.4940   -4.5830   24.8960 C   0  0  0  0  0  0  0  0  0  0  0  0
  -21.9520   -4.0270   23.6890 C   0  0  0  0  0  3  0  0  0  0  0  0
  -22.0660   -4.8330   22.5430 C   0  0  0  0  0  0  0  0  0  0  0  0
  -22.4880   -4.2870   21.3760 F   0  0  0  0  0  0  0  0  0  0  0  0
  -21.3790   -3.8040   25.9960 F   0  0  0  0  0  0  0  0  0  0  0  0
  -22.8300  -13.5840   21.1870 C   0  0  0  0  0  0  0  0  0  0  0  0
  -22.1210  -12.8690   22.0530 N   0  0  0  0  0  0  0  0  0  0  0  0
  -22.3770  -14.6160   20.6930 O   0  0  0  0  0  0  0  0  0  0  0  0
  -22.4990  -12.0320   22.4730 H   0  0  0  0  0  0  0  0  0  0  0  0
  -21.1870  -13.1620   22.3020 H   0  0  0  0  0  0  0  0  0  0  0  0
  -25.4280  -15.2790   20.3350 N   0  0  0  0  0  0  0  0  0  0  0  0
  -24.6550  -15.9220   20.4660 H   0  0  0  0  0  0  0  0  0  0  0  0
  -26.2540  -15.7280   19.9610 H   0  0  0  0  0  0  0  0  0  0  0  0
  -35.0120  -18.3550   20.2510 C   0  0  0  0  0  2  0  0  0  0  0  0
  -35.2210  -17.7910   18.8370 C   0  0  0  0  0  2  0  0  0  0  0  0
  -33.5720  -18.8720   20.3990 C   0  0  0  0  0  2  0  0  0  0  0  0
  -34.1670  -16.7170   18.5170 C   0  0  0  0  0  2  0  0  0  0  0  0
  -32.5370  -17.7650   20.0750 C   0  0  0  0  0  3  0  0  0  0  0  0
  -32.7900  -17.2230   18.7200 N   0  0  0  0  0  4  0  0  0  0  0  0
  -32.1850  -16.4140   18.6360 H   0  0  0  0  0  0  0  0  0  0  0  0
  -32.5450  -17.8950   18.0120 H   0  0  0  0  0  0  0  0  0  0  0  0
  -28.7090  -21.1830   20.5690 N   0  0  0  0  0  0  0  0  0  0  0  0
  -27.7410  -21.1720   20.8840 H   0  0  0  0  0  0  0  0  0  0  0  0
  -29.1360  -22.5190   19.9900 C   0  0  0  0  0  2  0  0  0  0  0  0
  -28.4220  -23.8700   20.4930 C   0  0  0  0  0  0  0  0  0  0  0  0
  -27.8580  -23.8700   21.5910 O   0  0  0  0  0  0  0  0  0  0  0  0
  -28.4120  -25.1940   19.5950 C   0  0  0  0  0  2  0  0  0  0  0  0
  -28.2820  -26.5310   20.2640 O   0  0  0  0  0  0  0  0  0  0  0  0
  -24.5270  -31.9500   23.2290 C   0  0  0  0  0  0  0  0  0  0  0  0
  -27.1430  -27.3600   20.1830 C   0  0  0  0  0  0  0  0  0  0  0  0
  -23.3200  -30.5400   21.5990 C   0  0  0  0  0  3  0  0  0  0  0  0
  -24.7700  -28.9810   20.1750 C   0  0  0  0  0  0  0  0  0  0  0  0
  -25.8590  -30.8590   21.4070 C   0  0  0  0  0  2  0  0  0  0  0  0
  -25.9390  -29.4740   20.7650 C   0  0  0  0  0  0  0  0  0  0  0  0
  -27.1220  -28.6730   20.7610 C   0  0  0  0  0  3  0  0  0  0  0  0
  -25.9440  -26.9220   19.5760 C   0  0  0  0  0  3  0  0  0  0  0  0
  -24.7760  -27.7120   19.5740 C   0  0  0  0  0  3  0  0  0  0  0  0
  -23.5310  -29.8550   20.2230 C   0  0  0  0  0  2  0  0  0  0  0  0
  -24.5880  -31.1350   22.1360 N   0  0  0  0  0  0  0  0  0  0  0  0
  -23.4430  -32.2270   23.7660 O   0  0  0  0  0  0  0  0  0  0  0  0
  -22.6620  -29.5290   22.5680 C   0  0  0  0  0  0  0  0  0  0  0  0
  -21.3360  -29.3450   22.4440 N   0  0  0  0  0  0  0  0  0  0  0  0
  -23.3430  -28.9120   23.3910 O   0  0  0  0  0  0  0  0  0  0  0  0
  -20.8470  -29.8940   21.7510 H   0  0  0  0  0  0  0  0  0  0  0  0
  -17.9630  -28.1410   22.9590 C   0  0  0  0  0  0  0  0  0  0  0  0
  -20.5210  -28.4100   23.2210 C   0  0  0  0  0  3  0  0  0  0  0  0
  -20.6270  -26.9770   22.6510 C   0  0  0  0  0  2  0  0  0  0  0  0
  -19.5230  -26.6450   21.6420 C   0  0  0  0  0  2  0  0  0  0  0  0
  -18.1430  -26.7890   22.2890 C   0  0  0  0  0  2  0  0  0  0  0  0
  -19.0800  -28.9090   23.3820 C   0  0  0  0  0  0  0  0  0  0  0  0
  -18.8590  -30.1740   23.9690 C   0  0  0  0  0  3  0  0  0  0  0  0
  -17.5530  -30.6710   24.1370 C   0  0  0  0  0  3  0  0  0  0  0  0
  -16.4510  -29.9000   23.7310 C   0  0  0  0  0  3  0  0  0  0  0  0
  -16.6560  -28.6370   23.1470 C   0  0  0  0  0  3  0  0  0  0  0  0
  -25.8100  -32.5900   23.8450 C   0  0  0  0  0  3  0  0  0  0  0  0
  -25.4960  -33.9870   24.1780 N   0  0  0  0  0  0  0  0  0  0  0  0
  -25.8210  -35.0420   23.4190 C   0  0  0  0  0  0  0  0  0  0  0  0
  -26.4860  -34.9430   22.3850 O   0  0  0  0  0  0  0  0  0  0  0  0
  -24.9090  -34.1380   24.9860 H   0  0  0  0  0  0  0  0  0  0  0  0
  -24.0910  -36.8340   23.0660 C   0  0  0  0  0  1  0  0  0  0  0  0
  -25.3290  -36.4290   23.8810 C   0  0  0  0  0  3  0  0  0  0  0  0
  -27.4570  -37.3130   24.7250 C   0  0  0  0  0  1  0  0  0  0  0  0
  -26.3600  -37.4840   23.7770 N   0  0  0  0  0  0  0  0  0  0  0  0
  -25.9510  -38.4020   23.9260 H   0  0  0  0  0  0  0  0  0  0  0  0
  -26.3360  -31.8230   25.1210 C   0  0  1  0  0  0  0  0  0  0  0  0
  -25.2450  -31.5740   26.1890 C   0  0  0  0  0  1  0  0  0  0  0  0
  -26.9330  -30.4520   24.7310 C   0  0  0  0  0  1  0  0  0  0  0  0
  -27.4790  -32.6280   25.7820 C   0  0  0  0  0  1  0  0  0  0  0  0
  1  2  1  0
  1  3  2  0
  2  4  2  0
  3 52  1  0
  3  5  1  0
  4 14  1  0
  4  5  1  0
  6 14  1  0
  7 12  1  0
  8  9  1  0
  8  7  1  0
 10  9  1  0
 10 19  1  0
 10 11  1  0
 12  6  1  0
 12 11  1  0
 13  6  2  0
 14 15  1  0
 16 17  2  0
 17 36  1  0
 18 17  1  0
 18 21  1  0
 19 20  1  0
 19 16  1  0
 20 18  2  0
 21 22  1  0
 22 23  2  0
 24 27  1  0
 24 23  1  0
 25 24  2  0
 26 25  1  0
 26 21  2  0
 27 28  1  0
 28 29  1  0
 29 30  2  0
 31 30  1  0
 31 35  1  0
 32 31  2  0
 33 28  2  0
 33 32  1  0
 34 33  1  0
 36 37  1  0
 37 40  1  0
 37 39  1  0
 38 36  2  0
 41 42  1  0
 41 16  1  0
 43 41  1  0
 44 46  1  0
 45 44  1  0
 47 49  1  0
 47 45  1  0
 48  2  1  0
 48 46  1  0
 49 48  1  0
 50 49  1  0
 51 49  1  0
 52 53  1  0
 54 55  1  0
 54 52  1  0
 55 56  2  0
 57 58  1  0
 57 55  1  0
 59 70  2  0
 60 58  1  0
 60 65  1  0
 61 69  1  0
 61 71  1  0
 62 68  1  0
 62 64  1  0
 63 69  1  0
 64 63  1  0
 65 64  2  0
 66 60  2  0
 67 66  1  0
 67 62  2  0
 68 61  1  0
 69 59  1  0
 71 73  2  0
 72 71  1  0
 74 72  1  0
 75 84  2  0
 75 80  1  0
 76 72  1  0
 76 80  1  0
 77 76  1  0
 78 79  1  0
 78 77  1  0
 79 75  1  0
 80 81  2  0
 81 82  1  0
 83 82  2  0
 84 83  1  0
 85 59  1  0
 85 86  1  0
 85 95  1  0
 86 89  1  0
 87 91  1  0
 87 86  1  0
 88 87  2  0
 91 90  1  0
 93 91  1  0
 93 94  1  0
 93 92  1  0
 95 98  1  1
 95 96  1  0
 97 95  1  0
M  ISO  4   6 100  14 100  57 101  58 101
M  END
>  <TORSDO>  (10) 
F 21

>  <SCORE>  (10) 
-13.480

>  <name>  (10) 
9

>  <ligand_id>  (10) 
9

>  <original_smiles>  (10) 
[H]c1c([H])c([H])c2c(c1[H])C([H])([H])C([H])([H])C([H])([H])C2([H])N([H])C(=O)C1([H])N(C(=O)C([H])(N([H])C(=O)C([H])(N([H])C([H])([H])[H])C([H])([H])[H])C(C([H])([H])[H])(C([H])([H])[H])C([H])([H])[H])C([H])([H])c2c([H])c(OC([H])([H])C(=O)C([H])([H])N([H])c3sc(N([H])C(=O)N4C([H])([H])C([H])([H])C([H])([H])C([H])(n5nc(-c6c([H])c([H])c(Oc7c([H])c([H])c(F)c([H])c7F)c([H])c6[H])c(C(=O)N([H])[H])c5N([H])[H])C4([H])[H])c(C4([H])C([H])([H])C([H])([H])C([H])([H])C([H])([H])[N+]4([H])[H])c3[H])c([H])c([H])c2C1([H])[H]

>  <smiles>  (10) 
[H]c1c([H])c([H])c2c(c1[H])C([H])([H])C([H])([H])C([H])([H])C2([H])N([H])C(=O)C1([H])N(C(=O)C([H])(N([H])C(=O)C([H])(N([H])C([H])([H])[H])C([H])([H])[H])C(C([H])([H])[H])(C([H])([H])[H])C([H])([H])[H])C([H])([H])c2c([H])c(OC([H])([H])C(=O)C([H])([H])N([H])c3sc(N([H])C(=O)N4C([H])([H])C([H])([H])C([H])([H])C([H])(n5nc(-c6c([H])c([H])c(Oc7c([H])c([H])c(F)c([H])c7F)c([H])c6[H])c(C(=O)N([H])[H])c5N([H])[H])C4([H])[H])c(C4([H])C([H])([H])C([H])([H])C([H])([H])C([H])([H])[N+]4([H])[H])c3[H])c([H])c([H])c2C1([H])[H]

$$$$
10:0:0
     RDKit          3D

 96105  0  0  1  0  0  0  0  0999 V2000
  -30.2080  -20.8390   21.9900 C   0  0  0  0  0  3  0  0  0  0  0  0
  -29.3390  -24.4740   22.0710 C   0  0  0  0  0  2  0  0  0  0  0  0
  -29.9700  -23.2130   22.6650 C   0  0  0  0  0  2  0  0  0  0  0  0
  -29.3990  -22.7510   20.3760 C   0  0  0  0  0  2  0  0  0  0  0  0
  -29.5000  -24.3180   20.5620 C   0  0  2  0  0  0  0  0  0  0  0  0
  -29.8800  -22.1400   21.6470 N   0  0  0  0  0  0  0  0  0  0  0  0
  -30.5540  -20.6240   23.2730 N   0  0  0  0  0  0  0  0  0  0  0  0
  -30.8280  -19.7010   23.5710 H   0  0  0  0  0  0  0  0  0  0  0  0
  -30.5650  -21.3620   23.9590 H   0  0  0  0  0  0  0  0  0  0  0  0
  -30.9550  -19.3220   20.0140 C   0  0  0  0  0  3  0  0  0  0  0  0
  -31.0410  -17.9070   19.7250 C   0  0  0  0  0  3  0  0  0  0  0  0
  -30.2740  -19.6120   21.1730 C   0  0  0  0  0  0  0  0  0  0  0  0
  -30.4060  -17.0840   20.6350 C   0  0  0  0  0  0  0  0  0  0  0  0
  -29.6240  -18.1070   21.8340 S   0  0  0  0  0  0  0  0  0  0  0  0
  -30.9780  -14.7190   20.0780 C   0  0  0  0  0  0  0  0  0  0  0  0
  -30.6690  -12.5410   18.9310 C   0  0  0  0  0  2  0  0  0  0  0  0
  -29.6570  -12.7420   17.7810 C   0  0  0  0  0  2  0  0  0  0  0  0
  -28.2090  -12.5920   18.2870 C   0  0  0  0  0  2  0  0  0  0  0  0
  -27.9400  -13.4100   19.5790 C   0  0  0  0  0  3  0  0  0  0  0  0
  -29.0550  -13.1730   20.6230 C   0  0  0  0  0  2  0  0  0  0  0  0
  -30.3410  -13.5120   19.9930 N   0  0  0  0  0  0  0  0  0  0  0  0
  -32.0760  -14.9170   19.5450 O   0  0  0  0  0  0  0  0  0  0  0  0
  -30.2760  -15.7110   20.6910 N   0  0  0  0  0  0  0  0  0  0  0  0
  -29.4830  -15.3770   21.2180 H   0  0  0  0  0  0  0  0  0  0  0  0
  -25.5970  -14.0180   20.4480 C   0  0  0  0  0  0  0  0  0  0  0  0
  -24.5410  -13.2470   20.8510 C   0  0  0  0  0  0  0  0  0  0  0  0
  -24.9780  -11.8910   20.7440 C   0  0  0  0  0  0  0  0  0  0  0  0
  -26.6140  -13.1330   20.1250 N   0  0  0  0  0  0  0  0  0  0  0  0
  -26.2480  -11.8460   20.3590 N   0  0  0  0  0  0  0  0  0  0  0  0
  -24.2450  -10.6320   20.9300 C   0  0  0  0  0  0  0  0  0  0  0  0
  -24.6560   -9.6730   21.8810 C   0  0  0  0  0  3  0  0  0  0  0  0
  -23.9240   -8.4780   22.0550 C   0  0  0  0  0  3  0  0  0  0  0  0
  -22.7670   -8.2350   21.2770 C   0  0  0  0  0  0  0  0  0  0  0  0
  -22.3760   -9.1830   20.3160 C   0  0  0  0  0  3  0  0  0  0  0  0
  -23.1080  -10.3690   20.1400 C   0  0  0  0  0  3  0  0  0  0  0  0
  -22.0100   -7.0920   21.3590 O   0  0  0  0  0  0  0  0  0  0  0  0
  -21.8430   -6.4210   22.5440 C   0  0  0  0  0  0  0  0  0  0  0  0
  -21.2470   -7.0330   23.6680 C   0  0  0  0  0  3  0  0  0  0  0  0
  -21.0330   -6.2860   24.8440 C   0  0  0  0  0  3  0  0  0  0  0  0
  -21.4040   -4.9290   24.8960 C   0  0  0  0  0  0  0  0  0  0  0  0
  -21.9930   -4.3170   23.7750 C   0  0  0  0  0  3  0  0  0  0  0  0
  -22.2090   -5.0610   22.6010 C   0  0  0  0  0  0  0  0  0  0  0  0
  -22.7580   -4.4620   21.5170 F   0  0  0  0  0  0  0  0  0  0  0  0
  -21.1910   -4.2090   26.0220 F   0  0  0  0  0  0  0  0  0  0  0  0
  -23.1690  -13.7320   21.2230 C   0  0  0  0  0  0  0  0  0  0  0  0
  -22.4880  -13.0200   22.1140 N   0  0  0  0  0  0  0  0  0  0  0  0
  -22.7120  -14.7760   20.7580 O   0  0  0  0  0  0  0  0  0  0  0  0
  -22.8700  -12.1740   22.5100 H   0  0  0  0  0  0  0  0  0  0  0  0
  -21.5700  -13.3240   22.4050 H   0  0  0  0  0  0  0  0  0  0  0  0
  -25.7740  -15.3930   20.3130 N   0  0  0  0  0  0  0  0  0  0  0  0
  -25.0270  -16.0550   20.4940 H   0  0  0  0  0  0  0  0  0  0  0  0
  -26.6120  -15.8300   19.9520 H   0  0  0  0  0  0  0  0  0  0  0  0
  -30.7970  -24.7090   20.1430 O   0  0  0  0  0  0  0  0  0  0  0  0
  -30.8220  -25.6610   20.1700 H   0  0  0  0  0  0  0  0  0  0  0  0
  -28.4960  -25.2360   19.7720 C   0  0  0  0  0  2  0  0  0  0  0  0
  -28.5480  -26.6610   20.1280 O   0  0  0  0  0  0  0  0  0  0  0  0
  -24.6300  -31.8210   23.2070 C   0  0  0  0  0  0  0  0  0  0  0  0
  -27.3840  -27.4320   20.0700 C   0  0  0  0  0  0  0  0  0  0  0  0
  -23.4700  -30.4240   21.5320 C   0  0  0  0  0  3  0  0  0  0  0  0
  -24.9680  -28.9490   20.0810 C   0  0  0  0  0  0  0  0  0  0  0  0
  -25.9970  -30.8230   21.3680 C   0  0  0  0  0  2  0  0  0  0  0  0
  -26.1150  -29.4630   20.6970 C   0  0  0  0  0  0  0  0  0  0  0  0
  -27.3230  -28.7140   20.6870 C   0  0  0  0  0  3  0  0  0  0  0  0
  -26.2170  -26.9690   19.4160 C   0  0  0  0  0  3  0  0  0  0  0  0
  -25.0190  -27.7050   19.4340 C   0  0  0  0  0  3  0  0  0  0  0  0
  -23.7060  -29.7830   20.1390 C   0  0  0  0  0  2  0  0  0  0  0  0
  -24.7170  -31.0390   22.0930 N   0  0  0  0  0  0  0  0  0  0  0  0
  -23.5370  -32.0580   23.7420 O   0  0  0  0  0  0  0  0  0  0  0  0
  -22.8340  -29.3680   22.4660 C   0  0  0  0  0  0  0  0  0  0  0  0
  -21.5180  -29.1420   22.3100 N   0  0  0  0  0  0  0  0  0  0  0  0
  -23.5200  -28.7590   23.2900 O   0  0  0  0  0  0  0  0  0  0  0  0
  -21.0230  -29.6890   21.6190 H   0  0  0  0  0  0  0  0  0  0  0  0
  -18.1810  -27.8100   22.7170 C   0  0  0  0  0  0  0  0  0  0  0  0
  -20.7200  -28.1660   23.0530 C   0  0  0  0  0  3  0  0  0  0  0  0
  -20.8910  -26.7440   22.4670 C   0  0  0  0  0  2  0  0  0  0  0  0
  -19.8280  -26.3890   21.4250 C   0  0  0  0  0  2  0  0  0  0  0  0
  -18.4250  -26.4750   22.0360 C   0  0  0  0  0  2  0  0  0  0  0  0
  -19.2580  -28.6120   23.1800 C   0  0  0  0  0  0  0  0  0  0  0  0
  -18.9760  -29.8600   23.7750 C   0  0  0  0  0  3  0  0  0  0  0  0
  -17.6490  -30.3100   23.9120 C   0  0  0  0  0  3  0  0  0  0  0  0
  -16.5860  -29.5060   23.4670 C   0  0  0  0  0  3  0  0  0  0  0  0
  -16.8520  -28.2580   22.8750 C   0  0  0  0  0  3  0  0  0  0  0  0
  -25.8930  -32.4720   23.8490 C   0  0  0  0  0  3  0  0  0  0  0  0
  -26.4200  -31.6910   25.1140 C   0  0  1  0  0  0  0  0  0  0  0  0
  -25.3250  -31.3910   26.1630 C   0  0  0  0  0  1  0  0  0  0  0  0
  -27.0550  -30.3430   24.6990 C   0  0  0  0  0  1  0  0  0  0  0  0
  -27.5350  -32.5080   25.8070 C   0  0  0  0  0  1  0  0  0  0  0  0
  -25.5470  -33.8560   24.2010 N   0  0  0  0  0  0  0  0  0  0  0  0
  -25.8440  -34.9280   23.4560 C   0  0  0  0  0  0  0  0  0  0  0  0
  -26.5090  -34.8590   22.4180 O   0  0  0  0  0  0  0  0  0  0  0  0
  -24.9570  -33.9820   25.0110 H   0  0  0  0  0  0  0  0  0  0  0  0
  -24.0660  -36.6780   23.1380 C   0  0  0  0  0  1  0  0  0  0  0  0
  -25.3210  -36.2950   23.9380 C   0  0  0  0  0  3  0  0  0  0  0  0
  -27.4280  -37.2320   24.7820 C   0  0  0  0  0  1  0  0  0  0  0  0
  -26.3240  -37.3790   23.8370 N   0  0  0  0  0  0  0  0  0  0  0  0
  -25.8910  -38.2850   23.9930 H   0  0  0  0  0  0  0  0  0  0  0  0
  1  7  1  0
  2  3  1  0
  4  5  1  0
  4  6  1  0
  5 55  1  6
  5  2  1  0
  6  1  1  0
  6  3  1  0
  7  8  1  0
  7  9  1  0
 10 12  2  0
 11 10  1  0
 11 13  2  0
 12 14  1  0
 12  1  1  0
 13 23  1  0
 13 14  1  0
 15 23  1  0
 16 21  1  0
 17 18  1  0
 17 16  1  0
 19 18  1  0
 19 28  1  0
 19 20  1  0
 21 15  1  0
 21 20  1  0
 22 15  2  0
 23 24  1  0
 25 26  2  0
 26 45  1  0
 27 26  1  0
 27 30  1  0
 28 29  1  0
 28 25  1  0
 29 27  2  0
 30 31  1  0
 31 32  2  0
 33 36  1  0
 33 32  1  0
 34 33  2  0
 35 34  1  0
 35 30  2  0
 36 37  1  0
 37 42  2  0
 37 38  1  0
 38 39  2  0
 39 40  1  0
 40 44  1  0
 41 40  2  0
 42 41  1  0
 43 42  1  0
 45 46  1  0
 46 49  1  0
 46 48  1  0
 47 45  2  0
 50 25  1  0
 50 51  1  0
 52 50  1  0
 53 54  1  0
 53  5  1  0
 55 56  1  0
 57 68  2  0
 58 56  1  0
 58 63  1  0
 59 67  1  0
 59 69  1  0
 60 66  1  0
 60 62  1  0
 61 67  1  0
 62 61  1  0
 63 62  2  0
 64 65  1  0
 64 58  2  0
 65 60  2  0
 66 59  1  0
 67 57  1  0
 69 71  2  0
 70 69  1  0
 72 70  1  0
 73 82  2  0
 73 78  1  0
 74 70  1  0
 74 78  1  0
 75 74  1  0
 76 77  1  0
 76 75  1  0
 77 73  1  0
 78 79  2  0
 79 80  1  0
 81 80  2  0
 82 81  1  0
 83 57  1  0
 83 88  1  0
 83 84  1  0
 84 87  1  1
 84 85  1  0
 86 84  1  0
 88 91  1  0
 89 93  1  0
 89 88  1  0
 90 89  2  0
 93 92  1  0
 95 93  1  0
 95 96  1  0
 95 94  1  0
M  ISO  4  15 100  23 100  55 101  56 101
M  END
>  <TORSDO>  (11) 
F 19

>  <SCORE>  (11) 
-13.650

>  <name>  (11) 
10

>  <ligand_id>  (11) 
10

>  <original_smiles>  (11) 
[H]OC1(C([H])([H])Oc2c([H])c([H])c3c(c2[H])C([H])([H])N(C(=O)C([H])(N([H])C(=O)C([H])(N([H])C([H])([H])[H])C([H])([H])[H])C(C([H])([H])[H])(C([H])([H])[H])C([H])([H])[H])C([H])(C(=O)N([H])C2([H])c4c([H])c([H])c([H])c([H])c4C([H])([H])C([H])([H])C2([H])[H])C3([H])[H])C([H])([H])N(C(c2sc(N([H])C(=O)N3C([H])([H])C([H])([H])C([H])([H])C([H])(n4nc(-c5c([H])c([H])c(Oc6c([H])c([H])c(F)c([H])c6F)c([H])c5[H])c(C(=O)N([H])[H])c4N([H])[H])C3([H])[H])c([H])c2[H])=[N+]([H])[H])C([H])([H])C1([H])[H]

>  <smiles>  (11) 
[H]OC1(C([H])([H])Oc2c([H])c([H])c3c(c2[H])C([H])([H])N(C(=O)C([H])(N([H])C(=O)C([H])(N([H])C([H])([H])[H])C([H])([H])[H])C(C([H])([H])[H])(C([H])([H])[H])C([H])([H])[H])C([H])(C(=O)N([H])C2([H])c4c([H])c([H])c([H])c([H])c4C([H])([H])C([H])([H])C2([H])[H])C3([H])[H])C([H])([H])N(C(c2sc(N([H])C(=O)N3C([H])([H])C([H])([H])C([H])([H])C([H])(n4nc(-c5c([H])c([H])c(Oc6c([H])c([H])c(F)c([H])c6F)c([H])c5[H])c(C(=O)N([H])[H])c4N([H])[H])C3([H])[H])c([H])c2[H])=[N+]([H])[H])C([H])([H])C1([H])[H]

$$$$
11:0:0
     RDKit          3D

 98107  0  0  1  0  0  0  0  0999 V2000
  -29.9940  -21.3270   20.4140 C   0  0  0  0  0  3  0  0  0  0  0  0
  -30.1010  -24.9300   19.4680 C   0  0  0  0  0  2  0  0  0  0  0  0
  -30.5370  -23.7980   20.4230 C   0  0  0  0  0  2  0  0  0  0  0  0
  -28.2520  -23.5450   20.2160 C   0  0  0  0  0  2  0  0  0  0  0  0
  -28.5690  -25.0420   19.5690 C   0  0  2  0  0  0  0  0  0  0  0  0
  -29.5390  -22.6990   20.3340 N   0  0  0  0  0  0  0  0  0  0  0  0
  -31.3090  -21.2110   20.6920 N   0  0  0  0  0  0  0  0  0  0  0  0
  -31.7490  -20.3050   20.6880 H   0  0  0  0  0  0  0  0  0  0  0  0
  -31.8870  -22.0130   20.8840 H   0  0  0  0  0  0  0  0  0  0  0  0
  -30.0650  -18.6130   20.7220 C   0  0  0  0  0  3  0  0  0  0  0  0
  -29.4120  -19.8800   20.2340 C   0  0  0  0  0  0  0  0  0  0  0  0
  -29.5230  -17.3610   20.3180 C   0  0  0  0  0  0  0  0  0  0  0  0
  -28.3310  -19.5500   19.4530 C   0  0  0  0  0  0  0  0  0  0  0  0
  -28.1210  -17.7900   19.3380 S   0  0  0  0  0  0  0  0  0  0  0  0
  -30.5030  -14.9140   20.2490 C   0  0  0  0  0  0  0  0  0  0  0  0
  -30.3620  -12.6040   19.2440 C   0  0  0  0  0  2  0  0  0  0  0  0
  -29.3830  -12.6360   18.0450 C   0  0  0  0  0  2  0  0  0  0  0  0
  -27.9300  -12.4330   18.5160 C   0  0  0  0  0  2  0  0  0  0  0  0
  -27.5780  -13.3130   19.7430 C   0  0  0  0  0  3  0  0  0  0  0  0
  -28.6680  -13.2370   20.8350 C   0  0  0  0  0  2  0  0  0  0  0  0
  -29.9360  -13.6480   20.2140 N   0  0  0  0  0  0  0  0  0  0  0  0
  -31.6560  -15.0580   19.8250 O   0  0  0  0  0  0  0  0  0  0  0  0
  -29.7150  -15.9930   20.6910 N   0  0  0  0  0  0  0  0  0  0  0  0
  -28.8760  -15.6050   21.0910 H   0  0  0  0  0  0  0  0  0  0  0  0
  -25.2130  -13.8840   20.5500 C   0  0  0  0  0  0  0  0  0  0  0  0
  -24.1610  -13.1030   20.9400 C   0  0  0  0  0  0  0  0  0  0  0  0
  -24.6260  -11.7530   20.8780 C   0  0  0  0  0  0  0  0  0  0  0  0
  -26.2500  -13.0100   20.2700 N   0  0  0  0  0  0  0  0  0  0  0  0
  -25.9060  -11.7230   20.5290 N   0  0  0  0  0  0  0  0  0  0  0  0
  -23.9070  -10.4860   21.0710 C   0  0  0  0  0  0  0  0  0  0  0  0
  -24.3620   -9.5100   21.9840 C   0  0  0  0  0  3  0  0  0  0  0  0
  -23.6410   -8.3100   22.1660 C   0  0  0  0  0  3  0  0  0  0  0  0
  -22.4520   -8.0770   21.4350 C   0  0  0  0  0  0  0  0  0  0  0  0
  -22.0160   -9.0430   20.5100 C   0  0  0  0  0  3  0  0  0  0  0  0
  -22.7370  -10.2350   20.3260 C   0  0  0  0  0  3  0  0  0  0  0  0
  -21.7000   -6.9310   21.5280 O   0  0  0  0  0  0  0  0  0  0  0  0
  -21.6740   -6.1790   22.6750 C   0  0  0  0  0  0  0  0  0  0  0  0
  -21.2510   -6.7190   23.9100 C   0  0  0  0  0  3  0  0  0  0  0  0
  -21.1730   -5.8930   25.0490 C   0  0  0  0  0  3  0  0  0  0  0  0
  -21.5060   -4.5280   24.9550 C   0  0  0  0  0  0  0  0  0  0  0  0
  -21.9220   -3.9880   23.7260 C   0  0  0  0  0  3  0  0  0  0  0  0
  -22.0030   -4.8110   22.5880 C   0  0  0  0  0  0  0  0  0  0  0  0
  -22.3840   -4.2800   21.4010 F   0  0  0  0  0  0  0  0  0  0  0  0
  -21.4240   -3.7330   26.0470 F   0  0  0  0  0  0  0  0  0  0  0  0
  -22.7720  -13.5740   21.2590 C   0  0  0  0  0  0  0  0  0  0  0  0
  -22.0680  -12.8620   22.1320 N   0  0  0  0  0  0  0  0  0  0  0  0
  -22.3200  -14.6090   20.7700 O   0  0  0  0  0  0  0  0  0  0  0  0
  -22.4460  -12.0250   22.5510 H   0  0  0  0  0  0  0  0  0  0  0  0
  -21.1370  -13.1600   22.3890 H   0  0  0  0  0  0  0  0  0  0  0  0
  -25.3670  -15.2580   20.3880 N   0  0  0  0  0  0  0  0  0  0  0  0
  -24.5940  -15.9010   20.5250 H   0  0  0  0  0  0  0  0  0  0  0  0
  -26.1900  -15.7060   20.0090 H   0  0  0  0  0  0  0  0  0  0  0  0
  -27.4550  -20.3710   18.7500 N   0  0  0  0  0  0  0  0  0  0  0  0
  -27.6230  -21.3480   18.5350 H   0  0  0  0  0  0  0  0  0  0  0  0
  -26.7410  -19.9730   18.1470 H   0  0  0  0  0  0  0  0  0  0  0  0
  -28.0570  -25.0990   18.2570 O   0  0  0  0  0  0  0  0  0  0  0  0
  -28.4770  -25.8300   17.8180 H   0  0  0  0  0  0  0  0  0  0  0  0
  -28.3200  -26.3330   20.3140 O   0  0  0  0  0  0  0  0  0  0  0  0
  -24.6230  -31.9020   23.2460 C   0  0  0  0  0  0  0  0  0  0  0  0
  -27.2070  -27.2300   20.1880 C   0  0  0  0  0  0  0  0  0  0  0  0
  -23.4180  -30.5080   21.6050 C   0  0  0  0  0  3  0  0  0  0  0  0
  -24.8600  -28.9380   20.1720 C   0  0  0  0  0  0  0  0  0  0  0  0
  -25.9660  -30.7850   21.4300 C   0  0  0  0  0  2  0  0  0  0  0  0
  -26.0360  -29.3990   20.7750 C   0  0  0  0  0  0  0  0  0  0  0  0
  -27.2040  -28.5580   20.7700 C   0  0  0  0  0  3  0  0  0  0  0  0
  -25.9940  -26.8470   19.5720 C   0  0  0  0  0  3  0  0  0  0  0  0
  -24.8490  -27.6740   19.5600 C   0  0  0  0  0  3  0  0  0  0  0  0
  -23.6320  -29.8310   20.2250 C   0  0  0  0  0  2  0  0  0  0  0  0
  -24.6890  -31.0860   22.1490 N   0  0  0  0  0  0  0  0  0  0  0  0
  -23.5400  -32.1840   23.7770 O   0  0  0  0  0  0  0  0  0  0  0  0
  -22.7440  -29.4990   22.5680 C   0  0  0  0  0  0  0  0  0  0  0  0
  -21.4170  -29.3220   22.4370 N   0  0  0  0  0  0  0  0  0  0  0  0
  -23.4160  -28.8780   23.3950 O   0  0  0  0  0  0  0  0  0  0  0  0
  -20.9320  -29.8750   21.7450 H   0  0  0  0  0  0  0  0  0  0  0  0
  -18.0410  -28.1070   22.9210 C   0  0  0  0  0  0  0  0  0  0  0  0
  -20.5970  -28.3850   23.2070 C   0  0  0  0  0  3  0  0  0  0  0  0
  -20.7100  -26.9500   22.6420 C   0  0  0  0  0  2  0  0  0  0  0  0
  -19.6190  -26.6150   21.6200 C   0  0  0  0  0  2  0  0  0  0  0  0
  -18.2310  -26.7550   22.2540 C   0  0  0  0  0  2  0  0  0  0  0  0
  -19.1520  -28.8790   23.3550 C   0  0  0  0  0  0  0  0  0  0  0  0
  -18.9210  -30.1430   23.9400 C   0  0  0  0  0  3  0  0  0  0  0  0
  -17.6110  -30.6350   24.0950 C   0  0  0  0  0  3  0  0  0  0  0  0
  -16.5140  -29.8610   23.6770 C   0  0  0  0  0  3  0  0  0  0  0  0
  -16.7310  -28.5990   23.0950 C   0  0  0  0  0  3  0  0  0  0  0  0
  -25.9050  -32.5340   23.8710 C   0  0  0  0  0  3  0  0  0  0  0  0
  -26.4150  -31.7650   25.1510 C   0  0  1  0  0  0  0  0  0  0  0  0
  -25.3190  -31.5330   26.2180 C   0  0  0  0  0  1  0  0  0  0  0  0
  -26.9960  -30.3840   24.7680 C   0  0  0  0  0  1  0  0  0  0  0  0
  -27.5660  -32.5580   25.8140 C   0  0  0  0  0  1  0  0  0  0  0  0
  -25.5960  -33.9330   24.2040 N   0  0  0  0  0  0  0  0  0  0  0  0
  -25.9160  -34.9870   23.4420 C   0  0  0  0  0  0  0  0  0  0  0  0
  -26.5690  -34.8860   22.4000 O   0  0  0  0  0  0  0  0  0  0  0  0
  -25.0140  -34.0870   25.0140 H   0  0  0  0  0  0  0  0  0  0  0  0
  -24.1770  -36.7790   23.1260 C   0  0  0  0  0  1  0  0  0  0  0  0
  -25.4370  -36.3770   23.9100 C   0  0  0  0  0  3  0  0  0  0  0  0
  -27.5850  -37.2720   24.6940 C   0  0  0  0  0  1  0  0  0  0  0  0
  -26.4650  -37.4320   23.7720 N   0  0  0  0  0  0  0  0  0  0  0  0
  -26.0590  -38.3520   23.9220 H   0  0  0  0  0  0  0  0  0  0  0  0
  1  7  1  0
  2  5  1  0
  2  3  1  0
  4  6  1  0
  5 56  1  6
  5  4  1  0
  5 58  1  0
  6  1  1  0
  6  3  1  0
  7  9  1  0
  8  7  1  0
 11  1  1  0
 11 10  1  0
 12 23  1  0
 12 10  2  0
 13 11  2  0
 14 13  1  0
 14 12  1  0
 15 23  1  0
 16 21  1  0
 17 18  1  0
 17 16  1  0
 19 18  1  0
 19 28  1  0
 19 20  1  0
 21 15  1  0
 21 20  1  0
 22 15  2  0
 23 24  1  0
 25 26  2  0
 26 45  1  0
 27 26  1  0
 27 30  1  0
 28 29  1  0
 28 25  1  0
 29 27  2  0
 30 31  1  0
 31 32  2  0
 33 36  1  0
 33 32  1  0
 34 33  2  0
 35 34  1  0
 35 30  2  0
 36 37  1  0
 37 38  1  0
 38 39  2  0
 40 39  1  0
 40 44  1  0
 41 40  2  0
 42 37  2  0
 42 41  1  0
 43 42  1  0
 45 46  1  0
 46 49  1  0
 46 48  1  0
 47 45  2  0
 50 51  1  0
 50 25  1  0
 52 50  1  0
 53 13  1  0
 54 53  1  0
 55 53  1  0
 57 56  1  0
 59 70  2  0
 60 58  1  0
 60 65  1  0
 61 69  1  0
 61 71  1  0
 62 68  1  0
 62 64  1  0
 63 69  1  0
 64 63  1  0
 65 64  2  0
 66 60  2  0
 67 66  1  0
 67 62  2  0
 68 61  1  0
 69 59  1  0
 71 73  2  0
 72 71  1  0
 74 72  1  0
 75 84  2  0
 75 80  1  0
 76 72  1  0
 76 80  1  0
 77 76  1  0
 78 79  1  0
 78 77  1  0
 79 75  1  0
 80 81  2  0
 81 82  1  0
 83 82  2  0
 84 83  1  0
 85 59  1  0
 85 90  1  0
 85 86  1  0
 86 89  1  1
 86 87  1  0
 88 86  1  0
 90 93  1  0
 91 95  1  0
 91 90  1  0
 92 91  2  0
 95 94  1  0
 97 95  1  0
 97 98  1  0
 97 96  1  0
M  ISO  4   5 101  15 100  23 100  58 101
M  END
>  <TORSDO>  (12) 
F 19

>  <SCORE>  (12) 
-15.007

>  <name>  (12) 
11

>  <ligand_id>  (12) 
11

>  <original_smiles>  (12) 
[H]OC1(Oc2c([H])c([H])c3c(c2[H])C([H])([H])N(C(=O)C([H])(N([H])C(=O)C([H])(N([H])C([H])([H])[H])C([H])([H])[H])C(C([H])([H])[H])(C([H])([H])[H])C([H])([H])[H])C([H])(C(=O)N([H])C2([H])c4c([H])c([H])c([H])c([H])c4C([H])([H])C([H])([H])C2([H])[H])C3([H])[H])C([H])([H])N(C(c2c(N([H])[H])sc(N([H])C(=O)N3C([H])([H])C([H])([H])C([H])([H])C([H])(n4nc(-c5c([H])c([H])c(Oc6c([H])c([H])c(F)c([H])c6F)c([H])c5[H])c(C(=O)N([H])[H])c4N([H])[H])C3([H])[H])c2[H])=[N+]([H])[H])C([H])([H])C1([H])[H]

>  <smiles>  (12) 
[H]OC1(Oc2c([H])c([H])c3c(c2[H])C([H])([H])N(C(=O)C([H])(N([H])C(=O)C([H])(N([H])C([H])([H])[H])C([H])([H])[H])C(C([H])([H])[H])(C([H])([H])[H])C([H])([H])[H])C([H])(C(=O)N([H])C2([H])c4c([H])c([H])c([H])c([H])c4C([H])([H])C([H])([H])C2([H])[H])C3([H])[H])C([H])([H])N(C(c2c(N([H])[H])sc(N([H])C(=O)N3C([H])([H])C([H])([H])C([H])([H])C([H])(n4nc(-c5c([H])c([H])c(Oc6c([H])c([H])c(F)c([H])c6F)c([H])c5[H])c(C(=O)N([H])[H])c4N([H])[H])C3([H])[H])c2[H])=[N+]([H])[H])C([H])([H])C1([H])[H]

$$$$
12:0:0
     RDKit          3D

 96105  0  0  1  0  0  0  0  0999 V2000
  -28.7550  -23.8060   21.0060 C   0  0  0  0  0  0  0  0  0  0  0  0
  -29.3980  -21.2560   20.9120 C   0  0  0  0  0  3  0  0  0  0  0  0
  -28.3030  -24.2310   18.7280 C   0  0  0  0  0  2  0  0  0  0  0  0
  -28.4990  -22.7000   18.9520 C   0  0  0  0  0  2  0  0  0  0  0  0
  -27.9930  -24.8480   20.0980 C   0  0  0  0  0  3  0  0  0  0  0  0
  -28.9520  -22.4770   20.3490 N   0  0  0  0  0  0  0  0  0  0  0  0
  -29.5210  -21.2250   22.2420 N   0  0  0  0  0  0  0  0  0  0  0  0
  -29.0960  -24.0330   22.1720 O   0  0  0  0  0  0  0  0  0  0  0  0
  -29.8910  -20.4090   22.7040 H   0  0  0  0  0  0  0  0  0  0  0  0
  -29.3740  -22.0750   22.7710 H   0  0  0  0  0  0  0  0  0  0  0  0
  -30.9890  -17.5750   19.0360 C   0  0  0  0  0  3  0  0  0  0  0  0
  -31.2840  -18.8660   18.5600 C   0  0  0  0  0  3  0  0  0  0  0  0
  -29.5400  -18.5790   20.7070 C   0  0  0  0  0  3  0  0  0  0  0  0
  -29.8280  -19.9370   20.2290 C   0  0  0  0  0  0  0  0  0  0  0  0
  -30.1330  -17.3630   20.1440 C   0  0  0  0  0  0  0  0  0  0  0  0
  -30.7430  -20.0210   19.1530 C   0  0  0  0  0  0  0  0  0  0  0  0
  -31.1760  -21.2240   18.7080 F   0  0  0  0  0  0  0  0  0  0  0  0
  -30.6070  -14.7890   20.3440 C   0  0  0  0  0  0  0  0  0  0  0  0
  -30.3830  -12.5070   19.3550 C   0  0  0  0  0  2  0  0  0  0  0  0
  -29.4510  -12.5820   18.1250 C   0  0  0  0  0  2  0  0  0  0  0  0
  -27.9820  -12.4130   18.5530 C   0  0  0  0  0  2  0  0  0  0  0  0
  -27.6090  -13.3050   19.7670 C   0  0  0  0  0  3  0  0  0  0  0  0
  -28.6650  -13.2260   20.8920 C   0  0  0  0  0  2  0  0  0  0  0  0
  -29.9640  -13.5700   20.3010 N   0  0  0  0  0  0  0  0  0  0  0  0
  -31.7950  -14.8460   20.0130 O   0  0  0  0  0  0  0  0  0  0  0  0
  -29.8770  -15.9550   20.5900 N   0  0  0  0  0  0  0  0  0  0  0  0
  -28.9790  -15.7980   21.0210 H   0  0  0  0  0  0  0  0  0  0  0  0
  -25.2200  -13.8980   20.4890 C   0  0  0  0  0  0  0  0  0  0  0  0
  -24.1540  -13.1270   20.8590 C   0  0  0  0  0  0  0  0  0  0  0  0
  -24.6160  -11.7750   20.8360 C   0  0  0  0  0  0  0  0  0  0  0  0
  -26.2640  -13.0170   20.2580 N   0  0  0  0  0  0  0  0  0  0  0  0
  -25.9080  -11.7350   20.5310 N   0  0  0  0  0  0  0  0  0  0  0  0
  -23.8880  -10.5140   21.0310 C   0  0  0  0  0  0  0  0  0  0  0  0
  -24.3210   -9.5460   21.9640 C   0  0  0  0  0  3  0  0  0  0  0  0
  -23.5910   -8.3520   22.1460 C   0  0  0  0  0  3  0  0  0  0  0  0
  -22.4150   -8.1160   21.3950 C   0  0  0  0  0  0  0  0  0  0  0  0
  -22.0020   -9.0720   20.4510 C   0  0  0  0  0  3  0  0  0  0  0  0
  -22.7310  -10.2590   20.2670 C   0  0  0  0  0  3  0  0  0  0  0  0
  -21.6570   -6.9730   21.4860 O   0  0  0  0  0  0  0  0  0  0  0  0
  -21.6150   -6.2280   22.6370 C   0  0  0  0  0  0  0  0  0  0  0  0
  -21.2070   -6.7830   23.8700 C   0  0  0  0  0  3  0  0  0  0  0  0
  -21.1120   -5.9640   25.0130 C   0  0  0  0  0  3  0  0  0  0  0  0
  -21.4140   -4.5930   24.9240 C   0  0  0  0  0  0  0  0  0  0  0  0
  -21.8130   -4.0370   23.6960 C   0  0  0  0  0  3  0  0  0  0  0  0
  -21.9100   -4.8530   22.5560 C   0  0  0  0  0  0  0  0  0  0  0  0
  -22.2760   -4.3080   21.3700 F   0  0  0  0  0  0  0  0  0  0  0  0
  -21.3140   -3.8040   26.0200 F   0  0  0  0  0  0  0  0  0  0  0  0
  -22.7560  -13.6060   21.1230 C   0  0  0  0  0  0  0  0  0  0  0  0
  -22.0240  -12.9160   21.9890 N   0  0  0  0  0  0  0  0  0  0  0  0
  -22.3230  -14.6300   20.5960 O   0  0  0  0  0  0  0  0  0  0  0  0
  -22.3880  -12.0880   22.4370 H   0  0  0  0  0  0  0  0  0  0  0  0
  -21.0860  -13.2210   22.2090 H   0  0  0  0  0  0  0  0  0  0  0  0
  -25.3870  -15.2680   20.3020 N   0  0  0  0  0  0  0  0  0  0  0  0
  -24.6160  -15.9200   20.4020 H   0  0  0  0  0  0  0  0  0  0  0  0
  -26.2270  -15.7010   19.9440 H   0  0  0  0  0  0  0  0  0  0  0  0
  -28.2570  -26.3370   20.2560 O   0  0  0  0  0  0  0  0  0  0  0  0
  -24.6020  -31.8740   23.2320 C   0  0  0  0  0  0  0  0  0  0  0  0
  -27.1770  -27.2560   20.1700 C   0  0  0  0  0  0  0  0  0  0  0  0
  -23.3900  -30.4790   21.5980 C   0  0  0  0  0  3  0  0  0  0  0  0
  -24.8310  -28.9270   20.1570 C   0  0  0  0  0  0  0  0  0  0  0  0
  -25.9350  -30.7760   21.4080 C   0  0  0  0  0  2  0  0  0  0  0  0
  -26.0070  -29.3940   20.7570 C   0  0  0  0  0  0  0  0  0  0  0  0
  -27.1810  -28.5710   20.7540 C   0  0  0  0  0  3  0  0  0  0  0  0
  -25.9820  -26.8760   19.5160 C   0  0  0  0  0  3  0  0  0  0  0  0
  -24.8260  -27.6770   19.5220 C   0  0  0  0  0  3  0  0  0  0  0  0
  -23.5970  -29.8080   20.2150 C   0  0  0  0  0  2  0  0  0  0  0  0
  -24.6620  -31.0620   22.1350 N   0  0  0  0  0  0  0  0  0  0  0  0
  -23.5220  -32.1530   23.7700 O   0  0  0  0  0  0  0  0  0  0  0  0
  -22.7290  -29.4630   22.5610 C   0  0  0  0  0  0  0  0  0  0  0  0
  -21.4020  -29.2840   22.4380 N   0  0  0  0  0  0  0  0  0  0  0  0
  -23.4090  -28.8400   23.3800 O   0  0  0  0  0  0  0  0  0  0  0  0
  -20.9110  -29.8390   21.7510 H   0  0  0  0  0  0  0  0  0  0  0  0
  -18.0300  -28.0650   22.9380 C   0  0  0  0  0  0  0  0  0  0  0  0
  -20.5860  -28.3460   23.2130 C   0  0  0  0  0  3  0  0  0  0  0  0
  -20.6990  -26.9110   22.6490 C   0  0  0  0  0  2  0  0  0  0  0  0
  -19.6040  -26.5720   21.6340 C   0  0  0  0  0  2  0  0  0  0  0  0
  -18.2190  -26.7120   22.2720 C   0  0  0  0  0  2  0  0  0  0  0  0
  -19.1420  -28.8380   23.3650 C   0  0  0  0  0  0  0  0  0  0  0  0
  -18.9110  -30.1040   23.9490 C   0  0  0  0  0  3  0  0  0  0  0  0
  -17.6020  -30.5960   24.1070 C   0  0  0  0  0  3  0  0  0  0  0  0
  -16.5050  -29.8200   23.6960 C   0  0  0  0  0  3  0  0  0  0  0  0
  -16.7200  -28.5570   23.1160 C   0  0  0  0  0  3  0  0  0  0  0  0
  -25.8870  -32.5070   23.8470 C   0  0  0  0  0  3  0  0  0  0  0  0
  -25.5780  -33.9040   24.1850 N   0  0  0  0  0  0  0  0  0  0  0  0
  -25.9040  -34.9620   23.4280 C   0  0  0  0  0  0  0  0  0  0  0  0
  -26.5680  -34.8620   22.3930 O   0  0  0  0  0  0  0  0  0  0  0  0
  -24.9890  -34.0550   24.9910 H   0  0  0  0  0  0  0  0  0  0  0  0
  -24.1750  -36.7580   23.0950 C   0  0  0  0  0  1  0  0  0  0  0  0
  -25.4210  -36.3480   23.8960 C   0  0  0  0  0  3  0  0  0  0  0  0
  -27.5610  -37.2280   24.7190 C   0  0  0  0  0  1  0  0  0  0  0  0
  -26.4530  -37.4010   23.7820 N   0  0  0  0  0  0  0  0  0  0  0  0
  -26.0480  -38.3210   23.9360 H   0  0  0  0  0  0  0  0  0  0  0  0
  -26.4100  -31.7340   25.1200 C   0  0  1  0  0  0  0  0  0  0  0  0
  -25.3230  -31.4980   26.1940 C   0  0  0  0  0  1  0  0  0  0  0  0
  -26.9900  -30.3560   24.7270 C   0  0  0  0  0  1  0  0  0  0  0  0
  -27.5660  -32.5270   25.7750 C   0  0  0  0  0  1  0  0  0  0  0  0
  1  8  2  0
  2  7  1  0
  3  4  1  0
  3  5  1  0
  4  6  1  0
  5 56  1  0
  5  1  1  0
  6  2  1  0
  6  1  1  0
  7  9  1  0
  7 10  1  0
 11 15  1  0
 12 11  2  0
 12 16  1  0
 14 13  1  0
 14  2  1  0
 15 26  1  0
 15 13  2  0
 16 14  2  0
 17 16  1  0
 18 26  1  0
 19 24  1  0
 20 21  1  0
 20 19  1  0
 22 21  1  0
 22 31  1  0
 22 23  1  0
 24 18  1  0
 24 23  1  0
 25 18  2  0
 26 27  1  0
 28 29  2  0
 29 48  1  0
 30 29  1  0
 30 33  1  0
 31 28  1  0
 31 32  1  0
 32 30  2  0
 33 34  1  0
 34 35  2  0
 36 39  1  0
 36 35  1  0
 37 36  2  0
 38 37  1  0
 38 33  2  0
 39 40  1  0
 40 41  1  0
 41 42  2  0
 43 42  1  0
 43 47  1  0
 44 43  2  0
 45 40  2  0
 45 44  1  0
 46 45  1  0
 48 49  1  0
 49 52  1  0
 49 51  1  0
 50 48  2  0
 53 54  1  0
 53 28  1  0
 55 53  1  0
 57 68  2  0
 58 56  1  0
 58 63  1  0
 59 67  1  0
 59 69  1  0
 60 66  1  0
 60 62  1  0
 61 67  1  0
 62 61  1  0
 63 62  2  0
 64 65  1  0
 64 58  2  0
 65 60  2  0
 66 59  1  0
 67 57  1  0
 69 71  2  0
 70 69  1  0
 72 70  1  0
 73 82  2  0
 73 78  1  0
 74 70  1  0
 74 78  1  0
 75 74  1  0
 76 77  1  0
 76 75  1  0
 77 73  1  0
 78 79  2  0
 79 80  1  0
 81 80  2  0
 82 81  1  0
 83 57  1  0
 83 84  1  0
 83 93  1  0
 84 87  1  0
 85 89  1  0
 85 84  1  0
 86 85  2  0
 89 88  1  0
 91 89  1  0
 91 92  1  0
 91 90  1  0
 93 96  1  1
 93 94  1  0
 95 93  1  0
M  ISO  4   5 101  18 100  26 100  56 101
M  END
>  <TORSDO>  (13) 
F 17

>  <SCORE>  (13) 
-15.507

>  <name>  (13) 
12

>  <ligand_id>  (13) 
12

>  <original_smiles>  (13) 
[H]c1c([H])c([H])c2c(c1[H])C([H])([H])C([H])([H])C([H])([H])C2([H])N([H])C(=O)C1([H])N(C(=O)C([H])(N([H])C(=O)C([H])(N([H])C([H])([H])[H])C([H])([H])[H])C(C([H])([H])[H])(C([H])([H])[H])C([H])([H])[H])C([H])([H])c2c([H])c(OC3([H])C(=O)N(C(c4c([H])c(N([H])C(=O)N5C([H])([H])C([H])([H])C([H])([H])C([H])(n6nc(-c7c([H])c([H])c(Oc8c([H])c([H])c(F)c([H])c8F)c([H])c7[H])c(C(=O)N([H])[H])c6N([H])[H])C5([H])[H])c([H])c([H])c4F)=[N+]([H])[H])C([H])([H])C3([H])[H])c([H])c([H])c2C1([H])[H]

>  <smiles>  (13) 
[H]c1c([H])c([H])c2c(c1[H])C([H])([H])C([H])([H])C([H])([H])C2([H])N([H])C(=O)C1([H])N(C(=O)C([H])(N([H])C(=O)C([H])(N([H])C([H])([H])[H])C([H])([H])[H])C(C([H])([H])[H])(C([H])([H])[H])C([H])([H])[H])C([H])([H])c2c([H])c(OC3([H])C(=O)N(C(c4c([H])c(N([H])C(=O)N5C([H])([H])C([H])([H])C([H])([H])C([H])(n6nc(-c7c([H])c([H])c(Oc8c([H])c([H])c(F)c([H])c8F)c([H])c7[H])c(C(=O)N([H])[H])c6N([H])[H])C5([H])[H])c([H])c([H])c4F)=[N+]([H])[H])C([H])([H])C3([H])[H])c([H])c([H])c2C1([H])[H]

$$$$
13:0:0
     RDKit          3D

 95104  0  0  1  0  0  0  0  0999 V2000
  -29.3190  -20.4410   20.6200 C   0  0  0  0  0  3  0  0  0  0  0  0
  -26.7540  -21.9830   18.6520 C   0  0  0  0  0  2  0  0  0  0  0  0
  -26.6840  -22.5800   20.0650 C   0  0  0  0  0  2  0  0  0  0  0  0
  -28.1170  -21.2710   18.5820 C   0  0  0  0  0  2  0  0  0  0  0  0
  -28.1550  -22.7290   20.4840 C   0  0  0  0  0  3  0  0  0  0  0  0
  -28.7060  -21.4550   19.9170 N   0  0  0  0  0  0  0  0  0  0  0  0
  -29.6850  -20.6480   21.8940 N   0  0  0  0  0  0  0  0  0  0  0  0
  -30.0970  -19.8840   22.4100 H   0  0  0  0  0  0  0  0  0  0  0  0
  -29.5560  -21.5290   22.3630 H   0  0  0  0  0  0  0  0  0  0  0  0
  -29.9120  -18.5980   18.8430 C   0  0  0  0  0  3  0  0  0  0  0  0
  -30.0780  -17.1870   18.9650 C   0  0  0  0  0  3  0  0  0  0  0  0
  -29.5980  -19.0980   20.0790 C   0  0  0  0  0  0  0  0  0  0  0  0
  -29.9180  -16.9020   20.2930 C   0  0  0  0  0  0  0  0  0  0  0  0
  -29.5930  -18.0470   20.9900 O   0  0  0  0  0  0  0  0  0  0  0  0
  -30.6830  -14.5950   20.3750 C   0  0  0  0  0  0  0  0  0  0  0  0
  -30.4130  -12.4060   19.2700 C   0  0  0  0  0  2  0  0  0  0  0  0
  -29.4810  -12.6320   18.0620 C   0  0  0  0  0  2  0  0  0  0  0  0
  -28.0050  -12.4850   18.4840 C   0  0  0  0  0  2  0  0  0  0  0  0
  -27.6680  -13.3000   19.7640 C   0  0  0  0  0  3  0  0  0  0  0  0
  -28.7230  -13.0830   20.8720 C   0  0  0  0  0  2  0  0  0  0  0  0
  -30.0440  -13.3910   20.3060 N   0  0  0  0  0  0  0  0  0  0  0  0
  -31.8160  -14.7590   19.9090 O   0  0  0  0  0  0  0  0  0  0  0  0
  -29.9560  -15.6440   20.8430 N   0  0  0  0  0  0  0  0  0  0  0  0
  -29.1890  -15.4100   21.4550 H   0  0  0  0  0  0  0  0  0  0  0  0
  -25.2700  -13.8910   20.4790 C   0  0  0  0  0  0  0  0  0  0  0  0
  -24.2090  -13.1130   20.8560 C   0  0  0  0  0  0  0  0  0  0  0  0
  -24.6770  -11.7630   20.8220 C   0  0  0  0  0  0  0  0  0  0  0  0
  -26.3180  -13.0160   20.2430 N   0  0  0  0  0  0  0  0  0  0  0  0
  -25.9650  -11.7320   20.5050 N   0  0  0  0  0  0  0  0  0  0  0  0
  -23.9580  -10.4990   21.0170 C   0  0  0  0  0  0  0  0  0  0  0  0
  -24.3960   -9.5380   21.9550 C   0  0  0  0  0  3  0  0  0  0  0  0
  -23.6760   -8.3370   22.1360 C   0  0  0  0  0  3  0  0  0  0  0  0
  -22.5060   -8.0900   21.3790 C   0  0  0  0  0  0  0  0  0  0  0  0
  -22.0920   -9.0380   20.4280 C   0  0  0  0  0  3  0  0  0  0  0  0
  -22.8120  -10.2300   20.2440 C   0  0  0  0  0  3  0  0  0  0  0  0
  -21.7590   -6.9400   21.4690 O   0  0  0  0  0  0  0  0  0  0  0  0
  -21.7050   -6.2060   22.6260 C   0  0  0  0  0  0  0  0  0  0  0  0
  -21.2510   -6.7630   23.8420 C   0  0  0  0  0  3  0  0  0  0  0  0
  -21.1430   -5.9530   24.9910 C   0  0  0  0  0  3  0  0  0  0  0  0
  -21.4810   -4.5880   24.9260 C   0  0  0  0  0  0  0  0  0  0  0  0
  -21.9290   -4.0310   23.7150 C   0  0  0  0  0  3  0  0  0  0  0  0
  -22.0370   -4.8360   22.5680 C   0  0  0  0  0  0  0  0  0  0  0  0
  -22.4480   -4.2890   21.3980 F   0  0  0  0  0  0  0  0  0  0  0  0
  -21.3710   -3.8090   26.0270 F   0  0  0  0  0  0  0  0  0  0  0  0
  -22.8110  -13.5840   21.1370 C   0  0  0  0  0  0  0  0  0  0  0  0
  -22.0870  -12.8780   21.9980 N   0  0  0  0  0  0  0  0  0  0  0  0
  -22.3670  -14.6110   20.6250 O   0  0  0  0  0  0  0  0  0  0  0  0
  -22.4590  -12.0480   22.4380 H   0  0  0  0  0  0  0  0  0  0  0  0
  -21.1460  -13.1730   22.2230 H   0  0  0  0  0  0  0  0  0  0  0  0
  -25.4270  -15.2640   20.3010 N   0  0  0  0  0  0  0  0  0  0  0  0
  -24.6550  -15.9140   20.4080 H   0  0  0  0  0  0  0  0  0  0  0  0
  -26.2740  -15.7100   19.9730 H   0  0  0  0  0  0  0  0  0  0  0  0
  -28.7330  -24.0960   19.9340 C   0  0  0  0  0  2  0  0  0  0  0  0
  -28.2710  -25.3410   20.7720 C   0  0  0  0  0  2  0  0  0  0  0  0
  -28.4440  -26.6730   20.2040 O   0  0  0  0  0  0  0  0  0  0  0  0
  -24.6020  -31.9210   23.2350 C   0  0  0  0  0  0  0  0  0  0  0  0
  -27.3020  -27.4630   20.1850 C   0  0  0  0  0  0  0  0  0  0  0  0
  -23.4260  -30.5170   21.5760 C   0  0  0  0  0  3  0  0  0  0  0  0
  -24.9070  -28.9890   20.1640 C   0  0  0  0  0  0  0  0  0  0  0  0
  -25.9560  -30.8810   21.4110 C   0  0  0  0  0  2  0  0  0  0  0  0
  -26.0590  -29.5070   20.7700 C   0  0  0  0  0  0  0  0  0  0  0  0
  -27.2630  -28.7540   20.7740 C   0  0  0  0  0  3  0  0  0  0  0  0
  -26.1340  -26.9760   19.5620 C   0  0  0  0  0  3  0  0  0  0  0  0
  -24.9420  -27.7250   19.5510 C   0  0  0  0  0  3  0  0  0  0  0  0
  -23.6620  -29.8500   20.1950 C   0  0  0  0  0  2  0  0  0  0  0  0
  -24.6790  -31.1210   22.1330 N   0  0  0  0  0  0  0  0  0  0  0  0
  -23.5130  -32.1860   23.7620 O   0  0  0  0  0  0  0  0  0  0  0  0
  -22.7690  -29.4870   22.5260 C   0  0  0  0  0  0  0  0  0  0  0  0
  -21.4450  -29.3010   22.3870 N   0  0  0  0  0  0  0  0  0  0  0  0
  -23.4460  -28.8610   23.3440 O   0  0  0  0  0  0  0  0  0  0  0  0
  -20.9590  -29.8580   21.6990 H   0  0  0  0  0  0  0  0  0  0  0  0
  -18.0680  -28.1070   22.8700 C   0  0  0  0  0  0  0  0  0  0  0  0
  -20.6260  -28.3590   23.1500 C   0  0  0  0  0  3  0  0  0  0  0  0
  -20.7260  -26.9310   22.5630 C   0  0  0  0  0  2  0  0  0  0  0  0
  -19.6270  -26.6220   21.5430 C   0  0  0  0  0  2  0  0  0  0  0  0
  -18.2440  -26.7640   22.1840 C   0  0  0  0  0  2  0  0  0  0  0  0
  -19.1880  -28.8630   23.3100 C   0  0  0  0  0  0  0  0  0  0  0  0
  -18.9710  -30.1210   23.9130 C   0  0  0  0  0  3  0  0  0  0  0  0
  -17.6670  -30.6250   24.0790 C   0  0  0  0  0  3  0  0  0  0  0  0
  -16.5620  -29.8660   23.6550 C   0  0  0  0  0  3  0  0  0  0  0  0
  -16.7630  -28.6100   23.0550 C   0  0  0  0  0  3  0  0  0  0  0  0
  -25.8780  -32.5600   23.8690 C   0  0  0  0  0  3  0  0  0  0  0  0
  -26.3770  -31.7990   25.1580 C   0  0  1  0  0  0  0  0  0  0  0  0
  -25.2700  -31.5680   26.2120 C   0  0  0  0  0  1  0  0  0  0  0  0
  -26.9700  -30.4200   24.7810 C   0  0  0  0  0  1  0  0  0  0  0  0
  -27.5130  -32.6000   25.8350 C   0  0  0  0  0  1  0  0  0  0  0  0
  -25.5610  -33.9600   24.1840 N   0  0  0  0  0  0  0  0  0  0  0  0
  -25.9010  -35.0070   23.4210 C   0  0  0  0  0  0  0  0  0  0  0  0
  -26.5900  -34.8990   22.4040 O   0  0  0  0  0  0  0  0  0  0  0  0
  -24.9550  -34.1190   24.9750 H   0  0  0  0  0  0  0  0  0  0  0  0
  -24.1820  -36.7950   23.0080 C   0  0  0  0  0  1  0  0  0  0  0  0
  -25.3970  -36.3970   23.8580 C   0  0  0  0  0  3  0  0  0  0  0  0
  -27.5120  -37.2800   24.7410 C   0  0  0  0  0  1  0  0  0  0  0  0
  -26.4290  -37.4540   23.7770 N   0  0  0  0  0  0  0  0  0  0  0  0
  -26.0140  -38.3680   23.9300 H   0  0  0  0  0  0  0  0  0  0  0  0
  1  7  1  0
  2  3  1  0
  3  5  1  0
  4  2  1  0
  4  6  1  0
  5 53  1  0
  6  5  1  0
  6  1  1  0
  7  9  1  0
  7  8  1  0
 10 11  1  0
 10 12  2  0
 11 13  2  0
 12  1  1  0
 12 14  1  0
 13 23  1  0
 13 14  1  0
 15 23  1  0
 16 21  1  0
 17 18  1  0
 17 16  1  0
 19 18  1  0
 19 28  1  0
 19 20  1  0
 21 15  1  0
 21 20  1  0
 22 15  2  0
 23 24  1  0
 25 26  2  0
 26 45  1  0
 27 26  1  0
 27 30  1  0
 28 25  1  0
 28 29  1  0
 29 27  2  0
 30 31  1  0
 31 32  2  0
 33 36  1  0
 33 32  1  0
 34 33  2  0
 35 34  1  0
 35 30  2  0
 36 37  1  0
 37 38  1  0
 38 39  2  0
 40 39  1  0
 40 44  1  0
 41 40  2  0
 42 37  2  0
 42 41  1  0
 43 42  1  0
 45 46  1  0
 46 49  1  0
 46 48  1  0
 47 45  2  0
 50 51  1  0
 50 25  1  0
 52 50  1  0
 53 54  1  0
 55 54  1  0
 56 67  2  0
 57 55  1  0
 57 62  1  0
 58 66  1  0
 58 68  1  0
 59 65  1  0
 59 61  1  0
 60 66  1  0
 61 62  2  0
 61 60  1  0
 63 57  2  0
 64 63  1  0
 64 59  2  0
 65 58  1  0
 66 56  1  0
 68 70  2  0
 69 68  1  0
 71 69  1  0
 72 81  2  0
 72 77  1  0
 73 69  1  0
 73 77  1  0
 74 73  1  0
 75 76  1  0
 75 74  1  0
 76 72  1  0
 77 78  2  0
 78 79  1  0
 80 79  2  0
 81 80  1  0
 82 56  1  0
 82 87  1  0
 82 83  1  0
 83 86  1  1
 83 84  1  0
 85 83  1  0
 87 90  1  0
 88 92  1  0
 88 87  1  0
 89 88  2  0
 92 91  1  0
 94 92  1  0
 94 95  1  0
 94 93  1  0
M  ISO  4  15 100  23 100  54 101  55 101
M  END
>  <TORSDO>  (14) 
F 19

>  <SCORE>  (14) 
-14.706

>  <name>  (14) 
13

>  <ligand_id>  (14) 
13

>  <original_smiles>  (14) 
[H]c1c(C(N2C([H])([H])C([H])([H])C([H])([H])C2([H])C([H])([H])C([H])([H])Oc2c([H])c([H])c3c(c2[H])C([H])([H])N(C(=O)C([H])(N([H])C(=O)C([H])(N([H])C([H])([H])[H])C([H])([H])[H])C(C([H])([H])[H])(C([H])([H])[H])C([H])([H])[H])C([H])(C(=O)N([H])C2([H])c4c([H])c([H])c([H])c([H])c4C([H])([H])C([H])([H])C2([H])[H])C3([H])[H])=[N+]([H])[H])oc(N([H])C(=O)N2C([H])([H])C([H])([H])C([H])([H])C([H])(n3nc(-c4c([H])c([H])c(Oc5c([H])c([H])c(F)c([H])c5F)c([H])c4[H])c(C(=O)N([H])[H])c3N([H])[H])C2([H])[H])c1[H]

>  <smiles>  (14) 
[H]c1c(C(N2C([H])([H])C([H])([H])C([H])([H])C2([H])C([H])([H])C([H])([H])Oc2c([H])c([H])c3c(c2[H])C([H])([H])N(C(=O)C([H])(N([H])C(=O)C([H])(N([H])C([H])([H])[H])C([H])([H])[H])C(C([H])([H])[H])(C([H])([H])[H])C([H])([H])[H])C([H])(C(=O)N([H])C2([H])c4c([H])c([H])c([H])c([H])c4C([H])([H])C([H])([H])C2([H])[H])C3([H])[H])=[N+]([H])[H])oc(N([H])C(=O)N2C([H])([H])C([H])([H])C([H])([H])C([H])(n3nc(-c4c([H])c([H])c(Oc5c([H])c([H])c(F)c([H])c5F)c([H])c4[H])c(C(=O)N([H])[H])c3N([H])[H])C2([H])[H])c1[H]

$$$$
14:0:0
     RDKit          3D

 91100  0  0  1  0  0  0  0  0999 V2000
  -28.8450  -22.7110   20.4480 C   0  0  0  0  0  0  0  0  0  0  0  0
  -29.1380  -21.6590   19.6370 N   0  0  0  0  0  0  0  0  0  0  0  0
  -28.6490  -22.5850   21.6590 O   0  0  0  0  0  0  0  0  0  0  0  0
  -29.2480  -21.9160   18.6660 H   0  0  0  0  0  0  0  0  0  0  0  0
  -30.7590  -14.6160   20.0150 C   0  0  0  0  0  0  0  0  0  0  0  0
  -30.4240  -12.4250   18.9290 C   0  0  0  0  0  2  0  0  0  0  0  0
  -29.4140  -12.6130   17.7780 C   0  0  0  0  0  2  0  0  0  0  0  0
  -27.9680  -12.4670   18.2930 C   0  0  0  0  0  2  0  0  0  0  0  0
  -27.6960  -13.3040   19.5720 C   0  0  0  0  0  3  0  0  0  0  0  0
  -28.8190  -13.1210   20.6180 C   0  0  0  0  0  2  0  0  0  0  0  0
  -30.0940  -13.4260   19.9580 N   0  0  0  0  0  0  0  0  0  0  0  0
  -31.9260  -14.7270   19.6200 O   0  0  0  0  0  0  0  0  0  0  0  0
  -29.4580  -19.3380   18.9240 C   0  0  0  0  0  3  0  0  0  0  0  0
  -29.6500  -18.0170   19.4490 C   0  0  0  0  0  0  0  0  0  0  0  0
  -29.6660  -17.9660   20.7830 C   0  0  0  0  0  0  0  0  0  0  0  0
  -29.3170  -20.3170   19.9000 C   0  0  0  0  0  0  0  0  0  0  0  0
  -29.8530  -16.6330   18.9060 C   0  0  0  0  0  3  0  0  0  0  0  0
  -29.8780  -16.5820   21.3100 C   0  0  0  0  0  3  0  0  0  0  0  0
  -29.9660  -15.7260   20.0930 N   0  0  0  0  0  0  0  0  0  0  0  0
  -29.4300  -19.5460   21.5030 S   0  0  0  0  0  0  0  0  0  0  0  0
  -25.3590  -13.9000   20.4590 C   0  0  0  0  0  0  0  0  0  0  0  0
  -24.3070  -13.1240   20.8650 C   0  0  0  0  0  0  0  0  0  0  0  0
  -24.7530  -11.7710   20.7600 C   0  0  0  0  0  0  0  0  0  0  0  0
  -26.3790  -13.0200   20.1330 N   0  0  0  0  0  0  0  0  0  0  0  0
  -26.0220  -11.7310   20.3740 N   0  0  0  0  0  0  0  0  0  0  0  0
  -24.0270  -10.5080   20.9510 C   0  0  0  0  0  0  0  0  0  0  0  0
  -24.4610   -9.5400   21.8830 C   0  0  0  0  0  3  0  0  0  0  0  0
  -23.7350   -8.3420   22.0620 C   0  0  0  0  0  3  0  0  0  0  0  0
  -22.5610   -8.1050   21.3080 C   0  0  0  0  0  0  0  0  0  0  0  0
  -22.1460   -9.0630   20.3650 C   0  0  0  0  0  3  0  0  0  0  0  0
  -22.8730  -10.2510   20.1850 C   0  0  0  0  0  3  0  0  0  0  0  0
  -21.8070   -6.9600   21.3950 O   0  0  0  0  0  0  0  0  0  0  0  0
  -21.6960   -6.2600   22.5700 C   0  0  0  0  0  0  0  0  0  0  0  0
  -21.1810   -6.8510   23.7450 C   0  0  0  0  0  3  0  0  0  0  0  0
  -21.0200   -6.0750   24.9100 C   0  0  0  0  0  3  0  0  0  0  0  0
  -21.3620   -4.7100   24.9010 C   0  0  0  0  0  0  0  0  0  0  0  0
  -21.8710   -4.1190   23.7310 C   0  0  0  0  0  3  0  0  0  0  0  0
  -22.0340   -4.8910   22.5690 C   0  0  0  0  0  0  0  0  0  0  0  0
  -22.5030   -4.3120   21.4380 F   0  0  0  0  0  0  0  0  0  0  0  0
  -21.2010   -3.9630   26.0180 F   0  0  0  0  0  0  0  0  0  0  0  0
  -22.9350  -13.6030   21.2380 C   0  0  0  0  0  0  0  0  0  0  0  0
  -22.2540  -12.8840   22.1240 N   0  0  0  0  0  0  0  0  0  0  0  0
  -22.4750  -14.6490   20.7810 O   0  0  0  0  0  0  0  0  0  0  0  0
  -22.6390  -12.0370   22.5160 H   0  0  0  0  0  0  0  0  0  0  0  0
  -21.3360  -13.1870   22.4170 H   0  0  0  0  0  0  0  0  0  0  0  0
  -25.5290  -15.2750   20.3230 N   0  0  0  0  0  0  0  0  0  0  0  0
  -24.7840  -15.9350   20.5170 H   0  0  0  0  0  0  0  0  0  0  0  0
  -26.3810  -15.7210   20.0050 H   0  0  0  0  0  0  0  0  0  0  0  0
  -28.7570  -24.1290   19.7920 C   0  0  0  0  0  3  0  0  0  0  0  0
  -28.3270  -25.3130   20.7290 C   0  0  0  0  0  3  0  0  0  0  0  0
  -28.4420  -26.6550   20.1700 O   0  0  0  0  0  0  0  0  0  0  0  0
  -24.6030  -31.8900   23.2010 C   0  0  0  0  0  0  0  0  0  0  0  0
  -27.2880  -27.4230   20.1590 C   0  0  0  0  0  0  0  0  0  0  0  0
  -23.4160  -30.4700   21.5610 C   0  0  0  0  0  3  0  0  0  0  0  0
  -24.8890  -28.9380   20.1450 C   0  0  0  0  0  0  0  0  0  0  0  0
  -25.9420  -30.8450   21.3690 C   0  0  0  0  0  2  0  0  0  0  0  0
  -26.0440  -29.4690   20.7330 C   0  0  0  0  0  0  0  0  0  0  0  0
  -27.2510  -28.7230   20.7280 C   0  0  0  0  0  3  0  0  0  0  0  0
  -26.1170  -26.9160   19.5600 C   0  0  0  0  0  3  0  0  0  0  0  0
  -24.9230  -27.6630   19.5520 C   0  0  0  0  0  3  0  0  0  0  0  0
  -23.6380  -29.7880   20.1850 C   0  0  0  0  0  2  0  0  0  0  0  0
  -24.6720  -31.0840   22.1030 N   0  0  0  0  0  0  0  0  0  0  0  0
  -23.5170  -32.1550   23.7360 O   0  0  0  0  0  0  0  0  0  0  0  0
  -22.7690  -29.4480   22.5250 C   0  0  0  0  0  0  0  0  0  0  0  0
  -21.4500  -29.2440   22.3880 N   0  0  0  0  0  0  0  0  0  0  0  0
  -23.4550  -28.8400   23.3520 O   0  0  0  0  0  0  0  0  0  0  0  0
  -20.9560  -29.7880   21.6930 H   0  0  0  0  0  0  0  0  0  0  0  0
  -18.0920  -27.9900   22.8570 C   0  0  0  0  0  0  0  0  0  0  0  0
  -20.6410  -28.2990   23.1580 C   0  0  0  0  0  3  0  0  0  0  0  0
  -20.7780  -26.8640   22.5970 C   0  0  0  0  0  2  0  0  0  0  0  0
  -19.6950  -26.5100   21.5730 C   0  0  0  0  0  2  0  0  0  0  0  0
  -18.3030  -26.6360   22.1980 C   0  0  0  0  0  2  0  0  0  0  0  0
  -19.1900  -28.7770   23.2940 C   0  0  0  0  0  0  0  0  0  0  0  0
  -18.9400  -30.0430   23.8680 C   0  0  0  0  0  3  0  0  0  0  0  0
  -17.6240  -30.5210   24.0110 C   0  0  0  0  0  3  0  0  0  0  0  0
  -16.5410  -29.7310   23.5910 C   0  0  0  0  0  3  0  0  0  0  0  0
  -16.7750  -28.4670   23.0210 C   0  0  0  0  0  3  0  0  0  0  0  0
  -25.8810  -32.5370   23.8210 C   0  0  0  0  0  3  0  0  0  0  0  0
  -25.5540  -33.9300   24.1570 N   0  0  0  0  0  0  0  0  0  0  0  0
  -25.8810  -34.9900   23.4050 C   0  0  0  0  0  0  0  0  0  0  0  0
  -26.5600  -34.8980   22.3780 O   0  0  0  0  0  0  0  0  0  0  0  0
  -24.9520  -34.0740   24.9540 H   0  0  0  0  0  0  0  0  0  0  0  0
  -24.1450  -36.7720   23.0340 C   0  0  0  0  0  1  0  0  0  0  0  0
  -25.3750  -36.3710   23.8650 C   0  0  0  0  0  3  0  0  0  0  0  0
  -27.4850  -37.2680   24.7430 C   0  0  0  0  0  1  0  0  0  0  0  0
  -26.4010  -37.4320   23.7780 N   0  0  0  0  0  0  0  0  0  0  0  0
  -25.9840  -38.3480   23.9220 H   0  0  0  0  0  0  0  0  0  0  0  0
  -26.4110  -31.7690   25.0940 C   0  0  1  0  0  0  0  0  0  0  0  0
  -25.3240  -31.5080   26.1620 C   0  0  0  0  0  1  0  0  0  0  0  0
  -27.0160  -30.4030   24.6930 C   0  0  0  0  0  1  0  0  0  0  0  0
  -27.5510  -32.5770   25.7580 C   0  0  0  0  0  1  0  0  0  0  0  0
  1  3  2  0
  2 16  1  0
  2  1  1  0
  4  2  1  0
  5 19  1  0
  6 11  1  0
  7  8  1  0
  7  6  1  0
  9  8  1  0
  9 24  1  0
  9 10  1  0
 11  5  1  0
 11 10  1  0
 12  5  2  0
 13 14  1  0
 13 16  2  0
 14 15  1  0
 15 18  2  0
 15 20  1  0
 16 20  1  0
 17 14  2  0
 17 19  1  0
 19 18  1  0
 21 22  2  0
 22 41  1  0
 23 22  1  0
 23 26  1  0
 24 25  1  0
 24 21  1  0
 25 23  2  0
 26 27  1  0
 27 28  2  0
 29 32  1  0
 29 28  1  0
 30 29  2  0
 31 30  1  0
 31 26  2  0
 32 33  1  0
 33 34  1  0
 34 35  2  0
 36 35  1  0
 36 40  1  0
 37 36  2  0
 38 33  2  0
 38 37  1  0
 39 38  1  0
 41 42  1  0
 42 45  1  0
 42 44  1  0
 43 41  2  0
 46 21  1  0
 46 47  1  0
 48 46  1  0
 49  1  1  0
 49 50  2  0
 51 50  1  0
 52 63  2  0
 53 51  1  0
 53 58  1  0
 54 62  1  0
 54 64  1  0
 55 61  1  0
 55 57  1  0
 56 62  1  0
 57 56  1  0
 58 57  2  0
 59 53  2  0
 60 59  1  0
 60 55  2  0
 61 54  1  0
 62 52  1  0
 64 66  2  0
 65 64  1  0
 67 65  1  0
 68 77  2  0
 68 73  1  0
 69 65  1  0
 69 73  1  0
 70 69  1  0
 71 72  1  0
 71 70  1  0
 72 68  1  0
 73 74  2  0
 74 75  1  0
 76 75  2  0
 77 76  1  0
 78 52  1  0
 78 79  1  0
 78 88  1  0
 79 82  1  0
 80 84  1  0
 80 79  1  0
 81 80  2  0
 84 83  1  0
 86 84  1  0
 86 87  1  0
 86 85  1  0
 88 91  1  1
 88 89  1  0
 90 88  1  0
M  ISO  4   5 100  19 100  50 101  51 101
M  END
>  <TORSDO>  (15) 
F 18

>  <SCORE>  (15) 
-13.996

>  <name>  (15) 
14

>  <ligand_id>  (15) 
14

>  <original_smiles>  (15) 
[H]c1c([H])c([H])c2c(c1[H])C([H])([H])C([H])([H])C([H])([H])C2([H])N([H])C(=O)C1([H])N(C(=O)C([H])(N([H])C(=O)C([H])(N([H])C([H])([H])[H])C([H])([H])[H])C(C([H])([H])[H])(C([H])([H])[H])C([H])([H])[H])C([H])([H])c2c([H])c(OC([H])([H])C([H])([H])C(=O)N([H])c3sc4c(c3[H])C([H])([H])N(C(=O)N3C([H])([H])C([H])([H])C([H])([H])C([H])(n5nc(-c6c([H])c([H])c(Oc7c([H])c([H])c(F)c([H])c7F)c([H])c6[H])c(C(=O)N([H])[H])c5N([H])[H])C3([H])[H])C4([H])[H])c([H])c([H])c2C1([H])[H]

>  <smiles>  (15) 
[H]c1c([H])c([H])c2c(c1[H])C([H])([H])C([H])([H])C([H])([H])C2([H])N([H])C(=O)C1([H])N(C(=O)C([H])(N([H])C(=O)C([H])(N([H])C([H])([H])[H])C([H])([H])[H])C(C([H])([H])[H])(C([H])([H])[H])C([H])([H])[H])C([H])([H])c2c([H])c(OC([H])([H])C([H])([H])C(=O)N([H])c3sc4c(c3[H])C([H])([H])N(C(=O)N3C([H])([H])C([H])([H])C([H])([H])C([H])(n5nc(-c6c([H])c([H])c(Oc7c([H])c([H])c(F)c([H])c7F)c([H])c6[H])c(C(=O)N([H])[H])c5N([H])[H])C3([H])[H])C4([H])[H])c([H])c([H])c2C1([H])[H]

$$$$
15:0:0
     RDKit          3D

 97106  0  0  1  0  0  0  0  0999 V2000
  -31.0870  -18.1350   21.2120 C   0  0  0  0  0  3  0  0  0  0  0  0
  -29.0220  -18.4570   20.4290 C   0  0  0  0  0  3  0  0  0  0  0  0
  -29.9560  -17.4510   20.6830 C   0  0  0  0  0  0  0  0  0  0  0  0
  -30.8340  -19.4970   21.2700 C   0  0  0  0  0  0  0  0  0  0  0  0
  -29.5370  -19.7470   20.7600 N   0  0  0  0  0  0  0  0  0  0  0  0
  -30.6380  -14.9040   20.3890 C   0  0  0  0  0  0  0  0  0  0  0  0
  -30.5390  -12.6060   19.3890 C   0  0  0  0  0  2  0  0  0  0  0  0
  -29.6180  -12.6370   18.1480 C   0  0  0  0  0  2  0  0  0  0  0  0
  -28.1330  -12.4660   18.5450 C   0  0  0  0  0  2  0  0  0  0  0  0
  -27.7320  -13.3390   19.7650 C   0  0  0  0  0  3  0  0  0  0  0  0
  -28.7730  -13.2630   20.9010 C   0  0  0  0  0  2  0  0  0  0  0  0
  -30.0690  -13.6520   20.3250 N   0  0  0  0  0  0  0  0  0  0  0  0
  -31.8290  -15.0530   20.0870 O   0  0  0  0  0  0  0  0  0  0  0  0
  -29.7710  -15.9810   20.5590 N   0  0  0  0  0  0  0  0  0  0  0  0
  -28.8060  -15.6880   20.5710 H   0  0  0  0  0  0  0  0  0  0  0  0
  -25.3390  -13.9130   20.4890 C   0  0  0  0  0  0  0  0  0  0  0  0
  -24.2780  -13.1330   20.8600 C   0  0  0  0  0  0  0  0  0  0  0  0
  -24.7500  -11.7870   20.8290 C   0  0  0  0  0  0  0  0  0  0  0  0
  -26.3870  -13.0380   20.2450 N   0  0  0  0  0  0  0  0  0  0  0  0
  -26.0390  -11.7550   20.5140 N   0  0  0  0  0  0  0  0  0  0  0  0
  -24.0290  -10.5210   21.0180 C   0  0  0  0  0  0  0  0  0  0  0  0
  -24.4550   -9.5610   21.9630 C   0  0  0  0  0  3  0  0  0  0  0  0
  -23.7340   -8.3590   22.1420 C   0  0  0  0  0  3  0  0  0  0  0  0
  -22.5720   -8.1100   21.3720 C   0  0  0  0  0  0  0  0  0  0  0  0
  -22.1640   -9.0580   20.4150 C   0  0  0  0  0  3  0  0  0  0  0  0
  -22.8890  -10.2500   20.2360 C   0  0  0  0  0  3  0  0  0  0  0  0
  -21.8270   -6.9600   21.4550 O   0  0  0  0  0  0  0  0  0  0  0  0
  -21.7560   -6.2300   22.6140 C   0  0  0  0  0  0  0  0  0  0  0  0
  -21.2740   -6.7910   23.8170 C   0  0  0  0  0  3  0  0  0  0  0  0
  -21.1470   -5.9870   24.9670 C   0  0  0  0  0  3  0  0  0  0  0  0
  -21.4960   -4.6240   24.9170 C   0  0  0  0  0  0  0  0  0  0  0  0
  -21.9710   -4.0630   23.7200 C   0  0  0  0  0  3  0  0  0  0  0  0
  -22.0990   -4.8640   22.5710 C   0  0  0  0  0  0  0  0  0  0  0  0
  -22.5380   -4.3110   21.4140 F   0  0  0  0  0  0  0  0  0  0  0  0
  -21.3680   -3.8520   26.0210 F   0  0  0  0  0  0  0  0  0  0  0  0
  -22.8770  -13.6060   21.1250 C   0  0  0  0  0  0  0  0  0  0  0  0
  -22.1460  -12.9160   21.9910 N   0  0  0  0  0  0  0  0  0  0  0  0
  -22.4400  -14.6270   20.6000 O   0  0  0  0  0  0  0  0  0  0  0  0
  -22.5110  -12.0950   22.4520 H   0  0  0  0  0  0  0  0  0  0  0  0
  -21.2100  -13.2260   22.2000 H   0  0  0  0  0  0  0  0  0  0  0  0
  -25.4830  -15.2880   20.3070 N   0  0  0  0  0  0  0  0  0  0  0  0
  -24.6800  -15.9030   20.3650 H   0  0  0  0  0  0  0  0  0  0  0  0
  -26.2750  -15.7220   19.8530 H   0  0  0  0  0  0  0  0  0  0  0  0
  -31.6360  -20.5800   21.8670 C   0  0  0  0  0  0  0  0  0  0  0  0
  -31.1890  -21.3320   22.7770 N   0  0  0  0  0  0  0  0  0  0  0  0
  -30.2450  -21.0810   23.0370 H   0  0  0  0  0  0  0  0  0  0  0  0
  -34.1490  -19.9890   22.1450 C   0  0  0  0  0  2  0  0  0  0  0  0
  -34.0180  -19.9150   20.6380 C   0  0  0  0  0  2  0  0  0  0  0  0
  -33.0860  -20.8020   21.4450 C   0  0  0  0  0  3  0  0  0  0  0  0
  -28.7450  -21.0720   20.7400 C   0  0  0  0  0  2  0  0  0  0  0  0
  -29.1990  -22.4810   20.1140 C   0  0  0  0  0  0  0  0  0  0  0  0
  -29.9240  -22.4570   19.1140 O   0  0  0  0  0  0  0  0  0  0  0  0
  -27.7050  -23.7410   21.8160 C   0  0  0  0  0  1  0  0  0  0  0  0
  -30.0320  -24.5700   21.3500 C   0  0  0  0  0  1  0  0  0  0  0  0
  -28.7790  -23.9270   20.7140 C   0  0  1  0  0  0  0  0  0  0  0  0
  -28.2500  -25.0330   19.6620 C   0  0  0  0  0  2  0  0  0  0  0  0
  -28.3680  -26.5090   19.9610 O   0  0  0  0  0  0  0  0  0  0  0  0
  -24.6200  -31.8090   23.1480 C   0  0  0  0  0  0  0  0  0  0  0  0
  -27.2620  -27.3840   19.9010 C   0  0  0  0  0  0  0  0  0  0  0  0
  -23.4350  -30.4720   21.4520 C   0  0  0  0  0  3  0  0  0  0  0  0
  -24.8990  -29.0090   19.9490 C   0  0  0  0  0  0  0  0  0  0  0  0
  -25.9730  -30.8170   21.2850 C   0  0  0  0  0  2  0  0  0  0  0  0
  -26.0620  -29.4670   20.5810 C   0  0  0  0  0  0  0  0  0  0  0  0
  -27.2450  -28.6610   20.5520 C   0  0  0  0  0  3  0  0  0  0  0  0
  -26.0860  -27.0120   19.2090 C   0  0  0  0  0  3  0  0  0  0  0  0
  -24.9160  -27.7940   19.2550 C   0  0  0  0  0  3  0  0  0  0  0  0
  -23.6530  -29.8660   20.0410 C   0  0  0  0  0  2  0  0  0  0  0  0
  -24.6960  -31.0480   22.0180 N   0  0  0  0  0  0  0  0  0  0  0  0
  -23.5330  -32.0500   23.6910 O   0  0  0  0  0  0  0  0  0  0  0  0
  -22.7870  -29.4030   22.3630 C   0  0  0  0  0  0  0  0  0  0  0  0
  -21.4570  -29.2330   22.2460 N   0  0  0  0  0  0  0  0  0  0  0  0
  -23.4740  -28.7320   23.1350 O   0  0  0  0  0  0  0  0  0  0  0  0
  -20.9600  -29.8230   21.5940 H   0  0  0  0  0  0  0  0  0  0  0  0
  -18.0800  -28.0510   22.7740 C   0  0  0  0  0  0  0  0  0  0  0  0
  -20.6480  -28.2560   22.9770 C   0  0  0  0  0  3  0  0  0  0  0  0
  -20.7090  -26.8680   22.3010 C   0  0  0  0  0  2  0  0  0  0  0  0
  -19.5700  -26.6300   21.3030 C   0  0  0  0  0  2  0  0  0  0  0  0
  -18.2110  -26.7500   21.9990 C   0  0  0  0  0  2  0  0  0  0  0  0
  -19.2250  -28.7650   23.2180 C   0  0  0  0  0  0  0  0  0  0  0  0
  -19.0410  -29.9870   23.9040 C   0  0  0  0  0  3  0  0  0  0  0  0
  -17.7510  -30.4940   24.1420 C   0  0  0  0  0  3  0  0  0  0  0  0
  -16.6230  -29.7760   23.7130 C   0  0  0  0  0  3  0  0  0  0  0  0
  -16.7880  -28.5540   23.0370 C   0  0  0  0  0  3  0  0  0  0  0  0
  -25.8920  -32.4310   23.8020 C   0  0  0  0  0  3  0  0  0  0  0  0
  -25.5760  -33.8240   24.1550 N   0  0  0  0  0  0  0  0  0  0  0  0
  -25.9280  -34.8920   23.4260 C   0  0  0  0  0  0  0  0  0  0  0  0
  -26.6210  -34.8070   22.4080 O   0  0  0  0  0  0  0  0  0  0  0  0
  -24.9580  -33.9630   24.9410 H   0  0  0  0  0  0  0  0  0  0  0  0
  -24.2240  -36.7020   23.0550 C   0  0  0  0  0  1  0  0  0  0  0  0
  -25.4350  -36.2740   23.8980 C   0  0  0  0  0  3  0  0  0  0  0  0
  -27.5470  -37.1230   24.8200 C   0  0  0  0  0  1  0  0  0  0  0  0
  -26.4790  -37.3210   23.8430 N   0  0  0  0  0  0  0  0  0  0  0  0
  -26.0760  -38.2420   23.9940 H   0  0  0  0  0  0  0  0  0  0  0  0
  -26.3830  -31.6370   25.0730 C   0  0  1  0  0  0  0  0  0  0  0  0
  -25.2680  -31.3810   26.1180 C   0  0  0  0  0  1  0  0  0  0  0  0
  -26.9680  -30.2660   24.6650 C   0  0  0  0  0  1  0  0  0  0  0  0
  -27.5320  -32.4110   25.7600 C   0  0  0  0  0  1  0  0  0  0  0  0
  1  4  2  0
  2  3  2  0
  2  5  1  0
  3  1  1  0
  4 44  1  0
  5  4  1  0
  6 14  1  0
  7 12  1  0
  8  9  1  0
  8  7  1  0
 10  9  1  0
 10 19  1  0
 10 11  1  0
 12  6  1  0
 12 11  1  0
 13  6  2  0
 14 15  1  0
 14  3  1  0
 16 17  2  0
 17 36  1  0
 18 17  1  0
 18 21  1  0
 19 16  1  0
 19 20  1  0
 20 18  2  0
 21 22  1  0
 22 23  2  0
 24 27  1  0
 24 23  1  0
 25 24  2  0
 26 25  1  0
 26 21  2  0
 27 28  1  0
 28 29  1  0
 29 30  2  0
 31 30  1  0
 31 35  1  0
 32 31  2  0
 33 28  2  0
 33 32  1  0
 34 33  1  0
 36 37  1  0
 37 40  1  0
 37 39  1  0
 38 36  2  0
 41 42  1  0
 41 16  1  0
 43 41  1  0
 44 45  2  0
 45 46  1  0
 48 49  1  0
 48 47  1  0
 49 44  1  0
 49 47  1  0
 50  5  1  0
 51 55  1  0
 51 50  1  0
 52 51  2  0
 55 54  1  1
 55 53  1  0
 56 57  1  0
 56 55  1  0
 58 69  2  0
 59 57  1  0
 59 64  1  0
 60 68  1  0
 60 70  1  0
 61 67  1  0
 61 63  1  0
 62 68  1  0
 63 62  1  0
 64 63  2  0
 65 66  1  0
 65 59  2  0
 66 61  2  0
 67 60  1  0
 68 58  1  0
 70 72  2  0
 71 70  1  0
 73 71  1  0
 74 83  2  0
 74 79  1  0
 75 71  1  0
 75 79  1  0
 76 75  1  0
 77 78  1  0
 77 76  1  0
 78 74  1  0
 79 80  2  0
 80 81  1  0
 82 81  2  0
 83 82  1  0
 84 58  1  0
 84 85  1  0
 84 94  1  0
 85 88  1  0
 86 90  1  0
 86 85  1  0
 87 86  2  0
 90 89  1  0
 92 90  1  0
 92 93  1  0
 92 91  1  0
 94 97  1  1
 94 95  1  0
 96 94  1  0
M  ISO  4   6 100  14 100  56 101  57 101
M  END
>  <TORSDO>  (16) 
F 22

>  <SCORE>  (16) 
-13.742

>  <name>  (16) 
15

>  <ligand_id>  (16) 
15

>  <original_smiles>  (16) 
[H]N=C(c1c([H])c(N([H])C(=O)N2C([H])([H])C([H])([H])C([H])([H])C([H])(n3nc(-c4c([H])c([H])c(Oc5c([H])c([H])c(F)c([H])c5F)c([H])c4[H])c(C(=O)N([H])[H])c3N([H])[H])C2([H])[H])c([H])n1C([H])([H])C(=O)C(C([H])([H])[H])(C([H])([H])[H])C([H])([H])Oc1c([H])c([H])c2c(c1[H])C([H])([H])N(C(=O)C([H])(N([H])C(=O)C([H])(N([H])C([H])([H])[H])C([H])([H])[H])C(C([H])([H])[H])(C([H])([H])[H])C([H])([H])[H])C([H])(C(=O)N([H])C1([H])c3c([H])c([H])c([H])c([H])c3C([H])([H])C([H])([H])C1([H])[H])C2([H])[H])C1([H])C([H])([H])C1([H])[H]

>  <smiles>  (16) 
[H]N=C(c1c([H])c(N([H])C(=O)N2C([H])([H])C([H])([H])C([H])([H])C([H])(n3nc(-c4c([H])c([H])c(Oc5c([H])c([H])c(F)c([H])c5F)c([H])c4[H])c(C(=O)N([H])[H])c3N([H])[H])C2([H])[H])c([H])n1C([H])([H])C(=O)C(C([H])([H])[H])(C([H])([H])[H])C([H])([H])Oc1c([H])c([H])c2c(c1[H])C([H])([H])N(C(=O)C([H])(N([H])C(=O)C([H])(N([H])C([H])([H])[H])C([H])([H])[H])C(C([H])([H])[H])(C([H])([H])[H])C([H])([H])[H])C([H])(C(=O)N([H])C1([H])c3c([H])c([H])c([H])c([H])c3C([H])([H])C([H])([H])C1([H])[H])C2([H])[H])C1([H])C([H])([H])C1([H])[H]

$$$$
16:0:0
     RDKit          3D

 95104  0  0  1  0  0  0  0  0999 V2000
  -28.7880  -24.1140   19.8530 C   0  0  0  0  0  0  0  0  0  0  0  0
  -28.5260  -22.9540   19.2080 C   0  0  0  0  0  0  0  0  0  0  0  0
  -28.8360  -20.4840   19.6130 C   0  0  0  0  0  3  0  0  0  0  0  0
  -29.4830  -23.8480   21.1660 C   0  0  0  0  0  3  0  0  0  0  0  0
  -29.6760  -22.3080   21.1520 C   0  0  0  0  0  3  0  0  0  0  0  0
  -28.0080  -22.8460   17.7780 C   0  0  0  0  0  1  0  0  0  0  0  0
  -28.9930  -21.8270   19.9310 N   0  0  0  0  0  0  0  0  0  0  0  0
  -27.9630  -20.1270   18.6560 N   0  0  0  0  0  0  0  0  0  0  0  0
  -27.8740  -19.1640   18.3740 H   0  0  0  0  0  0  0  0  0  0  0  0
  -27.4290  -20.8250   18.1600 H   0  0  0  0  0  0  0  0  0  0  0  0
  -29.0880  -18.0380   20.3930 C   0  0  0  0  0  3  0  0  0  0  0  0
  -31.3590  -17.6580   20.8010 C   0  0  0  0  0  3  0  0  0  0  0  0
  -30.1230  -17.0730   20.6790 C   0  0  0  0  0  0  0  0  0  0  0  0
  -29.5540  -19.3330   20.1960 C   0  0  0  0  0  0  0  0  0  0  0  0
  -31.2810  -19.3830   20.4970 S   0  0  0  0  0  0  0  0  0  0  0  0
  -30.6330  -14.5910   20.4630 C   0  0  0  0  0  0  0  0  0  0  0  0
  -30.3750  -12.3890   19.3670 C   0  0  0  0  0  2  0  0  0  0  0  0
  -29.4290  -12.5510   18.1570 C   0  0  0  0  0  2  0  0  0  0  0  0
  -27.9570  -12.4050   18.5900 C   0  0  0  0  0  2  0  0  0  0  0  0
  -27.6100  -13.2610   19.8360 C   0  0  0  0  0  3  0  0  0  0  0  0
  -28.6690  -13.0780   20.9480 C   0  0  0  0  0  2  0  0  0  0  0  0
  -29.9850  -13.3940   20.3710 N   0  0  0  0  0  0  0  0  0  0  0  0
  -31.7950  -14.7310   20.0700 O   0  0  0  0  0  0  0  0  0  0  0  0
  -29.8600  -15.6550   20.8230 N   0  0  0  0  0  0  0  0  0  0  0  0
  -28.9080  -15.4070   21.0480 H   0  0  0  0  0  0  0  0  0  0  0  0
  -25.2200  -13.8670   20.5670 C   0  0  0  0  0  0  0  0  0  0  0  0
  -24.1510  -13.0940   20.9340 C   0  0  0  0  0  0  0  0  0  0  0  0
  -24.6080  -11.7420   20.8890 C   0  0  0  0  0  0  0  0  0  0  0  0
  -26.2600  -12.9840   20.3210 N   0  0  0  0  0  0  0  0  0  0  0  0
  -25.8960  -11.7000   20.5750 N   0  0  0  0  0  0  0  0  0  0  0  0
  -23.8770  -10.4800   21.0700 C   0  0  0  0  0  0  0  0  0  0  0  0
  -24.3040   -9.5070   22.0000 C   0  0  0  0  0  3  0  0  0  0  0  0
  -23.5740   -8.3090   22.1700 C   0  0  0  0  0  3  0  0  0  0  0  0
  -22.4040   -8.0780   21.4080 C   0  0  0  0  0  0  0  0  0  0  0  0
  -21.9970   -9.0400   20.4670 C   0  0  0  0  0  3  0  0  0  0  0  0
  -22.7280  -10.2270   20.2960 C   0  0  0  0  0  3  0  0  0  0  0  0
  -21.6480   -6.9320   21.4860 O   0  0  0  0  0  0  0  0  0  0  0  0
  -21.5860   -6.1880   22.6360 C   0  0  0  0  0  0  0  0  0  0  0  0
  -21.1300   -6.7370   23.8540 C   0  0  0  0  0  3  0  0  0  0  0  0
  -21.0150   -5.9200   24.9950 C   0  0  0  0  0  3  0  0  0  0  0  0
  -21.3460   -4.5530   24.9200 C   0  0  0  0  0  0  0  0  0  0  0  0
  -21.7980   -4.0040   23.7080 C   0  0  0  0  0  3  0  0  0  0  0  0
  -21.9130   -4.8190   22.5680 C   0  0  0  0  0  0  0  0  0  0  0  0
  -22.3270   -4.2810   21.3960 F   0  0  0  0  0  0  0  0  0  0  0  0
  -21.2290   -3.7660   26.0150 F   0  0  0  0  0  0  0  0  0  0  0  0
  -22.7570  -13.5740   21.2160 C   0  0  0  0  0  0  0  0  0  0  0  0
  -22.0260  -12.8680   22.0710 N   0  0  0  0  0  0  0  0  0  0  0  0
  -22.3230  -14.6100   20.7140 O   0  0  0  0  0  0  0  0  0  0  0  0
  -22.3880  -12.0310   22.5010 H   0  0  0  0  0  0  0  0  0  0  0  0
  -21.0900  -13.1720   22.3010 H   0  0  0  0  0  0  0  0  0  0  0  0
  -25.3910  -15.2380   20.4020 N   0  0  0  0  0  0  0  0  0  0  0  0
  -24.6260  -15.8940   20.5190 H   0  0  0  0  0  0  0  0  0  0  0  0
  -26.2310  -15.6690   20.0380 H   0  0  0  0  0  0  0  0  0  0  0  0
  -28.6290  -25.5530   19.2850 C   0  0  0  0  0  2  0  0  0  0  0  0
  -28.3970  -26.6400   20.2210 O   0  0  0  0  0  0  0  0  0  0  0  0
  -24.5830  -31.8800   23.2510 C   0  0  0  0  0  0  0  0  0  0  0  0
  -27.2280  -27.3960   20.1680 C   0  0  0  0  0  0  0  0  0  0  0  0
  -23.3810  -30.4810   21.6080 C   0  0  0  0  0  3  0  0  0  0  0  0
  -24.8350  -28.9420   20.1790 C   0  0  0  0  0  0  0  0  0  0  0  0
  -25.9120  -30.8280   21.4150 C   0  0  0  0  0  2  0  0  0  0  0  0
  -25.9970  -29.4540   20.7700 C   0  0  0  0  0  0  0  0  0  0  0  0
  -27.1910  -28.6880   20.7620 C   0  0  0  0  0  3  0  0  0  0  0  0
  -26.0350  -26.9070   19.5870 C   0  0  0  0  0  3  0  0  0  0  0  0
  -24.8520  -27.6710   19.5850 C   0  0  0  0  0  3  0  0  0  0  0  0
  -23.5930  -29.8060   20.2260 C   0  0  0  0  0  2  0  0  0  0  0  0
  -24.6430  -31.0790   22.1500 N   0  0  0  0  0  0  0  0  0  0  0  0
  -23.5000  -32.1520   23.7900 O   0  0  0  0  0  0  0  0  0  0  0  0
  -22.7280  -29.4580   22.5670 C   0  0  0  0  0  0  0  0  0  0  0  0
  -21.4030  -29.2760   22.4390 N   0  0  0  0  0  0  0  0  0  0  0  0
  -23.4110  -28.8320   23.3820 O   0  0  0  0  0  0  0  0  0  0  0  0
  -20.9130  -29.8340   21.7550 H   0  0  0  0  0  0  0  0  0  0  0  0
  -18.0280  -28.0810   22.9420 C   0  0  0  0  0  0  0  0  0  0  0  0
  -20.5870  -28.3350   23.2080 C   0  0  0  0  0  3  0  0  0  0  0  0
  -20.6860  -26.9070   22.6260 C   0  0  0  0  0  2  0  0  0  0  0  0
  -19.5810  -26.5900   21.6120 C   0  0  0  0  0  2  0  0  0  0  0  0
  -18.2010  -26.7340   22.2600 C   0  0  0  0  0  2  0  0  0  0  0  0
  -19.1480  -28.8400   23.3730 C   0  0  0  0  0  0  0  0  0  0  0  0
  -18.9320  -30.1010   23.9700 C   0  0  0  0  0  3  0  0  0  0  0  0
  -17.6290  -30.6020   24.1400 C   0  0  0  0  0  3  0  0  0  0  0  0
  -16.5220  -29.8400   23.7260 C   0  0  0  0  0  3  0  0  0  0  0  0
  -16.7230  -28.5810   23.1330 C   0  0  0  0  0  3  0  0  0  0  0  0
  -25.8660  -32.5150   23.8730 C   0  0  0  0  0  3  0  0  0  0  0  0
  -25.5580  -33.9140   24.1990 N   0  0  0  0  0  0  0  0  0  0  0  0
  -25.8970  -34.9640   23.4390 C   0  0  0  0  0  0  0  0  0  0  0  0
  -26.5750  -34.8560   22.4130 O   0  0  0  0  0  0  0  0  0  0  0  0
  -24.9580  -34.0720   24.9950 H   0  0  0  0  0  0  0  0  0  0  0  0
  -24.1850  -36.7650   23.0550 C   0  0  0  0  0  1  0  0  0  0  0  0
  -25.4090  -36.3540   23.8880 C   0  0  0  0  0  3  0  0  0  0  0  0
  -27.5310  -37.2300   24.7590 C   0  0  0  0  0  1  0  0  0  0  0  0
  -26.4480  -37.4020   23.7940 N   0  0  0  0  0  0  0  0  0  0  0  0
  -26.0450  -38.3250   23.9300 H   0  0  0  0  0  0  0  0  0  0  0  0
  -26.3800  -31.7480   25.1540 C   0  0  1  0  0  0  0  0  0  0  0  0
  -25.2860  -31.5140   26.2200 C   0  0  0  0  0  1  0  0  0  0  0  0
  -26.9640  -30.3690   24.7660 C   0  0  0  0  0  1  0  0  0  0  0  0
  -27.5300  -32.5440   25.8150 C   0  0  0  0  0  1  0  0  0  0  0  0
  1  4  1  0
  2  1  2  0
  2  7  1  0
  3  8  1  0
  3  7  1  0
  3 14  1  0
  5  4  2  0
  6  2  1  0
  7  5  1  0
  9  8  1  0
 10  8  1  0
 11 13  1  0
 13 12  2  0
 13 24  1  0
 14 11  2  0
 14 15  1  0
 15 12  1  0
 16 24  1  0
 17 22  1  0
 18 19  1  0
 18 17  1  0
 20 19  1  0
 20 29  1  0
 20 21  1  0
 22 16  1  0
 22 21  1  0
 23 16  2  0
 24 25  1  0
 26 27  2  0
 27 46  1  0
 28 27  1  0
 28 31  1  0
 29 26  1  0
 29 30  1  0
 30 28  2  0
 31 32  1  0
 32 33  2  0
 34 37  1  0
 34 33  1  0
 35 34  2  0
 36 35  1  0
 36 31  2  0
 37 38  1  0
 38 39  1  0
 39 40  2  0
 41 40  1  0
 41 45  1  0
 42 41  2  0
 43 38  2  0
 43 42  1  0
 44 43  1  0
 46 47  1  0
 47 50  1  0
 47 49  1  0
 48 46  2  0
 51 52  1  0
 51 26  1  0
 53 51  1  0
 54  1  1  0
 54 55  1  0
 56 67  2  0
 57 55  1  0
 57 62  1  0
 58 66  1  0
 58 68  1  0
 59 65  1  0
 59 61  1  0
 60 66  1  0
 61 60  1  0
 62 61  2  0
 63 57  2  0
 64 63  1  0
 64 59  2  0
 65 58  1  0
 66 56  1  0
 68 70  2  0
 69 68  1  0
 71 69  1  0
 72 81  2  0
 72 77  1  0
 73 69  1  0
 73 77  1  0
 74 73  1  0
 75 76  1  0
 75 74  1  0
 76 72  1  0
 77 78  2  0
 78 79  1  0
 80 79  2  0
 81 80  1  0
 82 56  1  0
 82 83  1  0
 82 92  1  0
 83 86  1  0
 84 88  1  0
 84 83  1  0
 85 84  2  0
 88 87  1  0
 90 88  1  0
 90 91  1  0
 90 89  1  0
 92 95  1  1
 92 93  1  0
 94 92  1  0
M  ISO  4  16 100  24 100  54 101  55 101
M  END
>  <TORSDO>  (17) 
F 18

>  <SCORE>  (17) 
-14.861

>  <name>  (17) 
16

>  <ligand_id>  (17) 
16

>  <original_smiles>  (17) 
[H]c1sc(C(N2C(C([H])([H])[H])=C(C([H])([H])Oc3c([H])c([H])c4c(c3[H])C([H])([H])N(C(=O)C([H])(N([H])C(=O)C([H])(N([H])C([H])([H])[H])C([H])([H])[H])C(C([H])([H])[H])(C([H])([H])[H])C([H])([H])[H])C([H])(C(=O)N([H])C3([H])c5c([H])c([H])c([H])c([H])c5C([H])([H])C([H])([H])C3([H])[H])C4([H])[H])C([H])([H])C2([H])[H])=[N+]([H])[H])c([H])c1N([H])C(=O)N1C([H])([H])C([H])([H])C([H])([H])C([H])(n2nc(-c3c([H])c([H])c(Oc4c([H])c([H])c(F)c([H])c4F)c([H])c3[H])c(C(=O)N([H])[H])c2N([H])[H])C1([H])[H]

>  <smiles>  (17) 
[H]c1sc(C(N2C(C([H])([H])[H])=C(C([H])([H])Oc3c([H])c([H])c4c(c3[H])C([H])([H])N(C(=O)C([H])(N([H])C(=O)C([H])(N([H])C([H])([H])[H])C([H])([H])[H])C(C([H])([H])[H])(C([H])([H])[H])C([H])([H])[H])C([H])(C(=O)N([H])C3([H])c5c([H])c([H])c([H])c([H])c5C([H])([H])C([H])([H])C3([H])[H])C4([H])[H])C([H])([H])C2([H])[H])=[N+]([H])[H])c([H])c1N([H])C(=O)N1C([H])([H])C([H])([H])C([H])([H])C([H])(n2nc(-c3c([H])c([H])c(Oc4c([H])c([H])c(F)c([H])c4F)c([H])c3[H])c(C(=O)N([H])[H])c2N([H])[H])C1([H])[H]

$$$$
17:0:0
     RDKit          3D

 98107  0  0  1  0  0  0  0  0999 V2000
  -29.0610  -22.3080   20.5700 C   0  0  0  0  0  0  0  0  0  0  0  0
  -29.5690  -21.1490   19.9740 N   0  0  0  0  0  0  0  0  0  0  0  0
  -28.5850  -22.2550   21.7060 O   0  0  0  0  0  0  0  0  0  0  0  0
  -29.8180  -21.2410   18.9990 H   0  0  0  0  0  0  0  0  0  0  0  0
  -30.8140  -14.8090   19.7650 C   0  0  0  0  0  0  0  0  0  0  0  0
  -30.4770  -12.5980   18.6210 C   0  0  0  0  0  2  0  0  0  0  0  0
  -29.3870  -12.7250   17.5350 C   0  0  0  0  0  2  0  0  0  0  0  0
  -27.9800  -12.5330   18.1380 C   0  0  0  0  0  2  0  0  0  0  0  0
  -27.7750  -13.3600   19.4350 C   0  0  0  0  0  3  0  0  0  0  0  0
  -28.9590  -13.1860   20.4060 C   0  0  0  0  0  2  0  0  0  0  0  0
  -30.1790  -13.5860   19.6860 N   0  0  0  0  0  0  0  0  0  0  0  0
  -31.8810  -14.9890   19.1660 O   0  0  0  0  0  0  0  0  0  0  0  0
  -29.8480  -18.5400   19.7910 C   0  0  0  0  0  3  0  0  0  0  0  0
  -30.2900  -19.7320   21.9360 C   0  0  0  0  0  3  0  0  0  0  0  0
  -30.4830  -17.3520   21.8720 C   0  0  0  0  0  0  0  0  0  0  0  0
  -30.1710  -17.3070   20.4770 C   0  0  0  0  0  0  0  0  0  0  0  0
  -29.8830  -19.8030   20.5550 C   0  0  0  0  0  0  0  0  0  0  0  0
  -30.5810  -18.5220   22.6260 C   0  0  0  0  0  0  0  0  0  0  0  0
  -30.5420  -15.8530   21.9760 C   0  0  0  0  0  2  0  0  0  0  0  0
  -30.2040  -15.8130   20.5060 N   0  0  0  0  0  0  0  0  0  0  0  0
  -25.5310  -13.9390   20.5370 C   0  0  0  0  0  0  0  0  0  0  0  0
  -24.4940  -13.1590   20.9730 C   0  0  0  0  0  0  0  0  0  0  0  0
  -24.8940  -11.8070   20.7450 C   0  0  0  0  0  0  0  0  0  0  0  0
  -26.4970  -13.0600   20.0730 N   0  0  0  0  0  0  0  0  0  0  0  0
  -26.1280  -11.7660   20.2570 N   0  0  0  0  0  0  0  0  0  0  0  0
  -24.1490  -10.5510   20.9080 C   0  0  0  0  0  0  0  0  0  0  0  0
  -24.6090   -9.5240   21.7620 C   0  0  0  0  0  3  0  0  0  0  0  0
  -23.8640   -8.3360   21.9160 C   0  0  0  0  0  3  0  0  0  0  0  0
  -22.6450   -8.1650   21.2170 C   0  0  0  0  0  0  0  0  0  0  0  0
  -22.2060   -9.1800   20.3490 C   0  0  0  0  0  3  0  0  0  0  0  0
  -22.9510  -10.3620   20.1930 C   0  0  0  0  0  3  0  0  0  0  0  0
  -21.8700   -7.0330   21.2850 O   0  0  0  0  0  0  0  0  0  0  0  0
  -21.7860   -6.2860   22.4330 C   0  0  0  0  0  0  0  0  0  0  0  0
  -21.3420   -6.8410   23.6530 C   0  0  0  0  0  3  0  0  0  0  0  0
  -21.2040   -6.0210   24.7920 C   0  0  0  0  0  3  0  0  0  0  0  0
  -21.5020   -4.6470   24.7090 C   0  0  0  0  0  0  0  0  0  0  0  0
  -21.9370   -4.0920   23.4930 C   0  0  0  0  0  3  0  0  0  0  0  0
  -22.0760   -4.9080   22.3580 C   0  0  0  0  0  0  0  0  0  0  0  0
  -22.4760   -4.3640   21.1840 F   0  0  0  0  0  0  0  0  0  0  0  0
  -21.3620   -3.8580   25.7990 F   0  0  0  0  0  0  0  0  0  0  0  0
  -23.1670  -13.6440   21.4820 C   0  0  0  0  0  0  0  0  0  0  0  0
  -22.5490  -12.8960   22.3890 N   0  0  0  0  0  0  0  0  0  0  0  0
  -22.6920  -14.7170   21.1110 O   0  0  0  0  0  0  0  0  0  0  0  0
  -22.9470  -12.0230   22.7070 H   0  0  0  0  0  0  0  0  0  0  0  0
  -21.6650  -13.1970   22.7720 H   0  0  0  0  0  0  0  0  0  0  0  0
  -25.7280  -15.3150   20.4750 N   0  0  0  0  0  0  0  0  0  0  0  0
  -25.0190  -15.9800   20.7620 H   0  0  0  0  0  0  0  0  0  0  0  0
  -26.5600  -15.7580   20.1050 H   0  0  0  0  0  0  0  0  0  0  0  0
  -30.9390  -18.5010   23.9740 N   0  0  0  0  0  0  0  0  0  0  0  0
  -31.3030  -19.3570   24.3820 H   0  0  0  0  0  0  0  0  0  0  0  0
  -31.4140  -17.6760   24.3280 H   0  0  0  0  0  0  0  0  0  0  0  0
  -28.9760  -23.7430   19.8410 C   0  0  0  0  0  3  0  0  0  0  0  0
  -28.3550  -23.6020   18.5080 N   0  0  0  0  0  4  0  0  0  0  0  0
  -27.4270  -23.2230   18.5870 H   0  0  0  0  0  0  0  0  0  0  0  0
  -28.8980  -23.0020   17.9140 H   0  0  0  0  0  0  0  0  0  0  0  0
  -28.2960  -24.5000   18.0610 H   0  0  0  0  0  0  0  0  0  0  0  0
  -28.2730  -24.9760   20.6410 C   0  0  0  0  0  2  0  0  0  0  0  0
  -28.4910  -26.4290   20.2910 O   0  0  0  0  0  0  0  0  0  0  0  0
  -24.7130  -31.9120   23.2260 C   0  0  0  0  0  0  0  0  0  0  0  0
  -27.3790  -27.3000   20.2630 C   0  0  0  0  0  0  0  0  0  0  0  0
  -23.5320  -30.4760   21.6040 C   0  0  0  0  0  3  0  0  0  0  0  0
  -25.0040  -28.9120   20.2120 C   0  0  0  0  0  0  0  0  0  0  0  0
  -26.0720  -30.8120   21.4260 C   0  0  0  0  0  2  0  0  0  0  0  0
  -26.1700  -29.4200   20.8010 C   0  0  0  0  0  0  0  0  0  0  0  0
  -27.3640  -28.6290   20.8070 C   0  0  0  0  0  3  0  0  0  0  0  0
  -26.1900  -26.8570   19.6460 C   0  0  0  0  0  3  0  0  0  0  0  0
  -25.0190  -27.6390   19.6220 C   0  0  0  0  0  3  0  0  0  0  0  0
  -23.7580  -29.7770   20.2380 C   0  0  0  0  0  2  0  0  0  0  0  0
  -24.7910  -31.0850   22.1410 N   0  0  0  0  0  0  0  0  0  0  0  0
  -23.6240  -32.1880   23.7500 O   0  0  0  0  0  0  0  0  0  0  0  0
  -22.8720  -29.4710   22.5800 C   0  0  0  0  0  0  0  0  0  0  0  0
  -21.5450  -29.2900   22.4620 N   0  0  0  0  0  0  0  0  0  0  0  0
  -23.5550  -28.8540   23.4010 O   0  0  0  0  0  0  0  0  0  0  0  0
  -21.0510  -29.8380   21.7730 H   0  0  0  0  0  0  0  0  0  0  0  0
  -18.1770  -28.0680   22.9810 C   0  0  0  0  0  0  0  0  0  0  0  0
  -20.7330  -28.3580   23.2480 C   0  0  0  0  0  3  0  0  0  0  0  0
  -20.8490  -26.9160   22.6990 C   0  0  0  0  0  2  0  0  0  0  0  0
  -19.7520  -26.5640   21.6890 C   0  0  0  0  0  2  0  0  0  0  0  0
  -18.3680  -26.7080   22.3280 C   0  0  0  0  0  2  0  0  0  0  0  0
  -19.2880  -28.8490   23.3970 C   0  0  0  0  0  0  0  0  0  0  0  0
  -19.0560  -30.1200   23.9690 C   0  0  0  0  0  3  0  0  0  0  0  0
  -17.7450  -30.6100   24.1240 C   0  0  0  0  0  3  0  0  0  0  0  0
  -16.6500  -29.8280   23.7200 C   0  0  0  0  0  3  0  0  0  0  0  0
  -16.8670  -28.5580   23.1580 C   0  0  0  0  0  3  0  0  0  0  0  0
  -25.9830  -32.5730   23.8420 C   0  0  0  0  0  3  0  0  0  0  0  0
  -26.5290  -31.8090   25.1100 C   0  0  1  0  0  0  0  0  0  0  0  0
  -25.4440  -31.5140   26.1750 C   0  0  0  0  0  1  0  0  0  0  0  0
  -27.1650  -30.4590   24.7050 C   0  0  0  0  0  1  0  0  0  0  0  0
  -27.6480  -32.6390   25.7820 C   0  0  0  0  0  1  0  0  0  0  0  0
  -25.6420  -33.9620   24.1880 N   0  0  0  0  0  0  0  0  0  0  0  0
  -25.9270  -35.0290   23.4280 C   0  0  0  0  0  0  0  0  0  0  0  0
  -26.5750  -34.9480   22.3810 O   0  0  0  0  0  0  0  0  0  0  0  0
  -25.0690  -34.0970   25.0070 H   0  0  0  0  0  0  0  0  0  0  0  0
  -24.1350  -36.7710   23.1380 C   0  0  0  0  0  1  0  0  0  0  0  0
  -25.4140  -36.4010   23.9060 C   0  0  0  0  0  3  0  0  0  0  0  0
  -27.5500  -37.3470   24.6660 C   0  0  0  0  0  1  0  0  0  0  0  0
  -26.4100  -37.4850   23.7630 N   0  0  0  0  0  0  0  0  0  0  0  0
  -25.9820  -38.3920   23.9300 H   0  0  0  0  0  0  0  0  0  0  0  0
  1  3  2  0
  2 17  1  0
  2  1  1  0
  4  2  1  0
  5 20  1  0
  6 11  1  0
  7  8  1  0
  7  6  1  0
  9  8  1  0
  9 24  1  0
  9 10  1  0
 11  5  1  0
 11 10  1  0
 12  5  2  0
 13 16  2  0
 13 17  1  0
 14 18  1  0
 15 19  1  0
 15 18  2  0
 16 20  1  0
 16 15  1  0
 17 14  2  0
 18 49  1  0
 20 19  1  0
 21 22  2  0
 22 41  1  0
 23 26  1  0
 23 22  1  0
 24 25  1  0
 24 21  1  0
 25 23  2  0
 26 27  1  0
 27 28  2  0
 29 32  1  0
 29 28  1  0
 30 29  2  0
 31 30  1  0
 31 26  2  0
 32 33  1  0
 33 34  1  0
 34 35  2  0
 36 35  1  0
 36 40  1  0
 37 36  2  0
 38 33  2  0
 38 37  1  0
 39 38  1  0
 41 42  1  0
 42 44  1  0
 42 45  1  0
 43 41  2  0
 46 21  1  0
 46 47  1  0
 48 46  1  0
 49 51  1  0
 49 50  1  0
 52  1  1  0
 52 57  1  0
 53 54  1  0
 53 52  1  0
 55 53  1  0
 56 53  1  0
 58 57  1  0
 59 70  2  0
 60 58  1  0
 60 65  1  0
 61 69  1  0
 61 71  1  0
 62 68  1  0
 62 64  1  0
 63 69  1  0
 64 65  2  0
 64 63  1  0
 66 60  2  0
 67 66  1  0
 67 62  2  0
 68 61  1  0
 69 59  1  0
 71 73  2  0
 72 71  1  0
 74 72  1  0
 75 84  2  0
 75 80  1  0
 76 72  1  0
 76 80  1  0
 77 76  1  0
 78 79  1  0
 78 77  1  0
 79 75  1  0
 80 81  2  0
 81 82  1  0
 83 82  2  0
 84 83  1  0
 85 59  1  0
 85 90  1  0
 85 86  1  0
 86 89  1  1
 86 87  1  0
 88 86  1  0
 90 93  1  0
 91 95  1  0
 91 90  1  0
 92 91  2  0
 95 94  1  0
 97 95  1  0
 97 98  1  0
 97 96  1  0
M  ISO  4   5 100  20 100  57 101  58 101
M  END
>  <TORSDO>  (18) 
F 20

>  <SCORE>  (18) 
-13.048

>  <name>  (18) 
17

>  <ligand_id>  (18) 
17

>  <original_smiles>  (18) 
[H]c1c([H])c([H])c2c(c1[H])C([H])([H])C([H])([H])C([H])([H])C2([H])N([H])C(=O)C1([H])N(C(=O)C([H])(N([H])C(=O)C([H])(N([H])C([H])([H])[H])C([H])([H])[H])C(C([H])([H])[H])(C([H])([H])[H])C([H])([H])[H])C([H])([H])c2c([H])c(OC([H])([H])C([H])(C(=O)N([H])c3c([H])c(N([H])[H])c4c(c3[H])N(C(=O)N3C([H])([H])C([H])([H])C([H])([H])C([H])(n5nc(-c6c([H])c([H])c(Oc7c([H])c([H])c(F)c([H])c7F)c([H])c6[H])c(C(=O)N([H])[H])c5N([H])[H])C3([H])[H])C4([H])[H])[N+]([H])([H])[H])c([H])c([H])c2C1([H])[H]

>  <smiles>  (18) 
[H]c1c([H])c([H])c2c(c1[H])C([H])([H])C([H])([H])C([H])([H])C2([H])N([H])C(=O)C1([H])N(C(=O)C([H])(N([H])C(=O)C([H])(N([H])C([H])([H])[H])C([H])([H])[H])C(C([H])([H])[H])(C([H])([H])[H])C([H])([H])[H])C([H])([H])c2c([H])c(OC([H])([H])C([H])(C(=O)N([H])c3c([H])c(N([H])[H])c4c(c3[H])N(C(=O)N3C([H])([H])C([H])([H])C([H])([H])C([H])(n5nc(-c6c([H])c([H])c(Oc7c([H])c([H])c(F)c([H])c7F)c([H])c6[H])c(C(=O)N([H])[H])c5N([H])[H])C3([H])[H])C4([H])[H])[N+]([H])([H])[H])c([H])c([H])c2C1([H])[H]

$$$$
18:0:0
     RDKit          3D

 96104  0  0  1  0  0  0  0  0999 V2000
  -28.6180  -22.2180   20.4370 C   0  0  0  0  0  0  0  0  0  0  0  0
  -28.9170  -21.0830   19.6480 N   0  0  0  0  0  0  0  0  0  0  0  0
  -28.3280  -22.0440   21.6230 O   0  0  0  0  0  0  0  0  0  0  0  0
  -28.9740  -21.3020   18.6630 H   0  0  0  0  0  0  0  0  0  0  0  0
  -29.9130  -19.2930   21.0800 C   0  0  0  0  0  3  0  0  0  0  0  0
  -30.1170  -17.8580   21.0110 C   0  0  0  0  0  0  0  0  0  0  0  0
  -29.2040  -19.7160   19.9820 C   0  0  0  0  0  0  0  0  0  0  0  0
  -29.5250  -17.3700   19.8600 C   0  0  0  0  0  0  0  0  0  0  0  0
  -28.9490  -18.5250   19.2190 O   0  0  0  0  0  0  0  0  0  0  0  0
  -30.0480  -14.8350   19.2900 C   0  0  0  0  0  0  0  0  0  0  0  0
  -29.6960  -12.5850   18.1900 C   0  0  0  0  0  2  0  0  0  0  0  0
  -28.5620  -12.6720   17.1430 C   0  0  0  0  0  2  0  0  0  0  0  0
  -27.1850  -12.4680   17.8050 C   0  0  0  0  0  2  0  0  0  0  0  0
  -27.0190  -13.3010   19.1040 C   0  0  0  0  0  3  0  0  0  0  0  0
  -28.2500  -13.1810   20.0240 C   0  0  0  0  0  2  0  0  0  0  0  0
  -29.4130  -13.6030   19.2340 N   0  0  0  0  0  0  0  0  0  0  0  0
  -31.2060  -14.9120   18.8690 O   0  0  0  0  0  0  0  0  0  0  0  0
  -29.2710  -15.9920   19.5430 N   0  0  0  0  0  0  0  0  0  0  0  0
  -28.2880  -15.7690   19.5530 H   0  0  0  0  0  0  0  0  0  0  0  0
  -24.8160  -13.8750   20.2760 C   0  0  0  0  0  0  0  0  0  0  0  0
  -23.8040  -13.0960   20.7660 C   0  0  0  0  0  0  0  0  0  0  0  0
  -24.2130  -11.7420   20.5600 C   0  0  0  0  0  0  0  0  0  0  0  0
  -25.7750  -12.9960   19.8000 N   0  0  0  0  0  0  0  0  0  0  0  0
  -25.4310  -11.7040   20.0350 N   0  0  0  0  0  0  0  0  0  0  0  0
  -23.4870  -10.4850   20.7790 C   0  0  0  0  0  0  0  0  0  0  0  0
  -23.9380   -9.5230   21.7100 C   0  0  0  0  0  3  0  0  0  0  0  0
  -23.2110   -8.3310   21.9170 C   0  0  0  0  0  3  0  0  0  0  0  0
  -22.0190   -8.0910   21.1920 C   0  0  0  0  0  0  0  0  0  0  0  0
  -21.5880   -9.0410   20.2500 C   0  0  0  0  0  3  0  0  0  0  0  0
  -22.3150  -10.2250   20.0410 C   0  0  0  0  0  3  0  0  0  0  0  0
  -21.2630   -6.9510   21.3080 O   0  0  0  0  0  0  0  0  0  0  0  0
  -21.1520   -6.2780   22.4990 C   0  0  0  0  0  0  0  0  0  0  0  0
  -20.6320   -6.8960   23.6570 C   0  0  0  0  0  3  0  0  0  0  0  0
  -20.4710   -6.1480   24.8410 C   0  0  0  0  0  3  0  0  0  0  0  0
  -20.8210   -4.7840   24.8670 C   0  0  0  0  0  0  0  0  0  0  0  0
  -21.3330   -4.1660   23.7120 C   0  0  0  0  0  3  0  0  0  0  0  0
  -21.4950   -4.9110   22.5310 C   0  0  0  0  0  0  0  0  0  0  0  0
  -21.9700   -4.3060   21.4160 F   0  0  0  0  0  0  0  0  0  0  0  0
  -20.6580   -4.0640   26.0020 F   0  0  0  0  0  0  0  0  0  0  0  0
  -22.4870  -13.5800   21.2990 C   0  0  0  0  0  0  0  0  0  0  0  0
  -21.9130  -12.8620   22.2580 N   0  0  0  0  0  0  0  0  0  0  0  0
  -21.9830  -14.6290   20.9000 O   0  0  0  0  0  0  0  0  0  0  0  0
  -22.3390  -12.0130   22.6000 H   0  0  0  0  0  0  0  0  0  0  0  0
  -21.0370  -13.1660   22.6570 H   0  0  0  0  0  0  0  0  0  0  0  0
  -24.9880  -15.2530   20.1720 N   0  0  0  0  0  0  0  0  0  0  0  0
  -24.2610  -15.9010   20.4550 H   0  0  0  0  0  0  0  0  0  0  0  0
  -25.7540  -15.7080   19.6930 H   0  0  0  0  0  0  0  0  0  0  0  0
  -30.7620  -17.0090   22.0310 C   0  0  0  0  0  0  0  0  0  0  0  0
  -30.4910  -17.1100   23.2310 O   0  0  0  0  0  0  0  0  0  0  0  0
  -31.6880  -14.6230   22.1590 C   0  0  0  0  0  1  0  0  0  0  0  0
  -31.8170  -16.0210   21.5320 C   0  0  0  0  0  2  0  0  0  0  0  0
  -28.1220  -24.8060   20.4470 C   0  0  0  0  0  3  0  0  0  0  0  0
  -28.6530  -23.6440   19.8410 C   0  0  0  0  0  0  0  0  0  0  0  0
  -29.2790  -23.7870   18.6640 O   0  0  0  0  0  0  0  0  0  0  0  0
  -29.2390  -24.7090   18.4430 H   0  0  0  0  0  0  0  0  0  0  0  0
  -28.2270  -26.2090   20.0670 O   0  0  0  0  0  0  0  0  0  0  0  0
  -24.4510  -31.7810   23.0860 C   0  0  0  0  0  0  0  0  0  0  0  0
  -27.1250  -27.1220   20.1020 C   0  0  0  0  0  0  0  0  0  0  0  0
  -23.2730  -30.3380   21.4710 C   0  0  0  0  0  3  0  0  0  0  0  0
  -24.7490  -28.7760   20.0650 C   0  0  0  0  0  0  0  0  0  0  0  0
  -25.8150  -30.6690   21.2850 C   0  0  0  0  0  2  0  0  0  0  0  0
  -25.9180  -29.2710   20.6570 C   0  0  0  0  0  0  0  0  0  0  0  0
  -27.1100  -28.4590   20.6580 C   0  0  0  0  0  3  0  0  0  0  0  0
  -25.9270  -26.7090   19.4840 C   0  0  0  0  0  3  0  0  0  0  0  0
  -24.7610  -27.5060   19.4650 C   0  0  0  0  0  3  0  0  0  0  0  0
  -23.5010  -29.6450   20.1010 C   0  0  0  0  0  2  0  0  0  0  0  0
  -24.5320  -30.9510   22.0020 N   0  0  0  0  0  0  0  0  0  0  0  0
  -23.3620  -32.0470   23.6180 O   0  0  0  0  0  0  0  0  0  0  0  0
  -22.6240  -29.3270   22.4500 C   0  0  0  0  0  0  0  0  0  0  0  0
  -21.2980  -29.1340   22.3400 N   0  0  0  0  0  0  0  0  0  0  0  0
  -23.3160  -28.7180   23.2690 O   0  0  0  0  0  0  0  0  0  0  0  0
  -20.7960  -29.6770   21.6530 H   0  0  0  0  0  0  0  0  0  0  0  0
  -17.9360  -27.9210   22.9250 C   0  0  0  0  0  0  0  0  0  0  0  0
  -20.5000  -28.1910   23.1300 C   0  0  0  0  0  3  0  0  0  0  0  0
  -20.5930  -26.7620   22.5480 C   0  0  0  0  0  2  0  0  0  0  0  0
  -19.4670  -26.4370   21.5610 C   0  0  0  0  0  2  0  0  0  0  0  0
  -18.1010  -26.5740   22.2400 C   0  0  0  0  0  2  0  0  0  0  0  0
  -19.0620  -28.6870   23.3280 C   0  0  0  0  0  0  0  0  0  0  0  0
  -18.8510  -29.9460   23.9320 C   0  0  0  0  0  3  0  0  0  0  0  0
  -17.5490  -30.4390   24.1340 C   0  0  0  0  0  3  0  0  0  0  0  0
  -16.4380  -29.6710   23.7450 C   0  0  0  0  0  3  0  0  0  0  0  0
  -16.6330  -28.4120   23.1460 C   0  0  0  0  0  3  0  0  0  0  0  0
  -25.7180  -32.4520   23.6980 C   0  0  0  0  0  3  0  0  0  0  0  0
  -25.3650  -33.8340   24.0570 N   0  0  0  0  0  0  0  0  0  0  0  0
  -25.6520  -34.9120   23.3170 C   0  0  0  0  0  0  0  0  0  0  0  0
  -26.3100  -34.8520   22.2750 O   0  0  0  0  0  0  0  0  0  0  0  0
  -24.7750  -33.9520   24.8680 H   0  0  0  0  0  0  0  0  0  0  0  0
  -23.8670  -36.6630   23.0200 C   0  0  0  0  0  1  0  0  0  0  0  0
  -25.1280  -36.2760   23.8100 C   0  0  0  0  0  3  0  0  0  0  0  0
  -27.2440  -37.2100   24.6390 C   0  0  0  0  0  1  0  0  0  0  0  0
  -26.1280  -37.3630   23.7100 N   0  0  0  0  0  0  0  0  0  0  0  0
  -25.6950  -38.2670   23.8800 H   0  0  0  0  0  0  0  0  0  0  0  0
  -26.2800  -31.6830   24.9570 C   0  0  1  0  0  0  0  0  0  0  0  0
  -25.2060  -31.3640   26.0220 C   0  0  0  0  0  1  0  0  0  0  0  0
  -26.9370  -30.3470   24.5380 C   0  0  0  0  0  1  0  0  0  0  0  0
  -27.3890  -32.5260   25.6330 C   0  0  0  0  0  1  0  0  0  0  0  0
  1  3  2  0
  2  7  1  0
  2  1  1  0
  4  2  1  0
  6  5  1  0
  6 48  1  0
  7  5  2  0
  8  6  2  0
  9  8  1  0
  9  7  1  0
 10 18  1  0
 11 16  1  0
 12 13  1  0
 12 11  1  0
 14 13  1  0
 14 23  1  0
 14 15  1  0
 16 10  1  0
 16 15  1  0
 17 10  2  0
 18 19  1  0
 18  8  1  0
 20 21  2  0
 21 40  1  0
 22 21  1  0
 22 25  1  0
 23 24  1  0
 23 20  1  0
 24 22  2  0
 25 26  1  0
 26 27  2  0
 28 31  1  0
 28 27  1  0
 29 28  2  0
 30 29  1  0
 30 25  2  0
 31 32  1  0
 32 37  2  0
 32 33  1  0
 33 34  2  0
 34 35  1  0
 35 39  1  0
 36 35  2  0
 37 36  1  0
 38 37  1  0
 40 41  1  0
 41 43  1  0
 41 44  1  0
 42 40  2  0
 45 20  1  0
 45 46  1  0
 47 45  1  0
 48 49  2  0
 51 48  1  0
 51 50  1  0
 53  1  1  0
 53 52  2  0
 54 53  1  0
 55 54  1  0
 56 58  1  0
 56 52  1  0
 57 68  2  0
 58 63  1  0
 59 67  1  0
 59 69  1  0
 60 66  1  0
 60 62  1  0
 61 67  1  0
 62 63  2  0
 62 61  1  0
 64 58  2  0
 65 64  1  0
 65 60  2  0
 66 59  1  0
 67 57  1  0
 69 71  2  0
 70 69  1  0
 72 70  1  0
 73 82  2  0
 73 78  1  0
 74 70  1  0
 74 78  1  0
 75 74  1  0
 76 77  1  0
 76 75  1  0
 77 73  1  0
 78 79  2  0
 79 80  1  0
 81 80  2  0
 82 81  1  0
 83 57  1  0
 83 84  1  0
 83 93  1  0
 84 87  1  0
 85 89  1  0
 85 84  1  0
 86 85  2  0
 89 88  1  0
 91 89  1  0
 91 92  1  0
 91 90  1  0
 93 96  1  1
 93 94  1  0
 95 93  1  0
M  ISO  4  10 100  18 100  52 101  56 101
M  END
>  <TORSDO>  (19) 
F 21

>  <SCORE>  (19) 
-10.316

>  <name>  (19) 
18

>  <ligand_id>  (19) 
18

>  <original_smiles>  (19) 
[H]OC(C(=O)N([H])c1oc(N([H])C(=O)N2C([H])([H])C([H])([H])C([H])([H])C([H])(n3nc(-c4c([H])c([H])c(Oc5c([H])c([H])c(F)c([H])c5F)c([H])c4[H])c(C(=O)N([H])[H])c3N([H])[H])C2([H])[H])c(C(=O)C([H])([H])C([H])([H])[H])c1[H])=C([H])Oc1c([H])c([H])c2c(c1[H])C([H])([H])N(C(=O)C([H])(N([H])C(=O)C([H])(N([H])C([H])([H])[H])C([H])([H])[H])C(C([H])([H])[H])(C([H])([H])[H])C([H])([H])[H])C([H])(C(=O)N([H])C1([H])c3c([H])c([H])c([H])c([H])c3C([H])([H])C([H])([H])C1([H])[H])C2([H])[H]

>  <smiles>  (19) 
[H]OC(C(=O)N([H])c1oc(N([H])C(=O)N2C([H])([H])C([H])([H])C([H])([H])C([H])(n3nc(-c4c([H])c([H])c(Oc5c([H])c([H])c(F)c([H])c5F)c([H])c4[H])c(C(=O)N([H])[H])c3N([H])[H])C2([H])[H])c(C(=O)C([H])([H])C([H])([H])[H])c1[H])=C([H])Oc1c([H])c([H])c2c(c1[H])C([H])([H])N(C(=O)C([H])(N([H])C(=O)C([H])(N([H])C([H])([H])[H])C([H])([H])[H])C(C([H])([H])[H])(C([H])([H])[H])C([H])([H])[H])C([H])(C(=O)N([H])C1([H])c3c([H])c([H])c([H])c([H])c3C([H])([H])C([H])([H])C1([H])[H])C2([H])[H]

$$$$
19:0:0
     RDKit          3D

 89 98  0  0  1  0  0  0  0  0999 V2000
  -30.8730  -15.3680   20.1010 C   0  0  0  0  0  0  0  0  0  0  0  0
  -30.8640  -12.7690   19.8390 C   0  0  0  0  0  2  0  0  0  0  0  0
  -30.0500  -12.1860   18.6530 C   0  0  0  0  0  2  0  0  0  0  0  0
  -28.5900  -11.9830   19.0710 C   0  0  0  0  0  2  0  0  0  0  0  0
  -28.0380  -13.2180   19.8180 C   0  0  0  0  0  3  0  0  0  0  0  0
  -28.9790  -13.7270   20.9360 C   0  0  0  0  0  2  0  0  0  0  0  0
  -30.2570  -14.0840   20.2940 N   0  0  0  0  0  0  0  0  0  0  0  0
  -32.0980  -15.2420   19.9360 O   0  0  0  0  0  0  0  0  0  0  0  0
  -28.8420  -18.8410   20.1870 C   0  0  0  0  0  0  0  0  0  0  0  0
  -29.6980  -19.4130   19.3180 C   0  0  0  0  0  0  0  0  0  0  0  0
  -27.5210  -19.4870   20.5750 C   0  0  0  0  0  2  0  0  0  0  0  0
  -29.1070  -17.3370   20.5950 C   0  0  0  0  0  3  0  0  0  0  0  0
  -30.6260  -18.0660   19.0130 C   0  0  0  0  0  3  0  0  0  0  0  0
  -27.3480  -20.8880   19.9610 C   0  0  0  0  0  2  0  0  0  0  0  0
  -27.7480  -20.8460   18.4720 C   0  0  0  0  0  2  0  0  0  0  0  0
  -30.2190  -16.7000   19.8160 N   0  0  0  0  0  0  0  0  0  0  0  0
  -29.2250  -20.8490   18.3830 N   0  0  1  0  0  4  0  0  0  0  0  0
  -29.4260  -20.5970   17.4260 H   0  0  0  0  0  0  0  0  0  0  0  0
  -25.6870  -13.9770   20.4470 C   0  0  0  0  0  0  0  0  0  0  0  0
  -24.5500  -13.2920   20.7860 C   0  0  0  0  0  0  0  0  0  0  0  0
  -24.9140  -11.9110   20.8130 C   0  0  0  0  0  0  0  0  0  0  0  0
  -26.6670  -13.0160   20.2750 N   0  0  0  0  0  0  0  0  0  0  0  0
  -26.2110  -11.7700   20.5620 N   0  0  0  0  0  0  0  0  0  0  0  0
  -24.0820  -10.7130   21.0010 C   0  0  0  0  0  0  0  0  0  0  0  0
  -24.4430   -9.6920   21.9060 C   0  0  0  0  0  3  0  0  0  0  0  0
  -23.6100   -8.5650   22.0840 C   0  0  0  0  0  3  0  0  0  0  0  0
  -22.4030   -8.4520   21.3560 C   0  0  0  0  0  0  0  0  0  0  0  0
  -22.0630   -9.4590   20.4350 C   0  0  0  0  0  3  0  0  0  0  0  0
  -22.8940  -10.5770   20.2540 C   0  0  0  0  0  3  0  0  0  0  0  0
  -21.5490   -7.3780   21.4460 O   0  0  0  0  0  0  0  0  0  0  0  0
  -21.5430   -6.5520   22.5410 C   0  0  0  0  0  0  0  0  0  0  0  0
  -21.2880   -7.0410   23.8420 C   0  0  0  0  0  3  0  0  0  0  0  0
  -21.2180   -6.1450   24.9290 C   0  0  0  0  0  3  0  0  0  0  0  0
  -21.3990   -4.7650   24.7190 C   0  0  0  0  0  0  0  0  0  0  0  0
  -21.6460   -4.2770   23.4240 C   0  0  0  0  0  3  0  0  0  0  0  0
  -21.7170   -5.1670   22.3390 C   0  0  0  0  0  0  0  0  0  0  0  0
  -21.9340   -4.6880   21.0900 F   0  0  0  0  0  0  0  0  0  0  0  0
  -21.3280   -3.9060   25.7630 F   0  0  0  0  0  0  0  0  0  0  0  0
  -23.1850  -13.8840   20.9680 C   0  0  0  0  0  0  0  0  0  0  0  0
  -22.3670  -13.2870   21.8300 N   0  0  0  0  0  0  0  0  0  0  0  0
  -22.8510  -14.9140   20.3830 O   0  0  0  0  0  0  0  0  0  0  0  0
  -22.6500  -12.4540   22.3250 H   0  0  0  0  0  0  0  0  0  0  0  0
  -21.4470  -13.6720   21.9900 H   0  0  0  0  0  0  0  0  0  0  0  0
  -25.9600  -15.3230   20.2460 N   0  0  0  0  0  0  0  0  0  0  0  0
  -25.2390  -16.0340   20.3250 H   0  0  0  0  0  0  0  0  0  0  0  0
  -26.8450  -15.6960   19.9310 H   0  0  0  0  0  0  0  0  0  0  0  0
  -29.5760  -22.4990   18.3760 C   0  0  0  0  0  3  0  0  0  0  0  0
  -28.4410  -23.9330   18.1930 C   0  0  0  0  0  3  0  0  0  0  0  0
  -28.5100  -25.5920   18.2910 O   0  0  0  0  0  0  0  0  0  0  0  0
  -24.7250  -30.6140   22.4890 C   0  0  0  0  0  0  0  0  0  0  0  0
  -27.4010  -26.5870   18.4730 C   0  0  0  0  0  0  0  0  0  0  0  0
  -23.5180  -29.4630   20.6790 C   0  0  0  0  0  3  0  0  0  0  0  0
  -24.9750  -28.2690   18.8950 C   0  0  0  0  0  0  0  0  0  0  0  0
  -26.0470  -29.8980   20.4320 C   0  0  0  0  0  2  0  0  0  0  0  0
  -26.1700  -28.6400   19.5220 C   0  0  0  0  0  0  0  0  0  0  0  0
  -27.3720  -27.8250   19.2860 C   0  0  0  0  0  3  0  0  0  0  0  0
  -26.1590  -26.3740   17.8230 C   0  0  0  0  0  3  0  0  0  0  0  0
  -24.9940  -27.1640   18.0270 C   0  0  0  0  0  3  0  0  0  0  0  0
  -23.7010  -29.0680   19.1860 C   0  0  0  0  0  2  0  0  0  0  0  0
  -24.7870  -30.0110   21.2600 N   0  0  0  0  0  0  0  0  0  0  0  0
  -23.6590  -30.7130   23.1170 O   0  0  0  0  0  0  0  0  0  0  0  0
  -22.9570  -28.2530   21.4720 C   0  0  0  0  0  0  0  0  0  0  0  0
  -21.6390  -27.9990   21.3680 N   0  0  0  0  0  0  0  0  0  0  0  0
  -23.7120  -27.5510   22.1490 O   0  0  0  0  0  0  0  0  0  0  0  0
  -21.0770  -28.6240   20.8040 H   0  0  0  0  0  0  0  0  0  0  0  0
  -18.4160  -26.3700   21.6990 C   0  0  0  0  0  0  0  0  0  0  0  0
  -20.9380  -26.8690   21.9850 C   0  0  0  0  0  3  0  0  0  0  0  0
  -21.1770  -25.5650   21.1870 C   0  0  0  0  0  2  0  0  0  0  0  0
  -20.0900  -25.2900   20.1400 C   0  0  0  0  0  2  0  0  0  0  0  0
  -18.7190  -25.1750   20.8110 C   0  0  0  0  0  2  0  0  0  0  0  0
  -19.4550  -27.1740   22.2370 C   0  0  0  0  0  0  0  0  0  0  0  0
  -19.1160  -28.2880   23.0330 C   0  0  0  0  0  3  0  0  0  0  0  0
  -17.7680  -28.6020   23.2940 C   0  0  0  0  0  3  0  0  0  0  0  0
  -16.7430  -27.7970   22.7720 C   0  0  0  0  0  3  0  0  0  0  0  0
  -17.0680  -26.6820   21.9790 C   0  0  0  0  0  3  0  0  0  0  0  0
  -25.9920  -31.2240   23.1620 C   0  0  0  0  0  3  0  0  0  0  0  0
  -25.5970  -32.4870   23.8120 N   0  0  0  0  0  0  0  0  0  0  0  0
  -25.8880  -33.7110   23.3490 C   0  0  0  0  0  0  0  0  0  0  0  0
  -26.5770  -33.8930   22.3390 O   0  0  0  0  0  0  0  0  0  0  0  0
  -24.9810  -32.4050   24.6070 H   0  0  0  0  0  0  0  0  0  0  0  0
  -24.1150  -35.5040   23.3780 C   0  0  0  0  0  1  0  0  0  0  0  0
  -25.3310  -34.9280   24.1210 C   0  0  0  0  0  3  0  0  0  0  0  0
  -27.3950  -35.6120   25.2720 C   0  0  0  0  0  1  0  0  0  0  0  0
  -26.3320  -35.9940   24.3450 N   0  0  0  0  0  0  0  0  0  0  0  0
  -25.8890  -36.8350   24.7040 H   0  0  0  0  0  0  0  0  0  0  0  0
  -26.6570  -30.2530   24.2150 C   0  0  1  0  0  0  0  0  0  0  0  0
  -25.6670  -29.7070   25.2720 C   0  0  0  0  0  1  0  0  0  0  0  0
  -27.3060  -29.0410   23.5060 C   0  0  0  0  0  1  0  0  0  0  0  0
  -27.8010  -30.9910   24.9530 C   0  0  0  0  0  1  0  0  0  0  0  0
  1  7  1  0
  2  7  1  0
  3  4  1  0
  3  2  1  0
  5  4  1  0
  5 22  1  0
  5  6  1  0
  7  6  1  0
  8  1  2  0
  9 11  1  0
  9 12  2  0
 10  9  1  0
 13 10  2  0
 13 16  1  0
 14 11  1  0
 15 14  1  0
 16  1  1  0
 16 12  1  0
 17 15  1  0
 17 10  1  0
 17 18  1  6
 19 20  2  0
 20 21  1  0
 20 39  1  0
 21 24  1  0
 22 19  1  0
 22 23  1  0
 23 21  2  0
 24 25  1  0
 25 26  2  0
 27 30  1  0
 27 26  1  0
 28 27  2  0
 29 28  1  0
 29 24  2  0
 30 31  1  0
 31 32  1  0
 32 33  2  0
 34 33  1  0
 34 38  1  0
 35 34  2  0
 36 31  2  0
 36 35  1  0
 37 36  1  0
 39 40  1  0
 40 43  1  0
 40 42  1  0
 41 39  2  0
 44 45  1  0
 44 19  1  0
 46 44  1  0
 47 17  1  0
 48 49  1  0
 48 47  2  0
 49 51  1  0
 50 61  2  0
 51 56  1  0
 52 60  1  0
 52 62  1  0
 53 59  1  0
 53 55  1  0
 54 60  1  0
 55 54  1  0
 56 55  2  0
 57 58  1  0
 57 51  2  0
 58 53  2  0
 59 52  1  0
 60 50  1  0
 62 64  2  0
 63 62  1  0
 65 63  1  0
 66 75  2  0
 66 71  1  0
 67 63  1  0
 67 71  1  0
 68 67  1  0
 69 70  1  0
 69 68  1  0
 70 66  1  0
 71 72  2  0
 72 73  1  0
 74 73  2  0
 75 74  1  0
 76 50  1  0
 76 77  1  0
 76 86  1  0
 77 80  1  0
 78 77  1  0
 78 82  1  0
 79 78  2  0
 82 81  1  0
 82 84  1  0
 84 85  1  0
 84 83  1  0
 86 89  1  1
 86 87  1  0
 88 86  1  0
M  ISO  4   1 100  16 100  48 101  49 101
M  END
>  <TORSDO>  (20) 
F 17

>  <SCORE>  (20) 
-12.045

>  <name>  (20) 
19

>  <ligand_id>  (20) 
19

>  <original_smiles>  (20) 
[H]c1c([H])c([H])c2c(c1[H])C([H])([H])C([H])([H])C([H])([H])C2([H])N([H])C(=O)C1([H])N(C(=O)C([H])(N([H])C(=O)C([H])(N([H])C([H])([H])[H])C([H])([H])[H])C(C([H])([H])[H])(C([H])([H])[H])C([H])([H])[H])C([H])([H])c2c([H])c(OC([H])([H])C([H])([H])[N+]3([H])C4=C(C([H])([H])N(C(=O)N5C([H])([H])C([H])([H])C([H])([H])C([H])(n6nc(-c7c([H])c([H])c(Oc8c([H])c([H])c(F)c([H])c8F)c([H])c7[H])c(C(=O)N([H])[H])c6N([H])[H])C5([H])[H])C4([H])[H])C([H])([H])C([H])([H])C3([H])[H])c([H])c([H])c2C1([H])[H]

>  <smiles>  (20) 
[H]c1c([H])c([H])c2c(c1[H])C([H])([H])C([H])([H])C([H])([H])C2([H])N([H])C(=O)C1([H])N(C(=O)C([H])(N([H])C(=O)C([H])(N([H])C([H])([H])[H])C([H])([H])[H])C(C([H])([H])[H])(C([H])([H])[H])C([H])([H])[H])C([H])([H])c2c([H])c(OC([H])([H])C([H])([H])[N+]3([H])C4=C(C([H])([H])N(C(=O)N5C([H])([H])C([H])([H])C([H])([H])C([H])(n6nc(-c7c([H])c([H])c(Oc8c([H])c([H])c(F)c([H])c8F)c([H])c7[H])c(C(=O)N([H])[H])c6N([H])[H])C5([H])[H])C4([H])[H])C([H])([H])C([H])([H])C3([H])[H])c([H])c([H])c2C1([H])[H]

$$$$
20:0:0
     RDKit          3D

 91 99  0  0  1  0  0  0  0  0999 V2000
  -29.7960  -21.2100   19.7170 N   0  0  0  0  0  0  0  0  0  0  0  0
  -30.3320  -21.6360   18.9650 H   0  0  0  0  0  0  0  0  0  0  0  0
  -31.3730  -17.9270   19.4530 C   0  0  0  0  0  3  0  0  0  0  0  0
  -31.3300  -19.3450   19.2520 C   0  0  0  0  0  3  0  0  0  0  0  0
  -30.3110  -17.5420   20.2330 C   0  0  0  0  0  0  0  0  0  0  0  0
  -30.2450  -19.8360   19.9230 C   0  0  0  0  0  0  0  0  0  0  0  0
  -29.5860  -18.7480   20.5390 O   0  0  0  0  0  0  0  0  0  0  0  0
  -29.8070  -16.1690   20.6950 C   0  0  0  0  0  0  0  0  0  0  0  0
  -28.7460  -16.1330   21.3920 N   0  0  0  0  0  0  0  0  0  0  0  0
  -28.3730  -17.0600   21.5630 H   0  0  0  0  0  0  0  0  0  0  0  0
  -30.6080  -14.8140   20.2680 C   0  0  0  0  0  0  0  0  0  0  0  0
  -30.3850  -12.5600   19.2060 C   0  0  0  0  0  2  0  0  0  0  0  0
  -29.4320  -12.6900   17.9950 C   0  0  0  0  0  2  0  0  0  0  0  0
  -27.9630  -12.5090   18.4310 C   0  0  0  0  0  2  0  0  0  0  0  0
  -27.6250  -13.3180   19.7140 C   0  0  0  0  0  3  0  0  0  0  0  0
  -28.7030  -13.1500   20.8020 C   0  0  0  0  0  2  0  0  0  0  0  0
  -29.9820  -13.5760   20.2130 N   0  0  0  0  0  0  0  0  0  0  0  0
  -31.7720  -14.8940   19.8540 O   0  0  0  0  0  0  0  0  0  0  0  0
  -25.2490  -13.8940   20.4740 C   0  0  0  0  0  0  0  0  0  0  0  0
  -24.1900  -13.1150   20.8490 C   0  0  0  0  0  0  0  0  0  0  0  0
  -24.6530  -11.7660   20.7960 C   0  0  0  0  0  0  0  0  0  0  0  0
  -26.2900  -13.0170   20.2180 N   0  0  0  0  0  0  0  0  0  0  0  0
  -25.9380  -11.7310   20.4650 N   0  0  0  0  0  0  0  0  0  0  0  0
  -23.9340  -10.5020   20.9950 C   0  0  0  0  0  0  0  0  0  0  0  0
  -24.3670   -9.5430   21.9350 C   0  0  0  0  0  3  0  0  0  0  0  0
  -23.6470   -8.3410   22.1200 C   0  0  0  0  0  3  0  0  0  0  0  0
  -22.4790   -8.0920   21.3600 C   0  0  0  0  0  0  0  0  0  0  0  0
  -22.0620   -9.0430   20.4110 C   0  0  0  0  0  3  0  0  0  0  0  0
  -22.7840  -10.2340   20.2270 C   0  0  0  0  0  3  0  0  0  0  0  0
  -21.7290   -6.9450   21.4520 O   0  0  0  0  0  0  0  0  0  0  0  0
  -21.6580   -6.2220   22.6130 C   0  0  0  0  0  0  0  0  0  0  0  0
  -21.1750   -6.7870   23.8140 C   0  0  0  0  0  3  0  0  0  0  0  0
  -21.0550   -5.9880   24.9670 C   0  0  0  0  0  3  0  0  0  0  0  0
  -21.4040   -4.6260   24.9230 C   0  0  0  0  0  0  0  0  0  0  0  0
  -21.8810   -4.0620   23.7250 C   0  0  0  0  0  3  0  0  0  0  0  0
  -22.0040   -4.8550   22.5730 C   0  0  0  0  0  0  0  0  0  0  0  0
  -22.4410   -4.3020   21.4160 F   0  0  0  0  0  0  0  0  0  0  0  0
  -21.2830   -3.8550   26.0290 F   0  0  0  0  0  0  0  0  0  0  0  0
  -22.7970  -13.5900   21.1480 C   0  0  0  0  0  0  0  0  0  0  0  0
  -22.0860  -12.8790   22.0170 N   0  0  0  0  0  0  0  0  0  0  0  0
  -22.3490  -14.6230   20.6530 O   0  0  0  0  0  0  0  0  0  0  0  0
  -22.4650  -12.0440   22.4390 H   0  0  0  0  0  0  0  0  0  0  0  0
  -21.1530  -13.1740   22.2620 H   0  0  0  0  0  0  0  0  0  0  0  0
  -25.4180  -15.2650   20.3200 N   0  0  0  0  0  0  0  0  0  0  0  0
  -24.6950  -15.9400   20.5440 H   0  0  0  0  0  0  0  0  0  0  0  0
  -26.3310  -15.6890   20.1920 H   0  0  0  0  0  0  0  0  0  0  0  0
  -29.2740  -22.2810   20.6560 C   0  0  0  0  0  3  0  0  0  0  0  0
  -29.1430  -23.7940   20.0330 C   0  0  0  0  0  3  0  0  0  0  0  0
  -27.1100  -24.5880   21.4110 C   0  0  0  0  0  1  0  0  0  0  0  0
  -28.4650  -25.0410   20.8450 C   0  0  0  0  0  3  0  0  0  0  0  0
  -28.4520  -26.4500   20.2660 O   0  0  0  0  0  0  0  0  0  0  0  0
  -24.5870  -31.8690   23.2440 C   0  0  0  0  0  0  0  0  0  0  0  0
  -27.3170  -27.3070   20.2570 C   0  0  0  0  0  0  0  0  0  0  0  0
  -23.4330  -30.4680   21.5700 C   0  0  0  0  0  3  0  0  0  0  0  0
  -24.9350  -28.9270   20.1780 C   0  0  0  0  0  0  0  0  0  0  0  0
  -25.9770  -30.8040   21.4480 C   0  0  0  0  0  2  0  0  0  0  0  0
  -26.0880  -29.4220   20.8020 C   0  0  0  0  0  0  0  0  0  0  0  0
  -27.2820  -28.6280   20.8210 C   0  0  0  0  0  3  0  0  0  0  0  0
  -26.1430  -26.8860   19.5920 C   0  0  0  0  0  3  0  0  0  0  0  0
  -24.9670  -27.6660   19.5650 C   0  0  0  0  0  3  0  0  0  0  0  0
  -23.6850  -29.7880   20.1980 C   0  0  0  0  0  2  0  0  0  0  0  0
  -24.6820  -31.0680   22.1430 N   0  0  0  0  0  0  0  0  0  0  0  0
  -23.4880  -32.1330   23.7560 O   0  0  0  0  0  0  0  0  0  0  0  0
  -22.7480  -29.4500   22.5130 C   0  0  0  0  0  0  0  0  0  0  0  0
  -21.4200  -29.2850   22.3730 N   0  0  0  0  0  0  0  0  0  0  0  0
  -23.4130  -28.8100   23.3290 O   0  0  0  0  0  0  0  0  0  0  0  0
  -20.9420  -29.8680   21.6990 H   0  0  0  0  0  0  0  0  0  0  0  0
  -18.0230  -28.1240   22.8450 C   0  0  0  0  0  0  0  0  0  0  0  0
  -20.5850  -28.3420   23.1210 C   0  0  0  0  0  3  0  0  0  0  0  0
  -20.6680  -26.9210   22.5180 C   0  0  0  0  0  2  0  0  0  0  0  0
  -19.5620  -26.6330   21.4950 C   0  0  0  0  0  2  0  0  0  0  0  0
  -18.1830  -26.7850   22.1470 C   0  0  0  0  0  2  0  0  0  0  0  0
  -19.1520  -28.8610   23.2900 C   0  0  0  0  0  0  0  0  0  0  0  0
  -18.9490  -30.1140   23.9110 C   0  0  0  0  0  3  0  0  0  0  0  0
  -17.6520  -30.6300   24.0870 C   0  0  0  0  0  3  0  0  0  0  0  0
  -16.5370  -29.8870   23.6570 C   0  0  0  0  0  3  0  0  0  0  0  0
  -16.7240  -28.6370   23.0410 C   0  0  0  0  0  3  0  0  0  0  0  0
  -25.8490  -32.5100   23.9010 C   0  0  0  0  0  3  0  0  0  0  0  0
  -25.5310  -33.9140   24.2060 N   0  0  0  0  0  0  0  0  0  0  0  0
  -25.8890  -34.9560   23.4450 C   0  0  0  0  0  0  0  0  0  0  0  0
  -26.5830  -34.8380   22.4310 O   0  0  0  0  0  0  0  0  0  0  0  0
  -24.9200  -34.0760   24.9910 H   0  0  0  0  0  0  0  0  0  0  0  0
  -24.1780  -36.7550   23.0260 C   0  0  0  0  0  1  0  0  0  0  0  0
  -25.3950  -36.3530   23.8750 C   0  0  0  0  0  3  0  0  0  0  0  0
  -27.5080  -37.2420   24.7580 C   0  0  0  0  0  1  0  0  0  0  0  0
  -26.4360  -37.4010   23.7800 N   0  0  0  0  0  0  0  0  0  0  0  0
  -26.0290  -38.3250   23.9010 H   0  0  0  0  0  0  0  0  0  0  0  0
  -26.3230  -31.7540   25.2070 C   0  0  1  0  0  0  0  0  0  0  0  0
  -25.1970  -31.5320   26.2430 C   0  0  0  0  0  1  0  0  0  0  0  0
  -26.9190  -30.3710   24.8570 C   0  0  0  0  0  1  0  0  0  0  0  0
  -27.4520  -32.5580   25.8960 C   0  0  0  0  0  1  0  0  0  0  0  0
  1  6  1  0
  1 47  1  0
  2  1  1  0
  3  5  2  0
  4  3  1  0
  4  6  2  0
  5  7  1  0
  5  8  1  0
  6  7  1  0
  8  9  2  0
  9 10  1  0
 11  8  1  0
 12 17  1  0
 13 14  1  0
 13 12  1  0
 15 14  1  0
 15 22  1  0
 15 16  1  0
 17 11  1  0
 17 16  1  0
 18 11  2  0
 19 20  2  0
 20 39  1  0
 21 20  1  0
 21 24  1  0
 22 23  1  0
 22 19  1  0
 23 21  2  0
 24 25  1  0
 25 26  2  0
 27 30  1  0
 27 26  1  0
 28 27  2  0
 29 28  1  0
 29 24  2  0
 30 31  1  0
 31 32  1  0
 32 33  2  0
 34 33  1  0
 34 38  1  0
 35 34  2  0
 36 31  2  0
 36 35  1  0
 37 36  1  0
 39 40  1  0
 40 43  1  0
 40 42  1  0
 41 39  2  0
 44 19  1  0
 44 45  1  0
 46 44  1  0
 48 47  2  0
 48 50  1  0
 50 49  1  0
 51 50  1  0
 52 63  2  0
 53 51  1  0
 53 58  1  0
 54 62  1  0
 54 64  1  0
 55 61  1  0
 55 57  1  0
 56 62  1  0
 57 58  2  0
 57 56  1  0
 59 53  2  0
 60 59  1  0
 60 55  2  0
 61 54  1  0
 62 52  1  0
 64 66  2  0
 65 64  1  0
 67 65  1  0
 68 77  2  0
 68 73  1  0
 69 65  1  0
 69 73  1  0
 70 69  1  0
 71 72  1  0
 71 70  1  0
 72 68  1  0
 73 74  2  0
 74 75  1  0
 76 75  2  0
 77 76  1  0
 78 52  1  0
 78 79  1  0
 78 88  1  0
 79 82  1  0
 80 84  1  0
 80 79  1  0
 81 80  2  0
 84 83  1  0
 86 84  1  0
 86 87  1  0
 86 85  1  0
 88 91  1  1
 88 89  1  0
 90 88  1  0
M  ISO  4   8 100  11 100  50 101  51 101
M  END
>  <TORSDO>  (21) 
F 21

>  <SCORE>  (21) 
-13.451

>  <name>  (21) 
20

>  <ligand_id>  (21) 
20

>  <original_smiles>  (21) 
[H]N=C(C(=O)N1C([H])([H])C([H])([H])C([H])([H])C([H])(n2nc(-c3c([H])c([H])c(Oc4c([H])c([H])c(F)c([H])c4F)c([H])c3[H])c(C(=O)N([H])[H])c2N([H])[H])C1([H])[H])c1oc(N([H])C([H])([H])C([H])([H])C([H])(Oc2c([H])c([H])c3c(c2[H])C([H])([H])N(C(=O)C([H])(N([H])C(=O)C([H])(N([H])C([H])([H])[H])C([H])([H])[H])C(C([H])([H])[H])(C([H])([H])[H])C([H])([H])[H])C([H])(C(=O)N([H])C2([H])c4c([H])c([H])c([H])c([H])c4C([H])([H])C([H])([H])C2([H])[H])C3([H])[H])C([H])([H])[H])c([H])c1[H]

>  <smiles>  (21) 
[H]N=C(C(=O)N1C([H])([H])C([H])([H])C([H])([H])C([H])(n2nc(-c3c([H])c([H])c(Oc4c([H])c([H])c(F)c([H])c4F)c([H])c3[H])c(C(=O)N([H])[H])c2N([H])[H])C1([H])[H])c1oc(N([H])C([H])([H])C([H])([H])C([H])(Oc2c([H])c([H])c3c(c2[H])C([H])([H])N(C(=O)C([H])(N([H])C(=O)C([H])(N([H])C([H])([H])[H])C([H])([H])[H])C(C([H])([H])[H])(C([H])([H])[H])C([H])([H])[H])C([H])(C(=O)N([H])C2([H])c4c([H])c([H])c([H])c([H])c4C([H])([H])C([H])([H])C2([H])[H])C3([H])[H])C([H])([H])[H])c([H])c1[H]

$$$$
21:0:0
     RDKit          3D

 93102  0  0  1  0  0  0  0  0999 V2000
  -30.5600  -15.0940   20.3540 C   0  0  0  0  0  0  0  0  0  0  0  0
  -30.4210  -12.7360   19.4070 C   0  0  0  0  0  2  0  0  0  0  0  0
  -29.5080  -12.6790   18.1620 C   0  0  0  0  0  2  0  0  0  0  0  0
  -28.0410  -12.4720   18.5770 C   0  0  0  0  0  2  0  0  0  0  0  0
  -27.6190  -13.4060   19.7410 C   0  0  0  0  0  3  0  0  0  0  0  0
  -28.6570  -13.4380   20.8820 C   0  0  0  0  0  2  0  0  0  0  0  0
  -29.9350  -13.8450   20.2830 N   0  0  0  0  0  0  0  0  0  0  0  0
  -31.7600  -15.1200   20.0570 O   0  0  0  0  0  0  0  0  0  0  0  0
  -29.6500  -19.9020   21.1790 C   0  0  0  0  0  3  0  0  0  0  0  0
  -28.7460  -19.6560   18.9400 C   0  0  0  0  0  3  0  0  0  0  0  0
  -29.8550  -18.4570   21.1270 C   0  0  0  0  0  0  0  0  0  0  0  0
  -29.5280  -17.5770   20.0360 C   0  0  0  0  0  0  0  0  0  0  0  0
  -29.0490  -20.5830   20.0320 C   0  0  0  0  0  0  0  0  0  0  0  0
  -28.9590  -18.2060   18.9050 C   0  0  0  0  0  0  0  0  0  0  0  0
  -30.3000  -17.1950   21.8960 C   0  0  0  0  0  2  0  0  0  0  0  0
  -29.8720  -16.2920   20.7270 N   0  0  0  0  0  0  0  0  0  0  0  0
  -25.2290  -13.9880   20.4400 C   0  0  0  0  0  0  0  0  0  0  0  0
  -24.1590  -13.2160   20.7970 C   0  0  0  0  0  0  0  0  0  0  0  0
  -24.6240  -11.8650   20.7860 C   0  0  0  0  0  0  0  0  0  0  0  0
  -26.2750  -13.1090   20.2240 N   0  0  0  0  0  0  0  0  0  0  0  0
  -25.9200  -11.8270   20.4990 N   0  0  0  0  0  0  0  0  0  0  0  0
  -23.8920  -10.6050   20.9750 C   0  0  0  0  0  0  0  0  0  0  0  0
  -24.3040   -9.6450   21.9270 C   0  0  0  0  0  3  0  0  0  0  0  0
  -23.5710   -8.4520   22.1030 C   0  0  0  0  0  3  0  0  0  0  0  0
  -22.4120   -8.2080   21.3280 C   0  0  0  0  0  0  0  0  0  0  0  0
  -22.0200   -9.1570   20.3680 C   0  0  0  0  0  3  0  0  0  0  0  0
  -22.7530  -10.3420   20.1880 C   0  0  0  0  0  3  0  0  0  0  0  0
  -21.6530   -7.0660   21.4140 O   0  0  0  0  0  0  0  0  0  0  0  0
  -21.5780   -6.3370   22.5730 C   0  0  0  0  0  0  0  0  0  0  0  0
  -21.0930   -6.8960   23.7750 C   0  0  0  0  0  3  0  0  0  0  0  0
  -20.9660   -6.0910   24.9250 C   0  0  0  0  0  3  0  0  0  0  0  0
  -21.3160   -4.7290   24.8730 C   0  0  0  0  0  0  0  0  0  0  0  0
  -21.7950   -4.1690   23.6760 C   0  0  0  0  0  3  0  0  0  0  0  0
  -21.9220   -4.9710   22.5280 C   0  0  0  0  0  0  0  0  0  0  0  0
  -22.3640   -4.4210   21.3710 F   0  0  0  0  0  0  0  0  0  0  0  0
  -21.1890   -3.9530   25.9760 F   0  0  0  0  0  0  0  0  0  0  0  0
  -22.7570  -13.6970   21.0380 C   0  0  0  0  0  0  0  0  0  0  0  0
  -22.0150  -13.0130   21.9020 N   0  0  0  0  0  0  0  0  0  0  0  0
  -22.3300  -14.7150   20.4960 O   0  0  0  0  0  0  0  0  0  0  0  0
  -22.3740  -12.1900   22.3640 H   0  0  0  0  0  0  0  0  0  0  0  0
  -21.0740  -13.3190   22.1060 H   0  0  0  0  0  0  0  0  0  0  0  0
  -25.3970  -15.3580   20.2570 N   0  0  0  0  0  0  0  0  0  0  0  0
  -24.6320  -16.0150   20.3570 H   0  0  0  0  0  0  0  0  0  0  0  0
  -26.2600  -15.7970   19.9610 H   0  0  0  0  0  0  0  0  0  0  0  0
  -28.8550  -23.3690   20.3880 C   0  0  0  0  0  0  0  0  0  0  0  0
  -28.6060  -22.0620   19.8680 N   0  0  0  0  0  0  0  0  0  0  0  0
  -29.7220  -23.5260   21.2520 O   0  0  0  0  0  0  0  0  0  0  0  0
  -27.9270  -22.1530   19.1240 H   0  0  0  0  0  0  0  0  0  0  0  0
  -27.9980  -24.7170   19.8840 C   0  0  0  0  0  2  0  0  0  0  0  0
  -28.2840  -26.2110   20.2800 O   0  0  0  0  0  0  0  0  0  0  0  0
  -24.6340  -31.9110   23.2750 C   0  0  0  0  0  0  0  0  0  0  0  0
  -27.2470  -27.2250   20.1990 C   0  0  0  0  0  0  0  0  0  0  0  0
  -23.4490  -30.5250   21.6180 C   0  0  0  0  0  3  0  0  0  0  0  0
  -24.9130  -28.9780   20.1760 C   0  0  0  0  0  0  0  0  0  0  0  0
  -26.0040  -30.8020   21.4670 C   0  0  0  0  0  2  0  0  0  0  0  0
  -26.0880  -29.4160   20.7990 C   0  0  0  0  0  0  0  0  0  0  0  0
  -27.2550  -28.5550   20.7960 C   0  0  0  0  0  3  0  0  0  0  0  0
  -26.0470  -26.9070   19.5220 C   0  0  0  0  0  3  0  0  0  0  0  0
  -24.9060  -27.7390   19.5220 C   0  0  0  0  0  3  0  0  0  0  0  0
  -23.6790  -29.8670   20.2330 C   0  0  0  0  0  2  0  0  0  0  0  0
  -24.7150  -31.1010   22.1750 N   0  0  0  0  0  0  0  0  0  0  0  0
  -23.5440  -32.1830   23.8010 O   0  0  0  0  0  0  0  0  0  0  0  0
  -22.7740  -29.5020   22.5670 C   0  0  0  0  0  0  0  0  0  0  0  0
  -21.4480  -29.3180   22.4300 N   0  0  0  0  0  0  0  0  0  0  0  0
  -23.4460  -28.8780   23.3910 O   0  0  0  0  0  0  0  0  0  0  0  0
  -20.9610  -29.8740   21.7420 H   0  0  0  0  0  0  0  0  0  0  0  0
  -18.0750  -28.0850   22.9120 C   0  0  0  0  0  0  0  0  0  0  0  0
  -20.6310  -28.3670   23.1890 C   0  0  0  0  0  3  0  0  0  0  0  0
  -20.7470  -26.9410   22.6020 C   0  0  0  0  0  2  0  0  0  0  0  0
  -19.6510  -26.6180   21.5810 C   0  0  0  0  0  2  0  0  0  0  0  0
  -18.2660  -26.7440   22.2210 C   0  0  0  0  0  2  0  0  0  0  0  0
  -19.1860  -28.8530   23.3520 C   0  0  0  0  0  0  0  0  0  0  0  0
  -18.9520  -30.1060   23.9590 C   0  0  0  0  0  3  0  0  0  0  0  0
  -17.6420  -30.5910   24.1290 C   0  0  0  0  0  3  0  0  0  0  0  0
  -16.5460  -29.8200   23.7030 C   0  0  0  0  0  3  0  0  0  0  0  0
  -16.7630  -28.5680   23.1010 C   0  0  0  0  0  3  0  0  0  0  0  0
  -25.9050  -32.5510   23.9110 C   0  0  0  0  0  3  0  0  0  0  0  0
  -25.5920  -33.9560   24.2210 N   0  0  0  0  0  0  0  0  0  0  0  0
  -25.9200  -35.0000   23.4480 C   0  0  0  0  0  0  0  0  0  0  0  0
  -26.5830  -34.8830   22.4130 O   0  0  0  0  0  0  0  0  0  0  0  0
  -25.0030  -34.1210   25.0230 H   0  0  0  0  0  0  0  0  0  0  0  0
  -24.1800  -36.7870   23.0960 C   0  0  0  0  0  1  0  0  0  0  0  0
  -25.4380  -36.3960   23.8910 C   0  0  0  0  0  3  0  0  0  0  0  0
  -27.5790  -37.3090   24.6740 C   0  0  0  0  0  1  0  0  0  0  0  0
  -26.4660  -37.4500   23.7400 N   0  0  0  0  0  0  0  0  0  0  0  0
  -26.0580  -38.3720   23.8690 H   0  0  0  0  0  0  0  0  0  0  0  0
  -26.3900  -31.7990   25.2120 C   0  0  1  0  0  0  0  0  0  0  0  0
  -25.2760  -31.5840   26.2620 C   0  0  0  0  0  1  0  0  0  0  0  0
  -26.9760  -30.4120   24.8600 C   0  0  0  0  0  1  0  0  0  0  0  0
  -27.5320  -32.5990   25.8830 C   0  0  0  0  0  1  0  0  0  0  0  0
  -28.5800  -17.4380   17.8070 N   0  0  0  0  0  0  0  0  0  0  0  0
  -27.9290  -17.8270   17.1330 H   0  0  0  0  0  0  0  0  0  0  0  0
  -28.4960  -16.4340   17.9150 H   0  0  0  0  0  0  0  0  0  0  0  0
  1 16  1  0
  2  7  1  0
  3  4  1  0
  3  2  1  0
  5  4  1  0
  5 20  1  0
  5  6  1  0
  7  1  1  0
  7  6  1  0
  8  1  2  0
 10 13  1  0
 11  9  1  0
 11 15  1  0
 12 16  1  0
 12 11  2  0
 13  9  2  0
 14 10  2  0
 14 12  1  0
 16 15  1  0
 17 18  2  0
 18 37  1  0
 19 18  1  0
 19 22  1  0
 20 17  1  0
 20 21  1  0
 21 19  2  0
 22 23  1  0
 23 24  2  0
 25 28  1  0
 25 24  1  0
 26 25  2  0
 27 26  1  0
 27 22  2  0
 28 29  1  0
 29 30  1  0
 30 31  2  0
 32 31  1  0
 32 36  1  0
 33 32  2  0
 34 29  2  0
 34 33  1  0
 35 34  1  0
 37 38  1  0
 38 41  1  0
 38 40  1  0
 39 37  2  0
 42 43  1  0
 42 17  1  0
 44 42  1  0
 45 47  2  0
 46 13  1  0
 46 45  1  0
 48 46  1  0
 49 50  1  0
 49 45  1  0
 51 62  2  0
 52 50  1  0
 52 57  1  0
 53 61  1  0
 53 63  1  0
 54 60  1  0
 54 56  1  0
 55 61  1  0
 56 55  1  0
 57 56  2  0
 58 52  2  0
 59 58  1  0
 59 54  2  0
 60 53  1  0
 61 51  1  0
 63 65  2  0
 64 63  1  0
 66 64  1  0
 67 76  2  0
 67 72  1  0
 68 64  1  0
 68 72  1  0
 69 68  1  0
 70 71  1  0
 70 69  1  0
 71 67  1  0
 72 73  2  0
 73 74  1  0
 75 74  2  0
 76 75  1  0
 77 51  1  0
 77 78  1  0
 77 87  1  0
 78 81  1  0
 79 83  1  0
 79 78  1  0
 80 79  2  0
 83 82  1  0
 85 86  1  0
 85 83  1  0
 85 84  1  0
 87 90  1  1
 87 88  1  0
 89 87  1  0
 91 93  1  0
 91 14  1  0
 92 91  1  0
M  ISO  4   1 100  16 100  49 101  50 101
M  END
>  <TORSDO>  (22) 
F 18

>  <SCORE>  (22) 
-14.884

>  <name>  (22) 
21

>  <ligand_id>  (22) 
21

>  <original_smiles>  (22) 
[H]c1c([H])c([H])c2c(c1[H])C([H])([H])C([H])([H])C([H])([H])C2([H])N([H])C(=O)C1([H])N(C(=O)C([H])(N([H])C(=O)C([H])(N([H])C([H])([H])[H])C([H])([H])[H])C(C([H])([H])[H])(C([H])([H])[H])C([H])([H])[H])C([H])([H])c2c([H])c(OC([H])([H])C(=O)N([H])c3c([H])c(N([H])[H])c4c(c3[H])C([H])([H])N4C(=O)N3C([H])([H])C([H])([H])C([H])([H])C([H])(n4nc(-c5c([H])c([H])c(Oc6c([H])c([H])c(F)c([H])c6F)c([H])c5[H])c(C(=O)N([H])[H])c4N([H])[H])C3([H])[H])c([H])c([H])c2C1([H])[H]

>  <smiles>  (22) 
[H]c1c([H])c([H])c2c(c1[H])C([H])([H])C([H])([H])C([H])([H])C2([H])N([H])C(=O)C1([H])N(C(=O)C([H])(N([H])C(=O)C([H])(N([H])C([H])([H])[H])C([H])([H])[H])C(C([H])([H])[H])(C([H])([H])[H])C([H])([H])[H])C([H])([H])c2c([H])c(OC([H])([H])C(=O)N([H])c3c([H])c(N([H])[H])c4c(c3[H])C([H])([H])N4C(=O)N3C([H])([H])C([H])([H])C([H])([H])C([H])(n4nc(-c5c([H])c([H])c(Oc6c([H])c([H])c(F)c([H])c6F)c([H])c5[H])c(C(=O)N([H])[H])c4N([H])[H])C3([H])[H])c([H])c([H])c2C1([H])[H]

$$$$
22:0:0
     RDKit          3D

102110  0  0  1  0  0  0  0  0999 V2000
  -29.3560  -20.7940   20.8740 C   0  0  0  0  0  0  0  0  0  0  0  0
  -29.3840  -20.8190   22.1750 N   0  0  0  0  0  4  0  0  0  0  0  0
  -29.7500  -20.0470   22.7280 H   0  0  0  0  0  0  0  0  0  0  0  0
  -29.0540  -21.5990   22.7330 H   0  0  0  0  0  0  0  0  0  0  0  0
  -30.5540  -19.6420   19.0040 C   0  0  0  0  0  3  0  0  0  0  0  0
  -29.6560  -18.2070   20.7640 C   0  0  0  0  0  3  0  0  0  0  0  0
  -30.8090  -17.2240   18.8580 C   0  0  0  0  0  3  0  0  0  0  0  0
  -29.8550  -19.5200   20.2240 C   0  0  0  0  0  0  0  0  0  0  0  0
  -31.0210  -18.5070   18.3180 C   0  0  0  0  0  0  0  0  0  0  0  0
  -30.1480  -17.0370   20.1020 C   0  0  0  0  0  0  0  0  0  0  0  0
  -30.6530  -14.5800   20.3400 C   0  0  0  0  0  0  0  0  0  0  0  0
  -30.3530  -12.3870   19.2750 C   0  0  0  0  0  2  0  0  0  0  0  0
  -29.4220  -12.5750   18.0590 C   0  0  0  0  0  2  0  0  0  0  0  0
  -27.9450  -12.4500   18.4790 C   0  0  0  0  0  2  0  0  0  0  0  0
  -27.6010  -13.2910   19.7400 C   0  0  0  0  0  3  0  0  0  0  0  0
  -28.6570  -13.1110   20.8530 C   0  0  0  0  0  2  0  0  0  0  0  0
  -29.9770  -13.3990   20.2770 N   0  0  0  0  0  0  0  0  0  0  0  0
  -31.8290  -14.6720   19.9810 O   0  0  0  0  0  0  0  0  0  0  0  0
  -29.9250  -15.6940   20.6250 N   0  0  0  0  0  0  0  0  0  0  0  0
  -29.0430  -15.5310   21.0870 H   0  0  0  0  0  0  0  0  0  0  0  0
  -25.2050  -13.8910   20.4550 C   0  0  0  0  0  0  0  0  0  0  0  0
  -24.1400  -13.1190   20.8310 C   0  0  0  0  0  0  0  0  0  0  0  0
  -24.6020  -11.7690   20.8050 C   0  0  0  0  0  0  0  0  0  0  0  0
  -26.2510  -13.0100   20.2230 N   0  0  0  0  0  0  0  0  0  0  0  0
  -25.8910  -11.7290   20.4920 N   0  0  0  0  0  0  0  0  0  0  0  0
  -23.8740  -10.5070   21.0000 C   0  0  0  0  0  0  0  0  0  0  0  0
  -24.3030   -9.5450   21.9420 C   0  0  0  0  0  3  0  0  0  0  0  0
  -23.5780   -8.3490   22.1270 C   0  0  0  0  0  3  0  0  0  0  0  0
  -22.4070   -8.1050   21.3690 C   0  0  0  0  0  0  0  0  0  0  0  0
  -21.9960   -9.0550   20.4170 C   0  0  0  0  0  3  0  0  0  0  0  0
  -22.7230  -10.2430   20.2310 C   0  0  0  0  0  3  0  0  0  0  0  0
  -21.6540   -6.9590   21.4610 O   0  0  0  0  0  0  0  0  0  0  0  0
  -21.5990   -6.2250   22.6200 C   0  0  0  0  0  0  0  0  0  0  0  0
  -21.1500   -6.7840   23.8370 C   0  0  0  0  0  3  0  0  0  0  0  0
  -21.0430   -5.9740   24.9860 C   0  0  0  0  0  3  0  0  0  0  0  0
  -21.3760   -4.6070   24.9180 C   0  0  0  0  0  0  0  0  0  0  0  0
  -21.8180   -4.0500   23.7070 C   0  0  0  0  0  3  0  0  0  0  0  0
  -21.9270   -4.8560   22.5600 C   0  0  0  0  0  0  0  0  0  0  0  0
  -22.3340   -4.3080   21.3890 F   0  0  0  0  0  0  0  0  0  0  0  0
  -21.2660   -3.8280   26.0200 F   0  0  0  0  0  0  0  0  0  0  0  0
  -22.7440  -13.5990   21.1030 C   0  0  0  0  0  0  0  0  0  0  0  0
  -22.0100  -12.9090   21.9700 N   0  0  0  0  0  0  0  0  0  0  0  0
  -22.3100  -14.6250   20.5810 O   0  0  0  0  0  0  0  0  0  0  0  0
  -22.3730  -12.0820   22.4240 H   0  0  0  0  0  0  0  0  0  0  0  0
  -21.0710  -13.2160   22.1840 H   0  0  0  0  0  0  0  0  0  0  0  0
  -25.3690  -15.2620   20.2740 N   0  0  0  0  0  0  0  0  0  0  0  0
  -24.5960  -15.9080   20.3810 H   0  0  0  0  0  0  0  0  0  0  0  0
  -26.2140  -15.7010   19.9320 H   0  0  0  0  0  0  0  0  0  0  0  0
  -31.6850  -18.6370   17.0900 N   0  0  0  0  0  0  0  0  0  0  0  0
  -32.0090  -19.5380   16.7460 H   0  0  0  0  0  0  0  0  0  0  0  0
  -32.0880  -17.8340   16.6140 H   0  0  0  0  0  0  0  0  0  0  0  0
  -28.5910  -23.0620   20.6070 C   0  0  0  0  0  3  0  0  0  0  0  0
  -28.9270  -21.8950   20.1480 N   0  0  0  0  0  0  0  0  0  0  0  0
  -27.9480  -24.1940   19.7520 C   0  0  0  0  0  3  0  0  0  0  0  0
  -27.4820  -23.5460   18.5030 N   0  0  0  0  0  4  0  0  0  0  0  0
  -28.2630  -23.0750   18.0790 H   0  0  0  0  0  0  0  0  0  0  0  0
  -27.0910  -24.1980   17.8470 H   0  0  0  0  0  0  0  0  0  0  0  0
  -26.8040  -22.8390   18.7200 H   0  0  0  0  0  0  0  0  0  0  0  0
  -28.7500  -25.9800   17.9730 C   0  0  0  0  0  1  0  0  0  0  0  0
  -30.2700  -25.3420   19.8210 C   0  0  0  0  0  1  0  0  0  0  0  0
  -28.7810  -25.5340   19.4610 C   0  0  2  0  0  0  0  0  0  0  0  0
  -28.4310  -26.7170   20.2470 O   0  0  0  0  0  0  0  0  0  0  0  0
  -24.5970  -31.9390   23.2390 C   0  0  0  0  0  0  0  0  0  0  0  0
  -27.2450  -27.4450   20.1710 C   0  0  0  0  0  0  0  0  0  0  0  0
  -23.3920  -30.5260   21.6060 C   0  0  0  0  0  3  0  0  0  0  0  0
  -24.8460  -28.9860   20.1770 C   0  0  0  0  0  0  0  0  0  0  0  0
  -25.9220  -30.8720   21.4120 C   0  0  0  0  0  2  0  0  0  0  0  0
  -26.0050  -29.4990   20.7680 C   0  0  0  0  0  0  0  0  0  0  0  0
  -27.1990  -28.7360   20.7620 C   0  0  0  0  0  3  0  0  0  0  0  0
  -26.0590  -26.9590   19.5730 C   0  0  0  0  0  3  0  0  0  0  0  0
  -24.8730  -27.7190   19.5720 C   0  0  0  0  0  3  0  0  0  0  0  0
  -23.5990  -29.8440   20.2280 C   0  0  0  0  0  2  0  0  0  0  0  0
  -24.6540  -31.1310   22.1420 N   0  0  0  0  0  0  0  0  0  0  0  0
  -23.5150  -32.2140   23.7780 O   0  0  0  0  0  0  0  0  0  0  0  0
  -22.7420  -29.5110   22.5740 C   0  0  0  0  0  0  0  0  0  0  0  0
  -21.4190  -29.3200   22.4430 N   0  0  0  0  0  0  0  0  0  0  0  0
  -23.4260  -28.8980   23.3970 O   0  0  0  0  0  0  0  0  0  0  0  0
  -20.9280  -29.8640   21.7490 H   0  0  0  0  0  0  0  0  0  0  0  0
  -18.0520  -28.1040   22.9390 C   0  0  0  0  0  0  0  0  0  0  0  0
  -20.6070  -28.3810   23.2170 C   0  0  0  0  0  3  0  0  0  0  0  0
  -20.7210  -26.9480   22.6480 C   0  0  0  0  0  2  0  0  0  0  0  0
  -19.6250  -26.6120   21.6330 C   0  0  0  0  0  2  0  0  0  0  0  0
  -18.2410  -26.7520   22.2730 C   0  0  0  0  0  2  0  0  0  0  0  0
  -19.1640  -28.8760   23.3680 C   0  0  0  0  0  0  0  0  0  0  0  0
  -18.9350  -30.1440   23.9470 C   0  0  0  0  0  3  0  0  0  0  0  0
  -17.6270  -30.6370   24.1070 C   0  0  0  0  0  3  0  0  0  0  0  0
  -16.5280  -29.8610   23.6960 C   0  0  0  0  0  3  0  0  0  0  0  0
  -16.7420  -28.5970   23.1170 C   0  0  0  0  0  3  0  0  0  0  0  0
  -25.8830  -32.5750   23.8540 C   0  0  0  0  0  3  0  0  0  0  0  0
  -25.5720  -33.9740   24.1780 N   0  0  0  0  0  0  0  0  0  0  0  0
  -25.9090  -35.0250   23.4200 C   0  0  0  0  0  0  0  0  0  0  0  0
  -26.5850  -34.9210   22.3930 O   0  0  0  0  0  0  0  0  0  0  0  0
  -24.9710  -34.1290   24.9750 H   0  0  0  0  0  0  0  0  0  0  0  0
  -24.1910  -36.8230   23.0400 C   0  0  0  0  0  1  0  0  0  0  0  0
  -25.4170  -36.4140   23.8720 C   0  0  0  0  0  3  0  0  0  0  0  0
  -27.5380  -37.2930   24.7410 C   0  0  0  0  0  1  0  0  0  0  0  0
  -26.4530  -37.4650   23.7780 N   0  0  0  0  0  0  0  0  0  0  0  0
  -26.0480  -38.3860   23.9170 H   0  0  0  0  0  0  0  0  0  0  0  0
  -26.4080  -31.8120   25.1310 C   0  0  1  0  0  0  0  0  0  0  0  0
  -25.3170  -31.5730   26.2020 C   0  0  0  0  0  1  0  0  0  0  0  0
  -26.9970  -30.4360   24.7450 C   0  0  0  0  0  1  0  0  0  0  0  0
  -27.5560  -32.6140   25.7870 C   0  0  0  0  0  1  0  0  0  0  0  0
  1  2  2  0
  2  3  1  0
  2  4  1  0
  5  8  1  0
  7 10  2  0
  8  6  2  0
  8  1  1  0
  9  7  1  0
  9  5  2  0
 10 19  1  0
 10  6  1  0
 11 19  1  0
 12 17  1  0
 13 14  1  0
 13 12  1  0
 15 14  1  0
 15 24  1  0
 15 16  1  0
 17 11  1  0
 17 16  1  0
 18 11  2  0
 19 20  1  0
 21 22  2  0
 22 41  1  0
 23 22  1  0
 23 26  1  0
 24 21  1  0
 24 25  1  0
 25 23  2  0
 26 27  1  0
 27 28  2  0
 29 32  1  0
 29 28  1  0
 30 29  2  0
 31 30  1  0
 31 26  2  0
 32 33  1  0
 33 34  1  0
 34 35  2  0
 36 35  1  0
 36 40  1  0
 37 36  2  0
 38 33  2  0
 38 37  1  0
 39 38  1  0
 41 42  1  0
 42 45  1  0
 42 44  1  0
 43 41  2  0
 46 47  1  0
 46 21  1  0
 48 46  1  0
 49  9  1  0
 50 49  1  0
 51 49  1  0
 53 52  2  0
 53  1  1  0
 54 52  1  0
 55 58  1  0
 55 54  1  0
 56 55  1  0
 57 55  1  0
 61 59  1  6
 61 54  1  0
 61 60  1  0
 61 62  1  0
 63 74  2  0
 64 62  1  0
 64 69  1  0
 65 73  1  0
 65 75  1  0
 66 72  1  0
 66 68  1  0
 67 73  1  0
 68 67  1  0
 69 68  2  0
 70 64  2  0
 71 70  1  0
 71 66  2  0
 72 65  1  0
 73 63  1  0
 75 77  2  0
 76 75  1  0
 78 76  1  0
 79 88  2  0
 79 84  1  0
 80 76  1  0
 80 84  1  0
 81 80  1  0
 82 83  1  0
 82 81  1  0
 83 79  1  0
 84 85  2  0
 85 86  1  0
 87 86  2  0
 88 87  1  0
 89 63  1  0
 89 90  1  0
 89 99  1  0
 90 93  1  0
 91 95  1  0
 91 90  1  0
 92 91  2  0
 95 94  1  0
 97 95  1  0
 97 98  1  0
 97 96  1  0
 99102  1  1
 99100  1  0
101 99  1  0
M  ISO  4  11 100  19 100  61 101  62 101
M  END
>  <TORSDO>  (23) 
F 22

>  <SCORE>  (23) 
-13.813

>  <name>  (23) 
22

>  <ligand_id>  (23) 
22

>  <original_smiles>  (23) 
[H]C(=NC(c1c([H])c(N([H])[H])c([H])c(N([H])C(=O)N2C([H])([H])C([H])([H])C([H])([H])C([H])(n3nc(-c4c([H])c([H])c(Oc5c([H])c([H])c(F)c([H])c5F)c([H])c4[H])c(C(=O)N([H])[H])c3N([H])[H])C2([H])[H])c1[H])=[N+]([H])[H])C([H])(C(Oc1c([H])c([H])c2c(c1[H])C([H])([H])N(C(=O)C([H])(N([H])C(=O)C([H])(N([H])C([H])([H])[H])C([H])([H])[H])C(C([H])([H])[H])(C([H])([H])[H])C([H])([H])[H])C([H])(C(=O)N([H])C1([H])c3c([H])c([H])c([H])c([H])c3C([H])([H])C([H])([H])C1([H])[H])C2([H])[H])(C([H])([H])[H])C([H])([H])[H])[N+]([H])([H])[H]

>  <smiles>  (23) 
[H]C(=NC(c1c([H])c(N([H])[H])c([H])c(N([H])C(=O)N2C([H])([H])C([H])([H])C([H])([H])C([H])(n3nc(-c4c([H])c([H])c(Oc5c([H])c([H])c(F)c([H])c5F)c([H])c4[H])c(C(=O)N([H])[H])c3N([H])[H])C2([H])[H])c1[H])=[N+]([H])[H])C([H])(C(Oc1c([H])c([H])c2c(c1[H])C([H])([H])N(C(=O)C([H])(N([H])C(=O)C([H])(N([H])C([H])([H])[H])C([H])([H])[H])C(C([H])([H])[H])(C([H])([H])[H])C([H])([H])[H])C([H])(C(=O)N([H])C1([H])c3c([H])c([H])c([H])c([H])c3C([H])([H])C([H])([H])C1([H])[H])C2([H])[H])(C([H])([H])[H])C([H])([H])[H])[N+]([H])([H])[H]

$$$$
23:0:0
     RDKit          3D

 96105  0  0  1  0  0  0  0  0999 V2000
  -28.6690  -24.2370   20.8840 C   0  0  0  0  0  0  0  0  0  0  0  0
  -29.6660  -23.3040   20.6510 C   0  0  0  0  0  0  0  0  0  0  0  0
  -29.9610  -20.8430   20.0500 C   0  0  0  0  0  3  0  0  0  0  0  0
  -27.2310  -23.7830   21.1960 C   0  0  0  0  0  2  0  0  0  0  0  0
  -27.0650  -22.2600   21.3960 C   0  0  0  0  0  2  0  0  0  0  0  0
  -28.3890  -21.6130   21.8220 C   0  0  0  0  0  2  0  0  0  0  0  0
  -31.1340  -23.6810   20.4500 C   0  0  0  0  0  1  0  0  0  0  0  0
  -29.3930  -21.8970   20.7770 N   0  0  0  0  0  0  0  0  0  0  0  0
  -30.8100  -21.1190   19.0480 N   0  0  0  0  0  0  0  0  0  0  0  0
  -31.1760  -20.3850   18.4600 H   0  0  0  0  0  0  0  0  0  0  0  0
  -30.9890  -22.0740   18.7760 H   0  0  0  0  0  0  0  0  0  0  0  0
  -30.5690  -18.2690   20.4750 C   0  0  0  0  0  3  0  0  0  0  0  0
  -28.3630  -18.9150   20.0270 C   0  0  0  0  0  3  0  0  0  0  0  0
  -29.6380  -19.3710   20.2170 C   0  0  0  0  0  0  0  0  0  0  0  0
  -29.9550  -17.0120   20.5780 C   0  0  0  0  0  0  0  0  0  0  0  0
  -28.2380  -17.2120   20.3330 S   0  0  0  0  0  0  0  0  0  0  0  0
  -31.0040  -14.7570   20.2440 C   0  0  0  0  0  0  0  0  0  0  0  0
  -30.7640  -12.4830   19.2470 C   0  0  0  0  0  2  0  0  0  0  0  0
  -29.8210  -12.5660   18.0260 C   0  0  0  0  0  2  0  0  0  0  0  0
  -28.3480  -12.4400   18.4610 C   0  0  0  0  0  2  0  0  0  0  0  0
  -27.9980  -13.3580   19.6630 C   0  0  0  0  0  3  0  0  0  0  0  0
  -29.0560  -13.2300   20.7850 C   0  0  0  0  0  2  0  0  0  0  0  0
  -30.3800  -13.5360   20.2090 N   0  0  0  0  0  0  0  0  0  0  0  0
  -32.0910  -14.9510   19.6880 O   0  0  0  0  0  0  0  0  0  0  0  0
  -30.3590  -15.7370   20.9350 N   0  0  0  0  0  0  0  0  0  0  0  0
  -29.6680  -15.2920   21.5230 H   0  0  0  0  0  0  0  0  0  0  0  0
  -25.6170  -14.0090   20.3870 C   0  0  0  0  0  0  0  0  0  0  0  0
  -24.5400  -13.2610   20.7740 C   0  0  0  0  0  0  0  0  0  0  0  0
  -24.9750  -11.9010   20.7390 C   0  0  0  0  0  0  0  0  0  0  0  0
  -26.6440  -13.1080   20.1540 N   0  0  0  0  0  0  0  0  0  0  0  0
  -26.2610  -11.8340   20.4220 N   0  0  0  0  0  0  0  0  0  0  0  0
  -24.2220  -10.6560   20.9330 C   0  0  0  0  0  0  0  0  0  0  0  0
  -24.6090   -9.6960   21.8950 C   0  0  0  0  0  3  0  0  0  0  0  0
  -23.8520   -8.5180   22.0740 C   0  0  0  0  0  3  0  0  0  0  0  0
  -22.6950   -8.2910   21.2910 C   0  0  0  0  0  0  0  0  0  0  0  0
  -22.3280   -9.2380   20.3190 C   0  0  0  0  0  3  0  0  0  0  0  0
  -23.0850  -10.4070   20.1380 C   0  0  0  0  0  3  0  0  0  0  0  0
  -21.9140   -7.1660   21.3790 O   0  0  0  0  0  0  0  0  0  0  0  0
  -21.7780   -6.4750   22.5570 C   0  0  0  0  0  0  0  0  0  0  0  0
  -21.2850   -7.0880   23.7270 C   0  0  0  0  0  3  0  0  0  0  0  0
  -21.0970   -6.3250   24.8970 C   0  0  0  0  0  3  0  0  0  0  0  0
  -21.3940   -4.9480   24.8940 C   0  0  0  0  0  0  0  0  0  0  0  0
  -21.8790   -4.3350   23.7260 C   0  0  0  0  0  3  0  0  0  0  0  0
  -22.0690   -5.0960   22.5600 C   0  0  0  0  0  0  0  0  0  0  0  0
  -22.5170   -4.4960   21.4310 F   0  0  0  0  0  0  0  0  0  0  0  0
  -21.2060   -4.2120   26.0150 F   0  0  0  0  0  0  0  0  0  0  0  0
  -23.1580  -13.7700   21.0620 C   0  0  0  0  0  0  0  0  0  0  0  0
  -22.4290  -13.0990   21.9460 N   0  0  0  0  0  0  0  0  0  0  0  0
  -22.7360  -14.8010   20.5400 O   0  0  0  0  0  0  0  0  0  0  0  0
  -22.7800  -12.2630   22.3890 H   0  0  0  0  0  0  0  0  0  0  0  0
  -21.5020  -13.4260   22.1830 H   0  0  0  0  0  0  0  0  0  0  0  0
  -25.7920  -15.3720   20.1910 N   0  0  0  0  0  0  0  0  0  0  0  0
  -25.0440  -16.0430   20.3240 H   0  0  0  0  0  0  0  0  0  0  0  0
  -26.6490  -15.7980   19.8670 H   0  0  0  0  0  0  0  0  0  0  0  0
  -28.8600  -25.7860   21.0940 C   0  0  0  0  0  2  0  0  0  0  0  0
  -28.4870  -26.6940   20.0200 O   0  0  0  0  0  0  0  0  0  0  0  0
  -24.6670  -31.9350   23.2210 C   0  0  0  0  0  0  0  0  0  0  0  0
  -27.3480  -27.4820   20.1360 C   0  0  0  0  0  0  0  0  0  0  0  0
  -23.4810  -30.5360   21.5630 C   0  0  0  0  0  3  0  0  0  0  0  0
  -24.9570  -29.0240   20.1250 C   0  0  0  0  0  0  0  0  0  0  0  0
  -26.0100  -30.9080   21.3810 C   0  0  0  0  0  2  0  0  0  0  0  0
  -26.1120  -29.5340   20.7360 C   0  0  0  0  0  0  0  0  0  0  0  0
  -27.3120  -28.7710   20.7400 C   0  0  0  0  0  3  0  0  0  0  0  0
  -26.1790  -27.0090   19.5120 C   0  0  0  0  0  3  0  0  0  0  0  0
  -24.9900  -27.7640   19.5070 C   0  0  0  0  0  3  0  0  0  0  0  0
  -23.7060  -29.8780   20.1750 C   0  0  0  0  0  2  0  0  0  0  0  0
  -24.7370  -31.1450   22.1110 N   0  0  0  0  0  0  0  0  0  0  0  0
  -23.5810  -32.1890   23.7610 O   0  0  0  0  0  0  0  0  0  0  0  0
  -22.8390  -29.4980   22.5140 C   0  0  0  0  0  0  0  0  0  0  0  0
  -21.5130  -29.3110   22.3940 N   0  0  0  0  0  0  0  0  0  0  0  0
  -23.5290  -28.8660   23.3160 O   0  0  0  0  0  0  0  0  0  0  0  0
  -21.0150  -29.8780   21.7230 H   0  0  0  0  0  0  0  0  0  0  0  0
  -18.1450  -28.0990   22.9010 C   0  0  0  0  0  0  0  0  0  0  0  0
  -20.7050  -28.3560   23.1540 C   0  0  0  0  0  3  0  0  0  0  0  0
  -20.8030  -26.9370   22.5450 C   0  0  0  0  0  2  0  0  0  0  0  0
  -19.6910  -26.6330   21.5360 C   0  0  0  0  0  2  0  0  0  0  0  0
  -18.3160  -26.7640   22.1970 C   0  0  0  0  0  2  0  0  0  0  0  0
  -19.2670  -28.8530   23.3360 C   0  0  0  0  0  0  0  0  0  0  0  0
  -19.0520  -30.1020   23.9570 C   0  0  0  0  0  3  0  0  0  0  0  0
  -17.7490  -30.5970   24.1470 C   0  0  0  0  0  3  0  0  0  0  0  0
  -16.6400  -29.8380   23.7330 C   0  0  0  0  0  3  0  0  0  0  0  0
  -16.8400  -28.5920   23.1120 C   0  0  0  0  0  3  0  0  0  0  0  0
  -25.9430  -32.5760   23.8490 C   0  0  0  0  0  3  0  0  0  0  0  0
  -25.6200  -33.9670   24.1890 N   0  0  0  0  0  0  0  0  0  0  0  0
  -25.9350  -35.0290   23.4370 C   0  0  0  0  0  0  0  0  0  0  0  0
  -26.5990  -34.9420   22.4010 O   0  0  0  0  0  0  0  0  0  0  0  0
  -25.0310  -34.1110   24.9950 H   0  0  0  0  0  0  0  0  0  0  0  0
  -24.1860  -36.8030   23.0980 C   0  0  0  0  0  1  0  0  0  0  0  0
  -25.4300  -36.4050   23.9090 C   0  0  0  0  0  3  0  0  0  0  0  0
  -27.5500  -37.3110   24.7480 C   0  0  0  0  0  1  0  0  0  0  0  0
  -26.4470  -37.4720   23.8060 N   0  0  0  0  0  0  0  0  0  0  0  0
  -26.0270  -38.3860   23.9560 H   0  0  0  0  0  0  0  0  0  0  0  0
  -26.4700  -31.7970   25.1170 C   0  0  1  0  0  0  0  0  0  0  0  0
  -25.3760  -31.5390   26.1790 C   0  0  0  0  0  1  0  0  0  0  0  0
  -27.0710  -30.4320   24.7100 C   0  0  0  0  0  1  0  0  0  0  0  0
  -27.6030  -32.6030   25.7920 C   0  0  0  0  0  1  0  0  0  0  0  0
  1 55  1  0
  1  4  1  0
  2  8  1  0
  2  1  2  0
  3  9  1  0
  3 14  1  0
  3  8  1  0
  4  5  1  0
  5  6  1  0
  7  2  1  0
  8  6  1  0
 10  9  1  0
 11  9  1  0
 12 15  2  0
 13 14  2  0
 13 16  1  0
 14 12  1  0
 15 25  1  0
 16 15  1  0
 17 25  1  0
 18 23  1  0
 19 20  1  0
 19 18  1  0
 21 20  1  0
 21 30  1  0
 21 22  1  0
 23 17  1  0
 23 22  1  0
 24 17  2  0
 25 26  1  0
 27 28  2  0
 28 47  1  0
 29 28  1  0
 29 32  1  0
 30 27  1  0
 30 31  1  0
 31 29  2  0
 32 33  1  0
 33 34  2  0
 35 38  1  0
 35 34  1  0
 36 35  2  0
 37 36  1  0
 37 32  2  0
 38 39  1  0
 39 44  2  0
 39 40  1  0
 40 41  2  0
 42 41  1  0
 42 46  1  0
 43 42  2  0
 44 43  1  0
 45 44  1  0
 47 48  1  0
 48 51  1  0
 48 50  1  0
 49 47  2  0
 52 53  1  0
 52 27  1  0
 54 52  1  0
 56 58  1  0
 56 55  1  0
 57 68  2  0
 58 63  1  0
 59 67  1  0
 59 69  1  0
 60 66  1  0
 60 62  1  0
 61 67  1  0
 62 63  2  0
 62 61  1  0
 64 58  2  0
 65 64  1  0
 65 60  2  0
 66 59  1  0
 67 57  1  0
 69 71  2  0
 70 69  1  0
 72 70  1  0
 73 82  2  0
 73 78  1  0
 74 70  1  0
 74 78  1  0
 75 74  1  0
 76 77  1  0
 76 75  1  0
 77 73  1  0
 78 79  2  0
 79 80  1  0
 81 80  2  0
 82 81  1  0
 83 57  1  0
 83 84  1  0
 83 93  1  0
 84 87  1  0
 85 89  1  0
 85 84  1  0
 86 85  2  0
 89 88  1  0
 91 89  1  0
 91 92  1  0
 91 90  1  0
 93 96  1  1
 93 94  1  0
 95 93  1  0
M  ISO  4  17 100  25 100  55 101  56 101
M  END
>  <TORSDO>  (24) 
F 18

>  <SCORE>  (24) 
-14.547

>  <name>  (24) 
23

>  <ligand_id>  (24) 
23

>  <original_smiles>  (24) 
[H]c1sc(N([H])C(=O)N2C([H])([H])C([H])([H])C([H])([H])C([H])(n3nc(-c4c([H])c([H])c(Oc5c([H])c([H])c(F)c([H])c5F)c([H])c4[H])c(C(=O)N([H])[H])c3N([H])[H])C2([H])[H])c([H])c1C(N1C(C([H])([H])[H])=C(C([H])([H])Oc2c([H])c([H])c3c(c2[H])C([H])([H])N(C(=O)C([H])(N([H])C(=O)C([H])(N([H])C([H])([H])[H])C([H])([H])[H])C(C([H])([H])[H])(C([H])([H])[H])C([H])([H])[H])C([H])(C(=O)N([H])C2([H])c4c([H])c([H])c([H])c([H])c4C([H])([H])C([H])([H])C2([H])[H])C3([H])[H])C([H])([H])C([H])([H])C1([H])[H])=[N+]([H])[H]

>  <smiles>  (24) 
[H]c1sc(N([H])C(=O)N2C([H])([H])C([H])([H])C([H])([H])C([H])(n3nc(-c4c([H])c([H])c(Oc5c([H])c([H])c(F)c([H])c5F)c([H])c4[H])c(C(=O)N([H])[H])c3N([H])[H])C2([H])[H])c([H])c1C(N1C(C([H])([H])[H])=C(C([H])([H])Oc2c([H])c([H])c3c(c2[H])C([H])([H])N(C(=O)C([H])(N([H])C(=O)C([H])(N([H])C([H])([H])[H])C([H])([H])[H])C(C([H])([H])[H])(C([H])([H])[H])C([H])([H])[H])C([H])(C(=O)N([H])C2([H])c4c([H])c([H])c([H])c([H])c4C([H])([H])C([H])([H])C2([H])[H])C3([H])[H])C([H])([H])C([H])([H])C1([H])[H])=[N+]([H])[H]

$$$$
24:0:0
     RDKit          3D

 98107  0  0  1  0  0  0  0  0999 V2000
  -29.7060  -21.2350   21.0480 C   0  0  0  0  0  3  0  0  0  0  0  0
  -29.9080  -25.0010   21.2810 C   0  0  0  0  0  2  0  0  0  0  0  0
  -30.1860  -23.5700   21.7530 C   0  0  0  0  0  2  0  0  0  0  0  0
  -28.3900  -23.5660   20.2070 C   0  0  0  0  0  2  0  0  0  0  0  0
  -28.4350  -25.0610   20.8890 C   0  0  1  0  0  0  0  0  0  0  0  0
  -27.5640  -25.1260   22.1650 C   0  0  0  0  0  1  0  0  0  0  0  0
  -29.3620  -22.6210   20.9570 N   0  0  0  0  0  0  0  0  0  0  0  0
  -30.6550  -20.9590   21.9440 N   0  0  0  0  0  0  0  0  0  0  0  0
  -31.0340  -20.0250   21.9490 H   0  0  0  0  0  0  0  0  0  0  0  0
  -31.0350  -21.6410   22.5740 H   0  0  0  0  0  0  0  0  0  0  0  0
  -28.8910  -19.9520   19.0020 C   0  0  0  0  0  3  0  0  0  0  0  0
  -29.6090  -18.5760   20.8850 C   0  0  0  0  0  3  0  0  0  0  0  0
  -29.0550  -17.4860   18.8040 C   0  0  0  0  0  3  0  0  0  0  0  0
  -29.3350  -19.9180   20.3360 C   0  0  0  0  0  0  0  0  0  0  0  0
  -28.7400  -18.7570   18.2590 C   0  0  0  0  0  0  0  0  0  0  0  0
  -29.5120  -17.3230   20.1370 C   0  0  0  0  0  0  0  0  0  0  0  0
  -30.4800  -14.8430   20.3300 C   0  0  0  0  0  0  0  0  0  0  0  0
  -30.3620  -12.5330   19.3540 C   0  0  0  0  0  2  0  0  0  0  0  0
  -29.4210  -12.5810   18.1310 C   0  0  0  0  0  2  0  0  0  0  0  0
  -27.9490  -12.3980   18.5570 C   0  0  0  0  0  2  0  0  0  0  0  0
  -27.5690  -13.2810   19.7790 C   0  0  0  0  0  3  0  0  0  0  0  0
  -28.6300  -13.1910   20.8970 C   0  0  0  0  0  2  0  0  0  0  0  0
  -29.9180  -13.5830   20.3050 N   0  0  0  0  0  0  0  0  0  0  0  0
  -31.6520  -14.9890   19.9590 O   0  0  0  0  0  0  0  0  0  0  0  0
  -29.6630  -15.9260   20.6760 N   0  0  0  0  0  0  0  0  0  0  0  0
  -28.8160  -15.5880   21.1010 H   0  0  0  0  0  0  0  0  0  0  0  0
  -25.1800  -13.8570   20.5180 C   0  0  0  0  0  0  0  0  0  0  0  0
  -24.1150  -13.0820   20.8830 C   0  0  0  0  0  0  0  0  0  0  0  0
  -24.5850  -11.7340   20.8500 C   0  0  0  0  0  0  0  0  0  0  0  0
  -26.2270  -12.9860   20.2710 N   0  0  0  0  0  0  0  0  0  0  0  0
  -25.8770  -11.7030   20.5380 N   0  0  0  0  0  0  0  0  0  0  0  0
  -23.8640  -10.4750   21.0490 C   0  0  0  0  0  0  0  0  0  0  0  0
  -24.3110   -9.5040   21.9710 C   0  0  0  0  0  3  0  0  0  0  0  0
  -23.5880   -8.3070   22.1550 C   0  0  0  0  0  3  0  0  0  0  0  0
  -22.4000   -8.0760   21.4220 C   0  0  0  0  0  0  0  0  0  0  0  0
  -21.9700   -9.0400   20.4890 C   0  0  0  0  0  3  0  0  0  0  0  0
  -22.6950  -10.2270   20.3040 C   0  0  0  0  0  3  0  0  0  0  0  0
  -21.6390   -6.9340   21.5200 O   0  0  0  0  0  0  0  0  0  0  0  0
  -21.6260   -6.1780   22.6630 C   0  0  0  0  0  0  0  0  0  0  0  0
  -21.2550   -6.7190   23.9130 C   0  0  0  0  0  3  0  0  0  0  0  0
  -21.1860   -5.8890   25.0460 C   0  0  0  0  0  3  0  0  0  0  0  0
  -21.4780   -4.5170   24.9340 C   0  0  0  0  0  0  0  0  0  0  0  0
  -21.8460   -3.9750   23.6890 C   0  0  0  0  0  3  0  0  0  0  0  0
  -21.9170   -4.8030   22.5560 C   0  0  0  0  0  0  0  0  0  0  0  0
  -22.2500   -4.2730   21.3560 F   0  0  0  0  0  0  0  0  0  0  0  0
  -21.4050   -3.7150   26.0230 F   0  0  0  0  0  0  0  0  0  0  0  0
  -22.7200  -13.5650   21.1580 C   0  0  0  0  0  0  0  0  0  0  0  0
  -21.9940  -12.8770   22.0310 N   0  0  0  0  0  0  0  0  0  0  0  0
  -22.2890  -14.5920   20.6350 O   0  0  0  0  0  0  0  0  0  0  0  0
  -22.3540  -12.0500   22.4800 H   0  0  0  0  0  0  0  0  0  0  0  0
  -21.0580  -13.1800   22.2580 H   0  0  0  0  0  0  0  0  0  0  0  0
  -25.3370  -15.2320   20.3750 N   0  0  0  0  0  0  0  0  0  0  0  0
  -24.5870  -15.8230   20.7180 H   0  0  0  0  0  0  0  0  0  0  0  0
  -26.2500  -15.6670   20.4430 H   0  0  0  0  0  0  0  0  0  0  0  0
  -28.2760  -18.8510   16.9460 N   0  0  0  0  0  0  0  0  0  0  0  0
  -27.8070  -19.7070   16.6690 H   0  0  0  0  0  0  0  0  0  0  0  0
  -27.8170  -18.0330   16.5520 H   0  0  0  0  0  0  0  0  0  0  0  0
  -28.3650  -26.4110   20.1950 O   0  0  0  0  0  0  0  0  0  0  0  0
  -24.6250  -31.8870   23.2380 C   0  0  0  0  0  0  0  0  0  0  0  0
  -27.2420  -27.2720   20.2270 C   0  0  0  0  0  0  0  0  0  0  0  0
  -23.4260  -30.4810   21.5970 C   0  0  0  0  0  3  0  0  0  0  0  0
  -24.8850  -28.9170   20.1850 C   0  0  0  0  0  0  0  0  0  0  0  0
  -25.9700  -30.7910   21.4270 C   0  0  0  0  0  2  0  0  0  0  0  0
  -26.0540  -29.4050   20.7840 C   0  0  0  0  0  0  0  0  0  0  0  0
  -27.2380  -28.5960   20.7880 C   0  0  0  0  0  3  0  0  0  0  0  0
  -26.0530  -26.8450   19.6060 C   0  0  0  0  0  3  0  0  0  0  0  0
  -24.8900  -27.6440   19.5850 C   0  0  0  0  0  3  0  0  0  0  0  0
  -23.6490  -29.7960   20.2210 C   0  0  0  0  0  2  0  0  0  0  0  0
  -24.6910  -31.0740   22.1420 N   0  0  0  0  0  0  0  0  0  0  0  0
  -23.5390  -32.1670   23.7710 O   0  0  0  0  0  0  0  0  0  0  0  0
  -22.7580  -29.4720   22.5610 C   0  0  0  0  0  0  0  0  0  0  0  0
  -21.4320  -29.3040   22.4390 N   0  0  0  0  0  0  0  0  0  0  0  0
  -23.4350  -28.8410   23.3790 O   0  0  0  0  0  0  0  0  0  0  0  0
  -20.9430  -29.8680   21.7590 H   0  0  0  0  0  0  0  0  0  0  0  0
  -18.0500  -28.1180   22.9480 C   0  0  0  0  0  0  0  0  0  0  0  0
  -20.6090  -28.3680   23.2090 C   0  0  0  0  0  3  0  0  0  0  0  0
  -20.7040  -26.9350   22.6340 C   0  0  0  0  0  2  0  0  0  0  0  0
  -19.5980  -26.6210   21.6200 C   0  0  0  0  0  2  0  0  0  0  0  0
  -18.2190  -26.7700   22.2670 C   0  0  0  0  0  2  0  0  0  0  0  0
  -19.1720  -28.8760   23.3760 C   0  0  0  0  0  0  0  0  0  0  0  0
  -18.9600  -30.1400   23.9720 C   0  0  0  0  0  3  0  0  0  0  0  0
  -17.6570  -30.6470   24.1410 C   0  0  0  0  0  3  0  0  0  0  0  0
  -16.5510  -29.8860   23.7280 C   0  0  0  0  0  3  0  0  0  0  0  0
  -16.7450  -28.6230   23.1380 C   0  0  0  0  0  3  0  0  0  0  0  0
  -25.9030  -32.5210   23.8630 C   0  0  0  0  0  3  0  0  0  0  0  0
  -25.5920  -33.9200   24.1930 N   0  0  0  0  0  0  0  0  0  0  0  0
  -25.9220  -34.9720   23.4320 C   0  0  0  0  0  0  0  0  0  0  0  0
  -26.5900  -34.8700   22.4020 O   0  0  0  0  0  0  0  0  0  0  0  0
  -24.9970  -34.0760   24.9940 H   0  0  0  0  0  0  0  0  0  0  0  0
  -24.1880  -36.7670   23.0900 C   0  0  0  0  0  1  0  0  0  0  0  0
  -25.4350  -36.3630   23.8930 C   0  0  0  0  0  3  0  0  0  0  0  0
  -27.5750  -37.2570   24.7020 C   0  0  0  0  0  1  0  0  0  0  0  0
  -26.4630  -37.4180   23.7680 N   0  0  0  0  0  0  0  0  0  0  0  0
  -26.0580  -38.3390   23.9160 H   0  0  0  0  0  0  0  0  0  0  0  0
  -26.4150  -31.7510   25.1450 C   0  0  1  0  0  0  0  0  0  0  0  0
  -25.3210  -31.5280   26.2150 C   0  0  0  0  0  1  0  0  0  0  0  0
  -26.9890  -30.3670   24.7610 C   0  0  0  0  0  1  0  0  0  0  0  0
  -27.5680  -32.5410   25.8070 C   0  0  0  0  0  1  0  0  0  0  0  0
  1  8  1  0
  2  3  1  0
  4  5  1  0
  4  7  1  0
  5  2  1  0
  5  6  1  1
  7  1  1  0
  7  3  1  0
  8  9  1  0
  8 10  1  0
 11 14  1  0
 13 16  2  0
 14 12  2  0
 14  1  1  0
 15 13  1  0
 15 11  2  0
 16 25  1  0
 16 12  1  0
 17 25  1  0
 18 23  1  0
 19 20  1  0
 19 18  1  0
 21 20  1  0
 21 30  1  0
 21 22  1  0
 23 17  1  0
 23 22  1  0
 24 17  2  0
 25 26  1  0
 27 28  2  0
 28 47  1  0
 29 28  1  0
 29 32  1  0
 30 27  1  0
 30 31  1  0
 31 29  2  0
 32 33  1  0
 33 34  2  0
 35 38  1  0
 35 34  1  0
 36 35  2  0
 37 36  1  0
 37 32  2  0
 38 39  1  0
 39 40  1  0
 40 41  2  0
 42 41  1  0
 42 46  1  0
 43 42  2  0
 44 39  2  0
 44 43  1  0
 45 44  1  0
 47 48  1  0
 48 51  1  0
 48 50  1  0
 49 47  2  0
 52 54  1  0
 52 27  1  0
 52 53  1  0
 55 15  1  0
 56 55  1  0
 57 55  1  0
 58 60  1  0
 58  5  1  0
 59 70  2  0
 60 65  1  0
 61 69  1  0
 61 71  1  0
 62 68  1  0
 62 64  1  0
 63 69  1  0
 64 65  2  0
 64 63  1  0
 66 60  2  0
 67 66  1  0
 67 62  2  0
 68 61  1  0
 69 59  1  0
 71 73  2  0
 72 71  1  0
 74 72  1  0
 75 84  2  0
 75 80  1  0
 76 72  1  0
 76 80  1  0
 77 76  1  0
 78 79  1  0
 78 77  1  0
 79 75  1  0
 80 81  2  0
 81 82  1  0
 83 82  2  0
 84 83  1  0
 85 59  1  0
 85 86  1  0
 85 95  1  0
 86 89  1  0
 87 91  1  0
 87 86  1  0
 88 87  2  0
 91 90  1  0
 93 91  1  0
 93 94  1  0
 93 92  1  0
 95 98  1  1
 95 96  1  0
 97 95  1  0
M  ISO  4   5 101  17 100  25 100  58 101
M  END
>  <TORSDO>  (25) 
F 18

>  <SCORE>  (25) 
-15.408

>  <name>  (25) 
24

>  <ligand_id>  (25) 
24

>  <original_smiles>  (25) 
[H]c1c([H])c([H])c2c(c1[H])C([H])([H])C([H])([H])C([H])([H])C2([H])N([H])C(=O)C1([H])N(C(=O)C([H])(N([H])C(=O)C([H])(N([H])C([H])([H])[H])C([H])([H])[H])C(C([H])([H])[H])(C([H])([H])[H])C([H])([H])[H])C([H])([H])c2c([H])c(OC3(C([H])([H])[H])C([H])([H])N(C(c4c([H])c(N([H])[H])c([H])c(N([H])C(=O)N5C([H])([H])C([H])([H])C([H])([H])C([H])(n6nc(-c7c([H])c([H])c(Oc8c([H])c([H])c(F)c([H])c8F)c([H])c7[H])c(C(=O)N([H])[H])c6N([H])[H])C5([H])[H])c4[H])=[N+]([H])[H])C([H])([H])C3([H])[H])c([H])c([H])c2C1([H])[H]

>  <smiles>  (25) 
[H]c1c([H])c([H])c2c(c1[H])C([H])([H])C([H])([H])C([H])([H])C2([H])N([H])C(=O)C1([H])N(C(=O)C([H])(N([H])C(=O)C([H])(N([H])C([H])([H])[H])C([H])([H])[H])C(C([H])([H])[H])(C([H])([H])[H])C([H])([H])[H])C([H])([H])c2c([H])c(OC3(C([H])([H])[H])C([H])([H])N(C(c4c([H])c(N([H])[H])c([H])c(N([H])C(=O)N5C([H])([H])C([H])([H])C([H])([H])C([H])(n6nc(-c7c([H])c([H])c(Oc8c([H])c([H])c(F)c([H])c8F)c([H])c7[H])c(C(=O)N([H])[H])c6N([H])[H])C5([H])[H])c4[H])=[N+]([H])[H])C([H])([H])C3([H])[H])c([H])c([H])c2C1([H])[H]

$$$$
25:0:0
     RDKit          3D

 93101  0  0  1  0  0  0  0  0999 V2000
  -28.5180  -23.7000   20.0220 C   0  0  0  0  0  0  0  0  0  0  0  0
  -28.9770  -22.5170   20.6160 N   0  0  0  0  0  0  0  0  0  0  0  0
  -28.1520  -23.7140   18.8440 O   0  0  0  0  0  0  0  0  0  0  0  0
  -29.3390  -22.6780   21.5460 H   0  0  0  0  0  0  0  0  0  0  0  0
  -29.7380  -19.9880   20.8720 C   0  0  0  0  0  3  0  0  0  0  0  0
  -28.3160  -20.5620   19.1220 C   0  0  0  0  0  3  0  0  0  0  0  0
  -29.0070  -21.0770   20.1950 C   0  0  0  0  0  0  0  0  0  0  0  0
  -29.6150  -18.6870   20.3310 C   0  0  0  0  0  0  0  0  0  0  0  0
  -28.5430  -18.8080   18.9470 S   0  0  0  0  0  0  0  0  0  0  0  0
  -30.6170  -14.8490   20.3220 C   0  0  0  0  0  0  0  0  0  0  0  0
  -30.3900  -12.5550   19.3260 C   0  0  0  0  0  2  0  0  0  0  0  0
  -29.4460  -12.5720   18.1060 C   0  0  0  0  0  2  0  0  0  0  0  0
  -27.9840  -12.3890   18.5560 C   0  0  0  0  0  2  0  0  0  0  0  0
  -27.6050  -13.3000   19.7530 C   0  0  0  0  0  3  0  0  0  0  0  0
  -28.6760  -13.2780   20.8650 C   0  0  0  0  0  2  0  0  0  0  0  0
  -29.9500  -13.6410   20.2340 N   0  0  0  0  0  0  0  0  0  0  0  0
  -31.8270  -14.8470   20.0820 O   0  0  0  0  0  0  0  0  0  0  0  0
  -30.3830  -17.3470   20.5980 C   0  0  0  0  0  0  0  0  0  0  0  0
  -29.8940  -16.0490   20.4100 N   0  0  0  0  0  0  0  0  0  0  0  0
  -31.5190  -17.5130   21.0520 O   0  0  0  0  0  0  0  0  0  0  0  0
  -28.9010  -15.9780   20.2770 H   0  0  0  0  0  0  0  0  0  0  0  0
  -25.2230  -13.8720   20.5030 C   0  0  0  0  0  0  0  0  0  0  0  0
  -24.1640  -13.0920   20.8770 C   0  0  0  0  0  0  0  0  0  0  0  0
  -24.6340  -11.7430   20.8450 C   0  0  0  0  0  0  0  0  0  0  0  0
  -26.2700  -13.0000   20.2620 N   0  0  0  0  0  0  0  0  0  0  0  0
  -25.9240  -11.7140   20.5340 N   0  0  0  0  0  0  0  0  0  0  0  0
  -23.9140  -10.4780   21.0380 C   0  0  0  0  0  0  0  0  0  0  0  0
  -24.3520   -9.5130   21.9690 C   0  0  0  0  0  3  0  0  0  0  0  0
  -23.6310   -8.3120   22.1500 C   0  0  0  0  0  3  0  0  0  0  0  0
  -22.4570   -8.0700   21.3980 C   0  0  0  0  0  0  0  0  0  0  0  0
  -22.0390   -9.0230   20.4540 C   0  0  0  0  0  3  0  0  0  0  0  0
  -22.7590  -10.2140   20.2730 C   0  0  0  0  0  3  0  0  0  0  0  0
  -21.7090   -6.9200   21.4870 O   0  0  0  0  0  0  0  0  0  0  0  0
  -21.6630   -6.1790   22.6390 C   0  0  0  0  0  0  0  0  0  0  0  0
  -21.2290   -6.7310   23.8650 C   0  0  0  0  0  3  0  0  0  0  0  0
  -21.1310   -5.9150   25.0090 C   0  0  0  0  0  3  0  0  0  0  0  0
  -21.4600   -4.5490   24.9310 C   0  0  0  0  0  0  0  0  0  0  0  0
  -21.8860   -3.9950   23.7100 C   0  0  0  0  0  3  0  0  0  0  0  0
  -21.9840   -4.8080   22.5670 C   0  0  0  0  0  0  0  0  0  0  0  0
  -22.3760   -4.2670   21.3890 F   0  0  0  0  0  0  0  0  0  0  0  0
  -21.3580   -3.7620   26.0280 F   0  0  0  0  0  0  0  0  0  0  0  0
  -22.7650  -13.5620   21.1510 C   0  0  0  0  0  0  0  0  0  0  0  0
  -22.0420  -12.8620   22.0180 N   0  0  0  0  0  0  0  0  0  0  0  0
  -22.3210  -14.5860   20.6310 O   0  0  0  0  0  0  0  0  0  0  0  0
  -22.4140  -12.0350   22.4610 H   0  0  0  0  0  0  0  0  0  0  0  0
  -21.1020  -13.1590   22.2440 H   0  0  0  0  0  0  0  0  0  0  0  0
  -25.3740  -15.2440   20.3220 N   0  0  0  0  0  0  0  0  0  0  0  0
  -24.5980  -15.8870   20.4340 H   0  0  0  0  0  0  0  0  0  0  0  0
  -26.2050  -15.6890   19.9530 H   0  0  0  0  0  0  0  0  0  0  0  0
  -27.3030  -24.9620   21.8940 C   0  0  0  0  0  1  0  0  0  0  0  0
  -29.7830  -25.2710   21.6080 C   0  0  0  0  0  1  0  0  0  0  0  0
  -28.4440  -25.0910   20.8640 C   0  0  1  0  0  0  0  0  0  0  0  0
  -28.3550  -26.4110   20.1120 O   0  0  0  0  0  0  0  0  0  0  0  0
  -24.5980  -31.8790   23.2140 C   0  0  0  0  0  0  0  0  0  0  0  0
  -27.2380  -27.2850   20.1660 C   0  0  0  0  0  0  0  0  0  0  0  0
  -23.4090  -30.4790   21.5650 C   0  0  0  0  0  3  0  0  0  0  0  0
  -24.8740  -28.9230   20.1500 C   0  0  0  0  0  0  0  0  0  0  0  0
  -25.9520  -30.7910   21.3990 C   0  0  0  0  0  2  0  0  0  0  0  0
  -26.0420  -29.4080   20.7530 C   0  0  0  0  0  0  0  0  0  0  0  0
  -27.2280  -28.6010   20.7480 C   0  0  0  0  0  3  0  0  0  0  0  0
  -26.0500  -26.8690   19.5370 C   0  0  0  0  0  3  0  0  0  0  0  0
  -24.8820  -27.6600   19.5330 C   0  0  0  0  0  3  0  0  0  0  0  0
  -23.6360  -29.8020   20.1880 C   0  0  0  0  0  2  0  0  0  0  0  0
  -24.6710  -31.0700   22.1150 N   0  0  0  0  0  0  0  0  0  0  0  0
  -23.5100  -32.1540   23.7420 O   0  0  0  0  0  0  0  0  0  0  0  0
  -22.7390  -29.4620   22.5230 C   0  0  0  0  0  0  0  0  0  0  0  0
  -21.4130  -29.2890   22.3960 N   0  0  0  0  0  0  0  0  0  0  0  0
  -23.4160  -28.8300   23.3380 O   0  0  0  0  0  0  0  0  0  0  0  0
  -20.9260  -29.8530   21.7150 H   0  0  0  0  0  0  0  0  0  0  0  0
  -18.0320  -28.0970   22.8980 C   0  0  0  0  0  0  0  0  0  0  0  0
  -20.5920  -28.3480   23.1620 C   0  0  0  0  0  3  0  0  0  0  0  0
  -20.6870  -26.9210   22.5740 C   0  0  0  0  0  2  0  0  0  0  0  0
  -19.5800  -26.6100   21.5610 C   0  0  0  0  0  2  0  0  0  0  0  0
  -18.2010  -26.7540   22.2090 C   0  0  0  0  0  2  0  0  0  0  0  0
  -19.1540  -28.8530   23.3300 C   0  0  0  0  0  0  0  0  0  0  0  0
  -18.9390  -30.1110   23.9340 C   0  0  0  0  0  3  0  0  0  0  0  0
  -17.6360  -30.6130   24.1110 C   0  0  0  0  0  3  0  0  0  0  0  0
  -16.5280  -29.8530   23.6950 C   0  0  0  0  0  3  0  0  0  0  0  0
  -16.7280  -28.5970   23.0940 C   0  0  0  0  0  3  0  0  0  0  0  0
  -25.8720  -32.5170   23.8450 C   0  0  0  0  0  3  0  0  0  0  0  0
  -25.5570  -33.9150   24.1770 N   0  0  0  0  0  0  0  0  0  0  0  0
  -25.8810  -34.9720   23.4200 C   0  0  0  0  0  0  0  0  0  0  0  0
  -26.5480  -34.8730   22.3860 O   0  0  0  0  0  0  0  0  0  0  0  0
  -24.9720  -34.0670   24.9860 H   0  0  0  0  0  0  0  0  0  0  0  0
  -24.1450  -36.7580   23.0760 C   0  0  0  0  0  1  0  0  0  0  0  0
  -25.3900  -36.3570   23.8830 C   0  0  0  0  0  3  0  0  0  0  0  0
  -27.5220  -37.2490   24.7090 C   0  0  0  0  0  1  0  0  0  0  0  0
  -26.4170  -37.4140   23.7690 N   0  0  0  0  0  0  0  0  0  0  0  0
  -26.0080  -38.3320   23.9180 H   0  0  0  0  0  0  0  0  0  0  0  0
  -26.3800  -31.7460   25.1260 C   0  0  1  0  0  0  0  0  0  0  0  0
  -25.2780  -31.5090   26.1860 C   0  0  0  0  0  1  0  0  0  0  0  0
  -26.9660  -30.3680   24.7420 C   0  0  0  0  0  1  0  0  0  0  0  0
  -27.5270  -32.5410   25.7940 C   0  0  0  0  0  1  0  0  0  0  0  0
  1  2  1  0
  1 52  1  0
  2  4  1  0
  3  1  2  0
  6  7  2  0
  7  2  1  0
  7  5  1  0
  8 18  1  0
  8  5  2  0
  9  6  1  0
  9  8  1  0
 10 19  1  0
 11 16  1  0
 12 13  1  0
 12 11  1  0
 14 13  1  0
 14 25  1  0
 14 15  1  0
 16 10  1  0
 16 15  1  0
 17 10  2  0
 18 20  2  0
 19 18  1  0
 21 19  1  0
 22 23  2  0
 23 42  1  0
 24 23  1  0
 24 27  1  0
 25 22  1  0
 25 26  1  0
 26 24  2  0
 27 28  1  0
 28 29  2  0
 30 33  1  0
 30 29  1  0
 31 30  2  0
 32 31  1  0
 32 27  2  0
 33 34  1  0
 34 35  1  0
 35 36  2  0
 37 36  1  0
 37 41  1  0
 38 37  2  0
 39 34  2  0
 39 38  1  0
 40 39  1  0
 42 43  1  0
 43 46  1  0
 43 45  1  0
 44 42  2  0
 47 48  1  0
 47 22  1  0
 49 47  1  0
 52 51  1  1
 52 50  1  0
 53 55  1  0
 53 52  1  0
 54 65  2  0
 55 60  1  0
 56 64  1  0
 56 66  1  0
 57 63  1  0
 57 59  1  0
 58 64  1  0
 59 58  1  0
 60 59  2  0
 61 55  2  0
 62 61  1  0
 62 57  2  0
 63 56  1  0
 64 54  1  0
 66 68  2  0
 67 66  1  0
 69 67  1  0
 70 79  2  0
 70 75  1  0
 71 67  1  0
 71 75  1  0
 72 71  1  0
 73 74  1  0
 73 72  1  0
 74 70  1  0
 75 76  2  0
 76 77  1  0
 78 77  2  0
 79 78  1  0
 80 54  1  0
 80 81  1  0
 80 90  1  0
 81 84  1  0
 82 86  1  0
 82 81  1  0
 83 82  2  0
 86 85  1  0
 88 86  1  0
 88 89  1  0
 88 87  1  0
 90 93  1  1
 90 91  1  0
 92 90  1  0
M  ISO  4  10 100  19 100  52 101  53 101
M  END
>  <TORSDO>  (26) 
F 18

>  <SCORE>  (26) 
-14.919

>  <name>  (26) 
25

>  <ligand_id>  (26) 
25

>  <original_smiles>  (26) 
[H]c1sc(C(=O)N([H])C(=O)N2C([H])([H])C([H])([H])C([H])([H])C([H])(n3nc(-c4c([H])c([H])c(Oc5c([H])c([H])c(F)c([H])c5F)c([H])c4[H])c(C(=O)N([H])[H])c3N([H])[H])C2([H])[H])c([H])c1N([H])C(=O)C(Oc1c([H])c([H])c2c(c1[H])C([H])([H])N(C(=O)C([H])(N([H])C(=O)C([H])(N([H])C([H])([H])[H])C([H])([H])[H])C(C([H])([H])[H])(C([H])([H])[H])C([H])([H])[H])C([H])(C(=O)N([H])C1([H])c3c([H])c([H])c([H])c([H])c3C([H])([H])C([H])([H])C1([H])[H])C2([H])[H])(C([H])([H])[H])C([H])([H])[H]

>  <smiles>  (26) 
[H]c1sc(C(=O)N([H])C(=O)N2C([H])([H])C([H])([H])C([H])([H])C([H])(n3nc(-c4c([H])c([H])c(Oc5c([H])c([H])c(F)c([H])c5F)c([H])c4[H])c(C(=O)N([H])[H])c3N([H])[H])C2([H])[H])c([H])c1N([H])C(=O)C(Oc1c([H])c([H])c2c(c1[H])C([H])([H])N(C(=O)C([H])(N([H])C(=O)C([H])(N([H])C([H])([H])[H])C([H])([H])[H])C(C([H])([H])[H])(C([H])([H])[H])C([H])([H])[H])C([H])(C(=O)N([H])C1([H])c3c([H])c([H])c([H])c([H])c3C([H])([H])C([H])([H])C1([H])[H])C2([H])[H])(C([H])([H])[H])C([H])([H])[H]

$$$$
26:0:0
     RDKit          3D

 92101  0  0  1  0  0  0  0  0999 V2000
  -28.9050  -23.8400   21.1910 C   0  0  0  0  0  2  0  0  0  0  0  0
  -28.2190  -23.8020   19.2390 C   0  0  0  0  0  3  0  0  0  0  0  0
  -27.9670  -24.8560   20.4070 C   0  0  0  0  0  3  0  0  0  0  0  0
  -28.3720  -22.7780   20.3070 N   0  0  0  0  0  0  0  0  0  0  0  0
  -28.7180  -19.0520   19.3360 C   0  0  0  0  0  3  0  0  0  0  0  0
  -28.2650  -20.4320   19.2360 C   0  0  0  0  0  3  0  0  0  0  0  0
  -29.6420  -18.7910   20.3250 C   0  0  0  0  0  0  0  0  0  0  0  0
  -28.7910  -21.3420   20.1380 C   0  0  0  0  0  0  0  0  0  0  0  0
  -29.9090  -20.3750   21.1590 S   0  0  0  0  0  0  0  0  0  0  0  0
  -30.4680  -17.4630   20.6300 C   0  0  0  0  0  2  0  0  0  0  0  0
  -30.6540  -14.8620   20.3320 C   0  0  0  0  0  0  0  0  0  0  0  0
  -30.4340  -12.5680   19.3500 C   0  0  0  0  0  2  0  0  0  0  0  0
  -29.4830  -12.6100   18.1340 C   0  0  0  0  0  2  0  0  0  0  0  0
  -28.0230  -12.4290   18.5910 C   0  0  0  0  0  2  0  0  0  0  0  0
  -27.6590  -13.3370   19.7930 C   0  0  0  0  0  3  0  0  0  0  0  0
  -28.7310  -13.2880   20.9040 C   0  0  0  0  0  2  0  0  0  0  0  0
  -30.0100  -13.6420   20.2790 N   0  0  0  0  0  0  0  0  0  0  0  0
  -31.8440  -14.9260   20.0130 O   0  0  0  0  0  0  0  0  0  0  0  0
  -29.9230  -16.0290   20.5480 N   0  0  0  0  0  0  0  0  0  0  0  0
  -28.9440  -15.9100   20.7620 H   0  0  0  0  0  0  0  0  0  0  0  0
  -25.2830  -13.9200   20.5510 C   0  0  0  0  0  0  0  0  0  0  0  0
  -24.2200  -13.1440   20.9230 C   0  0  0  0  0  0  0  0  0  0  0  0
  -24.6830  -11.7930   20.8760 C   0  0  0  0  0  0  0  0  0  0  0  0
  -26.3240  -13.0430   20.3000 N   0  0  0  0  0  0  0  0  0  0  0  0
  -25.9710  -11.7570   20.5560 N   0  0  0  0  0  0  0  0  0  0  0  0
  -23.9600  -10.5280   21.0590 C   0  0  0  0  0  0  0  0  0  0  0  0
  -24.3940   -9.5550   21.9840 C   0  0  0  0  0  3  0  0  0  0  0  0
  -23.6690   -8.3540   22.1540 C   0  0  0  0  0  3  0  0  0  0  0  0
  -22.4950   -8.1210   21.3980 C   0  0  0  0  0  0  0  0  0  0  0  0
  -22.0820   -9.0820   20.4600 C   0  0  0  0  0  3  0  0  0  0  0  0
  -22.8070  -10.2740   20.2880 C   0  0  0  0  0  3  0  0  0  0  0  0
  -21.7400   -6.9760   21.4810 O   0  0  0  0  0  0  0  0  0  0  0  0
  -21.6820   -6.2360   22.6350 C   0  0  0  0  0  0  0  0  0  0  0  0
  -21.2200   -6.7840   23.8510 C   0  0  0  0  0  3  0  0  0  0  0  0
  -21.1100   -5.9680   24.9950 C   0  0  0  0  0  3  0  0  0  0  0  0
  -21.4490   -4.6040   24.9230 C   0  0  0  0  0  0  0  0  0  0  0  0
  -21.9050   -4.0550   23.7110 C   0  0  0  0  0  3  0  0  0  0  0  0
  -22.0150   -4.8680   22.5700 C   0  0  0  0  0  0  0  0  0  0  0  0
  -22.4340   -4.3280   21.4010 F   0  0  0  0  0  0  0  0  0  0  0  0
  -21.3380   -3.8190   26.0210 F   0  0  0  0  0  0  0  0  0  0  0  0
  -22.8260  -13.6180   21.2140 C   0  0  0  0  0  0  0  0  0  0  0  0
  -22.1110  -12.9130   22.0830 N   0  0  0  0  0  0  0  0  0  0  0  0
  -22.3830  -14.6490   20.7090 O   0  0  0  0  0  0  0  0  0  0  0  0
  -22.4800  -12.0740   22.5060 H   0  0  0  0  0  0  0  0  0  0  0  0
  -21.1780  -13.2120   22.3300 H   0  0  0  0  0  0  0  0  0  0  0  0
  -25.4510  -15.2920   20.3820 N   0  0  0  0  0  0  0  0  0  0  0  0
  -24.6930  -15.9560   20.4980 H   0  0  0  0  0  0  0  0  0  0  0  0
  -26.2980  -15.7220   20.0360 H   0  0  0  0  0  0  0  0  0  0  0  0
  -27.1200  -23.5380   18.2390 C   0  0  0  0  0  0  0  0  0  0  0  0
  -27.6140  -23.1610   16.8430 C   0  0  0  0  0  1  0  0  0  0  0  0
  -25.9050  -23.5640   18.4520 O   0  0  0  0  0  0  0  0  0  0  0  0
  -28.2770  -26.3540   20.3170 O   0  0  0  0  0  0  0  0  0  0  0  0
  -24.6130  -31.9630   23.2680 C   0  0  0  0  0  0  0  0  0  0  0  0
  -27.2100  -27.2960   20.2610 C   0  0  0  0  0  0  0  0  0  0  0  0
  -23.4240  -30.5640   21.6230 C   0  0  0  0  0  3  0  0  0  0  0  0
  -24.8800  -28.9960   20.2150 C   0  0  0  0  0  0  0  0  0  0  0  0
  -25.9780  -30.8380   21.4800 C   0  0  0  0  0  2  0  0  0  0  0  0
  -26.0530  -29.4540   20.8280 C   0  0  0  0  0  0  0  0  0  0  0  0
  -27.2250  -28.6200   20.8310 C   0  0  0  0  0  3  0  0  0  0  0  0
  -26.0140  -26.9210   19.6160 C   0  0  0  0  0  3  0  0  0  0  0  0
  -24.8690  -27.7380   19.5960 C   0  0  0  0  0  3  0  0  0  0  0  0
  -23.6520  -29.8880   20.2480 C   0  0  0  0  0  2  0  0  0  0  0  0
  -24.6910  -31.1420   22.1780 N   0  0  0  0  0  0  0  0  0  0  0  0
  -23.5230  -32.2510   23.7860 O   0  0  0  0  0  0  0  0  0  0  0  0
  -22.7430  -29.5550   22.5830 C   0  0  0  0  0  0  0  0  0  0  0  0
  -21.4160  -29.3860   22.4480 N   0  0  0  0  0  0  0  0  0  0  0  0
  -23.4100  -28.9300   23.4090 O   0  0  0  0  0  0  0  0  0  0  0  0
  -20.9330  -29.9500   21.7630 H   0  0  0  0  0  0  0  0  0  0  0  0
  -18.0250  -28.2250   22.9510 C   0  0  0  0  0  0  0  0  0  0  0  0
  -20.5860  -28.4560   23.2180 C   0  0  0  0  0  3  0  0  0  0  0  0
  -20.6720  -27.0230   22.6420 C   0  0  0  0  0  2  0  0  0  0  0  0
  -19.5670  -26.7150   21.6270 C   0  0  0  0  0  2  0  0  0  0  0  0
  -18.1850  -26.8750   22.2710 C   0  0  0  0  0  2  0  0  0  0  0  0
  -19.1510  -28.9750   23.3810 C   0  0  0  0  0  0  0  0  0  0  0  0
  -18.9480  -30.2390   23.9760 C   0  0  0  0  0  3  0  0  0  0  0  0
  -17.6490  -30.7510   24.1470 C   0  0  0  0  0  3  0  0  0  0  0  0
  -16.5360  -29.9980   23.7330 C   0  0  0  0  0  3  0  0  0  0  0  0
  -16.7250  -28.7380   23.1390 C   0  0  0  0  0  3  0  0  0  0  0  0
  -25.8890  -32.5990   23.8980 C   0  0  0  0  0  3  0  0  0  0  0  0
  -26.3890  -31.8410   25.1880 C   0  0  1  0  0  0  0  0  0  0  0  0
  -25.2810  -31.6080   26.2410 C   0  0  0  0  0  1  0  0  0  0  0  0
  -26.9840  -30.4630   24.8190 C   0  0  0  0  0  1  0  0  0  0  0  0
  -27.5240  -32.6500   25.8590 C   0  0  0  0  0  1  0  0  0  0  0  0
  -25.5740  -34.0000   24.2190 N   0  0  0  0  0  0  0  0  0  0  0  0
  -25.9020  -35.0520   23.4570 C   0  0  0  0  0  0  0  0  0  0  0  0
  -26.5650  -34.9460   22.4230 O   0  0  0  0  0  0  0  0  0  0  0  0
  -24.9890  -34.1580   25.0250 H   0  0  0  0  0  0  0  0  0  0  0  0
  -24.1600  -36.8340   23.1240 C   0  0  0  0  0  1  0  0  0  0  0  0
  -25.4170  -36.4410   23.9170 C   0  0  0  0  0  3  0  0  0  0  0  0
  -27.5570  -37.3390   24.7150 C   0  0  0  0  0  1  0  0  0  0  0  0
  -26.4400  -37.5010   23.7880 N   0  0  0  0  0  0  0  0  0  0  0  0
  -26.0290  -38.4160   23.9510 H   0  0  0  0  0  0  0  0  0  0  0  0
  2 49  1  0
  2  4  1  0
  2  3  1  0
  3 52  1  0
  3  1  1  0
  4  1  1  0
  5  7  2  0
  6  5  1  0
  6  8  2  0
  7 10  1  0
  7  9  1  0
  8  4  1  0
  8  9  1  0
 11 19  1  0
 12 17  1  0
 13 14  1  0
 13 12  1  0
 15 14  1  0
 15 24  1  0
 15 16  1  0
 17 11  1  0
 17 16  1  0
 18 11  2  0
 19 10  1  0
 19 20  1  0
 21 22  2  0
 22 41  1  0
 23 22  1  0
 23 26  1  0
 24 21  1  0
 24 25  1  0
 25 23  2  0
 26 27  1  0
 27 28  2  0
 29 32  1  0
 29 28  1  0
 30 29  2  0
 31 30  1  0
 31 26  2  0
 32 33  1  0
 33 34  1  0
 34 35  2  0
 36 35  1  0
 36 40  1  0
 37 36  2  0
 38 33  2  0
 38 37  1  0
 39 38  1  0
 41 42  1  0
 42 45  1  0
 42 44  1  0
 43 41  2  0
 46 47  1  0
 46 21  1  0
 48 46  1  0
 49 51  2  0
 50 49  1  0
 53 64  2  0
 54 52  1  0
 54 59  1  0
 55 63  1  0
 55 65  1  0
 56 62  1  0
 56 58  1  0
 57 63  1  0
 58 59  2  0
 58 57  1  0
 60 54  2  0
 61 60  1  0
 61 56  2  0
 62 55  1  0
 63 53  1  0
 65 67  2  0
 66 65  1  0
 68 66  1  0
 69 78  2  0
 69 74  1  0
 70 66  1  0
 70 74  1  0
 71 70  1  0
 72 73  1  0
 72 71  1  0
 73 69  1  0
 74 75  2  0
 75 76  1  0
 77 76  2  0
 78 77  1  0
 79 53  1  0
 79 84  1  0
 79 80  1  0
 80 83  1  1
 80 81  1  0
 82 80  1  0
 84 87  1  0
 85 89  1  0
 85 84  1  0
 86 85  2  0
 89 88  1  0
 91 89  1  0
 91 92  1  0
 91 90  1  0
M  ISO  4   3 101  11 100  19 100  52 101
M  END
>  <TORSDO>  (27) 
F 19

>  <SCORE>  (27) 
-13.734

>  <name>  (27) 
26

>  <ligand_id>  (27) 
26

>  <original_smiles>  (27) 
[H]c1c(N2C([H])([H])C([H])(Oc3c([H])c([H])c4c(c3[H])C([H])([H])N(C(=O)C([H])(N([H])C(=O)C([H])(N([H])C([H])([H])[H])C([H])([H])[H])C(C([H])([H])[H])(C([H])([H])[H])C([H])([H])[H])C([H])(C(=O)N([H])C3([H])c5c([H])c([H])c([H])c([H])c5C([H])([H])C([H])([H])C3([H])[H])C4([H])[H])C2([H])C(=O)C([H])([H])[H])sc(C([H])([H])N([H])C(=O)N2C([H])([H])C([H])([H])C([H])([H])C([H])(n3nc(-c4c([H])c([H])c(Oc5c([H])c([H])c(F)c([H])c5F)c([H])c4[H])c(C(=O)N([H])[H])c3N([H])[H])C2([H])[H])c1[H]

>  <smiles>  (27) 
[H]c1c(N2C([H])([H])C([H])(Oc3c([H])c([H])c4c(c3[H])C([H])([H])N(C(=O)C([H])(N([H])C(=O)C([H])(N([H])C([H])([H])[H])C([H])([H])[H])C(C([H])([H])[H])(C([H])([H])[H])C([H])([H])[H])C([H])(C(=O)N([H])C3([H])c5c([H])c([H])c([H])c([H])c5C([H])([H])C([H])([H])C3([H])[H])C4([H])[H])C2([H])C(=O)C([H])([H])[H])sc(C([H])([H])N([H])C(=O)N2C([H])([H])C([H])([H])C([H])([H])C([H])(n3nc(-c4c([H])c([H])c(Oc5c([H])c([H])c(F)c([H])c5F)c([H])c4[H])c(C(=O)N([H])[H])c3N([H])[H])C2([H])[H])c1[H]

$$$$
27:0:0
     RDKit          3D

 95104  0  0  1  0  0  0  0  0999 V2000
  -28.5440  -22.9680   21.6240 C   0  0  0  0  0  2  0  0  0  0  0  0
  -28.0360  -21.7090   21.5540 N   0  0  0  0  0  0  0  0  0  0  0  0
  -29.2860  -23.5930   20.6800 N   0  0  0  0  0  0  0  0  0  0  0  0
  -27.2960  -21.5550   22.2280 H   0  0  0  0  0  0  0  0  0  0  0  0
  -29.5660  -23.0730   19.8630 H   0  0  0  0  0  0  0  0  0  0  0  0
  -29.5690  -18.2390   21.3140 C   0  0  0  0  0  3  0  0  0  0  0  0
  -28.9570  -19.4090   21.8340 C   0  0  0  0  0  3  0  0  0  0  0  0
  -29.0540  -20.4880   19.6380 C   0  0  0  0  0  3  0  0  0  0  0  0
  -29.9380  -18.2250   19.9540 C   0  0  0  0  0  0  0  0  0  0  0  0
  -29.6760  -19.3270   19.1490 C   0  0  0  0  0  0  0  0  0  0  0  0
  -28.7100  -20.5440   21.0060 C   0  0  0  0  0  0  0  0  0  0  0  0
  -30.0990  -19.0950   17.7300 C   0  0  0  0  0  2  0  0  0  0  0  0
  -30.4220  -17.5880   17.6990 C   0  0  0  0  0  2  0  0  0  0  0  0
  -30.6450  -17.1300   19.1730 C   0  0  0  0  0  3  0  0  0  0  0  0
  -30.9450  -14.6620   19.1540 C   0  0  0  0  0  0  0  0  0  0  0  0
  -30.7000  -12.2920   18.5340 C   0  0  0  0  0  2  0  0  0  0  0  0
  -29.6510  -12.1990   17.4100 C   0  0  0  0  0  2  0  0  0  0  0  0
  -28.2310  -12.0820   18.0010 C   0  0  0  0  0  2  0  0  0  0  0  0
  -27.9490  -13.1250   19.1190 C   0  0  0  0  0  3  0  0  0  0  0  0
  -29.1210  -13.2160   20.1230 C   0  0  0  0  0  2  0  0  0  0  0  0
  -30.3510  -13.4580   19.3570 N   0  0  0  0  0  0  0  0  0  0  0  0
  -32.0270  -14.7760   18.5720 O   0  0  0  0  0  0  0  0  0  0  0  0
  -30.2150  -15.7500   19.4590 N   0  0  0  0  0  0  0  0  0  0  0  0
  -29.3060  -15.6090   19.8730 H   0  0  0  0  0  0  0  0  0  0  0  0
  -25.7230  -13.7530   20.2440 C   0  0  0  0  0  0  0  0  0  0  0  0
  -24.6950  -12.9950   20.7270 C   0  0  0  0  0  0  0  0  0  0  0  0
  -25.0800  -11.6320   20.5300 C   0  0  0  0  0  0  0  0  0  0  0  0
  -26.6790  -12.8570   19.7900 N   0  0  0  0  0  0  0  0  0  0  0  0
  -26.3010  -11.5710   20.0140 N   0  0  0  0  0  0  0  0  0  0  0  0
  -24.3320  -10.3880   20.7500 C   0  0  0  0  0  0  0  0  0  0  0  0
  -24.7620   -9.4250   21.6880 C   0  0  0  0  0  3  0  0  0  0  0  0
  -24.0160   -8.2450   21.8970 C   0  0  0  0  0  3  0  0  0  0  0  0
  -22.8260   -8.0200   21.1660 C   0  0  0  0  0  0  0  0  0  0  0  0
  -22.4140   -8.9710   20.2170 C   0  0  0  0  0  3  0  0  0  0  0  0
  -23.1590  -10.1430   20.0060 C   0  0  0  0  0  3  0  0  0  0  0  0
  -22.0500   -6.8920   21.2830 O   0  0  0  0  0  0  0  0  0  0  0  0
  -21.8430   -6.2840   22.4950 C   0  0  0  0  0  0  0  0  0  0  0  0
  -21.2950   -6.9790   23.5960 C   0  0  0  0  0  3  0  0  0  0  0  0
  -21.0340   -6.2970   24.8000 C   0  0  0  0  0  3  0  0  0  0  0  0
  -21.3110   -4.9210   24.9070 C   0  0  0  0  0  0  0  0  0  0  0  0
  -21.8510   -4.2250   23.8100 C   0  0  0  0  0  3  0  0  0  0  0  0
  -22.1140   -4.9040   22.6080 C   0  0  0  0  0  0  0  0  0  0  0  0
  -22.6150   -4.2250   21.5480 F   0  0  0  0  0  0  0  0  0  0  0  0
  -21.0530   -4.2640   26.0600 F   0  0  0  0  0  0  0  0  0  0  0  0
  -23.3830  -13.5000   21.2570 C   0  0  0  0  0  0  0  0  0  0  0  0
  -22.7890  -12.7870   22.2050 N   0  0  0  0  0  0  0  0  0  0  0  0
  -22.9030  -14.5630   20.8620 O   0  0  0  0  0  0  0  0  0  0  0  0
  -23.1940  -11.9250   22.5410 H   0  0  0  0  0  0  0  0  0  0  0  0
  -21.9140  -13.1020   22.5990 H   0  0  0  0  0  0  0  0  0  0  0  0
  -25.9200  -15.1280   20.1350 N   0  0  0  0  0  0  0  0  0  0  0  0
  -25.1970  -15.7890   20.3960 H   0  0  0  0  0  0  0  0  0  0  0  0
  -26.7240  -15.5670   19.7050 H   0  0  0  0  0  0  0  0  0  0  0  0
  -29.6780  -25.0220   20.6710 C   0  0  0  0  0  2  0  0  0  0  0  0
  -29.1900  -25.7420   19.3900 C   0  0  0  0  0  2  0  0  0  0  0  0
  -28.9880  -27.1540   19.5720 O   0  0  0  0  0  0  0  0  0  0  0  0
  -24.6440  -31.4930   23.1240 C   0  0  0  0  0  0  0  0  0  0  0  0
  -27.7100  -27.6770   19.6380 C   0  0  0  0  0  0  0  0  0  0  0  0
  -23.5650  -30.0950   21.3920 C   0  0  0  0  0  3  0  0  0  0  0  0
  -25.1440  -28.8710   19.8110 C   0  0  0  0  0  0  0  0  0  0  0  0
  -26.0160  -30.7800   21.1690 C   0  0  0  0  0  2  0  0  0  0  0  0
  -26.2440  -29.4840   20.4190 C   0  0  0  0  0  0  0  0  0  0  0  0
  -27.5250  -28.8980   20.3230 C   0  0  0  0  0  3  0  0  0  0  0  0
  -26.5900  -27.0770   19.0150 C   0  0  0  0  0  3  0  0  0  0  0  0
  -25.3110  -27.6660   19.1050 C   0  0  0  0  0  3  0  0  0  0  0  0
  -23.8100  -29.5600   19.9550 C   0  0  0  0  0  2  0  0  0  0  0  0
  -24.7610  -30.8020   21.9550 N   0  0  0  0  0  0  0  0  0  0  0  0
  -23.5570  -31.5840   23.7100 O   0  0  0  0  0  0  0  0  0  0  0  0
  -23.0680  -28.9280   22.2740 C   0  0  0  0  0  0  0  0  0  0  0  0
  -21.8050  -28.5180   22.0710 N   0  0  0  0  0  0  0  0  0  0  0  0
  -23.8150  -28.3930   23.0980 O   0  0  0  0  0  0  0  0  0  0  0  0
  -21.2560  -29.0080   21.3770 H   0  0  0  0  0  0  0  0  0  0  0  0
  -18.7270  -26.6360   22.2390 C   0  0  0  0  0  0  0  0  0  0  0  0
  -21.1390  -27.4090   22.7540 C   0  0  0  0  0  3  0  0  0  0  0  0
  -21.5920  -26.0490   22.1750 C   0  0  0  0  0  2  0  0  0  0  0  0
  -20.6770  -25.5360   21.0590 C   0  0  0  0  0  2  0  0  0  0  0  0
  -19.2430  -25.3710   21.5730 C   0  0  0  0  0  2  0  0  0  0  0  0
  -19.6170  -27.6000   22.7790 C   0  0  0  0  0  0  0  0  0  0  0  0
  -19.0900  -28.7760   23.3550 C   0  0  0  0  0  3  0  0  0  0  0  0
  -17.7010  -28.9930   23.4040 C   0  0  0  0  0  3  0  0  0  0  0  0
  -16.8210  -28.0280   22.8870 C   0  0  0  0  0  3  0  0  0  0  0  0
  -17.3320  -26.8510   22.3090 C   0  0  0  0  0  3  0  0  0  0  0  0
  -25.8650  -32.2200   23.7670 C   0  0  0  0  0  3  0  0  0  0  0  0
  -26.4300  -31.4790   25.0400 C   0  0  1  0  0  0  0  0  0  0  0  0
  -25.3430  -31.1270   26.0800 C   0  0  0  0  0  1  0  0  0  0  0  0
  -27.1470  -30.1700   24.6370 C   0  0  0  0  0  1  0  0  0  0  0  0
  -27.4840  -32.3690   25.7410 C   0  0  0  0  0  1  0  0  0  0  0  0
  -25.4420  -33.5840   24.1040 N   0  0  0  0  0  0  0  0  0  0  0  0
  -25.7110  -34.6680   23.3640 C   0  0  0  0  0  0  0  0  0  0  0  0
  -26.4120  -34.6330   22.3490 O   0  0  0  0  0  0  0  0  0  0  0  0
  -24.8110  -33.6800   24.8860 H   0  0  0  0  0  0  0  0  0  0  0  0
  -23.8580  -36.3250   22.9900 C   0  0  0  0  0  1  0  0  0  0  0  0
  -25.1080  -36.0080   23.8260 C   0  0  0  0  0  3  0  0  0  0  0  0
  -27.1450  -37.0460   24.7210 C   0  0  0  0  0  1  0  0  0  0  0  0
  -26.0580  -37.1400   23.7490 N   0  0  0  0  0  0  0  0  0  0  0  0
  -25.5780  -38.0240   23.8970 H   0  0  0  0  0  0  0  0  0  0  0  0
  2  1  1  0
  2  4  1  0
  3  1  1  0
  5  3  1  0
  6  7  1  0
  8 11  1  0
  9  6  2  0
 10  8  2  0
 10  9  1  0
 11  2  1  0
 11  7  2  0
 12 10  1  0
 13 12  1  0
 13 14  1  0
 14 23  1  0
 14  9  1  0
 15 21  1  0
 15 23  1  0
 16 21  1  0
 17 18  1  0
 17 16  1  0
 19 18  1  0
 19 28  1  0
 19 20  1  0
 21 20  1  0
 22 15  2  0
 23 24  1  0
 25 26  2  0
 26 45  1  0
 27 26  1  0
 27 30  1  0
 28 29  1  0
 28 25  1  0
 29 27  2  0
 30 31  1  0
 31 32  2  0
 33 36  1  0
 33 32  1  0
 34 33  2  0
 35 34  1  0
 35 30  2  0
 36 37  1  0
 37 42  2  0
 37 38  1  0
 38 39  2  0
 39 40  1  0
 40 44  1  0
 41 40  2  0
 42 41  1  0
 43 42  1  0
 45 46  1  0
 46 48  1  0
 46 49  1  0
 47 45  2  0
 50 25  1  0
 50 51  1  0
 52 50  1  0
 53  3  1  0
 54 55  1  0
 54 53  1  0
 55 57  1  0
 56 67  2  0
 57 62  1  0
 58 66  1  0
 58 68  1  0
 59 65  1  0
 59 61  1  0
 60 66  1  0
 61 60  1  0
 62 61  2  0
 63 64  1  0
 63 57  2  0
 64 59  2  0
 65 58  1  0
 66 56  1  0
 68 70  2  0
 69 68  1  0
 71 69  1  0
 72 81  2  0
 72 77  1  0
 73 69  1  0
 73 77  1  0
 74 73  1  0
 75 76  1  0
 75 74  1  0
 76 72  1  0
 77 78  2  0
 78 79  1  0
 80 79  2  0
 81 80  1  0
 82 56  1  0
 82 87  1  0
 82 83  1  0
 83 86  1  1
 83 84  1  0
 85 83  1  0
 87 90  1  0
 88 92  1  0
 88 87  1  0
 89 88  2  0
 92 91  1  0
 94 92  1  0
 94 95  1  0
 94 93  1  0
M  ISO  4  15 100  23 100  54 101  55 101
M  END
>  <TORSDO>  (28) 
F 19

>  <SCORE>  (28) 
-10.248

>  <name>  (28) 
27

>  <ligand_id>  (28) 
27

>  <original_smiles>  (28) 
[H]C(N([H])c1c([H])c([H])c2c(c1[H])C([H])([H])C([H])([H])C2([H])N([H])C(=O)N1C([H])([H])C([H])([H])C([H])([H])C([H])(n2nc(-c3c([H])c([H])c(Oc4c([H])c([H])c(F)c([H])c4F)c([H])c3[H])c(C(=O)N([H])[H])c2N([H])[H])C1([H])[H])=[N+]([H])C([H])([H])C([H])([H])Oc1c([H])c([H])c2c(c1[H])C([H])([H])N(C(=O)C([H])(N([H])C(=O)C([H])(N([H])C([H])([H])[H])C([H])([H])[H])C(C([H])([H])[H])(C([H])([H])[H])C([H])([H])[H])C([H])(C(=O)N([H])C1([H])c3c([H])c([H])c([H])c([H])c3C([H])([H])C([H])([H])C1([H])[H])C2([H])[H]

>  <smiles>  (28) 
[H]C(N([H])c1c([H])c([H])c2c(c1[H])C([H])([H])C([H])([H])C2([H])N([H])C(=O)N1C([H])([H])C([H])([H])C([H])([H])C([H])(n2nc(-c3c([H])c([H])c(Oc4c([H])c([H])c(F)c([H])c4F)c([H])c3[H])c(C(=O)N([H])[H])c2N([H])[H])C1([H])[H])=[N+]([H])C([H])([H])C([H])([H])Oc1c([H])c([H])c2c(c1[H])C([H])([H])N(C(=O)C([H])(N([H])C(=O)C([H])(N([H])C([H])([H])[H])C([H])([H])[H])C(C([H])([H])[H])(C([H])([H])[H])C([H])([H])[H])C([H])(C(=O)N([H])C1([H])c3c([H])c([H])c([H])c([H])c3C([H])([H])C([H])([H])C1([H])[H])C2([H])[H]

$$$$
28:0:0
     RDKit          3D

 93102  0  0  1  0  0  0  0  0999 V2000
  -29.5650  -22.3680   19.5560 C   0  0  0  0  0  2  0  0  0  0  0  0
  -28.8820  -23.4340   20.5410 C   0  0  0  0  0  3  0  0  0  0  0  0
  -28.2050  -22.2130   21.0940 N   0  0  0  0  0  0  0  0  0  0  0  0
  -29.2850  -21.2570   20.5030 N   0  0  0  0  0  0  0  0  0  0  0  0
  -27.3290  -22.0600   20.5920 H   0  0  0  0  0  0  0  0  0  0  0  0
  -29.0920  -18.5130   20.6940 C   0  0  0  0  0  3  0  0  0  0  0  0
  -29.7470  -19.8040   20.3810 C   0  0  0  0  0  0  0  0  0  0  0  0
  -30.9990  -19.3320   19.9840 C   0  0  0  0  0  0  0  0  0  0  0  0
  -29.9410  -17.4130   20.4550 C   0  0  0  0  0  0  0  0  0  0  0  0
  -31.0990  -17.9410   20.0000 O   0  0  0  0  0  0  0  0  0  0  0  0
  -30.5120  -14.8750   20.3580 C   0  0  0  0  0  0  0  0  0  0  0  0
  -30.3580  -12.5620   19.3690 C   0  0  0  0  0  2  0  0  0  0  0  0
  -29.4140  -12.5860   18.1460 C   0  0  0  0  0  2  0  0  0  0  0  0
  -27.9490  -12.3910   18.5830 C   0  0  0  0  0  2  0  0  0  0  0  0
  -27.5670  -13.2890   19.7900 C   0  0  0  0  0  3  0  0  0  0  0  0
  -28.6290  -13.2360   20.9090 C   0  0  0  0  0  2  0  0  0  0  0  0
  -29.9120  -13.6260   20.3090 N   0  0  0  0  0  0  0  0  0  0  0  0
  -31.7000  -14.9630   20.0240 O   0  0  0  0  0  0  0  0  0  0  0  0
  -29.7210  -16.0130   20.6100 N   0  0  0  0  0  0  0  0  0  0  0  0
  -28.7860  -15.7740   20.9030 H   0  0  0  0  0  0  0  0  0  0  0  0
  -25.1840  -13.8720   20.5290 C   0  0  0  0  0  0  0  0  0  0  0  0
  -24.1230  -13.0970   20.9060 C   0  0  0  0  0  0  0  0  0  0  0  0
  -24.5880  -11.7470   20.8750 C   0  0  0  0  0  0  0  0  0  0  0  0
  -26.2280  -12.9940   20.2880 N   0  0  0  0  0  0  0  0  0  0  0  0
  -25.8780  -11.7110   20.5610 N   0  0  0  0  0  0  0  0  0  0  0  0
  -23.8640  -10.4830   21.0700 C   0  0  0  0  0  0  0  0  0  0  0  0
  -24.3120   -9.5090   21.9880 C   0  0  0  0  0  3  0  0  0  0  0  0
  -23.5860   -8.3110   22.1710 C   0  0  0  0  0  3  0  0  0  0  0  0
  -22.4000   -8.0800   21.4360 C   0  0  0  0  0  0  0  0  0  0  0  0
  -21.9720   -9.0440   20.5050 C   0  0  0  0  0  3  0  0  0  0  0  0
  -22.6980  -10.2320   20.3200 C   0  0  0  0  0  3  0  0  0  0  0  0
  -21.6440   -6.9360   21.5280 O   0  0  0  0  0  0  0  0  0  0  0  0
  -21.6270   -6.1770   22.6700 C   0  0  0  0  0  0  0  0  0  0  0  0
  -21.2400   -6.7140   23.9180 C   0  0  0  0  0  3  0  0  0  0  0  0
  -21.1700   -5.8810   25.0520 C   0  0  0  0  0  3  0  0  0  0  0  0
  -21.4750   -4.5120   24.9400 C   0  0  0  0  0  0  0  0  0  0  0  0
  -21.8550   -3.9740   23.6990 C   0  0  0  0  0  3  0  0  0  0  0  0
  -21.9280   -4.8040   22.5660 C   0  0  0  0  0  0  0  0  0  0  0  0
  -22.2740   -4.2750   21.3680 F   0  0  0  0  0  0  0  0  0  0  0  0
  -21.4000   -3.7100   26.0290 F   0  0  0  0  0  0  0  0  0  0  0  0
  -22.7260  -13.5730   21.1800 C   0  0  0  0  0  0  0  0  0  0  0  0
  -22.0020  -12.8820   22.0530 N   0  0  0  0  0  0  0  0  0  0  0  0
  -22.2830  -14.5940   20.6530 O   0  0  0  0  0  0  0  0  0  0  0  0
  -22.3740  -12.0560   22.5010 H   0  0  0  0  0  0  0  0  0  0  0  0
  -21.0650  -13.1830   22.2800 H   0  0  0  0  0  0  0  0  0  0  0  0
  -25.3450  -15.2420   20.3450 N   0  0  0  0  0  0  0  0  0  0  0  0
  -24.5690  -15.8890   20.4420 H   0  0  0  0  0  0  0  0  0  0  0  0
  -26.1740  -15.6770   19.9610 H   0  0  0  0  0  0  0  0  0  0  0  0
  -32.2480  -20.0190   19.6340 C   0  0  0  0  0  0  0  0  0  0  0  0
  -33.3250  -19.2050   18.9290 C   0  0  0  0  0  1  0  0  0  0  0  0
  -32.4840  -21.1940   19.9180 O   0  0  0  0  0  0  0  0  0  0  0  0
  -27.9410  -24.7370   20.1170 C   0  0  0  0  0  2  0  0  0  0  0  0
  -28.2470  -26.2390   20.2720 O   0  0  0  0  0  0  0  0  0  0  0  0
  -24.6320  -31.8800   23.2510 C   0  0  0  0  0  0  0  0  0  0  0  0
  -27.1870  -27.2030   20.1990 C   0  0  0  0  0  0  0  0  0  0  0  0
  -23.4190  -30.4890   21.6170 C   0  0  0  0  0  3  0  0  0  0  0  0
  -24.8550  -28.9230   20.1800 C   0  0  0  0  0  0  0  0  0  0  0  0
  -25.9700  -30.7610   21.4340 C   0  0  0  0  0  2  0  0  0  0  0  0
  -26.0370  -29.3750   20.7810 C   0  0  0  0  0  0  0  0  0  0  0  0
  -27.2050  -28.5300   20.7740 C   0  0  0  0  0  3  0  0  0  0  0  0
  -25.9790  -26.8450   19.5560 C   0  0  0  0  0  3  0  0  0  0  0  0
  -24.8370  -27.6700   19.5530 C   0  0  0  0  0  3  0  0  0  0  0  0
  -23.6280  -29.8160   20.2350 C   0  0  0  0  0  2  0  0  0  0  0  0
  -24.6940  -31.0640   22.1540 N   0  0  0  0  0  0  0  0  0  0  0  0
  -23.5500  -32.1650   23.7860 O   0  0  0  0  0  0  0  0  0  0  0  0
  -22.7480  -29.4800   22.5800 C   0  0  0  0  0  0  0  0  0  0  0  0
  -21.4190  -29.3070   22.4560 N   0  0  0  0  0  0  0  0  0  0  0  0
  -23.4220  -28.8540   23.4000 O   0  0  0  0  0  0  0  0  0  0  0  0
  -20.9320  -29.8630   21.7670 H   0  0  0  0  0  0  0  0  0  0  0  0
  -18.0400  -28.1080   22.9640 C   0  0  0  0  0  0  0  0  0  0  0  0
  -20.5980  -28.3730   23.2320 C   0  0  0  0  0  3  0  0  0  0  0  0
  -20.7020  -26.9380   22.6630 C   0  0  0  0  0  2  0  0  0  0  0  0
  -19.6000  -26.6100   21.6500 C   0  0  0  0  0  2  0  0  0  0  0  0
  -18.2180  -26.7570   22.2910 C   0  0  0  0  0  2  0  0  0  0  0  0
  -19.1580  -28.8730   23.3900 C   0  0  0  0  0  0  0  0  0  0  0  0
  -18.9360  -30.1370   23.9780 C   0  0  0  0  0  3  0  0  0  0  0  0
  -17.6300  -30.6370   24.1440 C   0  0  0  0  0  3  0  0  0  0  0  0
  -16.5280  -29.8680   23.7320 C   0  0  0  0  0  3  0  0  0  0  0  0
  -16.7330  -28.6060   23.1480 C   0  0  0  0  0  3  0  0  0  0  0  0
  -25.9170  -32.5100   23.8690 C   0  0  0  0  0  3  0  0  0  0  0  0
  -26.4350  -31.7360   25.1440 C   0  0  1  0  0  0  0  0  0  0  0  0
  -25.3450  -31.5040   26.2170 C   0  0  0  0  0  1  0  0  0  0  0  0
  -27.0110  -30.3560   24.7530 C   0  0  0  0  0  1  0  0  0  0  0  0
  -27.5930  -32.5250   25.8010 C   0  0  0  0  0  1  0  0  0  0  0  0
  -25.6110  -33.9080   24.2080 N   0  0  0  0  0  0  0  0  0  0  0  0
  -25.9240  -34.9650   23.4470 C   0  0  0  0  0  0  0  0  0  0  0  0
  -26.5700  -34.8650   22.4000 O   0  0  0  0  0  0  0  0  0  0  0  0
  -25.0350  -34.0590   25.0240 H   0  0  0  0  0  0  0  0  0  0  0  0
  -24.1760  -36.7500   23.1520 C   0  0  0  0  0  1  0  0  0  0  0  0
  -25.4460  -36.3520   23.9200 C   0  0  0  0  0  3  0  0  0  0  0  0
  -27.6030  -37.2490   24.6770 C   0  0  0  0  0  1  0  0  0  0  0  0
  -26.4700  -37.4100   23.7700 N   0  0  0  0  0  0  0  0  0  0  0  0
  -26.0650  -38.3290   23.9290 H   0  0  0  0  0  0  0  0  0  0  0  0
  1  4  1  0
  1  2  1  0
  2 52  1  0
  2  3  1  0
  4  3  1  0
  5  3  1  0
  7  4  1  0
  7  6  1  0
  8 10  1  0
  8  7  2  0
  9 19  1  0
  9  6  2  0
 10  9  1  0
 11 19  1  0
 12 17  1  0
 13 14  1  0
 13 12  1  0
 15 14  1  0
 15 24  1  0
 15 16  1  0
 17 11  1  0
 17 16  1  0
 18 11  2  0
 19 20  1  0
 21 22  2  0
 22 41  1  0
 23 22  1  0
 23 26  1  0
 24 21  1  0
 24 25  1  0
 25 23  2  0
 26 27  1  0
 27 28  2  0
 29 32  1  0
 29 28  1  0
 30 29  2  0
 31 30  1  0
 31 26  2  0
 32 33  1  0
 33 34  1  0
 34 35  2  0
 36 35  1  0
 36 40  1  0
 37 36  2  0
 38 33  2  0
 38 37  1  0
 39 38  1  0
 41 42  1  0
 42 45  1  0
 42 44  1  0
 43 41  2  0
 46 47  1  0
 46 21  1  0
 48 46  1  0
 49 51  2  0
 49  8  1  0
 50 49  1  0
 52 53  1  0
 54 65  2  0
 55 53  1  0
 55 60  1  0
 56 64  1  0
 56 66  1  0
 57 63  1  0
 57 59  1  0
 58 64  1  0
 59 58  1  0
 60 59  2  0
 61 55  2  0
 62 61  1  0
 62 57  2  0
 63 56  1  0
 64 54  1  0
 66 68  2  0
 67 66  1  0
 69 67  1  0
 70 79  2  0
 70 75  1  0
 71 67  1  0
 71 75  1  0
 72 71  1  0
 73 74  1  0
 73 72  1  0
 74 70  1  0
 75 76  2  0
 76 77  1  0
 78 77  2  0
 79 78  1  0
 80 54  1  0
 80 85  1  0
 80 81  1  0
 81 84  1  1
 81 82  1  0
 83 81  1  0
 85 88  1  0
 86 90  1  0
 86 85  1  0
 87 86  2  0
 90 89  1  0
 92 90  1  0
 92 93  1  0
 92 91  1  0
M  ISO  4  11 100  19 100  52 101  53 101
M  END
>  <TORSDO>  (29) 
F 19

>  <SCORE>  (29) 
-14.320

>  <name>  (29) 
28

>  <ligand_id>  (29) 
28

>  <original_smiles>  (29) 
[H]c1c([H])c([H])c2c(c1[H])C([H])([H])C([H])([H])C([H])([H])C2([H])N([H])C(=O)C1([H])N(C(=O)C([H])(N([H])C(=O)C([H])(N([H])C([H])([H])[H])C([H])([H])[H])C(C([H])([H])[H])(C([H])([H])[H])C([H])([H])[H])C([H])([H])c2c([H])c(OC([H])([H])C3([H])N([H])N(c4c(C(=O)C([H])([H])[H])oc(N([H])C(=O)N5C([H])([H])C([H])([H])C([H])([H])C([H])(n6nc(-c7c([H])c([H])c(Oc8c([H])c([H])c(F)c([H])c8F)c([H])c7[H])c(C(=O)N([H])[H])c6N([H])[H])C5([H])[H])c4[H])C3([H])[H])c([H])c([H])c2C1([H])[H]

>  <smiles>  (29) 
[H]c1c([H])c([H])c2c(c1[H])C([H])([H])C([H])([H])C([H])([H])C2([H])N([H])C(=O)C1([H])N(C(=O)C([H])(N([H])C(=O)C([H])(N([H])C([H])([H])[H])C([H])([H])[H])C(C([H])([H])[H])(C([H])([H])[H])C([H])([H])[H])C([H])([H])c2c([H])c(OC([H])([H])C3([H])N([H])N(c4c(C(=O)C([H])([H])[H])oc(N([H])C(=O)N5C([H])([H])C([H])([H])C([H])([H])C([H])(n6nc(-c7c([H])c([H])c(Oc8c([H])c([H])c(F)c([H])c8F)c([H])c7[H])c(C(=O)N([H])[H])c6N([H])[H])C5([H])[H])c4[H])C3([H])[H])c([H])c([H])c2C1([H])[H]

$$$$
29:0:0
     RDKit          3D

 93102  0  0  1  0  0  0  0  0999 V2000
  -30.6750  -15.1290   20.2700 C   0  0  0  0  0  0  0  0  0  0  0  0
  -30.6580  -12.6380   19.6280 C   0  0  0  0  0  2  0  0  0  0  0  0
  -29.8050  -12.3280   18.3770 C   0  0  0  0  0  2  0  0  0  0  0  0
  -28.3370  -12.0720   18.7670 C   0  0  0  0  0  2  0  0  0  0  0  0
  -27.8190  -13.1260   19.7740 C   0  0  0  0  0  3  0  0  0  0  0  0
  -28.8150  -13.4000   20.9270 C   0  0  0  0  0  2  0  0  0  0  0  0
  -30.0760  -13.8450   20.3060 N   0  0  0  0  0  0  0  0  0  0  0  0
  -31.9070  -15.0970   20.1210 O   0  0  0  0  0  0  0  0  0  0  0  0
  -28.1680  -18.1030   20.1250 C   0  0  0  0  0  0  0  0  0  0  0  0
  -29.2130  -19.0310   19.8550 C   0  0  0  0  0  0  0  0  0  0  0  0
  -26.9310  -18.6650   20.2050 C   0  0  0  0  0  3  0  0  0  0  0  0
  -28.7310  -20.4440   19.6790 C   0  0  0  0  0  3  0  0  0  0  0  0
  -28.5220  -16.6260   20.2800 C   0  0  0  0  0  3  0  0  0  0  0  0
  -30.4240  -17.9250   19.8950 C   0  0  0  0  0  3  0  0  0  0  0  0
  -29.9720  -16.4130   20.1600 N   0  0  0  0  0  0  0  0  0  0  0  0
  -26.9880  -20.3690   19.9470 S   0  0  0  0  0  0  0  0  0  0  0  0
  -25.4290  -13.7450   20.4330 C   0  0  0  0  0  0  0  0  0  0  0  0
  -24.3390  -12.9980   20.7730 C   0  0  0  0  0  0  0  0  0  0  0  0
  -24.7830  -11.6420   20.7780 C   0  0  0  0  0  0  0  0  0  0  0  0
  -26.4650  -12.8500   20.2390 N   0  0  0  0  0  0  0  0  0  0  0  0
  -26.0860  -11.5790   20.5200 N   0  0  0  0  0  0  0  0  0  0  0  0
  -24.0290  -10.3980   20.9570 C   0  0  0  0  0  0  0  0  0  0  0  0
  -24.4430   -9.4150   21.8810 C   0  0  0  0  0  3  0  0  0  0  0  0
  -23.6880   -8.2360   22.0520 C   0  0  0  0  0  3  0  0  0  0  0  0
  -22.5070   -8.0330   21.2970 C   0  0  0  0  0  0  0  0  0  0  0  0
  -22.1130   -9.0060   20.3640 C   0  0  0  0  0  3  0  0  0  0  0  0
  -22.8680  -10.1780   20.1900 C   0  0  0  0  0  3  0  0  0  0  0  0
  -21.7250   -6.9040   21.3790 O   0  0  0  0  0  0  0  0  0  0  0  0
  -21.6890   -6.1350   22.5130 C   0  0  0  0  0  0  0  0  0  0  0  0
  -21.3140   -6.6680   23.7660 C   0  0  0  0  0  3  0  0  0  0  0  0
  -21.2220   -5.8240   24.8900 C   0  0  0  0  0  3  0  0  0  0  0  0
  -21.4960   -4.4490   24.7650 C   0  0  0  0  0  0  0  0  0  0  0  0
  -21.8640   -3.9160   23.5170 C   0  0  0  0  0  3  0  0  0  0  0  0
  -21.9590   -4.7570   22.3940 C   0  0  0  0  0  0  0  0  0  0  0  0
  -22.2910   -4.2340   21.1900 F   0  0  0  0  0  0  0  0  0  0  0  0
  -21.4000   -3.6370   25.8440 F   0  0  0  0  0  0  0  0  0  0  0  0
  -22.9400  -13.5070   20.9820 C   0  0  0  0  0  0  0  0  0  0  0  0
  -22.1740  -12.8520   21.8440 N   0  0  0  0  0  0  0  0  0  0  0  0
  -22.5360  -14.5220   20.4140 O   0  0  0  0  0  0  0  0  0  0  0  0
  -22.5190  -12.0350   22.3290 H   0  0  0  0  0  0  0  0  0  0  0  0
  -21.2280  -13.1630   22.0190 H   0  0  0  0  0  0  0  0  0  0  0  0
  -25.6220  -15.1060   20.2580 N   0  0  0  0  0  0  0  0  0  0  0  0
  -24.9060  -15.7110   20.6380 H   0  0  0  0  0  0  0  0  0  0  0  0
  -26.5560  -15.4770   20.3650 H   0  0  0  0  0  0  0  0  0  0  0  0
  -28.6100  -23.1140   19.6880 C   0  0  0  0  0  0  0  0  0  0  0  0
  -29.1130  -21.8040   19.2850 N   0  0  0  0  0  0  0  0  0  0  0  0
  -28.2150  -23.2410   20.8490 O   0  0  0  0  0  0  0  0  0  0  0  0
  -29.6900  -21.8550   18.4550 H   0  0  0  0  0  0  0  0  0  0  0  0
  -28.4920  -24.5290   18.7740 C   0  0  0  0  0  2  0  0  0  0  0  0
  -28.4230  -26.0100   19.3360 O   0  0  0  0  0  0  0  0  0  0  0  0
  -24.7130  -31.3850   22.8180 C   0  0  0  0  0  0  0  0  0  0  0  0
  -27.3220  -26.9670   19.3240 C   0  0  0  0  0  0  0  0  0  0  0  0
  -23.4980  -30.0750   21.1210 C   0  0  0  0  0  3  0  0  0  0  0  0
  -24.9370  -28.6630   19.5150 C   0  0  0  0  0  0  0  0  0  0  0  0
  -26.0370  -30.4270   20.8870 C   0  0  0  0  0  2  0  0  0  0  0  0
  -26.1260  -29.0900   20.1200 C   0  0  0  0  0  0  0  0  0  0  0  0
  -27.3080  -28.2590   20.0090 C   0  0  0  0  0  3  0  0  0  0  0  0
  -26.0990  -26.6530   18.6880 C   0  0  0  0  0  3  0  0  0  0  0  0
  -24.9390  -27.4630   18.7850 C   0  0  0  0  0  3  0  0  0  0  0  0
  -23.6850  -29.5160   19.6840 C   0  0  0  0  0  2  0  0  0  0  0  0
  -24.7710  -30.6500   21.6630 N   0  0  0  0  0  0  0  0  0  0  0  0
  -23.6390  -31.5930   23.4010 O   0  0  0  0  0  0  0  0  0  0  0  0
  -22.8850  -28.9780   22.0270 C   0  0  0  0  0  0  0  0  0  0  0  0
  -21.5500  -28.8090   21.9740 N   0  0  0  0  0  0  0  0  0  0  0  0
  -23.6080  -28.2840   22.7460 O   0  0  0  0  0  0  0  0  0  0  0  0
  -21.0190  -29.4180   21.3670 H   0  0  0  0  0  0  0  0  0  0  0  0
  -18.2090  -27.5410   22.5890 C   0  0  0  0  0  0  0  0  0  0  0  0
  -20.7810  -27.7970   22.7030 C   0  0  0  0  0  3  0  0  0  0  0  0
  -20.8420  -26.4290   21.9830 C   0  0  0  0  0  2  0  0  0  0  0  0
  -19.6730  -26.2010   21.0210 C   0  0  0  0  0  2  0  0  0  0  0  0
  -18.3380  -26.2700   21.7660 C   0  0  0  0  0  2  0  0  0  0  0  0
  -19.3540  -28.2690   23.0140 C   0  0  0  0  0  0  0  0  0  0  0  0
  -19.1740  -29.4620   23.7460 C   0  0  0  0  0  3  0  0  0  0  0  0
  -17.8830  -29.9320   24.0520 C   0  0  0  0  0  3  0  0  0  0  0  0
  -16.7530  -29.2010   23.6420 C   0  0  0  0  0  3  0  0  0  0  0  0
  -16.9180  -28.0060   22.9200 C   0  0  0  0  0  3  0  0  0  0  0  0
  -25.9910  -32.0160   23.4500 C   0  0  0  0  0  3  0  0  0  0  0  0
  -25.6290  -33.3470   23.9650 N   0  0  0  0  0  0  0  0  0  0  0  0
  -25.8820  -34.5050   23.3390 C   0  0  0  0  0  0  0  0  0  0  0  0
  -26.5140  -34.5650   22.2810 O   0  0  0  0  0  0  0  0  0  0  0  0
  -25.0600  -33.3690   24.7990 H   0  0  0  0  0  0  0  0  0  0  0  0
  -24.0620  -36.2400   23.2920 C   0  0  0  0  0  1  0  0  0  0  0  0
  -25.3580  -35.8010   23.9910 C   0  0  0  0  0  3  0  0  0  0  0  0
  -27.4930  -36.6770   24.8340 C   0  0  0  0  0  1  0  0  0  0  0  0
  -26.3370  -36.9110   23.9720 N   0  0  0  0  0  0  0  0  0  0  0  0
  -25.9000  -37.7810   24.2600 H   0  0  0  0  0  0  0  0  0  0  0  0
  -26.6120  -31.1330   24.6030 C   0  0  1  0  0  0  0  0  0  0  0  0
  -25.5940  -30.7340   25.6970 C   0  0  0  0  0  1  0  0  0  0  0  0
  -27.2230  -29.8330   24.0320 C   0  0  0  0  0  1  0  0  0  0  0  0
  -27.7700  -31.9020   25.2830 C   0  0  0  0  0  1  0  0  0  0  0  0
  -25.7070  -18.0580   20.4180 N   0  0  0  0  0  0  0  0  0  0  0  0
  -25.5820  -17.2040   19.8860 H   0  0  0  0  0  0  0  0  0  0  0  0
  -24.9060  -18.6640   20.2650 H   0  0  0  0  0  0  0  0  0  0  0  0
  1  7  1  0
  2  7  1  0
  3  4  1  0
  3  2  1  0
  5  4  1  0
  5 20  1  0
  5  6  1  0
  7  6  1  0
  8  1  2  0
  9 11  1  0
  9 13  2  0
 10 14  2  0
 10  9  1  0
 11 91  1  0
 12 46  1  0
 12 10  1  0
 12 16  1  0
 14 15  1  0
 15  1  1  0
 15 13  1  0
 16 11  1  0
 17 18  2  0
 18 19  1  0
 18 37  1  0
 19 22  1  0
 20 17  1  0
 20 21  1  0
 21 19  2  0
 22 23  1  0
 23 24  2  0
 25 28  1  0
 25 24  1  0
 26 25  2  0
 27 26  1  0
 27 22  2  0
 28 29  1  0
 29 30  1  0
 30 31  2  0
 32 31  1  0
 32 36  1  0
 33 32  2  0
 34 29  2  0
 34 33  1  0
 35 34  1  0
 37 38  1  0
 38 41  1  0
 38 40  1  0
 39 37  2  0
 42 44  1  0
 42 17  1  0
 42 43  1  0
 45 47  2  0
 46 45  1  0
 48 46  1  0
 49 50  1  0
 49 45  1  0
 51 62  2  0
 52 50  1  0
 52 57  1  0
 53 61  1  0
 53 63  1  0
 54 60  1  0
 54 56  1  0
 55 61  1  0
 56 55  1  0
 57 56  2  0
 58 59  1  0
 58 52  2  0
 59 54  2  0
 60 53  1  0
 61 51  1  0
 63 65  2  0
 64 63  1  0
 66 64  1  0
 67 76  2  0
 67 72  1  0
 68 64  1  0
 68 72  1  0
 69 68  1  0
 70 71  1  0
 70 69  1  0
 71 67  1  0
 72 73  2  0
 73 74  1  0
 75 74  2  0
 76 75  1  0
 77 51  1  0
 77 78  1  0
 77 87  1  0
 78 81  1  0
 79 78  1  0
 79 83  1  0
 80 79  2  0
 83 82  1  0
 85 83  1  0
 85 86  1  0
 85 84  1  0
 87 90  1  1
 87 88  1  0
 89 87  1  0
 92 91  1  0
 93 91  1  0
M  ISO  4   1 100  15 100  49 101  50 101
M  END
>  <TORSDO>  (30) 
F 18

>  <SCORE>  (30) 
-12.256

>  <name>  (30) 
29

>  <ligand_id>  (30) 
29

>  <original_smiles>  (30) 
[H]c1c([H])c([H])c2c(c1[H])C([H])([H])C([H])([H])C([H])([H])C2([H])N([H])C(=O)C1([H])N(C(=O)C([H])(N([H])C(=O)C([H])(N([H])C([H])([H])[H])C([H])([H])[H])C(C([H])([H])[H])(C([H])([H])[H])C([H])([H])[H])C([H])([H])c2c([H])c(OC([H])([H])C(=O)N([H])c3sc(N([H])[H])c4c3C([H])([H])N(C(=O)N3C([H])([H])C([H])([H])C([H])([H])C([H])(n5nc(-c6c([H])c([H])c(Oc7c([H])c([H])c(F)c([H])c7F)c([H])c6[H])c(C(=O)N([H])[H])c5N([H])[H])C3([H])[H])C4([H])[H])c([H])c([H])c2C1([H])[H]

>  <smiles>  (30) 
[H]c1c([H])c([H])c2c(c1[H])C([H])([H])C([H])([H])C([H])([H])C2([H])N([H])C(=O)C1([H])N(C(=O)C([H])(N([H])C(=O)C([H])(N([H])C([H])([H])[H])C([H])([H])[H])C(C([H])([H])[H])(C([H])([H])[H])C([H])([H])[H])C([H])([H])c2c([H])c(OC([H])([H])C(=O)N([H])c3sc(N([H])[H])c4c3C([H])([H])N(C(=O)N3C([H])([H])C([H])([H])C([H])([H])C([H])(n5nc(-c6c([H])c([H])c(Oc7c([H])c([H])c(F)c([H])c7F)c([H])c6[H])c(C(=O)N([H])[H])c5N([H])[H])C3([H])[H])C4([H])[H])c([H])c([H])c2C1([H])[H]

$$$$
30:0:0
     RDKit          3D

 90 99  0  0  1  0  0  0  0  0999 V2000
  -28.9610  -23.4270   20.2220 C   0  0  0  0  0  0  0  0  0  0  0  0
  -28.5360  -22.0700   20.1440 N   0  0  0  0  0  0  0  0  0  0  0  0
  -30.1510  -23.6850   20.4260 O   0  0  0  0  0  0  0  0  0  0  0  0
  -27.5300  -22.0490   20.0370 H   0  0  0  0  0  0  0  0  0  0  0  0
  -30.5930  -15.0730   20.0730 C   0  0  0  0  0  0  0  0  0  0  0  0
  -30.4310  -12.7250   19.1090 C   0  0  0  0  0  2  0  0  0  0  0  0
  -29.4450  -12.6360   17.9220 C   0  0  0  0  0  2  0  0  0  0  0  0
  -28.0080  -12.3960   18.4210 C   0  0  0  0  0  2  0  0  0  0  0  0
  -27.6330  -13.3270   19.6000 C   0  0  0  0  0  3  0  0  0  0  0  0
  -28.7370  -13.3700   20.6800 C   0  0  0  0  0  2  0  0  0  0  0  0
  -29.9680  -13.8200   20.0150 N   0  0  0  0  0  0  0  0  0  0  0  0
  -31.7930  -15.0930   19.7760 O   0  0  0  0  0  0  0  0  0  0  0  0
  -31.0340  -18.8800   19.9090 C   0  0  0  0  0  3  0  0  0  0  0  0
  -30.5140  -20.2550   19.9450 C   0  0  0  0  0  3  0  0  0  0  0  0
  -28.2530  -19.5010   20.4120 C   0  0  0  0  0  3  0  0  0  0  0  0
  -28.7790  -18.1560   20.3880 C   0  0  0  0  0  0  0  0  0  0  0  0
  -30.1430  -17.7880   20.1340 C   0  0  0  0  0  0  0  0  0  0  0  0
  -29.1290  -20.6470   20.1830 C   0  0  0  0  0  0  0  0  0  0  0  0
  -28.4220  -16.6610   20.4960 C   0  0  0  0  0  2  0  0  0  0  0  0
  -29.8760  -16.3090   20.2260 N   0  0  0  0  0  0  0  0  0  0  0  0
  -25.2810  -13.8850   20.4500 C   0  0  0  0  0  0  0  0  0  0  0  0
  -24.2370  -13.0990   20.8520 C   0  0  0  0  0  0  0  0  0  0  0  0
  -24.7060  -11.7530   20.7730 C   0  0  0  0  0  0  0  0  0  0  0  0
  -26.3190  -13.0170   20.1520 N   0  0  0  0  0  0  0  0  0  0  0  0
  -25.9850  -11.7280   20.4140 N   0  0  0  0  0  0  0  0  0  0  0  0
  -23.9910  -10.4850   20.9600 C   0  0  0  0  0  0  0  0  0  0  0  0
  -24.4210   -9.5270   21.9040 C   0  0  0  0  0  3  0  0  0  0  0  0
  -23.7030   -8.3250   22.0790 C   0  0  0  0  0  3  0  0  0  0  0  0
  -22.5420   -8.0730   21.3120 C   0  0  0  0  0  0  0  0  0  0  0  0
  -22.1310   -9.0200   20.3570 C   0  0  0  0  0  3  0  0  0  0  0  0
  -22.8500  -10.2150   20.1790 C   0  0  0  0  0  3  0  0  0  0  0  0
  -21.7950   -6.9230   21.3970 O   0  0  0  0  0  0  0  0  0  0  0  0
  -21.6830   -6.2260   22.5730 C   0  0  0  0  0  0  0  0  0  0  0  0
  -21.1410   -6.8120   23.7390 C   0  0  0  0  0  3  0  0  0  0  0  0
  -20.9790   -6.0380   24.9050 C   0  0  0  0  0  3  0  0  0  0  0  0
  -21.3490   -4.6790   24.9070 C   0  0  0  0  0  0  0  0  0  0  0  0
  -21.8840   -4.0930   23.7460 C   0  0  0  0  0  3  0  0  0  0  0  0
  -22.0470   -4.8640   22.5820 C   0  0  0  0  0  0  0  0  0  0  0  0
  -22.5430   -4.2890   21.4590 F   0  0  0  0  0  0  0  0  0  0  0  0
  -21.1870   -3.9340   26.0250 F   0  0  0  0  0  0  0  0  0  0  0  0
  -22.8500  -13.5680   21.1830 C   0  0  0  0  0  0  0  0  0  0  0  0
  -22.1590  -12.8580   22.0660 N   0  0  0  0  0  0  0  0  0  0  0  0
  -22.3920  -14.6010   20.6940 O   0  0  0  0  0  0  0  0  0  0  0  0
  -22.5430  -12.0220   22.4820 H   0  0  0  0  0  0  0  0  0  0  0  0
  -21.2320  -13.1560   22.3330 H   0  0  0  0  0  0  0  0  0  0  0  0
  -25.4120  -15.2580   20.2820 N   0  0  0  0  0  0  0  0  0  0  0  0
  -24.6030  -15.8620   20.3770 H   0  0  0  0  0  0  0  0  0  0  0  0
  -26.1640  -15.6870   19.7650 H   0  0  0  0  0  0  0  0  0  0  0  0
  -27.9090  -24.7010   20.0350 C   0  0  0  0  0  2  0  0  0  0  0  0
  -28.2500  -26.2100   20.2610 O   0  0  0  0  0  0  0  0  0  0  0  0
  -24.6290  -31.8960   23.2850 C   0  0  0  0  0  0  0  0  0  0  0  0
  -27.2030  -27.2090   20.2040 C   0  0  0  0  0  0  0  0  0  0  0  0
  -23.4290  -30.5250   21.6270 C   0  0  0  0  0  3  0  0  0  0  0  0
  -24.8770  -28.9650   20.1870 C   0  0  0  0  0  0  0  0  0  0  0  0
  -25.9850  -30.7850   21.4700 C   0  0  0  0  0  2  0  0  0  0  0  0
  -26.0570  -29.4000   20.8020 C   0  0  0  0  0  0  0  0  0  0  0  0
  -27.2210  -28.5390   20.7920 C   0  0  0  0  0  3  0  0  0  0  0  0
  -25.9900  -26.8810   19.5530 C   0  0  0  0  0  3  0  0  0  0  0  0
  -24.8560  -27.7190   19.5460 C   0  0  0  0  0  3  0  0  0  0  0  0
  -23.6520  -29.8640   20.2410 C   0  0  0  0  0  2  0  0  0  0  0  0
  -24.7010  -31.0900   22.1820 N   0  0  0  0  0  0  0  0  0  0  0  0
  -23.5420  -32.1770   23.8140 O   0  0  0  0  0  0  0  0  0  0  0  0
  -22.7440  -29.5080   22.5750 C   0  0  0  0  0  0  0  0  0  0  0  0
  -21.4170  -29.3360   22.4380 N   0  0  0  0  0  0  0  0  0  0  0  0
  -23.4100  -28.8770   23.4000 O   0  0  0  0  0  0  0  0  0  0  0  0
  -20.9370  -29.8940   21.7460 H   0  0  0  0  0  0  0  0  0  0  0  0
  -18.0300  -28.1390   22.9210 C   0  0  0  0  0  0  0  0  0  0  0  0
  -20.5910  -28.3920   23.1950 C   0  0  0  0  0  3  0  0  0  0  0  0
  -20.6890  -26.9660   22.6040 C   0  0  0  0  0  2  0  0  0  0  0  0
  -19.5880  -26.6570   21.5850 C   0  0  0  0  0  2  0  0  0  0  0  0
  -18.2050  -26.7990   22.2270 C   0  0  0  0  0  2  0  0  0  0  0  0
  -19.1510  -28.8930   23.3610 C   0  0  0  0  0  0  0  0  0  0  0  0
  -18.9320  -30.1480   23.9710 C   0  0  0  0  0  3  0  0  0  0  0  0
  -17.6280  -30.6480   24.1440 C   0  0  0  0  0  3  0  0  0  0  0  0
  -16.5220  -29.8900   23.7170 C   0  0  0  0  0  3  0  0  0  0  0  0
  -16.7250  -28.6380   23.1130 C   0  0  0  0  0  3  0  0  0  0  0  0
  -25.9070  -32.5200   23.9230 C   0  0  0  0  0  3  0  0  0  0  0  0
  -25.6060  -33.9240   24.2470 N   0  0  0  0  0  0  0  0  0  0  0  0
  -25.9220  -34.9730   23.4760 C   0  0  0  0  0  0  0  0  0  0  0  0
  -26.5670  -34.8610   22.4280 O   0  0  0  0  0  0  0  0  0  0  0  0
  -25.0360  -34.0870   25.0640 H   0  0  0  0  0  0  0  0  0  0  0  0
  -24.1780  -36.7600   23.1750 C   0  0  0  0  0  1  0  0  0  0  0  0
  -25.4530  -36.3660   23.9380 C   0  0  0  0  0  3  0  0  0  0  0  0
  -27.6140  -37.2690   24.6730 C   0  0  0  0  0  1  0  0  0  0  0  0
  -26.4770  -37.4190   23.7690 N   0  0  0  0  0  0  0  0  0  0  0  0
  -26.0730  -38.3400   23.9190 H   0  0  0  0  0  0  0  0  0  0  0  0
  -26.3950  -31.7520   25.2130 C   0  0  1  0  0  0  0  0  0  0  0  0
  -25.2840  -31.5390   26.2660 C   0  0  0  0  0  1  0  0  0  0  0  0
  -26.9670  -30.3640   24.8430 C   0  0  0  0  0  1  0  0  0  0  0  0
  -27.5470  -32.5370   25.8830 C   0  0  0  0  0  1  0  0  0  0  0  0
  1  3  2  0
  2 18  1  0
  2  1  1  0
  4  2  1  0
  5 20  1  0
  6 11  1  0
  7  8  1  0
  7  6  1  0
  9  8  1  0
  9 24  1  0
  9 10  1  0
 11  5  1  0
 11 10  1  0
 12  5  2  0
 13 14  2  0
 13 17  1  0
 14 18  1  0
 16 15  1  0
 16 19  1  0
 17 20  1  0
 17 16  2  0
 18 15  2  0
 20 19  1  0
 21 22  2  0
 22 41  1  0
 23 22  1  0
 23 26  1  0
 24 25  1  0
 24 21  1  0
 25 23  2  0
 26 27  1  0
 27 28  2  0
 29 32  1  0
 29 28  1  0
 30 29  2  0
 31 30  1  0
 31 26  2  0
 32 33  1  0
 33 38  2  0
 33 34  1  0
 34 35  2  0
 35 36  1  0
 36 40  1  0
 37 36  2  0
 38 37  1  0
 39 38  1  0
 41 42  1  0
 42 45  1  0
 42 44  1  0
 43 41  2  0
 46 47  1  0
 46 21  1  0
 48 46  1  0
 49  1  1  0
 49 50  1  0
 51 62  2  0
 52 50  1  0
 52 57  1  0
 53 61  1  0
 53 63  1  0
 54 60  1  0
 54 56  1  0
 55 61  1  0
 56 55  1  0
 57 56  2  0
 58 52  2  0
 59 58  1  0
 59 54  2  0
 60 53  1  0
 61 51  1  0
 63 65  2  0
 64 63  1  0
 66 64  1  0
 67 76  2  0
 67 72  1  0
 68 64  1  0
 68 72  1  0
 69 68  1  0
 70 71  1  0
 70 69  1  0
 71 67  1  0
 72 73  2  0
 73 74  1  0
 75 74  2  0
 76 75  1  0
 77 51  1  0
 77 78  1  0
 77 87  1  0
 78 81  1  0
 79 83  1  0
 79 78  1  0
 80 79  2  0
 83 82  1  0
 85 86  1  0
 85 83  1  0
 85 84  1  0
 87 90  1  1
 87 88  1  0
 89 87  1  0
M  ISO  4   5 100  20 100  49 101  50 101
M  END
>  <TORSDO>  (31) 
F 17

>  <SCORE>  (31) 
-15.135

>  <name>  (31) 
30

>  <ligand_id>  (31) 
30

>  <original_smiles>  (31) 
[H]c1c([H])c([H])c2c(c1[H])C([H])([H])C([H])([H])C([H])([H])C2([H])N([H])C(=O)C1([H])N(C(=O)C([H])(N([H])C(=O)C([H])(N([H])C([H])([H])[H])C([H])([H])[H])C(C([H])([H])[H])(C([H])([H])[H])C([H])([H])[H])C([H])([H])c2c([H])c(OC([H])([H])C(=O)N([H])c3c([H])c([H])c4c(c3[H])C([H])([H])N4C(=O)N3C([H])([H])C([H])([H])C([H])([H])C([H])(n4nc(-c5c([H])c([H])c(Oc6c([H])c([H])c(F)c([H])c6F)c([H])c5[H])c(C(=O)N([H])[H])c4N([H])[H])C3([H])[H])c([H])c([H])c2C1([H])[H]

>  <smiles>  (31) 
[H]c1c([H])c([H])c2c(c1[H])C([H])([H])C([H])([H])C([H])([H])C2([H])N([H])C(=O)C1([H])N(C(=O)C([H])(N([H])C(=O)C([H])(N([H])C([H])([H])[H])C([H])([H])[H])C(C([H])([H])[H])(C([H])([H])[H])C([H])([H])[H])C([H])([H])c2c([H])c(OC([H])([H])C(=O)N([H])c3c([H])c([H])c4c(c3[H])C([H])([H])N4C(=O)N3C([H])([H])C([H])([H])C([H])([H])C([H])(n4nc(-c5c([H])c([H])c(Oc6c([H])c([H])c(F)c([H])c6F)c([H])c5[H])c(C(=O)N([H])[H])c4N([H])[H])C3([H])[H])c([H])c([H])c2C1([H])[H]

$$$$
31:0:0
     RDKit          3D

 94103  0  0  1  0  0  0  0  0999 V2000
  -27.6110  -19.9720   18.0650 C   0  0  0  0  0  3  0  0  0  0  0  0
  -27.8000  -21.1970   18.7100 C   0  0  0  0  0  3  0  0  0  0  0  0
  -28.9940  -20.0240   20.4960 C   0  0  0  0  0  3  0  0  0  0  0  0
  -28.1060  -18.7730   18.5950 C   0  0  0  0  0  0  0  0  0  0  0  0
  -28.8130  -18.7150   19.8360 C   0  0  0  0  0  0  0  0  0  0  0  0
  -28.4990  -21.3070   19.9310 C   0  0  0  0  0  0  0  0  0  0  0  0
  -27.8940  -17.5160   17.7480 C   0  0  0  0  0  2  0  0  0  0  0  0
  -29.1580  -16.6530   17.6250 C   0  0  0  0  0  2  0  0  0  0  0  0
  -30.1070  -16.8000   18.8210 C   0  0  0  0  0  2  0  0  0  0  0  0
  -29.3330  -17.1860   20.1080 C   0  0  0  0  0  3  0  0  0  0  0  0
  -30.6340  -15.2770   21.3460 C   0  0  0  0  0  0  0  0  0  0  0  0
  -30.6640  -12.9300   20.4640 C   0  0  0  0  0  2  0  0  0  0  0  0
  -29.9070  -12.8170   19.1230 C   0  0  0  0  0  2  0  0  0  0  0  0
  -28.4030  -12.5860   19.3590 C   0  0  0  0  0  2  0  0  0  0  0  0
  -27.8120  -13.5370   20.4330 C   0  0  0  0  0  3  0  0  0  0  0  0
  -28.7050  -13.6410   21.6870 C   0  0  0  0  0  2  0  0  0  0  0  0
  -30.0410  -14.0350   21.2330 N   0  0  0  0  0  0  0  0  0  0  0  0
  -31.8620  -15.3560   21.2620 O   0  0  0  0  0  0  0  0  0  0  0  0
  -29.8870  -16.4660   21.3370 N   0  0  0  0  0  0  0  0  0  0  0  0
  -30.3280  -17.1520   21.9300 H   0  0  0  0  0  0  0  0  0  0  0  0
  -25.3420  -14.0380   20.8700 C   0  0  0  0  0  0  0  0  0  0  0  0
  -24.2680  -13.2230   21.1040 C   0  0  0  0  0  0  0  0  0  0  0  0
  -24.7840  -11.8910   21.1530 C   0  0  0  0  0  0  0  0  0  0  0  0
  -26.4370  -13.1960   20.7680 N   0  0  0  0  0  0  0  0  0  0  0  0
  -26.1040  -11.9030   21.0120 N   0  0  0  0  0  0  0  0  0  0  0  0
  -24.0890  -10.6030   21.2680 C   0  0  0  0  0  0  0  0  0  0  0  0
  -24.4490   -9.6600   22.2560 C   0  0  0  0  0  3  0  0  0  0  0  0
  -23.7530   -8.4360   22.3620 C   0  0  0  0  0  3  0  0  0  0  0  0
  -22.6860   -8.1470   21.4790 C   0  0  0  0  0  0  0  0  0  0  0  0
  -22.3470   -9.0790   20.4840 C   0  0  0  0  0  3  0  0  0  0  0  0
  -23.0440  -10.2960   20.3750 C   0  0  0  0  0  3  0  0  0  0  0  0
  -21.9720   -6.9730   21.4890 O   0  0  0  0  0  0  0  0  0  0  0  0
  -21.8170   -6.2360   22.6350 C   0  0  0  0  0  0  0  0  0  0  0  0
  -21.2250   -6.7790   23.7960 C   0  0  0  0  0  3  0  0  0  0  0  0
  -21.0190   -5.9640   24.9280 C   0  0  0  0  0  3  0  0  0  0  0  0
  -21.3950   -4.6090   24.8980 C   0  0  0  0  0  0  0  0  0  0  0  0
  -21.9810   -4.0650   23.7410 C   0  0  0  0  0  3  0  0  0  0  0  0
  -22.1870   -4.8770   22.6120 C   0  0  0  0  0  0  0  0  0  0  0  0
  -22.7300   -4.3430   21.4920 F   0  0  0  0  0  0  0  0  0  0  0  0
  -21.1930   -3.8230   25.9830 F   0  0  0  0  0  0  0  0  0  0  0  0
  -22.8310  -13.6470   21.1820 C   0  0  0  0  0  0  0  0  0  0  0  0
  -22.0270  -12.9350   21.9630 N   0  0  0  0  0  0  0  0  0  0  0  0
  -22.4220  -14.6440   20.5890 O   0  0  0  0  0  0  0  0  0  0  0  0
  -22.3670  -12.1280   22.4630 H   0  0  0  0  0  0  0  0  0  0  0  0
  -21.0590  -13.2040   22.0670 H   0  0  0  0  0  0  0  0  0  0  0  0
  -25.4810  -15.4140   20.7160 N   0  0  0  0  0  0  0  0  0  0  0  0
  -24.7000  -16.0550   20.8180 H   0  0  0  0  0  0  0  0  0  0  0  0
  -26.3720  -15.8840   20.6540 H   0  0  0  0  0  0  0  0  0  0  0  0
  -28.3810  -23.9650   19.9170 C   0  0  0  0  0  0  0  0  0  0  0  0
  -28.5560  -22.6970   20.5140 N   0  0  0  0  0  0  0  0  0  0  0  0
  -28.5550  -24.1120   18.7040 O   0  0  0  0  0  0  0  0  0  0  0  0
  -28.6250  -22.7310   21.5210 H   0  0  0  0  0  0  0  0  0  0  0  0
  -28.0120  -25.3020   20.7560 C   0  0  0  0  0  2  0  0  0  0  0  0
  -28.1000  -26.6800   20.1160 O   0  0  0  0  0  0  0  0  0  0  0  0
  -24.6860  -32.2000   23.4910 C   0  0  0  0  0  0  0  0  0  0  0  0
  -27.0270  -27.6060   20.2080 C   0  0  0  0  0  0  0  0  0  0  0  0
  -23.3800  -30.9010   21.8470 C   0  0  0  0  0  3  0  0  0  0  0  0
  -24.7290  -29.3430   20.3200 C   0  0  0  0  0  0  0  0  0  0  0  0
  -25.9270  -31.1300   21.5850 C   0  0  0  0  0  2  0  0  0  0  0  0
  -25.9390  -29.7640   20.8890 C   0  0  0  0  0  0  0  0  0  0  0  0
  -27.0940  -28.9130   20.8100 C   0  0  0  0  0  3  0  0  0  0  0  0
  -25.7930  -27.2490   19.6350 C   0  0  0  0  0  3  0  0  0  0  0  0
  -24.6640  -28.0950   19.6830 C   0  0  0  0  0  3  0  0  0  0  0  0
  -23.5260  -30.2620   20.4400 C   0  0  0  0  0  2  0  0  0  0  0  0
  -24.6860  -31.4280   22.3630 N   0  0  0  0  0  0  0  0  0  0  0  0
  -23.6290  -32.4930   24.0710 O   0  0  0  0  0  0  0  0  0  0  0  0
  -22.7120  -29.8750   22.7970 C   0  0  0  0  0  0  0  0  0  0  0  0
  -21.3930  -29.6650   22.6370 N   0  0  0  0  0  0  0  0  0  0  0  0
  -23.3800  -29.2720   23.6390 O   0  0  0  0  0  0  0  0  0  0  0  0
  -20.9070  -30.2030   21.9330 H   0  0  0  0  0  0  0  0  0  0  0  0
  -18.0610  -28.2900   22.9640 C   0  0  0  0  0  0  0  0  0  0  0  0
  -20.5770  -28.7100   23.3920 C   0  0  0  0  0  3  0  0  0  0  0  0
  -20.7980  -27.2660   22.8840 C   0  0  0  0  0  2  0  0  0  0  0  0
  -19.7900  -26.8420   21.8120 C   0  0  0  0  0  2  0  0  0  0  0  0
  -18.3610  -26.9290   22.3560 C   0  0  0  0  0  2  0  0  0  0  0  0
  -19.1030  -29.1310   23.4350 C   0  0  0  0  0  0  0  0  0  0  0  0
  -18.7740  -30.3980   23.9620 C   0  0  0  0  0  3  0  0  0  0  0  0
  -17.4350  -30.8290   24.0230 C   0  0  0  0  0  3  0  0  0  0  0  0
  -16.4060  -29.9850   23.5700 C   0  0  0  0  0  3  0  0  0  0  0  0
  -16.7180  -28.7190   23.0460 C   0  0  0  0  0  3  0  0  0  0  0  0
  -26.0060  -32.7700   24.0920 C   0  0  0  0  0  3  0  0  0  0  0  0
  -25.7520  -34.1650   24.4830 N   0  0  0  0  0  0  0  0  0  0  0  0
  -26.1250  -35.2380   23.7700 C   0  0  0  0  0  0  0  0  0  0  0  0
  -26.7880  -35.1530   22.7330 O   0  0  0  0  0  0  0  0  0  0  0  0
  -25.1630  -34.3090   25.2890 H   0  0  0  0  0  0  0  0  0  0  0  0
  -24.4800  -37.1230   23.4960 C   0  0  0  0  0  1  0  0  0  0  0  0
  -25.6960  -36.6240   24.2920 C   0  0  0  0  0  3  0  0  0  0  0  0
  -27.8630  -37.3730   25.1710 C   0  0  0  0  0  1  0  0  0  0  0  0
  -26.7750  -37.6360   24.2340 N   0  0  0  0  0  0  0  0  0  0  0  0
  -26.4070  -38.5640   24.4220 H   0  0  0  0  0  0  0  0  0  0  0  0
  -26.5370  -31.9390   25.3250 C   0  0  1  0  0  0  0  0  0  0  0  0
  -25.4700  -31.6900   26.4160 C   0  0  0  0  0  1  0  0  0  0  0  0
  -27.0740  -30.5630   24.8680 C   0  0  0  0  0  1  0  0  0  0  0  0
  -27.7260  -32.6810   25.9820 C   0  0  0  0  0  1  0  0  0  0  0  0
  1  4  2  0
  1  2  1  0
  2  6  2  0
  4  5  1  0
  5 10  1  0
  5  3  2  0
  6  3  1  0
  6 50  1  0
  7  4  1  0
  8  7  1  0
  8  9  1  0
  9 10  1  0
 10 19  1  0
 12 17  1  0
 13 14  1  0
 13 12  1  0
 15 14  1  0
 15 24  1  0
 15 16  1  0
 17 11  1  0
 17 16  1  0
 18 11  2  0
 19 11  1  0
 19 20  1  0
 21 22  2  0
 22 23  1  0
 22 41  1  0
 23 26  1  0
 24 21  1  0
 24 25  1  0
 25 23  2  0
 26 27  1  0
 27 28  2  0
 29 32  1  0
 29 28  1  0
 30 29  2  0
 31 30  1  0
 31 26  2  0
 32 33  1  0
 33 34  1  0
 34 35  2  0
 36 35  1  0
 36 40  1  0
 37 36  2  0
 38 33  2  0
 38 37  1  0
 39 38  1  0
 41 42  1  0
 42 45  1  0
 42 44  1  0
 43 41  2  0
 46 47  1  0
 46 21  1  0
 48 46  1  0
 49 50  1  0
 49 53  1  0
 50 52  1  0
 51 49  2  0
 54 56  1  0
 54 53  1  0
 55 66  2  0
 56 61  1  0
 57 65  1  0
 57 67  1  0
 58 64  1  0
 58 60  1  0
 59 65  1  0
 60 59  1  0
 61 60  2  0
 62 63  1  0
 62 56  2  0
 63 58  2  0
 64 57  1  0
 65 55  1  0
 67 69  2  0
 68 67  1  0
 70 68  1  0
 71 80  2  0
 71 76  1  0
 72 68  1  0
 72 76  1  0
 73 72  1  0
 74 75  1  0
 74 73  1  0
 75 71  1  0
 76 77  2  0
 77 78  1  0
 79 78  2  0
 80 79  1  0
 81 55  1  0
 81 82  1  0
 81 91  1  0
 82 85  1  0
 83 87  1  0
 83 82  1  0
 84 83  2  0
 87 86  1  0
 89 87  1  0
 89 90  1  0
 89 88  1  0
 91 94  1  1
 91 92  1  0
 93 91  1  0
M  ISO  4  11 100  19 100  53 101  54 101
M  END
>  <TORSDO>  (32) 
F 18

>  <SCORE>  (32) 
-11.973

>  <name>  (32) 
31

>  <ligand_id>  (32) 
31

>  <original_smiles>  (32) 
[H]c1c([H])c([H])c2c(c1[H])C([H])([H])C([H])([H])C([H])([H])C2([H])N([H])C(=O)C1([H])N(C(=O)C([H])(N([H])C(=O)C([H])(N([H])C([H])([H])[H])C([H])([H])[H])C(C([H])([H])[H])(C([H])([H])[H])C([H])([H])[H])C([H])([H])c2c([H])c(OC([H])([H])C(=O)N([H])c3c([H])c([H])c4c(c3[H])C([H])(N([H])C(=O)N3C([H])([H])C([H])([H])C([H])([H])C([H])(n5nc(-c6c([H])c([H])c(Oc7c([H])c([H])c(F)c([H])c7F)c([H])c6[H])c(C(=O)N([H])[H])c5N([H])[H])C3([H])[H])C([H])([H])C([H])([H])C4([H])[H])c([H])c([H])c2C1([H])[H]

>  <smiles>  (32) 
[H]c1c([H])c([H])c2c(c1[H])C([H])([H])C([H])([H])C([H])([H])C2([H])N([H])C(=O)C1([H])N(C(=O)C([H])(N([H])C(=O)C([H])(N([H])C([H])([H])[H])C([H])([H])[H])C(C([H])([H])[H])(C([H])([H])[H])C([H])([H])[H])C([H])([H])c2c([H])c(OC([H])([H])C(=O)N([H])c3c([H])c([H])c4c(c3[H])C([H])(N([H])C(=O)N3C([H])([H])C([H])([H])C([H])([H])C([H])(n5nc(-c6c([H])c([H])c(Oc7c([H])c([H])c(F)c([H])c7F)c([H])c6[H])c(C(=O)N([H])[H])c5N([H])[H])C3([H])[H])C([H])([H])C([H])([H])C4([H])[H])c([H])c([H])c2C1([H])[H]

$$$$
32:0:0
     RDKit          3D

 90 99  0  0  1  0  0  0  0  0999 V2000
  -28.8230  -22.8710   20.4830 N   0  0  0  0  0  0  0  0  0  0  0  0
  -29.2150  -23.1290   21.3880 H   0  0  0  0  0  0  0  0  0  0  0  0
  -30.3870  -15.4270   19.9860 C   0  0  0  0  0  0  0  0  0  0  0  0
  -30.3700  -12.9820   19.1030 C   0  0  0  0  0  2  0  0  0  0  0  0
  -29.3910  -12.7110   17.9350 C   0  0  0  0  0  2  0  0  0  0  0  0
  -27.9840  -12.4130   18.4720 C   0  0  0  0  0  2  0  0  0  0  0  0
  -27.5710  -13.3910   19.5950 C   0  0  0  0  0  3  0  0  0  0  0  0
  -28.6680  -13.5640   20.6600 C   0  0  0  0  0  2  0  0  0  0  0  0
  -29.8330  -14.1140   19.9460 N   0  0  0  0  0  0  0  0  0  0  0  0
  -31.6120  -15.4180   19.7840 O   0  0  0  0  0  0  0  0  0  0  0  0
  -30.1380  -19.1530   21.4660 C   0  0  0  0  0  3  0  0  0  0  0  0
  -29.7860  -20.5960   21.3520 C   0  0  0  0  0  3  0  0  0  0  0  0
  -28.5630  -20.2800   19.3260 C   0  0  0  0  0  3  0  0  0  0  0  0
  -28.9140  -18.8220   19.4450 C   0  0  0  0  0  0  0  0  0  0  0  0
  -29.7250  -18.1900   20.4760 C   0  0  0  0  0  0  0  0  0  0  0  0
  -29.0100  -21.3210   20.3170 C   0  0  0  0  0  0  0  0  0  0  0  0
  -28.7440  -17.3590   18.8670 C   0  0  0  0  0  2  0  0  0  0  0  0
  -29.6070  -16.7140   19.9960 N   0  0  0  0  0  0  0  0  0  0  0  0
  -25.2530  -13.9230   20.4980 C   0  0  0  0  0  0  0  0  0  0  0  0
  -24.2150  -13.1350   20.8940 C   0  0  0  0  0  0  0  0  0  0  0  0
  -24.6770  -11.7850   20.7990 C   0  0  0  0  0  0  0  0  0  0  0  0
  -26.2800  -13.0580   20.1720 N   0  0  0  0  0  0  0  0  0  0  0  0
  -25.9520  -11.7630   20.4210 N   0  0  0  0  0  0  0  0  0  0  0  0
  -23.9660  -10.5180   20.9860 C   0  0  0  0  0  0  0  0  0  0  0  0
  -24.4120   -9.5480   21.9100 C   0  0  0  0  0  3  0  0  0  0  0  0
  -23.6940   -8.3450   22.0820 C   0  0  0  0  0  3  0  0  0  0  0  0
  -22.5120   -8.1090   21.3410 C   0  0  0  0  0  0  0  0  0  0  0  0
  -22.0860   -9.0700   20.4070 C   0  0  0  0  0  3  0  0  0  0  0  0
  -22.8050  -10.2620   20.2320 C   0  0  0  0  0  3  0  0  0  0  0  0
  -21.7610   -6.9630   21.4340 O   0  0  0  0  0  0  0  0  0  0  0  0
  -21.6910   -6.2410   22.5990 C   0  0  0  0  0  0  0  0  0  0  0  0
  -21.2020   -6.8010   23.7990 C   0  0  0  0  0  3  0  0  0  0  0  0
  -21.0850   -6.0010   24.9550 C   0  0  0  0  0  3  0  0  0  0  0  0
  -21.4400   -4.6390   24.9050 C   0  0  0  0  0  0  0  0  0  0  0  0
  -21.9220   -4.0790   23.7090 C   0  0  0  0  0  3  0  0  0  0  0  0
  -22.0470   -4.8780   22.5600 C   0  0  0  0  0  0  0  0  0  0  0  0
  -22.4920   -4.3240   21.4040 F   0  0  0  0  0  0  0  0  0  0  0  0
  -21.3160   -3.8680   26.0120 F   0  0  0  0  0  0  0  0  0  0  0  0
  -22.8320  -13.6000   21.2400 C   0  0  0  0  0  0  0  0  0  0  0  0
  -22.1410  -12.8830   22.1100 N   0  0  0  0  0  0  0  0  0  0  0  0
  -22.3800  -14.6460   20.7710 O   0  0  0  0  0  0  0  0  0  0  0  0
  -22.5200  -12.0440   22.5300 H   0  0  0  0  0  0  0  0  0  0  0  0
  -21.2150  -13.1870   22.3780 H   0  0  0  0  0  0  0  0  0  0  0  0
  -25.4100  -15.3030   20.3590 N   0  0  0  0  0  0  0  0  0  0  0  0
  -24.6460  -15.9420   20.5510 H   0  0  0  0  0  0  0  0  0  0  0  0
  -26.2430  -15.7660   20.0220 H   0  0  0  0  0  0  0  0  0  0  0  0
  -28.8100  -24.2890   18.4160 C   0  0  0  0  0  1  0  0  0  0  0  0
  -26.6150  -23.7620   19.6160 C   0  0  0  0  0  1  0  0  0  0  0  0
  -28.0920  -24.2120   19.7820 C   0  0  1  0  0  0  0  0  0  0  0  0
  -28.1450  -25.7920   20.3090 O   0  0  0  0  0  0  0  0  0  0  0  0
  -24.6620  -31.8850   23.2700 C   0  0  0  0  0  0  0  0  0  0  0  0
  -27.1610  -26.9460   20.1840 C   0  0  0  0  0  0  0  0  0  0  0  0
  -23.4700  -30.5030   21.6350 C   0  0  0  0  0  3  0  0  0  0  0  0
  -24.8920  -28.9040   20.1790 C   0  0  0  0  0  0  0  0  0  0  0  0
  -26.0440  -30.6660   21.4940 C   0  0  0  0  0  2  0  0  0  0  0  0
  -26.0860  -29.2590   20.8160 C   0  0  0  0  0  0  0  0  0  0  0  0
  -27.2060  -28.3040   20.7980 C   0  0  0  0  0  3  0  0  0  0  0  0
  -25.9510  -26.7980   19.4600 C   0  0  0  0  0  3  0  0  0  0  0  0
  -24.8510  -27.6910   19.4800 C   0  0  0  0  0  3  0  0  0  0  0  0
  -23.7010  -29.8620   20.2430 C   0  0  0  0  0  2  0  0  0  0  0  0
  -24.7510  -31.0460   22.1890 N   0  0  0  0  0  0  0  0  0  0  0  0
  -23.5730  -32.1840   23.7840 O   0  0  0  0  0  0  0  0  0  0  0  0
  -22.7670  -29.4990   22.5870 C   0  0  0  0  0  0  0  0  0  0  0  0
  -21.4350  -29.3420   22.4600 N   0  0  0  0  0  0  0  0  0  0  0  0
  -23.4220  -28.8650   23.4160 O   0  0  0  0  0  0  0  0  0  0  0  0
  -20.9510  -29.9130   21.7820 H   0  0  0  0  0  0  0  0  0  0  0  0
  -18.0460  -28.1210   22.9540 C   0  0  0  0  0  0  0  0  0  0  0  0
  -20.6070  -28.4000   23.2230 C   0  0  0  0  0  3  0  0  0  0  0  0
  -20.7160  -26.9660   22.6520 C   0  0  0  0  0  2  0  0  0  0  0  0
  -19.6160  -26.6410   21.6370 C   0  0  0  0  0  2  0  0  0  0  0  0
  -18.2300  -26.7750   22.2740 C   0  0  0  0  0  2  0  0  0  0  0  0
  -19.1590  -28.8890   23.3850 C   0  0  0  0  0  0  0  0  0  0  0  0
  -18.9290  -30.1470   23.9850 C   0  0  0  0  0  3  0  0  0  0  0  0
  -17.6190  -30.6380   24.1550 C   0  0  0  0  0  3  0  0  0  0  0  0
  -16.5200  -29.8690   23.7320 C   0  0  0  0  0  3  0  0  0  0  0  0
  -16.7340  -28.6160   23.1330 C   0  0  0  0  0  3  0  0  0  0  0  0
  -25.9310  -32.5260   23.9100 C   0  0  0  0  0  3  0  0  0  0  0  0
  -25.6210  -33.9340   24.2240 N   0  0  0  0  0  0  0  0  0  0  0  0
  -25.9340  -34.9870   23.4550 C   0  0  0  0  0  0  0  0  0  0  0  0
  -26.5780  -34.8750   22.4070 O   0  0  0  0  0  0  0  0  0  0  0  0
  -25.0360  -34.0950   25.0300 H   0  0  0  0  0  0  0  0  0  0  0  0
  -24.1890  -36.7880   23.1540 C   0  0  0  0  0  1  0  0  0  0  0  0
  -25.4620  -36.3840   23.9180 C   0  0  0  0  0  3  0  0  0  0  0  0
  -27.6250  -37.2880   24.6570 C   0  0  0  0  0  1  0  0  0  0  0  0
  -26.4880  -37.4370   23.7520 N   0  0  0  0  0  0  0  0  0  0  0  0
  -26.0880  -38.3590   23.9010 H   0  0  0  0  0  0  0  0  0  0  0  0
  -26.4110  -31.7780   25.2130 C   0  0  1  0  0  0  0  0  0  0  0  0
  -25.3000  -31.5660   26.2670 C   0  0  0  0  0  1  0  0  0  0  0  0
  -26.9910  -30.3910   24.8600 C   0  0  0  0  0  1  0  0  0  0  0  0
  -27.5580  -32.5760   25.8780 C   0  0  0  0  0  1  0  0  0  0  0  0
  1  2  1  0
  3 18  1  0
  4  9  1  0
  5  6  1  0
  5  4  1  0
  7  6  1  0
  7 22  1  0
  7  8  1  0
  9  3  1  0
  9  8  1  0
 10  3  2  0
 12 11  1  0
 13 14  2  0
 13 16  1  0
 14 15  1  0
 15 11  2  0
 16  1  1  0
 16 12  2  0
 17 14  1  0
 17 18  1  0
 18 15  1  0
 19 20  2  0
 20 39  1  0
 21 20  1  0
 21 24  1  0
 22 23  1  0
 22 19  1  0
 23 21  2  0
 24 25  1  0
 25 26  2  0
 27 30  1  0
 27 26  1  0
 28 27  2  0
 29 28  1  0
 29 24  2  0
 30 31  1  0
 31 32  1  0
 32 33  2  0
 34 33  1  0
 34 38  1  0
 35 34  2  0
 36 31  2  0
 36 35  1  0
 37 36  1  0
 39 40  1  0
 40 43  1  0
 40 42  1  0
 41 39  2  0
 44 19  1  0
 44 45  1  0
 46 44  1  0
 49 47  1  6
 48 49  1  0
 49 50  1  0
 49  1  1  0
 51 62  2  0
 52 50  1  0
 52 57  1  0
 53 61  1  0
 53 63  1  0
 54 60  1  0
 54 56  1  0
 55 61  1  0
 56 55  1  0
 57 56  2  0
 58 59  1  0
 58 52  2  0
 59 54  2  0
 60 53  1  0
 61 51  1  0
 63 65  2  0
 64 63  1  0
 66 64  1  0
 67 76  2  0
 67 72  1  0
 68 64  1  0
 68 72  1  0
 69 68  1  0
 70 71  1  0
 70 69  1  0
 71 67  1  0
 72 73  2  0
 73 74  1  0
 75 74  2  0
 76 75  1  0
 77 51  1  0
 77 78  1  0
 77 87  1  0
 78 81  1  0
 79 83  1  0
 79 78  1  0
 80 79  2  0
 83 82  1  0
 85 86  1  0
 85 83  1  0
 85 84  1  0
 87 90  1  1
 87 88  1  0
 89 87  1  0
M  ISO  4   3 100  18 100  49 101  50 101
M  END
>  <TORSDO>  (33) 
F 17

>  <SCORE>  (33) 
-16.500

>  <name>  (33) 
32

>  <ligand_id>  (33) 
32

>  <original_smiles>  (33) 
[H]c1c([H])c([H])c2c(c1[H])C([H])([H])C([H])([H])C([H])([H])C2([H])N([H])C(=O)C1([H])N(C(=O)C([H])(N([H])C(=O)C([H])(N([H])C([H])([H])[H])C([H])([H])[H])C(C([H])([H])[H])(C([H])([H])[H])C([H])([H])[H])C([H])([H])c2c([H])c(OC(N([H])c3c([H])c([H])c4c(c3[H])C([H])([H])N4C(=O)N3C([H])([H])C([H])([H])C([H])([H])C([H])(n4nc(-c5c([H])c([H])c(Oc6c([H])c([H])c(F)c([H])c6F)c([H])c5[H])c(C(=O)N([H])[H])c4N([H])[H])C3([H])[H])(C([H])([H])[H])C([H])([H])[H])c([H])c([H])c2C1([H])[H]

>  <smiles>  (33) 
[H]c1c([H])c([H])c2c(c1[H])C([H])([H])C([H])([H])C([H])([H])C2([H])N([H])C(=O)C1([H])N(C(=O)C([H])(N([H])C(=O)C([H])(N([H])C([H])([H])[H])C([H])([H])[H])C(C([H])([H])[H])(C([H])([H])[H])C([H])([H])[H])C([H])([H])c2c([H])c(OC(N([H])c3c([H])c([H])c4c(c3[H])C([H])([H])N4C(=O)N3C([H])([H])C([H])([H])C([H])([H])C([H])(n4nc(-c5c([H])c([H])c(Oc6c([H])c([H])c(F)c([H])c6F)c([H])c5[H])c(C(=O)N([H])[H])c4N([H])[H])C3([H])[H])(C([H])([H])[H])C([H])([H])[H])c([H])c([H])c2C1([H])[H]

$$$$
33:0:0
     RDKit          3D

 95103  0  0  1  0  0  0  0  0999 V2000
  -29.2750  -18.8480   19.3800 C   0  0  0  0  0  3  0  0  0  0  0  0
  -28.8180  -20.1760   19.1410 C   0  0  0  0  0  3  0  0  0  0  0  0
  -30.0410  -18.5370   20.5290 C   0  0  0  0  0  0  0  0  0  0  0  0
  -29.1360  -21.2240   20.0350 C   0  0  0  0  0  0  0  0  0  0  0  0
  -30.2570  -19.6590   21.4020 C   0  0  0  0  0  0  0  0  0  0  0  0
  -29.8300  -20.9390   21.1630 N   0  0  0  0  0  0  0  0  0  0  0  0
  -28.7050  -22.5530   19.7340 N   0  0  0  0  0  0  0  0  0  0  0  0
  -28.1590  -22.6440   18.8860 H   0  0  0  0  0  0  0  0  0  0  0  0
  -30.8560  -14.7610   20.1580 C   0  0  0  0  0  0  0  0  0  0  0  0
  -30.5090  -12.5430   19.0900 C   0  0  0  0  0  2  0  0  0  0  0  0
  -29.5320  -12.6480   17.9020 C   0  0  0  0  0  2  0  0  0  0  0  0
  -28.0830  -12.4810   18.3920 C   0  0  0  0  0  2  0  0  0  0  0  0
  -27.7600  -13.3750   19.6200 C   0  0  0  0  0  3  0  0  0  0  0  0
  -28.8560  -13.2870   20.7040 C   0  0  0  0  0  2  0  0  0  0  0  0
  -30.1360  -13.5980   20.0560 N   0  0  0  0  0  0  0  0  0  0  0  0
  -32.0370  -14.7590   19.7980 O   0  0  0  0  0  0  0  0  0  0  0  0
  -30.7810  -17.1770   20.6540 C   0  0  0  0  0  0  0  0  0  0  0  0
  -30.1930  -15.9480   20.4150 N   0  0  0  0  0  0  0  0  0  0  0  0
  -31.9670  -17.2610   20.9870 O   0  0  0  0  0  0  0  0  0  0  0  0
  -29.1880  -15.9220   20.3990 H   0  0  0  0  0  0  0  0  0  0  0  0
  -25.4040  -13.9700   20.4460 C   0  0  0  0  0  0  0  0  0  0  0  0
  -24.3480  -13.1960   20.8450 C   0  0  0  0  0  0  0  0  0  0  0  0
  -24.8030  -11.8440   20.7790 C   0  0  0  0  0  0  0  0  0  0  0  0
  -26.4330  -13.0890   20.1590 N   0  0  0  0  0  0  0  0  0  0  0  0
  -26.0820  -11.8050   20.4260 N   0  0  0  0  0  0  0  0  0  0  0  0
  -24.0770  -10.5820   20.9750 C   0  0  0  0  0  0  0  0  0  0  0  0
  -24.5190   -9.6120   21.9010 C   0  0  0  0  0  3  0  0  0  0  0  0
  -23.7950   -8.4160   22.0860 C   0  0  0  0  0  3  0  0  0  0  0  0
  -22.6130   -8.1800   21.3440 C   0  0  0  0  0  0  0  0  0  0  0  0
  -22.1890   -9.1380   20.4060 C   0  0  0  0  0  3  0  0  0  0  0  0
  -22.9150  -10.3260   20.2200 C   0  0  0  0  0  3  0  0  0  0  0  0
  -21.8580   -7.0360   21.4410 O   0  0  0  0  0  0  0  0  0  0  0  0
  -21.7930   -6.3100   22.6020 C   0  0  0  0  0  0  0  0  0  0  0  0
  -21.3270   -6.8750   23.8090 C   0  0  0  0  0  3  0  0  0  0  0  0
  -21.2120   -6.0750   24.9620 C   0  0  0  0  0  3  0  0  0  0  0  0
  -21.5530   -4.7110   24.9100 C   0  0  0  0  0  0  0  0  0  0  0  0
  -22.0120   -4.1440   23.7080 C   0  0  0  0  0  3  0  0  0  0  0  0
  -22.1300   -4.9420   22.5570 C   0  0  0  0  0  0  0  0  0  0  0  0
  -22.5530   -4.3870   21.3940 F   0  0  0  0  0  0  0  0  0  0  0  0
  -21.4350   -3.9390   26.0160 F   0  0  0  0  0  0  0  0  0  0  0  0
  -22.9630  -13.6760   21.1670 C   0  0  0  0  0  0  0  0  0  0  0  0
  -22.2590  -12.9730   22.0460 N   0  0  0  0  0  0  0  0  0  0  0  0
  -22.5130  -14.7090   20.6730 O   0  0  0  0  0  0  0  0  0  0  0  0
  -22.6360  -12.1380   22.4680 H   0  0  0  0  0  0  0  0  0  0  0  0
  -21.3300  -13.2760   22.3040 H   0  0  0  0  0  0  0  0  0  0  0  0
  -25.5700  -15.3420   20.2810 N   0  0  0  0  0  0  0  0  0  0  0  0
  -24.8060  -15.9960   20.4140 H   0  0  0  0  0  0  0  0  0  0  0  0
  -26.3980  -15.7790   19.8980 H   0  0  0  0  0  0  0  0  0  0  0  0
  -30.9280  -19.5530   22.6160 N   0  0  0  0  0  0  0  0  0  0  0  0
  -31.3940  -18.7010   22.9030 H   0  0  0  0  0  0  0  0  0  0  0  0
  -31.0870  -20.3640   23.2040 H   0  0  0  0  0  0  0  0  0  0  0  0
  -29.0900  -23.8740   20.3300 C   0  0  0  0  0  2  0  0  0  0  0  0
  -28.8980  -25.2030   18.1280 C   0  0  0  0  0  1  0  0  0  0  0  0
  -28.4080  -25.1130   19.5820 C   0  0  0  0  0  3  0  0  0  0  0  0
  -28.4740  -26.5100   20.1050 O   0  0  0  0  0  0  0  0  0  0  0  0
  -24.6140  -31.7800   23.1820 C   0  0  0  0  0  0  0  0  0  0  0  0
  -27.3500  -27.3600   20.0190 C   0  0  0  0  0  0  0  0  0  0  0  0
  -23.4590  -30.4020   21.4910 C   0  0  0  0  0  3  0  0  0  0  0  0
  -24.9570  -28.9460   20.0270 C   0  0  0  0  0  0  0  0  0  0  0  0
  -25.9930  -30.7810   21.3470 C   0  0  0  0  0  2  0  0  0  0  0  0
  -26.1090  -29.4260   20.6630 C   0  0  0  0  0  0  0  0  0  0  0  0
  -27.3030  -28.6420   20.6580 C   0  0  0  0  0  3  0  0  0  0  0  0
  -26.1760  -26.9670   19.3250 C   0  0  0  0  0  3  0  0  0  0  0  0
  -24.9950  -27.7230   19.3490 C   0  0  0  0  0  3  0  0  0  0  0  0
  -23.7010  -29.7890   20.0890 C   0  0  0  0  0  2  0  0  0  0  0  0
  -24.7070  -31.0040   22.0630 N   0  0  0  0  0  0  0  0  0  0  0  0
  -23.5190  -32.0160   23.7140 O   0  0  0  0  0  0  0  0  0  0  0  0
  -22.8180  -29.3330   22.4080 C   0  0  0  0  0  0  0  0  0  0  0  0
  -21.4990  -29.1250   22.2610 N   0  0  0  0  0  0  0  0  0  0  0  0
  -23.5030  -28.6970   23.2140 O   0  0  0  0  0  0  0  0  0  0  0  0
  -20.9980  -29.6910   21.5900 H   0  0  0  0  0  0  0  0  0  0  0  0
  -18.1480  -27.8280   22.6870 C   0  0  0  0  0  0  0  0  0  0  0  0
  -20.6960  -28.1450   22.9970 C   0  0  0  0  0  3  0  0  0  0  0  0
  -20.8420  -26.7330   22.3850 C   0  0  0  0  0  2  0  0  0  0  0  0
  -19.7630  -26.4100   21.3470 C   0  0  0  0  0  2  0  0  0  0  0  0
  -18.3690  -26.5020   21.9780 C   0  0  0  0  0  2  0  0  0  0  0  0
  -19.2410  -28.6080   23.1510 C   0  0  0  0  0  0  0  0  0  0  0  0
  -18.9820  -29.8480   23.7720 C   0  0  0  0  0  3  0  0  0  0  0  0
  -17.6630  -30.3130   23.9330 C   0  0  0  0  0  3  0  0  0  0  0  0
  -16.5830  -29.5300   23.4890 C   0  0  0  0  0  3  0  0  0  0  0  0
  -16.8280  -28.2900   22.8710 C   0  0  0  0  0  3  0  0  0  0  0  0
  -25.8790  -32.4280   23.8290 C   0  0  0  0  0  3  0  0  0  0  0  0
  -26.3870  -31.6540   25.1040 C   0  0  1  0  0  0  0  0  0  0  0  0
  -25.2800  -31.3870   26.1480 C   0  0  0  0  0  1  0  0  0  0  0  0
  -26.9980  -30.2900   24.7090 C   0  0  0  0  0  1  0  0  0  0  0  0
  -27.5120  -32.4590   25.7950 C   0  0  0  0  0  1  0  0  0  0  0  0
  -25.5400  -33.8150   24.1700 N   0  0  0  0  0  0  0  0  0  0  0  0
  -25.8430  -34.8820   23.4180 C   0  0  0  0  0  0  0  0  0  0  0  0
  -26.5140  -34.8030   22.3860 O   0  0  0  0  0  0  0  0  0  0  0  0
  -24.9600  -33.9480   24.9850 H   0  0  0  0  0  0  0  0  0  0  0  0
  -24.0720  -36.6350   23.0850 C   0  0  0  0  0  1  0  0  0  0  0  0
  -25.3230  -36.2530   23.8920 C   0  0  0  0  0  3  0  0  0  0  0  0
  -27.4330  -37.1850   24.7320 C   0  0  0  0  0  1  0  0  0  0  0  0
  -26.3280  -37.3320   23.7890 N   0  0  0  0  0  0  0  0  0  0  0  0
  -25.8980  -38.2390   23.9480 H   0  0  0  0  0  0  0  0  0  0  0  0
  1  3  1  0
  2  1  2  0
  2  4  1  0
  3 17  1  0
  3  5  2  0
  4  6  2  0
  5 49  1  0
  6  5  1  0
  7  4  1  0
  7 52  1  0
  8  7  1  0
  9 18  1  0
 10 15  1  0
 11 12  1  0
 11 10  1  0
 13 12  1  0
 13 24  1  0
 13 14  1  0
 15  9  1  0
 15 14  1  0
 16  9  2  0
 17 19  2  0
 18 17  1  0
 20 18  1  0
 21 22  2  0
 22 41  1  0
 23 22  1  0
 23 26  1  0
 24 25  1  0
 24 21  1  0
 25 23  2  0
 26 27  1  0
 27 28  2  0
 29 32  1  0
 29 28  1  0
 30 29  2  0
 31 30  1  0
 31 26  2  0
 32 33  1  0
 33 34  1  0
 34 35  2  0
 36 35  1  0
 36 40  1  0
 37 36  2  0
 38 33  2  0
 38 37  1  0
 39 38  1  0
 41 42  1  0
 42 45  1  0
 42 44  1  0
 43 41  2  0
 46 47  1  0
 46 21  1  0
 48 46  1  0
 49 50  1  0
 49 51  1  0
 54 53  1  0
 54 55  1  0
 54 52  1  0
 56 67  2  0
 57 55  1  0
 57 62  1  0
 58 66  1  0
 58 68  1  0
 59 65  1  0
 59 61  1  0
 60 66  1  0
 61 60  1  0
 62 61  2  0
 63 64  1  0
 63 57  2  0
 64 59  2  0
 65 58  1  0
 66 56  1  0
 68 70  2  0
 69 68  1  0
 71 69  1  0
 72 81  2  0
 72 77  1  0
 73 69  1  0
 73 77  1  0
 74 73  1  0
 75 76  1  0
 75 74  1  0
 76 72  1  0
 77 78  2  0
 78 79  1  0
 80 79  2  0
 81 80  1  0
 82 56  1  0
 82 87  1  0
 82 83  1  0
 83 86  1  1
 83 84  1  0
 85 83  1  0
 87 90  1  0
 88 92  1  0
 88 87  1  0
 89 88  2  0
 92 91  1  0
 94 92  1  0
 94 95  1  0
 94 93  1  0
M  ISO  4   9 100  18 100  54 101  55 101
M  END
>  <TORSDO>  (34) 
F 19

>  <SCORE>  (34) 
-14.634

>  <name>  (34) 
33

>  <ligand_id>  (34) 
33

>  <original_smiles>  (34) 
[H]c1c(N([H])C([H])([H])C([H])(Oc2c([H])c([H])c3c(c2[H])C([H])([H])N(C(=O)C([H])(N([H])C(=O)C([H])(N([H])C([H])([H])[H])C([H])([H])[H])C(C([H])([H])[H])(C([H])([H])[H])C([H])([H])[H])C([H])(C(=O)N([H])C2([H])c4c([H])c([H])c([H])c([H])c4C([H])([H])C([H])([H])C2([H])[H])C3([H])[H])C([H])([H])[H])nc(N([H])[H])c(C(=O)N([H])C(=O)N2C([H])([H])C([H])([H])C([H])([H])C([H])(n3nc(-c4c([H])c([H])c(Oc5c([H])c([H])c(F)c([H])c5F)c([H])c4[H])c(C(=O)N([H])[H])c3N([H])[H])C2([H])[H])c1[H]

>  <smiles>  (34) 
[H]c1c(N([H])C([H])([H])C([H])(Oc2c([H])c([H])c3c(c2[H])C([H])([H])N(C(=O)C([H])(N([H])C(=O)C([H])(N([H])C([H])([H])[H])C([H])([H])[H])C(C([H])([H])[H])(C([H])([H])[H])C([H])([H])[H])C([H])(C(=O)N([H])C2([H])c4c([H])c([H])c([H])c([H])c4C([H])([H])C([H])([H])C2([H])[H])C3([H])[H])C([H])([H])[H])nc(N([H])[H])c(C(=O)N([H])C(=O)N2C([H])([H])C([H])([H])C([H])([H])C([H])(n3nc(-c4c([H])c([H])c(Oc5c([H])c([H])c(F)c([H])c5F)c([H])c4[H])c(C(=O)N([H])[H])c3N([H])[H])C2([H])[H])c1[H]

$$$$
34:0:0
     RDKit          3D

 99108  0  0  1  0  0  0  0  0999 V2000
  -29.6170  -18.4720   20.9030 C   0  0  0  0  0  3  0  0  0  0  0  0
  -29.1790  -19.5890   20.0250 C   0  0  0  0  0  0  0  0  0  0  0  0
  -28.8890  -19.0490   18.7800 C   0  0  0  0  0  0  0  0  0  0  0  0
  -29.7180  -17.1780   20.3340 C   0  0  0  0  0  0  0  0  0  0  0  0
  -29.3470  -17.3530   18.6400 S   0  0  0  0  0  0  0  0  0  0  0  0
  -30.6050  -14.7990   20.4120 C   0  0  0  0  0  0  0  0  0  0  0  0
  -30.4210  -12.5180   19.4050 C   0  0  0  0  0  2  0  0  0  0  0  0
  -29.5070  -12.6200   18.1620 C   0  0  0  0  0  2  0  0  0  0  0  0
  -28.0290  -12.4480   18.5600 C   0  0  0  0  0  2  0  0  0  0  0  0
  -27.6430  -13.3170   19.7880 C   0  0  0  0  0  3  0  0  0  0  0  0
  -28.6840  -13.2080   20.9280 C   0  0  0  0  0  2  0  0  0  0  0  0
  -29.9970  -13.5620   20.3710 N   0  0  0  0  0  0  0  0  0  0  0  0
  -31.7510  -14.9300   19.9650 O   0  0  0  0  0  0  0  0  0  0  0  0
  -29.9010  -15.8950   20.8880 N   0  0  0  0  0  0  0  0  0  0  0  0
  -29.1710  -15.6300   21.5320 H   0  0  0  0  0  0  0  0  0  0  0  0
  -25.2380  -13.8970   20.4730 C   0  0  0  0  0  0  0  0  0  0  0  0
  -24.1690  -13.1220   20.8300 C   0  0  0  0  0  0  0  0  0  0  0  0
  -24.6390  -11.7720   20.8140 C   0  0  0  0  0  0  0  0  0  0  0  0
  -26.2910  -13.0240   20.2540 N   0  0  0  0  0  0  0  0  0  0  0  0
  -25.9340  -11.7400   20.5180 N   0  0  0  0  0  0  0  0  0  0  0  0
  -23.9140  -10.5070   21.0020 C   0  0  0  0  0  0  0  0  0  0  0  0
  -24.3360   -9.5470   21.9490 C   0  0  0  0  0  3  0  0  0  0  0  0
  -23.6100   -8.3480   22.1250 C   0  0  0  0  0  3  0  0  0  0  0  0
  -22.4480   -8.1020   21.3550 C   0  0  0  0  0  0  0  0  0  0  0  0
  -22.0470   -9.0520   20.3990 C   0  0  0  0  0  3  0  0  0  0  0  0
  -22.7720  -10.2410   20.2200 C   0  0  0  0  0  3  0  0  0  0  0  0
  -21.6940   -6.9550   21.4410 O   0  0  0  0  0  0  0  0  0  0  0  0
  -21.6250   -6.2260   22.6000 C   0  0  0  0  0  0  0  0  0  0  0  0
  -21.1520   -6.7870   23.8070 C   0  0  0  0  0  3  0  0  0  0  0  0
  -21.0320   -5.9820   24.9580 C   0  0  0  0  0  3  0  0  0  0  0  0
  -21.3710   -4.6170   24.9020 C   0  0  0  0  0  0  0  0  0  0  0  0
  -21.8370   -4.0560   23.7000 C   0  0  0  0  0  3  0  0  0  0  0  0
  -21.9590   -4.8580   22.5520 C   0  0  0  0  0  0  0  0  0  0  0  0
  -22.3870   -4.3070   21.3890 F   0  0  0  0  0  0  0  0  0  0  0  0
  -21.2480   -3.8410   26.0030 F   0  0  0  0  0  0  0  0  0  0  0  0
  -22.7650  -13.5950   21.0760 C   0  0  0  0  0  0  0  0  0  0  0  0
  -22.0230  -12.9000   21.9310 N   0  0  0  0  0  0  0  0  0  0  0  0
  -22.3350  -14.6190   20.5450 O   0  0  0  0  0  0  0  0  0  0  0  0
  -22.3760  -12.0710   22.3850 H   0  0  0  0  0  0  0  0  0  0  0  0
  -21.0810  -13.2060   22.1340 H   0  0  0  0  0  0  0  0  0  0  0  0
  -25.4000  -15.2680   20.2940 N   0  0  0  0  0  0  0  0  0  0  0  0
  -24.6370  -15.9200   20.4290 H   0  0  0  0  0  0  0  0  0  0  0  0
  -26.2550  -15.7160   19.9880 H   0  0  0  0  0  0  0  0  0  0  0  0
  -28.2470  -19.6150   17.6130 C   0  0  0  0  0  0  0  0  0  0  0  0
  -28.8370  -19.5510   16.4150 N   0  0  0  0  0  4  0  0  0  0  0  0
  -27.0180  -20.1370   17.7010 N   0  0  0  0  0  0  0  0  0  0  0  0
  -29.7430  -19.1180   16.3200 H   0  0  0  0  0  0  0  0  0  0  0  0
  -28.4150  -19.9060   15.5710 H   0  0  0  0  0  0  0  0  0  0  0  0
  -26.5280  -20.0880   18.5830 H   0  0  0  0  0  0  0  0  0  0  0  0
  -26.5020  -20.4740   16.9030 H   0  0  0  0  0  0  0  0  0  0  0  0
  -29.0200  -23.1080   21.7070 C   0  0  0  0  0  2  0  0  0  0  0  0
  -29.4930  -21.6150   21.6680 C   0  0  0  0  0  2  0  0  0  0  0  0
  -28.4930  -22.1780   19.6130 C   0  0  0  0  0  2  0  0  0  0  0  0
  -28.9040  -23.5870   20.2520 C   0  0  2  0  0  0  0  0  0  0  0  0
  -29.0410  -21.0230   20.4070 N   0  0  0  0  0  0  0  0  0  0  0  0
  -30.1920  -23.8340   19.7230 O   0  0  0  0  0  0  0  0  0  0  0  0
  -30.6740  -23.0180   19.8140 H   0  0  0  0  0  0  0  0  0  0  0  0
  -27.9810  -24.9000   19.9140 C   0  0  0  0  0  2  0  0  0  0  0  0
  -28.2370  -26.3470   20.2980 O   0  0  0  0  0  0  0  0  0  0  0  0
  -24.6000  -31.9360   23.2400 C   0  0  0  0  0  0  0  0  0  0  0  0
  -27.1690  -27.2850   20.2110 C   0  0  0  0  0  0  0  0  0  0  0  0
  -23.3930  -30.5420   21.6050 C   0  0  0  0  0  3  0  0  0  0  0  0
  -24.8360  -28.9770   20.1800 C   0  0  0  0  0  0  0  0  0  0  0  0
  -25.9420  -30.8200   21.4360 C   0  0  0  0  0  2  0  0  0  0  0  0
  -26.0110  -29.4340   20.7900 C   0  0  0  0  0  0  0  0  0  0  0  0
  -27.1780  -28.5990   20.7990 C   0  0  0  0  0  3  0  0  0  0  0  0
  -25.9710  -26.9170   19.5550 C   0  0  0  0  0  3  0  0  0  0  0  0
  -24.8210  -27.7280   19.5490 C   0  0  0  0  0  3  0  0  0  0  0  0
  -23.6090  -29.8690   20.2260 C   0  0  0  0  0  2  0  0  0  0  0  0
  -24.6650  -31.1190   22.1490 N   0  0  0  0  0  0  0  0  0  0  0  0
  -23.5150  -32.2220   23.7700 O   0  0  0  0  0  0  0  0  0  0  0  0
  -22.7210  -29.5300   22.5640 C   0  0  0  0  0  0  0  0  0  0  0  0
  -21.3940  -29.3600   22.4350 N   0  0  0  0  0  0  0  0  0  0  0  0
  -23.3910  -28.9040   23.3880 O   0  0  0  0  0  0  0  0  0  0  0  0
  -20.9080  -29.9120   21.7420 H   0  0  0  0  0  0  0  0  0  0  0  0
  -18.0040  -28.1970   22.9550 C   0  0  0  0  0  0  0  0  0  0  0  0
  -20.5680  -28.4310   23.2080 C   0  0  0  0  0  3  0  0  0  0  0  0
  -20.6510  -26.9990   22.6330 C   0  0  0  0  0  2  0  0  0  0  0  0
  -19.5420  -26.6890   21.6230 C   0  0  0  0  0  2  0  0  0  0  0  0
  -18.1630  -26.8480   22.2760 C   0  0  0  0  0  2  0  0  0  0  0  0
  -19.1330  -28.9470   23.3800 C   0  0  0  0  0  0  0  0  0  0  0  0
  -18.9310  -30.2100   23.9770 C   0  0  0  0  0  3  0  0  0  0  0  0
  -17.6330  -30.7250   24.1500 C   0  0  0  0  0  3  0  0  0  0  0  0
  -16.5180  -29.9720   23.7420 C   0  0  0  0  0  3  0  0  0  0  0  0
  -16.7030  -28.7090   23.1530 C   0  0  0  0  0  3  0  0  0  0  0  0
  -25.8840  -32.5660   23.8610 C   0  0  0  0  0  3  0  0  0  0  0  0
  -26.4010  -31.7920   25.1350 C   0  0  1  0  0  0  0  0  0  0  0  0
  -25.3090  -31.5430   26.2000 C   0  0  0  0  0  1  0  0  0  0  0  0
  -26.9920  -30.4170   24.7450 C   0  0  0  0  0  1  0  0  0  0  0  0
  -27.5480  -32.5890   25.8040 C   0  0  0  0  0  1  0  0  0  0  0  0
  -25.5750  -33.9640   24.1970 N   0  0  0  0  0  0  0  0  0  0  0  0
  -25.8900  -35.0190   23.4350 C   0  0  0  0  0  0  0  0  0  0  0  0
  -26.5410  -34.9200   22.3910 O   0  0  0  0  0  0  0  0  0  0  0  0
  -24.9990  -34.1160   25.0130 H   0  0  0  0  0  0  0  0  0  0  0  0
  -24.1490  -36.8070   23.1130 C   0  0  0  0  0  1  0  0  0  0  0  0
  -25.4060  -36.4060   23.9030 C   0  0  0  0  0  3  0  0  0  0  0  0
  -27.5480  -37.3000   24.7020 C   0  0  0  0  0  1  0  0  0  0  0  0
  -26.4310  -37.4640   23.7750 N   0  0  0  0  0  0  0  0  0  0  0  0
  -26.0220  -38.3810   23.9280 H   0  0  0  0  0  0  0  0  0  0  0  0
  2 55  1  0
  2  1  1  0
  3  2  2  0
  4 14  1  0
  4  1  2  0
  5  3  1  0
  5  4  1  0
  6 14  1  0
  7 12  1  0
  8  9  1  0
  8  7  1  0
 10  9  1  0
 10 19  1  0
 10 11  1  0
 12  6  1  0
 12 11  1  0
 13  6  2  0
 14 15  1  0
 16 17  2  0
 17 36  1  0
 18 17  1  0
 18 21  1  0
 19 16  1  0
 19 20  1  0
 20 18  2  0
 21 22  1  0
 22 23  2  0
 24 27  1  0
 24 23  1  0
 25 24  2  0
 26 25  1  0
 26 21  2  0
 27 28  1  0
 28 29  1  0
 29 30  2  0
 31 30  1  0
 31 35  1  0
 32 31  2  0
 33 28  2  0
 33 32  1  0
 34 33  1  0
 36 37  1  0
 37 40  1  0
 37 39  1  0
 38 36  2  0
 41 42  1  0
 41 16  1  0
 43 41  1  0
 44 46  1  0
 44  3  1  0
 45 44  2  0
 46 49  1  0
 47 45  1  0
 48 45  1  0
 50 46  1  0
 52 51  1  0
 53 54  1  0
 53 55  1  0
 54 58  1  1
 54 51  1  0
 55 52  1  0
 56 57  1  0
 56 54  1  0
 58 59  1  0
 60 71  2  0
 61 59  1  0
 61 66  1  0
 62 70  1  0
 62 72  1  0
 63 69  1  0
 63 65  1  0
 64 70  1  0
 65 66  2  0
 65 64  1  0
 67 61  2  0
 68 67  1  0
 68 63  2  0
 69 62  1  0
 70 60  1  0
 72 74  2  0
 73 72  1  0
 75 73  1  0
 76 85  2  0
 76 81  1  0
 77 73  1  0
 77 81  1  0
 78 77  1  0
 79 80  1  0
 79 78  1  0
 80 76  1  0
 81 82  2  0
 82 83  1  0
 84 83  2  0
 85 84  1  0
 86 60  1  0
 86 91  1  0
 86 87  1  0
 87 90  1  1
 87 88  1  0
 89 87  1  0
 91 94  1  0
 92 96  1  0
 92 91  1  0
 93 92  2  0
 96 95  1  0
 98 96  1  0
 98 99  1  0
 98 97  1  0
M  ISO  4   6 100  14 100  58 101  59 101
M  END
>  <TORSDO>  (35) 
F 20

>  <SCORE>  (35) 
-14.363

>  <name>  (35) 
34

>  <ligand_id>  (35) 
34

>  <original_smiles>  (35) 
[H]OC1(C([H])([H])Oc2c([H])c([H])c3c(c2[H])C([H])([H])N(C(=O)C([H])(N([H])C(=O)C([H])(N([H])C([H])([H])[H])C([H])([H])[H])C(C([H])([H])[H])(C([H])([H])[H])C([H])([H])[H])C([H])(C(=O)N([H])C2([H])c4c([H])c([H])c([H])c([H])c4C([H])([H])C([H])([H])C2([H])[H])C3([H])[H])C([H])([H])N(c2c(C(N([H])[H])=[N+]([H])[H])sc(N([H])C(=O)N3C([H])([H])C([H])([H])C([H])([H])C([H])(n4nc(-c5c([H])c([H])c(Oc6c([H])c([H])c(F)c([H])c6F)c([H])c5[H])c(C(=O)N([H])[H])c4N([H])[H])C3([H])[H])c2[H])C([H])([H])C1([H])[H]

>  <smiles>  (35) 
[H]OC1(C([H])([H])Oc2c([H])c([H])c3c(c2[H])C([H])([H])N(C(=O)C([H])(N([H])C(=O)C([H])(N([H])C([H])([H])[H])C([H])([H])[H])C(C([H])([H])[H])(C([H])([H])[H])C([H])([H])[H])C([H])(C(=O)N([H])C2([H])c4c([H])c([H])c([H])c([H])c4C([H])([H])C([H])([H])C2([H])[H])C3([H])[H])C([H])([H])N(c2c(C(N([H])[H])=[N+]([H])[H])sc(N([H])C(=O)N3C([H])([H])C([H])([H])C([H])([H])C([H])(n4nc(-c5c([H])c([H])c(Oc6c([H])c([H])c(F)c([H])c6F)c([H])c5[H])c(C(=O)N([H])[H])c4N([H])[H])C3([H])[H])c2[H])C([H])([H])C1([H])[H]

$$$$
35:0:0
     RDKit          3D

 90 99  0  0  1  0  0  0  0  0999 V2000
  -28.9140  -23.5480   20.1030 C   0  0  0  0  0  0  0  0  0  0  0  0
  -28.4640  -22.2550   20.4160 N   0  0  0  0  0  0  0  0  0  0  0  0
  -30.0080  -23.7270   19.5620 O   0  0  0  0  0  0  0  0  0  0  0  0
  -27.5560  -22.3130   20.8550 H   0  0  0  0  0  0  0  0  0  0  0  0
  -30.7790  -14.9460   19.9150 C   0  0  0  0  0  0  0  0  0  0  0  0
  -30.4870  -12.6480   18.9310 C   0  0  0  0  0  2  0  0  0  0  0  0
  -29.4840  -12.6420   17.7590 C   0  0  0  0  0  2  0  0  0  0  0  0
  -28.0540  -12.4290   18.2850 C   0  0  0  0  0  2  0  0  0  0  0  0
  -27.7260  -13.3360   19.5020 C   0  0  0  0  0  3  0  0  0  0  0  0
  -28.8560  -13.3460   20.5550 C   0  0  0  0  0  2  0  0  0  0  0  0
  -30.0840  -13.7440   19.8580 N   0  0  0  0  0  0  0  0  0  0  0  0
  -31.9620  -14.9140   19.5610 O   0  0  0  0  0  0  0  0  0  0  0  0
  -30.0050  -20.2260   19.7300 C   0  0  0  0  0  3  0  0  0  0  0  0
  -30.0080  -18.7480   19.8740 C   0  0  0  0  0  0  0  0  0  0  0  0
  -28.9490  -18.2730   20.5340 C   0  0  0  0  0  0  0  0  0  0  0  0
  -28.9020  -20.9000   20.3000 C   0  0  0  0  0  0  0  0  0  0  0  0
  -30.8510  -17.5050   19.5070 C   0  0  0  0  0  3  0  0  0  0  0  0
  -28.9370  -16.7440   20.6830 C   0  0  0  0  0  3  0  0  0  0  0  0
  -30.1640  -16.2250   19.9860 N   0  0  0  0  0  0  0  0  0  0  0  0
  -27.8830  -19.6010   21.0180 S   0  0  0  0  0  0  0  0  0  0  0  0
  -25.4030  -13.8820   20.4260 C   0  0  0  0  0  0  0  0  0  0  0  0
  -24.3680  -13.0910   20.8410 C   0  0  0  0  0  0  0  0  0  0  0  0
  -24.8300  -11.7430   20.7290 C   0  0  0  0  0  0  0  0  0  0  0  0
  -26.4280  -13.0160   20.0840 N   0  0  0  0  0  0  0  0  0  0  0  0
  -26.0980  -11.7230   20.3320 N   0  0  0  0  0  0  0  0  0  0  0  0
  -24.1170  -10.4740   20.9190 C   0  0  0  0  0  0  0  0  0  0  0  0
  -24.5500   -9.5180   21.8650 C   0  0  0  0  0  3  0  0  0  0  0  0
  -23.8350   -8.3140   22.0450 C   0  0  0  0  0  3  0  0  0  0  0  0
  -22.6730   -8.0580   21.2780 C   0  0  0  0  0  0  0  0  0  0  0  0
  -22.2610   -9.0020   20.3210 C   0  0  0  0  0  3  0  0  0  0  0  0
  -22.9770  -10.1970   20.1400 C   0  0  0  0  0  3  0  0  0  0  0  0
  -21.9300   -6.9060   21.3650 O   0  0  0  0  0  0  0  0  0  0  0  0
  -21.7830   -6.2330   22.5520 C   0  0  0  0  0  0  0  0  0  0  0  0
  -21.2230   -6.8470   23.6930 C   0  0  0  0  0  3  0  0  0  0  0  0
  -21.0270   -6.0980   24.8700 C   0  0  0  0  0  3  0  0  0  0  0  0
  -21.3810   -4.7370   24.9070 C   0  0  0  0  0  0  0  0  0  0  0  0
  -21.9340   -4.1220   23.7700 C   0  0  0  0  0  3  0  0  0  0  0  0
  -22.1320   -4.8670   22.5950 C   0  0  0  0  0  0  0  0  0  0  0  0
  -22.6460   -4.2650   21.4960 F   0  0  0  0  0  0  0  0  0  0  0  0
  -21.1860   -4.0150   26.0360 F   0  0  0  0  0  0  0  0  0  0  0  0
  -22.9930  -13.5550   21.2210 C   0  0  0  0  0  0  0  0  0  0  0  0
  -22.3290  -12.8340   22.1180 N   0  0  0  0  0  0  0  0  0  0  0  0
  -22.5190  -14.5920   20.7600 O   0  0  0  0  0  0  0  0  0  0  0  0
  -22.7270  -11.9950   22.5130 H   0  0  0  0  0  0  0  0  0  0  0  0
  -21.4080  -13.1270   22.4150 H   0  0  0  0  0  0  0  0  0  0  0  0
  -25.5450  -15.2580   20.2820 N   0  0  0  0  0  0  0  0  0  0  0  0
  -24.7760  -15.8940   20.4610 H   0  0  0  0  0  0  0  0  0  0  0  0
  -26.3420  -15.7100   19.8560 H   0  0  0  0  0  0  0  0  0  0  0  0
  -27.9750  -24.8400   20.4560 C   0  0  0  0  0  2  0  0  0  0  0  0
  -28.3340  -26.2920   20.0960 O   0  0  0  0  0  0  0  0  0  0  0  0
  -24.6190  -31.8450   23.1340 C   0  0  0  0  0  0  0  0  0  0  0  0
  -27.2720  -27.2510   20.0530 C   0  0  0  0  0  0  0  0  0  0  0  0
  -23.4430  -30.4530   21.4750 C   0  0  0  0  0  3  0  0  0  0  0  0
  -24.9180  -28.9290   20.0330 C   0  0  0  0  0  0  0  0  0  0  0  0
  -25.9890  -30.7710   21.3170 C   0  0  0  0  0  2  0  0  0  0  0  0
  -26.0870  -29.3920   20.6520 C   0  0  0  0  0  0  0  0  0  0  0  0
  -27.2680  -28.5680   20.6490 C   0  0  0  0  0  3  0  0  0  0  0  0
  -26.0860  -26.8900   19.3770 C   0  0  0  0  0  3  0  0  0  0  0  0
  -24.9270  -27.6890   19.3810 C   0  0  0  0  0  3  0  0  0  0  0  0
  -23.6750  -29.7990   20.0870 C   0  0  0  0  0  2  0  0  0  0  0  0
  -24.7030  -31.0420   22.0300 N   0  0  0  0  0  0  0  0  0  0  0  0
  -23.5280  -32.1060   23.6630 O   0  0  0  0  0  0  0  0  0  0  0  0
  -22.7810  -29.4190   22.4200 C   0  0  0  0  0  0  0  0  0  0  0  0
  -21.4530  -29.2430   22.3000 N   0  0  0  0  0  0  0  0  0  0  0  0
  -23.4640  -28.7800   23.2250 O   0  0  0  0  0  0  0  0  0  0  0  0
  -20.9600  -29.8110   21.6250 H   0  0  0  0  0  0  0  0  0  0  0  0
  -18.0740  -28.0610   22.8450 C   0  0  0  0  0  0  0  0  0  0  0  0
  -20.6410  -28.2890   23.0600 C   0  0  0  0  0  3  0  0  0  0  0  0
  -20.7150  -26.8760   22.4370 C   0  0  0  0  0  2  0  0  0  0  0  0
  -19.5850  -26.5960   21.4400 C   0  0  0  0  0  2  0  0  0  0  0  0
  -18.2210  -26.7330   22.1210 C   0  0  0  0  0  2  0  0  0  0  0  0
  -19.2100  -28.7990   23.2710 C   0  0  0  0  0  0  0  0  0  0  0  0
  -19.0170  -30.0440   23.9110 C   0  0  0  0  0  3  0  0  0  0  0  0
  -17.7220  -30.5500   24.1260 C   0  0  0  0  0  3  0  0  0  0  0  0
  -16.6000  -29.8080   23.7140 C   0  0  0  0  0  3  0  0  0  0  0  0
  -16.7780  -28.5660   23.0800 C   0  0  0  0  0  3  0  0  0  0  0  0
  -25.8870  -32.4900   23.7690 C   0  0  0  0  0  3  0  0  0  0  0  0
  -25.5550  -33.8790   24.1200 N   0  0  0  0  0  0  0  0  0  0  0  0
  -25.8530  -34.9480   23.3700 C   0  0  0  0  0  0  0  0  0  0  0  0
  -26.5050  -34.8710   22.3260 O   0  0  0  0  0  0  0  0  0  0  0  0
  -24.9710  -34.0120   24.9330 H   0  0  0  0  0  0  0  0  0  0  0  0
  -24.0840  -36.7140   23.0710 C   0  0  0  0  0  1  0  0  0  0  0  0
  -25.3480  -36.3230   23.8540 C   0  0  0  0  0  3  0  0  0  0  0  0
  -27.4770  -37.2430   24.6610 C   0  0  0  0  0  1  0  0  0  0  0  0
  -26.3580  -37.3970   23.7350 N   0  0  0  0  0  0  0  0  0  0  0  0
  -25.9360  -38.3080   23.8930 H   0  0  0  0  0  0  0  0  0  0  0  0
  -26.4080  -31.7110   25.0400 C   0  0  1  0  0  0  0  0  0  0  0  0
  -25.3130  -31.4450   26.0990 C   0  0  0  0  0  1  0  0  0  0  0  0
  -27.0140  -30.3460   24.6390 C   0  0  0  0  0  1  0  0  0  0  0  0
  -27.5430  -32.5150   25.7180 C   0  0  0  0  0  1  0  0  0  0  0  0
  1  2  1  0
  1 49  1  0
  2  4  1  0
  3  1  2  0
  5 19  1  0
  6 11  1  0
  7  8  1  0
  7  6  1  0
  9  8  1  0
  9 24  1  0
  9 10  1  0
 11  5  1  0
 11 10  1  0
 12  5  2  0
 13 14  1  0
 13 16  2  0
 14 15  1  0
 15 18  2  0
 15 20  1  0
 16  2  1  0
 16 20  1  0
 17 14  2  0
 17 19  1  0
 19 18  1  0
 21 22  2  0
 22 41  1  0
 23 22  1  0
 23 26  1  0
 24 25  1  0
 24 21  1  0
 25 23  2  0
 26 27  1  0
 27 28  2  0
 29 32  1  0
 29 28  1  0
 30 29  2  0
 31 30  1  0
 31 26  2  0
 32 33  1  0
 33 38  2  0
 33 34  1  0
 34 35  2  0
 35 36  1  0
 36 40  1  0
 37 36  2  0
 38 37  1  0
 39 38  1  0
 41 42  1  0
 42 45  1  0
 42 44  1  0
 43 41  2  0
 46 21  1  0
 46 47  1  0
 48 46  1  0
 50 49  1  0
 51 62  2  0
 52 50  1  0
 52 57  1  0
 53 61  1  0
 53 63  1  0
 54 60  1  0
 54 56  1  0
 55 61  1  0
 56 55  1  0
 57 56  2  0
 58 59  1  0
 58 52  2  0
 59 54  2  0
 60 53  1  0
 61 51  1  0
 63 65  2  0
 64 63  1  0
 66 64  1  0
 67 76  2  0
 67 72  1  0
 68 64  1  0
 68 72  1  0
 69 68  1  0
 70 71  1  0
 70 69  1  0
 71 67  1  0
 72 73  2  0
 73 74  1  0
 75 74  2  0
 76 75  1  0
 77 51  1  0
 77 78  1  0
 77 87  1  0
 78 81  1  0
 79 83  1  0
 79 78  1  0
 80 79  2  0
 83 82  1  0
 85 83  1  0
 85 86  1  0
 85 84  1  0
 87 90  1  1
 87 88  1  0
 89 87  1  0
M  ISO  4   5 100  19 100  49 101  50 101
M  END
>  <TORSDO>  (36) 
F 17

>  <SCORE>  (36) 
-13.764

>  <name>  (36) 
35

>  <ligand_id>  (36) 
35

>  <original_smiles>  (36) 
[H]c1c([H])c([H])c2c(c1[H])C([H])([H])C([H])([H])C([H])([H])C2([H])N([H])C(=O)C1([H])N(C(=O)C([H])(N([H])C(=O)C([H])(N([H])C([H])([H])[H])C([H])([H])[H])C(C([H])([H])[H])(C([H])([H])[H])C([H])([H])[H])C([H])([H])c2c([H])c(OC([H])([H])C(=O)N([H])c3sc4c(c3[H])C([H])([H])N(C(=O)N3C([H])([H])C([H])([H])C([H])([H])C([H])(n5nc(-c6c([H])c([H])c(Oc7c([H])c([H])c(F)c([H])c7F)c([H])c6[H])c(C(=O)N([H])[H])c5N([H])[H])C3([H])[H])C4([H])[H])c([H])c([H])c2C1([H])[H]

>  <smiles>  (36) 
[H]c1c([H])c([H])c2c(c1[H])C([H])([H])C([H])([H])C([H])([H])C2([H])N([H])C(=O)C1([H])N(C(=O)C([H])(N([H])C(=O)C([H])(N([H])C([H])([H])[H])C([H])([H])[H])C(C([H])([H])[H])(C([H])([H])[H])C([H])([H])[H])C([H])([H])c2c([H])c(OC([H])([H])C(=O)N([H])c3sc4c(c3[H])C([H])([H])N(C(=O)N3C([H])([H])C([H])([H])C([H])([H])C([H])(n5nc(-c6c([H])c([H])c(Oc7c([H])c([H])c(F)c([H])c7F)c([H])c6[H])c(C(=O)N([H])[H])c5N([H])[H])C3([H])[H])C4([H])[H])c([H])c([H])c2C1([H])[H]

$$$$
36:0:0
     RDKit          3D

 98107  0  0  1  0  0  0  0  0999 V2000
  -29.3920  -24.1410   18.9650 C   0  0  0  0  0  3  0  0  0  0  0  0
  -29.0510  -24.2240   20.2610 C   0  0  0  0  0  0  0  0  0  0  0  0
  -29.8790  -20.6170   21.3040 C   0  0  0  0  0  3  0  0  0  0  0  0
  -29.7630  -22.8400   18.2830 C   0  0  0  0  0  2  0  0  0  0  0  0
  -29.0590  -22.9810   21.1750 C   0  0  0  0  0  2  0  0  0  0  0  0
  -29.3250  -21.5850   19.0680 C   0  0  0  0  0  2  0  0  0  0  0  0
  -29.5200  -21.7020   20.5320 N   0  0  0  0  0  0  0  0  0  0  0  0
  -29.8050  -20.7300   22.6440 N   0  0  0  0  0  0  0  0  0  0  0  0
  -30.0870  -19.9600   23.2320 H   0  0  0  0  0  0  0  0  0  0  0  0
  -29.4920  -21.5730   23.0960 H   0  0  0  0  0  0  0  0  0  0  0  0
  -29.7520  -18.0280   21.1770 C   0  0  0  0  0  3  0  0  0  0  0  0
  -30.3400  -19.2850   20.8140 C   0  0  0  0  0  0  0  0  0  0  0  0
  -30.5500  -17.0550   20.6140 C   0  0  0  0  0  0  0  0  0  0  0  0
  -31.4460  -18.9660   20.0660 C   0  0  0  0  0  0  0  0  0  0  0  0
  -31.5890  -17.6140   19.9150 O   0  0  0  0  0  0  0  0  0  0  0  0
  -31.0340  -14.6790   20.1950 C   0  0  0  0  0  0  0  0  0  0  0  0
  -30.6890  -12.5250   19.0340 C   0  0  0  0  0  2  0  0  0  0  0  0
  -29.7240  -12.7650   17.8520 C   0  0  0  0  0  2  0  0  0  0  0  0
  -28.2570  -12.6480   18.3110 C   0  0  0  0  0  2  0  0  0  0  0  0
  -27.9640  -13.4680   19.5960 C   0  0  0  0  0  3  0  0  0  0  0  0
  -29.0390  -13.2060   20.6760 C   0  0  0  0  0  2  0  0  0  0  0  0
  -30.3550  -13.5010   20.0860 N   0  0  0  0  0  0  0  0  0  0  0  0
  -32.1650  -14.8300   19.7240 O   0  0  0  0  0  0  0  0  0  0  0  0
  -30.3280  -15.7060   20.7290 N   0  0  0  0  0  0  0  0  0  0  0  0
  -29.4530  -15.4380   21.1500 H   0  0  0  0  0  0  0  0  0  0  0  0
  -25.5920  -14.1170   20.3510 C   0  0  0  0  0  0  0  0  0  0  0  0
  -24.5160  -13.3630   20.7370 C   0  0  0  0  0  0  0  0  0  0  0  0
  -24.9510  -12.0030   20.6940 C   0  0  0  0  0  0  0  0  0  0  0  0
  -26.6160  -13.2170   20.0970 N   0  0  0  0  0  0  0  0  0  0  0  0
  -26.2350  -11.9410   20.3620 N   0  0  0  0  0  0  0  0  0  0  0  0
  -24.2050  -10.7540   20.8930 C   0  0  0  0  0  0  0  0  0  0  0  0
  -24.6140   -9.7930   21.8440 C   0  0  0  0  0  3  0  0  0  0  0  0
  -23.8700   -8.6080   22.0300 C   0  0  0  0  0  3  0  0  0  0  0  0
  -22.7030   -8.3760   21.2650 C   0  0  0  0  0  0  0  0  0  0  0  0
  -22.3130   -9.3240   20.3040 C   0  0  0  0  0  3  0  0  0  0  0  0
  -23.0570  -10.5010   20.1160 C   0  0  0  0  0  3  0  0  0  0  0  0
  -21.9330   -7.2410   21.3600 O   0  0  0  0  0  0  0  0  0  0  0  0
  -21.8200   -6.5430   22.5350 C   0  0  0  0  0  0  0  0  0  0  0  0
  -21.3390   -7.1480   23.7170 C   0  0  0  0  0  3  0  0  0  0  0  0
  -21.1740   -6.3760   24.8850 C   0  0  0  0  0  3  0  0  0  0  0  0
  -21.4800   -5.0030   24.8710 C   0  0  0  0  0  0  0  0  0  0  0  0
  -21.9530   -4.3970   23.6930 C   0  0  0  0  0  3  0  0  0  0  0  0
  -22.1200   -5.1660   22.5280 C   0  0  0  0  0  0  0  0  0  0  0  0
  -22.5570   -4.5740   21.3900 F   0  0  0  0  0  0  0  0  0  0  0  0
  -21.3140   -4.2590   25.9900 F   0  0  0  0  0  0  0  0  0  0  0  0
  -23.1330  -13.8650   21.0360 C   0  0  0  0  0  0  0  0  0  0  0  0
  -22.4120  -13.1870   21.9230 N   0  0  0  0  0  0  0  0  0  0  0  0
  -22.7000  -14.8950   20.5190 O   0  0  0  0  0  0  0  0  0  0  0  0
  -22.7750  -12.3540   22.3630 H   0  0  0  0  0  0  0  0  0  0  0  0
  -21.4850  -13.5050   22.1650 H   0  0  0  0  0  0  0  0  0  0  0  0
  -25.7790  -15.4840   20.1730 N   0  0  0  0  0  0  0  0  0  0  0  0
  -25.0230  -16.1500   20.2900 H   0  0  0  0  0  0  0  0  0  0  0  0
  -26.6220  -15.9040   19.8040 H   0  0  0  0  0  0  0  0  0  0  0  0
  -32.4110  -19.8160   19.5470 N   0  0  0  0  0  0  0  0  0  0  0  0
  -32.4740  -20.8120   19.7270 H   0  0  0  0  0  0  0  0  0  0  0  0
  -33.2300  -19.4640   19.0620 H   0  0  0  0  0  0  0  0  0  0  0  0
  -28.6560  -25.5480   20.9490 C   0  0  0  0  0  2  0  0  0  0  0  0
  -28.7250  -26.7470   20.1330 O   0  0  0  0  0  0  0  0  0  0  0  0
  -24.7090  -31.8110   23.1940 C   0  0  0  0  0  0  0  0  0  0  0  0
  -27.5600  -27.4890   20.1110 C   0  0  0  0  0  0  0  0  0  0  0  0
  -23.5820  -30.3860   21.5180 C   0  0  0  0  0  3  0  0  0  0  0  0
  -25.1160  -28.9210   20.0950 C   0  0  0  0  0  0  0  0  0  0  0  0
  -26.0970  -30.8390   21.3620 C   0  0  0  0  0  2  0  0  0  0  0  0
  -26.2470  -29.4780   20.7060 C   0  0  0  0  0  0  0  0  0  0  0  0
  -27.4750  -28.7730   20.7070 C   0  0  0  0  0  3  0  0  0  0  0  0
  -26.4140  -26.9540   19.4870 C   0  0  0  0  0  3  0  0  0  0  0  0
  -25.1950  -27.6590   19.4800 C   0  0  0  0  0  3  0  0  0  0  0  0
  -23.8380  -29.7310   20.1340 C   0  0  0  0  0  2  0  0  0  0  0  0
  -24.8130  -31.0260   22.0840 N   0  0  0  0  0  0  0  0  0  0  0  0
  -23.6100  -32.0350   23.7210 O   0  0  0  0  0  0  0  0  0  0  0  0
  -22.9550  -29.3300   22.4570 C   0  0  0  0  0  0  0  0  0  0  0  0
  -21.6410  -29.0940   22.3050 N   0  0  0  0  0  0  0  0  0  0  0  0
  -23.6480  -28.7240   23.2790 O   0  0  0  0  0  0  0  0  0  0  0  0
  -21.1410  -29.6380   21.6140 H   0  0  0  0  0  0  0  0  0  0  0  0
  -18.3140  -27.7460   22.7170 C   0  0  0  0  0  0  0  0  0  0  0  0
  -20.8500  -28.1160   23.0500 C   0  0  0  0  0  3  0  0  0  0  0  0
  -21.0300  -26.6960   22.4670 C   0  0  0  0  0  2  0  0  0  0  0  0
  -19.9670  -26.3320   21.4250 C   0  0  0  0  0  2  0  0  0  0  0  0
  -18.5650  -26.4110   22.0380 C   0  0  0  0  0  2  0  0  0  0  0  0
  -19.3870  -28.5540   23.1790 C   0  0  0  0  0  0  0  0  0  0  0  0
  -19.0980  -29.8020   23.7720 C   0  0  0  0  0  3  0  0  0  0  0  0
  -17.7690  -30.2440   23.9100 C   0  0  0  0  0  3  0  0  0  0  0  0
  -16.7100  -29.4340   23.4660 C   0  0  0  0  0  3  0  0  0  0  0  0
  -16.9830  -28.1870   22.8760 C   0  0  0  0  0  3  0  0  0  0  0  0
  -25.9600  -32.4840   23.8410 C   0  0  0  0  0  3  0  0  0  0  0  0
  -26.4810  -31.7240   25.1230 C   0  0  1  0  0  0  0  0  0  0  0  0
  -25.3790  -31.4460   26.1710 C   0  0  0  0  0  1  0  0  0  0  0  0
  -27.1170  -30.3690   24.7330 C   0  0  0  0  0  1  0  0  0  0  0  0
  -27.5940  -32.5540   25.8070 C   0  0  0  0  0  1  0  0  0  0  0  0
  -25.5990  -33.8690   24.1700 N   0  0  0  0  0  0  0  0  0  0  0  0
  -25.9090  -34.9340   23.4170 C   0  0  0  0  0  0  0  0  0  0  0  0
  -26.5990  -34.8560   22.3980 O   0  0  0  0  0  0  0  0  0  0  0  0
  -24.9860  -34.0020   24.9600 H   0  0  0  0  0  0  0  0  0  0  0  0
  -24.1250  -36.6660   23.0390 C   0  0  0  0  0  1  0  0  0  0  0  0
  -25.3660  -36.3040   23.8690 C   0  0  0  0  0  3  0  0  0  0  0  0
  -27.4550  -37.2610   24.7330 C   0  0  0  0  0  1  0  0  0  0  0  0
  -26.3630  -37.3920   23.7730 N   0  0  0  0  0  0  0  0  0  0  0  0
  -25.9230  -38.2970   23.9150 H   0  0  0  0  0  0  0  0  0  0  0  0
  1  2  2  0
  2 57  1  0
  2  5  1  0
  3  8  1  0
  4  1  1  0
  4  6  1  0
  6  7  1  0
  7  5  1  0
  7  3  1  0
  8 10  1  0
  8  9  1  0
 12 11  1  0
 12  3  1  0
 13 24  1  0
 13 11  2  0
 14 12  2  0
 15 14  1  0
 15 13  1  0
 16 24  1  0
 17 22  1  0
 18 19  1  0
 18 17  1  0
 20 19  1  0
 20 29  1  0
 20 21  1  0
 22 16  1  0
 22 21  1  0
 23 16  2  0
 24 25  1  0
 26 27  2  0
 27 46  1  0
 28 27  1  0
 28 31  1  0
 29 26  1  0
 29 30  1  0
 30 28  2  0
 31 32  1  0
 32 33  2  0
 34 37  1  0
 34 33  1  0
 35 34  2  0
 36 35  1  0
 36 31  2  0
 37 38  1  0
 38 39  1  0
 39 40  2  0
 41 40  1  0
 41 45  1  0
 42 41  2  0
 43 38  2  0
 43 42  1  0
 44 43  1  0
 46 47  1  0
 47 50  1  0
 47 49  1  0
 48 46  2  0
 51 52  1  0
 51 26  1  0
 53 51  1  0
 54 55  1  0
 54 14  1  0
 56 54  1  0
 58 57  1  0
 59 70  2  0
 60 58  1  0
 60 65  1  0
 61 69  1  0
 61 71  1  0
 62 68  1  0
 62 64  1  0
 63 69  1  0
 64 65  2  0
 64 63  1  0
 66 60  2  0
 67 66  1  0
 67 62  2  0
 68 61  1  0
 69 59  1  0
 71 73  2  0
 72 71  1  0
 74 72  1  0
 75 84  2  0
 75 80  1  0
 76 72  1  0
 76 80  1  0
 77 76  1  0
 78 79  1  0
 78 77  1  0
 79 75  1  0
 80 81  2  0
 81 82  1  0
 83 82  2  0
 84 83  1  0
 85 59  1  0
 85 90  1  0
 85 86  1  0
 86 89  1  1
 86 87  1  0
 88 86  1  0
 90 93  1  0
 91 95  1  0
 91 90  1  0
 92 91  2  0
 95 94  1  0
 97 95  1  0
 97 98  1  0
 97 96  1  0
M  ISO  4  16 100  24 100  57 101  58 101
M  END
>  <TORSDO>  (37) 
F 19

>  <SCORE>  (37) 
-14.181

>  <name>  (37) 
36

>  <ligand_id>  (37) 
36

>  <original_smiles>  (37) 
[H]C1=C(C([H])([H])Oc2c([H])c([H])c3c(c2[H])C([H])([H])N(C(=O)C([H])(N([H])C(=O)C([H])(N([H])C([H])([H])[H])C([H])([H])[H])C(C([H])([H])[H])(C([H])([H])[H])C([H])([H])[H])C([H])(C(=O)N([H])C2([H])c4c([H])c([H])c([H])c([H])c4C([H])([H])C([H])([H])C2([H])[H])C3([H])[H])C([H])([H])N(C(c2c(N([H])[H])oc(N([H])C(=O)N3C([H])([H])C([H])([H])C([H])([H])C([H])(n4nc(-c5c([H])c([H])c(Oc6c([H])c([H])c(F)c([H])c6F)c([H])c5[H])c(C(=O)N([H])[H])c4N([H])[H])C3([H])[H])c2[H])=[N+]([H])[H])C([H])([H])C1([H])[H]

>  <smiles>  (37) 
[H]C1=C(C([H])([H])Oc2c([H])c([H])c3c(c2[H])C([H])([H])N(C(=O)C([H])(N([H])C(=O)C([H])(N([H])C([H])([H])[H])C([H])([H])[H])C(C([H])([H])[H])(C([H])([H])[H])C([H])([H])[H])C([H])(C(=O)N([H])C2([H])c4c([H])c([H])c([H])c([H])c4C([H])([H])C([H])([H])C2([H])[H])C3([H])[H])C([H])([H])N(C(c2c(N([H])[H])oc(N([H])C(=O)N3C([H])([H])C([H])([H])C([H])([H])C([H])(n4nc(-c5c([H])c([H])c(Oc6c([H])c([H])c(F)c([H])c6F)c([H])c5[H])c(C(=O)N([H])[H])c4N([H])[H])C3([H])[H])c2[H])=[N+]([H])[H])C([H])([H])C1([H])[H]

$$$$
37:0:0
     RDKit          3D

 93101  0  0  1  0  0  0  0  0999 V2000
  -28.8030  -22.1950   20.4180 C   0  0  0  0  0  0  0  0  0  0  0  0
  -29.8630  -21.3080   20.4280 N   0  0  0  0  0  0  0  0  0  0  0  0
  -27.6350  -21.8000   20.4230 O   0  0  0  0  0  0  0  0  0  0  0  0
  -30.7420  -21.8080   20.4090 H   0  0  0  0  0  0  0  0  0  0  0  0
  -29.3970  -18.5840   20.4240 C   0  0  0  0  0  3  0  0  0  0  0  0
  -30.1490  -19.8530   20.5720 C   0  0  0  0  0  0  0  0  0  0  0  0
  -30.1570  -17.3860   20.5780 C   0  0  0  0  0  0  0  0  0  0  0  0
  -31.4620  -19.5890   20.8630 C   0  0  0  0  0  0  0  0  0  0  0  0
  -31.8080  -17.8750   20.9420 S   0  0  0  0  0  0  0  0  0  0  0  0
  -30.5720  -14.8580   20.3530 C   0  0  0  0  0  0  0  0  0  0  0  0
  -30.3710  -12.5690   19.3550 C   0  0  0  0  0  2  0  0  0  0  0  0
  -29.4230  -12.6130   18.1340 C   0  0  0  0  0  2  0  0  0  0  0  0
  -27.9610  -12.4250   18.5800 C   0  0  0  0  0  2  0  0  0  0  0  0
  -27.5860  -13.3240   19.7890 C   0  0  0  0  0  3  0  0  0  0  0  0
  -28.6530  -13.2770   20.9050 C   0  0  0  0  0  2  0  0  0  0  0  0
  -29.9370  -13.6340   20.2910 N   0  0  0  0  0  0  0  0  0  0  0  0
  -31.7630  -14.9240   20.0350 O   0  0  0  0  0  0  0  0  0  0  0  0
  -29.8030  -16.0140   20.5230 N   0  0  0  0  0  0  0  0  0  0  0  0
  -28.8160  -15.8260   20.6100 H   0  0  0  0  0  0  0  0  0  0  0  0
  -25.2070  -13.9030   20.5490 C   0  0  0  0  0  0  0  0  0  0  0  0
  -24.1440  -13.1250   20.9190 C   0  0  0  0  0  0  0  0  0  0  0  0
  -24.6070  -11.7740   20.8670 C   0  0  0  0  0  0  0  0  0  0  0  0
  -26.2490  -13.0280   20.2920 N   0  0  0  0  0  0  0  0  0  0  0  0
  -25.8950  -11.7410   20.5460 N   0  0  0  0  0  0  0  0  0  0  0  0
  -23.8820  -10.5090   21.0490 C   0  0  0  0  0  0  0  0  0  0  0  0
  -24.3060   -9.5410   21.9850 C   0  0  0  0  0  3  0  0  0  0  0  0
  -23.5800   -8.3420   22.1550 C   0  0  0  0  0  3  0  0  0  0  0  0
  -22.4170   -8.1020   21.3840 C   0  0  0  0  0  0  0  0  0  0  0  0
  -22.0130   -9.0580   20.4360 C   0  0  0  0  0  3  0  0  0  0  0  0
  -22.7390  -10.2490   20.2670 C   0  0  0  0  0  3  0  0  0  0  0  0
  -21.6660   -6.9550   21.4600 O   0  0  0  0  0  0  0  0  0  0  0  0
  -21.5820   -6.2240   22.6190 C   0  0  0  0  0  0  0  0  0  0  0  0
  -21.0660   -6.7760   23.8120 C   0  0  0  0  0  3  0  0  0  0  0  0
  -20.9350   -5.9700   24.9600 C   0  0  0  0  0  3  0  0  0  0  0  0
  -21.3090   -4.6130   24.9160 C   0  0  0  0  0  0  0  0  0  0  0  0
  -21.8180   -4.0610   23.7280 C   0  0  0  0  0  3  0  0  0  0  0  0
  -21.9500   -4.8650   22.5820 C   0  0  0  0  0  0  0  0  0  0  0  0
  -22.4220   -4.3210   21.4330 F   0  0  0  0  0  0  0  0  0  0  0  0
  -21.1750   -3.8370   26.0170 F   0  0  0  0  0  0  0  0  0  0  0  0
  -22.7490  -13.5980   21.2070 C   0  0  0  0  0  0  0  0  0  0  0  0
  -22.0290  -12.8930   22.0700 N   0  0  0  0  0  0  0  0  0  0  0  0
  -22.3090  -14.6290   20.7010 O   0  0  0  0  0  0  0  0  0  0  0  0
  -22.4010  -12.0600   22.5010 H   0  0  0  0  0  0  0  0  0  0  0  0
  -21.0920  -13.1930   22.3040 H   0  0  0  0  0  0  0  0  0  0  0  0
  -25.3680  -15.2760   20.3860 N   0  0  0  0  0  0  0  0  0  0  0  0
  -24.5980  -15.9230   20.5080 H   0  0  0  0  0  0  0  0  0  0  0  0
  -26.2020  -15.7200   20.0230 H   0  0  0  0  0  0  0  0  0  0  0  0
  -32.4730  -20.5140   21.1030 N   0  0  0  0  0  0  0  0  0  0  0  0
  -32.2490  -21.2960   21.7110 H   0  0  0  0  0  0  0  0  0  0  0  0
  -33.3770  -20.1310   21.3650 H   0  0  0  0  0  0  0  0  0  0  0  0
  -29.1170  -23.7820   20.4080 C   0  0  0  0  0  3  0  0  0  0  0  0
  -27.9730  -24.9160   20.1940 C   0  0  0  0  0  3  0  0  0  0  0  0
  -28.2500  -26.4050   20.2640 O   0  0  0  0  0  0  0  0  0  0  0  0
  -24.6340  -31.9560   23.2950 C   0  0  0  0  0  0  0  0  0  0  0  0
  -27.1640  -27.3190   20.2200 C   0  0  0  0  0  0  0  0  0  0  0  0
  -23.4000  -30.5620   21.6760 C   0  0  0  0  0  3  0  0  0  0  0  0
  -24.8220  -28.9960   20.2300 C   0  0  0  0  0  0  0  0  0  0  0  0
  -25.9450  -30.8490   21.4610 C   0  0  0  0  0  2  0  0  0  0  0  0
  -26.0070  -29.4660   20.8090 C   0  0  0  0  0  0  0  0  0  0  0  0
  -27.1820  -28.6420   20.7880 C   0  0  0  0  0  3  0  0  0  0  0  0
  -25.9510  -26.9270   19.6100 C   0  0  0  0  0  3  0  0  0  0  0  0
  -24.8000  -27.7350   19.6190 C   0  0  0  0  0  3  0  0  0  0  0  0
  -23.5930  -29.8820   20.2950 C   0  0  0  0  0  2  0  0  0  0  0  0
  -24.6800  -31.1420   22.1980 N   0  0  0  0  0  0  0  0  0  0  0  0
  -23.5580  -32.2440   23.8420 O   0  0  0  0  0  0  0  0  0  0  0  0
  -22.7410  -29.5530   22.6480 C   0  0  0  0  0  0  0  0  0  0  0  0
  -21.4180  -29.3520   22.5110 N   0  0  0  0  0  0  0  0  0  0  0  0
  -23.4180  -28.9560   23.4880 O   0  0  0  0  0  0  0  0  0  0  0  0
  -20.9300  -29.8880   21.8070 H   0  0  0  0  0  0  0  0  0  0  0  0
  -18.0570  -28.0930   22.9920 C   0  0  0  0  0  0  0  0  0  0  0  0
  -20.6060  -28.4120   23.2860 C   0  0  0  0  0  3  0  0  0  0  0  0
  -20.7440  -26.9720   22.7420 C   0  0  0  0  0  2  0  0  0  0  0  0
  -19.6620  -26.6070   21.7200 C   0  0  0  0  0  2  0  0  0  0  0  0
  -18.2700  -26.7340   22.3450 C   0  0  0  0  0  2  0  0  0  0  0  0
  -19.1550  -28.8870   23.4190 C   0  0  0  0  0  0  0  0  0  0  0  0
  -18.9040  -30.1550   23.9840 C   0  0  0  0  0  3  0  0  0  0  0  0
  -17.5870  -30.6330   24.1260 C   0  0  0  0  0  3  0  0  0  0  0  0
  -16.5030  -29.8370   23.7150 C   0  0  0  0  0  3  0  0  0  0  0  0
  -16.7380  -28.5700   23.1550 C   0  0  0  0  0  3  0  0  0  0  0  0
  -25.9270  -32.5830   23.9000 C   0  0  0  0  0  3  0  0  0  0  0  0
  -26.4520  -31.8180   25.1770 C   0  0  1  0  0  0  0  0  0  0  0  0
  -25.3660  -31.5890   26.2550 C   0  0  0  0  0  1  0  0  0  0  0  0
  -27.0280  -30.4360   24.7900 C   0  0  0  0  0  1  0  0  0  0  0  0
  -27.6110  -32.6120   25.8230 C   0  0  0  0  0  1  0  0  0  0  0  0
  -25.6310  -33.9860   24.2290 N   0  0  0  0  0  0  0  0  0  0  0  0
  -25.9320  -35.0330   23.4510 C   0  0  0  0  0  0  0  0  0  0  0  0
  -26.5600  -34.9220   22.3940 O   0  0  0  0  0  0  0  0  0  0  0  0
  -25.0700  -34.1450   25.0530 H   0  0  0  0  0  0  0  0  0  0  0  0
  -24.1870  -36.8230   23.1590 C   0  0  0  0  0  1  0  0  0  0  0  0
  -25.4640  -36.4270   23.9170 C   0  0  0  0  0  3  0  0  0  0  0  0
  -27.6290  -37.3270   24.6480 C   0  0  0  0  0  1  0  0  0  0  0  0
  -26.4900  -37.4790   23.7470 N   0  0  0  0  0  0  0  0  0  0  0  0
  -26.0880  -38.4010   23.8950 H   0  0  0  0  0  0  0  0  0  0  0  0
  1  3  2  0
  1  2  1  0
  2  6  1  0
  4  2  1  0
  5  6  1  0
  5  7  2  0
  6  8  2  0
  7  9  1  0
  8  9  1  0
  8 48  1  0
 10 18  1  0
 11 16  1  0
 12 13  1  0
 12 11  1  0
 14 13  1  0
 14 23  1  0
 14 15  1  0
 16 10  1  0
 16 15  1  0
 17 10  2  0
 18  7  1  0
 18 19  1  0
 20 21  2  0
 21 40  1  0
 22 21  1  0
 22 25  1  0
 23 24  1  0
 23 20  1  0
 24 22  2  0
 25 26  1  0
 26 27  2  0
 28 31  1  0
 28 27  1  0
 29 28  2  0
 30 29  1  0
 30 25  2  0
 31 32  1  0
 32 33  1  0
 33 34  2  0
 35 34  1  0
 35 39  1  0
 36 35  2  0
 37 32  2  0
 37 36  1  0
 38 37  1  0
 40 41  1  0
 41 44  1  0
 41 43  1  0
 42 40  2  0
 45 46  1  0
 45 20  1  0
 47 45  1  0
 48 50  1  0
 48 49  1  0
 51  1  1  0
 52 53  1  0
 52 51  2  0
 54 65  2  0
 55 53  1  0
 55 60  1  0
 56 64  1  0
 56 66  1  0
 57 63  1  0
 57 59  1  0
 58 64  1  0
 59 58  1  0
 60 59  2  0
 61 62  1  0
 61 55  2  0
 62 57  2  0
 63 56  1  0
 64 54  1  0
 66 68  2  0
 67 66  1  0
 69 67  1  0
 70 79  2  0
 70 75  1  0
 71 67  1  0
 71 75  1  0
 72 71  1  0
 73 74  1  0
 73 72  1  0
 74 70  1  0
 75 76  2  0
 76 77  1  0
 78 77  2  0
 79 78  1  0
 80 54  1  0
 80 85  1  0
 80 81  1  0
 81 84  1  1
 81 82  1  0
 83 81  1  0
 85 88  1  0
 86 90  1  0
 86 85  1  0
 87 86  2  0
 90 89  1  0
 92 93  1  0
 92 90  1  0
 92 91  1  0
M  ISO  4  10 100  18 100  52 101  53 101
M  END
>  <TORSDO>  (38) 
F 20

>  <SCORE>  (38) 
-14.063

>  <name>  (38) 
37

>  <ligand_id>  (38) 
37

>  <original_smiles>  (38) 
[H]c1c([H])c([H])c2c(c1[H])C([H])([H])C([H])([H])C([H])([H])C2([H])N([H])C(=O)C1([H])N(C(=O)C([H])(N([H])C(=O)C([H])(N([H])C([H])([H])[H])C([H])([H])[H])C(C([H])([H])[H])(C([H])([H])[H])C([H])([H])[H])C([H])([H])c2c([H])c(OC([H])([H])C([H])([H])C(=O)N([H])c3c(N([H])[H])sc(N([H])C(=O)N4C([H])([H])C([H])([H])C([H])([H])C([H])(n5nc(-c6c([H])c([H])c(Oc7c([H])c([H])c(F)c([H])c7F)c([H])c6[H])c(C(=O)N([H])[H])c5N([H])[H])C4([H])[H])c3[H])c([H])c([H])c2C1([H])[H]

>  <smiles>  (38) 
[H]c1c([H])c([H])c2c(c1[H])C([H])([H])C([H])([H])C([H])([H])C2([H])N([H])C(=O)C1([H])N(C(=O)C([H])(N([H])C(=O)C([H])(N([H])C([H])([H])[H])C([H])([H])[H])C(C([H])([H])[H])(C([H])([H])[H])C([H])([H])[H])C([H])([H])c2c([H])c(OC([H])([H])C([H])([H])C(=O)N([H])c3c(N([H])[H])sc(N([H])C(=O)N4C([H])([H])C([H])([H])C([H])([H])C([H])(n5nc(-c6c([H])c([H])c(Oc7c([H])c([H])c(F)c([H])c7F)c([H])c6[H])c(C(=O)N([H])[H])c5N([H])[H])C4([H])[H])c3[H])c([H])c([H])c2C1([H])[H]

$$$$
38:0:0
     RDKit          3D

 90 99  0  0  1  0  0  0  0  0999 V2000
  -28.9140  -23.5480   20.1030 C   0  0  0  0  0  0  0  0  0  0  0  0
  -28.4640  -22.2550   20.4160 N   0  0  0  0  0  0  0  0  0  0  0  0
  -30.0080  -23.7270   19.5620 O   0  0  0  0  0  0  0  0  0  0  0  0
  -27.5560  -22.3130   20.8550 H   0  0  0  0  0  0  0  0  0  0  0  0
  -30.7790  -14.9460   19.9150 C   0  0  0  0  0  0  0  0  0  0  0  0
  -30.4870  -12.6480   18.9310 C   0  0  0  0  0  2  0  0  0  0  0  0
  -29.4840  -12.6420   17.7590 C   0  0  0  0  0  2  0  0  0  0  0  0
  -28.0540  -12.4290   18.2850 C   0  0  0  0  0  2  0  0  0  0  0  0
  -27.7260  -13.3360   19.5020 C   0  0  0  0  0  3  0  0  0  0  0  0
  -28.8560  -13.3460   20.5550 C   0  0  0  0  0  2  0  0  0  0  0  0
  -30.0840  -13.7440   19.8580 N   0  0  0  0  0  0  0  0  0  0  0  0
  -31.9620  -14.9140   19.5610 O   0  0  0  0  0  0  0  0  0  0  0  0
  -30.0050  -20.2260   19.7300 C   0  0  0  0  0  3  0  0  0  0  0  0
  -30.0080  -18.7480   19.8740 C   0  0  0  0  0  0  0  0  0  0  0  0
  -28.9490  -18.2730   20.5340 C   0  0  0  0  0  0  0  0  0  0  0  0
  -28.9020  -20.9000   20.3000 C   0  0  0  0  0  0  0  0  0  0  0  0
  -30.8510  -17.5050   19.5070 C   0  0  0  0  0  3  0  0  0  0  0  0
  -28.9370  -16.7440   20.6830 C   0  0  0  0  0  3  0  0  0  0  0  0
  -30.1640  -16.2250   19.9860 N   0  0  0  0  0  0  0  0  0  0  0  0
  -27.8830  -19.6010   21.0180 S   0  0  0  0  0  0  0  0  0  0  0  0
  -25.4030  -13.8820   20.4260 C   0  0  0  0  0  0  0  0  0  0  0  0
  -24.3680  -13.0910   20.8410 C   0  0  0  0  0  0  0  0  0  0  0  0
  -24.8300  -11.7430   20.7290 C   0  0  0  0  0  0  0  0  0  0  0  0
  -26.4280  -13.0160   20.0840 N   0  0  0  0  0  0  0  0  0  0  0  0
  -26.0980  -11.7230   20.3320 N   0  0  0  0  0  0  0  0  0  0  0  0
  -24.1170  -10.4740   20.9190 C   0  0  0  0  0  0  0  0  0  0  0  0
  -24.5500   -9.5180   21.8650 C   0  0  0  0  0  3  0  0  0  0  0  0
  -23.8350   -8.3140   22.0450 C   0  0  0  0  0  3  0  0  0  0  0  0
  -22.6730   -8.0580   21.2780 C   0  0  0  0  0  0  0  0  0  0  0  0
  -22.2610   -9.0020   20.3210 C   0  0  0  0  0  3  0  0  0  0  0  0
  -22.9770  -10.1970   20.1400 C   0  0  0  0  0  3  0  0  0  0  0  0
  -21.9300   -6.9060   21.3650 O   0  0  0  0  0  0  0  0  0  0  0  0
  -21.7830   -6.2330   22.5520 C   0  0  0  0  0  0  0  0  0  0  0  0
  -21.2230   -6.8470   23.6930 C   0  0  0  0  0  3  0  0  0  0  0  0
  -21.0270   -6.0980   24.8700 C   0  0  0  0  0  3  0  0  0  0  0  0
  -21.3810   -4.7370   24.9070 C   0  0  0  0  0  0  0  0  0  0  0  0
  -21.9340   -4.1220   23.7700 C   0  0  0  0  0  3  0  0  0  0  0  0
  -22.1320   -4.8670   22.5950 C   0  0  0  0  0  0  0  0  0  0  0  0
  -22.6460   -4.2650   21.4960 F   0  0  0  0  0  0  0  0  0  0  0  0
  -21.1860   -4.0150   26.0360 F   0  0  0  0  0  0  0  0  0  0  0  0
  -22.9930  -13.5550   21.2210 C   0  0  0  0  0  0  0  0  0  0  0  0
  -22.3290  -12.8340   22.1180 N   0  0  0  0  0  0  0  0  0  0  0  0
  -22.5190  -14.5920   20.7600 O   0  0  0  0  0  0  0  0  0  0  0  0
  -22.7270  -11.9950   22.5130 H   0  0  0  0  0  0  0  0  0  0  0  0
  -21.4080  -13.1270   22.4150 H   0  0  0  0  0  0  0  0  0  0  0  0
  -25.5450  -15.2580   20.2820 N   0  0  0  0  0  0  0  0  0  0  0  0
  -24.7760  -15.8940   20.4610 H   0  0  0  0  0  0  0  0  0  0  0  0
  -26.3420  -15.7100   19.8560 H   0  0  0  0  0  0  0  0  0  0  0  0
  -27.9750  -24.8400   20.4560 C   0  0  0  0  0  2  0  0  0  0  0  0
  -28.3340  -26.2920   20.0960 O   0  0  0  0  0  0  0  0  0  0  0  0
  -24.6190  -31.8450   23.1340 C   0  0  0  0  0  0  0  0  0  0  0  0
  -27.2720  -27.2510   20.0530 C   0  0  0  0  0  0  0  0  0  0  0  0
  -23.4430  -30.4530   21.4750 C   0  0  0  0  0  3  0  0  0  0  0  0
  -24.9180  -28.9290   20.0330 C   0  0  0  0  0  0  0  0  0  0  0  0
  -25.9890  -30.7710   21.3170 C   0  0  0  0  0  2  0  0  0  0  0  0
  -26.0870  -29.3920   20.6520 C   0  0  0  0  0  0  0  0  0  0  0  0
  -27.2680  -28.5680   20.6490 C   0  0  0  0  0  3  0  0  0  0  0  0
  -26.0860  -26.8900   19.3770 C   0  0  0  0  0  3  0  0  0  0  0  0
  -24.9270  -27.6890   19.3810 C   0  0  0  0  0  3  0  0  0  0  0  0
  -23.6750  -29.7990   20.0870 C   0  0  0  0  0  2  0  0  0  0  0  0
  -24.7030  -31.0420   22.0300 N   0  0  0  0  0  0  0  0  0  0  0  0
  -23.5280  -32.1060   23.6630 O   0  0  0  0  0  0  0  0  0  0  0  0
  -22.7810  -29.4190   22.4200 C   0  0  0  0  0  0  0  0  0  0  0  0
  -21.4530  -29.2430   22.3000 N   0  0  0  0  0  0  0  0  0  0  0  0
  -23.4640  -28.7800   23.2250 O   0  0  0  0  0  0  0  0  0  0  0  0
  -20.9600  -29.8110   21.6250 H   0  0  0  0  0  0  0  0  0  0  0  0
  -18.0740  -28.0610   22.8450 C   0  0  0  0  0  0  0  0  0  0  0  0
  -20.6410  -28.2890   23.0600 C   0  0  0  0  0  3  0  0  0  0  0  0
  -20.7150  -26.8760   22.4370 C   0  0  0  0  0  2  0  0  0  0  0  0
  -19.5850  -26.5960   21.4400 C   0  0  0  0  0  2  0  0  0  0  0  0
  -18.2210  -26.7330   22.1210 C   0  0  0  0  0  2  0  0  0  0  0  0
  -19.2100  -28.7990   23.2710 C   0  0  0  0  0  0  0  0  0  0  0  0
  -19.0170  -30.0440   23.9110 C   0  0  0  0  0  3  0  0  0  0  0  0
  -17.7220  -30.5500   24.1260 C   0  0  0  0  0  3  0  0  0  0  0  0
  -16.6000  -29.8080   23.7140 C   0  0  0  0  0  3  0  0  0  0  0  0
  -16.7780  -28.5660   23.0800 C   0  0  0  0  0  3  0  0  0  0  0  0
  -25.8870  -32.4900   23.7690 C   0  0  0  0  0  3  0  0  0  0  0  0
  -25.5550  -33.8790   24.1200 N   0  0  0  0  0  0  0  0  0  0  0  0
  -25.8530  -34.9480   23.3700 C   0  0  0  0  0  0  0  0  0  0  0  0
  -26.5050  -34.8710   22.3260 O   0  0  0  0  0  0  0  0  0  0  0  0
  -24.9710  -34.0120   24.9330 H   0  0  0  0  0  0  0  0  0  0  0  0
  -24.0840  -36.7140   23.0710 C   0  0  0  0  0  1  0  0  0  0  0  0
  -25.3480  -36.3230   23.8540 C   0  0  0  0  0  3  0  0  0  0  0  0
  -27.4770  -37.2430   24.6610 C   0  0  0  0  0  1  0  0  0  0  0  0
  -26.3580  -37.3970   23.7350 N   0  0  0  0  0  0  0  0  0  0  0  0
  -25.9360  -38.3080   23.8930 H   0  0  0  0  0  0  0  0  0  0  0  0
  -26.4080  -31.7110   25.0400 C   0  0  1  0  0  0  0  0  0  0  0  0
  -25.3130  -31.4450   26.0990 C   0  0  0  0  0  1  0  0  0  0  0  0
  -27.0140  -30.3460   24.6390 C   0  0  0  0  0  1  0  0  0  0  0  0
  -27.5430  -32.5150   25.7180 C   0  0  0  0  0  1  0  0  0  0  0  0
  1  2  1  0
  1 49  1  0
  2  4  1  0
  3  1  2  0
  5 19  1  0
  6 11  1  0
  7  8  1  0
  7  6  1  0
  9  8  1  0
  9 24  1  0
  9 10  1  0
 11  5  1  0
 11 10  1  0
 12  5  2  0
 13 14  1  0
 13 16  2  0
 14 15  1  0
 15 18  2  0
 15 20  1  0
 16  2  1  0
 16 20  1  0
 17 14  2  0
 17 19  1  0
 19 18  1  0
 21 22  2  0
 22 41  1  0
 23 22  1  0
 23 26  1  0
 24 25  1  0
 24 21  1  0
 25 23  2  0
 26 27  1  0
 27 28  2  0
 29 32  1  0
 29 28  1  0
 30 29  2  0
 31 30  1  0
 31 26  2  0
 32 33  1  0
 33 38  2  0
 33 34  1  0
 34 35  2  0
 35 36  1  0
 36 40  1  0
 37 36  2  0
 38 37  1  0
 39 38  1  0
 41 42  1  0
 42 45  1  0
 42 44  1  0
 43 41  2  0
 46 21  1  0
 46 47  1  0
 48 46  1  0
 50 49  1  0
 51 62  2  0
 52 50  1  0
 52 57  1  0
 53 61  1  0
 53 63  1  0
 54 60  1  0
 54 56  1  0
 55 61  1  0
 56 55  1  0
 57 56  2  0
 58 59  1  0
 58 52  2  0
 59 54  2  0
 60 53  1  0
 61 51  1  0
 63 65  2  0
 64 63  1  0
 66 64  1  0
 67 76  2  0
 67 72  1  0
 68 64  1  0
 68 72  1  0
 69 68  1  0
 70 71  1  0
 70 69  1  0
 71 67  1  0
 72 73  2  0
 73 74  1  0
 75 74  2  0
 76 75  1  0
 77 51  1  0
 77 78  1  0
 77 87  1  0
 78 81  1  0
 79 83  1  0
 79 78  1  0
 80 79  2  0
 83 82  1  0
 85 83  1  0
 85 86  1  0
 85 84  1  0
 87 90  1  1
 87 88  1  0
 89 87  1  0
M  ISO  4   5 100  19 100  49 101  50 101
M  END
>  <TORSDO>  (39) 
F 17

>  <SCORE>  (39) 
-13.764

>  <name>  (39) 
38

>  <ligand_id>  (39) 
38

>  <original_smiles>  (39) 
[H]c1c([H])c([H])c2c(c1[H])C([H])([H])C([H])([H])C([H])([H])C2([H])N([H])C(=O)C1([H])N(C(=O)C([H])(N([H])C(=O)C([H])(N([H])C([H])([H])[H])C([H])([H])[H])C(C([H])([H])[H])(C([H])([H])[H])C([H])([H])[H])C([H])([H])c2c([H])c(OC([H])([H])C(=O)N([H])c3sc4c(c3[H])C([H])([H])N(C(=O)N3C([H])([H])C([H])([H])C([H])([H])C([H])(n5nc(-c6c([H])c([H])c(Oc7c([H])c([H])c(F)c([H])c7F)c([H])c6[H])c(C(=O)N([H])[H])c5N([H])[H])C3([H])[H])C4([H])[H])c([H])c([H])c2C1([H])[H]

>  <smiles>  (39) 
[H]c1c([H])c([H])c2c(c1[H])C([H])([H])C([H])([H])C([H])([H])C2([H])N([H])C(=O)C1([H])N(C(=O)C([H])(N([H])C(=O)C([H])(N([H])C([H])([H])[H])C([H])([H])[H])C(C([H])([H])[H])(C([H])([H])[H])C([H])([H])[H])C([H])([H])c2c([H])c(OC([H])([H])C(=O)N([H])c3sc4c(c3[H])C([H])([H])N(C(=O)N3C([H])([H])C([H])([H])C([H])([H])C([H])(n5nc(-c6c([H])c([H])c(Oc7c([H])c([H])c(F)c([H])c7F)c([H])c6[H])c(C(=O)N([H])[H])c5N([H])[H])C3([H])[H])C4([H])[H])c([H])c([H])c2C1([H])[H]

$$$$
39:0:0
     RDKit          3D

 97106  0  0  1  0  0  0  0  0999 V2000
  -30.8320  -20.2720   19.5050 C   0  0  0  0  0  3  0  0  0  0  0  0
  -30.0470  -23.7070   18.3410 C   0  0  0  0  0  2  0  0  0  0  0  0
  -29.2480  -23.4800   20.6870 C   0  0  0  0  0  2  0  0  0  0  0  0
  -31.0920  -22.6060   18.6030 C   0  0  0  0  0  2  0  0  0  0  0  0
  -30.2510  -22.3090   20.9100 C   0  0  0  0  0  2  0  0  0  0  0  0
  -29.6590  -24.5110   19.6020 C   0  0  1  0  0  0  0  0  0  0  0  0
  -30.6480  -21.6310   19.6440 N   0  0  0  0  0  0  0  0  0  0  0  0
  -31.1480  -19.8070   18.2980 N   0  0  0  0  0  0  0  0  0  0  0  0
  -30.7380  -25.1870   20.0030 F   0  0  0  0  0  0  0  0  0  0  0  0
  -31.3550  -18.8260   18.1930 H   0  0  0  0  0  0  0  0  0  0  0  0
  -31.1530  -20.3930   17.4810 H   0  0  0  0  0  0  0  0  0  0  0  0
  -31.4000  -18.4760   22.8180 C   0  0  0  0  0  3  0  0  0  0  0  0
  -31.3520  -19.4860   21.8370 C   0  0  0  0  0  3  0  0  0  0  0  0
  -30.8980  -17.1890   22.5440 C   0  0  0  0  0  3  0  0  0  0  0  0
  -30.2390  -17.9400   20.3180 C   0  0  0  0  0  3  0  0  0  0  0  0
  -30.7610  -19.2440   20.5780 C   0  0  0  0  0  0  0  0  0  0  0  0
  -30.3410  -16.8990   21.2820 C   0  0  0  0  0  0  0  0  0  0  0  0
  -30.5580  -14.5770   20.4420 C   0  0  0  0  0  0  0  0  0  0  0  0
  -30.2560  -12.4440   19.2270 C   0  0  0  0  0  2  0  0  0  0  0  0
  -29.2790  -12.6670   18.0530 C   0  0  0  0  0  2  0  0  0  0  0  0
  -27.8190  -12.4910   18.5160 C   0  0  0  0  0  2  0  0  0  0  0  0
  -27.5030  -13.2860   19.8120 C   0  0  0  0  0  3  0  0  0  0  0  0
  -28.5910  -13.0520   20.8850 C   0  0  0  0  0  2  0  0  0  0  0  0
  -29.8940  -13.3960   20.2910 N   0  0  0  0  0  0  0  0  0  0  0  0
  -31.6720  -14.7810   19.9510 O   0  0  0  0  0  0  0  0  0  0  0  0
  -29.8610  -15.5760   21.0240 N   0  0  0  0  0  0  0  0  0  0  0  0
  -28.9410  -15.3430   21.3680 H   0  0  0  0  0  0  0  0  0  0  0  0
  -25.1040  -13.8370   20.5630 C   0  0  0  0  0  0  0  0  0  0  0  0
  -24.0590  -13.0420   20.9450 C   0  0  0  0  0  0  0  0  0  0  0  0
  -24.5460  -11.7000   20.8980 C   0  0  0  0  0  0  0  0  0  0  0  0
  -26.1660  -12.9800   20.3140 N   0  0  0  0  0  0  0  0  0  0  0  0
  -25.8330  -11.6880   20.5710 N   0  0  0  0  0  0  0  0  0  0  0  0
  -23.8490  -10.4220   21.0900 C   0  0  0  0  0  0  0  0  0  0  0  0
  -24.3150   -9.4570   22.0110 C   0  0  0  0  0  3  0  0  0  0  0  0
  -23.6140   -8.2440   22.1920 C   0  0  0  0  0  3  0  0  0  0  0  0
  -22.4350   -7.9880   21.4530 C   0  0  0  0  0  0  0  0  0  0  0  0
  -21.9920   -8.9410   20.5190 C   0  0  0  0  0  3  0  0  0  0  0  0
  -22.6920  -10.1450   20.3350 C   0  0  0  0  0  3  0  0  0  0  0  0
  -21.7050   -6.8280   21.5420 O   0  0  0  0  0  0  0  0  0  0  0  0
  -21.6910   -6.0730   22.6880 C   0  0  0  0  0  0  0  0  0  0  0  0
  -21.2710   -6.6060   23.9260 C   0  0  0  0  0  3  0  0  0  0  0  0
  -21.2070   -5.7770   25.0640 C   0  0  0  0  0  3  0  0  0  0  0  0
  -21.5530   -4.4170   24.9650 C   0  0  0  0  0  0  0  0  0  0  0  0
  -21.9680   -3.8830   23.7330 C   0  0  0  0  0  3  0  0  0  0  0  0
  -22.0340   -4.7090   22.5970 C   0  0  0  0  0  0  0  0  0  0  0  0
  -22.4140   -4.1850   21.4070 F   0  0  0  0  0  0  0  0  0  0  0  0
  -21.4850   -3.6180   26.0560 F   0  0  0  0  0  0  0  0  0  0  0  0
  -22.6560  -13.4890   21.2420 C   0  0  0  0  0  0  0  0  0  0  0  0
  -21.9530  -12.7730   22.1100 N   0  0  0  0  0  0  0  0  0  0  0  0
  -22.1910  -14.5110   20.7360 O   0  0  0  0  0  0  0  0  0  0  0  0
  -22.3390  -11.9450   22.5400 H   0  0  0  0  0  0  0  0  0  0  0  0
  -21.0130  -13.0570   22.3500 H   0  0  0  0  0  0  0  0  0  0  0  0
  -25.2320  -15.2130   20.3850 N   0  0  0  0  0  0  0  0  0  0  0  0
  -24.4370  -15.8380   20.4700 H   0  0  0  0  0  0  0  0  0  0  0  0
  -26.0500  -15.6690   20.0030 H   0  0  0  0  0  0  0  0  0  0  0  0
  -28.5230  -25.5350   19.2590 C   0  0  0  0  0  2  0  0  0  0  0  0
  -28.4160  -26.7240   20.0830 O   0  0  0  0  0  0  0  0  0  0  0  0
  -24.5690  -31.8960   23.2150 C   0  0  0  0  0  0  0  0  0  0  0  0
  -27.2340  -27.4650   20.0640 C   0  0  0  0  0  0  0  0  0  0  0  0
  -23.3700  -30.5070   21.5600 C   0  0  0  0  0  3  0  0  0  0  0  0
  -24.8270  -28.9920   20.1150 C   0  0  0  0  0  0  0  0  0  0  0  0
  -25.9000  -30.8610   21.3730 C   0  0  0  0  0  2  0  0  0  0  0  0
  -25.9880  -29.4960   20.7160 C   0  0  0  0  0  0  0  0  0  0  0  0
  -27.1850  -28.7350   20.6980 C   0  0  0  0  0  3  0  0  0  0  0  0
  -26.0450  -26.9960   19.4490 C   0  0  0  0  0  3  0  0  0  0  0  0
  -24.8520  -27.7410   19.4850 C   0  0  0  0  0  3  0  0  0  0  0  0
  -23.5810  -29.8480   20.1740 C   0  0  0  0  0  2  0  0  0  0  0  0
  -24.6320  -31.1030   22.1070 N   0  0  0  0  0  0  0  0  0  0  0  0
  -23.4860  -32.1590   23.7550 O   0  0  0  0  0  0  0  0  0  0  0  0
  -22.7200  -29.4730   22.5090 C   0  0  0  0  0  0  0  0  0  0  0  0
  -21.3940  -29.2970   22.3890 N   0  0  0  0  0  0  0  0  0  0  0  0
  -23.4070  -28.8320   23.3100 O   0  0  0  0  0  0  0  0  0  0  0  0
  -20.9000  -29.8670   21.7150 H   0  0  0  0  0  0  0  0  0  0  0  0
  -18.0170  -28.1140   22.9040 C   0  0  0  0  0  0  0  0  0  0  0  0
  -20.5800  -28.3490   23.1490 C   0  0  0  0  0  3  0  0  0  0  0  0
  -20.6650  -26.9300   22.5430 C   0  0  0  0  0  2  0  0  0  0  0  0
  -19.5470  -26.6350   21.5360 C   0  0  0  0  0  2  0  0  0  0  0  0
  -18.1750  -26.7780   22.1990 C   0  0  0  0  0  2  0  0  0  0  0  0
  -19.1450  -28.8600   23.3350 C   0  0  0  0  0  0  0  0  0  0  0  0
  -18.9440  -30.1140   23.9510 C   0  0  0  0  0  3  0  0  0  0  0  0
  -17.6450  -30.6210   24.1430 C   0  0  0  0  0  3  0  0  0  0  0  0
  -16.5300  -29.8720   23.7300 C   0  0  0  0  0  3  0  0  0  0  0  0
  -16.7170  -28.6210   23.1150 C   0  0  0  0  0  3  0  0  0  0  0  0
  -25.8520  -32.5260   23.8390 C   0  0  0  0  0  3  0  0  0  0  0  0
  -25.5440  -33.9250   24.1660 N   0  0  0  0  0  0  0  0  0  0  0  0
  -25.8860  -34.9760   23.4090 C   0  0  0  0  0  0  0  0  0  0  0  0
  -26.5660  -34.8720   22.3840 O   0  0  0  0  0  0  0  0  0  0  0  0
  -24.9410  -34.0810   24.9610 H   0  0  0  0  0  0  0  0  0  0  0  0
  -24.1710  -36.7780   23.0290 C   0  0  0  0  0  1  0  0  0  0  0  0
  -25.3950  -36.3660   23.8610 C   0  0  0  0  0  3  0  0  0  0  0  0
  -27.5180  -37.2390   24.7340 C   0  0  0  0  0  1  0  0  0  0  0  0
  -26.4340  -37.4160   23.7720 N   0  0  0  0  0  0  0  0  0  0  0  0
  -26.0280  -38.3360   23.9170 H   0  0  0  0  0  0  0  0  0  0  0  0
  -26.3650  -31.7550   25.1160 C   0  0  1  0  0  0  0  0  0  0  0  0
  -25.2680  -31.5140   26.1790 C   0  0  0  0  0  1  0  0  0  0  0  0
  -26.9510  -30.3780   24.7260 C   0  0  0  0  0  1  0  0  0  0  0  0
  -27.5110  -32.5480   25.7840 C   0  0  0  0  0  1  0  0  0  0  0  0
  1  8  1  0
  1  7  1  0
  1 16  1  0
  2  4  1  0
  2  6  1  0
  3  5  1  0
  4  7  1  0
  6  9  1  1
  6  3  1  0
  7  5  1  0
 10  8  1  0
 11  8  1  0
 13 12  2  0
 14 12  1  0
 15 16  2  0
 15 17  1  0
 16 13  1  0
 17 14  2  0
 18 26  1  0
 19 24  1  0
 20 21  1  0
 20 19  1  0
 22 21  1  0
 22 31  1  0
 22 23  1  0
 24 18  1  0
 24 23  1  0
 25 18  2  0
 26 17  1  0
 26 27  1  0
 28 29  2  0
 29 48  1  0
 30 29  1  0
 30 33  1  0
 31 28  1  0
 31 32  1  0
 32 30  2  0
 33 34  1  0
 34 35  2  0
 36 39  1  0
 36 35  1  0
 37 36  2  0
 38 37  1  0
 38 33  2  0
 39 40  1  0
 40 41  1  0
 41 42  2  0
 43 42  1  0
 43 47  1  0
 44 43  2  0
 45 40  2  0
 45 44  1  0
 46 45  1  0
 48 49  1  0
 49 52  1  0
 49 51  1  0
 50 48  2  0
 53 54  1  0
 53 28  1  0
 55 53  1  0
 56  6  1  0
 56 57  1  0
 58 69  2  0
 59 57  1  0
 59 64  1  0
 60 68  1  0
 60 70  1  0
 61 67  1  0
 61 63  1  0
 62 68  1  0
 63 62  1  0
 64 63  2  0
 65 66  1  0
 65 59  2  0
 66 61  2  0
 67 60  1  0
 68 58  1  0
 70 72  2  0
 71 70  1  0
 73 71  1  0
 74 83  2  0
 74 79  1  0
 75 71  1  0
 75 79  1  0
 76 75  1  0
 77 78  1  0
 77 76  1  0
 78 74  1  0
 79 80  2  0
 80 81  1  0
 82 81  2  0
 83 82  1  0
 84 58  1  0
 84 85  1  0
 84 94  1  0
 85 88  1  0
 86 90  1  0
 86 85  1  0
 87 86  2  0
 90 89  1  0
 92 90  1  0
 92 93  1  0
 92 91  1  0
 94 97  1  1
 94 95  1  0
 96 94  1  0
M  ISO  4  18 100  26 100  56 101  57 101
M  END
>  <TORSDO>  (40) 
F 18

>  <SCORE>  (40) 
-14.622

>  <name>  (40) 
39

>  <ligand_id>  (40) 
39

>  <original_smiles>  (40) 
[H]c1c([H])c(C(N2C([H])([H])C([H])([H])C(F)(C([H])([H])Oc3c([H])c([H])c4c(c3[H])C([H])([H])N(C(=O)C([H])(N([H])C(=O)C([H])(N([H])C([H])([H])[H])C([H])([H])[H])C(C([H])([H])[H])(C([H])([H])[H])C([H])([H])[H])C([H])(C(=O)N([H])C3([H])c5c([H])c([H])c([H])c([H])c5C([H])([H])C([H])([H])C3([H])[H])C4([H])[H])C([H])([H])C2([H])[H])=[N+]([H])[H])c([H])c(N([H])C(=O)N2C([H])([H])C([H])([H])C([H])([H])C([H])(n3nc(-c4c([H])c([H])c(Oc5c([H])c([H])c(F)c([H])c5F)c([H])c4[H])c(C(=O)N([H])[H])c3N([H])[H])C2([H])[H])c1[H]

>  <smiles>  (40) 
[H]c1c([H])c(C(N2C([H])([H])C([H])([H])C(F)(C([H])([H])Oc3c([H])c([H])c4c(c3[H])C([H])([H])N(C(=O)C([H])(N([H])C(=O)C([H])(N([H])C([H])([H])[H])C([H])([H])[H])C(C([H])([H])[H])(C([H])([H])[H])C([H])([H])[H])C([H])(C(=O)N([H])C3([H])c5c([H])c([H])c([H])c([H])c5C([H])([H])C([H])([H])C3([H])[H])C4([H])[H])C([H])([H])C2([H])[H])=[N+]([H])[H])c([H])c(N([H])C(=O)N2C([H])([H])C([H])([H])C([H])([H])C([H])(n3nc(-c4c([H])c([H])c(Oc5c([H])c([H])c(F)c([H])c5F)c([H])c4[H])c(C(=O)N([H])[H])c3N([H])[H])C2([H])[H])c1[H]

$$$$
40:0:0
     RDKit          3D

100110  0  0  1  0  0  0  0  0999 V2000
  -31.9390  -23.3100   20.1810 C   0  0  0  0  0  3  0  0  0  0  0  0
  -33.1680  -22.4270   18.2630 C   0  0  0  0  0  3  0  0  0  0  0  0
  -31.8630  -24.4650   18.0250 C   0  0  0  0  0  3  0  0  0  0  0  0
  -32.7670  -22.3160   19.6120 C   0  0  0  0  0  0  0  0  0  0  0  0
  -31.4690  -24.3740   19.3770 C   0  0  0  0  0  0  0  0  0  0  0  0
  -32.7210  -23.5010   17.4710 C   0  0  0  0  0  0  0  0  0  0  0  0
  -33.0890  -23.5870   16.1700 F   0  0  0  0  0  0  0  0  0  0  0  0
  -32.7620  -19.6910   19.9300 C   0  0  0  0  0  2  0  0  0  0  0  0
  -32.5770  -20.6750   21.7450 C   0  0  0  0  0  2  0  0  0  0  0  0
  -33.1880  -21.0870   20.3990 C   0  0  0  0  0  3  0  0  0  0  0  0
  -32.8870  -19.3070   21.3320 N   0  0  0  0  0  0  0  0  0  0  0  0
  -31.1000  -18.2830   22.8090 C   0  0  0  0  0  3  0  0  0  0  0  0
  -30.4050  -17.0440   22.7280 C   0  0  0  0  0  3  0  0  0  0  0  0
  -31.9610  -18.3200   21.7450 C   0  0  0  0  0  0  0  0  0  0  0  0
  -30.9260  -16.4110   21.6360 C   0  0  0  0  0  0  0  0  0  0  0  0
  -31.8760  -17.1660   21.0190 O   0  0  0  0  0  0  0  0  0  0  0  0
  -30.9770  -14.4440   20.2000 C   0  0  0  0  0  0  0  0  0  0  0  0
  -30.6060  -12.3520   18.9300 C   0  0  0  0  0  2  0  0  0  0  0  0
  -29.6170  -12.5600   17.7680 C   0  0  0  0  0  2  0  0  0  0  0  0
  -28.1590  -12.4140   18.2530 C   0  0  0  0  0  2  0  0  0  0  0  0
  -27.8690  -13.2600   19.5210 C   0  0  0  0  0  3  0  0  0  0  0  0
  -28.9510  -12.9930   20.5890 C   0  0  0  0  0  2  0  0  0  0  0  0
  -30.2710  -13.3000   20.0030 N   0  0  0  0  0  0  0  0  0  0  0  0
  -31.9680  -14.7490   19.5220 O   0  0  0  0  0  0  0  0  0  0  0  0
  -30.5250  -15.1850   21.2260 N   0  0  0  0  0  0  0  0  0  0  0  0
  -29.7520  -14.7770   21.7280 H   0  0  0  0  0  0  0  0  0  0  0  0
  -25.4920  -13.8930   20.2950 C   0  0  0  0  0  0  0  0  0  0  0  0
  -24.4340  -13.1270   20.7130 C   0  0  0  0  0  0  0  0  0  0  0  0
  -24.8920  -11.7750   20.6850 C   0  0  0  0  0  0  0  0  0  0  0  0
  -26.5260  -13.0030   20.0400 N   0  0  0  0  0  0  0  0  0  0  0  0
  -26.1690  -11.7270   20.3310 N   0  0  0  0  0  0  0  0  0  0  0  0
  -24.1730  -10.5160   20.9180 C   0  0  0  0  0  0  0  0  0  0  0  0
  -24.5940   -9.5980   21.9050 C   0  0  0  0  0  3  0  0  0  0  0  0
  -23.8760   -8.4030   22.1200 C   0  0  0  0  0  3  0  0  0  0  0  0
  -22.7230   -8.1180   21.3520 C   0  0  0  0  0  0  0  0  0  0  0  0
  -22.3230   -9.0240   20.3550 C   0  0  0  0  0  3  0  0  0  0  0  0
  -23.0420  -10.2110   20.1370 C   0  0  0  0  0  3  0  0  0  0  0  0
  -21.9740   -6.9730   21.4760 O   0  0  0  0  0  0  0  0  0  0  0  0
  -21.8590   -6.3170   22.6740 C   0  0  0  0  0  0  0  0  0  0  0  0
  -21.3290   -6.9450   23.8220 C   0  0  0  0  0  3  0  0  0  0  0  0
  -21.1640   -6.2100   25.0130 C   0  0  0  0  0  3  0  0  0  0  0  0
  -21.5190   -4.8490   25.0570 C   0  0  0  0  0  0  0  0  0  0  0  0
  -22.0410   -4.2200   23.9130 C   0  0  0  0  0  3  0  0  0  0  0  0
  -22.2070   -4.9520   22.7240 C   0  0  0  0  0  0  0  0  0  0  0  0
  -22.6920   -4.3370   21.6190 F   0  0  0  0  0  0  0  0  0  0  0  0
  -21.3530   -4.1410   26.1980 F   0  0  0  0  0  0  0  0  0  0  0  0
  -23.0490  -13.6110   21.0290 C   0  0  0  0  0  0  0  0  0  0  0  0
  -22.3560  -12.9330   21.9390 N   0  0  0  0  0  0  0  0  0  0  0  0
  -22.5900  -14.6230   20.5050 O   0  0  0  0  0  0  0  0  0  0  0  0
  -22.7360  -12.1090   22.3830 H   0  0  0  0  0  0  0  0  0  0  0  0
  -21.4290  -13.2400   22.1970 H   0  0  0  0  0  0  0  0  0  0  0  0
  -25.6550  -15.2600   20.0960 N   0  0  0  0  0  0  0  0  0  0  0  0
  -24.8960  -15.9200   20.2290 H   0  0  0  0  0  0  0  0  0  0  0  0
  -26.4990  -15.6950   19.7440 H   0  0  0  0  0  0  0  0  0  0  0  0
  -30.7070  -26.3480   20.6420 C   0  0  0  0  0  0  0  0  0  0  0  0
  -30.5000  -25.2840   19.8580 N   0  0  0  0  0  0  0  0  0  0  0  0
  -31.8020  -26.6140   21.1500 O   0  0  0  0  0  0  0  0  0  0  0  0
  -29.5690  -25.2330   19.4640 H   0  0  0  0  0  0  0  0  0  0  0  0
  -29.4920  -27.2540   20.8890 C   0  0  0  0  0  2  0  0  0  0  0  0
  -28.3260  -26.7430   20.2280 O   0  0  0  0  0  0  0  0  0  0  0  0
  -24.5270  -31.9650   23.2850 C   0  0  0  0  0  0  0  0  0  0  0  0
  -27.1770  -27.5060   20.2730 C   0  0  0  0  0  0  0  0  0  0  0  0
  -23.3040  -30.5480   21.6560 C   0  0  0  0  0  3  0  0  0  0  0  0
  -24.7550  -28.9730   20.2640 C   0  0  0  0  0  0  0  0  0  0  0  0
  -25.8210  -30.9060   21.4400 C   0  0  0  0  0  2  0  0  0  0  0  0
  -25.9050  -29.5200   20.8430 C   0  0  0  0  0  0  0  0  0  0  0  0
  -27.1110  -28.7960   20.8540 C   0  0  0  0  0  3  0  0  0  0  0  0
  -26.0070  -26.9630   19.6990 C   0  0  0  0  0  3  0  0  0  0  0  0
  -24.7970  -27.6890   19.6920 C   0  0  0  0  0  3  0  0  0  0  0  0
  -23.5100  -29.8290   20.2910 C   0  0  0  0  0  2  0  0  0  0  0  0
  -24.5690  -31.1540   22.1880 N   0  0  0  0  0  0  0  0  0  0  0  0
  -23.4510  -32.2510   23.8270 O   0  0  0  0  0  0  0  0  0  0  0  0
  -22.6460  -29.5510   22.6350 C   0  0  0  0  0  0  0  0  0  0  0  0
  -21.3320  -29.3360   22.4710 N   0  0  0  0  0  0  0  0  0  0  0  0
  -23.3170  -28.9710   23.4930 O   0  0  0  0  0  0  0  0  0  0  0  0
  -20.8530  -29.8560   21.7500 H   0  0  0  0  0  0  0  0  0  0  0  0
  -17.9760  -28.0720   22.8780 C   0  0  0  0  0  0  0  0  0  0  0  0
  -20.5110  -28.4090   23.2470 C   0  0  0  0  0  3  0  0  0  0  0  0
  -20.6740  -26.9590   22.7390 C   0  0  0  0  0  2  0  0  0  0  0  0
  -19.6280  -26.5650   21.6920 C   0  0  0  0  0  2  0  0  0  0  0  0
  -18.2160  -26.7010   22.2690 C   0  0  0  0  0  2  0  0  0  0  0  0
  -19.0540  -28.8800   23.3230 C   0  0  0  0  0  0  0  0  0  0  0  0
  -18.7800  -30.1610   23.8490 C   0  0  0  0  0  3  0  0  0  0  0  0
  -17.4580  -30.6370   23.9320 C   0  0  0  0  0  3  0  0  0  0  0  0
  -16.3920  -29.8260   23.5060 C   0  0  0  0  0  3  0  0  0  0  0  0
  -16.6520  -28.5450   22.9850 C   0  0  0  0  0  3  0  0  0  0  0  0
  -25.8230  -32.5890   23.8960 C   0  0  0  0  0  3  0  0  0  0  0  0
  -26.3510  -31.8150   25.1680 C   0  0  1  0  0  0  0  0  0  0  0  0
  -25.2630  -31.5600   26.2350 C   0  0  0  0  0  1  0  0  0  0  0  0
  -26.9470  -30.4460   24.7640 C   0  0  0  0  0  1  0  0  0  0  0  0
  -27.4900  -32.6170   25.8390 C   0  0  0  0  0  1  0  0  0  0  0  0
  -25.5300  -33.9910   24.2190 N   0  0  0  0  0  0  0  0  0  0  0  0
  -25.8980  -35.0350   23.4640 C   0  0  0  0  0  0  0  0  0  0  0  0
  -26.5920  -34.9200   22.4500 O   0  0  0  0  0  0  0  0  0  0  0  0
  -24.9170  -34.1580   25.0030 H   0  0  0  0  0  0  0  0  0  0  0  0
  -24.2370  -36.8720   23.0300 C   0  0  0  0  0  1  0  0  0  0  0  0
  -25.4190  -36.4310   23.9060 C   0  0  0  0  0  3  0  0  0  0  0  0
  -27.5210  -37.2610   24.8650 C   0  0  0  0  0  1  0  0  0  0  0  0
  -26.4800  -37.4600   23.8600 N   0  0  0  0  0  0  0  0  0  0  0  0
  -26.0880  -38.3880   23.9910 H   0  0  0  0  0  0  0  0  0  0  0  0
  2  4  2  0
  3  5  1  0
  4  1  1  0
  5 56  1  0
  5  1  2  0
  6  3  2  0
  6  2  1  0
  7  6  1  0
  8 10  1  0
  8 11  1  0
 10  4  1  0
 10  9  1  0
 11 14  1  0
 11  9  1  0
 13 12  1  0
 14 12  2  0
 15 13  2  0
 16 15  1  0
 16 14  1  0
 17 25  1  0
 18 23  1  0
 19 20  1  0
 19 18  1  0
 21 20  1  0
 21 30  1  0
 21 22  1  0
 23 17  1  0
 23 22  1  0
 24 17  2  0
 25 15  1  0
 25 26  1  0
 27 28  2  0
 28 47  1  0
 29 28  1  0
 29 32  1  0
 30 27  1  0
 30 31  1  0
 31 29  2  0
 32 33  1  0
 33 34  2  0
 35 38  1  0
 35 34  1  0
 36 35  2  0
 37 36  1  0
 37 32  2  0
 38 39  1  0
 39 44  2  0
 39 40  1  0
 40 41  2  0
 41 42  1  0
 42 46  1  0
 43 42  2  0
 44 43  1  0
 45 44  1  0
 47 48  1  0
 48 51  1  0
 48 50  1  0
 49 47  2  0
 52 53  1  0
 52 27  1  0
 54 52  1  0
 55 59  1  0
 55 57  2  0
 56 55  1  0
 58 56  1  0
 60 62  1  0
 60 59  1  0
 61 72  2  0
 62 67  1  0
 63 71  1  0
 63 73  1  0
 64 70  1  0
 64 66  1  0
 65 71  1  0
 66 67  2  0
 66 65  1  0
 68 62  2  0
 69 68  1  0
 69 64  2  0
 70 63  1  0
 71 61  1  0
 73 75  2  0
 74 73  1  0
 76 74  1  0
 77 86  2  0
 77 82  1  0
 78 74  1  0
 78 82  1  0
 79 78  1  0
 80 81  1  0
 80 79  1  0
 81 77  1  0
 82 83  2  0
 83 84  1  0
 85 84  2  0
 86 85  1  0
 87 61  1  0
 87 92  1  0
 87 88  1  0
 88 91  1  1
 88 89  1  0
 90 88  1  0
 92 95  1  0
 93 97  1  0
 93 92  1  0
 94 93  2  0
 97 96  1  0
 99 97  1  0
 99100  1  0
 99 98  1  0
M  ISO  4  17 100  25 100  59 101  60 101
M  END
>  <TORSDO>  (41) 
F 20

>  <SCORE>  (41) 
-13.402

>  <name>  (41) 
40

>  <ligand_id>  (41) 
40

>  <original_smiles>  (41) 
[H]c1c(N([H])C(=O)N2C([H])([H])C([H])([H])C([H])([H])C([H])(n3nc(-c4c([H])c([H])c(Oc5c([H])c([H])c(F)c([H])c5F)c([H])c4[H])c(C(=O)N([H])[H])c3N([H])[H])C2([H])[H])oc(N2C([H])([H])C([H])(c3c([H])c(F)c([H])c(N([H])C(=O)C([H])([H])Oc4c([H])c([H])c5c(c4[H])C([H])([H])N(C(=O)C([H])(N([H])C(=O)C([H])(N([H])C([H])([H])[H])C([H])([H])[H])C(C([H])([H])[H])(C([H])([H])[H])C([H])([H])[H])C([H])(C(=O)N([H])C4([H])c6c([H])c([H])c([H])c([H])c6C([H])([H])C([H])([H])C4([H])[H])C5([H])[H])c3[H])C2([H])[H])c1[H]

>  <smiles>  (41) 
[H]c1c(N([H])C(=O)N2C([H])([H])C([H])([H])C([H])([H])C([H])(n3nc(-c4c([H])c([H])c(Oc5c([H])c([H])c(F)c([H])c5F)c([H])c4[H])c(C(=O)N([H])[H])c3N([H])[H])C2([H])[H])oc(N2C([H])([H])C([H])(c3c([H])c(F)c([H])c(N([H])C(=O)C([H])([H])Oc4c([H])c([H])c5c(c4[H])C([H])([H])N(C(=O)C([H])(N([H])C(=O)C([H])(N([H])C([H])([H])[H])C([H])([H])[H])C(C([H])([H])[H])(C([H])([H])[H])C([H])([H])[H])C([H])(C(=O)N([H])C4([H])c6c([H])c([H])c([H])c([H])c6C([H])([H])C([H])([H])C4([H])[H])C5([H])[H])c3[H])C2([H])[H])c1[H]

$$$$
41:0:0
     RDKit          3D

 94103  0  0  1  0  0  0  0  0999 V2000
  -26.2660  -19.8010   19.2380 C   0  0  0  0  0  3  0  0  0  0  0  0
  -26.9350  -18.6540   19.6990 C   0  0  0  0  0  3  0  0  0  0  0  0
  -26.8780  -21.0590   19.3510 C   0  0  0  0  0  3  0  0  0  0  0  0
  -28.8380  -20.0140   20.3880 C   0  0  0  0  0  3  0  0  0  0  0  0
  -28.2220  -18.7380   20.2730 C   0  0  0  0  0  0  0  0  0  0  0  0
  -28.1510  -21.1750   19.9440 C   0  0  0  0  0  0  0  0  0  0  0  0
  -30.9390  -14.5340   19.9050 C   0  0  0  0  0  0  0  0  0  0  0  0
  -30.5800  -12.3670   18.7680 C   0  0  0  0  0  2  0  0  0  0  0  0
  -29.5340  -12.5560   17.6520 C   0  0  0  0  0  2  0  0  0  0  0  0
  -28.1020  -12.4050   18.2100 C   0  0  0  0  0  2  0  0  0  0  0  0
  -27.8680  -13.2450   19.4910 C   0  0  0  0  0  3  0  0  0  0  0  0
  -29.0120  -13.0270   20.5030 C   0  0  0  0  0  2  0  0  0  0  0  0
  -30.2810  -13.3460   19.8250 N   0  0  0  0  0  0  0  0  0  0  0  0
  -32.0080  -14.7530   19.3230 O   0  0  0  0  0  0  0  0  0  0  0  0
  -29.8810  -17.4690   21.8950 C   0  0  0  0  0  2  0  0  0  0  0  0
  -30.5160  -16.0610   21.8260 C   0  0  0  0  0  2  0  0  0  0  0  0
  -29.5790  -16.5970   19.7090 C   0  0  0  0  0  2  0  0  0  0  0  0
  -28.8540  -17.4300   20.7670 C   0  0  0  0  0  3  0  0  0  0  0  0
  -30.2340  -15.5350   20.4830 N   0  0  0  0  0  0  0  0  0  0  0  0
  -25.5720  -13.8790   20.4650 C   0  0  0  0  0  0  0  0  0  0  0  0
  -24.5210  -13.1160   20.8950 C   0  0  0  0  0  0  0  0  0  0  0  0
  -24.9330  -11.7570   20.7410 C   0  0  0  0  0  0  0  0  0  0  0  0
  -26.5600  -12.9840   20.0840 N   0  0  0  0  0  0  0  0  0  0  0  0
  -26.1850  -11.6990   20.3050 N   0  0  0  0  0  0  0  0  0  0  0  0
  -24.1920  -10.5060   20.9300 C   0  0  0  0  0  0  0  0  0  0  0  0
  -24.6050   -9.5400   21.8720 C   0  0  0  0  0  3  0  0  0  0  0  0
  -23.8650   -8.3520   22.0470 C   0  0  0  0  0  3  0  0  0  0  0  0
  -22.7000   -8.1220   21.2780 C   0  0  0  0  0  0  0  0  0  0  0  0
  -22.3050   -9.0800   20.3260 C   0  0  0  0  0  3  0  0  0  0  0  0
  -23.0470  -10.2600   20.1490 C   0  0  0  0  0  3  0  0  0  0  0  0
  -21.9320   -6.9870   21.3620 O   0  0  0  0  0  0  0  0  0  0  0  0
  -21.7590   -6.3210   22.5500 C   0  0  0  0  0  0  0  0  0  0  0  0
  -21.2070   -6.9530   23.6850 C   0  0  0  0  0  3  0  0  0  0  0  0
  -20.9800   -6.2130   24.8620 C   0  0  0  0  0  3  0  0  0  0  0  0
  -21.2970   -4.8420   24.9050 C   0  0  0  0  0  0  0  0  0  0  0  0
  -21.8430   -4.2100   23.7740 C   0  0  0  0  0  3  0  0  0  0  0  0
  -22.0700   -4.9470   22.5980 C   0  0  0  0  0  0  0  0  0  0  0  0
  -22.5750   -4.3280   21.5050 F   0  0  0  0  0  0  0  0  0  0  0  0
  -21.0720   -4.1290   26.0330 F   0  0  0  0  0  0  0  0  0  0  0  0
  -23.1720  -13.6130   21.3310 C   0  0  0  0  0  0  0  0  0  0  0  0
  -22.5240  -12.9030   22.2470 N   0  0  0  0  0  0  0  0  0  0  0  0
  -22.7060  -14.6650   20.8910 O   0  0  0  0  0  0  0  0  0  0  0  0
  -22.9130  -12.0490   22.6200 H   0  0  0  0  0  0  0  0  0  0  0  0
  -21.6240  -13.2190   22.5790 H   0  0  0  0  0  0  0  0  0  0  0  0
  -25.7610  -15.2500   20.3460 N   0  0  0  0  0  0  0  0  0  0  0  0
  -25.0310  -15.9210   20.5560 H   0  0  0  0  0  0  0  0  0  0  0  0
  -26.5900  -15.6680   19.9420 H   0  0  0  0  0  0  0  0  0  0  0  0
  -28.4210  -23.2860   21.1130 C   0  0  0  0  0  0  0  0  0  0  0  0
  -28.6950  -22.4780   20.0720 N   0  0  0  0  0  0  0  0  0  0  0  0
  -28.0530  -22.8370   22.2030 O   0  0  0  0  0  0  0  0  0  0  0  0
  -29.0250  -22.9100   19.2190 H   0  0  0  0  0  0  0  0  0  0  0  0
  -28.6110  -24.8110   20.9780 C   0  0  0  0  0  2  0  0  0  0  0  0
  -28.6190  -25.3750   19.5390 C   0  0  0  0  0  2  0  0  0  0  0  0
  -28.5570  -26.8120   19.5500 O   0  0  0  0  0  0  0  0  0  0  0  0
  -24.5610  -31.6180   22.9460 C   0  0  0  0  0  0  0  0  0  0  0  0
  -27.3320  -27.4470   19.6060 C   0  0  0  0  0  0  0  0  0  0  0  0
  -23.3940  -30.2760   21.2300 C   0  0  0  0  0  3  0  0  0  0  0  0
  -24.8860  -28.8740   19.7160 C   0  0  0  0  0  0  0  0  0  0  0  0
  -25.9050  -30.7290   21.0470 C   0  0  0  0  0  2  0  0  0  0  0  0
  -26.0310  -29.4010   20.3260 C   0  0  0  0  0  0  0  0  0  0  0  0
  -27.2550  -28.6990   20.2600 C   0  0  0  0  0  3  0  0  0  0  0  0
  -26.1620  -26.9260   19.0060 C   0  0  0  0  0  3  0  0  0  0  0  0
  -24.9490  -27.6370   19.0510 C   0  0  0  0  0  3  0  0  0  0  0  0
  -23.6180  -29.6920   19.8110 C   0  0  0  0  0  2  0  0  0  0  0  0
  -24.6380  -30.8890   21.7980 N   0  0  0  0  0  0  0  0  0  0  0  0
  -23.4730  -31.8180   23.5060 O   0  0  0  0  0  0  0  0  0  0  0  0
  -22.7800  -29.1770   22.1270 C   0  0  0  0  0  0  0  0  0  0  0  0
  -21.4510  -29.0110   22.0500 N   0  0  0  0  0  0  0  0  0  0  0  0
  -23.4980  -28.4800   22.8510 O   0  0  0  0  0  0  0  0  0  0  0  0
  -20.9290  -29.6370   21.4540 H   0  0  0  0  0  0  0  0  0  0  0  0
  -18.0950  -27.8140   22.6350 C   0  0  0  0  0  0  0  0  0  0  0  0
  -20.6670  -28.0160   22.7780 C   0  0  0  0  0  3  0  0  0  0  0  0
  -20.7110  -26.6440   22.0630 C   0  0  0  0  0  2  0  0  0  0  0  0
  -19.5450  -26.4210   21.0940 C   0  0  0  0  0  2  0  0  0  0  0  0
  -18.2070  -26.5270   21.8340 C   0  0  0  0  0  2  0  0  0  0  0  0
  -19.2480  -28.5220   23.0630 C   0  0  0  0  0  0  0  0  0  0  0  0
  -19.0850  -29.7280   23.7790 C   0  0  0  0  0  3  0  0  0  0  0  0
  -17.8000  -30.2260   24.0680 C   0  0  0  0  0  3  0  0  0  0  0  0
  -16.6610  -29.5140   23.6500 C   0  0  0  0  0  3  0  0  0  0  0  0
  -16.8110  -28.3090   22.9410 C   0  0  0  0  0  3  0  0  0  0  0  0
  -25.8270  -32.2540   23.6000 C   0  0  0  0  0  3  0  0  0  0  0  0
  -26.4100  -31.3990   24.7920 C   0  0  1  0  0  0  0  0  0  0  0  0
  -25.3590  -31.0230   25.8620 C   0  0  0  0  0  1  0  0  0  0  0  0
  -27.0360  -30.0860   24.2660 C   0  0  0  0  0  1  0  0  0  0  0  0
  -27.5490  -32.1800   25.4910 C   0  0  0  0  0  1  0  0  0  0  0  0
  -25.4610  -33.6010   24.0580 N   0  0  0  0  0  0  0  0  0  0  0  0
  -25.7370  -34.7290   23.3910 C   0  0  0  0  0  0  0  0  0  0  0  0
  -26.4020  -34.7470   22.3520 O   0  0  0  0  0  0  0  0  0  0  0  0
  -24.8680  -33.6590   24.8720 H   0  0  0  0  0  0  0  0  0  0  0  0
  -23.9270  -36.4650   23.2060 C   0  0  0  0  0  1  0  0  0  0  0  0
  -25.1930  -36.0490   23.9730 C   0  0  0  0  0  3  0  0  0  0  0  0
  -27.2920  -36.9540   24.8690 C   0  0  0  0  0  1  0  0  0  0  0  0
  -26.1760  -37.1550   23.9470 N   0  0  0  0  0  0  0  0  0  0  0  0
  -25.7300  -38.0390   24.1760 H   0  0  0  0  0  0  0  0  0  0  0  0
  1  3  2  0
  1  2  1  0
  2  5  2  0
  3  6  1  0
  5  4  1  0
  6 49  1  0
  6  4  2  0
  7 19  1  0
  8 13  1  0
  9 10  1  0
  9  8  1  0
 11 10  1  0
 11 23  1  0
 11 12  1  0
 13  7  1  0
 13 12  1  0
 14  7  2  0
 16 15  1  0
 17 19  1  0
 17 18  1  0
 18  5  1  0
 18 15  1  0
 19 16  1  0
 20 21  2  0
 21 40  1  0
 22 21  1  0
 22 25  1  0
 23 24  1  0
 23 20  1  0
 24 22  2  0
 25 26  1  0
 26 27  2  0
 28 31  1  0
 28 27  1  0
 29 28  2  0
 30 29  1  0
 30 25  2  0
 31 32  1  0
 32 37  2  0
 32 33  1  0
 33 34  2  0
 34 35  1  0
 35 39  1  0
 36 35  2  0
 37 36  1  0
 38 37  1  0
 40 41  1  0
 41 44  1  0
 41 43  1  0
 42 40  2  0
 45 20  1  0
 45 46  1  0
 47 45  1  0
 48 50  2  0
 49 48  1  0
 51 49  1  0
 52 48  1  0
 53 54  1  0
 53 52  1  0
 54 56  1  0
 55 66  2  0
 56 61  1  0
 57 65  1  0
 57 67  1  0
 58 64  1  0
 58 60  1  0
 59 65  1  0
 60 59  1  0
 61 60  2  0
 62 63  1  0
 62 56  2  0
 63 58  2  0
 64 57  1  0
 65 55  1  0
 67 69  2  0
 68 67  1  0
 70 68  1  0
 71 80  2  0
 71 76  1  0
 72 68  1  0
 72 76  1  0
 73 72  1  0
 74 75  1  0
 74 73  1  0
 75 71  1  0
 76 77  2  0
 77 78  1  0
 79 78  2  0
 80 79  1  0
 81 55  1  0
 81 86  1  0
 81 82  1  0
 82 85  1  1
 82 83  1  0
 84 82  1  0
 86 89  1  0
 87 91  1  0
 87 86  1  0
 88 87  2  0
 91 90  1  0
 93 91  1  0
 93 94  1  0
 93 92  1  0
M  ISO  4   7 100  19 100  53 101  54 101
M  END
>  <TORSDO>  (42) 
F 19

>  <SCORE>  (42) 
-12.482

>  <name>  (42) 
41

>  <ligand_id>  (42) 
41

>  <original_smiles>  (42) 
[H]c1c([H])c([H])c2c(c1[H])C([H])([H])C([H])([H])C([H])([H])C2([H])N([H])C(=O)C1([H])N(C(=O)C([H])(N([H])C(=O)C([H])(N([H])C([H])([H])[H])C([H])([H])[H])C(C([H])([H])[H])(C([H])([H])[H])C([H])([H])[H])C([H])([H])c2c([H])c(OC([H])([H])C([H])([H])C(=O)N([H])c3c([H])c([H])c([H])c(C4([H])C([H])([H])N(C(=O)N5C([H])([H])C([H])([H])C([H])([H])C([H])(n6nc(-c7c([H])c([H])c(Oc8c([H])c([H])c(F)c([H])c8F)c([H])c7[H])c(C(=O)N([H])[H])c6N([H])[H])C5([H])[H])C([H])([H])C4([H])[H])c3[H])c([H])c([H])c2C1([H])[H]

>  <smiles>  (42) 
[H]c1c([H])c([H])c2c(c1[H])C([H])([H])C([H])([H])C([H])([H])C2([H])N([H])C(=O)C1([H])N(C(=O)C([H])(N([H])C(=O)C([H])(N([H])C([H])([H])[H])C([H])([H])[H])C(C([H])([H])[H])(C([H])([H])[H])C([H])([H])[H])C([H])([H])c2c([H])c(OC([H])([H])C([H])([H])C(=O)N([H])c3c([H])c([H])c([H])c(C4([H])C([H])([H])N(C(=O)N5C([H])([H])C([H])([H])C([H])([H])C([H])(n6nc(-c7c([H])c([H])c(Oc8c([H])c([H])c(F)c([H])c8F)c([H])c7[H])c(C(=O)N([H])[H])c6N([H])[H])C5([H])[H])C([H])([H])C4([H])[H])c3[H])c([H])c([H])c2C1([H])[H]

$$$$
42:0:0
     RDKit          3D

 97106  0  0  1  0  0  0  0  0999 V2000
  -28.6070  -23.7750   20.8450 C   0  0  0  0  0  0  0  0  0  0  0  0
  -29.2780  -21.2110   20.7890 C   0  0  0  0  0  3  0  0  0  0  0  0
  -28.8060  -24.3540   18.5660 C   0  0  0  0  0  2  0  0  0  0  0  0
  -29.0150  -22.8080   18.7460 C   0  0  0  0  0  2  0  0  0  0  0  0
  -28.1000  -24.8860   19.8230 C   0  0  0  0  0  3  0  0  0  0  0  0
  -29.0120  -22.4800   20.1880 N   0  0  0  0  0  0  0  0  0  0  0  0
  -29.0610  -21.0970   22.1130 N   0  0  0  0  0  0  0  0  0  0  0  0
  -28.5880  -23.9180   22.0760 O   0  0  0  0  0  0  0  0  0  0  0  0
  -29.2130  -20.2100   22.5710 H   0  0  0  0  0  0  0  0  0  0  0  0
  -28.7620  -21.8910   22.6690 H   0  0  0  0  0  0  0  0  0  0  0  0
  -30.9650  -18.0900   19.2410 C   0  0  0  0  0  3  0  0  0  0  0  0
  -30.7730  -19.5200   19.2640 C   0  0  0  0  0  0  0  0  0  0  0  0
  -29.8180  -19.8980   20.1880 C   0  0  0  0  0  0  0  0  0  0  0  0
  -30.1400  -17.5460   20.1920 C   0  0  0  0  0  0  0  0  0  0  0  0
  -29.4220  -18.6430   20.7660 O   0  0  0  0  0  0  0  0  0  0  0  0
  -30.7590  -15.0260   20.1840 C   0  0  0  0  0  0  0  0  0  0  0  0
  -30.5930  -12.7070   19.2260 C   0  0  0  0  0  2  0  0  0  0  0  0
  -29.6220  -12.7250   18.0230 C   0  0  0  0  0  2  0  0  0  0  0  0
  -28.1700  -12.5240   18.4940 C   0  0  0  0  0  2  0  0  0  0  0  0
  -27.8090  -13.4240   19.7070 C   0  0  0  0  0  3  0  0  0  0  0  0
  -28.8990  -13.3840   20.8010 C   0  0  0  0  0  2  0  0  0  0  0  0
  -30.1670  -13.7740   20.1700 N   0  0  0  0  0  0  0  0  0  0  0  0
  -31.9280  -15.1220   19.7960 O   0  0  0  0  0  0  0  0  0  0  0  0
  -29.9860  -16.1600   20.4880 N   0  0  0  0  0  0  0  0  0  0  0  0
  -29.1080  -15.9290   20.9260 H   0  0  0  0  0  0  0  0  0  0  0  0
  -25.4510  -13.9870   20.5360 C   0  0  0  0  0  0  0  0  0  0  0  0
  -24.4000  -13.2020   20.9240 C   0  0  0  0  0  0  0  0  0  0  0  0
  -24.8620  -11.8530   20.8410 C   0  0  0  0  0  0  0  0  0  0  0  0
  -26.4860  -13.1160   20.2390 N   0  0  0  0  0  0  0  0  0  0  0  0
  -26.1410  -11.8250   20.4850 N   0  0  0  0  0  0  0  0  0  0  0  0
  -24.1430  -10.5860   21.0240 C   0  0  0  0  0  0  0  0  0  0  0  0
  -24.5660   -9.6230   21.9660 C   0  0  0  0  0  3  0  0  0  0  0  0
  -23.8450   -8.4220   22.1380 C   0  0  0  0  0  3  0  0  0  0  0  0
  -22.6860   -8.1730   21.3640 C   0  0  0  0  0  0  0  0  0  0  0  0
  -22.2820   -9.1240   20.4090 C   0  0  0  0  0  3  0  0  0  0  0  0
  -23.0040  -10.3160   20.2370 C   0  0  0  0  0  3  0  0  0  0  0  0
  -21.9370   -7.0230   21.4420 O   0  0  0  0  0  0  0  0  0  0  0  0
  -21.8200   -6.3200   22.6140 C   0  0  0  0  0  0  0  0  0  0  0  0
  -21.2380   -6.8870   23.7690 C   0  0  0  0  0  3  0  0  0  0  0  0
  -21.0750   -6.1070   24.9300 C   0  0  0  0  0  3  0  0  0  0  0  0
  -21.4820   -4.7600   24.9370 C   0  0  0  0  0  0  0  0  0  0  0  0
  -22.0570   -4.1910   23.7860 C   0  0  0  0  0  3  0  0  0  0  0  0
  -22.2220   -4.9700   22.6270 C   0  0  0  0  0  0  0  0  0  0  0  0
  -22.7570   -4.4110   21.5150 F   0  0  0  0  0  0  0  0  0  0  0  0
  -21.3180   -4.0070   26.0510 F   0  0  0  0  0  0  0  0  0  0  0  0
  -23.0120  -13.6710   21.2560 C   0  0  0  0  0  0  0  0  0  0  0  0
  -22.3110  -12.9470   22.1210 N   0  0  0  0  0  0  0  0  0  0  0  0
  -22.5620  -14.7150   20.7840 O   0  0  0  0  0  0  0  0  0  0  0  0
  -22.6900  -12.1020   22.5230 H   0  0  0  0  0  0  0  0  0  0  0  0
  -21.3820  -13.2420   22.3850 H   0  0  0  0  0  0  0  0  0  0  0  0
  -25.6080  -15.3620   20.3890 N   0  0  0  0  0  0  0  0  0  0  0  0
  -24.8420  -16.0100   20.5400 H   0  0  0  0  0  0  0  0  0  0  0  0
  -26.4330  -15.8090   20.0110 H   0  0  0  0  0  0  0  0  0  0  0  0
  -31.5350  -20.3820   18.4710 N   0  0  0  0  0  0  0  0  0  0  0  0
  -32.3350  -19.9780   17.9900 H   0  0  0  0  0  0  0  0  0  0  0  0
  -31.7590  -21.3000   18.8380 H   0  0  0  0  0  0  0  0  0  0  0  0
  -28.2590  -26.3930   20.1150 O   0  0  0  0  0  0  0  0  0  0  0  0
  -24.5660  -31.9350   23.1360 C   0  0  0  0  0  0  0  0  0  0  0  0
  -27.1740  -27.3260   20.0320 C   0  0  0  0  0  0  0  0  0  0  0  0
  -23.3670  -30.5450   21.4900 C   0  0  0  0  0  3  0  0  0  0  0  0
  -24.8220  -29.0140   20.0360 C   0  0  0  0  0  0  0  0  0  0  0  0
  -25.9140  -30.8500   21.3110 C   0  0  0  0  0  2  0  0  0  0  0  0
  -25.9960  -29.4710   20.6470 C   0  0  0  0  0  0  0  0  0  0  0  0
  -27.1700  -28.6390   20.6380 C   0  0  0  0  0  3  0  0  0  0  0  0
  -25.9820  -26.9750   19.3580 C   0  0  0  0  0  3  0  0  0  0  0  0
  -24.8250  -27.7770   19.3780 C   0  0  0  0  0  3  0  0  0  0  0  0
  -23.5840  -29.8900   20.1000 C   0  0  0  0  0  2  0  0  0  0  0  0
  -24.6360  -31.1310   22.0350 N   0  0  0  0  0  0  0  0  0  0  0  0
  -23.4810  -32.2020   23.6750 O   0  0  0  0  0  0  0  0  0  0  0  0
  -22.7110  -29.5170   22.4430 C   0  0  0  0  0  0  0  0  0  0  0  0
  -21.3890  -29.3140   22.3050 N   0  0  0  0  0  0  0  0  0  0  0  0
  -23.3920  -28.9040   23.2690 O   0  0  0  0  0  0  0  0  0  0  0  0
  -20.8950  -29.8630   21.6140 H   0  0  0  0  0  0  0  0  0  0  0  0
  -18.0310  -28.0460   22.7810 C   0  0  0  0  0  0  0  0  0  0  0  0
  -20.5810  -28.3600   23.0690 C   0  0  0  0  0  3  0  0  0  0  0  0
  -20.7160  -26.9310   22.4930 C   0  0  0  0  0  2  0  0  0  0  0  0
  -19.6300  -26.5860   21.4700 C   0  0  0  0  0  2  0  0  0  0  0  0
  -18.2400  -26.7020   22.1040 C   0  0  0  0  0  2  0  0  0  0  0  0
  -19.1300  -28.8310   23.2200 C   0  0  0  0  0  0  0  0  0  0  0  0
  -18.8790  -30.0870   23.8130 C   0  0  0  0  0  3  0  0  0  0  0  0
  -17.5630  -30.5590   23.9720 C   0  0  0  0  0  3  0  0  0  0  0  0
  -16.4780  -29.7720   23.5490 C   0  0  0  0  0  3  0  0  0  0  0  0
  -16.7130  -28.5180   22.9590 C   0  0  0  0  0  3  0  0  0  0  0  0
  -25.8430  -32.5750   23.7610 C   0  0  0  0  0  3  0  0  0  0  0  0
  -25.5250  -33.9710   24.0980 N   0  0  0  0  0  0  0  0  0  0  0  0
  -25.8650  -35.0330   23.3550 C   0  0  0  0  0  0  0  0  0  0  0  0
  -26.5490  -34.9400   22.3320 O   0  0  0  0  0  0  0  0  0  0  0  0
  -24.9200  -34.1180   24.8930 H   0  0  0  0  0  0  0  0  0  0  0  0
  -24.1680  -36.8500   22.9650 C   0  0  0  0  0  1  0  0  0  0  0  0
  -25.3710  -36.4160   23.8200 C   0  0  0  0  0  3  0  0  0  0  0  0
  -27.4660  -37.2750   24.7690 C   0  0  0  0  0  1  0  0  0  0  0  0
  -26.4150  -37.4630   23.7720 N   0  0  0  0  0  0  0  0  0  0  0  0
  -26.0100  -38.3840   23.9080 H   0  0  0  0  0  0  0  0  0  0  0  0
  -26.3620  -31.8050   25.0380 C   0  0  1  0  0  0  0  0  0  0  0  0
  -25.2670  -31.5520   26.1000 C   0  0  0  0  0  1  0  0  0  0  0  0
  -26.9620  -30.4350   24.6470 C   0  0  0  0  0  1  0  0  0  0  0  0
  -27.5020  -32.6090   25.7070 C   0  0  0  0  0  1  0  0  0  0  0  0
  1  8  2  0
  2  7  1  0
  3  4  1  0
  3  5  1  0
  4  6  1  0
  5 57  1  0
  5  1  1  0
  6  2  1  0
  6  1  1  0
  7  9  1  0
  7 10  1  0
 11 12  1  0
 11 14  2  0
 12 13  2  0
 13 15  1  0
 13  2  1  0
 14 24  1  0
 14 15  1  0
 16 24  1  0
 17 22  1  0
 18 19  1  0
 18 17  1  0
 20 19  1  0
 20 29  1  0
 20 21  1  0
 22 16  1  0
 22 21  1  0
 23 16  2  0
 24 25  1  0
 26 27  2  0
 27 46  1  0
 28 27  1  0
 28 31  1  0
 29 30  1  0
 29 26  1  0
 30 28  2  0
 31 32  1  0
 32 33  2  0
 34 37  1  0
 34 33  1  0
 35 34  2  0
 36 35  1  0
 36 31  2  0
 37 38  1  0
 38 43  2  0
 38 39  1  0
 39 40  2  0
 40 41  1  0
 41 45  1  0
 42 41  2  0
 43 42  1  0
 44 43  1  0
 46 47  1  0
 47 50  1  0
 47 49  1  0
 48 46  2  0
 51 26  1  0
 51 52  1  0
 53 51  1  0
 54 56  1  0
 54 12  1  0
 55 54  1  0
 58 69  2  0
 59 57  1  0
 59 64  1  0
 60 68  1  0
 60 70  1  0
 61 67  1  0
 61 63  1  0
 62 68  1  0
 63 62  1  0
 64 63  2  0
 65 66  1  0
 65 59  2  0
 66 61  2  0
 67 60  1  0
 68 58  1  0
 70 72  2  0
 71 70  1  0
 73 71  1  0
 74 83  2  0
 74 79  1  0
 75 71  1  0
 75 79  1  0
 76 75  1  0
 77 78  1  0
 77 76  1  0
 78 74  1  0
 79 80  2  0
 80 81  1  0
 82 81  2  0
 83 82  1  0
 84 58  1  0
 84 85  1  0
 84 94  1  0
 85 88  1  0
 86 90  1  0
 86 85  1  0
 87 86  2  0
 90 89  1  0
 92 90  1  0
 92 93  1  0
 92 91  1  0
 94 97  1  1
 94 95  1  0
 96 94  1  0
M  ISO  4   5 101  16 100  24 100  57 101
M  END
>  <TORSDO>  (43) 
F 18

>  <SCORE>  (43) 
-14.993

>  <name>  (43) 
42

>  <ligand_id>  (43) 
42

>  <original_smiles>  (43) 
[H]c1c([H])c([H])c2c(c1[H])C([H])([H])C([H])([H])C([H])([H])C2([H])N([H])C(=O)C1([H])N(C(=O)C([H])(N([H])C(=O)C([H])(N([H])C([H])([H])[H])C([H])([H])[H])C(C([H])([H])[H])(C([H])([H])[H])C([H])([H])[H])C([H])([H])c2c([H])c(OC3([H])C(=O)N(C(c4oc(N([H])C(=O)N5C([H])([H])C([H])([H])C([H])([H])C([H])(n6nc(-c7c([H])c([H])c(Oc8c([H])c([H])c(F)c([H])c8F)c([H])c7[H])c(C(=O)N([H])[H])c6N([H])[H])C5([H])[H])c([H])c4N([H])[H])=[N+]([H])[H])C([H])([H])C3([H])[H])c([H])c([H])c2C1([H])[H]

>  <smiles>  (43) 
[H]c1c([H])c([H])c2c(c1[H])C([H])([H])C([H])([H])C([H])([H])C2([H])N([H])C(=O)C1([H])N(C(=O)C([H])(N([H])C(=O)C([H])(N([H])C([H])([H])[H])C([H])([H])[H])C(C([H])([H])[H])(C([H])([H])[H])C([H])([H])[H])C([H])([H])c2c([H])c(OC3([H])C(=O)N(C(c4oc(N([H])C(=O)N5C([H])([H])C([H])([H])C([H])([H])C([H])(n6nc(-c7c([H])c([H])c(Oc8c([H])c([H])c(F)c([H])c8F)c([H])c7[H])c(C(=O)N([H])[H])c6N([H])[H])C5([H])[H])c([H])c4N([H])[H])=[N+]([H])[H])C([H])([H])C3([H])[H])c([H])c([H])c2C1([H])[H]

$$$$
43:0:0
     RDKit          3D

 95104  0  0  1  0  0  0  0  0999 V2000
  -28.7960  -23.6130   19.7350 C   0  0  0  0  0  3  0  0  0  0  0  0
  -29.0630  -24.2950   20.8710 C   0  0  0  0  0  0  0  0  0  0  0  0
  -29.0400  -22.1030   19.5420 C   0  0  0  0  0  2  0  0  0  0  0  0
  -29.6840  -23.5640   22.0670 C   0  0  0  0  0  2  0  0  0  0  0  0
  -30.2330  -22.1420   21.7470 C   0  0  0  0  0  2  0  0  0  0  0  0
  -29.2470  -21.3360   20.8780 C   0  0  0  0  0  3  0  0  0  0  0  0
  -30.8280  -19.2470   20.9480 C   0  0  0  0  0  3  0  0  0  0  0  0
  -31.0580  -17.8390   20.9360 C   0  0  0  0  0  3  0  0  0  0  0  0
  -28.7080  -17.4860   20.5110 C   0  0  0  0  0  3  0  0  0  0  0  0
  -29.5330  -19.8030   20.7520 C   0  0  0  0  0  0  0  0  0  0  0  0
  -29.9890  -16.9310   20.7380 C   0  0  0  0  0  0  0  0  0  0  0  0
  -28.4780  -18.8830   20.4950 C   0  0  0  0  0  0  0  0  0  0  0  0
  -30.8020  -14.5630   20.1670 C   0  0  0  0  0  0  0  0  0  0  0  0
  -30.4980  -12.4140   18.9570 C   0  0  0  0  0  2  0  0  0  0  0  0
  -29.4860  -12.6390   17.8120 C   0  0  0  0  0  2  0  0  0  0  0  0
  -28.0320  -12.5020   18.3120 C   0  0  0  0  0  2  0  0  0  0  0  0
  -27.7700  -13.2960   19.6190 C   0  0  0  0  0  3  0  0  0  0  0  0
  -28.8780  -13.0070   20.6560 C   0  0  0  0  0  2  0  0  0  0  0  0
  -30.1730  -13.3570   20.0410 N   0  0  0  0  0  0  0  0  0  0  0  0
  -31.8950  -14.8010   19.6410 O   0  0  0  0  0  0  0  0  0  0  0  0
  -30.0720  -15.4920   20.8340 N   0  0  0  0  0  0  0  0  0  0  0  0
  -29.2520  -15.0680   21.2390 H   0  0  0  0  0  0  0  0  0  0  0  0
  -25.4160  -13.9200   20.4530 C   0  0  0  0  0  0  0  0  0  0  0  0
  -24.3590  -13.1560   20.8670 C   0  0  0  0  0  0  0  0  0  0  0  0
  -24.8000  -11.7990   20.7910 C   0  0  0  0  0  0  0  0  0  0  0  0
  -26.4360  -13.0300   20.1550 N   0  0  0  0  0  0  0  0  0  0  0  0
  -26.0710  -11.7490   20.4150 N   0  0  0  0  0  0  0  0  0  0  0  0
  -24.0680  -10.5440   20.9960 C   0  0  0  0  0  0  0  0  0  0  0  0
  -24.4870   -9.5920   21.9520 C   0  0  0  0  0  3  0  0  0  0  0  0
  -23.7560   -8.4000   22.1430 C   0  0  0  0  0  3  0  0  0  0  0  0
  -22.5930   -8.1500   21.3760 C   0  0  0  0  0  0  0  0  0  0  0  0
  -22.1920   -9.0900   20.4100 C   0  0  0  0  0  3  0  0  0  0  0  0
  -22.9230  -10.2740   20.2180 C   0  0  0  0  0  3  0  0  0  0  0  0
  -21.8350   -7.0090   21.4750 O   0  0  0  0  0  0  0  0  0  0  0  0
  -21.7010   -6.3350   22.6630 C   0  0  0  0  0  0  0  0  0  0  0  0
  -21.1750   -6.9570   23.8160 C   0  0  0  0  0  3  0  0  0  0  0  0
  -20.9870   -6.2100   24.9960 C   0  0  0  0  0  3  0  0  0  0  0  0
  -21.3170   -4.8410   25.0240 C   0  0  0  0  0  0  0  0  0  0  0  0
  -21.8360   -4.2190   23.8750 C   0  0  0  0  0  3  0  0  0  0  0  0
  -22.0250   -4.9640   22.6980 C   0  0  0  0  0  0  0  0  0  0  0  0
  -22.5060   -4.3540   21.5870 F   0  0  0  0  0  0  0  0  0  0  0  0
  -21.1300   -4.1200   26.1540 F   0  0  0  0  0  0  0  0  0  0  0  0
  -22.9830  -13.6470   21.2170 C   0  0  0  0  0  0  0  0  0  0  0  0
  -22.2950  -12.9530   22.1180 N   0  0  0  0  0  0  0  0  0  0  0  0
  -22.5290  -14.6800   20.7270 O   0  0  0  0  0  0  0  0  0  0  0  0
  -22.6760  -12.1170   22.5350 H   0  0  0  0  0  0  0  0  0  0  0  0
  -21.3750  -13.2650   22.3930 H   0  0  0  0  0  0  0  0  0  0  0  0
  -25.5860  -15.2910   20.2800 N   0  0  0  0  0  0  0  0  0  0  0  0
  -24.8210  -15.9440   20.4060 H   0  0  0  0  0  0  0  0  0  0  0  0
  -26.3830  -15.6990   19.8100 H   0  0  0  0  0  0  0  0  0  0  0  0
  -27.1810  -19.3280   20.2340 N   0  0  0  0  0  0  0  0  0  0  0  0
  -26.5230  -18.6890   19.7960 H   0  0  0  0  0  0  0  0  0  0  0  0
  -27.0480  -20.2900   19.9440 H   0  0  0  0  0  0  0  0  0  0  0  0
  -28.7420  -25.7950   21.1170 C   0  0  0  0  0  2  0  0  0  0  0  0
  -28.4510  -26.6000   19.9550 O   0  0  0  0  0  0  0  0  0  0  0  0
  -24.5230  -31.7360   23.1070 C   0  0  0  0  0  0  0  0  0  0  0  0
  -27.2960  -27.3600   20.0120 C   0  0  0  0  0  0  0  0  0  0  0  0
  -23.3670  -30.3310   21.4320 C   0  0  0  0  0  3  0  0  0  0  0  0
  -24.8740  -28.8380   20.0070 C   0  0  0  0  0  0  0  0  0  0  0  0
  -25.8900  -30.7360   21.2750 C   0  0  0  0  0  2  0  0  0  0  0  0
  -26.0150  -29.3690   20.6250 C   0  0  0  0  0  0  0  0  0  0  0  0
  -27.2300  -28.6360   20.6290 C   0  0  0  0  0  3  0  0  0  0  0  0
  -26.1410  -26.8530   19.3840 C   0  0  0  0  0  3  0  0  0  0  0  0
  -24.9330  -27.5780   19.3860 C   0  0  0  0  0  3  0  0  0  0  0  0
  -23.6110  -29.6730   20.0480 C   0  0  0  0  0  2  0  0  0  0  0  0
  -24.6110  -30.9510   21.9970 N   0  0  0  0  0  0  0  0  0  0  0  0
  -23.4300  -31.9790   23.6380 O   0  0  0  0  0  0  0  0  0  0  0  0
  -22.7220  -29.2850   22.3710 C   0  0  0  0  0  0  0  0  0  0  0  0
  -21.4020  -29.0860   22.2330 N   0  0  0  0  0  0  0  0  0  0  0  0
  -23.4090  -28.6560   23.1800 O   0  0  0  0  0  0  0  0  0  0  0  0
  -20.9070  -29.6450   21.5520 H   0  0  0  0  0  0  0  0  0  0  0  0
  -18.0400  -27.8470   22.7060 C   0  0  0  0  0  0  0  0  0  0  0  0
  -20.5950  -28.1230   22.9820 C   0  0  0  0  0  3  0  0  0  0  0  0
  -20.7110  -26.7070   22.3720 C   0  0  0  0  0  2  0  0  0  0  0  0
  -19.6120  -26.3990   21.3500 C   0  0  0  0  0  2  0  0  0  0  0  0
  -18.2280  -26.5150   21.9980 C   0  0  0  0  0  2  0  0  0  0  0  0
  -19.1510  -28.6090   23.1540 C   0  0  0  0  0  0  0  0  0  0  0  0
  -18.9200  -29.8560   23.7730 C   0  0  0  0  0  3  0  0  0  0  0  0
  -17.6110  -30.3410   23.9510 C   0  0  0  0  0  3  0  0  0  0  0  0
  -16.5140  -29.5740   23.5210 C   0  0  0  0  0  3  0  0  0  0  0  0
  -16.7290  -28.3300   22.9040 C   0  0  0  0  0  3  0  0  0  0  0  0
  -25.7880  -32.3840   23.7510 C   0  0  0  0  0  3  0  0  0  0  0  0
  -26.3260  -31.5900   25.0040 C   0  0  1  0  0  0  0  0  0  0  0  0
  -25.2380  -31.2880   26.0620 C   0  0  0  0  0  1  0  0  0  0  0  0
  -26.9520  -30.2440   24.5710 C   0  0  0  0  0  1  0  0  0  0  0  0
  -27.4510  -32.3990   25.6920 C   0  0  0  0  0  1  0  0  0  0  0  0
  -25.4400  -33.7630   24.1210 N   0  0  0  0  0  0  0  0  0  0  0  0
  -25.7460  -34.8460   23.3950 C   0  0  0  0  0  0  0  0  0  0  0  0
  -26.4230  -34.7910   22.3650 O   0  0  0  0  0  0  0  0  0  0  0  0
  -24.8350  -33.8770   24.9220 H   0  0  0  0  0  0  0  0  0  0  0  0
  -23.9680  -36.5980   23.0890 C   0  0  0  0  0  1  0  0  0  0  0  0
  -25.2180  -36.2050   23.8920 C   0  0  0  0  0  3  0  0  0  0  0  0
  -27.3230  -37.1300   24.7560 C   0  0  0  0  0  1  0  0  0  0  0  0
  -26.2210  -37.2910   23.8110 N   0  0  0  0  0  0  0  0  0  0  0  0
  -25.7870  -38.1940   23.9810 H   0  0  0  0  0  0  0  0  0  0  0  0
  1  2  2  0
  2 54  1  0
  2  4  1  0
  3  1  1  0
  3  6  1  0
  5  4  1  0
  6 10  1  0
  6  5  1  0
  8  7  1  0
  9 11  1  0
 10  7  2  0
 11 21  1  0
 11  8  2  0
 12  9  2  0
 12 10  1  0
 13 21  1  0
 14 19  1  0
 15 16  1  0
 15 14  1  0
 17 16  1  0
 17 26  1  0
 17 18  1  0
 19 13  1  0
 19 18  1  0
 20 13  2  0
 21 22  1  0
 23 24  2  0
 24 43  1  0
 25 24  1  0
 25 28  1  0
 26 27  1  0
 26 23  1  0
 27 25  2  0
 28 29  1  0
 29 30  2  0
 31 34  1  0
 31 30  1  0
 32 31  2  0
 33 32  1  0
 33 28  2  0
 34 35  1  0
 35 40  2  0
 35 36  1  0
 36 37  2  0
 37 38  1  0
 38 42  1  0
 39 38  2  0
 40 39  1  0
 41 40  1  0
 43 44  1  0
 44 47  1  0
 44 46  1  0
 45 43  2  0
 48 49  1  0
 48 23  1  0
 50 48  1  0
 51 12  1  0
 52 51  1  0
 53 51  1  0
 55 57  1  0
 55 54  1  0
 56 67  2  0
 57 62  1  0
 58 66  1  0
 58 68  1  0
 59 65  1  0
 59 61  1  0
 60 66  1  0
 61 62  2  0
 61 60  1  0
 63 64  1  0
 63 57  2  0
 64 59  2  0
 65 58  1  0
 66 56  1  0
 68 70  2  0
 69 68  1  0
 71 69  1  0
 72 81  2  0
 72 77  1  0
 73 69  1  0
 73 77  1  0
 74 73  1  0
 75 76  1  0
 75 74  1  0
 76 72  1  0
 77 78  2  0
 78 79  1  0
 80 79  2  0
 81 80  1  0
 82 56  1  0
 82 87  1  0
 82 83  1  0
 83 86  1  1
 83 84  1  0
 85 83  1  0
 87 90  1  0
 88 92  1  0
 88 87  1  0
 89 88  2  0
 92 91  1  0
 94 92  1  0
 94 95  1  0
 94 93  1  0
M  ISO  4  13 100  21 100  54 101  55 101
M  END
>  <TORSDO>  (44) 
F 19

>  <SCORE>  (44) 
-14.537

>  <name>  (44) 
43

>  <ligand_id>  (44) 
43

>  <original_smiles>  (44) 
[H]C1=C(C([H])([H])Oc2c([H])c([H])c3c(c2[H])C([H])([H])N(C(=O)C([H])(N([H])C(=O)C([H])(N([H])C([H])([H])[H])C([H])([H])[H])C(C([H])([H])[H])(C([H])([H])[H])C([H])([H])[H])C([H])(C(=O)N([H])C2([H])c4c([H])c([H])c([H])c([H])c4C([H])([H])C([H])([H])C2([H])[H])C3([H])[H])C([H])([H])C([H])([H])C([H])(c2c([H])c([H])c(N([H])C(=O)N3C([H])([H])C([H])([H])C([H])([H])C([H])(n4nc(-c5c([H])c([H])c(Oc6c([H])c([H])c(F)c([H])c6F)c([H])c5[H])c(C(=O)N([H])[H])c4N([H])[H])C3([H])[H])c([H])c2N([H])[H])C1([H])[H]

>  <smiles>  (44) 
[H]C1=C(C([H])([H])Oc2c([H])c([H])c3c(c2[H])C([H])([H])N(C(=O)C([H])(N([H])C(=O)C([H])(N([H])C([H])([H])[H])C([H])([H])[H])C(C([H])([H])[H])(C([H])([H])[H])C([H])([H])[H])C([H])(C(=O)N([H])C2([H])c4c([H])c([H])c([H])c([H])c4C([H])([H])C([H])([H])C2([H])[H])C3([H])[H])C([H])([H])C([H])([H])C([H])(c2c([H])c([H])c(N([H])C(=O)N3C([H])([H])C([H])([H])C([H])([H])C([H])(n4nc(-c5c([H])c([H])c(Oc6c([H])c([H])c(F)c([H])c6F)c([H])c5[H])c(C(=O)N([H])[H])c4N([H])[H])C3([H])[H])c([H])c2N([H])[H])C1([H])[H]

$$$$
44:0:0
     RDKit          3D

 95104  0  0  1  0  0  0  0  0999 V2000
  -31.3500  -20.2130   20.7830 C   0  0  0  0  0  0  0  0  0  0  0  0
  -32.1950  -20.6930   19.8060 C   0  0  0  0  0  0  0  0  0  0  0  0
  -30.3950  -22.2490   20.4090 C   0  0  0  0  0  0  0  0  0  0  0  0
  -29.5050  -24.5600   20.2400 C   0  0  0  0  0  0  0  0  0  0  0  0
  -33.3930  -20.0220   19.2150 C   0  0  0  0  0  1  0  0  0  0  0  0
  -30.2960  -21.0940   21.0770 N   0  0  0  0  0  0  0  0  0  0  0  0
  -29.4820  -23.2920   20.6830 N   0  0  0  0  0  0  0  0  0  0  0  0
  -30.3200  -24.9990   19.4210 O   0  0  0  0  0  0  0  0  0  0  0  0
  -31.7360  -22.2850   19.2680 S   0  0  0  0  0  0  0  0  0  0  0  0
  -28.7520  -23.0700   21.3420 H   0  0  0  0  0  0  0  0  0  0  0  0
  -30.6720  -18.6570   22.7590 C   0  0  0  0  0  2  0  0  0  0  0  0
  -30.6500  -17.1270   22.9650 C   0  0  0  0  0  2  0  0  0  0  0  0
  -31.0990  -17.6650   20.6290 C   0  0  0  0  0  2  0  0  0  0  0  0
  -31.4870  -18.8750   21.4740 C   0  0  0  0  0  3  0  0  0  0  0  0
  -31.1550  -16.5100   21.6430 C   0  0  0  0  0  3  0  0  0  0  0  0
  -30.8520  -14.4740   20.2680 C   0  0  0  0  0  0  0  0  0  0  0  0
  -30.4120  -12.4310   18.9620 C   0  0  0  0  0  2  0  0  0  0  0  0
  -29.4210  -12.7110   17.8160 C   0  0  0  0  0  2  0  0  0  0  0  0
  -27.9720  -12.5540   18.3110 C   0  0  0  0  0  2  0  0  0  0  0  0
  -27.7010  -13.3430   19.6190 C   0  0  0  0  0  3  0  0  0  0  0  0
  -28.7980  -13.0600   20.6710 C   0  0  0  0  0  2  0  0  0  0  0  0
  -30.1080  -13.3560   20.0640 N   0  0  0  0  0  0  0  0  0  0  0  0
  -31.8770  -14.7210   19.6250 O   0  0  0  0  0  0  0  0  0  0  0  0
  -30.4160  -15.3170   21.2190 N   0  0  0  0  0  0  0  0  0  0  0  0
  -29.5680  -15.0740   21.7080 H   0  0  0  0  0  0  0  0  0  0  0  0
  -25.3280  -13.9360   20.4270 C   0  0  0  0  0  0  0  0  0  0  0  0
  -24.2770  -13.1560   20.8270 C   0  0  0  0  0  0  0  0  0  0  0  0
  -24.7390  -11.8050   20.7570 C   0  0  0  0  0  0  0  0  0  0  0  0
  -26.3660  -13.0600   20.1430 N   0  0  0  0  0  0  0  0  0  0  0  0
  -26.0160  -11.7730   20.3970 N   0  0  0  0  0  0  0  0  0  0  0  0
  -24.0240  -10.5370   20.9560 C   0  0  0  0  0  0  0  0  0  0  0  0
  -24.4750   -9.5720   21.8830 C   0  0  0  0  0  3  0  0  0  0  0  0
  -23.7600   -8.3700   22.0700 C   0  0  0  0  0  3  0  0  0  0  0  0
  -22.5800   -8.1240   21.3290 C   0  0  0  0  0  0  0  0  0  0  0  0
  -22.1480   -9.0790   20.3910 C   0  0  0  0  0  3  0  0  0  0  0  0
  -22.8640  -10.2720   20.2030 C   0  0  0  0  0  3  0  0  0  0  0  0
  -21.8340   -6.9740   21.4240 O   0  0  0  0  0  0  0  0  0  0  0  0
  -21.7870   -6.2420   22.5840 C   0  0  0  0  0  0  0  0  0  0  0  0
  -21.3300   -6.7980   23.7990 C   0  0  0  0  0  3  0  0  0  0  0  0
  -21.2330   -5.9900   24.9500 C   0  0  0  0  0  3  0  0  0  0  0  0
  -21.5810   -4.6280   24.8860 C   0  0  0  0  0  0  0  0  0  0  0  0
  -22.0310   -4.0710   23.6770 C   0  0  0  0  0  3  0  0  0  0  0  0
  -22.1310   -4.8750   22.5280 C   0  0  0  0  0  0  0  0  0  0  0  0
  -22.5450   -4.3290   21.3590 F   0  0  0  0  0  0  0  0  0  0  0  0
  -21.4800   -3.8510   25.9900 F   0  0  0  0  0  0  0  0  0  0  0  0
  -22.8910  -13.6250   21.1630 C   0  0  0  0  0  0  0  0  0  0  0  0
  -22.1950  -12.9080   22.0370 N   0  0  0  0  0  0  0  0  0  0  0  0
  -22.4340  -14.6620   20.6840 O   0  0  0  0  0  0  0  0  0  0  0  0
  -22.5750  -12.0650   22.4440 H   0  0  0  0  0  0  0  0  0  0  0  0
  -21.2680  -13.2060   22.3070 H   0  0  0  0  0  0  0  0  0  0  0  0
  -25.4840  -15.3090   20.2660 N   0  0  0  0  0  0  0  0  0  0  0  0
  -24.7200  -15.9590   20.4180 H   0  0  0  0  0  0  0  0  0  0  0  0
  -26.3260  -15.7590   19.9290 H   0  0  0  0  0  0  0  0  0  0  0  0
  -28.4170  -25.4770   20.8120 C   0  0  0  0  0  2  0  0  0  0  0  0
  -28.5420  -26.8070   20.2900 O   0  0  0  0  0  0  0  0  0  0  0  0
  -24.6100  -31.9310   23.2590 C   0  0  0  0  0  0  0  0  0  0  0  0
  -27.3680  -27.5170   20.2640 C   0  0  0  0  0  0  0  0  0  0  0  0
  -23.4530  -30.5000   21.6060 C   0  0  0  0  0  3  0  0  0  0  0  0
  -24.9540  -28.9760   20.2200 C   0  0  0  0  0  0  0  0  0  0  0  0
  -25.9740  -30.9000   21.4470 C   0  0  0  0  0  2  0  0  0  0  0  0
  -26.0920  -29.5260   20.8230 C   0  0  0  0  0  0  0  0  0  0  0  0
  -27.3050  -28.8040   20.8420 C   0  0  0  0  0  3  0  0  0  0  0  0
  -26.2180  -26.9820   19.6470 C   0  0  0  0  0  3  0  0  0  0  0  0
  -25.0100  -27.7020   19.6290 C   0  0  0  0  0  3  0  0  0  0  0  0
  -23.6960  -29.8130   20.2370 C   0  0  0  0  0  2  0  0  0  0  0  0
  -24.6960  -31.1250   22.1630 N   0  0  0  0  0  0  0  0  0  0  0  0
  -23.5170  -32.1910   23.7790 O   0  0  0  0  0  0  0  0  0  0  0  0
  -22.8010  -29.4770   22.5630 C   0  0  0  0  0  0  0  0  0  0  0  0
  -21.4800  -29.2820   22.4190 N   0  0  0  0  0  0  0  0  0  0  0  0
  -23.4790  -28.8600   23.3880 O   0  0  0  0  0  0  0  0  0  0  0  0
  -20.9940  -29.8320   21.7230 H   0  0  0  0  0  0  0  0  0  0  0  0
  -18.1090  -28.0670   22.8730 C   0  0  0  0  0  0  0  0  0  0  0  0
  -20.6590  -28.3420   23.1820 C   0  0  0  0  0  3  0  0  0  0  0  0
  -20.7790  -26.9100   22.6120 C   0  0  0  0  0  2  0  0  0  0  0  0
  -19.6950  -26.5760   21.5830 C   0  0  0  0  0  2  0  0  0  0  0  0
  -18.3030  -26.7150   22.2070 C   0  0  0  0  0  2  0  0  0  0  0  0
  -19.2150  -28.8380   23.3150 C   0  0  0  0  0  0  0  0  0  0  0  0
  -18.9820  -30.1030   23.8980 C   0  0  0  0  0  3  0  0  0  0  0  0
  -17.6720  -30.5980   24.0390 C   0  0  0  0  0  3  0  0  0  0  0  0
  -16.5780  -29.8250   23.6140 C   0  0  0  0  0  3  0  0  0  0  0  0
  -16.7970  -28.5600   23.0390 C   0  0  0  0  0  3  0  0  0  0  0  0
  -25.8770  -32.5840   23.8960 C   0  0  0  0  0  3  0  0  0  0  0  0
  -25.5510  -33.9850   24.1930 N   0  0  0  0  0  0  0  0  0  0  0  0
  -25.9010  -35.0240   23.4230 C   0  0  0  0  0  0  0  0  0  0  0  0
  -26.6020  -34.9060   22.4150 O   0  0  0  0  0  0  0  0  0  0  0  0
  -24.9290  -34.1510   24.9710 H   0  0  0  0  0  0  0  0  0  0  0  0
  -24.1790  -36.8010   22.9750 C   0  0  0  0  0  1  0  0  0  0  0  0
  -25.3900  -36.4180   23.8390 C   0  0  0  0  0  3  0  0  0  0  0  0
  -27.4880  -37.3260   24.7340 C   0  0  0  0  0  1  0  0  0  0  0  0
  -26.4220  -37.4730   23.7480 N   0  0  0  0  0  0  0  0  0  0  0  0
  -26.0060  -38.3940   23.8660 H   0  0  0  0  0  0  0  0  0  0  0  0
  -26.3750  -31.8370   25.1930 C   0  0  1  0  0  0  0  0  0  0  0  0
  -25.2610  -31.5950   26.2380 C   0  0  0  0  0  1  0  0  0  0  0  0
  -26.9860  -30.4640   24.8280 C   0  0  0  0  0  1  0  0  0  0  0  0
  -27.5010  -32.6560   25.8690 C   0  0  0  0  0  1  0  0  0  0  0  0
  1  6  1  0
  2  1  2  0
  3  7  1  0
  3  6  2  0
  4  7  1  0
  4 54  1  0
  5  2  1  0
  7 10  1  0
  8  4  2  0
  9  2  1  0
  9  3  1  0
 11 12  1  0
 13 14  1  0
 13 15  1  0
 14  1  1  0
 14 11  1  0
 15 24  1  0
 15 12  1  0
 16 24  1  0
 17 22  1  0
 18 19  1  0
 18 17  1  0
 20 19  1  0
 20 29  1  0
 20 21  1  0
 22 16  1  0
 22 21  1  0
 23 16  2  0
 24 25  1  0
 26 27  2  0
 27 46  1  0
 28 27  1  0
 28 31  1  0
 29 30  1  0
 29 26  1  0
 30 28  2  0
 31 32  1  0
 32 33  2  0
 34 37  1  0
 34 33  1  0
 35 34  2  0
 36 35  1  0
 36 31  2  0
 37 38  1  0
 38 39  1  0
 39 40  2  0
 41 40  1  0
 41 45  1  0
 42 41  2  0
 43 38  2  0
 43 42  1  0
 44 43  1  0
 46 47  1  0
 47 50  1  0
 47 49  1  0
 48 46  2  0
 51 52  1  0
 51 26  1  0
 53 51  1  0
 55 54  1  0
 56 67  2  0
 57 55  1  0
 57 62  1  0
 58 66  1  0
 58 68  1  0
 59 65  1  0
 59 61  1  0
 60 66  1  0
 61 62  2  0
 61 60  1  0
 63 57  2  0
 64 63  1  0
 64 59  2  0
 65 58  1  0
 66 56  1  0
 68 70  2  0
 69 68  1  0
 71 69  1  0
 72 81  2  0
 72 77  1  0
 73 69  1  0
 73 77  1  0
 74 73  1  0
 75 76  1  0
 75 74  1  0
 76 72  1  0
 77 78  2  0
 78 79  1  0
 80 79  2  0
 81 80  1  0
 82 56  1  0
 82 83  1  0
 82 92  1  0
 83 86  1  0
 84 88  1  0
 84 83  1  0
 85 84  2  0
 88 87  1  0
 90 88  1  0
 90 91  1  0
 90 89  1  0
 92 95  1  1
 92 93  1  0
 94 92  1  0
M  ISO  4  16 100  24 100  54 101  55 101
M  END
>  <TORSDO>  (45) 
F 18

>  <SCORE>  (45) 
-14.228

>  <name>  (45) 
44

>  <ligand_id>  (45) 
44

>  <original_smiles>  (45) 
[H]c1c([H])c([H])c2c(c1[H])C([H])([H])C([H])([H])C([H])([H])C2([H])N([H])C(=O)C1([H])N(C(=O)C([H])(N([H])C(=O)C([H])(N([H])C([H])([H])[H])C([H])([H])[H])C(C([H])([H])[H])(C([H])([H])[H])C([H])([H])[H])C([H])([H])c2c([H])c(OC([H])([H])C(=O)N([H])c3nc(C4([H])C([H])([H])C([H])([H])C([H])(N([H])C(=O)N5C([H])([H])C([H])([H])C([H])([H])C([H])(n6nc(-c7c([H])c([H])c(Oc8c([H])c([H])c(F)c([H])c8F)c([H])c7[H])c(C(=O)N([H])[H])c6N([H])[H])C5([H])[H])C4([H])[H])c(C([H])([H])[H])s3)c([H])c([H])c2C1([H])[H]

>  <smiles>  (45) 
[H]c1c([H])c([H])c2c(c1[H])C([H])([H])C([H])([H])C([H])([H])C2([H])N([H])C(=O)C1([H])N(C(=O)C([H])(N([H])C(=O)C([H])(N([H])C([H])([H])[H])C([H])([H])[H])C(C([H])([H])[H])(C([H])([H])[H])C([H])([H])[H])C([H])([H])c2c([H])c(OC([H])([H])C(=O)N([H])c3nc(C4([H])C([H])([H])C([H])([H])C([H])(N([H])C(=O)N5C([H])([H])C([H])([H])C([H])([H])C([H])(n6nc(-c7c([H])c([H])c(Oc8c([H])c([H])c(F)c([H])c8F)c([H])c7[H])c(C(=O)N([H])[H])c6N([H])[H])C5([H])[H])C4([H])[H])c(C([H])([H])[H])s3)c([H])c([H])c2C1([H])[H]

$$$$
45:0:0
     RDKit          3D

 93101  0  0  1  0  0  0  0  0999 V2000
  -28.4640  -20.6320   19.5980 C   0  0  0  0  0  3  0  0  0  0  0  0
  -28.7880  -19.2020   19.5700 C   0  0  0  0  0  0  0  0  0  0  0  0
  -29.7220  -18.8020   20.5210 C   0  0  0  0  0  0  0  0  0  0  0  0
  -29.0910  -21.3980   20.5620 C   0  0  0  0  0  0  0  0  0  0  0  0
  -30.1120  -20.2610   21.4780 S   0  0  0  0  0  0  0  0  0  0  0  0
  -28.5530  -23.8820   20.1940 C   0  0  0  0  0  0  0  0  0  0  0  0
  -28.9660  -22.7590   20.8950 N   0  0  0  0  0  0  0  0  0  0  0  0
  -28.3510  -23.8400   18.9780 O   0  0  0  0  0  0  0  0  0  0  0  0
  -29.2210  -22.9690   21.8520 H   0  0  0  0  0  0  0  0  0  0  0  0
  -28.3070  -25.2640   20.9740 C   0  0  0  0  0  2  0  0  0  0  0  0
  -28.4290  -26.5710   20.2500 O   0  0  0  0  0  0  0  0  0  0  0  0
  -24.6060  -31.9720   23.2560 C   0  0  0  0  0  0  0  0  0  0  0  0
  -27.3160  -27.4310   20.2420 C   0  0  0  0  0  0  0  0  0  0  0  0
  -23.4440  -30.5590   21.5980 C   0  0  0  0  0  3  0  0  0  0  0  0
  -24.9360  -29.0240   20.1930 C   0  0  0  0  0  0  0  0  0  0  0  0
  -25.9830  -30.9090   21.4480 C   0  0  0  0  0  2  0  0  0  0  0  0
  -26.0920  -29.5290   20.8040 C   0  0  0  0  0  0  0  0  0  0  0  0
  -27.2890  -28.7450   20.8130 C   0  0  0  0  0  3  0  0  0  0  0  0
  -26.1390  -26.9810   19.6110 C   0  0  0  0  0  3  0  0  0  0  0  0
  -24.9630  -27.7570   19.5850 C   0  0  0  0  0  3  0  0  0  0  0  0
  -23.6870  -29.8850   20.2210 C   0  0  0  0  0  2  0  0  0  0  0  0
  -24.6970  -31.1650   22.1580 N   0  0  0  0  0  0  0  0  0  0  0  0
  -23.5120  -32.2330   23.7770 O   0  0  0  0  0  0  0  0  0  0  0  0
  -22.7810  -29.5340   22.5490 C   0  0  0  0  0  0  0  0  0  0  0  0
  -21.4630  -29.3250   22.3920 N   0  0  0  0  0  0  0  0  0  0  0  0
  -23.4540  -28.9300   23.3890 O   0  0  0  0  0  0  0  0  0  0  0  0
  -20.9790  -29.8640   21.6880 H   0  0  0  0  0  0  0  0  0  0  0  0
  -18.1040  -28.0510   22.8190 C   0  0  0  0  0  0  0  0  0  0  0  0
  -20.6480  -28.3730   23.1480 C   0  0  0  0  0  3  0  0  0  0  0  0
  -20.7980  -26.9410   22.5830 C   0  0  0  0  0  2  0  0  0  0  0  0
  -19.7280  -26.5870   21.5450 C   0  0  0  0  0  2  0  0  0  0  0  0
  -18.3280  -26.7030   22.1540 C   0  0  0  0  0  2  0  0  0  0  0  0
  -19.1930  -28.8410   23.2710 C   0  0  0  0  0  0  0  0  0  0  0  0
  -18.9310  -30.1010   23.8500 C   0  0  0  0  0  3  0  0  0  0  0  0
  -17.6100  -30.5720   23.9830 C   0  0  0  0  0  3  0  0  0  0  0  0
  -16.5340  -29.7790   23.5470 C   0  0  0  0  0  3  0  0  0  0  0  0
  -16.7820  -28.5200   22.9710 C   0  0  0  0  0  3  0  0  0  0  0  0
  -25.8710  -32.6240   23.8960 C   0  0  0  0  0  3  0  0  0  0  0  0
  -26.3630  -31.8750   25.1960 C   0  0  1  0  0  0  0  0  0  0  0  0
  -25.2460  -31.6390   26.2390 C   0  0  0  0  0  1  0  0  0  0  0  0
  -26.9720  -30.5000   24.8380 C   0  0  0  0  0  1  0  0  0  0  0  0
  -27.4860  -32.6920   25.8770 C   0  0  0  0  0  1  0  0  0  0  0  0
  -25.5450  -34.0240   24.2020 N   0  0  0  0  0  0  0  0  0  0  0  0
  -25.8820  -35.0690   23.4340 C   0  0  0  0  0  0  0  0  0  0  0  0
  -26.5700  -34.9570   22.4150 O   0  0  0  0  0  0  0  0  0  0  0  0
  -24.9380  -34.1860   24.9910 H   0  0  0  0  0  0  0  0  0  0  0  0
  -24.1620  -36.8560   23.0120 C   0  0  0  0  0  1  0  0  0  0  0  0
  -25.3790  -36.4610   23.8640 C   0  0  0  0  0  3  0  0  0  0  0  0
  -27.4790  -37.3660   24.7610 C   0  0  0  0  0  1  0  0  0  0  0  0
  -26.4130  -37.5150   23.7740 N   0  0  0  0  0  0  0  0  0  0  0  0
  -25.9990  -38.4360   23.8930 H   0  0  0  0  0  0  0  0  0  0  0  0
  -28.2100  -18.2820   18.5840 C   0  0  0  0  0  0  0  0  0  0  0  0
  -27.1930  -18.8750   17.6160 C   0  0  0  0  0  1  0  0  0  0  0  0
  -28.4580  -17.0790   18.4850 O   0  0  0  0  0  0  0  0  0  0  0  0
  -30.5390  -17.4630   20.7570 C   0  0  0  0  0  2  0  0  0  0  0  0
  -30.7080  -14.8950   20.4260 C   0  0  0  0  0  0  0  0  0  0  0  0
  -30.4810  -12.6520   19.3530 C   0  0  0  0  0  2  0  0  0  0  0  0
  -29.5340  -12.7520   18.1380 C   0  0  0  0  0  2  0  0  0  0  0  0
  -28.0700  -12.5670   18.5790 C   0  0  0  0  0  2  0  0  0  0  0  0
  -27.7040  -13.4290   19.8180 C   0  0  0  0  0  3  0  0  0  0  0  0
  -28.7720  -13.3240   20.9280 C   0  0  0  0  0  2  0  0  0  0  0  0
  -30.0600  -13.6870   20.3270 N   0  0  0  0  0  0  0  0  0  0  0  0
  -31.8940  -14.9790   20.0980 O   0  0  0  0  0  0  0  0  0  0  0  0
  -29.9820  -16.0430   20.7030 N   0  0  0  0  0  0  0  0  0  0  0  0
  -28.9980  -15.9280   20.8890 H   0  0  0  0  0  0  0  0  0  0  0  0
  -25.3190  -13.9900   20.5710 C   0  0  0  0  0  0  0  0  0  0  0  0
  -24.2610  -13.2020   20.9370 C   0  0  0  0  0  0  0  0  0  0  0  0
  -24.7350  -11.8550   20.8850 C   0  0  0  0  0  0  0  0  0  0  0  0
  -26.3670  -13.1220   20.3150 N   0  0  0  0  0  0  0  0  0  0  0  0
  -26.0240  -11.8320   20.5680 N   0  0  0  0  0  0  0  0  0  0  0  0
  -24.0200  -10.5840   21.0620 C   0  0  0  0  0  0  0  0  0  0  0  0
  -24.4520   -9.6160   21.9960 C   0  0  0  0  0  3  0  0  0  0  0  0
  -23.7340   -8.4100   22.1610 C   0  0  0  0  0  3  0  0  0  0  0  0
  -22.5730   -8.1650   21.3910 C   0  0  0  0  0  0  0  0  0  0  0  0
  -22.1620   -9.1220   20.4460 C   0  0  0  0  0  3  0  0  0  0  0  0
  -22.8790  -10.3180   20.2790 C   0  0  0  0  0  3  0  0  0  0  0  0
  -21.8280   -7.0120   21.4640 O   0  0  0  0  0  0  0  0  0  0  0  0
  -21.7510   -6.2790   22.6210 C   0  0  0  0  0  0  0  0  0  0  0  0
  -21.2300   -6.8220   23.8150 C   0  0  0  0  0  3  0  0  0  0  0  0
  -21.1050   -6.0120   24.9620 C   0  0  0  0  0  3  0  0  0  0  0  0
  -21.4880   -4.6590   24.9140 C   0  0  0  0  0  0  0  0  0  0  0  0
  -22.0010   -4.1140   23.7240 C   0  0  0  0  0  3  0  0  0  0  0  0
  -22.1290   -4.9220   22.5790 C   0  0  0  0  0  0  0  0  0  0  0  0
  -22.6040   -4.3860   21.4290 F   0  0  0  0  0  0  0  0  0  0  0  0
  -21.3610   -3.8780   26.0120 F   0  0  0  0  0  0  0  0  0  0  0  0
  -22.8620  -13.6640   21.2220 C   0  0  0  0  0  0  0  0  0  0  0  0
  -22.1430  -12.9480   22.0790 N   0  0  0  0  0  0  0  0  0  0  0  0
  -22.4150  -14.6940   20.7200 O   0  0  0  0  0  0  0  0  0  0  0  0
  -22.5180  -12.1140   22.5060 H   0  0  0  0  0  0  0  0  0  0  0  0
  -21.2040  -13.2390   22.3130 H   0  0  0  0  0  0  0  0  0  0  0  0
  -25.4710  -15.3640   20.4070 N   0  0  0  0  0  0  0  0  0  0  0  0
  -24.6960  -16.0080   20.5190 H   0  0  0  0  0  0  0  0  0  0  0  0
  -26.3030  -15.8020   20.0350 H   0  0  0  0  0  0  0  0  0  0  0  0
  1  4  2  0
  2  1  1  0
  2  3  2  0
  3 55  1  0
  3  5  1  0
  4  7  1  0
  4  5  1  0
  6  7  1  0
  6 10  1  0
  7  9  1  0
  8  6  2  0
 11 10  1  0
 12 23  2  0
 13 11  1  0
 13 18  1  0
 14 22  1  0
 14 24  1  0
 15 21  1  0
 15 17  1  0
 16 22  1  0
 17 18  2  0
 17 16  1  0
 19 13  2  0
 20 19  1  0
 20 15  2  0
 21 14  1  0
 22 12  1  0
 24 26  2  0
 25 24  1  0
 27 25  1  0
 28 37  2  0
 28 33  1  0
 29 25  1  0
 29 33  1  0
 30 29  1  0
 31 32  1  0
 31 30  1  0
 32 28  1  0
 33 34  2  0
 34 35  1  0
 36 35  2  0
 37 36  1  0
 38 12  1  0
 38 43  1  0
 38 39  1  0
 39 42  1  1
 39 40  1  0
 41 39  1  0
 43 46  1  0
 44 48  1  0
 44 43  1  0
 45 44  2  0
 48 47  1  0
 50 48  1  0
 50 51  1  0
 50 49  1  0
 52  2  1  0
 53 52  1  0
 54 52  2  0
 56 64  1  0
 57 62  1  0
 58 59  1  0
 58 57  1  0
 60 59  1  0
 60 69  1  0
 60 61  1  0
 62 56  1  0
 62 61  1  0
 63 56  2  0
 64 55  1  0
 64 65  1  0
 66 67  2  0
 67 86  1  0
 68 67  1  0
 68 71  1  0
 69 70  1  0
 69 66  1  0
 70 68  2  0
 71 72  1  0
 72 73  2  0
 74 77  1  0
 74 73  1  0
 75 74  2  0
 76 75  1  0
 76 71  2  0
 77 78  1  0
 78 79  1  0
 79 80  2  0
 81 80  1  0
 81 85  1  0
 82 81  2  0
 83 78  2  0
 83 82  1  0
 84 83  1  0
 86 87  1  0
 87 90  1  0
 87 89  1  0
 88 86  2  0
 91 92  1  0
 91 66  1  0
 93 91  1  0
M  ISO  4  10 101  11 101  56 100  64 100
M  END
>  <TORSDO>  (46) 
F 20

>  <SCORE>  (46) 
-13.756

>  <name>  (46) 
45

>  <ligand_id>  (46) 
45

>  <original_smiles>  (46) 
[H]c1c([H])c([H])c2c(c1[H])C([H])([H])C([H])([H])C([H])([H])C2([H])N([H])C(=O)C1([H])N(C(=O)C([H])(N([H])C(=O)C([H])(N([H])C([H])([H])[H])C([H])([H])[H])C(C([H])([H])[H])(C([H])([H])[H])C([H])([H])[H])C([H])([H])c2c([H])c(OC([H])([H])C(=O)N([H])c3sc(C([H])([H])N([H])C(=O)N4C([H])([H])C([H])([H])C([H])([H])C([H])(n5nc(-c6c([H])c([H])c(Oc7c([H])c([H])c(F)c([H])c7F)c([H])c6[H])c(C(=O)N([H])[H])c5N([H])[H])C4([H])[H])c(C(=O)C([H])([H])[H])c3[H])c([H])c([H])c2C1([H])[H]

>  <smiles>  (46) 
[H]c1c([H])c([H])c2c(c1[H])C([H])([H])C([H])([H])C([H])([H])C2([H])N([H])C(=O)C1([H])N(C(=O)C([H])(N([H])C(=O)C([H])(N([H])C([H])([H])[H])C([H])([H])[H])C(C([H])([H])[H])(C([H])([H])[H])C([H])([H])[H])C([H])([H])c2c([H])c(OC([H])([H])C(=O)N([H])c3sc(C([H])([H])N([H])C(=O)N4C([H])([H])C([H])([H])C([H])([H])C([H])(n5nc(-c6c([H])c([H])c(Oc7c([H])c([H])c(F)c([H])c7F)c([H])c6[H])c(C(=O)N([H])[H])c5N([H])[H])C4([H])[H])c(C(=O)C([H])([H])[H])c3[H])c([H])c([H])c2C1([H])[H]

$$$$
46:0:0
     RDKit          3D

 96106  0  0  1  0  0  0  0  0999 V2000
  -31.3760  -21.3940   19.4420 C   0  0  0  0  0  2  0  0  0  0  0  0
  -29.7310  -21.0180   21.3450 C   0  0  0  0  0  2  0  0  0  0  0  0
  -31.8510  -22.6970   20.1130 C   0  0  0  0  0  2  0  0  0  0  0  0
  -30.2000  -22.3270   22.0000 C   0  0  0  0  0  2  0  0  0  0  0  0
  -30.8370  -20.3850   20.4800 C   0  0  0  0  0  3  0  0  0  0  0  0
  -30.7410  -23.3450   20.9730 C   0  0  0  0  0  3  0  0  0  0  0  0
  -29.3650  -17.7520   18.0780 C   0  0  0  0  0  3  0  0  0  0  0  0
  -29.8620  -18.9740   18.5650 C   0  0  0  0  0  3  0  0  0  0  0  0
  -29.3400  -16.6230   18.9110 C   0  0  0  0  0  3  0  0  0  0  0  0
  -30.3240  -17.9290   20.7220 C   0  0  0  0  0  3  0  0  0  0  0  0
  -30.3420  -19.0710   19.8930 C   0  0  0  0  0  0  0  0  0  0  0  0
  -29.8380  -16.7030   20.2310 C   0  0  0  0  0  0  0  0  0  0  0  0
  -30.6400  -14.5250   20.7650 C   0  0  0  0  0  0  0  0  0  0  0  0
  -30.4260  -12.3490   19.6750 C   0  0  0  0  0  2  0  0  0  0  0  0
  -29.5360  -12.5360   18.4300 C   0  0  0  0  0  2  0  0  0  0  0  0
  -28.0430  -12.4100   18.7930 C   0  0  0  0  0  2  0  0  0  0  0  0
  -27.6410  -13.2570   20.0290 C   0  0  0  0  0  3  0  0  0  0  0  0
  -28.6470  -13.0500   21.1840 C   0  0  0  0  0  2  0  0  0  0  0  0
  -30.0000  -13.3360   20.6750 N   0  0  0  0  0  0  0  0  0  0  0  0
  -31.8080  -14.7080   20.4070 O   0  0  0  0  0  0  0  0  0  0  0  0
  -29.8430  -15.5580   21.0570 N   0  0  0  0  0  0  0  0  0  0  0  0
  -28.9470  -15.2900   21.4350 H   0  0  0  0  0  0  0  0  0  0  0  0
  -25.2050  -13.8540   20.6180 C   0  0  0  0  0  0  0  0  0  0  0  0
  -24.1280  -13.0730   20.9440 C   0  0  0  0  0  0  0  0  0  0  0  0
  -24.6020  -11.7260   20.9460 C   0  0  0  0  0  0  0  0  0  0  0  0
  -26.2680  -12.9790   20.4440 N   0  0  0  0  0  0  0  0  0  0  0  0
  -25.9050  -11.6960   20.6980 N   0  0  0  0  0  0  0  0  0  0  0  0
  -23.8820  -10.4560   21.1150 C   0  0  0  0  0  0  0  0  0  0  0  0
  -24.2870   -9.4990   22.0710 C   0  0  0  0  0  3  0  0  0  0  0  0
  -23.5680   -8.2950   22.2280 C   0  0  0  0  0  3  0  0  0  0  0  0
  -22.4280   -8.0400   21.4290 C   0  0  0  0  0  0  0  0  0  0  0  0
  -22.0400   -8.9870   20.4640 C   0  0  0  0  0  3  0  0  0  0  0  0
  -22.7610  -10.1830   20.3050 C   0  0  0  0  0  3  0  0  0  0  0  0
  -21.6860   -6.8850   21.4920 O   0  0  0  0  0  0  0  0  0  0  0  0
  -21.6040   -6.1460   22.6440 C   0  0  0  0  0  0  0  0  0  0  0  0
  -21.1200   -6.6970   23.8510 C   0  0  0  0  0  3  0  0  0  0  0  0
  -20.9860   -5.8820   24.9930 C   0  0  0  0  0  3  0  0  0  0  0  0
  -21.3270   -4.5180   24.9290 C   0  0  0  0  0  0  0  0  0  0  0  0
  -21.8070   -3.9670   23.7270 C   0  0  0  0  0  3  0  0  0  0  0  0
  -21.9410   -4.7790   22.5880 C   0  0  0  0  0  0  0  0  0  0  0  0
  -22.3830   -4.2390   21.4270 F   0  0  0  0  0  0  0  0  0  0  0  0
  -21.1900   -3.7330   26.0240 F   0  0  0  0  0  0  0  0  0  0  0  0
  -22.7150  -13.5390   21.1490 C   0  0  0  0  0  0  0  0  0  0  0  0
  -21.9520  -12.8400   21.9840 N   0  0  0  0  0  0  0  0  0  0  0  0
  -22.2940  -14.5590   20.6060 O   0  0  0  0  0  0  0  0  0  0  0  0
  -22.3020  -12.0150   22.4470 H   0  0  0  0  0  0  0  0  0  0  0  0
  -21.0050  -13.1390   22.1640 H   0  0  0  0  0  0  0  0  0  0  0  0
  -25.3640  -15.2250   20.4350 N   0  0  0  0  0  0  0  0  0  0  0  0
  -24.5890  -15.8740   20.5080 H   0  0  0  0  0  0  0  0  0  0  0  0
  -26.2270  -15.6700   20.1480 H   0  0  0  0  0  0  0  0  0  0  0  0
  -28.5350  -24.5540   20.7790 C   0  0  0  0  0  2  0  0  0  0  0  0
  -29.9960  -25.1750   19.4510 C   0  0  0  0  0  2  0  0  0  0  0  0
  -28.5450  -25.5840   19.6540 C   0  0  0  0  0  3  0  0  0  0  0  0
  -29.6690  -23.9140   20.1130 N   0  0  1  0  0  4  0  0  0  0  0  0
  -29.3260  -23.2470   19.4370 H   0  0  0  0  0  0  0  0  0  0  0  0
  -28.4550  -26.9120   20.1460 O   0  0  0  0  0  0  0  0  0  0  0  0
  -24.5630  -31.9320   23.3010 C   0  0  0  0  0  0  0  0  0  0  0  0
  -27.2300  -27.5380   20.1870 C   0  0  0  0  0  0  0  0  0  0  0  0
  -23.3620  -30.5350   21.6510 C   0  0  0  0  0  3  0  0  0  0  0  0
  -24.8180  -29.0060   20.2300 C   0  0  0  0  0  0  0  0  0  0  0  0
  -25.8840  -30.9080   21.4550 C   0  0  0  0  0  2  0  0  0  0  0  0
  -25.9720  -29.5400   20.8140 C   0  0  0  0  0  0  0  0  0  0  0  0
  -27.1780  -28.8130   20.7890 C   0  0  0  0  0  3  0  0  0  0  0  0
  -26.0470  -26.9960   19.6290 C   0  0  0  0  0  3  0  0  0  0  0  0
  -24.8470  -27.7300   19.6440 C   0  0  0  0  0  3  0  0  0  0  0  0
  -23.5730  -29.8600   20.2700 C   0  0  0  0  0  2  0  0  0  0  0  0
  -24.6220  -31.1390   22.1950 N   0  0  0  0  0  0  0  0  0  0  0  0
  -23.4800  -32.1990   23.8410 O   0  0  0  0  0  0  0  0  0  0  0  0
  -22.7130  -29.5060   22.6040 C   0  0  0  0  0  0  0  0  0  0  0  0
  -21.3950  -29.3040   22.4550 N   0  0  0  0  0  0  0  0  0  0  0  0
  -23.3930  -28.8930   23.4310 O   0  0  0  0  0  0  0  0  0  0  0  0
  -20.9100  -29.8530   21.7590 H   0  0  0  0  0  0  0  0  0  0  0  0
  -18.0320  -28.0550   22.8840 C   0  0  0  0  0  0  0  0  0  0  0  0
  -20.5780  -28.3580   23.2130 C   0  0  0  0  0  3  0  0  0  0  0  0
  -20.7180  -26.9250   22.6520 C   0  0  0  0  0  2  0  0  0  0  0  0
  -19.6450  -26.5750   21.6160 C   0  0  0  0  0  2  0  0  0  0  0  0
  -18.2470  -26.7020   22.2270 C   0  0  0  0  0  2  0  0  0  0  0  0
  -19.1280  -28.8400   23.3340 C   0  0  0  0  0  0  0  0  0  0  0  0
  -18.8760  -30.1050   23.9050 C   0  0  0  0  0  3  0  0  0  0  0  0
  -17.5600  -30.5870   24.0360 C   0  0  0  0  0  3  0  0  0  0  0  0
  -16.4780  -29.8000   23.6040 C   0  0  0  0  0  3  0  0  0  0  0  0
  -16.7150  -28.5370   23.0340 C   0  0  0  0  0  3  0  0  0  0  0  0
  -25.8480  -32.5630   23.9250 C   0  0  0  0  0  3  0  0  0  0  0  0
  -25.5480  -33.9680   24.2260 N   0  0  0  0  0  0  0  0  0  0  0  0
  -25.8930  -35.0030   23.4480 C   0  0  0  0  0  0  0  0  0  0  0  0
  -26.5720  -34.8740   22.4240 O   0  0  0  0  0  0  0  0  0  0  0  0
  -24.9440  -34.1410   25.0170 H   0  0  0  0  0  0  0  0  0  0  0  0
  -24.1810  -36.8010   23.0380 C   0  0  0  0  0  1  0  0  0  0  0  0
  -25.4100  -36.4030   23.8710 C   0  0  0  0  0  3  0  0  0  0  0  0
  -27.5410  -37.2900   24.7080 C   0  0  0  0  0  1  0  0  0  0  0  0
  -26.4520  -37.4460   23.7480 N   0  0  0  0  0  0  0  0  0  0  0  0
  -26.0500  -38.3720   23.8720 H   0  0  0  0  0  0  0  0  0  0  0  0
  -26.3460  -31.8060   25.2170 C   0  0  1  0  0  0  0  0  0  0  0  0
  -25.2400  -31.5920   26.2770 C   0  0  0  0  0  1  0  0  0  0  0  0
  -26.9230  -30.4190   24.8510 C   0  0  0  0  0  1  0  0  0  0  0  0
  -27.4940  -32.6020   25.8800 C   0  0  0  0  0  1  0  0  0  0  0  0
  1  3  1  0
  1  5  1  0
  2  4  1  0
  5 11  1  0
  5  2  1  0
  6  3  1  0
  6  4  1  0
  7  8  2  0
  7  9  1  0
  8 11  1  0
  9 12  2  0
 11 10  2  0
 12 10  1  0
 12 21  1  0
 13 21  1  0
 14 19  1  0
 15 16  1  0
 15 14  1  0
 17 16  1  0
 17 26  1  0
 17 18  1  0
 19 13  1  0
 19 18  1  0
 20 13  2  0
 21 22  1  0
 23 24  2  0
 24 25  1  0
 24 43  1  0
 25 28  1  0
 26 23  1  0
 26 27  1  0
 27 25  2  0
 28 29  1  0
 29 30  2  0
 31 34  1  0
 31 30  1  0
 32 31  2  0
 33 32  1  0
 33 28  2  0
 34 35  1  0
 35 36  1  0
 36 37  2  0
 38 37  1  0
 38 42  1  0
 39 38  2  0
 40 35  2  0
 40 39  1  0
 41 40  1  0
 43 44  1  0
 44 47  1  0
 44 46  1  0
 45 43  2  0
 48 49  1  0
 48 23  1  0
 50 48  1  0
 52 53  1  0
 52 54  1  0
 53 56  1  0
 53 51  1  0
 54 55  1  6
 54 51  1  0
 54  6  1  0
 56 58  1  0
 57 68  2  0
 58 63  1  0
 59 67  1  0
 59 69  1  0
 60 66  1  0
 60 62  1  0
 61 67  1  0
 62 61  1  0
 63 62  2  0
 64 65  1  0
 64 58  2  0
 65 60  2  0
 66 59  1  0
 67 57  1  0
 69 71  2  0
 70 69  1  0
 72 70  1  0
 73 82  2  0
 73 78  1  0
 74 70  1  0
 74 78  1  0
 75 74  1  0
 76 77  1  0
 76 75  1  0
 77 73  1  0
 78 79  2  0
 79 80  1  0
 81 80  2  0
 82 81  1  0
 83 57  1  0
 83 84  1  0
 83 93  1  0
 84 87  1  0
 85 89  1  0
 85 84  1  0
 86 85  2  0
 89 88  1  0
 91 89  1  0
 91 92  1  0
 91 90  1  0
 93 96  1  1
 93 94  1  0
 95 93  1  0
M  ISO  4  13 100  21 100  53 101  56 101
M  END
>  <TORSDO>  (47) 
F 18

>  <SCORE>  (47) 
-14.786

>  <name>  (47) 
46

>  <ligand_id>  (47) 
46

>  <original_smiles>  (47) 
[H]c1c([H])c([H])c2c(c1[H])C([H])([H])C([H])([H])C([H])([H])C2([H])N([H])C(=O)C1([H])N(C(=O)C([H])(N([H])C(=O)C([H])(N([H])C([H])([H])[H])C([H])([H])[H])C(C([H])([H])[H])(C([H])([H])[H])C([H])([H])[H])C([H])([H])c2c([H])c(OC3([H])C([H])([H])[N+]([H])(C4([H])C([H])([H])C([H])([H])C([H])(c5c([H])c([H])c([H])c(N([H])C(=O)N6C([H])([H])C([H])([H])C([H])([H])C([H])(n7nc(-c8c([H])c([H])c(Oc9c([H])c([H])c(F)c([H])c9F)c([H])c8[H])c(C(=O)N([H])[H])c7N([H])[H])C6([H])[H])c5[H])C([H])([H])C4([H])[H])C3([H])[H])c([H])c([H])c2C1([H])[H]

>  <smiles>  (47) 
[H]c1c([H])c([H])c2c(c1[H])C([H])([H])C([H])([H])C([H])([H])C2([H])N([H])C(=O)C1([H])N(C(=O)C([H])(N([H])C(=O)C([H])(N([H])C([H])([H])[H])C([H])([H])[H])C(C([H])([H])[H])(C([H])([H])[H])C([H])([H])[H])C([H])([H])c2c([H])c(OC3([H])C([H])([H])[N+]([H])(C4([H])C([H])([H])C([H])([H])C([H])(c5c([H])c([H])c([H])c(N([H])C(=O)N6C([H])([H])C([H])([H])C([H])([H])C([H])(n7nc(-c8c([H])c([H])c(Oc9c([H])c([H])c(F)c([H])c9F)c([H])c8[H])c(C(=O)N([H])[H])c7N([H])[H])C6([H])[H])c5[H])C([H])([H])C4([H])[H])C3([H])[H])c([H])c([H])c2C1([H])[H]

$$$$
47:0:0
     RDKit          3D

 97106  0  0  1  0  0  0  0  0999 V2000
  -30.3770  -21.4170   19.5360 C   0  0  0  0  0  3  0  0  0  0  0  0
  -30.4290  -25.0530   20.1540 C   0  0  0  0  0  2  0  0  0  0  0  0
  -30.7510  -23.8870   19.1960 C   0  0  0  0  0  2  0  0  0  0  0  0
  -28.5970  -23.5140   20.0120 C   0  0  0  0  0  2  0  0  0  0  0  0
  -28.9010  -25.1040   20.3080 C   0  0  0  0  0  3  0  0  0  0  0  0
  -29.8790  -22.7570   19.6060 N   0  0  0  0  0  0  0  0  0  0  0  0
  -31.3520  -21.2800   18.6330 N   0  0  0  0  0  0  0  0  0  0  0  0
  -31.8480  -20.4040   18.5770 H   0  0  0  0  0  0  0  0  0  0  0  0
  -31.5460  -21.9870   17.9450 H   0  0  0  0  0  0  0  0  0  0  0  0
  -30.3280  -17.5850   21.8070 C   0  0  0  0  0  3  0  0  0  0  0  0
  -30.1580  -18.8310   22.4450 C   0  0  0  0  0  3  0  0  0  0  0  0
  -30.2740  -18.7510   19.6860 C   0  0  0  0  0  3  0  0  0  0  0  0
  -30.1530  -20.0830   20.3170 C   0  0  0  0  0  0  0  0  0  0  0  0
  -30.3920  -17.4750   20.4050 C   0  0  0  0  0  0  0  0  0  0  0  0
  -30.0800  -20.0590   21.7430 C   0  0  0  0  0  0  0  0  0  0  0  0
  -31.1370  -14.9380   19.9270 C   0  0  0  0  0  0  0  0  0  0  0  0
  -30.8760  -12.6320   18.9480 C   0  0  0  0  0  2  0  0  0  0  0  0
  -29.8780  -12.6750   17.7680 C   0  0  0  0  0  2  0  0  0  0  0  0
  -28.4240  -12.5450   18.2670 C   0  0  0  0  0  2  0  0  0  0  0  0
  -28.1220  -13.4710   19.4760 C   0  0  0  0  0  3  0  0  0  0  0  0
  -29.2290  -13.3870   20.5470 C   0  0  0  0  0  2  0  0  0  0  0  0
  -30.4940  -13.7180   19.8790 N   0  0  0  0  0  0  0  0  0  0  0  0
  -32.3470  -14.9940   19.6880 O   0  0  0  0  0  0  0  0  0  0  0  0
  -30.3300  -16.0820   19.8500 N   0  0  0  0  0  0  0  0  0  0  0  0
  -29.3800  -15.8020   19.6660 H   0  0  0  0  0  0  0  0  0  0  0  0
  -25.8200  -14.1670   20.3630 C   0  0  0  0  0  0  0  0  0  0  0  0
  -24.7290  -13.4410   20.7550 C   0  0  0  0  0  0  0  0  0  0  0  0
  -25.1080  -12.0680   20.6450 C   0  0  0  0  0  0  0  0  0  0  0  0
  -26.7940  -13.2390   20.0310 N   0  0  0  0  0  0  0  0  0  0  0  0
  -26.3780  -11.9680   20.2670 N   0  0  0  0  0  0  0  0  0  0  0  0
  -24.3170  -10.8440   20.8190 C   0  0  0  0  0  0  0  0  0  0  0  0
  -24.7090   -9.8330   21.7240 C   0  0  0  0  0  3  0  0  0  0  0  0
  -23.9210   -8.6740   21.8870 C   0  0  0  0  0  3  0  0  0  0  0  0
  -22.7260   -8.5170   21.1450 C   0  0  0  0  0  0  0  0  0  0  0  0
  -22.3540   -9.5150   20.2280 C   0  0  0  0  0  3  0  0  0  0  0  0
  -23.1420  -10.6660   20.0620 C   0  0  0  0  0  3  0  0  0  0  0  0
  -21.9120   -7.4130   21.2200 O   0  0  0  0  0  0  0  0  0  0  0  0
  -21.8080   -6.6710   22.3690 C   0  0  0  0  0  0  0  0  0  0  0  0
  -21.3770   -7.2400   23.5870 C   0  0  0  0  0  3  0  0  0  0  0  0
  -21.2190   -6.4270   24.7270 C   0  0  0  0  0  3  0  0  0  0  0  0
  -21.4810   -5.0460   24.6490 C   0  0  0  0  0  0  0  0  0  0  0  0
  -21.9050   -4.4760   23.4350 C   0  0  0  0  0  3  0  0  0  0  0  0
  -22.0650   -5.2870   22.2980 C   0  0  0  0  0  0  0  0  0  0  0  0
  -22.4530   -4.7300   21.1260 F   0  0  0  0  0  0  0  0  0  0  0  0
  -21.3210   -4.2620   25.7420 F   0  0  0  0  0  0  0  0  0  0  0  0
  -23.3790  -13.9860   21.1160 C   0  0  0  0  0  0  0  0  0  0  0  0
  -22.6580  -13.3070   22.0010 N   0  0  0  0  0  0  0  0  0  0  0  0
  -22.9740  -15.0500   20.6470 O   0  0  0  0  0  0  0  0  0  0  0  0
  -23.0000  -12.4470   22.4030 H   0  0  0  0  0  0  0  0  0  0  0  0
  -21.7530  -13.6540   22.2830 H   0  0  0  0  0  0  0  0  0  0  0  0
  -26.0540  -15.5330   20.2340 N   0  0  0  0  0  0  0  0  0  0  0  0
  -25.3260  -16.2170   20.4150 H   0  0  0  0  0  0  0  0  0  0  0  0
  -26.8940  -15.9470   19.8530 H   0  0  0  0  0  0  0  0  0  0  0  0
  -29.9750  -21.2120   22.5280 N   0  0  0  0  0  0  0  0  0  0  0  0
  -30.1810  -21.1470   23.5210 H   0  0  0  0  0  0  0  0  0  0  0  0
  -30.2430  -22.1070   22.1330 H   0  0  0  0  0  0  0  0  0  0  0  0
  -28.5120  -26.3760   19.5720 O   0  0  0  0  0  0  0  0  0  0  0  0
  -24.6510  -31.5530   23.0770 C   0  0  0  0  0  0  0  0  0  0  0  0
  -27.3490  -27.1610   19.7790 C   0  0  0  0  0  0  0  0  0  0  0  0
  -23.4570  -30.1670   21.4220 C   0  0  0  0  0  3  0  0  0  0  0  0
  -24.9250  -28.7160   19.9010 C   0  0  0  0  0  0  0  0  0  0  0  0
  -25.9780  -30.5850   21.1720 C   0  0  0  0  0  2  0  0  0  0  0  0
  -26.0960  -29.2240   20.4770 C   0  0  0  0  0  0  0  0  0  0  0  0
  -27.3130  -28.4630   20.3950 C   0  0  0  0  0  3  0  0  0  0  0  0
  -26.1480  -26.7180   19.1920 C   0  0  0  0  0  3  0  0  0  0  0  0
  -24.9560  -27.4720   19.2490 C   0  0  0  0  0  3  0  0  0  0  0  0
  -23.6590  -29.5470   20.0130 C   0  0  0  0  0  2  0  0  0  0  0  0
  -24.7160  -30.7880   21.9460 N   0  0  0  0  0  0  0  0  0  0  0  0
  -23.5750  -31.7630   23.6560 O   0  0  0  0  0  0  0  0  0  0  0  0
  -22.8660  -29.0910   22.3640 C   0  0  0  0  0  0  0  0  0  0  0  0
  -21.5590  -28.8080   22.2230 N   0  0  0  0  0  0  0  0  0  0  0  0
  -23.5850  -28.5100   23.1810 O   0  0  0  0  0  0  0  0  0  0  0  0
  -21.0320  -29.3330   21.5390 H   0  0  0  0  0  0  0  0  0  0  0  0
  -18.3220  -27.2270   22.5780 C   0  0  0  0  0  0  0  0  0  0  0  0
  -20.8140  -27.7950   22.9730 C   0  0  0  0  0  3  0  0  0  0  0  0
  -21.1140  -26.3750   22.4370 C   0  0  0  0  0  2  0  0  0  0  0  0
  -20.1150  -25.9060   21.3750 C   0  0  0  0  0  2  0  0  0  0  0  0
  -18.6930  -25.8970   21.9440 C   0  0  0  0  0  2  0  0  0  0  0  0
  -19.3190  -28.1250   23.0470 C   0  0  0  0  0  0  0  0  0  0  0  0
  -18.9210  -29.3610   23.5990 C   0  0  0  0  0  3  0  0  0  0  0  0
  -17.5590  -29.7060   23.6870 C   0  0  0  0  0  3  0  0  0  0  0  0
  -16.5760  -28.8090   23.2340 C   0  0  0  0  0  3  0  0  0  0  0  0
  -16.9580  -27.5710   22.6860 C   0  0  0  0  0  3  0  0  0  0  0  0
  -25.9230  -32.2210   23.6860 C   0  0  0  0  0  3  0  0  0  0  0  0
  -25.5710  -33.6000   24.0530 N   0  0  0  0  0  0  0  0  0  0  0  0
  -25.8960  -34.6870   23.3400 C   0  0  0  0  0  0  0  0  0  0  0  0
  -26.5910  -34.6340   22.3210 O   0  0  0  0  0  0  0  0  0  0  0  0
  -24.9550  -33.7140   24.8440 H   0  0  0  0  0  0  0  0  0  0  0  0
  -24.1380  -36.4560   23.0060 C   0  0  0  0  0  1  0  0  0  0  0  0
  -25.3680  -36.0490   23.8330 C   0  0  0  0  0  3  0  0  0  0  0  0
  -27.4600  -36.9510   24.7500 C   0  0  0  0  0  1  0  0  0  0  0  0
  -26.3800  -37.1270   23.7830 N   0  0  0  0  0  0  0  0  0  0  0  0
  -25.9500  -38.0320   23.9470 H   0  0  0  0  0  0  0  0  0  0  0  0
  -26.4930  -31.4440   24.9370 C   0  0  1  0  0  0  0  0  0  0  0  0
  -25.4320  -31.1520   26.0240 C   0  0  0  0  0  1  0  0  0  0  0  0
  -27.1120  -30.0940   24.5090 C   0  0  0  0  0  1  0  0  0  0  0  0
  -27.6320  -32.2650   25.5880 C   0  0  0  0  0  1  0  0  0  0  0  0
  1  7  1  0
  1  6  1  0
  1 13  1  0
  2  5  1  0
  3  6  1  0
  3  2  1  0
  4  5  1  0
  5 57  1  0
  6  4  1  0
  8  7  1  0
  9  7  1  0
 10 11  1  0
 12 13  2  0
 12 14  1  0
 13 15  1  0
 14 10  2  0
 15 11  2  0
 15 54  1  0
 17 22  1  0
 18 19  1  0
 18 17  1  0
 20 19  1  0
 20 29  1  0
 20 21  1  0
 22 16  1  0
 22 21  1  0
 23 16  2  0
 24 16  1  0
 24 14  1  0
 25 24  1  0
 26 27  2  0
 27 46  1  0
 28 27  1  0
 28 31  1  0
 29 30  1  0
 29 26  1  0
 30 28  2  0
 31 32  1  0
 32 33  2  0
 34 37  1  0
 34 33  1  0
 35 34  2  0
 36 35  1  0
 36 31  2  0
 37 38  1  0
 38 39  1  0
 39 40  2  0
 41 40  1  0
 41 45  1  0
 42 41  2  0
 43 38  2  0
 43 42  1  0
 44 43  1  0
 46 47  1  0
 47 50  1  0
 47 49  1  0
 48 46  2  0
 51 26  1  0
 51 52  1  0
 53 51  1  0
 54 55  1  0
 56 54  1  0
 57 59  1  0
 58 69  2  0
 59 64  1  0
 60 68  1  0
 60 70  1  0
 61 67  1  0
 61 63  1  0
 62 68  1  0
 63 62  1  0
 64 63  2  0
 65 66  1  0
 65 59  2  0
 66 61  2  0
 67 60  1  0
 68 58  1  0
 70 72  2  0
 71 70  1  0
 73 71  1  0
 74 83  2  0
 74 79  1  0
 75 71  1  0
 75 79  1  0
 76 75  1  0
 77 78  1  0
 77 76  1  0
 78 74  1  0
 79 80  2  0
 80 81  1  0
 82 81  2  0
 83 82  1  0
 84 58  1  0
 84 85  1  0
 84 94  1  0
 85 88  1  0
 86 90  1  0
 86 85  1  0
 87 86  2  0
 90 89  1  0
 92 90  1  0
 92 93  1  0
 92 91  1  0
 94 97  1  1
 94 95  1  0
 96 94  1  0
M  ISO  4   5 101  16 100  24 100  57 101
M  END
>  <TORSDO>  (48) 
F 18

>  <SCORE>  (48) 
-12.982

>  <name>  (48) 
47

>  <ligand_id>  (48) 
47

>  <original_smiles>  (48) 
[H]c1c([H])c([H])c2c(c1[H])C([H])([H])C([H])([H])C([H])([H])C2([H])N([H])C(=O)C1([H])N(C(=O)C([H])(N([H])C(=O)C([H])(N([H])C([H])([H])[H])C([H])([H])[H])C(C([H])([H])[H])(C([H])([H])[H])C([H])([H])[H])C([H])([H])c2c([H])c(OC3([H])C([H])([H])N(C(c4c([H])c(N([H])C(=O)N5C([H])([H])C([H])([H])C([H])([H])C([H])(n6nc(-c7c([H])c([H])c(Oc8c([H])c([H])c(F)c([H])c8F)c([H])c7[H])c(C(=O)N([H])[H])c6N([H])[H])C5([H])[H])c([H])c([H])c4N([H])[H])=[N+]([H])[H])C([H])([H])C3([H])[H])c([H])c([H])c2C1([H])[H]

>  <smiles>  (48) 
[H]c1c([H])c([H])c2c(c1[H])C([H])([H])C([H])([H])C([H])([H])C2([H])N([H])C(=O)C1([H])N(C(=O)C([H])(N([H])C(=O)C([H])(N([H])C([H])([H])[H])C([H])([H])[H])C(C([H])([H])[H])(C([H])([H])[H])C([H])([H])[H])C([H])([H])c2c([H])c(OC3([H])C([H])([H])N(C(c4c([H])c(N([H])C(=O)N5C([H])([H])C([H])([H])C([H])([H])C([H])(n6nc(-c7c([H])c([H])c(Oc8c([H])c([H])c(F)c([H])c8F)c([H])c7[H])c(C(=O)N([H])[H])c6N([H])[H])C5([H])[H])c([H])c([H])c4N([H])[H])=[N+]([H])[H])C([H])([H])C3([H])[H])c([H])c([H])c2C1([H])[H]

$$$$
48:0:0
     RDKit          3D

 94103  0  0  1  0  0  0  0  0999 V2000
  -29.1800  -23.6890   20.3560 C   0  0  0  0  0  3  0  0  0  0  0  0
  -28.3200  -23.9330   22.5020 C   0  0  0  0  0  3  0  0  0  0  0  0
  -28.7140  -24.6030   21.3710 C   0  0  0  0  0  0  0  0  0  0  0  0
  -29.0960  -22.3550   20.7260 C   0  0  0  0  0  0  0  0  0  0  0  0
  -28.4860  -22.1990   22.3490 S   0  0  0  0  0  0  0  0  0  0  0  0
  -28.3000  -20.6510   18.8950 O   0  0  0  0  0  0  0  0  0  0  0  0
  -30.7900  -21.1530   19.0820 O   0  0  0  0  0  0  0  0  0  0  0  0
  -29.4900  -20.8940   19.7250 S   0  0  1  0  0  0  0  0  0  0  0  0
  -29.6990  -19.4780   20.7440 N   0  0  0  0  0  0  0  0  0  0  0  0
  -30.5990  -19.5140   21.2280 H   0  0  0  0  0  0  0  0  0  0  0  0
  -30.6510  -14.6160   20.4640 C   0  0  0  0  0  0  0  0  0  0  0  0
  -30.4280  -12.3750   19.4760 C   0  0  0  0  0  2  0  0  0  0  0  0
  -29.5160  -12.4860   18.2340 C   0  0  0  0  0  2  0  0  0  0  0  0
  -28.0320  -12.3490   18.6330 C   0  0  0  0  0  2  0  0  0  0  0  0
  -27.6390  -13.2510   19.8330 C   0  0  0  0  0  3  0  0  0  0  0  0
  -28.6710  -13.1500   20.9800 C   0  0  0  0  0  2  0  0  0  0  0  0
  -29.9990  -13.4210   20.4140 N   0  0  0  0  0  0  0  0  0  0  0  0
  -31.8670  -14.7110   20.2780 O   0  0  0  0  0  0  0  0  0  0  0  0
  -29.7830  -17.7440   18.8940 C   0  0  0  0  0  2  0  0  0  0  0  0
  -29.7380  -16.2100   18.8750 C   0  0  0  0  0  2  0  0  0  0  0  0
  -29.8610  -16.9200   21.1260 C   0  0  0  0  0  2  0  0  0  0  0  0
  -29.2960  -18.1070   20.2880 C   0  0  0  0  0  3  0  0  0  0  0  0
  -29.8570  -15.7120   20.2610 N   0  0  0  0  0  0  0  0  0  0  0  0
  -25.2300  -13.8780   20.4670 C   0  0  0  0  0  0  0  0  0  0  0  0
  -24.1480  -13.1150   20.8170 C   0  0  0  0  0  0  0  0  0  0  0  0
  -24.6070  -11.7630   20.8310 C   0  0  0  0  0  0  0  0  0  0  0  0
  -26.2770  -12.9890   20.2890 N   0  0  0  0  0  0  0  0  0  0  0  0
  -25.9080  -11.7140   20.5690 N   0  0  0  0  0  0  0  0  0  0  0  0
  -23.8730  -10.5060   21.0240 C   0  0  0  0  0  0  0  0  0  0  0  0
  -24.2910   -9.5470   21.9730 C   0  0  0  0  0  3  0  0  0  0  0  0
  -23.5610   -8.3530   22.1540 C   0  0  0  0  0  3  0  0  0  0  0  0
  -22.3980   -8.1100   21.3850 C   0  0  0  0  0  0  0  0  0  0  0  0
  -22.0000   -9.0560   20.4250 C   0  0  0  0  0  3  0  0  0  0  0  0
  -22.7310  -10.2420   20.2420 C   0  0  0  0  0  3  0  0  0  0  0  0
  -21.6410   -6.9670   21.4750 O   0  0  0  0  0  0  0  0  0  0  0  0
  -21.5890   -6.2270   22.6290 C   0  0  0  0  0  0  0  0  0  0  0  0
  -21.1840   -6.7900   23.8580 C   0  0  0  0  0  3  0  0  0  0  0  0
  -21.0810   -5.9770   25.0050 C   0  0  0  0  0  3  0  0  0  0  0  0
  -21.3700   -4.6010   24.9220 C   0  0  0  0  0  0  0  0  0  0  0  0
  -21.7680   -4.0370   23.6970 C   0  0  0  0  0  3  0  0  0  0  0  0
  -21.8740   -4.8480   22.5530 C   0  0  0  0  0  0  0  0  0  0  0  0
  -22.2380   -4.2970   21.3700 F   0  0  0  0  0  0  0  0  0  0  0  0
  -21.2620   -3.8180   26.0200 F   0  0  0  0  0  0  0  0  0  0  0  0
  -22.7430  -13.6000   21.0290 C   0  0  0  0  0  0  0  0  0  0  0  0
  -21.9850  -12.9280   21.8890 N   0  0  0  0  0  0  0  0  0  0  0  0
  -22.3230  -14.6110   20.4660 O   0  0  0  0  0  0  0  0  0  0  0  0
  -22.3350  -12.1120   22.3710 H   0  0  0  0  0  0  0  0  0  0  0  0
  -21.0400  -13.2350   22.0710 H   0  0  0  0  0  0  0  0  0  0  0  0
  -25.4080  -15.2440   20.2660 N   0  0  0  0  0  0  0  0  0  0  0  0
  -24.6480  -15.9110   20.3510 H   0  0  0  0  0  0  0  0  0  0  0  0
  -26.2830  -15.6730   19.9950 H   0  0  0  0  0  0  0  0  0  0  0  0
  -28.6990  -26.0290   21.2890 N   0  0  0  0  0  0  0  0  0  0  0  0
  -28.1440  -26.4980   21.9990 H   0  0  0  0  0  0  0  0  0  0  0  0
  -28.3970  -26.6410   20.0200 O   0  0  0  0  0  0  0  0  0  0  0  0
  -24.6490  -31.8910   23.1990 C   0  0  0  0  0  0  0  0  0  0  0  0
  -27.2620  -27.4280   20.0910 C   0  0  0  0  0  0  0  0  0  0  0  0
  -23.4230  -30.4880   21.5700 C   0  0  0  0  0  3  0  0  0  0  0  0
  -24.8650  -28.9460   20.1320 C   0  0  0  0  0  0  0  0  0  0  0  0
  -25.9500  -30.8430   21.3430 C   0  0  0  0  0  2  0  0  0  0  0  0
  -26.0320  -29.4670   20.7100 C   0  0  0  0  0  0  0  0  0  0  0  0
  -27.2350  -28.7140   20.6880 C   0  0  0  0  0  3  0  0  0  0  0  0
  -26.0790  -26.9270   19.5130 C   0  0  0  0  0  3  0  0  0  0  0  0
  -24.8850  -27.6740   19.5310 C   0  0  0  0  0  3  0  0  0  0  0  0
  -23.6210  -29.8070   20.1890 C   0  0  0  0  0  2  0  0  0  0  0  0
  -24.6920  -31.0900   22.0960 N   0  0  0  0  0  0  0  0  0  0  0  0
  -23.5740  -32.1600   23.7540 O   0  0  0  0  0  0  0  0  0  0  0  0
  -22.7850  -29.4670   22.5400 C   0  0  0  0  0  0  0  0  0  0  0  0
  -21.4580  -29.2820   22.4290 N   0  0  0  0  0  0  0  0  0  0  0  0
  -23.4790  -28.8420   23.3460 O   0  0  0  0  0  0  0  0  0  0  0  0
  -20.9590  -29.8400   21.7510 H   0  0  0  0  0  0  0  0  0  0  0  0
  -18.0960  -28.0640   22.9540 C   0  0  0  0  0  0  0  0  0  0  0  0
  -20.6540  -28.3430   23.2100 C   0  0  0  0  0  3  0  0  0  0  0  0
  -20.7640  -26.9100   22.6390 C   0  0  0  0  0  2  0  0  0  0  0  0
  -19.6590  -26.5760   21.6320 C   0  0  0  0  0  2  0  0  0  0  0  0
  -18.2790  -26.7140   22.2830 C   0  0  0  0  0  2  0  0  0  0  0  0
  -19.2110  -28.8370   23.3750 C   0  0  0  0  0  0  0  0  0  0  0  0
  -18.9870  -30.1010   23.9610 C   0  0  0  0  0  3  0  0  0  0  0  0
  -17.6800  -30.5920   24.1340 C   0  0  0  0  0  3  0  0  0  0  0  0
  -16.5790  -29.8180   23.7290 C   0  0  0  0  0  3  0  0  0  0  0  0
  -16.7880  -28.5570   23.1430 C   0  0  0  0  0  3  0  0  0  0  0  0
  -25.9410  -32.5240   23.8030 C   0  0  0  0  0  3  0  0  0  0  0  0
  -26.4890  -31.7400   25.0580 C   0  0  1  0  0  0  0  0  0  0  0  0
  -25.4220  -31.4880   26.1470 C   0  0  0  0  0  1  0  0  0  0  0  0
  -27.0670  -30.3700   24.6350 C   0  0  0  0  0  1  0  0  0  0  0  0
  -27.6510  -32.5310   25.7040 C   0  0  0  0  0  1  0  0  0  0  0  0
  -25.6310  -33.9160   24.1560 N   0  0  0  0  0  0  0  0  0  0  0  0
  -25.9440  -34.9800   23.4050 C   0  0  0  0  0  0  0  0  0  0  0  0
  -26.5940  -34.8950   22.3600 O   0  0  0  0  0  0  0  0  0  0  0  0
  -25.0540  -34.0570   24.9720 H   0  0  0  0  0  0  0  0  0  0  0  0
  -24.1980  -36.7650   23.1010 C   0  0  0  0  0  1  0  0  0  0  0  0
  -25.4560  -36.3580   23.8880 C   0  0  0  0  0  3  0  0  0  0  0  0
  -27.5990  -37.2440   24.6910 C   0  0  0  0  0  1  0  0  0  0  0  0
  -26.4800  -37.4190   23.7710 N   0  0  0  0  0  0  0  0  0  0  0  0
  -26.0700  -38.3350   23.9410 H   0  0  0  0  0  0  0  0  0  0  0  0
  1  4  2  0
  1  3  1  0
  3  2  2  0
  4  5  1  0
  5  2  1  0
  6  8  2  0
  7  8  2  0
  8  4  1  0
  8  9  1  1
  9 10  1  0
 12 17  1  0
 13 14  1  0
 13 12  1  0
 15 14  1  0
 15 27  1  0
 15 16  1  0
 17 11  1  0
 17 16  1  0
 18 11  2  0
 19 22  1  0
 20 19  1  0
 20 23  1  0
 22  9  1  0
 22 21  1  0
 23 11  1  0
 23 21  1  0
 24 25  2  0
 25 26  1  0
 25 44  1  0
 26 29  1  0
 27 24  1  0
 27 28  1  0
 28 26  2  0
 29 30  1  0
 30 31  2  0
 32 35  1  0
 32 31  1  0
 33 32  2  0
 34 33  1  0
 34 29  2  0
 35 36  1  0
 36 37  1  0
 37 38  2  0
 39 38  1  0
 39 43  1  0
 40 39  2  0
 41 36  2  0
 41 40  1  0
 42 41  1  0
 44 45  1  0
 45 48  1  0
 45 47  1  0
 46 44  2  0
 49 50  1  0
 49 24  1  0
 51 49  1  0
 52  3  1  0
 52 53  1  0
 54 56  1  0
 54 52  1  0
 55 66  2  0
 56 61  1  0
 57 65  1  0
 57 67  1  0
 58 64  1  0
 58 60  1  0
 59 65  1  0
 60 59  1  0
 61 60  2  0
 62 63  1  0
 62 56  2  0
 63 58  2  0
 64 57  1  0
 65 55  1  0
 67 69  2  0
 68 67  1  0
 70 68  1  0
 71 80  2  0
 71 76  1  0
 72 68  1  0
 72 76  1  0
 73 72  1  0
 74 75  1  0
 74 73  1  0
 75 71  1  0
 76 77  2  0
 77 78  1  0
 79 78  2  0
 80 79  1  0
 81 55  1  0
 81 86  1  0
 81 82  1  0
 82 85  1  1
 82 83  1  0
 84 82  1  0
 86 89  1  0
 87 91  1  0
 87 86  1  0
 88 87  2  0
 91 90  1  0
 93 91  1  0
 93 94  1  0
 93 92  1  0
M  ISO  4  11 100  23 100  52 101  54 101
M  END
>  <TORSDO>  (49) 
F 19

>  <SCORE>  (49) 
-13.730

>  <name>  (49) 
48

>  <ligand_id>  (49) 
48

>  <original_smiles>  (49) 
[H]c1sc(S(=O)(=O)N([H])C2([H])C([H])([H])N(C(=O)N3C([H])([H])C([H])([H])C([H])([H])C([H])(n4nc(-c5c([H])c([H])c(Oc6c([H])c([H])c(F)c([H])c6F)c([H])c5[H])c(C(=O)N([H])[H])c4N([H])[H])C3([H])[H])C([H])([H])C2([H])[H])c([H])c1N([H])Oc1c([H])c([H])c2c(c1[H])C([H])([H])N(C(=O)C([H])(N([H])C(=O)C([H])(N([H])C([H])([H])[H])C([H])([H])[H])C(C([H])([H])[H])(C([H])([H])[H])C([H])([H])[H])C([H])(C(=O)N([H])C1([H])c3c([H])c([H])c([H])c([H])c3C([H])([H])C([H])([H])C1([H])[H])C2([H])[H]

>  <smiles>  (49) 
[H]c1sc(S(=O)(=O)N([H])C2([H])C([H])([H])N(C(=O)N3C([H])([H])C([H])([H])C([H])([H])C([H])(n4nc(-c5c([H])c([H])c(Oc6c([H])c([H])c(F)c([H])c6F)c([H])c5[H])c(C(=O)N([H])[H])c4N([H])[H])C3([H])[H])C([H])([H])C2([H])[H])c([H])c1N([H])Oc1c([H])c([H])c2c(c1[H])C([H])([H])N(C(=O)C([H])(N([H])C(=O)C([H])(N([H])C([H])([H])[H])C([H])([H])[H])C(C([H])([H])[H])(C([H])([H])[H])C([H])([H])[H])C([H])(C(=O)N([H])C1([H])c3c([H])c([H])c([H])c([H])c3C([H])([H])C([H])([H])C1([H])[H])C2([H])[H]

$$$$
49:0:0
     RDKit          3D

 99107  0  0  1  0  0  0  0  0999 V2000
  -29.0310  -22.4510   20.6970 C   0  0  0  0  0  0  0  0  0  0  0  0
  -29.2570  -21.2060   20.1090 N   0  0  0  0  0  0  0  0  0  0  0  0
  -29.0040  -22.5390   21.9260 O   0  0  0  0  0  0  0  0  0  0  0  0
  -29.0520  -21.1460   19.1220 H   0  0  0  0  0  0  0  0  0  0  0  0
  -29.4970  -18.6040   20.2520 C   0  0  0  0  0  3  0  0  0  0  0  0
  -31.3110  -17.5860   21.5200 C   0  0  0  0  0  3  0  0  0  0  0  0
  -30.2010  -17.3930   20.6720 C   0  0  0  0  0  0  0  0  0  0  0  0
  -29.8860  -19.9570   20.6470 C   0  0  0  0  0  0  0  0  0  0  0  0
  -31.0310  -20.0300   21.4960 C   0  0  0  0  0  0  0  0  0  0  0  0
  -31.7110  -18.8690   21.9250 C   0  0  0  0  0  0  0  0  0  0  0  0
  -32.7830  -18.9940   22.7490 F   0  0  0  0  0  0  0  0  0  0  0  0
  -30.5890  -14.8540   20.1810 C   0  0  0  0  0  0  0  0  0  0  0  0
  -30.3690  -12.5910   19.1400 C   0  0  0  0  0  2  0  0  0  0  0  0
  -29.3930  -12.6590   17.9460 C   0  0  0  0  0  2  0  0  0  0  0  0
  -27.9400  -12.4620   18.4230 C   0  0  0  0  0  2  0  0  0  0  0  0
  -27.5910  -13.3490   19.6480 C   0  0  0  0  0  3  0  0  0  0  0  0
  -28.6830  -13.2700   20.7360 C   0  0  0  0  0  2  0  0  0  0  0  0
  -29.9540  -13.6370   20.0990 N   0  0  0  0  0  0  0  0  0  0  0  0
  -31.7770  -14.9470   19.8590 O   0  0  0  0  0  0  0  0  0  0  0  0
  -29.8110  -15.9940   20.3530 N   0  0  0  0  0  0  0  0  0  0  0  0
  -28.8170  -15.8260   20.3160 H   0  0  0  0  0  0  0  0  0  0  0  0
  -25.2240  -13.9200   20.4560 C   0  0  0  0  0  0  0  0  0  0  0  0
  -24.1750  -13.1360   20.8520 C   0  0  0  0  0  0  0  0  0  0  0  0
  -24.6460  -11.7890   20.7970 C   0  0  0  0  0  0  0  0  0  0  0  0
  -26.2660  -13.0490   20.1790 N   0  0  0  0  0  0  0  0  0  0  0  0
  -25.9280  -11.7620   20.4500 N   0  0  0  0  0  0  0  0  0  0  0  0
  -23.9340  -10.5190   20.9950 C   0  0  0  0  0  0  0  0  0  0  0  0
  -24.3880   -9.5550   21.9230 C   0  0  0  0  0  3  0  0  0  0  0  0
  -23.6750   -8.3510   22.1090 C   0  0  0  0  0  3  0  0  0  0  0  0
  -22.4950   -8.1040   21.3680 C   0  0  0  0  0  0  0  0  0  0  0  0
  -22.0610   -9.0570   20.4310 C   0  0  0  0  0  3  0  0  0  0  0  0
  -22.7740  -10.2520   20.2420 C   0  0  0  0  0  3  0  0  0  0  0  0
  -21.7510   -6.9540   21.4650 O   0  0  0  0  0  0  0  0  0  0  0  0
  -21.7100   -6.2170   22.6230 C   0  0  0  0  0  0  0  0  0  0  0  0
  -21.2660   -6.7710   23.8430 C   0  0  0  0  0  3  0  0  0  0  0  0
  -21.1750   -5.9600   24.9920 C   0  0  0  0  0  3  0  0  0  0  0  0
  -21.5170   -4.5970   24.9220 C   0  0  0  0  0  0  0  0  0  0  0  0
  -21.9560   -4.0430   23.7070 C   0  0  0  0  0  3  0  0  0  0  0  0
  -22.0480   -4.8510   22.5600 C   0  0  0  0  0  0  0  0  0  0  0  0
  -22.4510   -4.3060   21.3850 F   0  0  0  0  0  0  0  0  0  0  0  0
  -21.4240   -3.8160   26.0240 F   0  0  0  0  0  0  0  0  0  0  0  0
  -22.7830  -13.6030   21.1660 C   0  0  0  0  0  0  0  0  0  0  0  0
  -22.0760  -12.8940   22.0390 N   0  0  0  0  0  0  0  0  0  0  0  0
  -22.3290  -14.6340   20.6710 O   0  0  0  0  0  0  0  0  0  0  0  0
  -22.4570  -12.0630   22.4670 H   0  0  0  0  0  0  0  0  0  0  0  0
  -21.1420  -13.1910   22.2860 H   0  0  0  0  0  0  0  0  0  0  0  0
  -25.3720  -15.2930   20.2840 N   0  0  0  0  0  0  0  0  0  0  0  0
  -24.5990  -15.9370   20.4130 H   0  0  0  0  0  0  0  0  0  0  0  0
  -26.1980  -15.7410   19.9070 H   0  0  0  0  0  0  0  0  0  0  0  0
  -31.5640  -21.2450   21.9290 N   0  0  0  0  0  0  0  0  0  0  0  0
  -30.8430  -21.9340   22.1350 H   0  0  0  0  0  0  0  0  0  0  0  0
  -32.2110  -21.1450   22.7040 H   0  0  0  0  0  0  0  0  0  0  0  0
  -28.7620  -23.8140   19.8750 C   0  0  0  0  0  3  0  0  0  0  0  0
  -28.0410  -23.5550   18.6110 N   0  0  0  0  0  4  0  0  0  0  0  0
  -27.1410  -23.1410   18.7850 H   0  0  0  0  0  0  0  0  0  0  0  0
  -28.5670  -22.9490   18.0080 H   0  0  0  0  0  0  0  0  0  0  0  0
  -27.9030  -24.4190   18.1150 H   0  0  0  0  0  0  0  0  0  0  0  0
  -28.1120  -25.0880   20.6520 C   0  0  0  0  0  2  0  0  0  0  0  0
  -28.2960  -26.5110   20.1990 O   0  0  0  0  0  0  0  0  0  0  0  0
  -24.5570  -31.9610   23.2470 C   0  0  0  0  0  0  0  0  0  0  0  0
  -27.1830  -27.3810   20.1990 C   0  0  0  0  0  0  0  0  0  0  0  0
  -23.3610  -30.5600   21.6030 C   0  0  0  0  0  3  0  0  0  0  0  0
  -24.8190  -29.0070   20.1830 C   0  0  0  0  0  0  0  0  0  0  0  0
  -25.9030  -30.8770   21.4290 C   0  0  0  0  0  2  0  0  0  0  0  0
  -25.9880  -29.4950   20.7820 C   0  0  0  0  0  0  0  0  0  0  0  0
  -27.1760  -28.6960   20.7710 C   0  0  0  0  0  3  0  0  0  0  0  0
  -25.9910  -26.9540   19.5750 C   0  0  0  0  0  3  0  0  0  0  0  0
  -24.8250  -27.7430   19.5690 C   0  0  0  0  0  3  0  0  0  0  0  0
  -23.5810  -29.8810   20.2250 C   0  0  0  0  0  2  0  0  0  0  0  0
  -24.6270  -31.1510   22.1500 N   0  0  0  0  0  0  0  0  0  0  0  0
  -23.4720  -32.2380   23.7780 O   0  0  0  0  0  0  0  0  0  0  0  0
  -22.6940  -29.5470   22.5620 C   0  0  0  0  0  0  0  0  0  0  0  0
  -21.3710  -29.3530   22.4190 N   0  0  0  0  0  0  0  0  0  0  0  0
  -23.3660  -28.9360   23.3970 O   0  0  0  0  0  0  0  0  0  0  0  0
  -20.8870  -29.8980   21.7190 H   0  0  0  0  0  0  0  0  0  0  0  0
  -18.0030  -28.1090   22.8650 C   0  0  0  0  0  0  0  0  0  0  0  0
  -20.5510  -28.4120   23.1840 C   0  0  0  0  0  3  0  0  0  0  0  0
  -20.6870  -26.9760   22.6270 C   0  0  0  0  0  2  0  0  0  0  0  0
  -19.6110  -26.6240   21.5940 C   0  0  0  0  0  2  0  0  0  0  0  0
  -18.2140  -26.7550   22.2100 C   0  0  0  0  0  2  0  0  0  0  0  0
  -19.1010  -28.8940   23.3080 C   0  0  0  0  0  0  0  0  0  0  0  0
  -18.8490  -30.1600   23.8810 C   0  0  0  0  0  3  0  0  0  0  0  0
  -17.5340  -30.6420   24.0150 C   0  0  0  0  0  3  0  0  0  0  0  0
  -16.4500  -29.8540   23.5900 C   0  0  0  0  0  3  0  0  0  0  0  0
  -16.6850  -28.5900   23.0200 C   0  0  0  0  0  3  0  0  0  0  0  0
  -25.8370  -32.5960   23.8730 C   0  0  0  0  0  3  0  0  0  0  0  0
  -25.5310  -33.9990   24.1870 N   0  0  0  0  0  0  0  0  0  0  0  0
  -25.8830  -35.0440   23.4270 C   0  0  0  0  0  0  0  0  0  0  0  0
  -26.5700  -34.9300   22.4080 O   0  0  0  0  0  0  0  0  0  0  0  0
  -24.9220  -34.1620   24.9770 H   0  0  0  0  0  0  0  0  0  0  0  0
  -24.1840  -36.8550   23.0220 C   0  0  0  0  0  1  0  0  0  0  0  0
  -25.3990  -36.4410   23.8670 C   0  0  0  0  0  3  0  0  0  0  0  0
  -27.5190  -37.3090   24.7510 C   0  0  0  0  0  1  0  0  0  0  0  0
  -26.4460  -37.4830   23.7750 N   0  0  0  0  0  0  0  0  0  0  0  0
  -26.0460  -38.4080   23.9060 H   0  0  0  0  0  0  0  0  0  0  0  0
  -26.3390  -31.8380   25.1630 C   0  0  1  0  0  0  0  0  0  0  0  0
  -25.2350  -31.6100   26.2220 C   0  0  0  0  0  1  0  0  0  0  0  0
  -26.9240  -30.4560   24.7920 C   0  0  0  0  0  1  0  0  0  0  0  0
  -27.4830  -32.6370   25.8290 C   0  0  0  0  0  1  0  0  0  0  0  0
  1  3  2  0
  2  8  1  0
  2  1  1  0
  4  2  1  0
  5  8  2  0
  5  7  1  0
  6 10  1  0
  7  6  2  0
  8  9  1  0
  9 10  2  0
  9 50  1  0
 10 11  1  0
 12 20  1  0
 13 18  1  0
 14 15  1  0
 14 13  1  0
 16 15  1  0
 16 25  1  0
 16 17  1  0
 18 12  1  0
 18 17  1  0
 19 12  2  0
 20  7  1  0
 21 20  1  0
 22 23  2  0
 23 42  1  0
 24 23  1  0
 24 27  1  0
 25 26  1  0
 25 22  1  0
 26 24  2  0
 27 28  1  0
 28 29  2  0
 30 33  1  0
 30 29  1  0
 31 30  2  0
 32 31  1  0
 32 27  2  0
 33 34  1  0
 34 35  1  0
 35 36  2  0
 37 36  1  0
 37 41  1  0
 38 37  2  0
 39 34  2  0
 39 38  1  0
 40 39  1  0
 42 43  1  0
 43 46  1  0
 43 45  1  0
 44 42  2  0
 47 48  1  0
 47 22  1  0
 49 47  1  0
 50 51  1  0
 50 52  1  0
 53 58  1  0
 53  1  1  0
 54 55  1  0
 54 53  1  0
 56 54  1  0
 57 54  1  0
 59 58  1  0
 60 71  2  0
 61 59  1  0
 61 66  1  0
 62 70  1  0
 62 72  1  0
 63 69  1  0
 63 65  1  0
 64 70  1  0
 65 64  1  0
 66 65  2  0
 67 61  2  0
 68 67  1  0
 68 63  2  0
 69 62  1  0
 70 60  1  0
 72 74  2  0
 73 72  1  0
 75 73  1  0
 76 85  2  0
 76 81  1  0
 77 73  1  0
 77 81  1  0
 78 77  1  0
 79 80  1  0
 79 78  1  0
 80 76  1  0
 81 82  2  0
 82 83  1  0
 84 83  2  0
 85 84  1  0
 86 60  1  0
 86 87  1  0
 86 96  1  0
 87 90  1  0
 88 92  1  0
 88 87  1  0
 89 88  2  0
 92 91  1  0
 94 92  1  0
 94 95  1  0
 94 93  1  0
 96 99  1  1
 96 97  1  0
 98 96  1  0
M  ISO  4  12 100  20 100  58 101  59 101
M  END
>  <TORSDO>  (50) 
F 21

>  <SCORE>  (50) 
-14.014

>  <name>  (50) 
49

>  <ligand_id>  (50) 
49

>  <original_smiles>  (50) 
[H]c1c([H])c([H])c2c(c1[H])C([H])([H])C([H])([H])C([H])([H])C2([H])N([H])C(=O)C1([H])N(C(=O)C([H])(N([H])C(=O)C([H])(N([H])C([H])([H])[H])C([H])([H])[H])C(C([H])([H])[H])(C([H])([H])[H])C([H])([H])[H])C([H])([H])c2c([H])c(OC([H])([H])C([H])(C(=O)N([H])c3c([H])c(N([H])C(=O)N4C([H])([H])C([H])([H])C([H])([H])C([H])(n5nc(-c6c([H])c([H])c(Oc7c([H])c([H])c(F)c([H])c7F)c([H])c6[H])c(C(=O)N([H])[H])c5N([H])[H])C4([H])[H])c([H])c(F)c3N([H])[H])[N+]([H])([H])[H])c([H])c([H])c2C1([H])[H]

>  <smiles>  (50) 
[H]c1c([H])c([H])c2c(c1[H])C([H])([H])C([H])([H])C([H])([H])C2([H])N([H])C(=O)C1([H])N(C(=O)C([H])(N([H])C(=O)C([H])(N([H])C([H])([H])[H])C([H])([H])[H])C(C([H])([H])[H])(C([H])([H])[H])C([H])([H])[H])C([H])([H])c2c([H])c(OC([H])([H])C([H])(C(=O)N([H])c3c([H])c(N([H])C(=O)N4C([H])([H])C([H])([H])C([H])([H])C([H])(n5nc(-c6c([H])c([H])c(Oc7c([H])c([H])c(F)c([H])c7F)c([H])c6[H])c(C(=O)N([H])[H])c5N([H])[H])C4([H])[H])c([H])c(F)c3N([H])[H])[N+]([H])([H])[H])c([H])c([H])c2C1([H])[H]

$$$$
50:0:0
     RDKit          3D

 97106  0  0  1  0  0  0  0  0999 V2000
  -27.1140  -22.6330   22.2400 C   0  0  0  0  0  2  0  0  0  0  0  0
  -28.4930  -22.9480   22.8110 C   0  0  0  0  0  2  0  0  0  0  0  0
  -27.3440  -21.6720   21.0640 C   0  0  0  0  0  2  0  0  0  0  0  0
  -29.5010  -22.2130   21.9150 C   0  0  0  0  0  2  0  0  0  0  0  0
  -28.8210  -21.7690   20.5840 C   0  0  1  0  0  0  0  0  0  0  0  0
  -30.5200  -19.7260   20.7470 C   0  0  0  0  0  3  0  0  0  0  0  0
  -30.8220  -18.3290   20.7050 C   0  0  0  0  0  3  0  0  0  0  0  0
  -28.9090  -17.9940   19.3080 C   0  0  0  0  0  3  0  0  0  0  0  0
  -29.3480  -20.3060   20.1580 C   0  0  0  0  0  0  0  0  0  0  0  0
  -28.6050  -19.3920   19.3370 C   0  0  0  0  0  0  0  0  0  0  0  0
  -29.9790  -17.4110   20.0340 C   0  0  0  0  0  0  0  0  0  0  0  0
  -27.4130  -19.8320   18.5010 C   0  0  0  0  0  1  0  0  0  0  0  0
  -30.8540  -14.9480   19.9100 C   0  0  0  0  0  0  0  0  0  0  0  0
  -30.6580  -12.6640   18.9390 C   0  0  0  0  0  2  0  0  0  0  0  0
  -29.6550  -12.7390   17.7650 C   0  0  0  0  0  2  0  0  0  0  0  0
  -28.2040  -12.5790   18.2640 C   0  0  0  0  0  2  0  0  0  0  0  0
  -27.8910  -13.4840   19.4840 C   0  0  0  0  0  3  0  0  0  0  0  0
  -28.9970  -13.3650   20.5570 C   0  0  0  0  0  2  0  0  0  0  0  0
  -30.2790  -13.7050   19.9130 N   0  0  0  0  0  0  0  0  0  0  0  0
  -31.9970  -15.1340   19.4770 O   0  0  0  0  0  0  0  0  0  0  0  0
  -29.9990  -15.9650   20.2450 N   0  0  0  0  0  0  0  0  0  0  0  0
  -29.1020  -15.5900   20.5170 H   0  0  0  0  0  0  0  0  0  0  0  0
  -25.5550  -14.1160   20.3530 C   0  0  0  0  0  0  0  0  0  0  0  0
  -24.4930  -13.3550   20.7620 C   0  0  0  0  0  0  0  0  0  0  0  0
  -24.9220  -11.9960   20.6660 C   0  0  0  0  0  0  0  0  0  0  0  0
  -26.5650  -13.2200   20.0350 N   0  0  0  0  0  0  0  0  0  0  0  0
  -26.1920  -11.9390   20.2830 N   0  0  0  0  0  0  0  0  0  0  0  0
  -24.1800  -10.7440   20.8610 C   0  0  0  0  0  0  0  0  0  0  0  0
  -24.5720   -9.7970   21.8300 C   0  0  0  0  0  3  0  0  0  0  0  0
  -23.8300   -8.6080   22.0100 C   0  0  0  0  0  3  0  0  0  0  0  0
  -22.6830   -8.3620   21.2210 C   0  0  0  0  0  0  0  0  0  0  0  0
  -22.3090   -9.2990   20.2420 C   0  0  0  0  0  3  0  0  0  0  0  0
  -23.0510  -10.4780   20.0600 C   0  0  0  0  0  3  0  0  0  0  0  0
  -21.9170   -7.2250   21.3080 O   0  0  0  0  0  0  0  0  0  0  0  0
  -21.7220   -6.5780   22.5030 C   0  0  0  0  0  0  0  0  0  0  0  0
  -21.1380   -7.2240   23.6130 C   0  0  0  0  0  3  0  0  0  0  0  0
  -20.8930   -6.5040   24.7980 C   0  0  0  0  0  3  0  0  0  0  0  0
  -21.2220   -5.1370   24.8730 C   0  0  0  0  0  0  0  0  0  0  0  0
  -21.8000   -4.4900   23.7660 C   0  0  0  0  0  3  0  0  0  0  0  0
  -22.0460   -5.2080   22.5830 C   0  0  0  0  0  0  0  0  0  0  0  0
  -22.5820   -4.5760   21.5120 F   0  0  0  0  0  0  0  0  0  0  0  0
  -20.9800   -4.4420   26.0090 F   0  0  0  0  0  0  0  0  0  0  0  0
  -23.1250  -13.8530   21.1260 C   0  0  0  0  0  0  0  0  0  0  0  0
  -22.4350  -13.1520   22.0190 N   0  0  0  0  0  0  0  0  0  0  0  0
  -22.6790  -14.9000   20.6570 O   0  0  0  0  0  0  0  0  0  0  0  0
  -22.8090  -12.3040   22.4190 H   0  0  0  0  0  0  0  0  0  0  0  0
  -21.5190  -13.4680   22.3060 H   0  0  0  0  0  0  0  0  0  0  0  0
  -25.7360  -15.4880   20.2070 N   0  0  0  0  0  0  0  0  0  0  0  0
  -24.9800  -16.1440   20.3700 H   0  0  0  0  0  0  0  0  0  0  0  0
  -26.5650  -15.9290   19.8310 H   0  0  0  0  0  0  0  0  0  0  0  0
  -28.9750  -22.8790   19.5410 N   0  0  0  0  0  4  0  0  0  0  0  0
  -28.6880  -22.5000   18.6530 H   0  0  0  0  0  0  0  0  0  0  0  0
  -29.9640  -23.0590   19.4640 H   0  0  0  0  0  0  0  0  0  0  0  0
  -28.2600  -24.2240   19.7390 C   0  0  0  0  0  2  0  0  0  0  0  0
  -28.4120  -25.2750   17.3410 C   0  0  0  0  0  1  0  0  0  0  0  0
  -28.7140  -25.4460   18.8400 C   0  0  0  0  0  3  0  0  0  0  0  0
  -28.4930  -26.8280   19.3250 O   0  0  0  0  0  0  0  0  0  0  0  0
  -24.7040  -31.6900   23.0180 C   0  0  0  0  0  0  0  0  0  0  0  0
  -27.2810  -27.5250   19.4180 C   0  0  0  0  0  0  0  0  0  0  0  0
  -23.4430  -30.3850   21.3390 C   0  0  0  0  0  3  0  0  0  0  0  0
  -24.8500  -29.0110   19.7030 C   0  0  0  0  0  0  0  0  0  0  0  0
  -25.9500  -30.8230   21.0250 C   0  0  0  0  0  2  0  0  0  0  0  0
  -26.0340  -29.5080   20.2600 C   0  0  0  0  0  0  0  0  0  0  0  0
  -27.2440  -28.7770   20.1060 C   0  0  0  0  0  3  0  0  0  0  0  0
  -26.0640  -27.0520   18.8820 C   0  0  0  0  0  3  0  0  0  0  0  0
  -24.8660  -27.7860   19.0130 C   0  0  0  0  0  3  0  0  0  0  0  0
  -23.5900  -29.8310   19.8970 C   0  0  0  0  0  2  0  0  0  0  0  0
  -24.7210  -30.9780   21.8520 N   0  0  0  0  0  0  0  0  0  0  0  0
  -23.6480  -31.8820   23.6390 O   0  0  0  0  0  0  0  0  0  0  0  0
  -22.8760  -29.2700   22.2490 C   0  0  0  0  0  0  0  0  0  0  0  0
  -21.5570  -29.0290   22.1570 N   0  0  0  0  0  0  0  0  0  0  0  0
  -23.6200  -28.6270   22.9940 O   0  0  0  0  0  0  0  0  0  0  0  0
  -21.0130  -29.6040   21.5310 H   0  0  0  0  0  0  0  0  0  0  0  0
  -18.2770  -27.5920   22.6530 C   0  0  0  0  0  0  0  0  0  0  0  0
  -20.8200  -27.9950   22.8850 C   0  0  0  0  0  3  0  0  0  0  0  0
  -20.9970  -26.6110   22.2200 C   0  0  0  0  0  2  0  0  0  0  0  0
  -19.8930  -26.2820   21.2110 C   0  0  0  0  0  2  0  0  0  0  0  0
  -18.5210  -26.3000   21.8910 C   0  0  0  0  0  2  0  0  0  0  0  0
  -19.3560  -28.3960   23.1050 C   0  0  0  0  0  0  0  0  0  0  0  0
  -19.0740  -29.6060   23.7760 C   0  0  0  0  0  3  0  0  0  0  0  0
  -17.7450  -30.0140   23.9960 C   0  0  0  0  0  3  0  0  0  0  0  0
  -16.6800  -29.2050   23.5600 C   0  0  0  0  0  3  0  0  0  0  0  0
  -16.9480  -27.9960   22.8960 C   0  0  0  0  0  3  0  0  0  0  0  0
  -26.0030  -32.3130   23.6140 C   0  0  0  0  0  3  0  0  0  0  0  0
  -26.6070  -31.4730   24.8050 C   0  0  1  0  0  0  0  0  0  0  0  0
  -25.5810  -31.1350   25.9120 C   0  0  0  0  0  1  0  0  0  0  0  0
  -27.1960  -30.1400   24.2880 C   0  0  0  0  0  1  0  0  0  0  0  0
  -27.7750  -32.2520   25.4560 C   0  0  0  0  0  1  0  0  0  0  0  0
  -25.6780  -33.6780   24.0560 N   0  0  0  0  0  0  0  0  0  0  0  0
  -25.9510  -34.7890   23.3600 C   0  0  0  0  0  0  0  0  0  0  0  0
  -26.5730  -34.7760   22.2940 O   0  0  0  0  0  0  0  0  0  0  0  0
  -25.1160  -33.7610   24.8890 H   0  0  0  0  0  0  0  0  0  0  0  0
  -24.1630  -36.5540   23.2210 C   0  0  0  0  0  1  0  0  0  0  0  0
  -25.4550  -36.1290   23.9370 C   0  0  0  0  0  3  0  0  0  0  0  0
  -27.6070  -37.0150   24.7180 C   0  0  0  0  0  1  0  0  0  0  0  0
  -26.4540  -37.2150   23.8450 N   0  0  0  0  0  0  0  0  0  0  0  0
  -26.0340  -38.1110   24.0780 H   0  0  0  0  0  0  0  0  0  0  0  0
  1  2  1  0
  3  1  1  0
  4  2  1  0
  5  3  1  0
  5  4  1  0
  7  6  1  0
  8 10  2  0
  8 11  1  0
  9  5  1  0
  9  6  2  0
 10  9  1  0
 11 21  1  0
 11  7  2  0
 12 10  1  0
 13 19  1  0
 13 21  1  0
 14 19  1  0
 15 16  1  0
 15 14  1  0
 17 16  1  0
 17 26  1  0
 17 18  1  0
 19 18  1  0
 20 13  2  0
 21 22  1  0
 23 24  2  0
 24 43  1  0
 25 24  1  0
 25 28  1  0
 26 27  1  0
 26 23  1  0
 27 25  2  0
 28 29  1  0
 29 30  2  0
 31 34  1  0
 31 30  1  0
 32 31  2  0
 33 32  1  0
 33 28  2  0
 34 35  1  0
 35 40  2  0
 35 36  1  0
 36 37  2  0
 37 38  1  0
 38 42  1  0
 39 38  2  0
 40 39  1  0
 41 40  1  0
 43 44  1  0
 44 47  1  0
 44 46  1  0
 45 43  2  0
 48 23  1  0
 48 49  1  0
 50 48  1  0
 51 54  1  0
  5 51  1  6
 52 51  1  0
 53 51  1  0
 56 55  1  0
 56 57  1  0
 56 54  1  0
 57 59  1  0
 58 69  2  0
 59 64  1  0
 60 68  1  0
 60 70  1  0
 61 67  1  0
 61 63  1  0
 62 68  1  0
 63 62  1  0
 64 63  2  0
 65 66  1  0
 65 59  2  0
 66 61  2  0
 67 60  1  0
 68 58  1  0
 70 72  2  0
 71 70  1  0
 73 71  1  0
 74 83  2  0
 74 79  1  0
 75 71  1  0
 75 79  1  0
 76 75  1  0
 77 78  1  0
 77 76  1  0
 78 74  1  0
 79 80  2  0
 80 81  1  0
 82 81  2  0
 83 82  1  0
 84 58  1  0
 84 89  1  0
 84 85  1  0
 85 88  1  1
 85 86  1  0
 87 85  1  0
 89 92  1  0
 90 94  1  0
 90 89  1  0
 91 90  2  0
 94 93  1  0
 96 94  1  0
 96 97  1  0
 96 95  1  0
M  ISO  4  13 100  21 100  56 101  57 101
M  END
>  <TORSDO>  (51) 
F 20

>  <SCORE>  (51) 
-11.560

>  <name>  (51) 
50

>  <ligand_id>  (51) 
50

>  <original_smiles>  (51) 
[H]c1c([H])c([H])c2c(c1[H])C([H])([H])C([H])([H])C([H])([H])C2([H])N([H])C(=O)C1([H])N(C(=O)C([H])(N([H])C(=O)C([H])(N([H])C([H])([H])[H])C([H])([H])[H])C(C([H])([H])[H])(C([H])([H])[H])C([H])([H])[H])C([H])([H])c2c([H])c(OC([H])(C([H])([H])[H])C([H])([H])[N+]([H])([H])C3(c4c([H])c([H])c(N([H])C(=O)N5C([H])([H])C([H])([H])C([H])([H])C([H])(n6nc(-c7c([H])c([H])c(Oc8c([H])c([H])c(F)c([H])c8F)c([H])c7[H])c(C(=O)N([H])[H])c6N([H])[H])C5([H])[H])c([H])c4C([H])([H])[H])C([H])([H])C([H])([H])C([H])([H])C3([H])[H])c([H])c([H])c2C1([H])[H]

>  <smiles>  (51) 
[H]c1c([H])c([H])c2c(c1[H])C([H])([H])C([H])([H])C([H])([H])C2([H])N([H])C(=O)C1([H])N(C(=O)C([H])(N([H])C(=O)C([H])(N([H])C([H])([H])[H])C([H])([H])[H])C(C([H])([H])[H])(C([H])([H])[H])C([H])([H])[H])C([H])([H])c2c([H])c(OC([H])(C([H])([H])[H])C([H])([H])[N+]([H])([H])C3(c4c([H])c([H])c(N([H])C(=O)N5C([H])([H])C([H])([H])C([H])([H])C([H])(n6nc(-c7c([H])c([H])c(Oc8c([H])c([H])c(F)c([H])c8F)c([H])c7[H])c(C(=O)N([H])[H])c6N([H])[H])C5([H])[H])c([H])c4C([H])([H])[H])C([H])([H])C([H])([H])C([H])([H])C3([H])[H])c([H])c([H])c2C1([H])[H]

$$$$
51:0:0
     RDKit          3D

 93102  0  0  1  0  0  0  0  0999 V2000
  -28.8080  -23.7540   20.3810 C   0  0  0  0  0  0  0  0  0  0  0  0
  -27.9900  -24.8880   20.2950 C   0  0  0  0  0  3  0  0  0  0  0  0
  -30.3140  -23.6880   20.4760 C   0  0  0  0  0  2  0  0  0  0  0  0
  -28.3820  -22.2340   20.4270 C   0  0  0  0  0  2  0  0  0  0  0  0
  -30.7110  -22.1730   20.4350 C   0  0  0  0  0  2  0  0  0  0  0  0
  -29.5450  -21.3200   20.7260 N   0  0  0  0  0  0  0  0  0  0  0  0
  -29.7040  -18.6940   21.1550 C   0  0  0  0  0  3  0  0  0  0  0  0
  -29.9040  -17.4170   20.4150 C   0  0  0  0  0  0  0  0  0  0  0  0
  -29.6230  -19.8850   20.3830 C   0  0  0  0  0  0  0  0  0  0  0  0
  -29.9330  -17.6710   19.0660 C   0  0  0  0  0  0  0  0  0  0  0  0
  -29.7700  -19.3960   18.7010 S   0  0  0  0  0  0  0  0  0  0  0  0
  -30.6390  -14.8730   20.5960 C   0  0  0  0  0  0  0  0  0  0  0  0
  -30.4850  -12.5500   19.6500 C   0  0  0  0  0  2  0  0  0  0  0  0
  -29.5940  -12.5850   18.3870 C   0  0  0  0  0  2  0  0  0  0  0  0
  -28.1090  -12.4210   18.7690 C   0  0  0  0  0  2  0  0  0  0  0  0
  -27.6930  -13.3380   19.9520 C   0  0  0  0  0  3  0  0  0  0  0  0
  -28.7100  -13.2740   21.1140 C   0  0  0  0  0  2  0  0  0  0  0  0
  -30.0270  -13.6290   20.5670 N   0  0  0  0  0  0  0  0  0  0  0  0
  -31.8160  -14.9610   20.2350 O   0  0  0  0  0  0  0  0  0  0  0  0
  -29.8960  -16.0060   20.9410 N   0  0  0  0  0  0  0  0  0  0  0  0
  -29.0630  -15.7820   21.4600 H   0  0  0  0  0  0  0  0  0  0  0  0
  -25.2860  -13.9510   20.5830 C   0  0  0  0  0  0  0  0  0  0  0  0
  -24.1990  -13.1910   20.9190 C   0  0  0  0  0  0  0  0  0  0  0  0
  -24.6510  -11.8360   20.9180 C   0  0  0  0  0  0  0  0  0  0  0  0
  -26.3300  -13.0620   20.3940 N   0  0  0  0  0  0  0  0  0  0  0  0
  -25.9530  -11.7830   20.6580 N   0  0  0  0  0  0  0  0  0  0  0  0
  -23.9060  -10.5830   21.0930 C   0  0  0  0  0  0  0  0  0  0  0  0
  -24.3100   -9.6060   22.0300 C   0  0  0  0  0  3  0  0  0  0  0  0
  -23.5650   -8.4190   22.1950 C   0  0  0  0  0  3  0  0  0  0  0  0
  -22.4010   -8.1990   21.4200 C   0  0  0  0  0  0  0  0  0  0  0  0
  -22.0160   -9.1640   20.4710 C   0  0  0  0  0  3  0  0  0  0  0  0
  -22.7630  -10.3420   20.3060 C   0  0  0  0  0  3  0  0  0  0  0  0
  -21.6280   -7.0650   21.4930 O   0  0  0  0  0  0  0  0  0  0  0  0
  -21.5620   -6.3110   22.6370 C   0  0  0  0  0  0  0  0  0  0  0  0
  -21.1470   -6.8620   23.8690 C   0  0  0  0  0  3  0  0  0  0  0  0
  -21.0280   -6.0370   25.0060 C   0  0  0  0  0  3  0  0  0  0  0  0
  -21.3110   -4.6610   24.9090 C   0  0  0  0  0  0  0  0  0  0  0  0
  -21.7190   -4.1100   23.6830 C   0  0  0  0  0  3  0  0  0  0  0  0
  -21.8420   -4.9330   22.5490 C   0  0  0  0  0  0  0  0  0  0  0  0
  -22.2160   -4.3920   21.3640 F   0  0  0  0  0  0  0  0  0  0  0  0
  -21.1890   -3.8670   25.9980 F   0  0  0  0  0  0  0  0  0  0  0  0
  -22.7980  -13.6850   21.1360 C   0  0  0  0  0  0  0  0  0  0  0  0
  -22.0390  -13.0060   21.9890 N   0  0  0  0  0  0  0  0  0  0  0  0
  -22.3860  -14.7080   20.5880 O   0  0  0  0  0  0  0  0  0  0  0  0
  -22.3870  -12.1820   22.4540 H   0  0  0  0  0  0  0  0  0  0  0  0
  -21.0950  -13.3120   22.1790 H   0  0  0  0  0  0  0  0  0  0  0  0
  -25.4690  -15.3180   20.4030 N   0  0  0  0  0  0  0  0  0  0  0  0
  -24.7000  -15.9780   20.4630 H   0  0  0  0  0  0  0  0  0  0  0  0
  -26.3370  -15.7520   20.1160 H   0  0  0  0  0  0  0  0  0  0  0  0
  -30.0160  -16.7580   18.0200 N   0  0  0  0  0  0  0  0  0  0  0  0
  -30.0980  -15.7560   18.1420 H   0  0  0  0  0  0  0  0  0  0  0  0
  -29.9660  -17.0320   17.0440 H   0  0  0  0  0  0  0  0  0  0  0  0
  -28.2660  -26.3080   20.2110 O   0  0  0  0  0  0  0  0  0  0  0  0
  -24.5850  -31.8830   23.1920 C   0  0  0  0  0  0  0  0  0  0  0  0
  -27.1920  -27.2480   20.1490 C   0  0  0  0  0  0  0  0  0  0  0  0
  -23.3830  -30.4710   21.5660 C   0  0  0  0  0  3  0  0  0  0  0  0
  -24.8360  -28.9210   20.1310 C   0  0  0  0  0  0  0  0  0  0  0  0
  -25.9270  -30.7770   21.3790 C   0  0  0  0  0  2  0  0  0  0  0  0
  -26.0100  -29.3900   20.7360 C   0  0  0  0  0  0  0  0  0  0  0  0
  -27.1880  -28.5650   20.7390 C   0  0  0  0  0  3  0  0  0  0  0  0
  -26.0030  -26.8800   19.4790 C   0  0  0  0  0  3  0  0  0  0  0  0
  -24.8400  -27.6730   19.4920 C   0  0  0  0  0  3  0  0  0  0  0  0
  -23.5980  -29.7960   20.1870 C   0  0  0  0  0  2  0  0  0  0  0  0
  -24.6510  -31.0640   22.1010 N   0  0  0  0  0  0  0  0  0  0  0  0
  -23.5020  -32.1580   23.7310 O   0  0  0  0  0  0  0  0  0  0  0  0
  -22.7270  -29.4570   22.5350 C   0  0  0  0  0  0  0  0  0  0  0  0
  -21.3990  -29.2780   22.4230 N   0  0  0  0  0  0  0  0  0  0  0  0
  -23.4130  -28.8340   23.3500 O   0  0  0  0  0  0  0  0  0  0  0  0
  -20.9010  -29.8320   21.7410 H   0  0  0  0  0  0  0  0  0  0  0  0
  -18.0330  -28.0610   22.9580 C   0  0  0  0  0  0  0  0  0  0  0  0
  -20.5910  -28.3400   23.2060 C   0  0  0  0  0  3  0  0  0  0  0  0
  -20.6970  -26.9040   22.6380 C   0  0  0  0  0  2  0  0  0  0  0  0
  -19.5890  -26.5700   21.6340 C   0  0  0  0  0  2  0  0  0  0  0  0
  -18.2110  -26.7110   22.2880 C   0  0  0  0  0  2  0  0  0  0  0  0
  -19.1490  -28.8330   23.3760 C   0  0  0  0  0  0  0  0  0  0  0  0
  -18.9260  -30.0970   23.9620 C   0  0  0  0  0  3  0  0  0  0  0  0
  -17.6180  -30.5890   24.1400 C   0  0  0  0  0  3  0  0  0  0  0  0
  -16.5170  -29.8140   23.7360 C   0  0  0  0  0  3  0  0  0  0  0  0
  -16.7240  -28.5530   23.1510 C   0  0  0  0  0  3  0  0  0  0  0  0
  -25.8670  -32.5290   23.8040 C   0  0  0  0  0  3  0  0  0  0  0  0
  -25.5440  -33.9230   24.1470 N   0  0  0  0  0  0  0  0  0  0  0  0
  -25.8610  -34.9860   23.3970 C   0  0  0  0  0  0  0  0  0  0  0  0
  -26.5230  -34.8980   22.3590 O   0  0  0  0  0  0  0  0  0  0  0  0
  -24.9560  -34.0650   24.9540 H   0  0  0  0  0  0  0  0  0  0  0  0
  -24.1160  -36.7690   23.0690 C   0  0  0  0  0  1  0  0  0  0  0  0
  -25.3640  -36.3670   23.8700 C   0  0  0  0  0  3  0  0  0  0  0  0
  -27.4970  -37.2580   24.6990 C   0  0  0  0  0  1  0  0  0  0  0  0
  -26.3870  -37.4300   23.7650 N   0  0  0  0  0  0  0  0  0  0  0  0
  -25.9740  -38.3440   23.9300 H   0  0  0  0  0  0  0  0  0  0  0  0
  -26.4040  -31.7600   25.0740 C   0  0  1  0  0  0  0  0  0  0  0  0
  -25.3240  -31.5080   26.1520 C   0  0  0  0  0  1  0  0  0  0  0  0
  -26.9960  -30.3880   24.6740 C   0  0  0  0  0  1  0  0  0  0  0  0
  -27.5530  -32.5630   25.7250 C   0  0  0  0  0  1  0  0  0  0  0  0
  1  4  1  0
  1  3  1  0
  2  1  2  0
  4  6  1  0
  5  3  1  0
  5  6  1  0
  8 20  1  0
  8  7  1  0
  9  6  1  0
  9  7  2  0
 10  8  2  0
 11 10  1  0
 11  9  1  0
 12 20  1  0
 13 18  1  0
 14 15  1  0
 14 13  1  0
 16 15  1  0
 16 25  1  0
 16 17  1  0
 18 12  1  0
 18 17  1  0
 19 12  2  0
 20 21  1  0
 22 23  2  0
 23 42  1  0
 24 23  1  0
 24 27  1  0
 25 22  1  0
 25 26  1  0
 26 24  2  0
 27 28  1  0
 28 29  2  0
 30 33  1  0
 30 29  1  0
 31 30  2  0
 32 31  1  0
 32 27  2  0
 33 34  1  0
 34 35  1  0
 35 36  2  0
 37 36  1  0
 37 41  1  0
 38 37  2  0
 39 34  2  0
 39 38  1  0
 40 39  1  0
 42 43  1  0
 43 46  1  0
 43 45  1  0
 44 42  2  0
 47 48  1  0
 47 22  1  0
 49 47  1  0
 50 51  1  0
 50 10  1  0
 52 50  1  0
 53  2  1  0
 54 65  2  0
 55 53  1  0
 55 60  1  0
 56 64  1  0
 56 66  1  0
 57 63  1  0
 57 59  1  0
 58 64  1  0
 59 60  2  0
 59 58  1  0
 61 62  1  0
 61 55  2  0
 62 57  2  0
 63 56  1  0
 64 54  1  0
 66 68  2  0
 67 66  1  0
 69 67  1  0
 70 79  2  0
 70 75  1  0
 71 67  1  0
 71 75  1  0
 72 71  1  0
 73 74  1  0
 73 72  1  0
 74 70  1  0
 75 76  2  0
 76 77  1  0
 78 77  2  0
 79 78  1  0
 80 54  1  0
 80 81  1  0
 80 90  1  0
 81 84  1  0
 82 86  1  0
 82 81  1  0
 83 82  2  0
 86 85  1  0
 88 86  1  0
 88 89  1  0
 88 87  1  0
 90 93  1  1
 90 91  1  0
 92 90  1  0
M  ISO  4   2 101  12 100  20 100  53 101
M  END
>  <TORSDO>  (52) 
F 18

>  <SCORE>  (52) 
-14.597

>  <name>  (52) 
51

>  <ligand_id>  (52) 
51

>  <original_smiles>  (52) 
[H]C(Oc1c([H])c([H])c2c(c1[H])C([H])([H])N(C(=O)C([H])(N([H])C(=O)C([H])(N([H])C([H])([H])[H])C([H])([H])[H])C(C([H])([H])[H])(C([H])([H])[H])C([H])([H])[H])C([H])(C(=O)N([H])C1([H])c3c([H])c([H])c([H])c([H])c3C([H])([H])C([H])([H])C1([H])[H])C2([H])[H])=C1C([H])([H])N(c2sc(N([H])[H])c(N([H])C(=O)N3C([H])([H])C([H])([H])C([H])([H])C([H])(n4nc(-c5c([H])c([H])c(Oc6c([H])c([H])c(F)c([H])c6F)c([H])c5[H])c(C(=O)N([H])[H])c4N([H])[H])C3([H])[H])c2[H])C([H])([H])C1([H])[H]

>  <smiles>  (52) 
[H]C(Oc1c([H])c([H])c2c(c1[H])C([H])([H])N(C(=O)C([H])(N([H])C(=O)C([H])(N([H])C([H])([H])[H])C([H])([H])[H])C(C([H])([H])[H])(C([H])([H])[H])C([H])([H])[H])C([H])(C(=O)N([H])C1([H])c3c([H])c([H])c([H])c([H])c3C([H])([H])C([H])([H])C1([H])[H])C2([H])[H])=C1C([H])([H])N(c2sc(N([H])[H])c(N([H])C(=O)N3C([H])([H])C([H])([H])C([H])([H])C([H])(n4nc(-c5c([H])c([H])c(Oc6c([H])c([H])c(F)c([H])c6F)c([H])c5[H])c(C(=O)N([H])[H])c4N([H])[H])C3([H])[H])c2[H])C([H])([H])C1([H])[H]

$$$$
52:0:0
     RDKit          3D

 97106  0  0  1  0  0  0  0  0999 V2000
  -30.4670  -20.2590   20.0680 C   0  0  0  0  0  3  0  0  0  0  0  0
  -30.7360  -18.7970   20.1410 C   0  0  0  0  0  0  0  0  0  0  0  0
  -29.1490  -20.7130   20.0200 C   0  0  0  0  0  0  0  0  0  0  0  0
  -29.6780  -17.8760   20.1180 C   0  0  0  0  0  0  0  0  0  0  0  0
  -28.2720  -19.0800   20.0240 S   0  0  0  0  0  0  0  0  0  0  0  0
  -30.3730  -15.2220   19.9930 C   0  0  0  0  0  0  0  0  0  0  0  0
  -30.2650  -12.8480   19.0480 C   0  0  0  0  0  2  0  0  0  0  0  0
  -29.2570  -12.7470   17.8760 C   0  0  0  0  0  2  0  0  0  0  0  0
  -27.8310  -12.4960   18.4010 C   0  0  0  0  0  2  0  0  0  0  0  0
  -27.4710  -13.4210   19.5900 C   0  0  0  0  0  3  0  0  0  0  0  0
  -28.5910  -13.4720   20.6530 C   0  0  0  0  0  2  0  0  0  0  0  0
  -29.8040  -13.9390   19.9650 N   0  0  0  0  0  0  0  0  0  0  0  0
  -31.5660  -15.2840   19.6700 O   0  0  0  0  0  0  0  0  0  0  0  0
  -29.5630  -16.4070   20.1740 N   0  0  0  0  0  0  0  0  0  0  0  0
  -28.6090  -16.1210   20.3430 H   0  0  0  0  0  0  0  0  0  0  0  0
  -25.1350  -13.9670   20.4770 C   0  0  0  0  0  0  0  0  0  0  0  0
  -24.0960  -13.1760   20.8860 C   0  0  0  0  0  0  0  0  0  0  0  0
  -24.5660  -11.8300   20.8000 C   0  0  0  0  0  0  0  0  0  0  0  0
  -26.1680  -13.1000   20.1610 N   0  0  0  0  0  0  0  0  0  0  0  0
  -25.8390  -11.8090   20.4230 N   0  0  0  0  0  0  0  0  0  0  0  0
  -23.8560  -10.5590   20.9950 C   0  0  0  0  0  0  0  0  0  0  0  0
  -24.3210   -9.5830   21.9050 C   0  0  0  0  0  3  0  0  0  0  0  0
  -23.6070   -8.3790   22.0910 C   0  0  0  0  0  3  0  0  0  0  0  0
  -22.4150   -8.1420   21.3680 C   0  0  0  0  0  0  0  0  0  0  0  0
  -21.9680   -9.1050   20.4460 C   0  0  0  0  0  3  0  0  0  0  0  0
  -22.6820  -10.3000   20.2570 C   0  0  0  0  0  3  0  0  0  0  0  0
  -21.6730   -6.9900   21.4650 O   0  0  0  0  0  0  0  0  0  0  0  0
  -21.6440   -6.2460   22.6160 C   0  0  0  0  0  0  0  0  0  0  0  0
  -21.1850   -6.7830   23.8390 C   0  0  0  0  0  3  0  0  0  0  0  0
  -21.1080   -5.9640   24.9840 C   0  0  0  0  0  3  0  0  0  0  0  0
  -21.4790   -4.6090   24.9060 C   0  0  0  0  0  0  0  0  0  0  0  0
  -21.9310   -4.0710   23.6880 C   0  0  0  0  0  3  0  0  0  0  0  0
  -22.0110   -4.8860   22.5470 C   0  0  0  0  0  0  0  0  0  0  0  0
  -22.4250   -4.3580   21.3700 F   0  0  0  0  0  0  0  0  0  0  0  0
  -21.3980   -3.8190   26.0020 F   0  0  0  0  0  0  0  0  0  0  0  0
  -22.7120  -13.6400   21.2370 C   0  0  0  0  0  0  0  0  0  0  0  0
  -22.0300  -12.9150   22.1150 N   0  0  0  0  0  0  0  0  0  0  0  0
  -22.2480  -14.6780   20.7700 O   0  0  0  0  0  0  0  0  0  0  0  0
  -22.4200  -12.0720   22.5120 H   0  0  0  0  0  0  0  0  0  0  0  0
  -21.1040  -13.2050   22.3960 H   0  0  0  0  0  0  0  0  0  0  0  0
  -25.2820  -15.3410   20.3150 N   0  0  0  0  0  0  0  0  0  0  0  0
  -24.5100  -15.9830   20.4610 H   0  0  0  0  0  0  0  0  0  0  0  0
  -26.0800  -15.7800   19.8760 H   0  0  0  0  0  0  0  0  0  0  0  0
  -32.1280  -18.3760   20.3070 C   0  0  0  0  0  0  0  0  0  0  0  0
  -33.0500  -18.6870   19.3910 N   0  0  0  0  0  4  0  0  0  0  0  0
  -32.4970  -17.7200   21.4110 N   0  0  0  0  0  0  0  0  0  0  0  0
  -32.7780  -19.1560   18.5410 H   0  0  0  0  0  0  0  0  0  0  0  0
  -34.0220  -18.4310   19.4790 H   0  0  0  0  0  0  0  0  0  0  0  0
  -31.8040  -17.5230   22.1160 H   0  0  0  0  0  0  0  0  0  0  0  0
  -33.4300  -17.3740   21.5620 H   0  0  0  0  0  0  0  0  0  0  0  0
  -29.0610  -23.4080   19.9750 C   0  0  0  0  0  0  0  0  0  0  0  0
  -26.7720  -23.7730   20.2170 C   0  0  0  0  0  2  0  0  0  0  0  0
  -27.1150  -22.2730   19.8880 C   0  0  0  0  0  2  0  0  0  0  0  0
  -27.9600  -24.6300   19.7380 C   0  0  0  0  0  3  0  0  0  0  0  0
  -28.5680  -22.0680   19.9770 N   0  0  0  0  0  0  0  0  0  0  0  0
  -30.2580  -23.6700   20.1210 O   0  0  0  0  0  0  0  0  0  0  0  0
  -28.1230  -26.1540   20.2090 O   0  0  0  0  0  0  0  0  0  0  0  0
  -24.5710  -31.9650   23.2580 C   0  0  0  0  0  0  0  0  0  0  0  0
  -27.0920  -27.1930   20.1490 C   0  0  0  0  0  0  0  0  0  0  0  0
  -23.3500  -30.5850   21.6240 C   0  0  0  0  0  3  0  0  0  0  0  0
  -24.7750  -28.9990   20.1740 C   0  0  0  0  0  0  0  0  0  0  0  0
  -25.9110  -30.8100   21.4470 C   0  0  0  0  0  2  0  0  0  0  0  0
  -25.9670  -29.4160   20.7790 C   0  0  0  0  0  0  0  0  0  0  0  0
  -27.1160  -28.5260   20.7550 C   0  0  0  0  0  3  0  0  0  0  0  0
  -25.8770  -26.9120   19.4840 C   0  0  0  0  0  3  0  0  0  0  0  0
  -24.7470  -27.7610   19.5130 C   0  0  0  0  0  3  0  0  0  0  0  0
  -23.5570  -29.9100   20.2410 C   0  0  0  0  0  2  0  0  0  0  0  0
  -24.6330  -31.1440   22.1630 N   0  0  0  0  0  0  0  0  0  0  0  0
  -23.4910  -32.2530   23.7950 O   0  0  0  0  0  0  0  0  0  0  0  0
  -22.6710  -29.5800   22.5900 C   0  0  0  0  0  0  0  0  0  0  0  0
  -21.3440  -29.4020   22.4620 N   0  0  0  0  0  0  0  0  0  0  0  0
  -23.3440  -28.9650   23.4210 O   0  0  0  0  0  0  0  0  0  0  0  0
  -20.8560  -29.9500   21.7680 H   0  0  0  0  0  0  0  0  0  0  0  0
  -17.9740  -28.1650   22.9660 C   0  0  0  0  0  0  0  0  0  0  0  0
  -20.5310  -28.4610   23.2380 C   0  0  0  0  0  3  0  0  0  0  0  0
  -20.6490  -27.0260   22.6750 C   0  0  0  0  0  2  0  0  0  0  0  0
  -19.5550  -26.6820   21.6600 C   0  0  0  0  0  2  0  0  0  0  0  0
  -18.1690  -26.8150   22.2960 C   0  0  0  0  0  2  0  0  0  0  0  0
  -19.0830  -28.9440   23.3950 C   0  0  0  0  0  0  0  0  0  0  0  0
  -18.8450  -30.2050   23.9830 C   0  0  0  0  0  3  0  0  0  0  0  0
  -17.5320  -30.6890   24.1460 C   0  0  0  0  0  3  0  0  0  0  0  0
  -16.4390  -29.9080   23.7330 C   0  0  0  0  0  3  0  0  0  0  0  0
  -16.6600  -28.6480   23.1500 C   0  0  0  0  0  3  0  0  0  0  0  0
  -25.8570  -32.5960   23.8750 C   0  0  0  0  0  3  0  0  0  0  0  0
  -25.5560  -33.9990   24.2070 N   0  0  0  0  0  0  0  0  0  0  0  0
  -25.8640  -35.0510   23.4410 C   0  0  0  0  0  0  0  0  0  0  0  0
  -26.5000  -34.9460   22.3880 O   0  0  0  0  0  0  0  0  0  0  0  0
  -24.9910  -34.1550   25.0290 H   0  0  0  0  0  0  0  0  0  0  0  0
  -24.1200  -36.8450   23.1610 C   0  0  0  0  0  1  0  0  0  0  0  0
  -25.3980  -36.4440   23.9150 C   0  0  0  0  0  3  0  0  0  0  0  0
  -27.5600  -37.3420   24.6540 C   0  0  0  0  0  1  0  0  0  0  0  0
  -26.4230  -37.4970   23.7510 N   0  0  0  0  0  0  0  0  0  0  0  0
  -26.0200  -38.4180   23.9030 H   0  0  0  0  0  0  0  0  0  0  0  0
  -26.3690  -31.8320   25.1570 C   0  0  1  0  0  0  0  0  0  0  0  0
  -25.2720  -31.6030   26.2240 C   0  0  0  0  0  1  0  0  0  0  0  0
  -26.9510  -30.4490   24.7830 C   0  0  0  0  0  1  0  0  0  0  0  0
  -27.5210  -32.6270   25.8150 C   0  0  0  0  0  1  0  0  0  0  0  0
  1  2  1  0
  2 44  1  0
  3  5  1  0
  3  1  2  0
  4  2  2  0
  4 14  1  0
  5  4  1  0
  6 14  1  0
  7 12  1  0
  8  9  1  0
  8  7  1  0
 10  9  1  0
 10 19  1  0
 10 11  1  0
 12  6  1  0
 12 11  1  0
 13  6  2  0
 14 15  1  0
 16 17  2  0
 17 36  1  0
 18 17  1  0
 18 21  1  0
 19 20  1  0
 19 16  1  0
 20 18  2  0
 21 22  1  0
 22 23  2  0
 24 27  1  0
 24 23  1  0
 25 24  2  0
 26 25  1  0
 26 21  2  0
 27 28  1  0
 28 29  1  0
 29 30  2  0
 31 30  1  0
 31 35  1  0
 32 31  2  0
 33 28  2  0
 33 32  1  0
 34 33  1  0
 36 37  1  0
 37 40  1  0
 37 39  1  0
 38 36  2  0
 41 42  1  0
 41 16  1  0
 43 41  1  0
 44 46  1  0
 45 48  1  0
 45 44  2  0
 46 50  1  0
 46 49  1  0
 47 45  1  0
 51 55  1  0
 51 56  2  0
 53 55  1  0
 53 52  1  0
 54 51  1  0
 54 57  1  0
 54 52  1  0
 55  3  1  0
 58 69  2  0
 59 57  1  0
 59 64  1  0
 60 68  1  0
 60 70  1  0
 61 67  1  0
 61 63  1  0
 62 68  1  0
 63 62  1  0
 64 63  2  0
 65 66  1  0
 65 59  2  0
 66 61  2  0
 67 60  1  0
 68 58  1  0
 70 72  2  0
 71 70  1  0
 73 71  1  0
 74 83  2  0
 74 79  1  0
 75 71  1  0
 75 79  1  0
 76 75  1  0
 77 78  1  0
 77 76  1  0
 78 74  1  0
 79 80  2  0
 80 81  1  0
 82 81  2  0
 83 82  1  0
 84 58  1  0
 84 85  1  0
 84 94  1  0
 85 88  1  0
 86 90  1  0
 86 85  1  0
 87 86  2  0
 90 89  1  0
 92 93  1  0
 92 90  1  0
 92 91  1  0
 94 97  1  1
 94 95  1  0
 96 94  1  0
M  ISO  4   6 100  14 100  54 101  57 101
M  END
>  <TORSDO>  (53) 
F 18

>  <SCORE>  (53) 
-14.281

>  <name>  (53) 
52

>  <ligand_id>  (53) 
52

>  <original_smiles>  (53) 
[H]c1c([H])c([H])c2c(c1[H])C([H])([H])C([H])([H])C([H])([H])C2([H])N([H])C(=O)C1([H])N(C(=O)C([H])(N([H])C(=O)C([H])(N([H])C([H])([H])[H])C([H])([H])[H])C(C([H])([H])[H])(C([H])([H])[H])C([H])([H])[H])C([H])([H])c2c([H])c(OC3([H])C(=O)N(c4sc(N([H])C(=O)N5C([H])([H])C([H])([H])C([H])([H])C([H])(n6nc(-c7c([H])c([H])c(Oc8c([H])c([H])c(F)c([H])c8F)c([H])c7[H])c(C(=O)N([H])[H])c6N([H])[H])C5([H])[H])c(C(N([H])[H])=[N+]([H])[H])c4[H])C([H])([H])C3([H])[H])c([H])c([H])c2C1([H])[H]

>  <smiles>  (53) 
[H]c1c([H])c([H])c2c(c1[H])C([H])([H])C([H])([H])C([H])([H])C2([H])N([H])C(=O)C1([H])N(C(=O)C([H])(N([H])C(=O)C([H])(N([H])C([H])([H])[H])C([H])([H])[H])C(C([H])([H])[H])(C([H])([H])[H])C([H])([H])[H])C([H])([H])c2c([H])c(OC3([H])C(=O)N(c4sc(N([H])C(=O)N5C([H])([H])C([H])([H])C([H])([H])C([H])(n6nc(-c7c([H])c([H])c(Oc8c([H])c([H])c(F)c([H])c8F)c([H])c7[H])c(C(=O)N([H])[H])c6N([H])[H])C5([H])[H])c(C(N([H])[H])=[N+]([H])[H])c4[H])C([H])([H])C3([H])[H])c([H])c([H])c2C1([H])[H]

$$$$
53:0:0
     RDKit          3D

 95104  0  0  1  0  0  0  0  0999 V2000
  -29.6830  -23.3810   18.4390 C   0  0  0  0  0  2  0  0  0  0  0  0
  -30.3430  -22.1060   18.9880 C   0  0  0  0  0  2  0  0  0  0  0  0
  -29.5070  -23.4360   20.7880 C   0  0  0  0  0  2  0  0  0  0  0  0
  -29.6760  -24.4090   19.5800 C   0  0  1  0  0  0  0  0  0  0  0  0
  -30.1920  -22.1370   20.4600 N   0  0  1  0  0  4  0  0  0  0  0  0
  -31.1400  -22.2000   20.8060 H   0  0  0  0  0  0  0  0  0  0  0  0
  -29.5840  -21.0420   22.6350 C   0  0  0  0  0  1  0  0  0  0  0  0
  -29.6200  -20.8910   21.1010 C   0  0  0  0  0  3  0  0  0  0  0  0
  -29.7110  -18.2680   20.8200 C   0  0  0  0  0  3  0  0  0  0  0  0
  -30.3420  -19.5710   20.7770 C   0  0  0  0  0  0  0  0  0  0  0  0
  -30.5700  -17.2060   20.6300 C   0  0  0  0  0  0  0  0  0  0  0  0
  -31.6420  -19.5300   20.5540 N   0  0  0  0  0  0  0  0  0  0  0  0
  -32.1370  -17.9240   20.3680 S   0  0  0  0  0  0  0  0  0  0  0  0
  -31.0120  -14.7950   20.2780 C   0  0  0  0  0  0  0  0  0  0  0  0
  -30.6910  -12.6210   19.1510 C   0  0  0  0  0  2  0  0  0  0  0  0
  -29.7350  -12.8240   17.9560 C   0  0  0  0  0  2  0  0  0  0  0  0
  -28.2630  -12.7030   18.4000 C   0  0  0  0  0  2  0  0  0  0  0  0
  -27.9450  -13.5380   19.6700 C   0  0  0  0  0  3  0  0  0  0  0  0
  -29.0170  -13.3170   20.7640 C   0  0  0  0  0  2  0  0  0  0  0  0
  -30.3330  -13.6170   20.1750 N   0  0  0  0  0  0  0  0  0  0  0  0
  -32.1680  -14.9180   19.8650 O   0  0  0  0  0  0  0  0  0  0  0  0
  -30.2700  -15.8640   20.6660 N   0  0  0  0  0  0  0  0  0  0  0  0
  -29.3240  -15.6320   20.9220 H   0  0  0  0  0  0  0  0  0  0  0  0
  -25.5580  -14.1650   20.3980 C   0  0  0  0  0  0  0  0  0  0  0  0
  -24.4870  -13.4030   20.7760 C   0  0  0  0  0  0  0  0  0  0  0  0
  -24.9360  -12.0470   20.7430 C   0  0  0  0  0  0  0  0  0  0  0  0
  -26.5940  -13.2760   20.1620 N   0  0  0  0  0  0  0  0  0  0  0  0
  -26.2240  -11.9960   20.4280 N   0  0  0  0  0  0  0  0  0  0  0  0
  -24.1980  -10.7920   20.9400 C   0  0  0  0  0  0  0  0  0  0  0  0
  -24.5990   -9.8440   21.9070 C   0  0  0  0  0  3  0  0  0  0  0  0
  -23.8660   -8.6500   22.0880 C   0  0  0  0  0  3  0  0  0  0  0  0
  -22.7170   -8.3980   21.3020 C   0  0  0  0  0  0  0  0  0  0  0  0
  -22.3360   -9.3330   20.3230 C   0  0  0  0  0  3  0  0  0  0  0  0
  -23.0700  -10.5160   20.1410 C   0  0  0  0  0  3  0  0  0  0  0  0
  -21.9550   -7.2580   21.3930 O   0  0  0  0  0  0  0  0  0  0  0  0
  -21.8320   -6.5670   22.5710 C   0  0  0  0  0  0  0  0  0  0  0  0
  -21.3110   -7.1710   23.7360 C   0  0  0  0  0  3  0  0  0  0  0  0
  -21.1350   -6.4060   24.9080 C   0  0  0  0  0  3  0  0  0  0  0  0
  -21.4720   -5.0380   24.9130 C   0  0  0  0  0  0  0  0  0  0  0  0
  -21.9870   -4.4350   23.7530 C   0  0  0  0  0  3  0  0  0  0  0  0
  -22.1640   -5.1970   22.5840 C   0  0  0  0  0  0  0  0  0  0  0  0
  -22.6410   -4.6050   21.4620 F   0  0  0  0  0  0  0  0  0  0  0  0
  -21.2930   -4.3020   26.0350 F   0  0  0  0  0  0  0  0  0  0  0  0
  -23.0940  -13.8900   21.0550 C   0  0  0  0  0  0  0  0  0  0  0  0
  -22.3680  -13.2040   21.9320 N   0  0  0  0  0  0  0  0  0  0  0  0
  -22.6580  -14.9130   20.5300 O   0  0  0  0  0  0  0  0  0  0  0  0
  -22.7380  -12.3780   22.3800 H   0  0  0  0  0  0  0  0  0  0  0  0
  -21.4300  -13.5020   22.1560 H   0  0  0  0  0  0  0  0  0  0  0  0
  -25.7300  -15.5350   20.2190 N   0  0  0  0  0  0  0  0  0  0  0  0
  -24.9610  -16.1860   20.3390 H   0  0  0  0  0  0  0  0  0  0  0  0
  -26.5620  -15.9670   19.8380 H   0  0  0  0  0  0  0  0  0  0  0  0
  -31.2720  -26.0070   20.5070 C   0  0  0  0  0  1  0  0  0  0  0  0
  -30.9980  -24.9640   19.5760 O   0  0  0  0  0  0  0  0  0  0  0  0
  -28.5160  -25.4560   19.3310 C   0  0  0  0  0  2  0  0  0  0  0  0
  -28.4860  -26.7320   20.0320 O   0  0  0  0  0  0  0  0  0  0  0  0
  -24.6490  -31.8850   23.2030 C   0  0  0  0  0  0  0  0  0  0  0  0
  -27.3190  -27.4950   20.0050 C   0  0  0  0  0  0  0  0  0  0  0  0
  -23.4570  -30.5180   21.5290 C   0  0  0  0  0  3  0  0  0  0  0  0
  -24.9200  -29.0320   20.0620 C   0  0  0  0  0  0  0  0  0  0  0  0
  -25.9870  -30.8820   21.3510 C   0  0  0  0  0  2  0  0  0  0  0  0
  -26.0800  -29.5260   20.6710 C   0  0  0  0  0  0  0  0  0  0  0  0
  -27.2770  -28.7630   20.6460 C   0  0  0  0  0  3  0  0  0  0  0  0
  -26.1320  -27.0440   19.3750 C   0  0  0  0  0  3  0  0  0  0  0  0
  -24.9450  -27.7920   19.4130 C   0  0  0  0  0  3  0  0  0  0  0  0
  -23.6720  -29.8830   20.1320 C   0  0  0  0  0  2  0  0  0  0  0  0
  -24.7160  -31.1090   22.0840 N   0  0  0  0  0  0  0  0  0  0  0  0
  -23.5640  -32.1360   23.7470 O   0  0  0  0  0  0  0  0  0  0  0  0
  -22.8130  -29.4640   22.4600 C   0  0  0  0  0  0  0  0  0  0  0  0
  -21.4940  -29.2590   22.3130 N   0  0  0  0  0  0  0  0  0  0  0  0
  -23.4960  -28.8380   23.2740 O   0  0  0  0  0  0  0  0  0  0  0  0
  -21.0020  -29.8150   21.6260 H   0  0  0  0  0  0  0  0  0  0  0  0
  -18.1390  -27.9800   22.7380 C   0  0  0  0  0  0  0  0  0  0  0  0
  -20.6850  -28.2950   23.0590 C   0  0  0  0  0  3  0  0  0  0  0  0
  -20.8320  -26.8740   22.4670 C   0  0  0  0  0  2  0  0  0  0  0  0
  -19.7560  -26.5380   21.4300 C   0  0  0  0  0  2  0  0  0  0  0  0
  -18.3590  -26.6440   22.0500 C   0  0  0  0  0  2  0  0  0  0  0  0
  -19.2310  -28.7630   23.1970 C   0  0  0  0  0  0  0  0  0  0  0  0
  -18.9720  -30.0130   23.8000 C   0  0  0  0  0  3  0  0  0  0  0  0
  -17.6530  -30.4830   23.9480 C   0  0  0  0  0  3  0  0  0  0  0  0
  -16.5760  -29.6970   23.5050 C   0  0  0  0  0  3  0  0  0  0  0  0
  -16.8190  -28.4490   22.9050 C   0  0  0  0  0  3  0  0  0  0  0  0
  -25.9300  -32.5120   23.8390 C   0  0  0  0  0  3  0  0  0  0  0  0
  -26.4450  -31.7230   25.1040 C   0  0  1  0  0  0  0  0  0  0  0  0
  -25.3490  -31.4620   26.1620 C   0  0  0  0  0  1  0  0  0  0  0  0
  -27.0390  -30.3550   24.6930 C   0  0  0  0  0  1  0  0  0  0  0  0
  -27.5880  -32.5150   25.7840 C   0  0  0  0  0  1  0  0  0  0  0  0
  -25.6120  -33.9020   24.1890 N   0  0  0  0  0  0  0  0  0  0  0  0
  -25.9320  -34.9670   23.4420 C   0  0  0  0  0  0  0  0  0  0  0  0
  -26.5990  -34.8840   22.4060 O   0  0  0  0  0  0  0  0  0  0  0  0
  -25.0210  -34.0420   24.9960 H   0  0  0  0  0  0  0  0  0  0  0  0
  -24.1850  -36.7480   23.1200 C   0  0  0  0  0  1  0  0  0  0  0  0
  -25.4340  -36.3440   23.9200 C   0  0  0  0  0  3  0  0  0  0  0  0
  -27.5620  -37.2390   24.7570 C   0  0  0  0  0  1  0  0  0  0  0  0
  -26.4560  -37.4090   23.8180 N   0  0  0  0  0  0  0  0  0  0  0  0
  -26.0400  -38.3220   23.9800 H   0  0  0  0  0  0  0  0  0  0  0  0
  1  2  1  0
  1  4  1  0
  2  5  1  0
  4 54  1  6
  4  3  1  0
  5  3  1  0
  5  6  1  1
  5  8  1  0
  8  7  1  0
 10  9  1  0
 10  8  1  0
 11 22  1  0
 11  9  2  0
 12 10  2  0
 13 12  1  0
 13 11  1  0
 14 22  1  0
 15 20  1  0
 16 17  1  0
 16 15  1  0
 18 17  1  0
 18 27  1  0
 18 19  1  0
 20 14  1  0
 20 19  1  0
 21 14  2  0
 22 23  1  0
 24 25  2  0
 25 44  1  0
 26 25  1  0
 26 29  1  0
 27 24  1  0
 27 28  1  0
 28 26  2  0
 29 30  1  0
 30 31  2  0
 32 35  1  0
 32 31  1  0
 33 32  2  0
 34 33  1  0
 34 29  2  0
 35 36  1  0
 36 41  2  0
 36 37  1  0
 37 38  2  0
 38 39  1  0
 39 43  1  0
 40 39  2  0
 41 40  1  0
 42 41  1  0
 44 45  1  0
 45 48  1  0
 45 47  1  0
 46 44  2  0
 49 50  1  0
 49 24  1  0
 51 49  1  0
 53  4  1  0
 53 52  1  0
 54 55  1  0
 56 67  2  0
 57 55  1  0
 57 62  1  0
 58 66  1  0
 58 68  1  0
 59 65  1  0
 59 61  1  0
 60 66  1  0
 61 60  1  0
 62 61  2  0
 63 64  1  0
 63 57  2  0
 64 59  2  0
 65 58  1  0
 66 56  1  0
 68 70  2  0
 69 68  1  0
 71 69  1  0
 72 81  2  0
 72 77  1  0
 73 69  1  0
 73 77  1  0
 74 73  1  0
 75 76  1  0
 75 74  1  0
 76 72  1  0
 77 78  2  0
 78 79  1  0
 80 79  2  0
 81 80  1  0
 82 56  1  0
 82 87  1  0
 82 83  1  0
 83 86  1  1
 83 84  1  0
 85 83  1  0
 87 90  1  0
 88 92  1  0
 88 87  1  0
 89 88  2  0
 92 91  1  0
 94 92  1  0
 94 95  1  0
 94 93  1  0
M  ISO  4  14 100  22 100  54 101  55 101
M  END
>  <TORSDO>  (54) 
F 20

>  <SCORE>  (54) 
-13.538

>  <name>  (54) 
53

>  <ligand_id>  (54) 
53

>  <original_smiles>  (54) 
[H]c1c(C([H])(C([H])([H])[H])[N+]2([H])C([H])([H])C([H])([H])C(OC([H])([H])[H])(C([H])([H])Oc3c([H])c([H])c4c(c3[H])C([H])([H])N(C(=O)C([H])(N([H])C(=O)C([H])(N([H])C([H])([H])[H])C([H])([H])[H])C(C([H])([H])[H])(C([H])([H])[H])C([H])([H])[H])C([H])(C(=O)N([H])C3([H])c5c([H])c([H])c([H])c([H])c5C([H])([H])C([H])([H])C3([H])[H])C4([H])[H])C2([H])[H])nsc1N([H])C(=O)N1C([H])([H])C([H])([H])C([H])([H])C([H])(n2nc(-c3c([H])c([H])c(Oc4c([H])c([H])c(F)c([H])c4F)c([H])c3[H])c(C(=O)N([H])[H])c2N([H])[H])C1([H])[H]

>  <smiles>  (54) 
[H]c1c(C([H])(C([H])([H])[H])[N+]2([H])C([H])([H])C([H])([H])C(OC([H])([H])[H])(C([H])([H])Oc3c([H])c([H])c4c(c3[H])C([H])([H])N(C(=O)C([H])(N([H])C(=O)C([H])(N([H])C([H])([H])[H])C([H])([H])[H])C(C([H])([H])[H])(C([H])([H])[H])C([H])([H])[H])C([H])(C(=O)N([H])C3([H])c5c([H])c([H])c([H])c([H])c5C([H])([H])C([H])([H])C3([H])[H])C4([H])[H])C2([H])[H])nsc1N([H])C(=O)N1C([H])([H])C([H])([H])C([H])([H])C([H])(n2nc(-c3c([H])c([H])c(Oc4c([H])c([H])c(F)c([H])c4F)c([H])c3[H])c(C(=O)N([H])[H])c2N([H])[H])C1([H])[H]

$$$$
54:0:0
     RDKit          3D

 98108  0  0  1  0  0  0  0  0999 V2000
  -30.5970  -20.5870   19.3010 C   0  0  0  0  0  3  0  0  0  0  0  0
  -30.9920  -18.1340   19.2670 C   0  0  0  0  0  3  0  0  0  0  0  0
  -29.1750  -19.0920   20.5560 C   0  0  0  0  0  3  0  0  0  0  0  0
  -31.3030  -19.4470   18.8380 C   0  0  0  0  0  0  0  0  0  0  0  0
  -29.4840  -20.5210   20.1630 C   0  0  0  0  0  0  0  0  0  0  0  0
  -29.9310  -17.8400   20.1520 C   0  0  0  0  0  0  0  0  0  0  0  0
  -30.4470  -15.0950   20.2820 C   0  0  0  0  0  0  0  0  0  0  0  0
  -30.3330  -12.7100   19.3730 C   0  0  0  0  0  2  0  0  0  0  0  0
  -29.3980  -12.6230   18.1420 C   0  0  0  0  0  2  0  0  0  0  0  0
  -27.9390  -12.4020   18.5840 C   0  0  0  0  0  2  0  0  0  0  0  0
  -27.5320  -13.3390   19.7510 C   0  0  0  0  0  3  0  0  0  0  0  0
  -28.5920  -13.3870   20.8720 C   0  0  0  0  0  2  0  0  0  0  0  0
  -29.8500  -13.8230   20.2530 N   0  0  0  0  0  0  0  0  0  0  0  0
  -31.6490  -15.1110   19.9930 O   0  0  0  0  0  0  0  0  0  0  0  0
  -29.6940  -16.3220   20.4760 N   0  0  0  0  0  0  0  0  0  0  0  0
  -28.7680  -16.1300   20.8270 H   0  0  0  0  0  0  0  0  0  0  0  0
  -25.1630  -13.9180   20.5100 C   0  0  0  0  0  0  0  0  0  0  0  0
  -24.0980  -13.1460   20.8830 C   0  0  0  0  0  0  0  0  0  0  0  0
  -24.5590  -11.7940   20.8510 C   0  0  0  0  0  0  0  0  0  0  0  0
  -26.2000  -13.0370   20.2600 N   0  0  0  0  0  0  0  0  0  0  0  0
  -25.8490  -11.7550   20.5340 N   0  0  0  0  0  0  0  0  0  0  0  0
  -23.8290  -10.5350   21.0430 C   0  0  0  0  0  0  0  0  0  0  0  0
  -24.2630   -9.5610   21.9690 C   0  0  0  0  0  3  0  0  0  0  0  0
  -23.5320   -8.3670   22.1510 C   0  0  0  0  0  3  0  0  0  0  0  0
  -22.3500   -8.1400   21.4060 C   0  0  0  0  0  0  0  0  0  0  0  0
  -21.9350   -9.1010   20.4680 C   0  0  0  0  0  3  0  0  0  0  0  0
  -22.6680  -10.2850   20.2840 C   0  0  0  0  0  3  0  0  0  0  0  0
  -21.5880   -7.0000   21.4970 O   0  0  0  0  0  0  0  0  0  0  0  0
  -21.5480   -6.2510   22.6460 C   0  0  0  0  0  0  0  0  0  0  0  0
  -21.1430   -6.8020   23.8820 C   0  0  0  0  0  3  0  0  0  0  0  0
  -21.0500   -5.9790   25.0230 C   0  0  0  0  0  3  0  0  0  0  0  0
  -21.3530   -4.6080   24.9280 C   0  0  0  0  0  0  0  0  0  0  0  0
  -21.7520   -4.0570   23.6980 C   0  0  0  0  0  3  0  0  0  0  0  0
  -21.8460   -4.8770   22.5600 C   0  0  0  0  0  0  0  0  0  0  0  0
  -22.2100   -4.3370   21.3720 F   0  0  0  0  0  0  0  0  0  0  0  0
  -21.2570   -3.8150   26.0220 F   0  0  0  0  0  0  0  0  0  0  0  0
  -22.7040  -13.6280   21.1570 C   0  0  0  0  0  0  0  0  0  0  0  0
  -21.9750  -12.9360   22.0250 N   0  0  0  0  0  0  0  0  0  0  0  0
  -22.2700  -14.6540   20.6360 O   0  0  0  0  0  0  0  0  0  0  0  0
  -22.3430  -12.1070   22.4710 H   0  0  0  0  0  0  0  0  0  0  0  0
  -21.0380  -13.2390   22.2500 H   0  0  0  0  0  0  0  0  0  0  0  0
  -25.3300  -15.2890   20.3310 N   0  0  0  0  0  0  0  0  0  0  0  0
  -24.5620  -15.9420   20.4430 H   0  0  0  0  0  0  0  0  0  0  0  0
  -26.1680  -15.7230   19.9680 H   0  0  0  0  0  0  0  0  0  0  0  0
  -27.0550  -23.6200   20.5920 C   0  0  0  0  0  0  0  0  0  0  0  0
  -27.4020  -22.0800   20.6370 C   0  0  0  0  0  2  0  0  0  0  0  0
  -29.3350  -23.3130   20.1900 C   0  0  0  0  0  2  0  0  0  0  0  0
  -28.3040  -24.5390   20.6520 C   0  0  0  0  0  3  0  0  0  0  0  0
  -28.8510  -21.8620   20.4850 N   0  0  0  0  0  0  0  0  0  0  0  0
  -25.8890  -24.0180   20.6020 O   0  0  0  0  0  0  0  0  0  0  0  0
  -28.2820  -26.0850   20.1880 O   0  0  0  0  0  0  0  0  0  0  0  0
  -24.6450  -31.8650   23.2310 C   0  0  0  0  0  0  0  0  0  0  0  0
  -27.2140  -27.0810   20.2290 C   0  0  0  0  0  0  0  0  0  0  0  0
  -23.4470  -30.4650   21.5940 C   0  0  0  0  0  3  0  0  0  0  0  0
  -24.8980  -28.8810   20.1760 C   0  0  0  0  0  0  0  0  0  0  0  0
  -26.0070  -30.7130   21.4370 C   0  0  0  0  0  2  0  0  0  0  0  0
  -26.0790  -29.3100   20.7950 C   0  0  0  0  0  0  0  0  0  0  0  0
  -27.2360  -28.4290   20.8020 C   0  0  0  0  0  3  0  0  0  0  0  0
  -26.0190  -26.7940   19.5360 C   0  0  0  0  0  3  0  0  0  0  0  0
  -24.8870  -27.6390   19.5250 C   0  0  0  0  0  3  0  0  0  0  0  0
  -23.6740  -29.7860   20.2170 C   0  0  0  0  0  2  0  0  0  0  0  0
  -24.7210  -31.0400   22.1410 N   0  0  0  0  0  0  0  0  0  0  0  0
  -23.5570  -32.1480   23.7580 O   0  0  0  0  0  0  0  0  0  0  0  0
  -22.7690  -29.4600   22.5590 C   0  0  0  0  0  0  0  0  0  0  0  0
  -21.4400  -29.2850   22.4360 N   0  0  0  0  0  0  0  0  0  0  0  0
  -23.4420  -28.8360   23.3840 O   0  0  0  0  0  0  0  0  0  0  0  0
  -20.9520  -29.8400   21.7470 H   0  0  0  0  0  0  0  0  0  0  0  0
  -18.0650  -28.0660   22.9440 C   0  0  0  0  0  0  0  0  0  0  0  0
  -20.6230  -28.3470   23.2110 C   0  0  0  0  0  3  0  0  0  0  0  0
  -20.7340  -26.9120   22.6420 C   0  0  0  0  0  2  0  0  0  0  0  0
  -19.6350  -26.5790   21.6290 C   0  0  0  0  0  2  0  0  0  0  0  0
  -18.2530  -26.7170   22.2700 C   0  0  0  0  0  2  0  0  0  0  0  0
  -19.1790  -28.8380   23.3710 C   0  0  0  0  0  0  0  0  0  0  0  0
  -18.9490  -30.1010   23.9610 C   0  0  0  0  0  3  0  0  0  0  0  0
  -17.6400  -30.5890   24.1290 C   0  0  0  0  0  3  0  0  0  0  0  0
  -16.5420  -29.8150   23.7160 C   0  0  0  0  0  3  0  0  0  0  0  0
  -16.7560  -28.5550   23.1300 C   0  0  0  0  0  3  0  0  0  0  0  0
  -25.9200  -32.5080   23.8550 C   0  0  0  0  0  3  0  0  0  0  0  0
  -26.4350  -31.7450   25.1370 C   0  0  1  0  0  0  0  0  0  0  0  0
  -25.3400  -31.5130   26.2060 C   0  0  0  0  0  1  0  0  0  0  0  0
  -27.0190  -30.3650   24.7600 C   0  0  0  0  0  1  0  0  0  0  0  0
  -27.5820  -32.5450   25.7950 C   0  0  0  0  0  1  0  0  0  0  0  0
  -25.6010  -33.9060   24.1900 N   0  0  0  0  0  0  0  0  0  0  0  0
  -25.9160  -34.9660   23.4330 C   0  0  0  0  0  0  0  0  0  0  0  0
  -26.5710  -34.8690   22.3920 O   0  0  0  0  0  0  0  0  0  0  0  0
  -25.0180  -34.0530   25.0020 H   0  0  0  0  0  0  0  0  0  0  0  0
  -24.1680  -36.7520   23.1200 C   0  0  0  0  0  1  0  0  0  0  0  0
  -25.4290  -36.3520   23.9030 C   0  0  0  0  0  3  0  0  0  0  0  0
  -27.5740  -37.2540   24.6890 C   0  0  0  0  0  1  0  0  0  0  0  0
  -26.4500  -37.4130   23.7700 N   0  0  0  0  0  0  0  0  0  0  0  0
  -26.0400  -38.3280   23.9300 H   0  0  0  0  0  0  0  0  0  0  0  0
  -32.4210  -19.6390   17.8200 C   0  0  0  0  0  2  0  0  0  0  0  0
  -32.4580  -21.6970   16.3900 C   0  0  0  0  0  0  0  0  0  0  0  0
  -31.7730  -22.2340   15.1470 C   0  0  0  0  0  2  0  0  0  0  0  0
  -30.6770  -21.1990   14.8670 C   0  0  0  0  0  2  0  0  0  0  0  0
  -31.0390  -19.9780   15.7240 C   0  0  0  0  0  2  0  0  0  0  0  0
  -32.0230  -20.4650   16.6790 N   0  0  0  0  0  0  0  0  0  0  0  0
  -33.2910  -22.3470   17.0260 O   0  0  0  0  0  0  0  0  0  0  0  0
  1  5  1  0
  2  6  2  0
  4  2  1  0
  4  1  2  0
  5 49  1  0
  5  3  2  0
  6 15  1  0
  6  3  1  0
  7 15  1  0
  8 13  1  0
  9 10  1  0
  9  8  1  0
 11 10  1  0
 11 20  1  0
 11 12  1  0
 13  7  1  0
 13 12  1  0
 14  7  2  0
 15 16  1  0
 17 18  2  0
 18 37  1  0
 19 18  1  0
 19 22  1  0
 20 17  1  0
 20 21  1  0
 21 19  2  0
 22 23  1  0
 23 24  2  0
 25 28  1  0
 25 24  1  0
 26 25  2  0
 27 26  1  0
 27 22  2  0
 28 29  1  0
 29 30  1  0
 30 31  2  0
 32 31  1  0
 32 36  1  0
 33 32  2  0
 34 29  2  0
 34 33  1  0
 35 34  1  0
 37 38  1  0
 38 41  1  0
 38 40  1  0
 39 37  2  0
 42 43  1  0
 42 17  1  0
 44 42  1  0
 45 50  2  0
 45 46  1  0
 45 48  1  0
 47 49  1  0
 47 48  1  0
 48 51  1  0
 49 46  1  0
 51 53  1  0
 52 63  2  0
 53 58  1  0
 54 62  1  0
 54 64  1  0
 55 61  1  0
 55 57  1  0
 56 62  1  0
 57 58  2  0
 57 56  1  0
 59 53  2  0
 60 59  1  0
 60 55  2  0
 61 54  1  0
 62 52  1  0
 64 66  2  0
 65 64  1  0
 67 65  1  0
 68 77  2  0
 68 73  1  0
 69 65  1  0
 69 73  1  0
 70 69  1  0
 71 72  1  0
 71 70  1  0
 72 68  1  0
 73 74  2  0
 74 75  1  0
 76 75  2  0
 77 76  1  0
 78 52  1  0
 78 83  1  0
 78 79  1  0
 79 82  1  1
 79 80  1  0
 81 79  1  0
 83 86  1  0
 84 88  1  0
 84 83  1  0
 85 84  2  0
 88 87  1  0
 90 88  1  0
 90 91  1  0
 90 89  1  0
 92  4  1  0
 93 97  1  0
 93 98  2  0
 94 93  1  0
 95 94  1  0
 95 96  1  0
 96 97  1  0
 97 92  1  0
M  ISO  4   7 100  15 100  48 101  51 101
M  END
>  <TORSDO>  (55) 
F 19

>  <SCORE>  (55) 
-14.345

>  <name>  (55) 
54

>  <ligand_id>  (55) 
54

>  <original_smiles>  (55) 
[H]c1c([H])c([H])c2c(c1[H])C([H])([H])C([H])([H])C([H])([H])C2([H])N([H])C(=O)C1([H])N(C(=O)C([H])(N([H])C(=O)C([H])(N([H])C([H])([H])[H])C([H])([H])[H])C(C([H])([H])[H])(C([H])([H])[H])C([H])([H])[H])C([H])([H])c2c([H])c(OC3([H])C(=O)C([H])([H])N(c4c([H])c(N([H])C(=O)N5C([H])([H])C([H])([H])C([H])([H])C([H])(n6nc(-c7c([H])c([H])c(Oc8c([H])c([H])c(F)c([H])c8F)c([H])c7[H])c(C(=O)N([H])[H])c6N([H])[H])C5([H])[H])c([H])c(C([H])([H])N5C(=O)C([H])([H])C([H])([H])C5([H])[H])c4[H])C3([H])[H])c([H])c([H])c2C1([H])[H]

>  <smiles>  (55) 
[H]c1c([H])c([H])c2c(c1[H])C([H])([H])C([H])([H])C([H])([H])C2([H])N([H])C(=O)C1([H])N(C(=O)C([H])(N([H])C(=O)C([H])(N([H])C([H])([H])[H])C([H])([H])[H])C(C([H])([H])[H])(C([H])([H])[H])C([H])([H])[H])C([H])([H])c2c([H])c(OC3([H])C(=O)C([H])([H])N(c4c([H])c(N([H])C(=O)N5C([H])([H])C([H])([H])C([H])([H])C([H])(n6nc(-c7c([H])c([H])c(Oc8c([H])c([H])c(F)c([H])c8F)c([H])c7[H])c(C(=O)N([H])[H])c6N([H])[H])C5([H])[H])c([H])c(C([H])([H])N5C(=O)C([H])([H])C([H])([H])C5([H])[H])c4[H])C3([H])[H])c([H])c([H])c2C1([H])[H]

$$$$
55:0:0
     RDKit          3D

 95105  0  0  1  0  0  0  0  0999 V2000
  -30.7810  -15.0050   20.4950 C   0  0  0  0  0  0  0  0  0  0  0  0
  -30.6290  -12.6550   19.5990 C   0  0  0  0  0  2  0  0  0  0  0  0
  -29.7170  -12.5180   18.3490 C   0  0  0  0  0  2  0  0  0  0  0  0
  -28.2180  -12.5390   18.7000 C   0  0  0  0  0  2  0  0  0  0  0  0
  -27.8160  -13.4770   19.8730 C   0  0  0  0  0  3  0  0  0  0  0  0
  -28.8390  -13.4340   21.0250 C   0  0  0  0  0  2  0  0  0  0  0  0
  -30.1470  -13.7710   20.4480 N   0  0  0  0  0  0  0  0  0  0  0  0
  -32.0080  -15.0440   20.6260 O   0  0  0  0  0  0  0  0  0  0  0  0
  -31.0310  -21.0520   20.4430 C   0  0  0  0  0  2  0  0  0  0  0  0
  -29.3520  -19.7800   21.1490 C   0  0  0  0  0  2  0  0  0  0  0  0
  -31.1600  -19.7950   19.9070 C   0  0  0  0  0  3  0  0  0  0  0  0
  -30.1560  -18.9080   20.3970 C   0  0  0  0  0  3  0  0  0  0  0  0
  -31.9100  -19.4620   18.6710 C   0  0  0  0  0  2  0  0  0  0  0  0
  -30.7710  -16.7330   17.4500 C   0  0  0  0  0  2  0  0  0  0  0  0
  -30.2960  -15.5990   18.2930 C   0  0  0  0  0  2  0  0  0  0  0  0
  -29.8350  -17.5500   19.5910 C   0  0  0  0  0  3  0  0  0  0  0  0
  -30.0630  -17.9060   18.0600 C   0  0  0  0  0  3  0  0  0  0  0  0
  -31.1330  -19.3840   16.3130 C   0  0  0  0  0  1  0  0  0  0  0  0
  -29.8080  -21.1370   21.0780 N   0  0  0  0  0  0  0  0  0  0  0  0
  -30.1750  -16.0080   19.7110 N   0  0  0  0  0  0  0  0  0  0  0  0
  -30.7930  -19.1790   17.7400 N   0  0  2  0  0  4  0  0  0  0  0  0
  -30.1330  -19.9080   17.9590 H   0  0  0  0  0  0  0  0  0  0  0  0
  -25.3920  -14.0890   20.4610 C   0  0  0  0  0  0  0  0  0  0  0  0
  -24.3080  -13.3230   20.7890 C   0  0  0  0  0  0  0  0  0  0  0  0
  -24.7770  -11.9750   20.8410 C   0  0  0  0  0  0  0  0  0  0  0  0
  -26.4520  -13.2080   20.3220 N   0  0  0  0  0  0  0  0  0  0  0  0
  -26.0850  -11.9370   20.6250 N   0  0  0  0  0  0  0  0  0  0  0  0
  -24.0500  -10.7140   21.0250 C   0  0  0  0  0  0  0  0  0  0  0  0
  -24.4480   -9.7660   21.9940 C   0  0  0  0  0  3  0  0  0  0  0  0
  -23.7200   -8.5680   22.1660 C   0  0  0  0  0  3  0  0  0  0  0  0
  -22.5800   -8.3110   21.3680 C   0  0  0  0  0  0  0  0  0  0  0  0
  -22.2030   -9.2450   20.3880 C   0  0  0  0  0  3  0  0  0  0  0  0
  -22.9310  -10.4330   20.2150 C   0  0  0  0  0  3  0  0  0  0  0  0
  -21.8270   -7.1640   21.4490 O   0  0  0  0  0  0  0  0  0  0  0  0
  -21.7530   -6.4310   22.6060 C   0  0  0  0  0  0  0  0  0  0  0  0
  -21.3050   -6.9970   23.8200 C   0  0  0  0  0  3  0  0  0  0  0  0
  -21.1790   -6.1920   24.9680 C   0  0  0  0  0  3  0  0  0  0  0  0
  -21.4910   -4.8210   24.9050 C   0  0  0  0  0  0  0  0  0  0  0  0
  -21.9330   -4.2540   23.6960 C   0  0  0  0  0  3  0  0  0  0  0  0
  -22.0600   -5.0570   22.5500 C   0  0  0  0  0  0  0  0  0  0  0  0
  -22.4670   -4.5020   21.3830 F   0  0  0  0  0  0  0  0  0  0  0  0
  -21.3630   -4.0440   26.0060 F   0  0  0  0  0  0  0  0  0  0  0  0
  -22.8930  -13.7970   20.9500 C   0  0  0  0  0  0  0  0  0  0  0  0
  -22.1260  -13.1490   21.8190 N   0  0  0  0  0  0  0  0  0  0  0  0
  -22.4750  -14.7790   20.3370 O   0  0  0  0  0  0  0  0  0  0  0  0
  -22.4770  -12.3560   22.3340 H   0  0  0  0  0  0  0  0  0  0  0  0
  -21.1730  -13.4500   21.9670 H   0  0  0  0  0  0  0  0  0  0  0  0
  -25.5620  -15.4540   20.2420 N   0  0  0  0  0  0  0  0  0  0  0  0
  -24.7910  -16.1110   20.2890 H   0  0  0  0  0  0  0  0  0  0  0  0
  -26.4380  -15.8870   19.9840 H   0  0  0  0  0  0  0  0  0  0  0  0
  -29.1480  -22.4360   21.5720 C   0  0  0  0  0  2  0  0  0  0  0  0
  -29.3340  -23.9120   20.9430 C   0  0  0  0  0  0  0  0  0  0  0  0
  -30.2310  -24.1270   20.1190 O   0  0  0  0  0  0  0  0  0  0  0  0
  -28.3590  -25.1140   21.3610 C   0  0  0  0  0  2  0  0  0  0  0  0
  -28.6360  -26.5110   20.8630 O   0  0  0  0  0  0  0  0  0  0  0  0
  -24.5570  -31.9910   23.3220 C   0  0  0  0  0  0  0  0  0  0  0  0
  -27.5200  -27.3630   20.7000 C   0  0  0  0  0  0  0  0  0  0  0  0
  -23.5150  -30.4660   21.6850 C   0  0  0  0  0  3  0  0  0  0  0  0
  -25.1120  -28.9030   20.4350 C   0  0  0  0  0  0  0  0  0  0  0  0
  -26.0500  -30.8710   21.6470 C   0  0  0  0  0  2  0  0  0  0  0  0
  -26.2230  -29.4620   21.0810 C   0  0  0  0  0  0  0  0  0  0  0  0
  -27.4330  -28.7050   21.1990 C   0  0  0  0  0  3  0  0  0  0  0  0
  -26.3920  -26.8710   20.0090 C   0  0  0  0  0  3  0  0  0  0  0  0
  -25.2030  -27.6150   19.8840 C   0  0  0  0  0  3  0  0  0  0  0  0
  -23.8440  -29.7310   20.3580 C   0  0  0  0  0  2  0  0  0  0  0  0
  -24.7220  -31.1310   22.2740 N   0  0  0  0  0  0  0  0  0  0  0  0
  -23.4320  -32.2500   23.7730 O   0  0  0  0  0  0  0  0  0  0  0  0
  -22.8270  -29.4750   22.6540 C   0  0  0  0  0  0  0  0  0  0  0  0
  -21.5150  -29.2530   22.4660 N   0  0  0  0  0  0  0  0  0  0  0  0
  -23.4770  -28.9040   23.5340 O   0  0  0  0  0  0  0  0  0  0  0  0
  -21.0490  -29.7660   21.7320 H   0  0  0  0  0  0  0  0  0  0  0  0
  -18.1400  -28.0120   22.8780 C   0  0  0  0  0  0  0  0  0  0  0  0
  -20.6830  -28.3260   23.2340 C   0  0  0  0  0  3  0  0  0  0  0  0
  -20.8290  -26.8790   22.7090 C   0  0  0  0  0  2  0  0  0  0  0  0
  -19.7720  -26.5060   21.6650 C   0  0  0  0  0  2  0  0  0  0  0  0
  -18.3640  -26.6460   22.2520 C   0  0  0  0  0  2  0  0  0  0  0  0
  -19.2290  -28.8070   23.3250 C   0  0  0  0  0  0  0  0  0  0  0  0
  -18.9670  -30.0830   23.8700 C   0  0  0  0  0  3  0  0  0  0  0  0
  -17.6490  -30.5650   23.9720 C   0  0  0  0  0  3  0  0  0  0  0  0
  -16.5740  -29.7690   23.5410 C   0  0  0  0  0  3  0  0  0  0  0  0
  -16.8210  -28.4940   23.0000 C   0  0  0  0  0  3  0  0  0  0  0  0
  -25.7710  -32.7060   23.9900 C   0  0  0  0  0  3  0  0  0  0  0  0
  -25.3810  -34.1000   24.2470 N   0  0  0  0  0  0  0  0  0  0  0  0
  -25.7140  -35.1400   23.4710 C   0  0  0  0  0  0  0  0  0  0  0  0
  -26.4500  -35.0310   22.4860 O   0  0  0  0  0  0  0  0  0  0  0  0
  -24.7300  -34.2540   25.0040 H   0  0  0  0  0  0  0  0  0  0  0  0
  -23.9370  -36.8430   22.9490 C   0  0  0  0  0  1  0  0  0  0  0  0
  -25.1410  -36.5210   23.8470 C   0  0  0  0  0  3  0  0  0  0  0  0
  -27.1800  -37.5280   24.7740 C   0  0  0  0  0  1  0  0  0  0  0  0
  -26.1330  -37.6140   23.7580 N   0  0  0  0  0  0  0  0  0  0  0  0
  -25.6800  -38.5190   23.8450 H   0  0  0  0  0  0  0  0  0  0  0  0
  -26.2460  -32.0080   25.3260 C   0  0  1  0  0  0  0  0  0  0  0  0
  -25.0970  -31.7290   26.3220 C   0  0  0  0  0  1  0  0  0  0  0  0
  -26.9430  -30.6620   25.0240 C   0  0  0  0  0  1  0  0  0  0  0  0
  -27.2910  -32.8980   26.0380 C   0  0  0  0  0  1  0  0  0  0  0  0
  1  8  2  0
  2  7  1  0
  3  4  1  0
  3  2  1  0
  5  4  1  0
  5 26  1  0
  5  6  1  0
  7  1  1  0
  7  6  1  0
  9 19  1  0
 11 13  1  0
 11 12  1  0
 11  9  1  0
 12 10  1  0
 14 15  1  0
 15 20  1  0
 16 20  1  0
 16 12  1  0
 17 14  1  0
 17 16  1  0
 18 21  1  0
 19 10  1  0
 19 51  1  0
 20  1  1  0
 21 22  1  1
 21 17  1  0
 21 13  1  0
 23 24  2  0
 24 25  1  0
 24 43  1  0
 25 28  1  0
 26 23  1  0
 26 27  1  0
 27 25  2  0
 28 29  1  0
 29 30  2  0
 31 34  1  0
 31 30  1  0
 32 31  2  0
 33 32  1  0
 33 28  2  0
 34 35  1  0
 35 36  1  0
 36 37  2  0
 38 37  1  0
 38 42  1  0
 39 38  2  0
 40 35  2  0
 40 39  1  0
 41 40  1  0
 43 44  1  0
 44 47  1  0
 44 46  1  0
 45 43  2  0
 48 49  1  0
 48 23  1  0
 50 48  1  0
 52 54  1  0
 52 51  1  0
 53 52  2  0
 55 54  1  0
 56 67  2  0
 57 55  1  0
 57 62  1  0
 58 66  1  0
 58 68  1  0
 59 61  1  0
 60 66  1  0
 61 62  2  0
 61 60  1  0
 63 57  2  0
 64 63  1  0
 64 59  2  0
 65 59  1  0
 65 58  1  0
 66 56  1  0
 68 70  2  0
 69 68  1  0
 71 69  1  0
 72 81  2  0
 72 77  1  0
 73 69  1  0
 73 77  1  0
 74 73  1  0
 75 76  1  0
 75 74  1  0
 76 72  1  0
 77 78  2  0
 78 79  1  0
 80 79  2  0
 81 80  1  0
 82 56  1  0
 82 83  1  0
 82 92  1  0
 83 86  1  0
 84 88  1  0
 84 83  1  0
 85 84  2  0
 88 87  1  0
 90 91  1  0
 90 88  1  0
 90 89  1  0
 92 95  1  1
 92 93  1  0
 94 92  1  0
M  ISO  4   1 100  20 100  54 101  55 101
M  END
>  <TORSDO>  (56) 
F 18

>  <SCORE>  (56) 
-13.346

>  <name>  (56) 
55

>  <ligand_id>  (56) 
55

>  <original_smiles>  (56) 
[H]c1c([H])c([H])c2c(c1[H])C([H])([H])C([H])([H])C([H])([H])C2([H])N([H])C(=O)C1([H])N(C(=O)C([H])(N([H])C(=O)C([H])(N([H])C([H])([H])[H])C([H])([H])[H])C(C([H])([H])[H])(C([H])([H])[H])C([H])([H])[H])C([H])([H])c2c([H])c(OC([H])([H])C(=O)C([H])([H])n3c([H])c4c(c3[H])C([H])([H])[N+]([H])(C([H])([H])[H])C3([H])C4([H])N(C(=O)N4C([H])([H])C([H])([H])C([H])([H])C([H])(n5nc(-c6c([H])c([H])c(Oc7c([H])c([H])c(F)c([H])c7F)c([H])c6[H])c(C(=O)N([H])[H])c5N([H])[H])C4([H])[H])C([H])([H])C3([H])[H])c([H])c([H])c2C1([H])[H]

>  <smiles>  (56) 
[H]c1c([H])c([H])c2c(c1[H])C([H])([H])C([H])([H])C([H])([H])C2([H])N([H])C(=O)C1([H])N(C(=O)C([H])(N([H])C(=O)C([H])(N([H])C([H])([H])[H])C([H])([H])[H])C(C([H])([H])[H])(C([H])([H])[H])C([H])([H])[H])C([H])([H])c2c([H])c(OC([H])([H])C(=O)C([H])([H])n3c([H])c4c(c3[H])C([H])([H])[N+]([H])(C([H])([H])[H])C3([H])C4([H])N(C(=O)N4C([H])([H])C([H])([H])C([H])([H])C([H])(n5nc(-c6c([H])c([H])c(Oc7c([H])c([H])c(F)c([H])c7F)c([H])c6[H])c(C(=O)N([H])[H])c5N([H])[H])C4([H])[H])C([H])([H])C3([H])[H])c([H])c([H])c2C1([H])[H]

$$$$
56:0:0
     RDKit          3D

 93102  0  0  1  0  0  0  0  0999 V2000
  -27.7070  -22.7860   19.9920 C   0  0  0  0  0  0  0  0  0  0  0  0
  -27.8140  -21.4260   19.8760 N   0  0  0  0  0  0  0  0  0  0  0  0
  -26.5570  -23.2240   19.9380 O   0  0  0  0  0  0  0  0  0  0  0  0
  -26.8800  -21.0450   19.8550 H   0  0  0  0  0  0  0  0  0  0  0  0
  -28.4370  -19.0160   20.1050 C   0  0  0  0  0  3  0  0  0  0  0  0
  -30.0980  -20.4560   19.3160 C   0  0  0  0  0  3  0  0  0  0  0  0
  -28.8050  -20.3720   19.7610 C   0  0  0  0  0  0  0  0  0  0  0  0
  -29.4380  -18.0620   19.9790 C   0  0  0  0  0  0  0  0  0  0  0  0
  -30.8770  -18.8640   19.3660 S   0  0  0  0  0  0  0  0  0  0  0  0
  -30.8530  -14.6740   19.4710 C   0  0  0  0  0  0  0  0  0  0  0  0
  -30.4360  -12.4460   18.4410 C   0  0  0  0  0  2  0  0  0  0  0  0
  -29.3080  -12.5270   17.3930 C   0  0  0  0  0  2  0  0  0  0  0  0
  -27.9330  -12.3330   18.0580 C   0  0  0  0  0  2  0  0  0  0  0  0
  -27.7590  -13.2190   19.3190 C   0  0  0  0  0  3  0  0  0  0  0  0
  -28.9880  -13.1220   20.2540 C   0  0  0  0  0  2  0  0  0  0  0  0
  -30.1810  -13.4770   19.4720 N   0  0  0  0  0  0  0  0  0  0  0  0
  -31.8590  -14.8270   18.7690 O   0  0  0  0  0  0  0  0  0  0  0  0
  -30.5270  -16.6400   22.5520 C   0  0  0  0  0  2  0  0  0  0  0  0
  -29.1120  -16.6020   21.9730 C   0  0  0  0  0  2  0  0  0  0  0  0
  -31.3860  -15.9010   21.5200 C   0  0  0  0  0  2  0  0  0  0  0  0
  -29.3350  -16.5810   20.4540 C   0  0  0  0  0  3  0  0  0  0  0  0
  -30.5130  -15.6530   20.3720 N   0  0  0  0  0  0  0  0  0  0  0  0
  -25.5760  -13.7920   20.5460 C   0  0  0  0  0  0  0  0  0  0  0  0
  -24.5600  -13.0080   21.0210 C   0  0  0  0  0  0  0  0  0  0  0  0
  -24.9420  -11.6570   20.7520 C   0  0  0  0  0  0  0  0  0  0  0  0
  -26.5130  -12.9170   20.0190 N   0  0  0  0  0  0  0  0  0  0  0  0
  -26.1490  -11.6220   20.2010 N   0  0  0  0  0  0  0  0  0  0  0  0
  -24.2020  -10.4010   20.9310 C   0  0  0  0  0  0  0  0  0  0  0  0
  -24.6530   -9.3990   21.8180 C   0  0  0  0  0  3  0  0  0  0  0  0
  -23.9140   -8.2090   21.9880 C   0  0  0  0  0  3  0  0  0  0  0  0
  -22.7080   -8.0140   21.2730 C   0  0  0  0  0  0  0  0  0  0  0  0
  -22.2760   -9.0050   20.3750 C   0  0  0  0  0  3  0  0  0  0  0  0
  -23.0160  -10.1860   20.2020 C   0  0  0  0  0  3  0  0  0  0  0  0
  -21.9370   -6.8790   21.3560 O   0  0  0  0  0  0  0  0  0  0  0  0
  -21.8350   -6.1630   22.5210 C   0  0  0  0  0  0  0  0  0  0  0  0
  -21.3450   -6.7420   23.7130 C   0  0  0  0  0  3  0  0  0  0  0  0
  -21.1900   -5.9510   24.8690 C   0  0  0  0  0  3  0  0  0  0  0  0
  -21.5160   -4.5810   24.8330 C   0  0  0  0  0  0  0  0  0  0  0  0
  -22.0000   -4.0020   23.6470 C   0  0  0  0  0  3  0  0  0  0  0  0
  -22.1550   -4.7910   22.4940 C   0  0  0  0  0  0  0  0  0  0  0  0
  -22.6010   -4.2230   21.3470 F   0  0  0  0  0  0  0  0  0  0  0  0
  -21.3620   -3.8180   25.9410 F   0  0  0  0  0  0  0  0  0  0  0  0
  -23.2640  -13.4870   21.6060 C   0  0  0  0  0  0  0  0  0  0  0  0
  -22.7080  -12.7440   22.5570 N   0  0  0  0  0  0  0  0  0  0  0  0
  -22.7570  -14.5520   21.2530 O   0  0  0  0  0  0  0  0  0  0  0  0
  -23.1340  -11.8820   22.8610 H   0  0  0  0  0  0  0  0  0  0  0  0
  -21.8450  -13.0450   22.9870 H   0  0  0  0  0  0  0  0  0  0  0  0
  -25.7670  -15.1680   20.4950 N   0  0  0  0  0  0  0  0  0  0  0  0
  -25.0580  -15.8160   20.8220 H   0  0  0  0  0  0  0  0  0  0  0  0
  -26.5390  -15.6300   20.0350 H   0  0  0  0  0  0  0  0  0  0  0  0
  -28.8330  -23.8560   20.1790 C   0  0  0  0  0  2  0  0  0  0  0  0
  -28.3640  -25.2210   20.8800 C   0  0  0  0  0  2  0  0  0  0  0  0
  -28.5840  -26.5400   20.2530 O   0  0  0  0  0  0  0  0  0  0  0  0
  -24.8310  -31.8430   23.3650 C   0  0  0  0  0  0  0  0  0  0  0  0
  -27.4840  -27.3970   20.2300 C   0  0  0  0  0  0  0  0  0  0  0  0
  -23.6610  -30.5260   21.6300 C   0  0  0  0  0  3  0  0  0  0  0  0
  -25.1380  -29.0140   20.1940 C   0  0  0  0  0  0  0  0  0  0  0  0
  -26.2060  -30.8300   21.5360 C   0  0  0  0  0  2  0  0  0  0  0  0
  -26.2910  -29.4760   20.8440 C   0  0  0  0  0  0  0  0  0  0  0  0
  -27.4720  -28.6800   20.8490 C   0  0  0  0  0  3  0  0  0  0  0  0
  -26.3150  -26.9760   19.5620 C   0  0  0  0  0  3  0  0  0  0  0  0
  -25.1510  -27.7690   19.5430 C   0  0  0  0  0  3  0  0  0  0  0  0
  -23.9080  -29.8970   20.2330 C   0  0  0  0  0  2  0  0  0  0  0  0
  -24.9160  -31.0830   22.2340 N   0  0  0  0  0  0  0  0  0  0  0  0
  -23.7350  -32.1140   23.8770 O   0  0  0  0  0  0  0  0  0  0  0  0
  -22.9560  -29.4840   22.5320 C   0  0  0  0  0  0  0  0  0  0  0  0
  -21.6260  -29.3500   22.3760 N   0  0  0  0  0  0  0  0  0  0  0  0
  -23.6040  -28.8030   23.3300 O   0  0  0  0  0  0  0  0  0  0  0  0
  -21.1650  -29.9510   21.7080 H   0  0  0  0  0  0  0  0  0  0  0  0
  -18.2080  -28.2480   22.7870 C   0  0  0  0  0  0  0  0  0  0  0  0
  -20.7720  -28.3970   23.0850 C   0  0  0  0  0  3  0  0  0  0  0  0
  -20.8260  -26.9990   22.4260 C   0  0  0  0  0  2  0  0  0  0  0  0
  -19.7200  -26.7780   21.3890 C   0  0  0  0  0  2  0  0  0  0  0  0
  -18.3410  -26.9350   22.0340 C   0  0  0  0  0  2  0  0  0  0  0  0
  -19.3490  -28.9410   23.2680 C   0  0  0  0  0  0  0  0  0  0  0  0
  -19.1730  -30.1730   23.9340 C   0  0  0  0  0  3  0  0  0  0  0  0
  -17.8860  -30.7110   24.1230 C   0  0  0  0  0  3  0  0  0  0  0  0
  -16.7590  -30.0130   23.6560 C   0  0  0  0  0  3  0  0  0  0  0  0
  -16.9200  -28.7830   22.9950 C   0  0  0  0  0  3  0  0  0  0  0  0
  -26.1010  -32.4340   24.0520 C   0  0  0  0  0  3  0  0  0  0  0  0
  -26.5620  -31.6110   25.3180 C   0  0  1  0  0  0  0  0  0  0  0  0
  -25.4300  -31.3520   26.3400 C   0  0  0  0  0  1  0  0  0  0  0  0
  -27.1390  -30.2400   24.8980 C   0  0  0  0  0  1  0  0  0  0  0  0
  -27.7010  -32.3640   26.0470 C   0  0  0  0  0  1  0  0  0  0  0  0
  -25.8030  -33.8250   24.4200 N   0  0  0  0  0  0  0  0  0  0  0  0
  -26.1670  -34.8980   23.7050 C   0  0  0  0  0  0  0  0  0  0  0  0
  -26.8600  -34.8180   22.6870 O   0  0  0  0  0  0  0  0  0  0  0  0
  -25.1920  -33.9610   25.2130 H   0  0  0  0  0  0  0  0  0  0  0  0
  -24.4790  -36.7310   23.3620 C   0  0  0  0  0  1  0  0  0  0  0  0
  -25.6870  -36.2770   24.1960 C   0  0  0  0  0  3  0  0  0  0  0  0
  -27.8030  -37.1030   25.1330 C   0  0  0  0  0  1  0  0  0  0  0  0
  -26.7410  -37.3140   24.1530 N   0  0  0  0  0  0  0  0  0  0  0  0
  -26.3450  -38.2370   24.3090 H   0  0  0  0  0  0  0  0  0  0  0  0
  1 51  1  0
  2  1  1  0
  3  1  2  0
  4  2  1  0
  6  9  1  0
  6  7  2  0
  7  2  1  0
  7  5  1  0
  8  5  2  0
  9  8  1  0
 10 16  1  0
 10 22  1  0
 11 16  1  0
 12 13  1  0
 12 11  1  0
 14 13  1  0
 14 26  1  0
 14 15  1  0
 16 15  1  0
 17 10  2  0
 19 18  1  0
 20 18  1  0
 21  8  1  0
 21 19  1  0
 22 21  1  0
 22 20  1  0
 23 24  2  0
 24 43  1  0
 25 28  1  0
 25 24  1  0
 26 27  1  0
 26 23  1  0
 27 25  2  0
 28 29  1  0
 29 30  2  0
 31 34  1  0
 31 30  1  0
 32 31  2  0
 33 32  1  0
 33 28  2  0
 34 35  1  0
 35 36  1  0
 36 37  2  0
 38 37  1  0
 38 42  1  0
 39 38  2  0
 40 35  2  0
 40 39  1  0
 41 40  1  0
 43 44  1  0
 44 46  1  0
 44 47  1  0
 45 43  2  0
 48 23  1  0
 48 49  1  0
 50 48  1  0
 51 52  1  0
 53 52  1  0
 54 65  2  0
 55 53  1  0
 55 60  1  0
 56 64  1  0
 56 66  1  0
 57 63  1  0
 57 59  1  0
 58 64  1  0
 59 60  2  0
 59 58  1  0
 61 55  2  0
 62 61  1  0
 62 57  2  0
 63 56  1  0
 64 54  1  0
 66 68  2  0
 67 66  1  0
 69 67  1  0
 70 79  2  0
 70 75  1  0
 71 67  1  0
 71 75  1  0
 72 71  1  0
 73 74  1  0
 73 72  1  0
 74 70  1  0
 75 76  2  0
 76 77  1  0
 78 77  2  0
 79 78  1  0
 80 54  1  0
 80 85  1  0
 80 81  1  0
 81 84  1  1
 81 82  1  0
 83 81  1  0
 85 88  1  0
 86 90  1  0
 86 85  1  0
 87 86  2  0
 90 89  1  0
 92 90  1  0
 92 93  1  0
 92 91  1  0
M  ISO  4  10 100  22 100  52 101  53 101
M  END
>  <TORSDO>  (57) 
F 19

>  <SCORE>  (57) 
-11.944

>  <name>  (57) 
56

>  <ligand_id>  (57) 
56

>  <original_smiles>  (57) 
[H]c1sc(C2([H])N(C(=O)N3C([H])([H])C([H])([H])C([H])([H])C([H])(n4nc(-c5c([H])c([H])c(Oc6c([H])c([H])c(F)c([H])c6F)c([H])c5[H])c(C(=O)N([H])[H])c4N([H])[H])C3([H])[H])C([H])([H])C([H])([H])C2([H])[H])c([H])c1N([H])C(=O)C([H])([H])C([H])([H])Oc1c([H])c([H])c2c(c1[H])C([H])([H])N(C(=O)C([H])(N([H])C(=O)C([H])(N([H])C([H])([H])[H])C([H])([H])[H])C(C([H])([H])[H])(C([H])([H])[H])C([H])([H])[H])C([H])(C(=O)N([H])C1([H])c3c([H])c([H])c([H])c([H])c3C([H])([H])C([H])([H])C1([H])[H])C2([H])[H]

>  <smiles>  (57) 
[H]c1sc(C2([H])N(C(=O)N3C([H])([H])C([H])([H])C([H])([H])C([H])(n4nc(-c5c([H])c([H])c(Oc6c([H])c([H])c(F)c([H])c6F)c([H])c5[H])c(C(=O)N([H])[H])c4N([H])[H])C3([H])[H])C([H])([H])C([H])([H])C2([H])[H])c([H])c1N([H])C(=O)C([H])([H])C([H])([H])Oc1c([H])c([H])c2c(c1[H])C([H])([H])N(C(=O)C([H])(N([H])C(=O)C([H])(N([H])C([H])([H])[H])C([H])([H])[H])C(C([H])([H])[H])(C([H])([H])[H])C([H])([H])[H])C([H])(C(=O)N([H])C1([H])c3c([H])c([H])c([H])c([H])c3C([H])([H])C([H])([H])C1([H])[H])C2([H])[H]

$$$$
57:0:0
     RDKit          3D

 99108  0  0  1  0  0  0  0  0999 V2000
  -29.0550  -17.6810   19.3980 C   0  0  0  0  0  3  0  0  0  0  0  0
  -28.9890  -19.1280   19.3550 C   0  0  0  0  0  0  0  0  0  0  0  0
  -29.6100  -19.8180   20.3860 C   0  0  0  0  0  0  0  0  0  0  0  0
  -29.7500  -17.1370   20.4600 C   0  0  0  0  0  0  0  0  0  0  0  0
  -30.3310  -18.5290   21.4200 S   0  0  0  0  0  0  0  0  0  0  0  0
  -30.5680  -14.7340   20.3980 C   0  0  0  0  0  0  0  0  0  0  0  0
  -30.3790  -12.4710   19.3610 C   0  0  0  0  0  2  0  0  0  0  0  0
  -29.4370  -12.5800   18.1400 C   0  0  0  0  0  2  0  0  0  0  0  0
  -27.9640  -12.4120   18.5660 C   0  0  0  0  0  2  0  0  0  0  0  0
  -27.6000  -13.2790   19.8020 C   0  0  0  0  0  3  0  0  0  0  0  0
  -28.6590  -13.1430   20.9190 C   0  0  0  0  0  2  0  0  0  0  0  0
  -29.9650  -13.4970   20.3430 N   0  0  0  0  0  0  0  0  0  0  0  0
  -31.7150  -14.8940   19.9680 O   0  0  0  0  0  0  0  0  0  0  0  0
  -29.7950  -15.7880   20.8340 N   0  0  0  0  0  0  0  0  0  0  0  0
  -28.9350  -15.4550   21.2470 H   0  0  0  0  0  0  0  0  0  0  0  0
  -25.2110  -13.8750   20.5310 C   0  0  0  0  0  0  0  0  0  0  0  0
  -24.1430  -13.1010   20.8960 C   0  0  0  0  0  0  0  0  0  0  0  0
  -24.6030  -11.7490   20.8580 C   0  0  0  0  0  0  0  0  0  0  0  0
  -26.2520  -12.9930   20.2880 N   0  0  0  0  0  0  0  0  0  0  0  0
  -25.8920  -11.7090   20.5460 N   0  0  0  0  0  0  0  0  0  0  0  0
  -23.8740  -10.4880   21.0410 C   0  0  0  0  0  0  0  0  0  0  0  0
  -24.2970   -9.5190   21.9770 C   0  0  0  0  0  3  0  0  0  0  0  0
  -23.5670   -8.3240   22.1500 C   0  0  0  0  0  3  0  0  0  0  0  0
  -22.3990   -8.0890   21.3870 C   0  0  0  0  0  0  0  0  0  0  0  0
  -21.9940   -9.0470   20.4420 C   0  0  0  0  0  3  0  0  0  0  0  0
  -22.7250  -10.2340   20.2670 C   0  0  0  0  0  3  0  0  0  0  0  0
  -21.6400   -6.9450   21.4700 O   0  0  0  0  0  0  0  0  0  0  0  0
  -21.5670   -6.2120   22.6280 C   0  0  0  0  0  0  0  0  0  0  0  0
  -21.0870   -6.7690   23.8330 C   0  0  0  0  0  3  0  0  0  0  0  0
  -20.9630   -5.9610   24.9810 C   0  0  0  0  0  3  0  0  0  0  0  0
  -21.3060   -4.5980   24.9240 C   0  0  0  0  0  0  0  0  0  0  0  0
  -21.7790   -4.0400   23.7230 C   0  0  0  0  0  3  0  0  0  0  0  0
  -21.9050   -4.8450   22.5770 C   0  0  0  0  0  0  0  0  0  0  0  0
  -22.3400   -4.2980   21.4170 F   0  0  0  0  0  0  0  0  0  0  0  0
  -21.1810   -3.8200   26.0250 F   0  0  0  0  0  0  0  0  0  0  0  0
  -22.7470  -13.5820   21.1740 C   0  0  0  0  0  0  0  0  0  0  0  0
  -22.0180  -12.8800   22.0340 N   0  0  0  0  0  0  0  0  0  0  0  0
  -22.3110  -14.6130   20.6620 O   0  0  0  0  0  0  0  0  0  0  0  0
  -22.3820  -12.0440   22.4690 H   0  0  0  0  0  0  0  0  0  0  0  0
  -21.0810  -13.1810   22.2610 H   0  0  0  0  0  0  0  0  0  0  0  0
  -25.3790  -15.2460   20.3640 N   0  0  0  0  0  0  0  0  0  0  0  0
  -24.6170  -15.9020   20.4920 H   0  0  0  0  0  0  0  0  0  0  0  0
  -26.2380  -15.6870   20.0620 H   0  0  0  0  0  0  0  0  0  0  0  0
  -31.0790  -23.0700   21.7410 C   0  0  0  0  0  2  0  0  0  0  0  0
  -29.9540  -24.1110   21.5900 C   0  0  0  0  0  2  0  0  0  0  0  0
  -30.5480  -21.6260   21.8330 C   0  0  0  0  0  2  0  0  0  0  0  0
  -28.6710  -22.2840   20.3510 C   0  0  0  0  0  2  0  0  0  0  0  0
  -29.1210  -23.8390   20.3320 C   0  0  2  0  0  0  0  0  0  0  0  0
  -29.7330  -21.2480   20.6730 N   0  0  0  0  0  0  0  0  0  0  0  0
  -29.9250  -23.9780   19.2750 F   0  0  0  0  0  0  0  0  0  0  0  0
  -27.9710  -24.9550   20.1530 C   0  0  0  0  0  2  0  0  0  0  0  0
  -28.2380  -26.4280   20.2510 O   0  0  0  0  0  0  0  0  0  0  0  0
  -24.5500  -31.9040   23.2540 C   0  0  0  0  0  0  0  0  0  0  0  0
  -27.1350  -27.3090   20.2010 C   0  0  0  0  0  0  0  0  0  0  0  0
  -23.3400  -30.5090   21.6200 C   0  0  0  0  0  3  0  0  0  0  0  0
  -24.7820  -28.9550   20.1900 C   0  0  0  0  0  0  0  0  0  0  0  0
  -25.8850  -30.8110   21.4350 C   0  0  0  0  0  2  0  0  0  0  0  0
  -25.9580  -29.4300   20.7870 C   0  0  0  0  0  0  0  0  0  0  0  0
  -27.1380  -28.6210   20.7780 C   0  0  0  0  0  3  0  0  0  0  0  0
  -25.9320  -26.8980   19.5790 C   0  0  0  0  0  3  0  0  0  0  0  0
  -24.7750  -27.6970   19.5750 C   0  0  0  0  0  3  0  0  0  0  0  0
  -23.5500  -29.8360   20.2380 C   0  0  0  0  0  2  0  0  0  0  0  0
  -24.6100  -31.0920   22.1580 N   0  0  0  0  0  0  0  0  0  0  0  0
  -23.4680  -32.1870   23.7880 O   0  0  0  0  0  0  0  0  0  0  0  0
  -22.6750  -29.4920   22.5810 C   0  0  0  0  0  0  0  0  0  0  0  0
  -21.3510  -29.3080   22.4440 N   0  0  0  0  0  0  0  0  0  0  0  0
  -23.3520  -28.8750   23.4070 O   0  0  0  0  0  0  0  0  0  0  0  0
  -20.8660  -29.8580   21.7490 H   0  0  0  0  0  0  0  0  0  0  0  0
  -17.9740  -28.1050   22.9330 C   0  0  0  0  0  0  0  0  0  0  0  0
  -20.5300  -28.3730   23.2160 C   0  0  0  0  0  3  0  0  0  0  0  0
  -20.6390  -26.9370   22.6500 C   0  0  0  0  0  2  0  0  0  0  0  0
  -19.5440  -26.6060   21.6320 C   0  0  0  0  0  2  0  0  0  0  0  0
  -18.1570  -26.7520   22.2660 C   0  0  0  0  0  2  0  0  0  0  0  0
  -19.0880  -28.8730   23.3650 C   0  0  0  0  0  0  0  0  0  0  0  0
  -18.8620  -30.1380   23.9480 C   0  0  0  0  0  3  0  0  0  0  0  0
  -17.5550  -30.6370   24.1040 C   0  0  0  0  0  3  0  0  0  0  0  0
  -16.4550  -29.8660   23.6890 C   0  0  0  0  0  3  0  0  0  0  0  0
  -16.6650  -28.6020   23.1090 C   0  0  0  0  0  3  0  0  0  0  0  0
  -25.8350  -32.5340   23.8750 C   0  0  0  0  0  3  0  0  0  0  0  0
  -26.3410  -31.7720   25.1610 C   0  0  1  0  0  0  0  0  0  0  0  0
  -25.2420  -31.5500   26.2250 C   0  0  0  0  0  1  0  0  0  0  0  0
  -26.9180  -30.3870   24.7880 C   0  0  0  0  0  1  0  0  0  0  0  0
  -27.4930  -32.5670   25.8210 C   0  0  0  0  0  1  0  0  0  0  0  0
  -25.5330  -33.9370   24.1910 N   0  0  0  0  0  0  0  0  0  0  0  0
  -25.8710  -34.9820   23.4230 C   0  0  0  0  0  0  0  0  0  0  0  0
  -26.5400  -34.8650   22.3930 O   0  0  0  0  0  0  0  0  0  0  0  0
  -24.9360  -34.1020   24.9880 H   0  0  0  0  0  0  0  0  0  0  0  0
  -24.1610  -36.7890   23.0430 C   0  0  0  0  0  1  0  0  0  0  0  0
  -25.3920  -36.3770   23.8670 C   0  0  0  0  0  3  0  0  0  0  0  0
  -27.5230  -37.2510   24.7190 C   0  0  0  0  0  1  0  0  0  0  0  0
  -26.4340  -37.4210   23.7600 N   0  0  0  0  0  0  0  0  0  0  0  0
  -26.0340  -38.3450   23.8960 H   0  0  0  0  0  0  0  0  0  0  0  0
  -28.2760  -19.7620   18.2460 C   0  0  0  0  0  0  0  0  0  0  0  0
  -28.9090  -20.5650   17.3840 N   0  0  0  0  0  4  0  0  0  0  0  0
  -26.9740  -19.5070   18.0690 N   0  0  0  0  0  0  0  0  0  0  0  0
  -29.8880  -20.7610   17.5270 H   0  0  0  0  0  0  0  0  0  0  0  0
  -28.4650  -20.9920   16.5870 H   0  0  0  0  0  0  0  0  0  0  0  0
  -26.4880  -18.9270   18.7370 H   0  0  0  0  0  0  0  0  0  0  0  0
  -26.4230  -19.9170   17.3310 H   0  0  0  0  0  0  0  0  0  0  0  0
  1  4  2  0
  2  1  1  0
  2  3  2  0
  3 49  1  0
  3  5  1  0
  4 14  1  0
  4  5  1  0
  6 14  1  0
  7 12  1  0
  8  9  1  0
  8  7  1  0
 10  9  1  0
 10 19  1  0
 10 11  1  0
 12  6  1  0
 12 11  1  0
 13  6  2  0
 14 15  1  0
 16 17  2  0
 17 36  1  0
 18 17  1  0
 18 21  1  0
 19 16  1  0
 19 20  1  0
 20 18  2  0
 21 22  1  0
 22 23  2  0
 24 27  1  0
 24 23  1  0
 25 24  2  0
 26 25  1  0
 26 21  2  0
 27 28  1  0
 28 29  1  0
 29 30  2  0
 31 30  1  0
 31 35  1  0
 32 31  2  0
 33 28  2  0
 33 32  1  0
 34 33  1  0
 36 37  1  0
 37 40  1  0
 37 39  1  0
 38 36  2  0
 41 42  1  0
 41 16  1  0
 43 41  1  0
 44 46  1  0
 45 44  1  0
 47 49  1  0
 48 50  1  6
 48 47  1  0
 48 45  1  0
 49 46  1  0
 51 52  1  0
 51 48  1  0
 53 64  2  0
 54 52  1  0
 54 59  1  0
 55 63  1  0
 55 65  1  0
 56 62  1  0
 56 58  1  0
 57 63  1  0
 58 57  1  0
 59 58  2  0
 60 54  2  0
 61 60  1  0
 61 56  2  0
 62 55  1  0
 63 53  1  0
 65 67  2  0
 66 65  1  0
 68 66  1  0
 69 78  2  0
 69 74  1  0
 70 66  1  0
 70 74  1  0
 71 70  1  0
 72 73  1  0
 72 71  1  0
 73 69  1  0
 74 75  2  0
 75 76  1  0
 77 76  2  0
 78 77  1  0
 79 53  1  0
 79 84  1  0
 79 80  1  0
 80 83  1  1
 80 81  1  0
 82 80  1  0
 84 87  1  0
 85 89  1  0
 85 84  1  0
 86 85  2  0
 89 88  1  0
 91 89  1  0
 91 92  1  0
 91 90  1  0
 93  2  1  0
 94 96  1  0
 94 93  2  0
 95 93  1  0
 95 98  1  0
 97 94  1  0
 99 95  1  0
M  ISO  4   6 100  14 100  51 101  52 101
M  END
>  <TORSDO>  (58) 
F 19

>  <SCORE>  (58) 
-14.355

>  <name>  (58) 
57

>  <ligand_id>  (58) 
57

>  <original_smiles>  (58) 
[H]c1c([H])c([H])c2c(c1[H])C([H])([H])C([H])([H])C([H])([H])C2([H])N([H])C(=O)C1([H])N(C(=O)C([H])(N([H])C(=O)C([H])(N([H])C([H])([H])[H])C([H])([H])[H])C(C([H])([H])[H])(C([H])([H])[H])C([H])([H])[H])C([H])([H])c2c([H])c(OC([H])([H])C3(F)C([H])([H])N(c4sc(N([H])C(=O)N5C([H])([H])C([H])([H])C([H])([H])C([H])(n6nc(-c7c([H])c([H])c(Oc8c([H])c([H])c(F)c([H])c8F)c([H])c7[H])c(C(=O)N([H])[H])c6N([H])[H])C5([H])[H])c([H])c4C(N([H])[H])=[N+]([H])[H])C([H])([H])C([H])([H])C3([H])[H])c([H])c([H])c2C1([H])[H]

>  <smiles>  (58) 
[H]c1c([H])c([H])c2c(c1[H])C([H])([H])C([H])([H])C([H])([H])C2([H])N([H])C(=O)C1([H])N(C(=O)C([H])(N([H])C(=O)C([H])(N([H])C([H])([H])[H])C([H])([H])[H])C(C([H])([H])[H])(C([H])([H])[H])C([H])([H])[H])C([H])([H])c2c([H])c(OC([H])([H])C3(F)C([H])([H])N(c4sc(N([H])C(=O)N5C([H])([H])C([H])([H])C([H])([H])C([H])(n6nc(-c7c([H])c([H])c(Oc8c([H])c([H])c(F)c([H])c8F)c([H])c7[H])c(C(=O)N([H])[H])c6N([H])[H])C5([H])[H])c([H])c4C(N([H])[H])=[N+]([H])[H])C([H])([H])C([H])([H])C3([H])[H])c([H])c([H])c2C1([H])[H]

$$$$
58:0:0
     RDKit          3D

 94103  0  0  1  0  0  0  0  0999 V2000
  -28.6570  -23.6380   20.5640 C   0  0  0  0  0  2  0  0  0  0  0  0
  -29.7230  -23.4040   18.3420 C   0  0  0  0  0  2  0  0  0  0  0  0
  -29.3530  -22.3000   20.9890 C   0  0  0  0  0  2  0  0  0  0  0  0
  -30.3650  -22.0620   18.7980 C   0  0  0  0  0  2  0  0  0  0  0  0
  -29.4510  -24.4280   19.4920 C   0  0  0  0  0  3  0  0  0  0  0  0
  -29.5910  -21.3900   19.8500 N   0  0  0  0  0  0  0  0  0  0  0  0
  -30.9120  -19.2780   19.5800 C   0  0  0  0  0  3  0  0  0  0  0  0
  -31.0650  -17.8640   19.6830 C   0  0  0  0  0  3  0  0  0  0  0  0
  -28.9190  -17.7410   20.7520 C   0  0  0  0  0  3  0  0  0  0  0  0
  -28.7500  -19.1490   20.6420 C   0  0  0  0  0  0  0  0  0  0  0  0
  -29.7540  -19.9720   20.0420 C   0  0  0  0  0  0  0  0  0  0  0  0
  -30.0570  -17.0580   20.2670 C   0  0  0  0  0  0  0  0  0  0  0  0
  -27.4270  -19.7090   21.1410 C   0  0  0  0  0  1  0  0  0  0  0  0
  -30.7230  -14.6390   19.6960 C   0  0  0  0  0  0  0  0  0  0  0  0
  -30.3090  -12.5150   18.4920 C   0  0  0  0  0  2  0  0  0  0  0  0
  -29.2320  -12.7750   17.4160 C   0  0  0  0  0  2  0  0  0  0  0  0
  -27.8130  -12.6260   18.0030 C   0  0  0  0  0  2  0  0  0  0  0  0
  -27.6340  -13.3970   19.3400 C   0  0  0  0  0  3  0  0  0  0  0  0
  -28.8070  -13.1020   20.3030 C   0  0  0  0  0  2  0  0  0  0  0  0
  -30.0620  -13.4450   19.6100 N   0  0  0  0  0  0  0  0  0  0  0  0
  -31.7920  -14.8380   19.1140 O   0  0  0  0  0  0  0  0  0  0  0  0
  -30.0630  -15.6120   20.3790 N   0  0  0  0  0  0  0  0  0  0  0  0
  -29.2980  -15.2360   20.9180 H   0  0  0  0  0  0  0  0  0  0  0  0
  -25.3540  -14.0010   20.3710 C   0  0  0  0  0  0  0  0  0  0  0  0
  -24.3140  -13.2280   20.8090 C   0  0  0  0  0  0  0  0  0  0  0  0
  -24.7280  -11.8720   20.6300 C   0  0  0  0  0  0  0  0  0  0  0  0
  -26.3380  -13.1160   19.9570 N   0  0  0  0  0  0  0  0  0  0  0  0
  -25.9720  -11.8260   20.1700 N   0  0  0  0  0  0  0  0  0  0  0  0
  -23.9920  -10.6150   20.8200 C   0  0  0  0  0  0  0  0  0  0  0  0
  -24.4610   -9.6090   21.6940 C   0  0  0  0  0  3  0  0  0  0  0  0
  -23.7270   -8.4170   21.8720 C   0  0  0  0  0  3  0  0  0  0  0  0
  -22.5100   -8.2210   21.1780 C   0  0  0  0  0  0  0  0  0  0  0  0
  -22.0600   -9.2140   20.2920 C   0  0  0  0  0  3  0  0  0  0  0  0
  -22.7930  -10.3990   20.1110 C   0  0  0  0  0  3  0  0  0  0  0  0
  -21.7440   -7.0850   21.2710 O   0  0  0  0  0  0  0  0  0  0  0  0
  -21.6860   -6.3480   22.4280 C   0  0  0  0  0  0  0  0  0  0  0  0
  -21.2650   -6.9130   23.6510 C   0  0  0  0  0  3  0  0  0  0  0  0
  -21.1520   -6.1030   24.8000 C   0  0  0  0  0  3  0  0  0  0  0  0
  -21.4510   -4.7300   24.7240 C   0  0  0  0  0  0  0  0  0  0  0  0
  -21.8620   -4.1640   23.5050 C   0  0  0  0  0  3  0  0  0  0  0  0
  -21.9760   -4.9710   22.3590 C   0  0  0  0  0  0  0  0  0  0  0  0
  -22.3540   -4.4170   21.1820 F   0  0  0  0  0  0  0  0  0  0  0  0
  -21.3340   -3.9500   25.8250 F   0  0  0  0  0  0  0  0  0  0  0  0
  -22.9700  -13.7130   21.2760 C   0  0  0  0  0  0  0  0  0  0  0  0
  -22.3380  -12.9830   22.1880 N   0  0  0  0  0  0  0  0  0  0  0  0
  -22.4960  -14.7740   20.8700 O   0  0  0  0  0  0  0  0  0  0  0  0
  -22.7340  -12.1250   22.5410 H   0  0  0  0  0  0  0  0  0  0  0  0
  -21.4400  -13.2860   22.5390 H   0  0  0  0  0  0  0  0  0  0  0  0
  -25.5360  -15.3780   20.2690 N   0  0  0  0  0  0  0  0  0  0  0  0
  -24.8100  -16.0390   20.5250 H   0  0  0  0  0  0  0  0  0  0  0  0
  -26.3540  -15.8250   19.8740 H   0  0  0  0  0  0  0  0  0  0  0  0
  -29.4880  -26.3080   17.9270 C   0  0  0  0  0  1  0  0  0  0  0  0
  -28.7330  -25.6420   18.9860 N   0  0  0  0  0  0  0  0  0  0  0  0
  -28.6140  -26.6660   20.0500 O   0  0  0  0  0  0  0  0  0  0  0  0
  -24.5360  -31.7470   23.0850 C   0  0  0  0  0  0  0  0  0  0  0  0
  -27.4220  -27.3990   20.0090 C   0  0  0  0  0  0  0  0  0  0  0  0
  -23.4190  -30.3170   21.4110 C   0  0  0  0  0  3  0  0  0  0  0  0
  -24.9600  -28.8460   19.9990 C   0  0  0  0  0  0  0  0  0  0  0  0
  -25.9390  -30.7640   21.2630 C   0  0  0  0  0  2  0  0  0  0  0  0
  -26.0930  -29.4020   20.6060 C   0  0  0  0  0  0  0  0  0  0  0  0
  -27.3240  -28.6890   20.6030 C   0  0  0  0  0  3  0  0  0  0  0  0
  -26.2510  -26.8670   19.4150 C   0  0  0  0  0  3  0  0  0  0  0  0
  -25.0360  -27.5780   19.4030 C   0  0  0  0  0  3  0  0  0  0  0  0
  -23.6840  -29.6610   20.0310 C   0  0  0  0  0  2  0  0  0  0  0  0
  -24.6480  -30.9590   21.9780 N   0  0  0  0  0  0  0  0  0  0  0  0
  -23.4340  -31.9690   23.6070 O   0  0  0  0  0  0  0  0  0  0  0  0
  -22.7890  -29.2610   22.3500 C   0  0  0  0  0  0  0  0  0  0  0  0
  -21.4780  -29.0180   22.1870 N   0  0  0  0  0  0  0  0  0  0  0  0
  -23.4800  -28.6650   23.1800 O   0  0  0  0  0  0  0  0  0  0  0  0
  -20.9820  -29.5500   21.4870 H   0  0  0  0  0  0  0  0  0  0  0  0
  -18.1530  -27.6520   22.5900 C   0  0  0  0  0  0  0  0  0  0  0  0
  -20.6870  -28.0370   22.9310 C   0  0  0  0  0  3  0  0  0  0  0  0
  -20.8790  -26.6160   22.3530 C   0  0  0  0  0  2  0  0  0  0  0  0
  -19.8200  -26.2410   21.3120 C   0  0  0  0  0  2  0  0  0  0  0  0
  -18.4150  -26.3160   21.9170 C   0  0  0  0  0  2  0  0  0  0  0  0
  -19.2200  -28.4660   23.0530 C   0  0  0  0  0  0  0  0  0  0  0  0
  -18.9230  -29.7170   23.6400 C   0  0  0  0  0  3  0  0  0  0  0  0
  -17.5910  -30.1500   23.7740 C   0  0  0  0  0  3  0  0  0  0  0  0
  -16.5380  -29.3330   23.3280 C   0  0  0  0  0  3  0  0  0  0  0  0
  -16.8200  -28.0870   22.7380 C   0  0  0  0  0  3  0  0  0  0  0  0
  -25.7800  -32.4270   23.7340 C   0  0  0  0  0  3  0  0  0  0  0  0
  -25.4140  -33.8160   24.0410 N   0  0  0  0  0  0  0  0  0  0  0  0
  -25.7290  -34.8750   23.2820 C   0  0  0  0  0  0  0  0  0  0  0  0
  -26.4300  -34.7870   22.2700 O   0  0  0  0  0  0  0  0  0  0  0  0
  -24.7910  -33.9520   24.8240 H   0  0  0  0  0  0  0  0  0  0  0  0
  -23.9440  -36.5980   22.8620 C   0  0  0  0  0  1  0  0  0  0  0  0
  -25.1750  -36.2470   23.7130 C   0  0  0  0  0  3  0  0  0  0  0  0
  -27.2660  -37.2030   24.5790 C   0  0  0  0  0  1  0  0  0  0  0  0
  -26.1640  -37.3440   23.6310 N   0  0  0  0  0  0  0  0  0  0  0  0
  -25.7150  -38.2400   23.8070 H   0  0  0  0  0  0  0  0  0  0  0  0
  -26.2800  -31.6860   25.0340 C   0  0  1  0  0  0  0  0  0  0  0  0
  -25.1640  -31.4240   26.0730 C   0  0  0  0  0  1  0  0  0  0  0  0
  -26.9190  -30.3240   24.6740 C   0  0  0  0  0  1  0  0  0  0  0  0
  -27.3820  -32.5240   25.7210 C   0  0  0  0  0  1  0  0  0  0  0  0
  1  3  1  0
  2  4  1  0
  2  5  1  0
  4  6  1  0
  5 53  1  0
  5  1  1  0
  6 11  1  0
  6  3  1  0
  7  8  2  0
  7 11  1  0
  8 12  1  0
 10  9  1  0
 10 13  1  0
 11 10  2  0
 12 22  1  0
 12  9  2  0
 14 22  1  0
 15 20  1  0
 16 17  1  0
 16 15  1  0
 18 17  1  0
 18 27  1  0
 18 19  1  0
 20 14  1  0
 20 19  1  0
 21 14  2  0
 22 23  1  0
 24 25  2  0
 25 44  1  0
 26 25  1  0
 26 29  1  0
 27 28  1  0
 27 24  1  0
 28 26  2  0
 29 30  1  0
 30 31  2  0
 32 35  1  0
 32 31  1  0
 33 32  2  0
 34 33  1  0
 34 29  2  0
 35 36  1  0
 36 37  1  0
 37 38  2  0
 39 38  1  0
 39 43  1  0
 40 39  2  0
 41 36  2  0
 41 40  1  0
 42 41  1  0
 44 45  1  0
 45 48  1  0
 45 47  1  0
 46 44  2  0
 49 24  1  0
 49 50  1  0
 51 49  1  0
 52 53  1  0
 53 54  1  0
 55 66  2  0
 56 54  1  0
 56 61  1  0
 57 65  1  0
 57 67  1  0
 58 64  1  0
 58 60  1  0
 59 65  1  0
 60 59  1  0
 61 60  2  0
 62 56  2  0
 63 62  1  0
 63 58  2  0
 64 57  1  0
 65 55  1  0
 67 69  2  0
 68 67  1  0
 70 68  1  0
 71 80  2  0
 71 76  1  0
 72 68  1  0
 72 76  1  0
 73 72  1  0
 74 75  1  0
 74 73  1  0
 75 71  1  0
 76 77  2  0
 77 78  1  0
 79 78  2  0
 80 79  1  0
 81 55  1  0
 81 82  1  0
 81 91  1  0
 82 85  1  0
 83 87  1  0
 83 82  1  0
 84 83  2  0
 87 86  1  0
 89 87  1  0
 89 90  1  0
 89 88  1  0
 91 94  1  1
 91 92  1  0
 93 91  1  0
M  ISO  4  14 100  22 100  53 101  54 101
M  END
>  <TORSDO>  (59) 
F 18

>  <SCORE>  (59) 
-11.924

>  <name>  (59) 
58

>  <ligand_id>  (59) 
58

>  <original_smiles>  (59) 
[H]c1c([H])c([H])c2c(c1[H])C([H])([H])C([H])([H])C([H])([H])C2([H])N([H])C(=O)C1([H])N(C(=O)C([H])(N([H])C(=O)C([H])(N([H])C([H])([H])[H])C([H])([H])[H])C(C([H])([H])[H])(C([H])([H])[H])C([H])([H])[H])C([H])([H])c2c([H])c(ON(C([H])([H])[H])C3([H])C([H])([H])C([H])([H])N(c4c([H])c([H])c(N([H])C(=O)N5C([H])([H])C([H])([H])C([H])([H])C([H])(n6nc(-c7c([H])c([H])c(Oc8c([H])c([H])c(F)c([H])c8F)c([H])c7[H])c(C(=O)N([H])[H])c6N([H])[H])C5([H])[H])c([H])c4C([H])([H])[H])C([H])([H])C3([H])[H])c([H])c([H])c2C1([H])[H]

>  <smiles>  (59) 
[H]c1c([H])c([H])c2c(c1[H])C([H])([H])C([H])([H])C([H])([H])C2([H])N([H])C(=O)C1([H])N(C(=O)C([H])(N([H])C(=O)C([H])(N([H])C([H])([H])[H])C([H])([H])[H])C(C([H])([H])[H])(C([H])([H])[H])C([H])([H])[H])C([H])([H])c2c([H])c(ON(C([H])([H])[H])C3([H])C([H])([H])C([H])([H])N(c4c([H])c([H])c(N([H])C(=O)N5C([H])([H])C([H])([H])C([H])([H])C([H])(n6nc(-c7c([H])c([H])c(Oc8c([H])c([H])c(F)c([H])c8F)c([H])c7[H])c(C(=O)N([H])[H])c6N([H])[H])C5([H])[H])c([H])c4C([H])([H])[H])C([H])([H])C3([H])[H])c([H])c([H])c2C1([H])[H]

$$$$
59:0:0
     RDKit          3D

 92101  0  0  1  0  0  0  0  0999 V2000
  -30.7030  -14.7150   20.3690 C   0  0  0  0  0  0  0  0  0  0  0  0
  -30.4350  -12.4480   19.3730 C   0  0  0  0  0  2  0  0  0  0  0  0
  -29.5230  -12.5390   18.1320 C   0  0  0  0  0  2  0  0  0  0  0  0
  -28.0440  -12.4040   18.5410 C   0  0  0  0  0  2  0  0  0  0  0  0
  -27.6690  -13.3110   19.7450 C   0  0  0  0  0  3  0  0  0  0  0  0
  -28.7090  -13.2230   20.8830 C   0  0  0  0  0  2  0  0  0  0  0  0
  -30.0190  -13.5250   20.2970 N   0  0  0  0  0  0  0  0  0  0  0  0
  -31.9020  -14.7450   20.0720 O   0  0  0  0  0  0  0  0  0  0  0  0
  -30.0400  -19.2040   18.2580 C   0  0  0  0  0  2  0  0  0  0  0  0
  -29.8170  -20.6020   18.3210 C   0  0  0  0  0  3  0  0  0  0  0  0
  -29.1430  -20.4050   20.6260 C   0  0  0  0  0  3  0  0  0  0  0  0
  -29.8190  -18.3610   19.3700 C   0  0  0  0  0  0  0  0  0  0  0  0
  -29.3730  -18.9720   20.5590 C   0  0  0  0  0  0  0  0  0  0  0  0
  -29.3580  -21.2610   19.4890 C   0  0  0  0  0  0  0  0  0  0  0  0
  -29.1170  -18.0060   21.7180 C   0  0  0  0  0  3  0  0  0  0  0  0
  -30.0440  -16.8190   19.2320 C   0  0  0  0  0  3  0  0  0  0  0  0
  -29.9670  -16.6800   21.6940 C   0  0  0  0  0  3  0  0  0  0  0  0
  -29.9860  -15.9080   20.4260 N   0  0  0  0  0  0  0  0  0  0  0  0
  -25.2790  -13.9420   20.4230 C   0  0  0  0  0  0  0  0  0  0  0  0
  -24.1970  -13.1860   20.7860 C   0  0  0  0  0  0  0  0  0  0  0  0
  -24.6440  -11.8300   20.7870 C   0  0  0  0  0  0  0  0  0  0  0  0
  -26.3150  -13.0460   20.2200 N   0  0  0  0  0  0  0  0  0  0  0  0
  -25.9400  -11.7720   20.5030 N   0  0  0  0  0  0  0  0  0  0  0  0
  -23.8990  -10.5790   20.9850 C   0  0  0  0  0  0  0  0  0  0  0  0
  -24.3100   -9.6150   21.9330 C   0  0  0  0  0  3  0  0  0  0  0  0
  -23.5650   -8.4310   22.1180 C   0  0  0  0  0  3  0  0  0  0  0  0
  -22.3960   -8.2010   21.3550 C   0  0  0  0  0  0  0  0  0  0  0  0
  -22.0040   -9.1530   20.3980 C   0  0  0  0  0  3  0  0  0  0  0  0
  -22.7490  -10.3290   20.2100 C   0  0  0  0  0  3  0  0  0  0  0  0
  -21.6230   -7.0680   21.4500 O   0  0  0  0  0  0  0  0  0  0  0  0
  -21.5580   -6.3360   22.6080 C   0  0  0  0  0  0  0  0  0  0  0  0
  -21.1430   -6.9100   23.8300 C   0  0  0  0  0  3  0  0  0  0  0  0
  -21.0220   -6.1060   24.9810 C   0  0  0  0  0  3  0  0  0  0  0  0
  -21.3060   -4.7290   24.9120 C   0  0  0  0  0  0  0  0  0  0  0  0
  -21.7150   -4.1550   23.6950 C   0  0  0  0  0  3  0  0  0  0  0  0
  -21.8370   -4.9560   22.5460 C   0  0  0  0  0  0  0  0  0  0  0  0
  -22.2100   -4.3930   21.3710 F   0  0  0  0  0  0  0  0  0  0  0  0
  -21.1840   -3.9540   26.0150 F   0  0  0  0  0  0  0  0  0  0  0  0
  -22.8010  -13.6850   21.0230 C   0  0  0  0  0  0  0  0  0  0  0  0
  -22.0500  -13.0140   21.8890 N   0  0  0  0  0  0  0  0  0  0  0  0
  -22.3850  -14.7040   20.4740 O   0  0  0  0  0  0  0  0  0  0  0  0
  -22.4000  -12.1900   22.3550 H   0  0  0  0  0  0  0  0  0  0  0  0
  -21.1130  -13.3310   22.0910 H   0  0  0  0  0  0  0  0  0  0  0  0
  -25.4650  -15.3080   20.2280 N   0  0  0  0  0  0  0  0  0  0  0  0
  -24.7090  -15.9770   20.3220 H   0  0  0  0  0  0  0  0  0  0  0  0
  -26.3360  -15.7320   19.9330 H   0  0  0  0  0  0  0  0  0  0  0  0
  -28.8020  -23.8100   20.0810 C   0  0  0  0  0  0  0  0  0  0  0  0
  -29.1540  -22.7160   19.3220 N   0  0  0  0  0  0  0  0  0  0  0  0
  -28.5510  -23.7320   21.2870 O   0  0  0  0  0  0  0  0  0  0  0  0
  -29.3340  -23.0120   18.3720 H   0  0  0  0  0  0  0  0  0  0  0  0
  -28.7300  -25.2160   19.3150 C   0  0  0  0  0  2  0  0  0  0  0  0
  -28.5460  -26.4830   20.0850 O   0  0  0  0  0  0  0  0  0  0  0  0
  -24.5650  -31.7360   23.0580 C   0  0  0  0  0  0  0  0  0  0  0  0
  -27.3910  -27.2880   19.9920 C   0  0  0  0  0  0  0  0  0  0  0  0
  -23.4430  -30.3170   21.3800 C   0  0  0  0  0  3  0  0  0  0  0  0
  -24.9710  -28.8340   19.9600 C   0  0  0  0  0  0  0  0  0  0  0  0
  -25.9740  -30.7190   21.2500 C   0  0  0  0  0  2  0  0  0  0  0  0
  -26.1130  -29.3510   20.5870 C   0  0  0  0  0  0  0  0  0  0  0  0
  -27.3200  -28.5870   20.5950 C   0  0  0  0  0  3  0  0  0  0  0  0
  -26.2160  -26.8230   19.3580 C   0  0  0  0  0  3  0  0  0  0  0  0
  -25.0260  -27.5780   19.3400 C   0  0  0  0  0  3  0  0  0  0  0  0
  -23.7050  -29.6680   19.9960 C   0  0  0  0  0  2  0  0  0  0  0  0
  -24.6790  -30.9420   21.9530 N   0  0  0  0  0  0  0  0  0  0  0  0
  -23.4630  -31.9700   23.5740 O   0  0  0  0  0  0  0  0  0  0  0  0
  -22.7980  -29.2660   22.3150 C   0  0  0  0  0  0  0  0  0  0  0  0
  -21.4740  -29.0740   22.1880 N   0  0  0  0  0  0  0  0  0  0  0  0
  -23.4880  -28.6290   23.1150 O   0  0  0  0  0  0  0  0  0  0  0  0
  -20.9750  -29.6410   21.5170 H   0  0  0  0  0  0  0  0  0  0  0  0
  -18.1090  -27.8440   22.6960 C   0  0  0  0  0  0  0  0  0  0  0  0
  -20.6700  -28.1060   22.9380 C   0  0  0  0  0  3  0  0  0  0  0  0
  -20.7700  -26.6960   22.3110 C   0  0  0  0  0  2  0  0  0  0  0  0
  -19.6550  -26.4040   21.3020 C   0  0  0  0  0  2  0  0  0  0  0  0
  -18.2820  -26.5190   21.9690 C   0  0  0  0  0  2  0  0  0  0  0  0
  -19.2300  -28.5960   23.1360 C   0  0  0  0  0  0  0  0  0  0  0  0
  -19.0140  -29.8360   23.7760 C   0  0  0  0  0  3  0  0  0  0  0  0
  -17.7090  -30.3240   23.9770 C   0  0  0  0  0  3  0  0  0  0  0  0
  -16.6020  -29.5680   23.5520 C   0  0  0  0  0  3  0  0  0  0  0  0
  -16.8040  -28.3290   22.9170 C   0  0  0  0  0  3  0  0  0  0  0  0
  -25.8130  -32.4060   23.7120 C   0  0  0  0  0  3  0  0  0  0  0  0
  -25.4370  -33.7790   24.0820 N   0  0  0  0  0  0  0  0  0  0  0  0
  -25.7240  -34.8680   23.3560 C   0  0  0  0  0  0  0  0  0  0  0  0
  -26.4000  -34.8270   22.3250 O   0  0  0  0  0  0  0  0  0  0  0  0
  -24.8330  -33.8820   24.8840 H   0  0  0  0  0  0  0  0  0  0  0  0
  -23.9120  -36.5870   23.0550 C   0  0  0  0  0  1  0  0  0  0  0  0
  -25.1720  -36.2190   23.8540 C   0  0  0  0  0  3  0  0  0  0  0  0
  -27.2650  -37.1790   24.7060 C   0  0  0  0  0  1  0  0  0  0  0  0
  -26.1540  -37.3230   23.7700 N   0  0  0  0  0  0  0  0  0  0  0  0
  -25.7050  -38.2180   23.9470 H   0  0  0  0  0  0  0  0  0  0  0  0
  -26.3500  -31.6210   24.9720 C   0  0  1  0  0  0  0  0  0  0  0  0
  -25.2580  -31.3090   26.0230 C   0  0  0  0  0  1  0  0  0  0  0  0
  -26.9920  -30.2800   24.5490 C   0  0  0  0  0  1  0  0  0  0  0  0
  -27.4610  -32.4430   25.6660 C   0  0  0  0  0  1  0  0  0  0  0  0
  1 18  1  0
  2  7  1  0
  3  4  1  0
  3  2  1  0
  5  4  1  0
  5 22  1  0
  5  6  1  0
  7  1  1  0
  7  6  1  0
  8  1  2  0
  9 10  1  0
  9 12  1  0
 10 14  2  0
 12 13  1  0
 13 11  2  0
 13 15  1  0
 14 11  1  0
 16 12  2  0
 16 18  1  0
 17 15  2  0
 18 17  1  0
 19 20  2  0
 20 21  1  0
 20 39  1  0
 21 24  1  0
 22 19  1  0
 22 23  1  0
 23 21  2  0
 24 25  1  0
 25 26  2  0
 27 30  1  0
 27 26  1  0
 28 27  2  0
 29 28  1  0
 29 24  2  0
 30 31  1  0
 31 32  1  0
 32 33  2  0
 34 33  1  0
 34 38  1  0
 35 34  2  0
 36 31  2  0
 36 35  1  0
 37 36  1  0
 39 40  1  0
 40 43  1  0
 40 42  1  0
 41 39  2  0
 44 45  1  0
 44 19  1  0
 46 44  1  0
 47 49  2  0
 48 14  1  0
 48 47  1  0
 50 48  1  0
 51 47  1  0
 51 52  1  0
 53 64  2  0
 54 52  1  0
 54 59  1  0
 55 63  1  0
 55 65  1  0
 56 62  1  0
 56 58  1  0
 57 63  1  0
 58 59  2  0
 58 57  1  0
 60 54  2  0
 61 60  1  0
 61 56  2  0
 62 55  1  0
 63 53  1  0
 65 67  2  0
 66 65  1  0
 68 66  1  0
 69 78  2  0
 69 74  1  0
 70 66  1  0
 70 74  1  0
 71 70  1  0
 72 73  1  0
 72 71  1  0
 73 69  1  0
 74 75  2  0
 75 76  1  0
 77 76  2  0
 78 77  1  0
 79 53  1  0
 79 80  1  0
 79 89  1  0
 80 83  1  0
 81 85  1  0
 81 80  1  0
 82 81  2  0
 85 84  1  0
 87 85  1  0
 87 88  1  0
 87 86  1  0
 89 92  1  1
 89 90  1  0
 91 89  1  0
M  ISO  4   1 100  18 100  51 101  52 101
M  END
>  <TORSDO>  (60) 
F 17

>  <SCORE>  (60) 
-14.054

>  <name>  (60) 
59

>  <ligand_id>  (60) 
59

>  <original_smiles>  (60) 
[H]c1c([H])c([H])c2c(c1[H])C([H])([H])C([H])([H])C([H])([H])C2([H])N([H])C(=O)C1([H])N(C(=O)C([H])(N([H])C(=O)C([H])(N([H])C([H])([H])[H])C([H])([H])[H])C(C([H])([H])[H])(C([H])([H])[H])C([H])([H])[H])C([H])([H])c2c([H])c(OC([H])([H])C(=O)N([H])c3c([H])c([H])c4c(c3[H])C([H])([H])C([H])([H])N(C(=O)N3C([H])([H])C([H])([H])C([H])([H])C([H])(n5nc(-c6c([H])c([H])c(Oc7c([H])c([H])c(F)c([H])c7F)c([H])c6[H])c(C(=O)N([H])[H])c5N([H])[H])C3([H])[H])C4([H])[H])c([H])c([H])c2C1([H])[H]

>  <smiles>  (60) 
[H]c1c([H])c([H])c2c(c1[H])C([H])([H])C([H])([H])C([H])([H])C2([H])N([H])C(=O)C1([H])N(C(=O)C([H])(N([H])C(=O)C([H])(N([H])C([H])([H])[H])C([H])([H])[H])C(C([H])([H])[H])(C([H])([H])[H])C([H])([H])[H])C([H])([H])c2c([H])c(OC([H])([H])C(=O)N([H])c3c([H])c([H])c4c(c3[H])C([H])([H])C([H])([H])N(C(=O)N3C([H])([H])C([H])([H])C([H])([H])C([H])(n5nc(-c6c([H])c([H])c(Oc7c([H])c([H])c(F)c([H])c7F)c([H])c6[H])c(C(=O)N([H])[H])c5N([H])[H])C3([H])[H])C4([H])[H])c([H])c([H])c2C1([H])[H]

$$$$
60:0:0
     RDKit          3D

 97106  0  0  1  0  0  0  0  0999 V2000
  -28.8570  -20.4940   20.2850 C   0  0  0  0  0  3  0  0  0  0  0  0
  -30.5540  -22.2120   20.4820 C   0  0  0  0  0  3  0  0  0  0  0  0
  -29.2010  -21.8740   20.2480 C   0  0  0  0  0  0  0  0  0  0  0  0
  -29.8310  -19.4970   20.5500 C   0  0  0  0  0  3  0  0  0  0  0  0
  -31.4950  -21.1910   20.7600 C   0  0  0  0  0  0  0  0  0  0  0  0
  -31.1010  -19.8950   20.7930 N   0  0  0  0  0  0  0  0  0  0  0  0
  -31.7970  -19.1730   21.0080 H   0  0  0  0  0  0  0  0  0  0  0  0
  -30.7220  -14.5200   19.9930 C   0  0  0  0  0  0  0  0  0  0  0  0
  -30.3180  -12.4010   18.7750 C   0  0  0  0  0  2  0  0  0  0  0  0
  -29.2770  -12.6250   17.6580 C   0  0  0  0  0  2  0  0  0  0  0  0
  -27.8390  -12.4880   18.2010 C   0  0  0  0  0  2  0  0  0  0  0  0
  -27.6150  -13.2690   19.5240 C   0  0  0  0  0  3  0  0  0  0  0  0
  -28.7570  -12.9750   20.5200 C   0  0  0  0  0  2  0  0  0  0  0  0
  -30.0180  -13.3520   19.8650 N   0  0  0  0  0  0  0  0  0  0  0  0
  -31.8210  -14.6560   19.4440 O   0  0  0  0  0  0  0  0  0  0  0  0
  -29.5070  -17.3670   22.0160 C   0  0  0  0  0  2  0  0  0  0  0  0
  -29.4310  -15.8570   21.7130 C   0  0  0  0  0  2  0  0  0  0  0  0
  -30.3380  -16.9880   19.8300 C   0  0  0  0  0  2  0  0  0  0  0  0
  -29.4800  -17.9940   20.6310 C   0  0  0  0  0  3  0  0  0  0  0  0
  -30.0450  -15.6420   20.3910 N   0  0  0  0  0  0  0  0  0  0  0  0
  -25.2760  -13.8670   20.4160 C   0  0  0  0  0  0  0  0  0  0  0  0
  -24.2340  -13.0910   20.8460 C   0  0  0  0  0  0  0  0  0  0  0  0
  -24.6830  -11.7380   20.7480 C   0  0  0  0  0  0  0  0  0  0  0  0
  -26.2980  -12.9880   20.0930 N   0  0  0  0  0  0  0  0  0  0  0  0
  -25.9480  -11.7020   20.3490 N   0  0  0  0  0  0  0  0  0  0  0  0
  -23.9650  -10.4750   20.9630 C   0  0  0  0  0  0  0  0  0  0  0  0
  -24.4370   -9.5040   21.8730 C   0  0  0  0  0  3  0  0  0  0  0  0
  -23.7200   -8.3040   22.0750 C   0  0  0  0  0  3  0  0  0  0  0  0
  -22.5170   -8.0680   21.3680 C   0  0  0  0  0  0  0  0  0  0  0  0
  -22.0660   -9.0270   20.4440 C   0  0  0  0  0  3  0  0  0  0  0  0
  -22.7840  -10.2170   20.2390 C   0  0  0  0  0  3  0  0  0  0  0  0
  -21.7690   -6.9200   21.4810 O   0  0  0  0  0  0  0  0  0  0  0  0
  -21.7330   -6.1970   22.6460 C   0  0  0  0  0  0  0  0  0  0  0  0
  -21.3220   -6.7720   23.8690 C   0  0  0  0  0  3  0  0  0  0  0  0
  -21.2330   -5.9750   25.0280 C   0  0  0  0  0  3  0  0  0  0  0  0
  -21.5450   -4.6030   24.9660 C   0  0  0  0  0  0  0  0  0  0  0  0
  -21.9490   -4.0280   23.7480 C   0  0  0  0  0  3  0  0  0  0  0  0
  -22.0400   -4.8220   22.5920 C   0  0  0  0  0  0  0  0  0  0  0  0
  -22.4090   -4.2570   21.4160 F   0  0  0  0  0  0  0  0  0  0  0  0
  -21.4530   -3.8350   26.0770 F   0  0  0  0  0  0  0  0  0  0  0  0
  -22.8610  -13.5660   21.2290 C   0  0  0  0  0  0  0  0  0  0  0  0
  -22.2030  -12.8650   22.1480 N   0  0  0  0  0  0  0  0  0  0  0  0
  -22.3810  -14.5930   20.7510 O   0  0  0  0  0  0  0  0  0  0  0  0
  -22.6040  -12.0330   22.5560 H   0  0  0  0  0  0  0  0  0  0  0  0
  -21.2880  -13.1640   22.4490 H   0  0  0  0  0  0  0  0  0  0  0  0
  -25.4360  -15.2400   20.2550 N   0  0  0  0  0  0  0  0  0  0  0  0
  -24.7000  -15.9040   20.4670 H   0  0  0  0  0  0  0  0  0  0  0  0
  -26.2560  -15.6740   19.8510 H   0  0  0  0  0  0  0  0  0  0  0  0
  -32.8360  -21.4780   21.0100 N   0  0  0  0  0  0  0  0  0  0  0  0
  -33.1970  -22.4160   20.9520 H   0  0  0  0  0  0  0  0  0  0  0  0
  -33.5190  -20.7720   21.2280 H   0  0  0  0  0  0  0  0  0  0  0  0
  -28.1860  -22.8350   20.0040 N   0  0  0  0  0  0  0  0  0  0  0  0
  -27.2750  -22.4490   19.7770 H   0  0  0  0  0  0  0  0  0  0  0  0
  -28.4000  -24.2190   19.5320 C   0  0  0  0  0  2  0  0  0  0  0  0
  -27.5890  -25.0940   21.8520 C   0  0  0  0  0  1  0  0  0  0  0  0
  -28.5200  -25.3120   20.6430 C   0  0  0  0  0  3  0  0  0  0  0  0
  -28.5140  -26.6880   20.1650 O   0  0  0  0  0  0  0  0  0  0  0  0
  -24.6460  -31.8610   23.2190 C   0  0  0  0  0  0  0  0  0  0  0  0
  -27.3350  -27.4160   20.1490 C   0  0  0  0  0  0  0  0  0  0  0  0
  -23.4570  -30.4360   21.5830 C   0  0  0  0  0  3  0  0  0  0  0  0
  -24.9270  -28.9130   20.1580 C   0  0  0  0  0  0  0  0  0  0  0  0
  -25.9810  -30.8180   21.3880 C   0  0  0  0  0  2  0  0  0  0  0  0
  -26.0810  -29.4480   20.7430 C   0  0  0  0  0  0  0  0  0  0  0  0
  -27.2890  -28.7090   20.7290 C   0  0  0  0  0  3  0  0  0  0  0  0
  -26.1630  -26.9040   19.5490 C   0  0  0  0  0  3  0  0  0  0  0  0
  -24.9640  -27.6430   19.5570 C   0  0  0  0  0  3  0  0  0  0  0  0
  -23.6740  -29.7550   20.2060 C   0  0  0  0  0  2  0  0  0  0  0  0
  -24.7120  -31.0570   22.1210 N   0  0  0  0  0  0  0  0  0  0  0  0
  -23.5620  -32.1190   23.7620 O   0  0  0  0  0  0  0  0  0  0  0  0
  -22.8200  -29.4100   22.5490 C   0  0  0  0  0  0  0  0  0  0  0  0
  -21.4980  -29.2120   22.4230 N   0  0  0  0  0  0  0  0  0  0  0  0
  -23.5100  -28.8000   23.3690 O   0  0  0  0  0  0  0  0  0  0  0  0
  -21.0070  -29.7610   21.7310 H   0  0  0  0  0  0  0  0  0  0  0  0
  -18.1370  -27.9750   22.9140 C   0  0  0  0  0  0  0  0  0  0  0  0
  -20.6910  -28.2660   23.1930 C   0  0  0  0  0  3  0  0  0  0  0  0
  -20.8150  -26.8350   22.6210 C   0  0  0  0  0  2  0  0  0  0  0  0
  -19.7210  -26.4920   21.6070 C   0  0  0  0  0  2  0  0  0  0  0  0
  -18.3360  -26.6230   22.2460 C   0  0  0  0  0  2  0  0  0  0  0  0
  -19.2450  -28.7510   23.3440 C   0  0  0  0  0  0  0  0  0  0  0  0
  -19.0100  -30.0150   23.9280 C   0  0  0  0  0  3  0  0  0  0  0  0
  -17.6990  -30.5000   24.0920 C   0  0  0  0  0  3  0  0  0  0  0  0
  -16.6050  -29.7190   23.6810 C   0  0  0  0  0  3  0  0  0  0  0  0
  -16.8240  -28.4590   23.0960 C   0  0  0  0  0  3  0  0  0  0  0  0
  -25.9260  -32.5060   23.8380 C   0  0  0  0  0  3  0  0  0  0  0  0
  -26.4630  -31.7390   25.1080 C   0  0  1  0  0  0  0  0  0  0  0  0
  -25.3780  -31.4790   26.1810 C   0  0  0  0  0  1  0  0  0  0  0  0
  -27.0670  -30.3750   24.7010 C   0  0  0  0  0  1  0  0  0  0  0  0
  -27.6010  -32.5510   25.7700 C   0  0  0  0  0  1  0  0  0  0  0  0
  -25.5990  -33.8980   24.1760 N   0  0  0  0  0  0  0  0  0  0  0  0
  -25.9070  -34.9590   23.4180 C   0  0  0  0  0  0  0  0  0  0  0  0
  -26.5700  -34.8700   22.3790 O   0  0  0  0  0  0  0  0  0  0  0  0
  -25.0150  -34.0400   24.9870 H   0  0  0  0  0  0  0  0  0  0  0  0
  -24.1480  -36.7210   23.0800 C   0  0  0  0  0  1  0  0  0  0  0  0
  -25.4000  -36.3360   23.8840 C   0  0  0  0  0  3  0  0  0  0  0  0
  -27.5260  -37.2550   24.7040 C   0  0  0  0  0  1  0  0  0  0  0  0
  -26.4130  -37.4080   23.7680 N   0  0  0  0  0  0  0  0  0  0  0  0
  -25.9930  -38.3200   23.9230 H   0  0  0  0  0  0  0  0  0  0  0  0
  2  5  2  0
  3  1  2  0
  3  2  1  0
  4  1  1  0
  4 19  1  0
  4  6  1  0
  5  6  1  0
  5 49  1  0
  6  7  1  0
  8 20  1  0
  9 14  1  0
 10 11  1  0
 10  9  1  0
 12 11  1  0
 12 24  1  0
 12 13  1  0
 14  8  1  0
 14 13  1  0
 15  8  2  0
 17 16  1  0
 18 20  1  0
 19 18  1  0
 19 16  1  0
 20 17  1  0
 21 22  2  0
 22 41  1  0
 23 22  1  0
 23 26  1  0
 24 25  1  0
 24 21  1  0
 25 23  2  0
 26 27  1  0
 27 28  2  0
 29 32  1  0
 29 28  1  0
 30 29  2  0
 31 30  1  0
 31 26  2  0
 32 33  1  0
 33 34  1  0
 34 35  2  0
 36 35  1  0
 36 40  1  0
 37 36  2  0
 38 33  2  0
 38 37  1  0
 39 38  1  0
 41 42  1  0
 42 45  1  0
 42 44  1  0
 43 41  2  0
 46 21  1  0
 46 47  1  0
 48 46  1  0
 49 51  1  0
 50 49  1  0
 52  3  1  0
 53 52  1  0
 54 52  1  0
 54 56  1  0
 56 55  1  0
 57 56  1  0
 58 69  2  0
 59 57  1  0
 59 64  1  0
 60 68  1  0
 60 70  1  0
 61 67  1  0
 61 63  1  0
 62 68  1  0
 63 62  1  0
 64 63  2  0
 65 66  1  0
 65 59  2  0
 66 61  2  0
 67 60  1  0
 68 58  1  0
 70 72  2  0
 71 70  1  0
 73 71  1  0
 74 83  2  0
 74 79  1  0
 75 71  1  0
 75 79  1  0
 76 75  1  0
 77 78  1  0
 77 76  1  0
 78 74  1  0
 79 80  2  0
 80 81  1  0
 82 81  2  0
 83 82  1  0
 84 58  1  0
 84 89  1  0
 84 85  1  0
 85 88  1  1
 85 86  1  0
 87 85  1  0
 89 92  1  0
 90 94  1  0
 90 89  1  0
 91 90  2  0
 94 93  1  0
 96 94  1  0
 96 97  1  0
 96 95  1  0
M  ISO  4   8 100  20 100  56 101  57 101
M  END
>  <TORSDO>  (61) 
F 20

>  <SCORE>  (61) 
-13.199

>  <name>  (61) 
60

>  <ligand_id>  (61) 
60

>  <original_smiles>  (61) 
[H]c1c([H])c([H])c2c(c1[H])C([H])([H])C([H])([H])C([H])([H])C2([H])N([H])C(=O)C1([H])N(C(=O)C([H])(N([H])C(=O)C([H])(N([H])C([H])([H])[H])C([H])([H])[H])C(C([H])([H])[H])(C([H])([H])[H])C([H])([H])[H])C([H])([H])c2c([H])c(OC([H])(C([H])([H])[H])C([H])([H])N([H])c3c([H])c(N([H])[H])[n+]([H])c(C4([H])C([H])([H])N(C(=O)N5C([H])([H])C([H])([H])C([H])([H])C([H])(n6nc(-c7c([H])c([H])c(Oc8c([H])c([H])c(F)c([H])c8F)c([H])c7[H])c(C(=O)N([H])[H])c6N([H])[H])C5([H])[H])C([H])([H])C4([H])[H])c3[H])c([H])c([H])c2C1([H])[H]

>  <smiles>  (61) 
[H]c1c([H])c([H])c2c(c1[H])C([H])([H])C([H])([H])C([H])([H])C2([H])N([H])C(=O)C1([H])N(C(=O)C([H])(N([H])C(=O)C([H])(N([H])C([H])([H])[H])C([H])([H])[H])C(C([H])([H])[H])(C([H])([H])[H])C([H])([H])[H])C([H])([H])c2c([H])c(OC([H])(C([H])([H])[H])C([H])([H])N([H])c3c([H])c(N([H])[H])[n+]([H])c(C4([H])C([H])([H])N(C(=O)N5C([H])([H])C([H])([H])C([H])([H])C([H])(n6nc(-c7c([H])c([H])c(Oc8c([H])c([H])c(F)c([H])c8F)c([H])c7[H])c(C(=O)N([H])[H])c6N([H])[H])C5([H])[H])C([H])([H])C4([H])[H])c3[H])c([H])c([H])c2C1([H])[H]

$$$$
61:0:0
     RDKit          3D

 92100  0  0  1  0  0  0  0  0999 V2000
  -28.3590  -21.6200   20.5020 C   0  0  0  0  0  3  0  0  0  0  0  0
  -28.7350  -18.7480   20.4110 C   0  0  0  0  0  3  0  0  0  0  0  0
  -30.5700  -19.8830   20.1470 C   0  0  0  0  0  3  0  0  0  0  0  0
  -29.2260  -20.1620   20.3340 C   0  0  0  0  0  0  0  0  0  0  0  0
  -29.7460  -17.7540   20.2800 C   0  0  0  0  0  0  0  0  0  0  0  0
  -30.8890  -18.5010   20.1080 O   0  0  0  0  0  0  0  0  0  0  0  0
  -30.4600  -15.1340   20.1130 C   0  0  0  0  0  0  0  0  0  0  0  0
  -30.3500  -12.7690   19.1500 C   0  0  0  0  0  2  0  0  0  0  0  0
  -29.3630  -12.7020   17.9590 C   0  0  0  0  0  2  0  0  0  0  0  0
  -27.9230  -12.4650   18.4510 C   0  0  0  0  0  2  0  0  0  0  0  0
  -27.5550  -13.3790   19.6490 C   0  0  0  0  0  3  0  0  0  0  0  0
  -28.6570  -13.3980   20.7300 C   0  0  0  0  0  2  0  0  0  0  0  0
  -29.8910  -13.8530   20.0730 N   0  0  0  0  0  0  0  0  0  0  0  0
  -31.6510  -15.2080   19.7830 O   0  0  0  0  0  0  0  0  0  0  0  0
  -29.6390  -16.2970   20.3300 N   0  0  0  0  0  0  0  0  0  0  0  0
  -28.7020  -16.0000   20.5530 H   0  0  0  0  0  0  0  0  0  0  0  0
  -25.2140  -13.9400   20.5080 C   0  0  0  0  0  0  0  0  0  0  0  0
  -24.1660  -13.1590   20.9070 C   0  0  0  0  0  0  0  0  0  0  0  0
  -24.6240  -11.8080   20.8230 C   0  0  0  0  0  0  0  0  0  0  0  0
  -26.2410  -13.0660   20.1990 N   0  0  0  0  0  0  0  0  0  0  0  0
  -25.9000  -11.7780   20.4550 N   0  0  0  0  0  0  0  0  0  0  0  0
  -23.9020  -10.5430   21.0120 C   0  0  0  0  0  0  0  0  0  0  0  0
  -24.3480   -9.5680   21.9290 C   0  0  0  0  0  3  0  0  0  0  0  0
  -23.6250   -8.3690   22.1090 C   0  0  0  0  0  3  0  0  0  0  0  0
  -22.4400   -8.1380   21.3710 C   0  0  0  0  0  0  0  0  0  0  0  0
  -22.0110   -9.1030   20.4420 C   0  0  0  0  0  3  0  0  0  0  0  0
  -22.7360  -10.2930   20.2610 C   0  0  0  0  0  3  0  0  0  0  0  0
  -21.6860   -6.9940   21.4620 O   0  0  0  0  0  0  0  0  0  0  0  0
  -21.6240   -6.2600   22.6200 C   0  0  0  0  0  0  0  0  0  0  0  0
  -21.1550   -6.8160   23.8300 C   0  0  0  0  0  3  0  0  0  0  0  0
  -21.0440   -6.0100   24.9790 C   0  0  0  0  0  3  0  0  0  0  0  0
  -21.3910   -4.6470   24.9200 C   0  0  0  0  0  0  0  0  0  0  0  0
  -21.8540   -4.0900   23.7140 C   0  0  0  0  0  3  0  0  0  0  0  0
  -21.9670   -4.8940   22.5670 C   0  0  0  0  0  0  0  0  0  0  0  0
  -22.3930   -4.3470   21.4030 F   0  0  0  0  0  0  0  0  0  0  0  0
  -21.2780   -3.8690   26.0220 F   0  0  0  0  0  0  0  0  0  0  0  0
  -22.7830  -13.6320   21.2480 C   0  0  0  0  0  0  0  0  0  0  0  0
  -22.0900  -12.9160   22.1260 N   0  0  0  0  0  0  0  0  0  0  0  0
  -22.3280  -14.6710   20.7720 O   0  0  0  0  0  0  0  0  0  0  0  0
  -22.4720  -12.0740   22.5300 H   0  0  0  0  0  0  0  0  0  0  0  0
  -21.1630  -13.2130   22.3970 H   0  0  0  0  0  0  0  0  0  0  0  0
  -25.3720  -15.3150   20.3520 N   0  0  0  0  0  0  0  0  0  0  0  0
  -24.6020  -15.9590   20.4970 H   0  0  0  0  0  0  0  0  0  0  0  0
  -26.1750  -15.7540   19.9240 H   0  0  0  0  0  0  0  0  0  0  0  0
  -27.8530  -21.6130   21.8810 N   0  0  0  0  0  4  0  0  0  0  0  0
  -28.6120  -21.7750   22.5180 H   0  0  0  0  0  0  0  0  0  0  0  0
  -27.4440  -20.7230   22.0910 H   0  0  0  0  0  0  0  0  0  0  0  0
  -27.1570  -22.3200   22.0200 H   0  0  0  0  0  0  0  0  0  0  0  0
  -28.8900  -23.2520   20.2540 C   0  0  0  0  0  0  0  0  0  0  0  0
  -30.1010  -23.4920   20.2010 O   0  0  0  0  0  0  0  0  0  0  0  0
  -27.8510  -24.5830   20.1160 C   0  0  0  0  0  2  0  0  0  0  0  0
  -28.2260  -26.1260   20.1980 O   0  0  0  0  0  0  0  0  0  0  0  0
  -24.6580  -31.9010   23.2360 C   0  0  0  0  0  0  0  0  0  0  0  0
  -27.1970  -27.1620   20.1480 C   0  0  0  0  0  0  0  0  0  0  0  0
  -23.4450  -30.5220   21.5960 C   0  0  0  0  0  3  0  0  0  0  0  0
  -24.8800  -28.9530   20.1440 C   0  0  0  0  0  0  0  0  0  0  0  0
  -26.0030  -30.7700   21.4160 C   0  0  0  0  0  2  0  0  0  0  0  0
  -26.0690  -29.3800   20.7490 C   0  0  0  0  0  0  0  0  0  0  0  0
  -27.2280  -28.5030   20.7320 C   0  0  0  0  0  3  0  0  0  0  0  0
  -25.9800  -26.8580   19.4980 C   0  0  0  0  0  3  0  0  0  0  0  0
  -24.8530  -27.7090   19.4980 C   0  0  0  0  0  3  0  0  0  0  0  0
  -23.6560  -29.8570   20.2090 C   0  0  0  0  0  2  0  0  0  0  0  0
  -24.7230  -31.0860   22.1370 N   0  0  0  0  0  0  0  0  0  0  0  0
  -23.5750  -32.1820   23.7730 O   0  0  0  0  0  0  0  0  0  0  0  0
  -22.7700  -29.5090   22.5550 C   0  0  0  0  0  0  0  0  0  0  0  0
  -21.4420  -29.3340   22.4320 N   0  0  0  0  0  0  0  0  0  0  0  0
  -23.4450  -28.8820   23.3770 O   0  0  0  0  0  0  0  0  0  0  0  0
  -20.9520  -29.8880   21.7430 H   0  0  0  0  0  0  0  0  0  0  0  0
  -18.0670  -28.1130   22.9420 C   0  0  0  0  0  0  0  0  0  0  0  0
  -20.6260  -28.3900   23.2020 C   0  0  0  0  0  3  0  0  0  0  0  0
  -20.7340  -26.9600   22.6210 C   0  0  0  0  0  2  0  0  0  0  0  0
  -19.6310  -26.6340   21.6090 C   0  0  0  0  0  2  0  0  0  0  0  0
  -18.2500  -26.7680   22.2570 C   0  0  0  0  0  2  0  0  0  0  0  0
  -19.1830  -28.8810   23.3710 C   0  0  0  0  0  0  0  0  0  0  0  0
  -18.9570  -30.1370   23.9740 C   0  0  0  0  0  3  0  0  0  0  0  0
  -17.6490  -30.6270   24.1500 C   0  0  0  0  0  3  0  0  0  0  0  0
  -16.5470  -29.8570   23.7360 C   0  0  0  0  0  3  0  0  0  0  0  0
  -16.7580  -28.6010   23.1380 C   0  0  0  0  0  3  0  0  0  0  0  0
  -25.9390  -32.5320   23.8590 C   0  0  0  0  0  3  0  0  0  0  0  0
  -26.4540  -31.7570   25.1340 C   0  0  1  0  0  0  0  0  0  0  0  0
  -25.3610  -31.5190   26.2040 C   0  0  0  0  0  1  0  0  0  0  0  0
  -27.0360  -30.3780   24.7450 C   0  0  0  0  0  1  0  0  0  0  0  0
  -27.6060  -32.5480   25.7980 C   0  0  0  0  0  1  0  0  0  0  0  0
  -25.6300  -33.9300   24.2020 N   0  0  0  0  0  0  0  0  0  0  0  0
  -25.9390  -34.9910   23.4450 C   0  0  0  0  0  0  0  0  0  0  0  0
  -26.5810  -34.8960   22.3950 O   0  0  0  0  0  0  0  0  0  0  0  0
  -25.0570  -34.0770   25.0200 H   0  0  0  0  0  0  0  0  0  0  0  0
  -24.1930  -36.7830   23.1640 C   0  0  0  0  0  1  0  0  0  0  0  0
  -25.4650  -36.3770   23.9270 C   0  0  0  0  0  3  0  0  0  0  0  0
  -27.6200  -37.2740   24.6900 C   0  0  0  0  0  1  0  0  0  0  0  0
  -26.4900  -37.4340   23.7810 N   0  0  0  0  0  0  0  0  0  0  0  0
  -26.0840  -38.3530   23.9380 H   0  0  0  0  0  0  0  0  0  0  0  0
  1 49  1  0
  1 45  1  0
  3  4  2  0
  4  2  1  0
  4  1  1  0
  5 15  1  0
  5  2  2  0
  6  3  1  0
  6  5  1  0
  7 15  1  0
  8 13  1  0
  9 10  1  0
  9  8  1  0
 11 10  1  0
 11 20  1  0
 11 12  1  0
 13  7  1  0
 13 12  1  0
 14  7  2  0
 15 16  1  0
 17 18  2  0
 18 37  1  0
 19 18  1  0
 19 22  1  0
 20 21  1  0
 20 17  1  0
 21 19  2  0
 22 23  1  0
 23 24  2  0
 25 28  1  0
 25 24  1  0
 26 25  2  0
 27 26  1  0
 27 22  2  0
 28 29  1  0
 29 30  1  0
 30 31  2  0
 32 31  1  0
 32 36  1  0
 33 32  2  0
 34 29  2  0
 34 33  1  0
 35 34  1  0
 37 38  1  0
 38 41  1  0
 38 40  1  0
 39 37  2  0
 42 43  1  0
 42 17  1  0
 44 42  1  0
 45 48  1  0
 45 47  1  0
 45 46  1  0
 50 49  2  0
 51 52  1  0
 51 49  1  0
 53 64  2  0
 54 52  1  0
 54 59  1  0
 55 63  1  0
 55 65  1  0
 56 62  1  0
 56 58  1  0
 57 63  1  0
 58 57  1  0
 59 58  2  0
 60 54  2  0
 61 60  1  0
 61 56  2  0
 62 55  1  0
 63 53  1  0
 65 67  2  0
 66 65  1  0
 68 66  1  0
 69 78  2  0
 69 74  1  0
 70 66  1  0
 70 74  1  0
 71 70  1  0
 72 73  1  0
 72 71  1  0
 73 69  1  0
 74 75  2  0
 75 76  1  0
 77 76  2  0
 78 77  1  0
 79 53  1  0
 79 84  1  0
 79 80  1  0
 80 83  1  1
 80 81  1  0
 82 80  1  0
 84 87  1  0
 85 89  1  0
 85 84  1  0
 86 85  2  0
 89 88  1  0
 91 89  1  0
 91 92  1  0
 91 90  1  0
M  ISO  4   7 100  15 100  51 101  52 101
M  END
>  <TORSDO>  (62) 
F 20

>  <SCORE>  (62) 
-15.878

>  <name>  (62) 
61

>  <ligand_id>  (62) 
61

>  <original_smiles>  (62) 
[H]c1oc(N([H])C(=O)N2C([H])([H])C([H])([H])C([H])([H])C([H])(n3nc(-c4c([H])c([H])c(Oc5c([H])c([H])c(F)c([H])c5F)c([H])c4[H])c(C(=O)N([H])[H])c3N([H])[H])C2([H])[H])c([H])c1C([H])(C(=O)C([H])([H])Oc1c([H])c([H])c2c(c1[H])C([H])([H])N(C(=O)C([H])(N([H])C(=O)C([H])(N([H])C([H])([H])[H])C([H])([H])[H])C(C([H])([H])[H])(C([H])([H])[H])C([H])([H])[H])C([H])(C(=O)N([H])C1([H])c3c([H])c([H])c([H])c([H])c3C([H])([H])C([H])([H])C1([H])[H])C2([H])[H])[N+]([H])([H])[H]

>  <smiles>  (62) 
[H]c1oc(N([H])C(=O)N2C([H])([H])C([H])([H])C([H])([H])C([H])(n3nc(-c4c([H])c([H])c(Oc5c([H])c([H])c(F)c([H])c5F)c([H])c4[H])c(C(=O)N([H])[H])c3N([H])[H])C2([H])[H])c([H])c1C([H])(C(=O)C([H])([H])Oc1c([H])c([H])c2c(c1[H])C([H])([H])N(C(=O)C([H])(N([H])C(=O)C([H])(N([H])C([H])([H])[H])C([H])([H])[H])C(C([H])([H])[H])(C([H])([H])[H])C([H])([H])[H])C([H])(C(=O)N([H])C1([H])c3c([H])c([H])c([H])c([H])c3C([H])([H])C([H])([H])C1([H])[H])C2([H])[H])[N+]([H])([H])[H]

$$$$
62:0:0
     RDKit          3D

 92101  0  0  1  0  0  0  0  0999 V2000
  -30.6190  -14.8360   20.3930 C   0  0  0  0  0  0  0  0  0  0  0  0
  -30.3930  -12.5400   19.4110 C   0  0  0  0  0  2  0  0  0  0  0  0
  -29.4820  -12.5840   18.1660 C   0  0  0  0  0  2  0  0  0  0  0  0
  -28.0050  -12.4220   18.5760 C   0  0  0  0  0  2  0  0  0  0  0  0
  -27.6110  -13.3310   19.7730 C   0  0  0  0  0  3  0  0  0  0  0  0
  -28.6550  -13.2890   20.9090 C   0  0  0  0  0  2  0  0  0  0  0  0
  -29.9480  -13.6320   20.3100 N   0  0  0  0  0  0  0  0  0  0  0  0
  -31.8390  -14.8320   20.1960 O   0  0  0  0  0  0  0  0  0  0  0  0
  -29.0960  -19.8320   20.9990 C   0  0  0  0  0  3  0  0  0  0  0  0
  -29.6720  -20.7560   18.8290 C   0  0  0  0  0  3  0  0  0  0  0  0
  -29.4750  -18.5040   20.5390 C   0  0  0  0  0  0  0  0  0  0  0  0
  -29.9230  -18.3370   19.2500 C   0  0  0  0  0  0  0  0  0  0  0  0
  -29.1820  -21.0150   20.1450 C   0  0  0  0  0  0  0  0  0  0  0  0
  -30.0360  -19.4500   18.3840 C   0  0  0  0  0  0  0  0  0  0  0  0
  -29.4850  -17.0830   21.2020 C   0  0  0  0  0  3  0  0  0  0  0  0
  -30.2290  -16.8590   18.9690 C   0  0  0  0  0  3  0  0  0  0  0  0
  -29.9130  -16.0340   20.1820 N   0  0  0  0  0  0  0  0  0  0  0  0
  -30.4840  -19.2700   17.1180 F   0  0  0  0  0  0  0  0  0  0  0  0
  -25.2170  -13.9260   20.4610 C   0  0  0  0  0  0  0  0  0  0  0  0
  -24.1430  -13.1580   20.8160 C   0  0  0  0  0  0  0  0  0  0  0  0
  -24.6050  -11.8060   20.8110 C   0  0  0  0  0  0  0  0  0  0  0  0
  -26.2630  -13.0440   20.2520 N   0  0  0  0  0  0  0  0  0  0  0  0
  -25.9030  -11.7640   20.5290 N   0  0  0  0  0  0  0  0  0  0  0  0
  -23.8720  -10.5450   20.9980 C   0  0  0  0  0  0  0  0  0  0  0  0
  -24.2910   -9.5800   21.9410 C   0  0  0  0  0  3  0  0  0  0  0  0
  -23.5560   -8.3870   22.1180 C   0  0  0  0  0  3  0  0  0  0  0  0
  -22.3910   -8.1500   21.3520 C   0  0  0  0  0  0  0  0  0  0  0  0
  -21.9920   -9.1030   20.3980 C   0  0  0  0  0  3  0  0  0  0  0  0
  -22.7260  -10.2880   20.2190 C   0  0  0  0  0  3  0  0  0  0  0  0
  -21.6320   -7.0080   21.4370 O   0  0  0  0  0  0  0  0  0  0  0  0
  -21.5700   -6.2680   22.5900 C   0  0  0  0  0  0  0  0  0  0  0  0
  -21.1450   -6.8290   23.8140 C   0  0  0  0  0  3  0  0  0  0  0  0
  -21.0300   -6.0170   24.9590 C   0  0  0  0  0  3  0  0  0  0  0  0
  -21.3320   -4.6440   24.8840 C   0  0  0  0  0  0  0  0  0  0  0  0
  -21.7510   -4.0820   23.6650 C   0  0  0  0  0  3  0  0  0  0  0  0
  -21.8660   -4.8920   22.5210 C   0  0  0  0  0  0  0  0  0  0  0  0
  -22.2510   -4.3410   21.3440 F   0  0  0  0  0  0  0  0  0  0  0  0
  -21.2140   -3.8620   25.9810 F   0  0  0  0  0  0  0  0  0  0  0  0
  -22.7410  -13.6380   21.0540 C   0  0  0  0  0  0  0  0  0  0  0  0
  -21.9970  -12.9560   21.9160 N   0  0  0  0  0  0  0  0  0  0  0  0
  -22.3140  -14.6560   20.5080 O   0  0  0  0  0  0  0  0  0  0  0  0
  -22.3530  -12.1320   22.3760 H   0  0  0  0  0  0  0  0  0  0  0  0
  -21.0560  -13.2640   22.1210 H   0  0  0  0  0  0  0  0  0  0  0  0
  -25.3870  -15.2950   20.2710 N   0  0  0  0  0  0  0  0  0  0  0  0
  -24.6200  -15.9530   20.3580 H   0  0  0  0  0  0  0  0  0  0  0  0
  -26.2450  -15.7270   19.9500 H   0  0  0  0  0  0  0  0  0  0  0  0
  -28.8860  -23.6780   20.0470 C   0  0  0  0  0  0  0  0  0  0  0  0
  -28.7350  -22.3870   20.5740 N   0  0  0  0  0  0  0  0  0  0  0  0
  -29.6190  -23.8840   19.0750 O   0  0  0  0  0  0  0  0  0  0  0  0
  -28.1820  -22.3870   21.4210 H   0  0  0  0  0  0  0  0  0  0  0  0
  -28.1220  -24.9480   20.7000 C   0  0  0  0  0  2  0  0  0  0  0  0
  -28.3770  -26.3640   20.2010 O   0  0  0  0  0  0  0  0  0  0  0  0
  -24.6660  -31.9060   23.2080 C   0  0  0  0  0  0  0  0  0  0  0  0
  -27.2910  -27.2800   20.1830 C   0  0  0  0  0  0  0  0  0  0  0  0
  -23.4760  -30.4950   21.5740 C   0  0  0  0  0  3  0  0  0  0  0  0
  -24.9370  -28.9360   20.1560 C   0  0  0  0  0  0  0  0  0  0  0  0
  -26.0210  -30.8040   21.4000 C   0  0  0  0  0  2  0  0  0  0  0  0
  -26.1080  -29.4160   20.7560 C   0  0  0  0  0  0  0  0  0  0  0  0
  -27.2920  -28.6030   20.7530 C   0  0  0  0  0  3  0  0  0  0  0  0
  -26.0960  -26.8750   19.5520 C   0  0  0  0  0  3  0  0  0  0  0  0
  -24.9360  -27.6750   19.5440 C   0  0  0  0  0  3  0  0  0  0  0  0
  -23.7000  -29.8150   20.1980 C   0  0  0  0  0  2  0  0  0  0  0  0
  -24.7410  -31.0870   22.1160 N   0  0  0  0  0  0  0  0  0  0  0  0
  -23.5790  -32.1830   23.7350 O   0  0  0  0  0  0  0  0  0  0  0  0
  -22.8100  -29.4820   22.5380 C   0  0  0  0  0  0  0  0  0  0  0  0
  -21.4830  -29.3110   22.4190 N   0  0  0  0  0  0  0  0  0  0  0  0
  -23.4900  -28.8510   23.3520 O   0  0  0  0  0  0  0  0  0  0  0  0
  -20.9920  -29.8740   21.7380 H   0  0  0  0  0  0  0  0  0  0  0  0
  -18.1010  -28.1260   22.9460 C   0  0  0  0  0  0  0  0  0  0  0  0
  -20.6640  -28.3750   23.1940 C   0  0  0  0  0  3  0  0  0  0  0  0
  -20.7530  -26.9450   22.6120 C   0  0  0  0  0  2  0  0  0  0  0  0
  -19.6410  -26.6290   21.6060 C   0  0  0  0  0  2  0  0  0  0  0  0
  -18.2660  -26.7790   22.2630 C   0  0  0  0  0  2  0  0  0  0  0  0
  -19.2260  -28.8820   23.3690 C   0  0  0  0  0  0  0  0  0  0  0  0
  -19.0180  -30.1430   23.9680 C   0  0  0  0  0  3  0  0  0  0  0  0
  -17.7170  -30.6490   24.1490 C   0  0  0  0  0  3  0  0  0  0  0  0
  -16.6060  -29.8910   23.7420 C   0  0  0  0  0  3  0  0  0  0  0  0
  -16.7990  -28.6300   23.1470 C   0  0  0  0  0  3  0  0  0  0  0  0
  -25.9420  -32.5520   23.8320 C   0  0  0  0  0  3  0  0  0  0  0  0
  -25.6180  -33.9460   24.1710 N   0  0  0  0  0  0  0  0  0  0  0  0
  -25.9270  -35.0060   23.4120 C   0  0  0  0  0  0  0  0  0  0  0  0
  -26.5850  -34.9140   22.3720 O   0  0  0  0  0  0  0  0  0  0  0  0
  -25.0340  -34.0910   24.9800 H   0  0  0  0  0  0  0  0  0  0  0  0
  -24.1710  -36.7780   23.0960 C   0  0  0  0  0  1  0  0  0  0  0  0
  -25.4330  -36.3880   23.8830 C   0  0  0  0  0  3  0  0  0  0  0  0
  -27.5710  -37.2950   24.6770 C   0  0  0  0  0  1  0  0  0  0  0  0
  -26.4500  -37.4540   23.7550 N   0  0  0  0  0  0  0  0  0  0  0  0
  -26.0360  -38.3690   23.9140 H   0  0  0  0  0  0  0  0  0  0  0  0
  -26.4640  -31.7820   25.1080 C   0  0  1  0  0  0  0  0  0  0  0  0
  -25.3720  -31.5360   26.1760 C   0  0  0  0  0  1  0  0  0  0  0  0
  -27.0560  -30.4100   24.7150 C   0  0  0  0  0  1  0  0  0  0  0  0
  -27.6110  -32.5840   25.7700 C   0  0  0  0  0  1  0  0  0  0  0  0
  2  7  1  0
  3  4  1  0
  3  2  1  0
  5  4  1  0
  5 22  1  0
  5  6  1  0
  7  1  1  0
  7  6  1  0
  8  1  2  0
 10 13  1  0
 11  9  1  0
 11 15  2  0
 12 11  1  0
 13 48  1  0
 13  9  2  0
 14 10  2  0
 14 12  1  0
 16 12  2  0
 16 17  1  0
 17  1  1  0
 17 15  1  0
 18 14  1  0
 19 20  2  0
 20 39  1  0
 21 20  1  0
 21 24  1  0
 22 19  1  0
 22 23  1  0
 23 21  2  0
 24 25  1  0
 25 26  2  0
 27 30  1  0
 27 26  1  0
 28 27  2  0
 29 28  1  0
 29 24  2  0
 30 31  1  0
 31 32  1  0
 32 33  2  0
 34 33  1  0
 34 38  1  0
 35 34  2  0
 36 31  2  0
 36 35  1  0
 37 36  1  0
 39 40  1  0
 40 43  1  0
 40 42  1  0
 41 39  2  0
 44 45  1  0
 44 19  1  0
 46 44  1  0
 47 48  1  0
 47 51  1  0
 48 50  1  0
 49 47  2  0
 52 51  1  0
 53 64  2  0
 54 52  1  0
 54 59  1  0
 55 63  1  0
 55 65  1  0
 56 62  1  0
 56 58  1  0
 57 63  1  0
 58 57  1  0
 59 58  2  0
 60 54  2  0
 61 60  1  0
 61 56  2  0
 62 55  1  0
 63 53  1  0
 65 67  2  0
 66 65  1  0
 68 66  1  0
 69 78  2  0
 69 74  1  0
 70 66  1  0
 70 74  1  0
 71 70  1  0
 72 73  1  0
 72 71  1  0
 73 69  1  0
 74 75  2  0
 75 76  1  0
 77 76  2  0
 78 77  1  0
 79 53  1  0
 79 80  1  0
 79 89  1  0
 80 83  1  0
 81 85  1  0
 81 80  1  0
 82 81  2  0
 85 84  1  0
 87 85  1  0
 87 88  1  0
 87 86  1  0
 89 92  1  1
 89 90  1  0
 91 89  1  0
M  ISO  4   1 100  17 100  51 101  52 101
M  END
>  <TORSDO>  (63) 
F 17

>  <SCORE>  (63) 
-15.054

>  <name>  (63) 
62

>  <ligand_id>  (63) 
62

>  <original_smiles>  (63) 
[H]c1c([H])c([H])c2c(c1[H])C([H])([H])C([H])([H])C([H])([H])C2([H])N([H])C(=O)C1([H])N(C(=O)C([H])(N([H])C(=O)C([H])(N([H])C([H])([H])[H])C([H])([H])[H])C(C([H])([H])[H])(C([H])([H])[H])C([H])([H])[H])C([H])([H])c2c([H])c(OC([H])([H])C(=O)N([H])c3c([H])c(F)c4c(c3[H])C([H])([H])N(C(=O)N3C([H])([H])C([H])([H])C([H])([H])C([H])(n5nc(-c6c([H])c([H])c(Oc7c([H])c([H])c(F)c([H])c7F)c([H])c6[H])c(C(=O)N([H])[H])c5N([H])[H])C3([H])[H])C4([H])[H])c([H])c([H])c2C1([H])[H]

>  <smiles>  (63) 
[H]c1c([H])c([H])c2c(c1[H])C([H])([H])C([H])([H])C([H])([H])C2([H])N([H])C(=O)C1([H])N(C(=O)C([H])(N([H])C(=O)C([H])(N([H])C([H])([H])[H])C([H])([H])[H])C(C([H])([H])[H])(C([H])([H])[H])C([H])([H])[H])C([H])([H])c2c([H])c(OC([H])([H])C(=O)N([H])c3c([H])c(F)c4c(c3[H])C([H])([H])N(C(=O)N3C([H])([H])C([H])([H])C([H])([H])C([H])(n5nc(-c6c([H])c([H])c(Oc7c([H])c([H])c(F)c([H])c7F)c([H])c6[H])c(C(=O)N([H])[H])c5N([H])[H])C3([H])[H])C4([H])[H])c([H])c([H])c2C1([H])[H]

$$$$
63:0:0
     RDKit          3D

 96105  0  0  1  0  0  0  0  0999 V2000
  -28.8230  -23.1600   20.1560 C   0  0  0  0  0  0  0  0  0  0  0  0
  -29.2840  -22.2660   21.0560 N   0  0  0  0  0  0  0  0  0  0  0  0
  -28.4350  -22.8260   19.0310 O   0  0  0  0  0  0  0  0  0  0  0  0
  -29.3500  -22.5900   22.0130 H   0  0  0  0  0  0  0  0  0  0  0  0
  -31.0220  -14.5690   20.0450 C   0  0  0  0  0  0  0  0  0  0  0  0
  -30.6000  -12.4420   18.8660 C   0  0  0  0  0  2  0  0  0  0  0  0
  -29.5430  -12.6170   17.7540 C   0  0  0  0  0  2  0  0  0  0  0  0
  -28.1180  -12.4510   18.3190 C   0  0  0  0  0  2  0  0  0  0  0  0
  -27.8850  -13.2720   19.6180 C   0  0  0  0  0  3  0  0  0  0  0  0
  -29.0420  -13.0310   20.6050 C   0  0  0  0  0  2  0  0  0  0  0  0
  -30.2910  -13.4190   19.9310 N   0  0  0  0  0  0  0  0  0  0  0  0
  -32.1490  -14.6220   19.5390 O   0  0  0  0  0  0  0  0  0  0  0  0
  -29.5530  -19.8570   21.6340 C   0  0  0  0  0  3  0  0  0  0  0  0
  -30.4240  -20.7190   19.5350 C   0  0  0  0  0  3  0  0  0  0  0  0
  -29.9280  -18.5460   21.2390 C   0  0  0  0  0  0  0  0  0  0  0  0
  -30.4790  -18.3220   19.9610 C   0  0  0  0  0  0  0  0  0  0  0  0
  -30.7740  -19.4250   19.1260 C   0  0  0  0  0  0  0  0  0  0  0  0
  -29.7370  -20.9470   20.7470 C   0  0  0  0  0  0  0  0  0  0  0  0
  -29.7850  -17.3670   22.1820 C   0  0  0  0  0  2  0  0  0  0  0  0
  -30.7880  -16.9110   19.4780 C   0  0  0  0  0  2  0  0  0  0  0  0
  -29.5110  -16.0230   21.4690 C   0  0  0  0  0  2  0  0  0  0  0  0
  -31.4490  -19.2700   17.7720 C   0  0  0  0  0  1  0  0  0  0  0  0
  -30.3740  -15.7470   20.3000 N   0  0  0  0  0  0  0  0  0  0  0  0
  -25.5950  -13.8490   20.6390 C   0  0  0  0  0  0  0  0  0  0  0  0
  -24.5540  -13.0600   21.0490 C   0  0  0  0  0  0  0  0  0  0  0  0
  -24.9790  -11.7110   20.8510 C   0  0  0  0  0  0  0  0  0  0  0  0
  -26.5890  -12.9750   20.2210 N   0  0  0  0  0  0  0  0  0  0  0  0
  -26.2290  -11.6820   20.4080 N   0  0  0  0  0  0  0  0  0  0  0  0
  -24.2480  -10.4460   21.0000 C   0  0  0  0  0  0  0  0  0  0  0  0
  -24.6890   -9.4410   21.8880 C   0  0  0  0  0  3  0  0  0  0  0  0
  -23.9610   -8.2420   22.0310 C   0  0  0  0  0  3  0  0  0  0  0  0
  -22.7760   -8.0380   21.2850 C   0  0  0  0  0  0  0  0  0  0  0  0
  -22.3560   -9.0290   20.3820 C   0  0  0  0  0  3  0  0  0  0  0  0
  -23.0860  -10.2200   20.2350 C   0  0  0  0  0  3  0  0  0  0  0  0
  -22.0180   -6.8950   21.3390 O   0  0  0  0  0  0  0  0  0  0  0  0
  -21.8730   -6.1820   22.5000 C   0  0  0  0  0  0  0  0  0  0  0  0
  -21.3460   -6.7680   23.6710 C   0  0  0  0  0  3  0  0  0  0  0  0
  -21.1430   -5.9820   24.8230 C   0  0  0  0  0  3  0  0  0  0  0  0
  -21.4610   -4.6110   24.8040 C   0  0  0  0  0  0  0  0  0  0  0  0
  -21.9820   -4.0220   23.6400 C   0  0  0  0  0  3  0  0  0  0  0  0
  -22.1830   -4.8060   22.4890 C   0  0  0  0  0  0  0  0  0  0  0  0
  -22.6630   -4.2330   21.3600 F   0  0  0  0  0  0  0  0  0  0  0  0
  -21.2620   -3.8530   25.9090 F   0  0  0  0  0  0  0  0  0  0  0  0
  -23.2030  -13.5260   21.5100 C   0  0  0  0  0  0  0  0  0  0  0  0
  -22.5670  -12.7690   22.3960 N   0  0  0  0  0  0  0  0  0  0  0  0
  -22.7250  -14.5920   21.1220 O   0  0  0  0  0  0  0  0  0  0  0  0
  -22.9750  -11.9070   22.7270 H   0  0  0  0  0  0  0  0  0  0  0  0
  -21.6680  -13.0580   22.7540 H   0  0  0  0  0  0  0  0  0  0  0  0
  -25.7680  -15.2270   20.5590 N   0  0  0  0  0  0  0  0  0  0  0  0
  -25.0270  -15.8820   20.7870 H   0  0  0  0  0  0  0  0  0  0  0  0
  -26.5990  -15.6780   20.2010 H   0  0  0  0  0  0  0  0  0  0  0  0
  -28.4430  -25.4970   19.7540 C   0  0  0  0  0  3  0  0  0  0  0  0
  -28.8180  -24.5430   20.6290 C   0  0  0  0  0  0  0  0  0  0  0  0
  -29.1960  -24.8510   21.8810 O   0  0  0  0  0  0  0  0  0  0  0  0
  -29.1420  -25.7950   21.9640 H   0  0  0  0  0  0  0  0  0  0  0  0
  -28.4430  -26.8350   20.0390 O   0  0  0  0  0  0  0  0  0  0  0  0
  -24.7110  -31.8710   23.2810 C   0  0  0  0  0  0  0  0  0  0  0  0
  -27.2520  -27.5230   20.0320 C   0  0  0  0  0  0  0  0  0  0  0  0
  -23.4550  -30.5330   21.6220 C   0  0  0  0  0  3  0  0  0  0  0  0
  -24.8630  -29.0290   20.1220 C   0  0  0  0  0  0  0  0  0  0  0  0
  -25.9740  -30.8920   21.3680 C   0  0  0  0  0  2  0  0  0  0  0  0
  -26.0360  -29.5360   20.6970 C   0  0  0  0  0  0  0  0  0  0  0  0
  -27.2290  -28.7920   20.6470 C   0  0  0  0  0  3  0  0  0  0  0  0
  -26.0600  -27.0200   19.4530 C   0  0  0  0  0  3  0  0  0  0  0  0
  -24.8680  -27.7690   19.4990 C   0  0  0  0  0  3  0  0  0  0  0  0
  -23.6330  -29.9010   20.2150 C   0  0  0  0  0  2  0  0  0  0  0  0
  -24.7350  -31.1090   22.1520 N   0  0  0  0  0  0  0  0  0  0  0  0
  -23.6460  -32.1310   23.8550 O   0  0  0  0  0  0  0  0  0  0  0  0
  -22.8190  -29.4860   22.5630 C   0  0  0  0  0  0  0  0  0  0  0  0
  -21.5000  -29.2690   22.4170 N   0  0  0  0  0  0  0  0  0  0  0  0
  -23.5050  -28.8740   23.3870 O   0  0  0  0  0  0  0  0  0  0  0  0
  -21.0060  -29.8200   21.7290 H   0  0  0  0  0  0  0  0  0  0  0  0
  -18.1700  -27.9200   22.7890 C   0  0  0  0  0  0  0  0  0  0  0  0
  -20.6980  -28.3050   23.1710 C   0  0  0  0  0  3  0  0  0  0  0  0
  -20.8960  -26.8690   22.6300 C   0  0  0  0  0  2  0  0  0  0  0  0
  -19.8570  -26.4750   21.5750 C   0  0  0  0  0  2  0  0  0  0  0  0
  -18.4430  -26.5680   22.1520 C   0  0  0  0  0  2  0  0  0  0  0  0
  -19.2300  -28.7420   23.2540 C   0  0  0  0  0  0  0  0  0  0  0  0
  -18.9240  -30.0050   23.8080 C   0  0  0  0  0  3  0  0  0  0  0  0
  -17.5920  -30.4470   23.8990 C   0  0  0  0  0  3  0  0  0  0  0  0
  -16.5460  -29.6230   23.4490 C   0  0  0  0  0  3  0  0  0  0  0  0
  -16.8350  -28.3610   22.9000 C   0  0  0  0  0  3  0  0  0  0  0  0
  -26.0190  -32.4720   23.8870 C   0  0  0  0  0  3  0  0  0  0  0  0
  -25.7320  -33.8620   24.2640 N   0  0  0  0  0  0  0  0  0  0  0  0
  -26.0330  -34.9310   23.5130 C   0  0  0  0  0  0  0  0  0  0  0  0
  -26.6530  -34.8470   22.4480 O   0  0  0  0  0  0  0  0  0  0  0  0
  -25.1690  -34.0020   25.0900 H   0  0  0  0  0  0  0  0  0  0  0  0
  -24.2920  -36.7320   23.2790 C   0  0  0  0  0  1  0  0  0  0  0  0
  -25.5720  -36.3100   24.0200 C   0  0  0  0  0  3  0  0  0  0  0  0
  -27.7480  -37.1740   24.7620 C   0  0  0  0  0  1  0  0  0  0  0  0
  -26.5990  -37.3640   23.8780 N   0  0  0  0  0  0  0  0  0  0  0  0
  -26.2030  -38.2800   24.0690 H   0  0  0  0  0  0  0  0  0  0  0  0
  -26.5620  -31.6560   25.1220 C   0  0  1  0  0  0  0  0  0  0  0  0
  -25.4960  -31.3890   26.2090 C   0  0  0  0  0  1  0  0  0  0  0  0
  -27.1170  -30.2880   24.6640 C   0  0  0  0  0  1  0  0  0  0  0  0
  -27.7370  -32.4130   25.7820 C   0  0  0  0  0  1  0  0  0  0  0  0
  1 53  1  0
  1  2  1  0
  2  4  1  0
  3  1  2  0
  5 23  1  0
  6 11  1  0
  7  8  1  0
  7  6  1  0
  9  8  1  0
  9 27  1  0
  9 10  1  0
 11  5  1  0
 11 10  1  0
 12  5  2  0
 14 18  1  0
 15 13  1  0
 15 19  1  0
 16 15  2  0
 17 14  2  0
 17 16  1  0
 18  2  1  0
 18 13  2  0
 20 16  1  0
 20 23  1  0
 21 19  1  0
 22 17  1  0
 23 21  1  0
 24 25  2  0
 25 44  1  0
 26 29  1  0
 26 25  1  0
 27 28  1  0
 27 24  1  0
 28 26  2  0
 29 30  1  0
 30 31  2  0
 32 35  1  0
 32 31  1  0
 33 32  2  0
 34 33  1  0
 34 29  2  0
 35 36  1  0
 36 37  1  0
 37 38  2  0
 39 38  1  0
 39 43  1  0
 40 39  2  0
 41 36  2  0
 41 40  1  0
 42 41  1  0
 44 45  1  0
 45 47  1  0
 45 48  1  0
 46 44  2  0
 49 24  1  0
 49 50  1  0
 51 49  1  0
 52 56  1  0
 52 53  2  0
 53 54  1  0
 54 55  1  0
 57 68  2  0
 58 56  1  0
 58 63  1  0
 59 67  1  0
 59 69  1  0
 60 66  1  0
 60 62  1  0
 61 67  1  0
 62 61  1  0
 63 62  2  0
 64 65  1  0
 64 58  2  0
 65 60  2  0
 66 59  1  0
 67 57  1  0
 69 71  2  0
 70 69  1  0
 72 70  1  0
 73 82  2  0
 73 78  1  0
 74 70  1  0
 74 78  1  0
 75 74  1  0
 76 77  1  0
 76 75  1  0
 77 73  1  0
 78 79  2  0
 79 80  1  0
 81 80  2  0
 82 81  1  0
 83 57  1  0
 83 84  1  0
 83 93  1  0
 84 87  1  0
 85 89  1  0
 85 84  1  0
 86 85  2  0
 89 88  1  0
 91 89  1  0
 91 92  1  0
 91 90  1  0
 93 96  1  1
 93 94  1  0
 95 93  1  0
M  ISO  4   5 100  23 100  52 101  56 101
M  END
>  <TORSDO>  (64) 
F 18

>  <SCORE>  (64) 
-13.206

>  <name>  (64) 
63

>  <ligand_id>  (64) 
63

>  <original_smiles>  (64) 
[H]OC(C(=O)N([H])c1c([H])c(C([H])([H])[H])c2c(c1[H])C([H])([H])C([H])([H])N(C(=O)N1C([H])([H])C([H])([H])C([H])([H])C([H])(n3nc(-c4c([H])c([H])c(Oc5c([H])c([H])c(F)c([H])c5F)c([H])c4[H])c(C(=O)N([H])[H])c3N([H])[H])C1([H])[H])C2([H])[H])=C([H])Oc1c([H])c([H])c2c(c1[H])C([H])([H])N(C(=O)C([H])(N([H])C(=O)C([H])(N([H])C([H])([H])[H])C([H])([H])[H])C(C([H])([H])[H])(C([H])([H])[H])C([H])([H])[H])C([H])(C(=O)N([H])C1([H])c3c([H])c([H])c([H])c([H])c3C([H])([H])C([H])([H])C1([H])[H])C2([H])[H]

>  <smiles>  (64) 
[H]OC(C(=O)N([H])c1c([H])c(C([H])([H])[H])c2c(c1[H])C([H])([H])C([H])([H])N(C(=O)N1C([H])([H])C([H])([H])C([H])([H])C([H])(n3nc(-c4c([H])c([H])c(Oc5c([H])c([H])c(F)c([H])c5F)c([H])c4[H])c(C(=O)N([H])[H])c3N([H])[H])C1([H])[H])C2([H])[H])=C([H])Oc1c([H])c([H])c2c(c1[H])C([H])([H])N(C(=O)C([H])(N([H])C(=O)C([H])(N([H])C([H])([H])[H])C([H])([H])[H])C(C([H])([H])[H])(C([H])([H])[H])C([H])([H])[H])C([H])(C(=O)N([H])C1([H])c3c([H])c([H])c([H])c([H])c3C([H])([H])C([H])([H])C1([H])[H])C2([H])[H]

$$$$
64:0:0
     RDKit          3D

 95104  0  0  1  0  0  0  0  0999 V2000
  -31.2740  -20.2120   20.0700 C   0  0  0  0  0  3  0  0  0  0  0  0
  -31.7280  -17.7880   20.2050 C   0  0  0  0  0  3  0  0  0  0  0  0
  -29.4630  -18.5970   20.2070 C   0  0  0  0  0  0  0  0  0  0  0  0
  -29.8940  -19.9590   20.1160 C   0  0  0  0  0  0  0  0  0  0  0  0
  -32.1820  -19.1300   20.1040 C   0  0  0  0  0  0  0  0  0  0  0  0
  -30.3490  -17.4310   20.2520 C   0  0  0  0  0  0  0  0  0  0  0  0
  -27.9650  -18.6390   20.2400 C   0  0  0  0  0  3  0  0  0  0  0  0
  -27.6340  -20.1680   20.1730 C   0  0  0  0  0  3  0  0  0  0  0  0
  -28.8710  -20.9690   20.0300 N   0  0  0  0  0  0  0  0  0  0  0  0
  -30.6480  -14.7990   20.1120 C   0  0  0  0  0  0  0  0  0  0  0  0
  -30.3530  -12.5530   19.0570 C   0  0  0  0  0  2  0  0  0  0  0  0
  -29.3750  -12.6610   17.8680 C   0  0  0  0  0  2  0  0  0  0  0  0
  -27.9240  -12.4840   18.3530 C   0  0  0  0  0  2  0  0  0  0  0  0
  -27.6000  -13.3430   19.6070 C   0  0  0  0  0  3  0  0  0  0  0  0
  -28.7040  -13.2430   20.6810 C   0  0  0  0  0  2  0  0  0  0  0  0
  -29.9760  -13.5980   20.0410 N   0  0  0  0  0  0  0  0  0  0  0  0
  -31.8330  -14.8150   19.7740 O   0  0  0  0  0  0  0  0  0  0  0  0
  -29.9350  -15.9840   20.3390 N   0  0  0  0  0  0  0  0  0  0  0  0
  -28.9590  -15.8280   20.5370 H   0  0  0  0  0  0  0  0  0  0  0  0
  -25.2380  -13.9060   20.4230 C   0  0  0  0  0  0  0  0  0  0  0  0
  -24.1910  -13.1230   20.8220 C   0  0  0  0  0  0  0  0  0  0  0  0
  -24.6630  -11.7760   20.7700 C   0  0  0  0  0  0  0  0  0  0  0  0
  -26.2800  -13.0370   20.1460 N   0  0  0  0  0  0  0  0  0  0  0  0
  -25.9430  -11.7500   20.4230 N   0  0  0  0  0  0  0  0  0  0  0  0
  -23.9500  -10.5070   20.9740 C   0  0  0  0  0  0  0  0  0  0  0  0
  -24.4020   -9.5470   21.9090 C   0  0  0  0  0  3  0  0  0  0  0  0
  -23.6900   -8.3450   22.1010 C   0  0  0  0  0  3  0  0  0  0  0  0
  -22.5130   -8.0900   21.3570 C   0  0  0  0  0  0  0  0  0  0  0  0
  -22.0820   -9.0370   20.4110 C   0  0  0  0  0  3  0  0  0  0  0  0
  -22.7940  -10.2310   20.2170 C   0  0  0  0  0  3  0  0  0  0  0  0
  -21.7700   -6.9390   21.4600 O   0  0  0  0  0  0  0  0  0  0  0  0
  -21.7210   -6.2140   22.6230 C   0  0  0  0  0  0  0  0  0  0  0  0
  -21.2680   -6.7790   23.8350 C   0  0  0  0  0  3  0  0  0  0  0  0
  -21.1710   -5.9790   24.9920 C   0  0  0  0  0  3  0  0  0  0  0  0
  -21.5150   -4.6150   24.9350 C   0  0  0  0  0  0  0  0  0  0  0  0
  -21.9620   -4.0500   23.7280 C   0  0  0  0  0  3  0  0  0  0  0  0
  -22.0600   -4.8470   22.5740 C   0  0  0  0  0  0  0  0  0  0  0  0
  -22.4710   -4.2930   21.4080 F   0  0  0  0  0  0  0  0  0  0  0  0
  -21.4140   -3.8430   26.0430 F   0  0  0  0  0  0  0  0  0  0  0  0
  -22.7990  -13.5870   21.1370 C   0  0  0  0  0  0  0  0  0  0  0  0
  -22.0980  -12.8780   22.0140 N   0  0  0  0  0  0  0  0  0  0  0  0
  -22.3430  -14.6150   20.6390 O   0  0  0  0  0  0  0  0  0  0  0  0
  -22.4790  -12.0440   22.4390 H   0  0  0  0  0  0  0  0  0  0  0  0
  -21.1650  -13.1730   22.2680 H   0  0  0  0  0  0  0  0  0  0  0  0
  -25.3820  -15.2800   20.2460 N   0  0  0  0  0  0  0  0  0  0  0  0
  -24.6010  -15.9140   20.3690 H   0  0  0  0  0  0  0  0  0  0  0  0
  -26.1940  -15.7250   19.8440 H   0  0  0  0  0  0  0  0  0  0  0  0
  -33.5550  -19.3870   20.0300 N   0  0  0  0  0  0  0  0  0  0  0  0
  -33.8630  -20.2680   19.6250 H   0  0  0  0  0  0  0  0  0  0  0  0
  -34.1840  -18.6180   19.8080 H   0  0  0  0  0  0  0  0  0  0  0  0
  -28.9900  -22.3720   20.6380 C   0  0  0  0  0  2  0  0  0  0  0  0
  -28.5710  -23.7200   19.8600 C   0  0  0  0  0  0  0  0  0  0  0  0
  -28.5430  -23.7250   18.6250 O   0  0  0  0  0  0  0  0  0  0  0  0
  -28.1580  -25.0390   20.6760 C   0  0  0  0  0  2  0  0  0  0  0  0
  -28.3410  -26.4070   20.0700 O   0  0  0  0  0  0  0  0  0  0  0  0
  -24.6480  -31.8500   23.2050 C   0  0  0  0  0  0  0  0  0  0  0  0
  -27.2470  -27.2970   20.0920 C   0  0  0  0  0  0  0  0  0  0  0  0
  -23.4440  -30.4770   21.5440 C   0  0  0  0  0  3  0  0  0  0  0  0
  -24.8950  -28.9360   20.1000 C   0  0  0  0  0  0  0  0  0  0  0  0
  -25.9880  -30.7850   21.3670 C   0  0  0  0  0  2  0  0  0  0  0  0
  -26.0670  -29.4130   20.7010 C   0  0  0  0  0  0  0  0  0  0  0  0
  -27.2510  -28.6060   20.6820 C   0  0  0  0  0  3  0  0  0  0  0  0
  -26.0540  -26.8820   19.4700 C   0  0  0  0  0  3  0  0  0  0  0  0
  -24.8930  -27.6810   19.4700 C   0  0  0  0  0  3  0  0  0  0  0  0
  -23.6600  -29.8150   20.1570 C   0  0  0  0  0  2  0  0  0  0  0  0
  -24.7130  -31.0570   22.0950 N   0  0  0  0  0  0  0  0  0  0  0  0
  -23.5650  -32.1190   23.7430 O   0  0  0  0  0  0  0  0  0  0  0  0
  -22.7770  -29.4520   22.4910 C   0  0  0  0  0  0  0  0  0  0  0  0
  -21.4480  -29.2850   22.3690 N   0  0  0  0  0  0  0  0  0  0  0  0
  -23.4540  -28.8060   23.2930 O   0  0  0  0  0  0  0  0  0  0  0  0
  -20.9580  -29.8570   21.6960 H   0  0  0  0  0  0  0  0  0  0  0  0
  -18.0620  -28.1190   22.8920 C   0  0  0  0  0  0  0  0  0  0  0  0
  -20.6270  -28.3400   23.1290 C   0  0  0  0  0  3  0  0  0  0  0  0
  -20.7020  -26.9210   22.5200 C   0  0  0  0  0  2  0  0  0  0  0  0
  -19.5800  -26.6340   21.5150 C   0  0  0  0  0  2  0  0  0  0  0  0
  -18.2090  -26.7860   22.1800 C   0  0  0  0  0  2  0  0  0  0  0  0
  -19.1960  -28.8570   23.3230 C   0  0  0  0  0  0  0  0  0  0  0  0
  -19.0010  -30.1100   23.9460 C   0  0  0  0  0  3  0  0  0  0  0  0
  -17.7050  -30.6200   24.1460 C   0  0  0  0  0  3  0  0  0  0  0  0
  -16.5850  -29.8780   23.7300 C   0  0  0  0  0  3  0  0  0  0  0  0
  -16.7650  -28.6300   23.1090 C   0  0  0  0  0  3  0  0  0  0  0  0
  -25.9290  -32.4740   23.8410 C   0  0  0  0  0  3  0  0  0  0  0  0
  -26.4370  -31.6940   25.1140 C   0  0  1  0  0  0  0  0  0  0  0  0
  -25.3380  -31.4510   26.1750 C   0  0  0  0  0  1  0  0  0  0  0  0
  -27.0210  -30.3190   24.7180 C   0  0  0  0  0  1  0  0  0  0  0  0
  -27.5860  -32.4810   25.7860 C   0  0  0  0  0  1  0  0  0  0  0  0
  -25.6220  -33.8710   24.1820 N   0  0  0  0  0  0  0  0  0  0  0  0
  -25.9580  -34.9300   23.4320 C   0  0  0  0  0  0  0  0  0  0  0  0
  -26.6280  -34.8340   22.4000 O   0  0  0  0  0  0  0  0  0  0  0  0
  -25.0370  -34.0240   24.9900 H   0  0  0  0  0  0  0  0  0  0  0  0
  -24.2400  -36.7320   23.0870 C   0  0  0  0  0  1  0  0  0  0  0  0
  -25.4730  -36.3130   23.9050 C   0  0  0  0  0  3  0  0  0  0  0  0
  -27.6000  -37.1770   24.7700 C   0  0  0  0  0  1  0  0  0  0  0  0
  -26.5100  -37.3640   23.8150 N   0  0  0  0  0  0  0  0  0  0  0  0
  -26.1040  -38.2820   23.9710 H   0  0  0  0  0  0  0  0  0  0  0  0
  1  5  2  0
  1  4  1  0
  2  6  2  0
  3  7  1  0
  3  6  1  0
  4  3  2  0
  5  2  1  0
  6 18  1  0
  8  7  2  0
  9  4  1  0
  9  8  1  0
  9 51  1  0
 10 18  1  0
 11 16  1  0
 12 13  1  0
 12 11  1  0
 14 13  1  0
 14 23  1  0
 14 15  1  0
 16 10  1  0
 16 15  1  0
 17 10  2  0
 18 19  1  0
 20 21  2  0
 21 40  1  0
 22 21  1  0
 22 25  1  0
 23 24  1  0
 23 20  1  0
 24 22  2  0
 25 26  1  0
 26 27  2  0
 28 31  1  0
 28 27  1  0
 29 28  2  0
 30 29  1  0
 30 25  2  0
 31 32  1  0
 32 33  1  0
 33 34  2  0
 35 34  1  0
 35 39  1  0
 36 35  2  0
 37 32  2  0
 37 36  1  0
 38 37  1  0
 40 41  1  0
 41 44  1  0
 41 43  1  0
 42 40  2  0
 45 46  1  0
 45 20  1  0
 47 45  1  0
 48  5  1  0
 49 48  1  0
 50 48  1  0
 52 51  1  0
 52 54  1  0
 53 52  2  0
 55 57  1  0
 55 54  1  0
 56 67  2  0
 57 62  1  0
 58 66  1  0
 58 68  1  0
 59 65  1  0
 59 61  1  0
 60 66  1  0
 61 60  1  0
 62 61  2  0
 63 57  2  0
 64 63  1  0
 64 59  2  0
 65 58  1  0
 66 56  1  0
 68 70  2  0
 69 68  1  0
 71 69  1  0
 72 81  2  0
 72 77  1  0
 73 69  1  0
 73 77  1  0
 74 73  1  0
 75 76  1  0
 75 74  1  0
 76 72  1  0
 77 78  2  0
 78 79  1  0
 80 79  2  0
 81 80  1  0
 82 56  1  0
 82 87  1  0
 82 83  1  0
 83 86  1  1
 83 84  1  0
 85 83  1  0
 87 90  1  0
 88 92  1  0
 88 87  1  0
 89 88  2  0
 92 91  1  0
 94 92  1  0
 94 95  1  0
 94 93  1  0
M  ISO  4  10 100  18 100  54 101  55 101
M  END
>  <TORSDO>  (65) 
F 20

>  <SCORE>  (65) 
-14.094

>  <name>  (65) 
64

>  <ligand_id>  (65) 
64

>  <original_smiles>  (65) 
[H]c1c([H])c([H])c2c(c1[H])C([H])([H])C([H])([H])C([H])([H])C2([H])N([H])C(=O)C1([H])N(C(=O)C([H])(N([H])C(=O)C([H])(N([H])C([H])([H])[H])C([H])([H])[H])C(C([H])([H])[H])(C([H])([H])[H])C([H])([H])[H])C([H])([H])c2c([H])c(OC([H])([H])C(=O)C([H])([H])N3c4c([H])c(N([H])[H])c([H])c(N([H])C(=O)N5C([H])([H])C([H])([H])C([H])([H])C([H])(n6nc(-c7c([H])c([H])c(Oc8c([H])c([H])c(F)c([H])c8F)c([H])c7[H])c(C(=O)N([H])[H])c6N([H])[H])C5([H])[H])c4C([H])([H])C3([H])[H])c([H])c([H])c2C1([H])[H]

>  <smiles>  (65) 
[H]c1c([H])c([H])c2c(c1[H])C([H])([H])C([H])([H])C([H])([H])C2([H])N([H])C(=O)C1([H])N(C(=O)C([H])(N([H])C(=O)C([H])(N([H])C([H])([H])[H])C([H])([H])[H])C(C([H])([H])[H])(C([H])([H])[H])C([H])([H])[H])C([H])([H])c2c([H])c(OC([H])([H])C(=O)C([H])([H])N3c4c([H])c(N([H])[H])c([H])c(N([H])C(=O)N5C([H])([H])C([H])([H])C([H])([H])C([H])(n6nc(-c7c([H])c([H])c(Oc8c([H])c([H])c(F)c([H])c8F)c([H])c7[H])c(C(=O)N([H])[H])c6N([H])[H])C5([H])[H])c4C([H])([H])C3([H])[H])c([H])c([H])c2C1([H])[H]

$$$$
65:0:0
     RDKit          3D

 98107  0  0  1  0  0  0  0  0999 V2000
  -31.0070  -18.0990   20.7250 C   0  0  0  0  0  3  0  0  0  0  0  0
  -30.7870  -19.5420   20.7280 C   0  0  0  0  0  0  0  0  0  0  0  0
  -29.4930  -19.9990   20.4940 C   0  0  0  0  0  0  0  0  0  0  0  0
  -29.8860  -17.3130   20.5390 C   0  0  0  0  0  0  0  0  0  0  0  0
  -28.5370  -18.4850   20.3070 S   0  0  0  0  0  0  0  0  0  0  0  0
  -30.5580  -14.8180   20.3650 C   0  0  0  0  0  0  0  0  0  0  0  0
  -30.3990  -12.5420   19.3290 C   0  0  0  0  0  2  0  0  0  0  0  0
  -29.4590  -12.6190   18.1040 C   0  0  0  0  0  2  0  0  0  0  0  0
  -27.9870  -12.4420   18.5270 C   0  0  0  0  0  2  0  0  0  0  0  0
  -27.6080  -13.3180   19.7500 C   0  0  0  0  0  3  0  0  0  0  0  0
  -28.6620  -13.2070   20.8730 C   0  0  0  0  0  2  0  0  0  0  0  0
  -29.9600  -13.5770   20.2920 N   0  0  0  0  0  0  0  0  0  0  0  0
  -31.7490  -14.9460   20.0630 O   0  0  0  0  0  0  0  0  0  0  0  0
  -29.7170  -15.9110   20.5590 N   0  0  0  0  0  0  0  0  0  0  0  0
  -28.7580  -15.6200   20.6830 H   0  0  0  0  0  0  0  0  0  0  0  0
  -25.2140  -13.9160   20.4520 C   0  0  0  0  0  0  0  0  0  0  0  0
  -24.1470  -13.1440   20.8220 C   0  0  0  0  0  0  0  0  0  0  0  0
  -24.6130  -11.7940   20.8110 C   0  0  0  0  0  0  0  0  0  0  0  0
  -26.2600  -13.0340   20.2330 N   0  0  0  0  0  0  0  0  0  0  0  0
  -25.9060  -11.7550   20.5120 N   0  0  0  0  0  0  0  0  0  0  0  0
  -23.8870  -10.5320   21.0080 C   0  0  0  0  0  0  0  0  0  0  0  0
  -24.3180   -9.5720   21.9500 C   0  0  0  0  0  3  0  0  0  0  0  0
  -23.5920   -8.3750   22.1350 C   0  0  0  0  0  3  0  0  0  0  0  0
  -22.4220   -8.1310   21.3780 C   0  0  0  0  0  0  0  0  0  0  0  0
  -22.0110   -9.0790   20.4250 C   0  0  0  0  0  3  0  0  0  0  0  0
  -22.7380  -10.2670   20.2370 C   0  0  0  0  0  3  0  0  0  0  0  0
  -21.6690   -6.9860   21.4710 O   0  0  0  0  0  0  0  0  0  0  0  0
  -21.6230   -6.2460   22.6260 C   0  0  0  0  0  0  0  0  0  0  0  0
  -21.2070   -6.8050   23.8530 C   0  0  0  0  0  3  0  0  0  0  0  0
  -21.1080   -5.9920   25.0000 C   0  0  0  0  0  3  0  0  0  0  0  0
  -21.4170   -4.6210   24.9210 C   0  0  0  0  0  0  0  0  0  0  0  0
  -21.8290   -4.0610   23.6990 C   0  0  0  0  0  3  0  0  0  0  0  0
  -21.9280   -4.8710   22.5530 C   0  0  0  0  0  0  0  0  0  0  0  0
  -22.3040   -4.3230   21.3730 F   0  0  0  0  0  0  0  0  0  0  0  0
  -21.3160   -3.8390   26.0210 F   0  0  0  0  0  0  0  0  0  0  0  0
  -22.7460  -13.6220   21.0730 C   0  0  0  0  0  0  0  0  0  0  0  0
  -22.0090  -12.9330   21.9380 N   0  0  0  0  0  0  0  0  0  0  0  0
  -22.3140  -14.6420   20.5390 O   0  0  0  0  0  0  0  0  0  0  0  0
  -22.3720  -12.1090   22.3930 H   0  0  0  0  0  0  0  0  0  0  0  0
  -21.0690  -13.2360   22.1480 H   0  0  0  0  0  0  0  0  0  0  0  0
  -25.3750  -15.2840   20.2570 N   0  0  0  0  0  0  0  0  0  0  0  0
  -24.5970  -15.9290   20.3440 H   0  0  0  0  0  0  0  0  0  0  0  0
  -26.2040  -15.7200   19.8760 H   0  0  0  0  0  0  0  0  0  0  0  0
  -31.9430  -20.4080   20.9680 C   0  0  0  0  0  0  0  0  0  0  0  0
  -31.9670  -21.2490   22.0060 N   0  0  0  0  0  0  0  0  0  0  0  0
  -33.0160  -20.3220   20.1730 N   0  0  0  0  0  4  0  0  0  0  0  0
  -31.1890  -21.2540   22.6480 H   0  0  0  0  0  0  0  0  0  0  0  0
  -32.7510  -21.8400   22.2260 H   0  0  0  0  0  0  0  0  0  0  0  0
  -33.0010  -19.6970   19.3820 H   0  0  0  0  0  0  0  0  0  0  0  0
  -33.8460  -20.8790   20.3040 H   0  0  0  0  0  0  0  0  0  0  0  0
  -27.2070  -23.0550   19.9820 C   0  0  0  0  0  2  0  0  0  0  0  0
  -27.6050  -21.5760   19.7170 C   0  0  0  0  0  2  0  0  0  0  0  0
  -29.4280  -22.6960   20.7500 C   0  0  0  0  0  2  0  0  0  0  0  0
  -28.5040  -23.8730   20.1530 C   0  0  0  0  0  3  0  0  0  0  0  0
  -28.8950  -21.3420   20.3590 N   0  0  0  0  0  0  0  0  0  0  0  0
  -28.2640  -25.1350   20.9710 N   0  0  0  0  0  0  0  0  0  0  0  0
  -27.3110  -25.1360   21.3210 H   0  0  0  0  0  0  0  0  0  0  0  0
  -28.4100  -26.4460   20.1930 O   0  0  0  0  0  0  0  0  0  0  0  0
  -24.6210  -31.9040   23.2450 C   0  0  0  0  0  0  0  0  0  0  0  0
  -27.2960  -27.3100   20.2470 C   0  0  0  0  0  0  0  0  0  0  0  0
  -23.4480  -30.4900   21.5980 C   0  0  0  0  0  3  0  0  0  0  0  0
  -24.9270  -28.9330   20.2000 C   0  0  0  0  0  0  0  0  0  0  0  0
  -25.9910  -30.8120   21.4470 C   0  0  0  0  0  2  0  0  0  0  0  0
  -26.0870  -29.4230   20.8150 C   0  0  0  0  0  0  0  0  0  0  0  0
  -27.2750  -28.6220   20.8310 C   0  0  0  0  0  3  0  0  0  0  0  0
  -26.1150  -26.8820   19.6090 C   0  0  0  0  0  3  0  0  0  0  0  0
  -24.9440  -27.6670   19.5900 C   0  0  0  0  0  3  0  0  0  0  0  0
  -23.6860  -29.8070   20.2250 C   0  0  0  0  0  2  0  0  0  0  0  0
  -24.7040  -31.0890   22.1530 N   0  0  0  0  0  0  0  0  0  0  0  0
  -23.5300  -32.1780   23.7650 O   0  0  0  0  0  0  0  0  0  0  0  0
  -22.7780  -29.4760   22.5560 C   0  0  0  0  0  0  0  0  0  0  0  0
  -21.4520  -29.2990   22.4250 N   0  0  0  0  0  0  0  0  0  0  0  0
  -23.4530  -28.8500   23.3780 O   0  0  0  0  0  0  0  0  0  0  0  0
  -20.9650  -29.8560   21.7360 H   0  0  0  0  0  0  0  0  0  0  0  0
  -18.0720  -28.1090   22.9260 C   0  0  0  0  0  0  0  0  0  0  0  0
  -20.6320  -28.3600   23.1920 C   0  0  0  0  0  3  0  0  0  0  0  0
  -20.7280  -26.9310   22.6090 C   0  0  0  0  0  2  0  0  0  0  0  0
  -19.6230  -26.6170   21.5950 C   0  0  0  0  0  2  0  0  0  0  0  0
  -18.2430  -26.7630   22.2410 C   0  0  0  0  0  2  0  0  0  0  0  0
  -19.1940  -28.8660   23.3570 C   0  0  0  0  0  0  0  0  0  0  0  0
  -18.9800  -30.1250   23.9590 C   0  0  0  0  0  3  0  0  0  0  0  0
  -17.6770  -30.6290   24.1310 C   0  0  0  0  0  3  0  0  0  0  0  0
  -16.5690  -29.8700   23.7150 C   0  0  0  0  0  3  0  0  0  0  0  0
  -16.7680  -28.6110   23.1180 C   0  0  0  0  0  3  0  0  0  0  0  0
  -25.8910  -32.5510   23.8800 C   0  0  0  0  0  3  0  0  0  0  0  0
  -26.3940  -31.7950   25.1720 C   0  0  1  0  0  0  0  0  0  0  0  0
  -25.2870  -31.5650   26.2270 C   0  0  0  0  0  1  0  0  0  0  0  0
  -26.9860  -30.4150   24.8050 C   0  0  0  0  0  1  0  0  0  0  0  0
  -27.5320  -32.6000   25.8410 C   0  0  0  0  0  1  0  0  0  0  0  0
  -25.5690  -33.9510   24.1960 N   0  0  0  0  0  0  0  0  0  0  0  0
  -25.9050  -35.0010   23.4350 C   0  0  0  0  0  0  0  0  0  0  0  0
  -26.5870  -34.8940   22.4130 O   0  0  0  0  0  0  0  0  0  0  0  0
  -24.9650  -34.1070   24.9900 H   0  0  0  0  0  0  0  0  0  0  0  0
  -24.1730  -36.7850   23.0490 C   0  0  0  0  0  1  0  0  0  0  0  0
  -25.4060  -36.3900   23.8790 C   0  0  0  0  0  3  0  0  0  0  0  0
  -27.5260  -37.2910   24.7300 C   0  0  0  0  0  1  0  0  0  0  0  0
  -26.4350  -37.4470   23.7720 N   0  0  0  0  0  0  0  0  0  0  0  0
  -26.0220  -38.3660   23.9080 H   0  0  0  0  0  0  0  0  0  0  0  0
  1  2  1  0
  2 44  1  0
  3  2  2  0
  4 14  1  0
  4  1  2  0
  5  3  1  0
  5  4  1  0
  6 14  1  0
  7 12  1  0
  8  9  1  0
  8  7  1  0
 10  9  1  0
 10 19  1  0
 10 11  1  0
 12  6  1  0
 12 11  1  0
 13  6  2  0
 14 15  1  0
 16 17  2  0
 17 36  1  0
 18 17  1  0
 18 21  1  0
 19 16  1  0
 19 20  1  0
 20 18  2  0
 21 22  1  0
 22 23  2  0
 24 27  1  0
 24 23  1  0
 25 24  2  0
 26 25  1  0
 26 21  2  0
 27 28  1  0
 28 29  1  0
 29 30  2  0
 31 30  1  0
 31 35  1  0
 32 31  2  0
 33 28  2  0
 33 32  1  0
 34 33  1  0
 36 37  1  0
 37 40  1  0
 37 39  1  0
 38 36  2  0
 41 42  1  0
 41 16  1  0
 43 41  1  0
 44 45  1  0
 45 48  1  0
 45 47  1  0
 46 50  1  0
 46 44  2  0
 49 46  1  0
 51 54  1  0
 52 51  1  0
 52 55  1  0
 54 53  1  0
 54 56  1  0
 55  3  1  0
 55 53  1  0
 56 57  1  0
 58 60  1  0
 58 56  1  0
 59 70  2  0
 60 65  1  0
 61 69  1  0
 61 71  1  0
 62 68  1  0
 62 64  1  0
 63 69  1  0
 64 65  2  0
 64 63  1  0
 66 60  2  0
 67 66  1  0
 67 62  2  0
 68 61  1  0
 69 59  1  0
 71 73  2  0
 72 71  1  0
 74 72  1  0
 75 84  2  0
 75 80  1  0
 76 72  1  0
 76 80  1  0
 77 76  1  0
 78 79  1  0
 78 77  1  0
 79 75  1  0
 80 81  2  0
 81 82  1  0
 83 82  2  0
 84 83  1  0
 85 59  1  0
 85 90  1  0
 85 86  1  0
 86 89  1  1
 86 87  1  0
 88 86  1  0
 90 93  1  0
 91 95  1  0
 91 90  1  0
 92 91  2  0
 95 94  1  0
 97 95  1  0
 97 98  1  0
 97 96  1  0
M  ISO  4   6 100  14 100  56 101  58 101
M  END
>  <TORSDO>  (66) 
F 19

>  <SCORE>  (66) 
-14.724

>  <name>  (66) 
65

>  <ligand_id>  (66) 
65

>  <original_smiles>  (66) 
[H]c1c([H])c([H])c2c(c1[H])C([H])([H])C([H])([H])C([H])([H])C2([H])N([H])C(=O)C1([H])N(C(=O)C([H])(N([H])C(=O)C([H])(N([H])C([H])([H])[H])C([H])([H])[H])C(C([H])([H])[H])(C([H])([H])[H])C([H])([H])[H])C([H])([H])c2c([H])c(ON([H])C3([H])C([H])([H])N(c4sc(N([H])C(=O)N5C([H])([H])C([H])([H])C([H])([H])C([H])(n6nc(-c7c([H])c([H])c(Oc8c([H])c([H])c(F)c([H])c8F)c([H])c7[H])c(C(=O)N([H])[H])c6N([H])[H])C5([H])[H])c([H])c4C(N([H])[H])=[N+]([H])[H])C([H])([H])C3([H])[H])c([H])c([H])c2C1([H])[H]

>  <smiles>  (66) 
[H]c1c([H])c([H])c2c(c1[H])C([H])([H])C([H])([H])C([H])([H])C2([H])N([H])C(=O)C1([H])N(C(=O)C([H])(N([H])C(=O)C([H])(N([H])C([H])([H])[H])C([H])([H])[H])C(C([H])([H])[H])(C([H])([H])[H])C([H])([H])[H])C([H])([H])c2c([H])c(ON([H])C3([H])C([H])([H])N(c4sc(N([H])C(=O)N5C([H])([H])C([H])([H])C([H])([H])C([H])(n6nc(-c7c([H])c([H])c(Oc8c([H])c([H])c(F)c([H])c8F)c([H])c7[H])c(C(=O)N([H])[H])c6N([H])[H])C5([H])[H])c([H])c4C(N([H])[H])=[N+]([H])[H])C([H])([H])C3([H])[H])c([H])c([H])c2C1([H])[H]

$$$$
66:0:0
     RDKit          3D

 99108  0  0  1  0  0  0  0  0999 V2000
  -30.1050  -20.5950   19.9510 C   0  0  0  0  0  3  0  0  0  0  0  0
  -28.3200  -23.1440   21.9750 C   0  0  0  0  0  2  0  0  0  0  0  0
  -28.3090  -21.8190   21.2100 C   0  0  0  0  0  2  0  0  0  0  0  0
  -29.0410  -24.1770   21.0740 C   0  0  2  0  0  0  0  0  0  0  0  0
  -30.1170  -23.1990   20.3870 C   0  0  2  0  0  0  0  0  0  0  0  0
  -31.4260  -23.2240   21.2220 C   0  0  0  0  0  1  0  0  0  0  0  0
  -30.4540  -23.6510   18.9490 C   0  0  0  0  0  1  0  0  0  0  0  0
  -29.5560  -21.7830   20.4230 N   0  0  0  0  0  0  0  0  0  0  0  0
  -31.2490  -20.6680   19.2790 N   0  0  0  0  0  0  0  0  0  0  0  0
  -31.6350  -19.8330   18.8650 H   0  0  0  0  0  0  0  0  0  0  0  0
  -31.6820  -21.5530   19.0800 H   0  0  0  0  0  0  0  0  0  0  0  0
  -27.5250  -17.7930   19.9670 C   0  0  0  0  0  3  0  0  0  0  0  0
  -28.1510  -19.0370   19.7880 C   0  0  0  0  0  3  0  0  0  0  0  0
  -28.2650  -16.6800   20.3950 C   0  0  0  0  0  3  0  0  0  0  0  0
  -30.2810  -18.0400   20.4620 C   0  0  0  0  0  3  0  0  0  0  0  0
  -29.5180  -19.2130   20.0940 C   0  0  0  0  0  0  0  0  0  0  0  0
  -29.6570  -16.7480   20.5870 C   0  0  0  0  0  0  0  0  0  0  0  0
  -30.8140  -14.5250   20.2610 C   0  0  0  0  0  0  0  0  0  0  0  0
  -30.5280  -12.2700   19.2450 C   0  0  0  0  0  2  0  0  0  0  0  0
  -29.5770  -12.3730   18.0330 C   0  0  0  0  0  2  0  0  0  0  0  0
  -28.1050  -12.2470   18.4720 C   0  0  0  0  0  2  0  0  0  0  0  0
  -27.7670  -13.1570   19.6790 C   0  0  0  0  0  3  0  0  0  0  0  0
  -28.8330  -13.0280   20.7960 C   0  0  0  0  0  2  0  0  0  0  0  0
  -30.1590  -13.3200   20.2170 N   0  0  0  0  0  0  0  0  0  0  0  0
  -31.8740  -14.7150   19.6570 O   0  0  0  0  0  0  0  0  0  0  0  0
  -30.2610  -15.5020   21.0260 N   0  0  0  0  0  0  0  0  0  0  0  0
  -29.6820  -15.0510   21.7180 H   0  0  0  0  0  0  0  0  0  0  0  0
  -25.3820  -13.8040   20.4020 C   0  0  0  0  0  0  0  0  0  0  0  0
  -24.3120  -13.0590   20.8090 C   0  0  0  0  0  0  0  0  0  0  0  0
  -24.7450  -11.6990   20.7750 C   0  0  0  0  0  0  0  0  0  0  0  0
  -26.4140  -12.9080   20.1740 N   0  0  0  0  0  0  0  0  0  0  0  0
  -26.0310  -11.6330   20.4500 N   0  0  0  0  0  0  0  0  0  0  0  0
  -23.9890  -10.4570   20.9750 C   0  0  0  0  0  0  0  0  0  0  0  0
  -24.4030   -9.4870   21.9130 C   0  0  0  0  0  3  0  0  0  0  0  0
  -23.6510   -8.3080   22.1030 C   0  0  0  0  0  3  0  0  0  0  0  0
  -22.4710   -8.0910   21.3520 C   0  0  0  0  0  0  0  0  0  0  0  0
  -22.0760   -9.0480   20.4010 C   0  0  0  0  0  3  0  0  0  0  0  0
  -22.8290  -10.2190   20.2120 C   0  0  0  0  0  3  0  0  0  0  0  0
  -21.6900   -6.9640   21.4530 O   0  0  0  0  0  0  0  0  0  0  0  0
  -21.6260   -6.2370   22.6140 C   0  0  0  0  0  0  0  0  0  0  0  0
  -21.1810   -6.8050   23.8280 C   0  0  0  0  0  3  0  0  0  0  0  0
  -21.0640   -6.0020   24.9800 C   0  0  0  0  0  3  0  0  0  0  0  0
  -21.3820   -4.6320   24.9180 C   0  0  0  0  0  0  0  0  0  0  0  0
  -21.8220   -4.0640   23.7100 C   0  0  0  0  0  3  0  0  0  0  0  0
  -21.9400   -4.8630   22.5600 C   0  0  0  0  0  0  0  0  0  0  0  0
  -22.3430   -4.3070   21.3930 F   0  0  0  0  0  0  0  0  0  0  0  0
  -21.2620   -3.8580   26.0230 F   0  0  0  0  0  0  0  0  0  0  0  0
  -22.9300  -13.5700   21.0970 C   0  0  0  0  0  0  0  0  0  0  0  0
  -22.2010  -12.8960   21.9790 N   0  0  0  0  0  0  0  0  0  0  0  0
  -22.5080  -14.6000   20.5750 O   0  0  0  0  0  0  0  0  0  0  0  0
  -22.5620  -12.0630   22.4210 H   0  0  0  0  0  0  0  0  0  0  0  0
  -21.2730  -13.2160   22.2120 H   0  0  0  0  0  0  0  0  0  0  0  0
  -25.5390  -15.1630   20.1730 N   0  0  0  0  0  0  0  0  0  0  0  0
  -24.6930  -15.7220   20.1570 H   0  0  0  0  0  0  0  0  0  0  0  0
  -26.2110  -15.4680   19.4810 H   0  0  0  0  0  0  0  0  0  0  0  0
  -29.0210  -25.6980   23.0110 C   0  0  0  0  0  1  0  0  0  0  0  0
  -29.7230  -25.1450   21.8930 O   0  0  0  0  0  0  0  0  0  0  0  0
  -28.0370  -25.0200   20.1520 C   0  0  0  0  0  2  0  0  0  0  0  0
  -28.2310  -26.4820   20.1010 O   0  0  0  0  0  0  0  0  0  0  0  0
  -24.6040  -31.8780   23.1320 C   0  0  0  0  0  0  0  0  0  0  0  0
  -27.1000  -27.2990   20.0570 C   0  0  0  0  0  0  0  0  0  0  0  0
  -23.3430  -30.4810   21.5260 C   0  0  0  0  0  3  0  0  0  0  0  0
  -24.7440  -28.9040   20.0830 C   0  0  0  0  0  0  0  0  0  0  0  0
  -25.8770  -30.7780   21.2840 C   0  0  0  0  0  2  0  0  0  0  0  0
  -25.9260  -29.3970   20.6480 C   0  0  0  0  0  0  0  0  0  0  0  0
  -27.1060  -28.6030   20.6270 C   0  0  0  0  0  3  0  0  0  0  0  0
  -25.9000  -26.8510   19.4620 C   0  0  0  0  0  3  0  0  0  0  0  0
  -24.7290  -27.6340   19.4820 C   0  0  0  0  0  3  0  0  0  0  0  0
  -23.5160  -29.7890   20.1490 C   0  0  0  0  0  2  0  0  0  0  0  0
  -24.6270  -31.0620   22.0370 N   0  0  0  0  0  0  0  0  0  0  0  0
  -23.5390  -32.1750   23.6900 O   0  0  0  0  0  0  0  0  0  0  0  0
  -22.6910  -29.4830   22.5120 C   0  0  0  0  0  0  0  0  0  0  0  0
  -21.3630  -29.3130   22.4080 N   0  0  0  0  0  0  0  0  0  0  0  0
  -23.3780  -28.8620   23.3270 O   0  0  0  0  0  0  0  0  0  0  0  0
  -20.8670  -29.8680   21.7250 H   0  0  0  0  0  0  0  0  0  0  0  0
  -17.9840  -28.1580   22.9780 C   0  0  0  0  0  0  0  0  0  0  0  0
  -20.5490  -28.3920   23.2030 C   0  0  0  0  0  3  0  0  0  0  0  0
  -20.6250  -26.9530   22.6420 C   0  0  0  0  0  2  0  0  0  0  0  0
  -19.5040  -26.6310   21.6490 C   0  0  0  0  0  2  0  0  0  0  0  0
  -18.1340  -26.7990   22.3150 C   0  0  0  0  0  2  0  0  0  0  0  0
  -19.1180  -28.9110   23.3800 C   0  0  0  0  0  0  0  0  0  0  0  0
  -18.9230  -30.1830   23.9620 C   0  0  0  0  0  3  0  0  0  0  0  0
  -17.6270  -30.7000   24.1450 C   0  0  0  0  0  3  0  0  0  0  0  0
  -16.5070  -29.9430   23.7590 C   0  0  0  0  0  3  0  0  0  0  0  0
  -16.6870  -28.6740   23.1810 C   0  0  0  0  0  3  0  0  0  0  0  0
  -25.9120  -32.4950   23.7200 C   0  0  0  0  0  3  0  0  0  0  0  0
  -26.4810  -31.6890   24.9510 C   0  0  1  0  0  0  0  0  0  0  0  0
  -25.4300  -31.4140   26.0510 C   0  0  0  0  0  1  0  0  0  0  0  0
  -27.0570  -30.3280   24.4970 C   0  0  0  0  0  1  0  0  0  0  0  0
  -27.6500  -32.4710   25.5950 C   0  0  0  0  0  1  0  0  0  0  0  0
  -25.6170  -33.8830   24.0990 N   0  0  0  0  0  0  0  0  0  0  0  0
  -25.9190  -34.9560   23.3560 C   0  0  0  0  0  0  0  0  0  0  0  0
  -26.5450  -34.8820   22.2960 O   0  0  0  0  0  0  0  0  0  0  0  0
  -25.0600  -34.0150   24.9300 H   0  0  0  0  0  0  0  0  0  0  0  0
  -24.1850  -36.7620   23.1100 C   0  0  0  0  0  1  0  0  0  0  0  0
  -25.4490  -36.3290   23.8720 C   0  0  0  0  0  3  0  0  0  0  0  0
  -27.6010  -37.1930   24.6790 C   0  0  0  0  0  1  0  0  0  0  0  0
  -26.4800  -37.3830   23.7620 N   0  0  0  0  0  0  0  0  0  0  0  0
  -26.0790  -38.3010   23.9390 H   0  0  0  0  0  0  0  0  0  0  0  0
  1  9  1  0
  1 16  1  0
  1  8  1  0
  3  2  1  0
  4 58  1  6
  4 57  1  0
  4  2  1  0
  5  8  1  0
  5  4  1  0
  5  6  1  1
  7  5  1  0
  8  3  1  0
 10  9  1  0
 11  9  1  0
 12 14  1  0
 13 12  2  0
 13 16  1  0
 14 17  2  0
 15 17  1  0
 16 15  2  0
 17 26  1  0
 18 26  1  0
 19 24  1  0
 20 21  1  0
 20 19  1  0
 22 21  1  0
 22 31  1  0
 22 23  1  0
 24 18  1  0
 24 23  1  0
 25 18  2  0
 26 27  1  0
 28 29  2  0
 29 48  1  0
 30 29  1  0
 30 33  1  0
 31 28  1  0
 31 32  1  0
 32 30  2  0
 33 34  1  0
 34 35  2  0
 36 39  1  0
 36 35  1  0
 37 36  2  0
 38 37  1  0
 38 33  2  0
 39 40  1  0
 40 41  1  0
 41 42  2  0
 43 42  1  0
 43 47  1  0
 44 43  2  0
 45 40  2  0
 45 44  1  0
 46 45  1  0
 48 49  1  0
 49 52  1  0
 49 51  1  0
 50 48  2  0
 53 28  1  0
 54 53  1  0
 55 53  1  0
 57 56  1  0
 59 58  1  0
 60 71  2  0
 61 59  1  0
 61 66  1  0
 62 70  1  0
 62 72  1  0
 63 69  1  0
 63 65  1  0
 64 70  1  0
 65 64  1  0
 66 65  2  0
 67 68  1  0
 67 61  2  0
 68 63  2  0
 69 62  1  0
 70 60  1  0
 72 74  2  0
 73 72  1  0
 75 73  1  0
 76 85  2  0
 76 81  1  0
 77 73  1  0
 77 81  1  0
 78 77  1  0
 79 80  1  0
 79 78  1  0
 80 76  1  0
 81 82  2  0
 82 83  1  0
 84 83  2  0
 85 84  1  0
 86 60  1  0
 86 91  1  0
 86 87  1  0
 87 90  1  1
 87 88  1  0
 89 87  1  0
 91 94  1  0
 92 96  1  0
 92 91  1  0
 93 92  2  0
 96 95  1  0
 98 96  1  0
 98 99  1  0
 98 97  1  0
M  ISO  4  18 100  26 100  58 101  59 101
M  END
>  <TORSDO>  (67) 
F 19

>  <SCORE>  (67) 
-14.701

>  <name>  (67) 
66

>  <ligand_id>  (67) 
66

>  <original_smiles>  (67) 
[H]c1c([H])c(C(N2C([H])([H])C([H])([H])C(OC([H])([H])[H])(C([H])([H])Oc3c([H])c([H])c4c(c3[H])C([H])([H])N(C(=O)C([H])(N([H])C(=O)C([H])(N([H])C([H])([H])[H])C([H])([H])[H])C(C([H])([H])[H])(C([H])([H])[H])C([H])([H])[H])C([H])(C(=O)N([H])C3([H])c5c([H])c([H])c([H])c([H])c5C([H])([H])C([H])([H])C3([H])[H])C4([H])[H])C2(C([H])([H])[H])C([H])([H])[H])=[N+]([H])[H])c([H])c(N([H])C(=O)N2C([H])([H])C([H])([H])C([H])([H])C([H])(n3nc(-c4c([H])c([H])c(Oc5c([H])c([H])c(F)c([H])c5F)c([H])c4[H])c(C(=O)N([H])[H])c3N([H])[H])C2([H])[H])c1[H]

>  <smiles>  (67) 
[H]c1c([H])c(C(N2C([H])([H])C([H])([H])C(OC([H])([H])[H])(C([H])([H])Oc3c([H])c([H])c4c(c3[H])C([H])([H])N(C(=O)C([H])(N([H])C(=O)C([H])(N([H])C([H])([H])[H])C([H])([H])[H])C(C([H])([H])[H])(C([H])([H])[H])C([H])([H])[H])C([H])(C(=O)N([H])C3([H])c5c([H])c([H])c([H])c([H])c5C([H])([H])C([H])([H])C3([H])[H])C4([H])[H])C2(C([H])([H])[H])C([H])([H])[H])=[N+]([H])[H])c([H])c(N([H])C(=O)N2C([H])([H])C([H])([H])C([H])([H])C([H])(n3nc(-c4c([H])c([H])c(Oc5c([H])c([H])c(F)c([H])c5F)c([H])c4[H])c(C(=O)N([H])[H])c3N([H])[H])C2([H])[H])c1[H]

$$$$
67:0:0
     RDKit          3D

 92101  0  0  1  0  0  0  0  0999 V2000
  -30.0350  -21.0710   19.2580 C   0  0  0  0  0  3  0  0  0  0  0  0
  -30.0120  -19.7040   19.3270 C   0  0  0  0  0  3  0  0  0  0  0  0
  -28.8350  -20.4830   21.0770 C   0  0  0  0  0  3  0  0  0  0  0  0
  -29.2680  -21.5740   20.3370 C   0  0  0  0  0  0  0  0  0  0  0  0
  -29.3210  -19.2980   20.4690 N   0  0  0  0  0  0  0  0  0  0  0  0
  -30.6280  -14.5050   19.9580 C   0  0  0  0  0  0  0  0  0  0  0  0
  -30.2640  -12.3830   18.7040 C   0  0  0  0  0  2  0  0  0  0  0  0
  -29.2250  -12.6560   17.5950 C   0  0  0  0  0  2  0  0  0  0  0  0
  -27.7960  -12.4870   18.1470 C   0  0  0  0  0  2  0  0  0  0  0  0
  -27.5810  -13.2520   19.4820 C   0  0  0  0  0  3  0  0  0  0  0  0
  -28.7220  -12.9480   20.4820 C   0  0  0  0  0  2  0  0  0  0  0  0
  -29.9850  -13.3070   19.8240 N   0  0  0  0  0  0  0  0  0  0  0  0
  -31.6810  -14.7400   19.3510 O   0  0  0  0  0  0  0  0  0  0  0  0
  -29.9500  -17.4090   22.1270 C   0  0  0  0  0  2  0  0  0  0  0  0
  -30.1250  -15.8690   21.9910 C   0  0  0  0  0  2  0  0  0  0  0  0
  -29.5270  -16.7530   19.8750 C   0  0  0  0  0  2  0  0  0  0  0  0
  -29.1380  -17.8640   20.9070 C   0  0  0  0  0  3  0  0  0  0  0  0
  -29.9200  -15.5070   20.5790 N   0  0  0  0  0  0  0  0  0  0  0  0
  -25.2750  -13.8700   20.4270 C   0  0  0  0  0  0  0  0  0  0  0  0
  -24.2350  -13.0990   20.8740 C   0  0  0  0  0  0  0  0  0  0  0  0
  -24.6690  -11.7420   20.7560 C   0  0  0  0  0  0  0  0  0  0  0  0
  -26.2740  -12.9790   20.0670 N   0  0  0  0  0  0  0  0  0  0  0  0
  -25.9200  -11.6940   20.3190 N   0  0  0  0  0  0  0  0  0  0  0  0
  -23.9430  -10.4850   20.9700 C   0  0  0  0  0  0  0  0  0  0  0  0
  -24.4270   -9.4880   21.8490 C   0  0  0  0  0  3  0  0  0  0  0  0
  -23.6990   -8.2960   22.0460 C   0  0  0  0  0  3  0  0  0  0  0  0
  -22.4780   -8.0870   21.3660 C   0  0  0  0  0  0  0  0  0  0  0  0
  -22.0100   -9.0720   20.4750 C   0  0  0  0  0  3  0  0  0  0  0  0
  -22.7380  -10.2560   20.2760 C   0  0  0  0  0  3  0  0  0  0  0  0
  -21.7200   -6.9490   21.4790 O   0  0  0  0  0  0  0  0  0  0  0  0
  -21.7160   -6.2000   22.6310 C   0  0  0  0  0  0  0  0  0  0  0  0
  -21.3650   -6.7590   23.8780 C   0  0  0  0  0  3  0  0  0  0  0  0
  -21.3040   -5.9380   25.0240 C   0  0  0  0  0  3  0  0  0  0  0  0
  -21.5880   -4.5630   24.9210 C   0  0  0  0  0  0  0  0  0  0  0  0
  -21.9370   -4.0060   23.6790 C   0  0  0  0  0  3  0  0  0  0  0  0
  -21.9970   -4.8230   22.5350 C   0  0  0  0  0  0  0  0  0  0  0  0
  -22.3140   -4.2780   21.3360 F   0  0  0  0  0  0  0  0  0  0  0  0
  -21.5210   -3.7740   26.0190 F   0  0  0  0  0  0  0  0  0  0  0  0
  -22.8780  -13.5850   21.2960 C   0  0  0  0  0  0  0  0  0  0  0  0
  -22.2310  -12.8790   22.2170 N   0  0  0  0  0  0  0  0  0  0  0  0
  -22.4020  -14.6240   20.8420 O   0  0  0  0  0  0  0  0  0  0  0  0
  -22.6250  -12.0350   22.6090 H   0  0  0  0  0  0  0  0  0  0  0  0
  -21.3290  -13.1930   22.5490 H   0  0  0  0  0  0  0  0  0  0  0  0
  -25.4480  -15.2430   20.2810 N   0  0  0  0  0  0  0  0  0  0  0  0
  -24.7090  -15.9020   20.4930 H   0  0  0  0  0  0  0  0  0  0  0  0
  -26.2870  -15.6860   19.9240 H   0  0  0  0  0  0  0  0  0  0  0  0
  -28.2440  -23.9120   20.3470 C   0  0  0  0  0  0  0  0  0  0  0  0
  -29.2330  -23.0030   20.5810 N   0  0  0  0  0  0  0  0  0  0  0  0
  -27.0660  -23.7010   20.6490 O   0  0  0  0  0  0  0  0  0  0  0  0
  -30.1310  -23.4340   20.4080 H   0  0  0  0  0  0  0  0  0  0  0  0
  -28.6530  -25.2680   19.6460 C   0  0  0  0  0  2  0  0  0  0  0  0
  -28.4560  -26.5290   20.3690 O   0  0  0  0  0  0  0  0  0  0  0  0
  -24.6850  -31.8880   23.2260 C   0  0  0  0  0  0  0  0  0  0  0  0
  -27.3080  -27.3130   20.2440 C   0  0  0  0  0  0  0  0  0  0  0  0
  -23.4800  -30.4560   21.6130 C   0  0  0  0  0  3  0  0  0  0  0  0
  -24.9280  -28.8870   20.2030 C   0  0  0  0  0  0  0  0  0  0  0  0
  -26.0100  -30.7900   21.4100 C   0  0  0  0  0  2  0  0  0  0  0  0
  -26.0910  -29.4020   20.7900 C   0  0  0  0  0  0  0  0  0  0  0  0
  -27.2800  -28.6230   20.8040 C   0  0  0  0  0  3  0  0  0  0  0  0
  -26.1280  -26.8400   19.6260 C   0  0  0  0  0  3  0  0  0  0  0  0
  -24.9480  -27.6110   19.6120 C   0  0  0  0  0  3  0  0  0  0  0  0
  -23.6890  -29.7570   20.2410 C   0  0  0  0  0  2  0  0  0  0  0  0
  -24.7430  -31.0640   22.1400 N   0  0  0  0  0  0  0  0  0  0  0  0
  -23.6050  -32.1710   23.7620 O   0  0  0  0  0  0  0  0  0  0  0  0
  -22.8290  -29.4520   22.5940 C   0  0  0  0  0  0  0  0  0  0  0  0
  -21.5040  -29.2580   22.4710 N   0  0  0  0  0  0  0  0  0  0  0  0
  -23.5150  -28.8500   23.4250 O   0  0  0  0  0  0  0  0  0  0  0  0
  -21.0110  -29.8030   21.7770 H   0  0  0  0  0  0  0  0  0  0  0  0
  -18.1380  -28.0380   22.9850 C   0  0  0  0  0  0  0  0  0  0  0  0
  -20.6920  -28.3310   23.2590 C   0  0  0  0  0  3  0  0  0  0  0  0
  -20.8120  -26.8870   22.7200 C   0  0  0  0  0  2  0  0  0  0  0  0
  -19.7180  -26.5270   21.7090 C   0  0  0  0  0  2  0  0  0  0  0  0
  -18.3320  -26.6750   22.3420 C   0  0  0  0  0  2  0  0  0  0  0  0
  -19.2470  -28.8240   23.4000 C   0  0  0  0  0  0  0  0  0  0  0  0
  -19.0110  -30.1010   23.9530 C   0  0  0  0  0  3  0  0  0  0  0  0
  -17.6990  -30.5890   24.1020 C   0  0  0  0  0  3  0  0  0  0  0  0
  -16.6060  -29.8020   23.7020 C   0  0  0  0  0  3  0  0  0  0  0  0
  -16.8260  -28.5290   23.1490 C   0  0  0  0  0  3  0  0  0  0  0  0
  -25.9700  -32.5360   23.8280 C   0  0  0  0  0  3  0  0  0  0  0  0
  -25.6590  -33.9390   24.1380 N   0  0  0  0  0  0  0  0  0  0  0  0
  -25.9760  -34.9780   23.3560 C   0  0  0  0  0  0  0  0  0  0  0  0
  -26.6320  -34.8600   22.3180 O   0  0  0  0  0  0  0  0  0  0  0  0
  -25.0780  -34.1030   24.9480 H   0  0  0  0  0  0  0  0  0  0  0  0
  -24.2260  -36.7500   22.9970 C   0  0  0  0  0  1  0  0  0  0  0  0
  -25.4840  -36.3700   23.7940 C   0  0  0  0  0  3  0  0  0  0  0  0
  -27.6290  -37.2830   24.5700 C   0  0  0  0  0  1  0  0  0  0  0  0
  -26.5060  -37.4310   23.6470 N   0  0  0  0  0  0  0  0  0  0  0  0
  -26.0920  -38.3490   23.7940 H   0  0  0  0  0  0  0  0  0  0  0  0
  -26.4980  -31.7890   25.1140 C   0  0  1  0  0  0  0  0  0  0  0  0
  -25.4150  -31.5570   26.1950 C   0  0  0  0  0  1  0  0  0  0  0  0
  -27.0860  -30.4100   24.7380 C   0  0  0  0  0  1  0  0  0  0  0  0
  -27.6500  -32.6000   25.7540 C   0  0  0  0  0  1  0  0  0  0  0  0
  1  2  2  0
  1  4  1  0
  2  5  1  0
  4 48  1  0
  4  3  2  0
  5 17  1  0
  5  3  1  0
  6 18  1  0
  7 12  1  0
  8  9  1  0
  8  7  1  0
 10  9  1  0
 10 22  1  0
 10 11  1  0
 12  6  1  0
 12 11  1  0
 13  6  2  0
 15 14  1  0
 16 18  1  0
 17 16  1  0
 17 14  1  0
 18 15  1  0
 19 20  2  0
 20 39  1  0
 21 20  1  0
 21 24  1  0
 22 23  1  0
 22 19  1  0
 23 21  2  0
 24 25  1  0
 25 26  2  0
 27 30  1  0
 27 26  1  0
 28 27  2  0
 29 28  1  0
 29 24  2  0
 30 31  1  0
 31 32  1  0
 32 33  2  0
 34 33  1  0
 34 38  1  0
 35 34  2  0
 36 31  2  0
 36 35  1  0
 37 36  1  0
 39 40  1  0
 40 43  1  0
 40 42  1  0
 41 39  2  0
 44 19  1  0
 44 45  1  0
 46 44  1  0
 47 48  1  0
 47 49  2  0
 50 48  1  0
 51 47  1  0
 51 52  1  0
 53 64  2  0
 54 52  1  0
 54 59  1  0
 55 63  1  0
 55 65  1  0
 56 62  1  0
 56 58  1  0
 57 63  1  0
 58 59  2  0
 58 57  1  0
 60 54  2  0
 61 60  1  0
 61 56  2  0
 62 55  1  0
 63 53  1  0
 65 67  2  0
 66 65  1  0
 68 66  1  0
 69 78  2  0
 69 74  1  0
 70 66  1  0
 70 74  1  0
 71 70  1  0
 72 73  1  0
 72 71  1  0
 73 69  1  0
 74 75  2  0
 75 76  1  0
 77 76  2  0
 78 77  1  0
 79 53  1  0
 79 80  1  0
 79 89  1  0
 80 83  1  0
 81 85  1  0
 81 80  1  0
 82 81  2  0
 85 84  1  0
 87 85  1  0
 87 88  1  0
 87 86  1  0
 89 92  1  1
 89 90  1  0
 91 89  1  0
M  ISO  4   6 100  18 100  51 101  52 101
M  END
>  <TORSDO>  (68) 
F 18

>  <SCORE>  (68) 
-13.716

>  <name>  (68) 
67

>  <ligand_id>  (68) 
67

>  <original_smiles>  (68) 
[H]c1c([H])c([H])c2c(c1[H])C([H])([H])C([H])([H])C([H])([H])C2([H])N([H])C(=O)C1([H])N(C(=O)C([H])(N([H])C(=O)C([H])(N([H])C([H])([H])[H])C([H])([H])[H])C(C([H])([H])[H])(C([H])([H])[H])C([H])([H])[H])C([H])([H])c2c([H])c(OC([H])([H])C(=O)N([H])c3c([H])c([H])n(C4([H])C([H])([H])N(C(=O)N5C([H])([H])C([H])([H])C([H])([H])C([H])(n6nc(-c7c([H])c([H])c(Oc8c([H])c([H])c(F)c([H])c8F)c([H])c7[H])c(C(=O)N([H])[H])c6N([H])[H])C5([H])[H])C([H])([H])C4([H])[H])c3[H])c([H])c([H])c2C1([H])[H]

>  <smiles>  (68) 
[H]c1c([H])c([H])c2c(c1[H])C([H])([H])C([H])([H])C([H])([H])C2([H])N([H])C(=O)C1([H])N(C(=O)C([H])(N([H])C(=O)C([H])(N([H])C([H])([H])[H])C([H])([H])[H])C(C([H])([H])[H])(C([H])([H])[H])C([H])([H])[H])C([H])([H])c2c([H])c(OC([H])([H])C(=O)N([H])c3c([H])c([H])n(C4([H])C([H])([H])N(C(=O)N5C([H])([H])C([H])([H])C([H])([H])C([H])(n6nc(-c7c([H])c([H])c(Oc8c([H])c([H])c(F)c([H])c8F)c([H])c7[H])c(C(=O)N([H])[H])c6N([H])[H])C5([H])[H])C([H])([H])C4([H])[H])c3[H])c([H])c([H])c2C1([H])[H]

$$$$
68:0:0
     RDKit          3D

103112  0  0  1  0  0  0  0  0999 V2000
  -29.2820  -17.9320   18.3430 C   0  0  0  0  0  3  0  0  0  0  0  0
  -28.5700  -20.2570   18.2130 C   0  0  0  0  0  3  0  0  0  0  0  0
  -30.0630  -18.2140   19.4920 C   0  0  0  0  0  0  0  0  0  0  0  0
  -30.0390  -19.5400   20.0440 C   0  0  0  0  0  0  0  0  0  0  0  0
  -28.5370  -18.9410   17.7060 C   0  0  0  0  0  0  0  0  0  0  0  0
  -29.3330  -20.5850   19.3580 C   0  0  0  0  0  0  0  0  0  0  0  0
  -31.2220  -20.8920   21.7820 C   0  0  0  0  0  0  0  0  0  0  0  0
  -30.9090  -19.4890   23.7030 C   0  0  0  0  0  2  0  0  0  0  0  0
  -30.5520  -18.7670   22.4030 C   0  0  0  0  0  2  0  0  0  0  0  0
  -31.5790  -20.8020   23.2730 C   0  0  1  0  0  0  0  0  0  0  0  0
  -33.1110  -20.7350   23.4230 C   0  0  0  0  0  1  0  0  0  0  0  0
  -31.0110  -21.9890   24.0730 C   0  0  0  0  0  1  0  0  0  0  0  0
  -30.6250  -19.7700   21.3390 N   0  0  0  0  0  0  0  0  0  0  0  0
  -31.4780  -21.8920   21.1020 O   0  0  0  0  0  0  0  0  0  0  0  0
  -28.5430  -22.9440   19.7170 C   0  0  0  0  0  0  0  0  0  0  0  0
  -29.4830  -21.9750   19.7060 N   0  0  0  0  0  0  0  0  0  0  0  0
  -27.3460  -22.6960   19.9060 O   0  0  0  0  0  0  0  0  0  0  0  0
  -30.4450  -22.2700   19.8470 H   0  0  0  0  0  0  0  0  0  0  0  0
  -28.9890  -24.4150   19.5020 C   0  0  0  0  0  2  0  0  0  0  0  0
  -28.6810  -25.3840   20.6740 C   0  0  0  0  0  2  0  0  0  0  0  0
  -28.7930  -26.7870   20.3180 O   0  0  0  0  0  0  0  0  0  0  0  0
  -24.6660  -31.7470   23.4100 C   0  0  0  0  0  0  0  0  0  0  0  0
  -27.6140  -27.5130   20.2750 C   0  0  0  0  0  0  0  0  0  0  0  0
  -23.5920  -30.3600   21.6660 C   0  0  0  0  0  3  0  0  0  0  0  0
  -25.1710  -28.9370   20.2520 C   0  0  0  0  0  0  0  0  0  0  0  0
  -26.1150  -30.8180   21.6010 C   0  0  0  0  0  2  0  0  0  0  0  0
  -26.2810  -29.4740   20.9130 C   0  0  0  0  0  0  0  0  0  0  0  0
  -27.5120  -28.7690   20.9220 C   0  0  0  0  0  3  0  0  0  0  0  0
  -26.4950  -27.0180   19.5720 C   0  0  0  0  0  3  0  0  0  0  0  0
  -25.2710  -27.7120   19.5720 C   0  0  0  0  0  3  0  0  0  0  0  0
  -23.8960  -29.7500   20.2730 C   0  0  0  0  0  2  0  0  0  0  0  0
  -24.8050  -30.9920   22.2840 N   0  0  0  0  0  0  0  0  0  0  0  0
  -23.5530  -31.9570   23.9140 O   0  0  0  0  0  0  0  0  0  0  0  0
  -22.9430  -29.2800   22.5610 C   0  0  0  0  0  0  0  0  0  0  0  0
  -21.6330  -29.0480   22.3710 N   0  0  0  0  0  0  0  0  0  0  0  0
  -23.6160  -28.6550   23.3850 O   0  0  0  0  0  0  0  0  0  0  0  0
  -21.1510  -29.6180   21.6890 H   0  0  0  0  0  0  0  0  0  0  0  0
  -18.3120  -27.6330   22.5960 C   0  0  0  0  0  0  0  0  0  0  0  0
  -20.8240  -28.0400   23.0610 C   0  0  0  0  0  3  0  0  0  0  0  0
  -21.0590  -26.6350   22.4610 C   0  0  0  0  0  2  0  0  0  0  0  0
  -20.0560  -26.2750   21.3650 C   0  0  0  0  0  2  0  0  0  0  0  0
  -18.6260  -26.3120   21.9140 C   0  0  0  0  0  2  0  0  0  0  0  0
  -19.3460  -28.4510   23.1230 C   0  0  0  0  0  0  0  0  0  0  0  0
  -19.0050  -29.6920   23.7000 C   0  0  0  0  0  3  0  0  0  0  0  0
  -17.6630  -30.1120   23.7770 C   0  0  0  0  0  3  0  0  0  0  0  0
  -16.6430  -29.2860   23.2700 C   0  0  0  0  0  3  0  0  0  0  0  0
  -16.9680  -28.0500   22.6860 C   0  0  0  0  0  3  0  0  0  0  0  0
  -25.9040  -32.3970   24.1080 C   0  0  0  0  0  3  0  0  0  0  0  0
  -25.6000  -33.8140   24.3320 N   0  0  0  0  0  0  0  0  0  0  0  0
  -26.0460  -34.8140   23.5610 C   0  0  0  0  0  0  0  0  0  0  0  0
  -26.8360  -34.6450   22.6280 O   0  0  0  0  0  0  0  0  0  0  0  0
  -24.9250  -34.0250   25.0510 H   0  0  0  0  0  0  0  0  0  0  0  0
  -24.4350  -36.6180   22.8840 C   0  0  0  0  0  1  0  0  0  0  0  0
  -25.5360  -36.2300   23.8840 C   0  0  0  0  0  3  0  0  0  0  0  0
  -27.5580  -37.1180   24.9610 C   0  0  0  0  0  1  0  0  0  0  0  0
  -26.6000  -37.2570   23.8660 N   0  0  0  0  0  0  0  0  0  0  0  0
  -26.2010  -38.1900   23.9120 H   0  0  0  0  0  0  0  0  0  0  0  0
  -26.2990  -31.6840   25.4600 C   0  0  1  0  0  0  0  0  0  0  0  0
  -25.1170  -31.5260   26.4440 C   0  0  0  0  0  1  0  0  0  0  0  0
  -26.8720  -30.2750   25.1890 C   0  0  0  0  0  1  0  0  0  0  0  0
  -27.4170  -32.4820   26.1730 C   0  0  0  0  0  1  0  0  0  0  0  0
  -27.8060  -18.6490   16.5530 N   0  0  0  0  0  0  0  0  0  0  0  0
  -27.9780  -17.7760   16.0640 H   0  0  0  0  0  0  0  0  0  0  0  0
  -27.4800  -19.3910   15.9350 H   0  0  0  0  0  0  0  0  0  0  0  0
  -30.9880  -17.1180   20.0840 C   0  0  0  0  0  2  0  0  0  0  0  0
  -31.5350  -14.5980   20.0100 C   0  0  0  0  0  0  0  0  0  0  0  0
  -31.2500  -12.3030   19.1700 C   0  0  0  0  0  2  0  0  0  0  0  0
  -30.2930  -12.3770   17.9610 C   0  0  0  0  0  2  0  0  0  0  0  0
  -28.8200  -12.3100   18.4150 C   0  0  0  0  0  2  0  0  0  0  0  0
  -28.5020  -13.2960   19.5720 C   0  0  0  0  0  3  0  0  0  0  0  0
  -29.5700  -13.1820   20.6860 C   0  0  0  0  0  2  0  0  0  0  0  0
  -30.8870  -13.4040   20.0700 N   0  0  0  0  0  0  0  0  0  0  0  0
  -32.7060  -14.7160   19.6400 O   0  0  0  0  0  0  0  0  0  0  0  0
  -30.7220  -15.6670   20.1670 N   0  0  0  0  0  0  0  0  0  0  0  0
  -29.7740  -15.4290   20.4040 H   0  0  0  0  0  0  0  0  0  0  0  0
  -26.1660  -14.0500   20.3440 C   0  0  0  0  0  0  0  0  0  0  0  0
  -25.0650  -13.3420   20.7430 C   0  0  0  0  0  0  0  0  0  0  0  0
  -25.4410  -11.9650   20.6900 C   0  0  0  0  0  0  0  0  0  0  0  0
  -27.1490  -13.1070   20.0880 N   0  0  0  0  0  0  0  0  0  0  0  0
  -26.7180  -11.8470   20.3520 N   0  0  0  0  0  0  0  0  0  0  0  0
  -24.6400  -10.7480   20.8810 C   0  0  0  0  0  0  0  0  0  0  0  0
  -24.9910   -9.7710   21.8400 C   0  0  0  0  0  3  0  0  0  0  0  0
  -24.1930   -8.6200   22.0140 C   0  0  0  0  0  3  0  0  0  0  0  0
  -23.0290   -8.4380   21.2290 C   0  0  0  0  0  0  0  0  0  0  0  0
  -22.6990   -9.4000   20.2570 C   0  0  0  0  0  3  0  0  0  0  0  0
  -23.4970  -10.5430   20.0810 C   0  0  0  0  0  3  0  0  0  0  0  0
  -22.2070   -7.3390   21.3120 O   0  0  0  0  0  0  0  0  0  0  0  0
  -21.9790   -6.7030   22.5050 C   0  0  0  0  0  0  0  0  0  0  0  0
  -21.4310   -7.3790   23.6150 C   0  0  0  0  0  3  0  0  0  0  0  0
  -21.1480   -6.6730   24.8020 C   0  0  0  0  0  3  0  0  0  0  0  0
  -21.4010   -5.2900   24.8740 C   0  0  0  0  0  0  0  0  0  0  0  0
  -21.9420   -4.6120   23.7670 C   0  0  0  0  0  3  0  0  0  0  0  0
  -22.2270   -5.3180   22.5840 C   0  0  0  0  0  0  0  0  0  0  0  0
  -22.7280   -4.6570   21.5120 F   0  0  0  0  0  0  0  0  0  0  0  0
  -21.1200   -4.6060   26.0090 F   0  0  0  0  0  0  0  0  0  0  0  0
  -23.7060  -13.8990   21.0600 C   0  0  0  0  0  0  0  0  0  0  0  0
  -22.9790  -13.2550   21.9670 N   0  0  0  0  0  0  0  0  0  0  0  0
  -23.3030  -14.9390   20.5420 O   0  0  0  0  0  0  0  0  0  0  0  0
  -23.3190  -12.4090   22.4000 H   0  0  0  0  0  0  0  0  0  0  0  0
  -22.0700  -13.6080   22.2280 H   0  0  0  0  0  0  0  0  0  0  0  0
  -26.3940  -15.4090   20.1430 N   0  0  0  0  0  0  0  0  0  0  0  0
  -25.5860  -16.0220   20.1030 H   0  0  0  0  0  0  0  0  0  0  0  0
  -27.1410  -15.7390   19.5440 H   0  0  0  0  0  0  0  0  0  0  0  0
  1  3  1  0
  2  6  2  0
  3  4  2  0
  3 65  1  0
  4 13  1  0
  5  2  1  0
  5  1  2  0
  6 16  1  0
  6  4  1  0
  7 10  1  0
  9  8  1  0
 10 11  1  6
 10  8  1  0
 10 12  1  0
 13  7  1  0
 13  9  1  0
 14  7  2  0
 15 17  2  0
 16 15  1  0
 16 18  1  0
 19 15  1  0
 19 20  1  0
 21 20  1  0
 22 33  2  0
 23 21  1  0
 23 28  1  0
 24 32  1  0
 24 34  1  0
 25 31  1  0
 25 27  1  0
 26 32  1  0
 27 28  2  0
 27 26  1  0
 29 23  2  0
 30 29  1  0
 30 25  2  0
 31 24  1  0
 32 22  1  0
 34 36  2  0
 35 34  1  0
 37 35  1  0
 38 47  2  0
 38 43  1  0
 39 35  1  0
 39 43  1  0
 40 39  1  0
 41 42  1  0
 41 40  1  0
 42 38  1  0
 43 44  2  0
 44 45  1  0
 46 45  2  0
 47 46  1  0
 48 22  1  0
 48 49  1  0
 48 58  1  0
 49 52  1  0
 50 54  1  0
 50 49  1  0
 51 50  2  0
 54 53  1  0
 56 54  1  0
 56 57  1  0
 56 55  1  0
 58 61  1  1
 58 59  1  0
 60 58  1  0
 62  5  1  0
 63 62  1  0
 64 62  1  0
 65 74  1  0
 66 72  1  0
 66 74  1  0
 67 72  1  0
 68 69  1  0
 68 67  1  0
 70 69  1  0
 70 79  1  0
 70 71  1  0
 72 71  1  0
 73 66  2  0
 74 75  1  0
 76 77  2  0
 77 96  1  0
 78 77  1  0
 78 81  1  0
 79 76  1  0
 79 80  1  0
 80 78  2  0
 81 82  1  0
 82 83  2  0
 84 87  1  0
 84 83  1  0
 85 84  2  0
 86 85  1  0
 86 81  2  0
 87 88  1  0
 88 93  2  0
 88 89  1  0
 89 90  2  0
 90 91  1  0
 91 95  1  0
 92 91  2  0
 93 92  1  0
 94 93  1  0
 96 97  1  0
 97100  1  0
 97 99  1  0
 98 96  2  0
101 76  1  0
102101  1  0
103101  1  0
M  ISO  4  20 101  21 101  66 100  74 100
M  END
>  <TORSDO>  (69) 
F 22

>  <SCORE>  (69) 
-12.531

>  <name>  (69) 
68

>  <ligand_id>  (69) 
68

>  <original_smiles>  (69) 
[H]c1c([H])c([H])c2c(c1[H])C([H])([H])C([H])([H])C([H])([H])C2([H])N([H])C(=O)C1([H])N(C(=O)C([H])(N([H])C(=O)C([H])(N([H])C([H])([H])[H])C([H])([H])[H])C(C([H])([H])[H])(C([H])([H])[H])C([H])([H])[H])C([H])([H])c2c([H])c(OC([H])([H])C([H])([H])C(=O)N([H])c3c([H])c(N([H])[H])c([H])c(C([H])([H])N([H])C(=O)N4C([H])([H])C([H])([H])C([H])([H])C([H])(n5nc(-c6c([H])c([H])c(Oc7c([H])c([H])c(F)c([H])c7F)c([H])c6[H])c(C(=O)N([H])[H])c5N([H])[H])C4([H])[H])c3N3C(=O)C(C([H])([H])[H])(C([H])([H])[H])C([H])([H])C3([H])[H])c([H])c([H])c2C1([H])[H]

>  <smiles>  (69) 
[H]c1c([H])c([H])c2c(c1[H])C([H])([H])C([H])([H])C([H])([H])C2([H])N([H])C(=O)C1([H])N(C(=O)C([H])(N([H])C(=O)C([H])(N([H])C([H])([H])[H])C([H])([H])[H])C(C([H])([H])[H])(C([H])([H])[H])C([H])([H])[H])C([H])([H])c2c([H])c(OC([H])([H])C([H])([H])C(=O)N([H])c3c([H])c(N([H])[H])c([H])c(C([H])([H])N([H])C(=O)N4C([H])([H])C([H])([H])C([H])([H])C([H])(n5nc(-c6c([H])c([H])c(Oc7c([H])c([H])c(F)c([H])c7F)c([H])c6[H])c(C(=O)N([H])[H])c5N([H])[H])C4([H])[H])c3N3C(=O)C(C([H])([H])[H])(C([H])([H])[H])C([H])([H])C3([H])[H])c([H])c([H])c2C1([H])[H]

$$$$
69:0:0
     RDKit          3D

 92101  0  0  1  0  0  0  0  0999 V2000
  -28.9370  -19.9330   20.0590 C   0  0  0  0  0  3  0  0  0  0  0  0
  -30.4580  -19.1120   21.5750 C   0  0  0  0  0  3  0  0  0  0  0  0
  -29.6150  -18.7130   20.5630 C   0  0  0  0  0  0  0  0  0  0  0  0
  -29.2600  -21.1930   20.6040 C   0  0  0  0  0  0  0  0  0  0  0  0
  -30.4510  -20.8690   21.8560 S   0  0  0  0  0  0  0  0  0  0  0  0
  -30.8590  -14.8640   20.4500 C   0  0  0  0  0  0  0  0  0  0  0  0
  -30.4860  -12.6310   19.3930 C   0  0  0  0  0  2  0  0  0  0  0  0
  -29.5680  -12.5800   18.1630 C   0  0  0  0  0  2  0  0  0  0  0  0
  -28.1060  -12.3980   18.6000 C   0  0  0  0  0  2  0  0  0  0  0  0
  -27.7040  -13.3500   19.7590 C   0  0  0  0  0  3  0  0  0  0  0  0
  -28.7660  -13.4200   20.8800 C   0  0  0  0  0  2  0  0  0  0  0  0
  -30.0370  -13.7760   20.2270 N   0  0  0  0  0  0  0  0  0  0  0  0
  -32.0660  -14.6230   20.4750 O   0  0  0  0  0  0  0  0  0  0  0  0
  -30.7360  -17.5050   18.0470 C   0  0  0  0  0  2  0  0  0  0  0  0
  -29.2870  -17.3000   18.4990 C   0  0  0  0  0  2  0  0  0  0  0  0
  -31.5530  -16.8200   19.1450 C   0  0  0  0  0  2  0  0  0  0  0  0
  -29.4180  -17.1980   20.0270 C   0  0  0  0  0  3  0  0  0  0  0  0
  -30.5600  -16.1830   20.0390 N   0  0  0  0  0  0  0  0  0  0  0  0
  -25.3200  -13.9300   20.5010 C   0  0  0  0  0  0  0  0  0  0  0  0
  -24.2560  -13.1450   20.8680 C   0  0  0  0  0  0  0  0  0  0  0  0
  -24.7290  -11.7970   20.8460 C   0  0  0  0  0  0  0  0  0  0  0  0
  -26.3690  -13.0560   20.2670 N   0  0  0  0  0  0  0  0  0  0  0  0
  -26.0210  -11.7720   20.5490 N   0  0  0  0  0  0  0  0  0  0  0  0
  -24.0050  -10.5280   21.0250 C   0  0  0  0  0  0  0  0  0  0  0  0
  -24.4260   -9.5680   21.9760 C   0  0  0  0  0  3  0  0  0  0  0  0
  -23.7040   -8.3670   22.1510 C   0  0  0  0  0  3  0  0  0  0  0  0
  -22.5510   -8.1150   21.3750 C   0  0  0  0  0  0  0  0  0  0  0  0
  -22.1460   -9.0610   20.4180 C   0  0  0  0  0  3  0  0  0  0  0  0
  -22.8670  -10.2530   20.2400 C   0  0  0  0  0  3  0  0  0  0  0  0
  -21.8010   -6.9680   21.4520 O   0  0  0  0  0  0  0  0  0  0  0  0
  -21.7270   -6.2400   22.6130 C   0  0  0  0  0  0  0  0  0  0  0  0
  -21.2490   -6.7990   23.8150 C   0  0  0  0  0  3  0  0  0  0  0  0
  -21.1270   -5.9960   24.9670 C   0  0  0  0  0  3  0  0  0  0  0  0
  -21.4650   -4.6290   24.9090 C   0  0  0  0  0  0  0  0  0  0  0  0
  -21.9390   -4.0710   23.7100 C   0  0  0  0  0  3  0  0  0  0  0  0
  -22.0660   -4.8740   22.5650 C   0  0  0  0  0  0  0  0  0  0  0  0
  -22.5050   -4.3220   21.4060 F   0  0  0  0  0  0  0  0  0  0  0  0
  -21.3390   -3.8580   26.0120 F   0  0  0  0  0  0  0  0  0  0  0  0
  -22.8480  -13.6060   21.1050 C   0  0  0  0  0  0  0  0  0  0  0  0
  -22.1100  -12.9110   21.9670 N   0  0  0  0  0  0  0  0  0  0  0  0
  -22.4040  -14.6170   20.5620 O   0  0  0  0  0  0  0  0  0  0  0  0
  -22.4730  -12.0850   22.4180 H   0  0  0  0  0  0  0  0  0  0  0  0
  -21.1690  -13.2080   22.1770 H   0  0  0  0  0  0  0  0  0  0  0  0
  -25.4690  -15.3010   20.3150 N   0  0  0  0  0  0  0  0  0  0  0  0
  -26.2320  -15.7540   19.8280 H   0  0  0  0  0  0  0  0  0  0  0  0
  -24.7370  -15.9580   20.5610 H   0  0  0  0  0  0  0  0  0  0  0  0
  -28.9700  -23.7850   20.6020 C   0  0  0  0  0  0  0  0  0  0  0  0
  -28.7350  -22.4550   20.2410 N   0  0  0  0  0  0  0  0  0  0  0  0
  -29.8200  -24.0890   21.4460 O   0  0  0  0  0  0  0  0  0  0  0  0
  -28.0160  -22.3870   19.5340 H   0  0  0  0  0  0  0  0  0  0  0  0
  -28.1200  -24.9670   19.8950 C   0  0  0  0  0  2  0  0  0  0  0  0
  -28.2740  -26.4180   20.3210 O   0  0  0  0  0  0  0  0  0  0  0  0
  -24.5720  -31.9510   23.2560 C   0  0  0  0  0  0  0  0  0  0  0  0
  -27.1810  -27.3260   20.2170 C   0  0  0  0  0  0  0  0  0  0  0  0
  -23.3730  -30.5450   21.6180 C   0  0  0  0  0  3  0  0  0  0  0  0
  -24.8210  -28.9880   20.1980 C   0  0  0  0  0  0  0  0  0  0  0  0
  -25.9160  -30.8470   21.4430 C   0  0  0  0  0  2  0  0  0  0  0  0
  -25.9930  -29.4580   20.8030 C   0  0  0  0  0  0  0  0  0  0  0  0
  -27.1690  -28.6370   20.8080 C   0  0  0  0  0  3  0  0  0  0  0  0
  -25.9890  -26.9450   19.5570 C   0  0  0  0  0  3  0  0  0  0  0  0
  -24.8240  -27.7370   19.5640 C   0  0  0  0  0  3  0  0  0  0  0  0
  -23.5880  -29.8670   20.2410 C   0  0  0  0  0  2  0  0  0  0  0  0
  -24.6380  -31.1400   22.1600 N   0  0  0  0  0  0  0  0  0  0  0  0
  -23.4880  -32.2290   23.7880 O   0  0  0  0  0  0  0  0  0  0  0  0
  -22.7080  -29.5350   22.5860 C   0  0  0  0  0  0  0  0  0  0  0  0
  -21.3840  -29.3450   22.4520 N   0  0  0  0  0  0  0  0  0  0  0  0
  -23.3830  -28.9240   23.4190 O   0  0  0  0  0  0  0  0  0  0  0  0
  -20.9000  -29.8840   21.7480 H   0  0  0  0  0  0  0  0  0  0  0  0
  -18.0110  -28.1080   22.9220 C   0  0  0  0  0  0  0  0  0  0  0  0
  -20.5630  -28.4090   23.2230 C   0  0  0  0  0  3  0  0  0  0  0  0
  -20.6930  -26.9700   22.6710 C   0  0  0  0  0  2  0  0  0  0  0  0
  -19.6100  -26.6170   21.6470 C   0  0  0  0  0  2  0  0  0  0  0  0
  -18.2170  -26.7520   22.2680 C   0  0  0  0  0  2  0  0  0  0  0  0
  -19.1130  -28.8920   23.3560 C   0  0  0  0  0  0  0  0  0  0  0  0
  -18.8670  -30.1580   23.9300 C   0  0  0  0  0  3  0  0  0  0  0  0
  -17.5550  -30.6430   24.0750 C   0  0  0  0  0  3  0  0  0  0  0  0
  -16.4670  -29.8570   23.6540 C   0  0  0  0  0  3  0  0  0  0  0  0
  -16.6950  -28.5910   23.0870 C   0  0  0  0  0  3  0  0  0  0  0  0
  -25.8570  -32.5850   23.8760 C   0  0  0  0  0  3  0  0  0  0  0  0
  -25.5470  -33.9890   24.1890 N   0  0  0  0  0  0  0  0  0  0  0  0
  -25.8850  -35.0340   23.4220 C   0  0  0  0  0  0  0  0  0  0  0  0
  -26.5560  -34.9180   22.3930 O   0  0  0  0  0  0  0  0  0  0  0  0
  -24.9440  -34.1500   24.9820 H   0  0  0  0  0  0  0  0  0  0  0  0
  -24.1650  -36.8370   23.0560 C   0  0  0  0  0  1  0  0  0  0  0  0
  -25.4060  -36.4290   23.8660 C   0  0  0  0  0  3  0  0  0  0  0  0
  -27.5390  -37.3230   24.6910 C   0  0  0  0  0  1  0  0  0  0  0  0
  -26.4450  -37.4750   23.7360 N   0  0  0  0  0  0  0  0  0  0  0  0
  -26.0410  -38.3990   23.8630 H   0  0  0  0  0  0  0  0  0  0  0  0
  -26.3600  -31.8270   25.1660 C   0  0  1  0  0  0  0  0  0  0  0  0
  -25.2600  -31.6110   26.2310 C   0  0  0  0  0  1  0  0  0  0  0  0
  -26.9400  -30.4420   24.8000 C   0  0  0  0  0  1  0  0  0  0  0  0
  -27.5110  -32.6280   25.8210 C   0  0  0  0  0  1  0  0  0  0  0  0
  1  3  1  0
  1  4  2  0
  2  5  1  0
  3  2  2  0
  4  5  1  0
  6 13  2  0
  7 12  1  0
  8  9  1  0
  8  7  1  0
 10  9  1  0
 10 22  1  0
 10 11  1  0
 12  6  1  0
 12 11  1  0
 14 15  1  0
 14 16  1  0
 15 17  1  0
 16 18  1  0
 17 18  1  0
 17  3  1  0
 18  6  1  0
 19 20  2  0
 20 39  1  0
 21 20  1  0
 21 24  1  0
 22 19  1  0
 22 23  1  0
 23 21  2  0
 24 25  1  0
 25 26  2  0
 27 30  1  0
 27 26  1  0
 28 27  2  0
 29 28  1  0
 29 24  2  0
 30 31  1  0
 31 32  1  0
 32 33  2  0
 34 33  1  0
 34 38  1  0
 35 34  2  0
 36 31  2  0
 36 35  1  0
 37 36  1  0
 39 40  1  0
 40 43  1  0
 40 42  1  0
 41 39  2  0
 44 19  1  0
 44 46  1  0
 45 44  1  0
 47 49  2  0
 48 47  1  0
 48  4  1  0
 50 48  1  0
 51 52  1  0
 51 47  1  0
 53 64  2  0
 54 52  1  0
 54 59  1  0
 55 63  1  0
 55 65  1  0
 56 62  1  0
 56 58  1  0
 57 63  1  0
 58 59  2  0
 58 57  1  0
 60 61  1  0
 60 54  2  0
 61 56  2  0
 62 55  1  0
 63 53  1  0
 65 67  2  0
 66 65  1  0
 68 66  1  0
 69 78  2  0
 69 74  1  0
 70 66  1  0
 70 74  1  0
 71 70  1  0
 72 73  1  0
 72 71  1  0
 73 69  1  0
 74 75  2  0
 75 76  1  0
 77 76  2  0
 78 77  1  0
 79 53  1  0
 79 80  1  0
 79 89  1  0
 80 83  1  0
 81 85  1  0
 81 80  1  0
 82 81  2  0
 85 84  1  0
 87 88  1  0
 87 85  1  0
 87 86  1  0
 89 92  1  1
 89 90  1  0
 91 89  1  0
M  ISO  4   6 100  18 100  51 101  52 101
M  END
>  <TORSDO>  (70) 
F 18

>  <SCORE>  (70) 
-14.660

>  <name>  (70) 
69

>  <ligand_id>  (70) 
69

>  <original_smiles>  (70) 
[H]c1sc(N([H])C(=O)C([H])([H])Oc2c([H])c([H])c3c(c2[H])C([H])([H])N(C(=O)C([H])(N([H])C(=O)C([H])(N([H])C([H])([H])[H])C([H])([H])[H])C(C([H])([H])[H])(C([H])([H])[H])C([H])([H])[H])C([H])(C(=O)N([H])C2([H])c4c([H])c([H])c([H])c([H])c4C([H])([H])C([H])([H])C2([H])[H])C3([H])[H])c([H])c1C1([H])N(C(=O)N2C([H])([H])C([H])([H])C([H])([H])C([H])(n3nc(-c4c([H])c([H])c(Oc5c([H])c([H])c(F)c([H])c5F)c([H])c4[H])c(C(=O)N([H])[H])c3N([H])[H])C2([H])[H])C([H])([H])C([H])([H])C1([H])[H]

>  <smiles>  (70) 
[H]c1sc(N([H])C(=O)C([H])([H])Oc2c([H])c([H])c3c(c2[H])C([H])([H])N(C(=O)C([H])(N([H])C(=O)C([H])(N([H])C([H])([H])[H])C([H])([H])[H])C(C([H])([H])[H])(C([H])([H])[H])C([H])([H])[H])C([H])(C(=O)N([H])C2([H])c4c([H])c([H])c([H])c([H])c4C([H])([H])C([H])([H])C2([H])[H])C3([H])[H])c([H])c1C1([H])N(C(=O)N2C([H])([H])C([H])([H])C([H])([H])C([H])(n3nc(-c4c([H])c([H])c(Oc5c([H])c([H])c(F)c([H])c5F)c([H])c4[H])c(C(=O)N([H])[H])c3N([H])[H])C2([H])[H])C([H])([H])C([H])([H])C1([H])[H]

$$$$
70:0:0
     RDKit          3D

 92100  0  0  1  0  0  0  0  0999 V2000
  -30.5200  -21.0270   20.3240 C   0  0  0  0  0  3  0  0  0  0  0  0
  -30.7860  -19.6160   20.1410 C   0  0  0  0  0  3  0  0  0  0  0  0
  -29.1940  -21.3320   20.5500 C   0  0  0  0  0  0  0  0  0  0  0  0
  -29.6680  -18.8120   20.2010 C   0  0  0  0  0  0  0  0  0  0  0  0
  -28.2700  -19.8180   20.5810 S   0  0  0  0  0  0  0  0  0  0  0  0
  -28.0430  -16.8800   19.4230 O   0  0  0  0  0  0  0  0  0  0  0  0
  -30.3800  -16.9850   18.4380 O   0  0  0  0  0  0  0  0  0  0  0  0
  -29.4920  -17.0730   19.6120 S   0  0  1  0  0  0  0  0  0  0  0  0
  -30.6830  -14.6540   20.3590 C   0  0  0  0  0  0  0  0  0  0  0  0
  -30.4210  -12.4160   19.3330 C   0  0  0  0  0  2  0  0  0  0  0  0
  -29.5020  -12.5560   18.1000 C   0  0  0  0  0  2  0  0  0  0  0  0
  -28.0250  -12.4070   18.5110 C   0  0  0  0  0  2  0  0  0  0  0  0
  -27.6540  -13.2900   19.7300 C   0  0  0  0  0  3  0  0  0  0  0  0
  -28.6970  -13.1620   20.8660 C   0  0  0  0  0  2  0  0  0  0  0  0
  -30.0270  -13.4510   20.3110 N   0  0  0  0  0  0  0  0  0  0  0  0
  -31.8440  -14.7550   19.9530 O   0  0  0  0  0  0  0  0  0  0  0  0
  -29.9940  -15.8300   20.7640 N   0  0  0  0  0  0  0  0  0  0  0  0
  -29.2160  -15.7140   21.4050 H   0  0  0  0  0  0  0  0  0  0  0  0
  -25.2560  -13.9030   20.4200 C   0  0  0  0  0  0  0  0  0  0  0  0
  -24.1840  -13.1350   20.7930 C   0  0  0  0  0  0  0  0  0  0  0  0
  -24.6440  -11.7830   20.7840 C   0  0  0  0  0  0  0  0  0  0  0  0
  -26.3000  -13.0170   20.2070 N   0  0  0  0  0  0  0  0  0  0  0  0
  -25.9370  -11.7390   20.4890 N   0  0  0  0  0  0  0  0  0  0  0  0
  -23.9140  -10.5230   20.9800 C   0  0  0  0  0  0  0  0  0  0  0  0
  -24.3380   -9.5620   21.9240 C   0  0  0  0  0  3  0  0  0  0  0  0
  -23.6090   -8.3670   22.1080 C   0  0  0  0  0  3  0  0  0  0  0  0
  -22.4400   -8.1250   21.3470 C   0  0  0  0  0  0  0  0  0  0  0  0
  -22.0340   -9.0750   20.3910 C   0  0  0  0  0  3  0  0  0  0  0  0
  -22.7640  -10.2600   20.2060 C   0  0  0  0  0  3  0  0  0  0  0  0
  -21.6840   -6.9820   21.4390 O   0  0  0  0  0  0  0  0  0  0  0  0
  -21.6280   -6.2460   22.5950 C   0  0  0  0  0  0  0  0  0  0  0  0
  -21.1970   -6.8070   23.8170 C   0  0  0  0  0  3  0  0  0  0  0  0
  -21.0900   -5.9970   24.9660 C   0  0  0  0  0  3  0  0  0  0  0  0
  -21.4030   -4.6270   24.8920 C   0  0  0  0  0  0  0  0  0  0  0  0
  -21.8270   -4.0640   23.6750 C   0  0  0  0  0  3  0  0  0  0  0  0
  -21.9370   -4.8710   22.5300 C   0  0  0  0  0  0  0  0  0  0  0  0
  -22.3250   -4.3190   21.3550 F   0  0  0  0  0  0  0  0  0  0  0  0
  -21.2940   -3.8470   25.9940 F   0  0  0  0  0  0  0  0  0  0  0  0
  -22.7840  -13.6170   21.0460 C   0  0  0  0  0  0  0  0  0  0  0  0
  -22.0460  -12.9350   21.9130 N   0  0  0  0  0  0  0  0  0  0  0  0
  -22.3550  -14.6370   20.5100 O   0  0  0  0  0  0  0  0  0  0  0  0
  -22.4070  -12.1140   22.3750 H   0  0  0  0  0  0  0  0  0  0  0  0
  -21.1060  -13.2420   22.1210 H   0  0  0  0  0  0  0  0  0  0  0  0
  -25.4210  -15.2710   20.2190 N   0  0  0  0  0  0  0  0  0  0  0  0
  -24.6290  -15.9050   20.2460 H   0  0  0  0  0  0  0  0  0  0  0  0
  -26.2630  -15.7070   19.8550 H   0  0  0  0  0  0  0  0  0  0  0  0
  -28.5320  -22.5740   20.8030 N   0  0  0  0  0  0  0  0  0  0  0  0
  -27.5510  -22.4500   21.0400 H   0  0  0  0  0  0  0  0  0  0  0  0
  -28.7820  -23.8800   20.1110 C   0  0  0  0  0  2  0  0  0  0  0  0
  -26.9920  -24.9400   21.6900 C   0  0  0  0  0  1  0  0  0  0  0  0
  -28.3070  -25.1900   20.9100 C   0  0  0  0  0  3  0  0  0  0  0  0
  -28.3810  -26.5090   20.2170 O   0  0  0  0  0  0  0  0  0  0  0  0
  -24.6220  -31.8810   23.2080 C   0  0  0  0  0  0  0  0  0  0  0  0
  -27.2660  -27.3560   20.1700 C   0  0  0  0  0  0  0  0  0  0  0  0
  -23.4330  -30.4880   21.5510 C   0  0  0  0  0  3  0  0  0  0  0  0
  -24.8990  -28.9480   20.1280 C   0  0  0  0  0  0  0  0  0  0  0  0
  -25.9660  -30.8210   21.3790 C   0  0  0  0  0  2  0  0  0  0  0  0
  -26.0570  -29.4430   20.7410 C   0  0  0  0  0  0  0  0  0  0  0  0
  -27.2460  -28.6590   20.7530 C   0  0  0  0  0  3  0  0  0  0  0  0
  -26.1010  -26.9180   19.5100 C   0  0  0  0  0  3  0  0  0  0  0  0
  -24.9220  -27.6890   19.5020 C   0  0  0  0  0  3  0  0  0  0  0  0
  -23.6570  -29.8150   20.1690 C   0  0  0  0  0  2  0  0  0  0  0  0
  -24.6920  -31.0810   22.1040 N   0  0  0  0  0  0  0  0  0  0  0  0
  -23.5340  -32.1520   23.7380 O   0  0  0  0  0  0  0  0  0  0  0  0
  -22.7660  -29.4670   22.5040 C   0  0  0  0  0  0  0  0  0  0  0  0
  -21.4380  -29.2990   22.3770 N   0  0  0  0  0  0  0  0  0  0  0  0
  -23.4420  -28.8290   23.3140 O   0  0  0  0  0  0  0  0  0  0  0  0
  -20.9510  -29.8680   21.6980 H   0  0  0  0  0  0  0  0  0  0  0  0
  -18.0530  -28.1280   22.8730 C   0  0  0  0  0  0  0  0  0  0  0  0
  -20.6130  -28.3600   23.1380 C   0  0  0  0  0  3  0  0  0  0  0  0
  -20.7000  -26.9350   22.5440 C   0  0  0  0  0  2  0  0  0  0  0  0
  -19.5900  -26.6360   21.5290 C   0  0  0  0  0  2  0  0  0  0  0  0
  -18.2140  -26.7850   22.1800 C   0  0  0  0  0  2  0  0  0  0  0  0
  -19.1800  -28.8740   23.3100 C   0  0  0  0  0  0  0  0  0  0  0  0
  -18.9770  -30.1300   23.9180 C   0  0  0  0  0  3  0  0  0  0  0  0
  -17.6770  -30.6410   24.0970 C   0  0  0  0  0  3  0  0  0  0  0  0
  -16.5640  -29.8940   23.6770 C   0  0  0  0  0  3  0  0  0  0  0  0
  -16.7530  -28.6380   23.0720 C   0  0  0  0  0  3  0  0  0  0  0  0
  -25.8990  -32.5140   23.8410 C   0  0  0  0  0  3  0  0  0  0  0  0
  -26.4040  -31.7460   25.1240 C   0  0  1  0  0  0  0  0  0  0  0  0
  -25.3010  -31.5150   26.1830 C   0  0  0  0  0  1  0  0  0  0  0  0
  -26.9920  -30.3670   24.7440 C   0  0  0  0  0  1  0  0  0  0  0  0
  -27.5490  -32.5430   25.7930 C   0  0  0  0  0  1  0  0  0  0  0  0
  -25.5860  -33.9130   24.1660 N   0  0  0  0  0  0  0  0  0  0  0  0
  -25.9290  -34.9650   23.4100 C   0  0  0  0  0  0  0  0  0  0  0  0
  -26.6110  -34.8590   22.3870 O   0  0  0  0  0  0  0  0  0  0  0  0
  -24.9760  -34.0690   24.9560 H   0  0  0  0  0  0  0  0  0  0  0  0
  -24.2090  -36.7650   23.0380 C   0  0  0  0  0  1  0  0  0  0  0  0
  -25.4420  -36.3550   23.8610 C   0  0  0  0  0  3  0  0  0  0  0  0
  -27.5680  -37.2380   24.7160 C   0  0  0  0  0  1  0  0  0  0  0  0
  -26.4800  -37.4050   23.7560 N   0  0  0  0  0  0  0  0  0  0  0  0
  -26.0740  -38.3260   23.8880 H   0  0  0  0  0  0  0  0  0  0  0  0
  1  3  2  0
  2  4  2  0
  2  1  1  0
  3  5  1  0
  3 47  1  0
  4  5  1  0
  6  8  2  0
  7  8  2  0
  8  4  1  0
  8 17  1  1
  9 17  1  0
 10 15  1  0
 11 12  1  0
 11 10  1  0
 13 12  1  0
 13 22  1  0
 13 14  1  0
 15  9  1  0
 15 14  1  0
 16  9  2  0
 17 18  1  0
 19 20  2  0
 20 39  1  0
 21 20  1  0
 21 24  1  0
 22 19  1  0
 22 23  1  0
 23 21  2  0
 24 25  1  0
 25 26  2  0
 27 30  1  0
 27 26  1  0
 28 27  2  0
 29 28  1  0
 29 24  2  0
 30 31  1  0
 31 32  1  0
 32 33  2  0
 34 33  1  0
 34 38  1  0
 35 34  2  0
 36 31  2  0
 36 35  1  0
 37 36  1  0
 39 40  1  0
 40 43  1  0
 40 42  1  0
 41 39  2  0
 44 45  1  0
 44 19  1  0
 46 44  1  0
 47 48  1  0
 49 47  1  0
 49 51  1  0
 51 50  1  0
 52 51  1  0
 53 64  2  0
 54 52  1  0
 54 59  1  0
 55 63  1  0
 55 65  1  0
 56 62  1  0
 56 58  1  0
 57 63  1  0
 58 59  2  0
 58 57  1  0
 60 54  2  0
 61 60  1  0
 61 56  2  0
 62 55  1  0
 63 53  1  0
 65 67  2  0
 66 65  1  0
 68 66  1  0
 69 78  2  0
 69 74  1  0
 70 66  1  0
 70 74  1  0
 71 70  1  0
 72 73  1  0
 72 71  1  0
 73 69  1  0
 74 75  2  0
 75 76  1  0
 77 76  2  0
 78 77  1  0
 79 53  1  0
 79 84  1  0
 79 80  1  0
 80 83  1  1
 80 81  1  0
 82 80  1  0
 84 87  1  0
 85 89  1  0
 85 84  1  0
 86 85  2  0
 89 88  1  0
 91 89  1  0
 91 92  1  0
 91 90  1  0
M  ISO  4   9 100  17 100  51 101  52 101
M  END
>  <TORSDO>  (71) 
F 20

>  <SCORE>  (71) 
-13.850

>  <name>  (71) 
70

>  <ligand_id>  (71) 
70

>  <original_smiles>  (71) 
[H]c1c(N([H])C([H])([H])C([H])(Oc2c([H])c([H])c3c(c2[H])C([H])([H])N(C(=O)C([H])(N([H])C(=O)C([H])(N([H])C([H])([H])[H])C([H])([H])[H])C(C([H])([H])[H])(C([H])([H])[H])C([H])([H])[H])C([H])(C(=O)N([H])C2([H])c4c([H])c([H])c([H])c([H])c4C([H])([H])C([H])([H])C2([H])[H])C3([H])[H])C([H])([H])[H])sc(S(=O)(=O)N([H])C(=O)N2C([H])([H])C([H])([H])C([H])([H])C([H])(n3nc(-c4c([H])c([H])c(Oc5c([H])c([H])c(F)c([H])c5F)c([H])c4[H])c(C(=O)N([H])[H])c3N([H])[H])C2([H])[H])c1[H]

>  <smiles>  (71) 
[H]c1c(N([H])C([H])([H])C([H])(Oc2c([H])c([H])c3c(c2[H])C([H])([H])N(C(=O)C([H])(N([H])C(=O)C([H])(N([H])C([H])([H])[H])C([H])([H])[H])C(C([H])([H])[H])(C([H])([H])[H])C([H])([H])[H])C([H])(C(=O)N([H])C2([H])c4c([H])c([H])c([H])c([H])c4C([H])([H])C([H])([H])C2([H])[H])C3([H])[H])C([H])([H])[H])sc(S(=O)(=O)N([H])C(=O)N2C([H])([H])C([H])([H])C([H])([H])C([H])(n3nc(-c4c([H])c([H])c(Oc5c([H])c([H])c(F)c([H])c5F)c([H])c4[H])c(C(=O)N([H])[H])c3N([H])[H])C2([H])[H])c1[H]

$$$$
71:0:0
     RDKit          3D

 94 99  0  0  1  0  0  0  0  0999 V2000
  -27.2040  -17.8100   18.4810 C   0  0  0  0  0  0  0  0  0  0  0  0
  -28.5130  -18.0590   18.4390 C   0  0  0  0  0  0  0  0  0  0  0  0
  -27.7880  -20.3810   18.9820 C   0  0  0  0  0  0  0  0  0  0  0  0
  -28.2580  -23.2240   19.3950 C   0  0  0  0  0  0  0  0  0  0  0  0
  -26.8710  -16.3230   18.1370 C   0  0  0  0  0  3  0  0  0  0  0  0
  -28.2630  -15.5160   17.9710 C   0  0  0  0  0  0  0  0  0  0  0  0
  -30.2780  -16.9720   17.1250 C   0  0  0  0  0  1  0  0  0  0  0  0
  -28.8530  -19.5000   18.6800 N   0  0  0  0  0  0  0  0  0  0  0  0
  -29.1970  -16.7890   18.0920 N   0  0  0  0  0  0  0  0  0  0  0  0
  -27.6560  -21.9000   19.4380 N   0  0  0  0  0  0  0  0  0  0  0  0
  -29.3310  -23.3700   18.8030 O   0  0  0  0  0  0  0  0  0  0  0  0
  -26.3000  -19.3050   18.9050 S   0  0  0  0  0  0  0  0  0  0  0  0
  -26.7670  -22.0090   19.9070 H   0  0  0  0  0  0  0  0  0  0  0  0
  -27.5880  -24.6280   20.1280 C   0  0  0  0  0  2  0  0  0  0  0  0
  -28.1060  -26.1720   20.1420 O   0  0  0  0  0  0  0  0  0  0  0  0
  -24.8040  -32.0990   23.5910 C   0  0  0  0  0  0  0  0  0  0  0  0
  -27.1830  -27.2970   20.3060 C   0  0  0  0  0  0  0  0  0  0  0  0
  -23.5660  -30.7320   21.9780 C   0  0  0  0  0  3  0  0  0  0  0  0
  -24.9450  -29.1700   20.4820 C   0  0  0  0  0  0  0  0  0  0  0  0
  -26.1350  -30.9260   21.7690 C   0  0  0  0  0  2  0  0  0  0  0  0
  -26.1640  -29.5390   21.0670 C   0  0  0  0  0  0  0  0  0  0  0  0
  -27.2960  -28.6130   20.9670 C   0  0  0  0  0  3  0  0  0  0  0  0
  -25.9400  -27.0870   19.6950 C   0  0  0  0  0  3  0  0  0  0  0  0
  -24.8510  -27.9620   19.7930 C   0  0  0  0  0  3  0  0  0  0  0  0
  -23.7470  -30.0970   20.5810 C   0  0  0  0  0  2  0  0  0  0  0  0
  -24.8600  -31.2760   22.4980 N   0  0  0  0  0  0  0  0  0  0  0  0
  -23.7250  -32.3860   24.1380 O   0  0  0  0  0  0  0  0  0  0  0  0
  -22.9050  -29.7060   22.9340 C   0  0  0  0  0  0  0  0  0  0  0  0
  -21.5870  -29.4780   22.7790 N   0  0  0  0  0  0  0  0  0  0  0  0
  -23.5800  -29.1220   23.7860 O   0  0  0  0  0  0  0  0  0  0  0  0
  -21.0960  -30.0020   22.0690 H   0  0  0  0  0  0  0  0  0  0  0  0
  -18.2690  -28.0670   23.1580 C   0  0  0  0  0  0  0  0  0  0  0  0
  -20.7860  -28.5220   23.5480 C   0  0  0  0  0  3  0  0  0  0  0  0
  -21.0170  -27.0750   23.0530 C   0  0  0  0  0  2  0  0  0  0  0  0
  -19.9980  -26.6290   21.9980 C   0  0  0  0  0  2  0  0  0  0  0  0
  -18.5750  -26.7050   22.5590 C   0  0  0  0  0  2  0  0  0  0  0  0
  -19.3070  -28.9270   23.6080 C   0  0  0  0  0  0  0  0  0  0  0  0
  -18.9670  -30.1940   24.1280 C   0  0  0  0  0  3  0  0  0  0  0  0
  -17.6230  -30.6050   24.2020 C   0  0  0  0  0  3  0  0  0  0  0  0
  -16.6000  -29.7460   23.7680 C   0  0  0  0  0  3  0  0  0  0  0  0
  -16.9220  -28.4780   23.2520 C   0  0  0  0  0  3  0  0  0  0  0  0
  -26.0880  -32.7370   24.1970 C   0  0  0  0  0  3  0  0  0  0  0  0
  -25.7870  -34.1450   24.5070 N   0  0  0  0  0  0  0  0  0  0  0  0
  -26.1570  -35.1920   23.7580 C   0  0  0  0  0  0  0  0  0  0  0  0
  -26.8540  -35.0740   22.7470 O   0  0  0  0  0  0  0  0  0  0  0  0
  -25.1720  -34.3120   25.2900 H   0  0  0  0  0  0  0  0  0  0  0  0
  -24.4780  -37.0240   23.3500 C   0  0  0  0  0  1  0  0  0  0  0  0
  -25.6840  -36.5930   24.2000 C   0  0  0  0  0  3  0  0  0  0  0  0
  -27.8130  -37.4320   25.0920 C   0  0  0  0  0  1  0  0  0  0  0  0
  -26.7400  -37.6260   24.1190 N   0  0  0  0  0  0  0  0  0  0  0  0
  -26.3480  -38.5530   24.2610 H   0  0  0  0  0  0  0  0  0  0  0  0
  -26.5910  -31.9910   25.4950 C   0  0  1  0  0  0  0  0  0  0  0  0
  -25.4890  -31.7740   26.5580 C   0  0  0  0  0  1  0  0  0  0  0  0
  -27.1760  -30.6040   25.1430 C   0  0  0  0  0  1  0  0  0  0  0  0
  -27.7380  -32.7970   26.1480 C   0  0  0  0  0  1  0  0  0  0  0  0
  -28.4740  -13.7650   18.5780 C   0  0  0  0  0  3  0  0  0  0  0  0
  -30.0790  -13.3730   21.3210 C   0  0  2  0  0  0  0  0  0  0  0  0
  -31.3680  -13.3840   20.4340 C   0  0  0  0  0  1  0  0  0  0  0  0
  -30.4470  -15.0050   19.7850 C   0  0  0  0  0 15  0  0  0  0  0  0
  -28.6170  -15.2140   20.6380 C   0  0  0  0  0  1  0  0  0  0  0  0
  -27.7930  -13.9290   21.6650 C   0  0  0  0  0  2  0  0  0  0  0  0
  -28.9450  -12.6790   22.2740 C   0  0  0  0  0  1  0  0  0  0  0  0
  -30.4910  -12.4700   21.6060 N   0  0  0  0  0  1  0  0  0  0  0  0
  -30.4850  -14.4270   22.1580 O   0  0  0  0  0  1  0  0  0  0  0  0
  -29.2090  -12.9490   19.9110 N   0  0  0  0  0  0  0  0  0  0  0  0
  -29.1840  -11.9470   19.8010 H   0  0  0  0  0  0  0  0  0  0  0  0
  -25.2930  -13.8970   21.1580 C   0  0  0  0  0  0  0  0  0  0  0  0
  -24.3050  -12.9550   21.2170 C   0  0  0  0  0  0  0  0  0  0  0  0
  -24.9490  -11.6830   21.2730 C   0  0  0  0  0  0  0  0  0  0  0  0
  -26.5020  -13.2550   21.2540 N   0  0  0  0  0  0  0  0  0  0  0  0
  -26.2800  -11.8830   21.3030 N   0  0  0  0  0  0  0  0  0  0  0  0
  -24.3350  -10.3240   21.3160 C   0  0  0  0  0  0  0  0  0  0  0  0
  -24.6740   -9.3570   22.2930 C   0  0  0  0  0  3  0  0  0  0  0  0
  -24.0260   -8.0970   22.3320 C   0  0  0  0  0  3  0  0  0  0  0  0
  -23.0130   -7.7830   21.3960 C   0  0  0  0  0  0  0  0  0  0  0  0
  -22.6780   -8.7390   20.4210 C   0  0  0  0  0  3  0  0  0  0  0  0
  -23.3300   -9.9870   20.3800 C   0  0  0  0  0  3  0  0  0  0  0  0
  -22.3570   -6.5730   21.3320 O   0  0  0  0  0  0  0  0  0  0  0  0
  -22.2040   -5.7660   22.4340 C   0  0  0  0  0  0  0  0  0  0  0  0
  -21.5640   -6.2240   23.6060 C   0  0  0  0  0  3  0  0  0  0  0  0
  -21.3620   -5.3450   24.6900 C   0  0  0  0  0  3  0  0  0  0  0  0
  -21.7920   -4.0080   24.6020 C   0  0  0  0  0  0  0  0  0  0  0  0
  -22.4220   -3.5460   23.4340 C   0  0  0  0  0  3  0  0  0  0  0  0
  -22.6230   -4.4210   22.3520 C   0  0  0  0  0  0  0  0  0  0  0  0
  -23.2110   -3.9630   21.2200 F   0  0  0  0  0  0  0  0  0  0  0  0
  -21.5950   -3.1630   25.6420 F   0  0  0  0  0  0  0  0  0  0  0  0
  -22.8320  -13.2470   21.2290 C   0  0  0  0  0  0  0  0  0  0  0  0
  -22.0490  -12.4650   21.9640 N   0  0  0  0  0  0  0  0  0  0  0  0
  -22.3800  -14.2270   20.6410 O   0  0  0  0  0  0  0  0  0  0  0  0
  -22.4250  -11.6870   22.4860 H   0  0  0  0  0  0  0  0  0  0  0  0
  -21.0610  -12.6630   22.0160 H   0  0  0  0  0  0  0  0  0  0  0  0
  -25.2700  -15.2810   21.1490 N   0  0  0  0  0  0  0  0  0  0  0  0
  -24.4100  -15.8140   21.1470 H   0  0  0  0  0  0  0  0  0  0  0  0
  -26.0980  -15.8560   21.2060 H   0  0  0  0  0  0  0  0  0  0  0  0
  1 12  1  0
  2  1  2  0
  2  8  1  0
  3 10  1  0
  4 10  1  0
  4 14  1  0
  5  1  1  0
  6  9  1  0
  6  5  2  0
  6 56  1  0
  7  9  1  0
  8  3  2  0
  9  2  1  0
 10 13  1  0
 11  4  2  0
 12  3  1  0
 14 15  1  0
 15 17  1  0
 16 27  2  0
 17 22  1  0
 18 26  1  0
 18 28  1  0
 19 25  1  0
 19 21  1  0
 20 26  1  0
 21 20  1  0
 22 21  2  0
 23 24  1  0
 23 17  2  0
 24 19  2  0
 25 18  1  0
 26 16  1  0
 28 30  2  0
 29 28  1  0
 31 29  1  0
 32 41  2  0
 32 37  1  0
 33 29  1  0
 33 37  1  0
 34 33  1  0
 35 36  1  0
 35 34  1  0
 36 32  1  0
 37 38  2  0
 38 39  1  0
 40 39  2  0
 41 40  1  0
 42 16  1  0
 42 43  1  0
 42 52  1  0
 43 46  1  0
 44 48  1  0
 44 43  1  0
 45 44  2  0
 48 47  1  0
 50 48  1  0
 50 51  1  0
 50 49  1  0
 52 55  1  1
 52 53  1  0
 54 52  1  0
 56 65  2  0
 57 63  1  0
 57 64  1  0
 57 62  1  6
 58 57  1  0
 60 61  1  0
 66 65  1  0
 67 68  2  0
 67 70  1  0
 68 87  1  0
 68 69  1  0
 69 71  2  0
 69 72  1  0
 70 71  1  0
 70 61  1  0
 72 73  1  0
 73 74  2  0
 75 74  1  0
 76 75  2  0
 77 76  1  0
 77 72  2  0
 78 75  1  0
 78 79  1  0
 79 80  1  0
 80 81  2  0
 82 81  1  0
 82 86  1  0
 83 82  2  0
 84 79  2  0
 84 83  1  0
 85 84  1  0
 87 88  1  0
 88 91  1  0
 88 90  1  0
 89 87  2  0
 92 67  1  0
 92 94  1  0
 93 92  1  0
M  ISO  4  14 101  15 101  57 100  65 100
M  END
>  <TORSDO>  (72) 
F 18

>  <SCORE>  (72) 
-5.133

>  <name>  (72) 
71

>  <ligand_id>  (72) 
71

>  <original_smiles>  (72) 
[H]c1c([H])c([H])c2c(c1[H])C([H])([H])C([H])([H])C([H])([H])C2([H])N([H])C(=O)C1([H])N(C(=O)C([H])(N([H])C(=O)C([H])(N([H])C([H])([H])[H])C([H])([H])[H])C(C([H])([H])[H])(C([H])([H])[H])C([H])([H])[H])C([H])([H])c2c([H])c(OC([H])([H])C(=O)N([H])c3nc4c(s3)C([H])([H])C([H])(C([H])([H])N([H])C(=O)N3C([H])([H])C([H])([H])C([H])([H])C([H])(n5nc(-c6c([H])c([H])c(Oc7c([H])c([H])c(F)c([H])c7F)c([H])c6[H])c(C(=O)N([H])[H])c5N([H])[H])C3([H])[H])N4C([H])([H])[H])c([H])c([H])c2C1([H])[H]

>  <smiles>  (72) 
[H]c1c([H])c([H])c2c(c1[H])C([H])([H])C([H])([H])C([H])([H])C2([H])N([H])C(=O)C1([H])N(C(=O)C([H])(N([H])C(=O)C([H])(N([H])C([H])([H])[H])C([H])([H])[H])C(C([H])([H])[H])(C([H])([H])[H])C([H])([H])[H])C([H])([H])c2c([H])c(OC([H])([H])C(=O)N([H])c3nc4c(s3)C([H])([H])C([H])(C([H])([H])N([H])C(=O)N3C([H])([H])C([H])([H])C([H])([H])C([H])(n5nc(-c6c([H])c([H])c(Oc7c([H])c([H])c(F)c([H])c7F)c([H])c6[H])c(C(=O)N([H])[H])c5N([H])[H])C3([H])[H])N4C([H])([H])[H])c([H])c([H])c2C1([H])[H]

$$$$
72:0:0
     RDKit          3D

 95103  0  0  1  0  0  0  0  0999 V2000
  -28.8200  -22.7610   20.1070 C   0  0  0  0  0  3  0  0  0  0  0  0
  -27.6050  -22.3650   19.2960 C   0  0  0  0  0  1  0  0  0  0  0  0
  -29.6750  -21.7860   20.5770 N   0  0  0  0  0  0  0  0  0  0  0  0
  -29.0390  -24.1090   20.3240 N   0  0  0  0  0  0  0  0  0  0  0  0
  -30.2830  -21.9830   21.3620 H   0  0  0  0  0  0  0  0  0  0  0  0
  -29.9050  -24.3810   20.7660 H   0  0  0  0  0  0  0  0  0  0  0  0
  -29.4560  -19.8330   19.0310 C   0  0  0  0  0  3  0  0  0  0  0  0
  -29.6680  -18.4300   19.2150 C   0  0  0  0  0  0  0  0  0  0  0  0
  -30.0690  -18.1890   20.5070 C   0  0  0  0  0  0  0  0  0  0  0  0
  -29.6880  -20.3900   20.2610 C   0  0  0  0  0  0  0  0  0  0  0  0
  -30.0970  -19.4180   21.1580 O   0  0  0  0  0  0  0  0  0  0  0  0
  -29.5250  -17.4690   18.2150 N   0  0  0  0  0  0  0  0  0  0  0  0
  -29.5860  -17.7870   17.2520 H   0  0  0  0  0  0  0  0  0  0  0  0
  -30.0180  -16.5930   18.3500 H   0  0  0  0  0  0  0  0  0  0  0  0
  -30.5260  -16.9700   21.3250 C   0  0  0  0  0  2  0  0  0  0  0  0
  -30.6690  -14.5580   20.5030 C   0  0  0  0  0  0  0  0  0  0  0  0
  -30.3730  -12.3700   19.3710 C   0  0  0  0  0  2  0  0  0  0  0  0
  -29.4350  -12.5280   18.1550 C   0  0  0  0  0  2  0  0  0  0  0  0
  -27.9610  -12.3920   18.5820 C   0  0  0  0  0  2  0  0  0  0  0  0
  -27.6110  -13.2570   19.8230 C   0  0  0  0  0  3  0  0  0  0  0  0
  -28.6630  -13.0740   20.9390 C   0  0  0  0  0  2  0  0  0  0  0  0
  -29.9830  -13.3840   20.3680 N   0  0  0  0  0  0  0  0  0  0  0  0
  -31.8190  -14.6940   20.0810 O   0  0  0  0  0  0  0  0  0  0  0  0
  -29.9830  -15.6210   20.9910 N   0  0  0  0  0  0  0  0  0  0  0  0
  -29.0180  -15.4550   21.2380 H   0  0  0  0  0  0  0  0  0  0  0  0
  -25.2110  -13.8670   20.5110 C   0  0  0  0  0  0  0  0  0  0  0  0
  -24.1380  -13.0980   20.8800 C   0  0  0  0  0  0  0  0  0  0  0  0
  -24.6000  -11.7470   20.8640 C   0  0  0  0  0  0  0  0  0  0  0  0
  -26.2560  -12.9830   20.2980 N   0  0  0  0  0  0  0  0  0  0  0  0
  -25.8920  -11.7030   20.5680 N   0  0  0  0  0  0  0  0  0  0  0  0
  -23.8690  -10.4850   21.0580 C   0  0  0  0  0  0  0  0  0  0  0  0
  -24.3050   -9.5120   21.9840 C   0  0  0  0  0  3  0  0  0  0  0  0
  -23.5770   -8.3170   22.1660 C   0  0  0  0  0  3  0  0  0  0  0  0
  -22.3970   -8.0850   21.4190 C   0  0  0  0  0  0  0  0  0  0  0  0
  -21.9780   -9.0460   20.4820 C   0  0  0  0  0  3  0  0  0  0  0  0
  -22.7090  -10.2340   20.3000 C   0  0  0  0  0  3  0  0  0  0  0  0
  -21.6380   -6.9430   21.5120 O   0  0  0  0  0  0  0  0  0  0  0  0
  -21.6110   -6.1880   22.6580 C   0  0  0  0  0  0  0  0  0  0  0  0
  -21.2280   -6.7340   23.9020 C   0  0  0  0  0  3  0  0  0  0  0  0
  -21.1480   -5.9050   25.0380 C   0  0  0  0  0  3  0  0  0  0  0  0
  -21.4400   -4.5320   24.9330 C   0  0  0  0  0  0  0  0  0  0  0  0
  -21.8170   -3.9870   23.6940 C   0  0  0  0  0  3  0  0  0  0  0  0
  -21.9000   -4.8120   22.5580 C   0  0  0  0  0  0  0  0  0  0  0  0
  -22.2430   -4.2770   21.3620 F   0  0  0  0  0  0  0  0  0  0  0  0
  -21.3560   -3.7350   26.0230 F   0  0  0  0  0  0  0  0  0  0  0  0
  -22.7390  -13.5790   21.1340 C   0  0  0  0  0  0  0  0  0  0  0  0
  -22.0030  -12.8900   22.0000 N   0  0  0  0  0  0  0  0  0  0  0  0
  -22.3060  -14.5970   20.6010 O   0  0  0  0  0  0  0  0  0  0  0  0
  -22.3650  -12.0630   22.4540 H   0  0  0  0  0  0  0  0  0  0  0  0
  -21.0630  -13.1920   22.2140 H   0  0  0  0  0  0  0  0  0  0  0  0
  -25.3820  -15.2340   20.3190 N   0  0  0  0  0  0  0  0  0  0  0  0
  -24.6200  -15.8960   20.4070 H   0  0  0  0  0  0  0  0  0  0  0  0
  -26.2340  -15.6530   19.9690 H   0  0  0  0  0  0  0  0  0  0  0  0
  -28.1810  -25.1890   19.7290 C   0  0  0  0  0  2  0  0  0  0  0  0
  -28.3350  -26.5300   20.2200 O   0  0  0  0  0  0  0  0  0  0  0  0
  -24.5990  -31.8770   23.2450 C   0  0  0  0  0  0  0  0  0  0  0  0
  -27.2030  -27.3600   20.1480 C   0  0  0  0  0  0  0  0  0  0  0  0
  -23.3820  -30.4820   21.6140 C   0  0  0  0  0  3  0  0  0  0  0  0
  -24.8250  -28.9480   20.1670 C   0  0  0  0  0  0  0  0  0  0  0  0
  -25.9190  -30.8050   21.4120 C   0  0  0  0  0  2  0  0  0  0  0  0
  -25.9940  -29.4320   20.7640 C   0  0  0  0  0  0  0  0  0  0  0  0
  -27.1820  -28.6460   20.7580 C   0  0  0  0  0  3  0  0  0  0  0  0
  -26.0120  -26.9400   19.4960 C   0  0  0  0  0  3  0  0  0  0  0  0
  -24.8330  -27.7010   19.5290 C   0  0  0  0  0  3  0  0  0  0  0  0
  -23.5830  -29.8140   20.2310 C   0  0  0  0  0  2  0  0  0  0  0  0
  -24.6520  -31.0710   22.1470 N   0  0  0  0  0  0  0  0  0  0  0  0
  -23.5210  -32.1550   23.7880 O   0  0  0  0  0  0  0  0  0  0  0  0
  -22.7300  -29.4580   22.5730 C   0  0  0  0  0  0  0  0  0  0  0  0
  -21.4040  -29.2770   22.4520 N   0  0  0  0  0  0  0  0  0  0  0  0
  -23.4160  -28.8310   23.3840 O   0  0  0  0  0  0  0  0  0  0  0  0
  -20.9090  -29.8390   21.7740 H   0  0  0  0  0  0  0  0  0  0  0  0
  -18.0330  -28.0760   22.9580 C   0  0  0  0  0  0  0  0  0  0  0  0
  -20.5900  -28.3390   23.2250 C   0  0  0  0  0  3  0  0  0  0  0  0
  -20.6950  -26.9060   22.6530 C   0  0  0  0  0  2  0  0  0  0  0  0
  -19.5930  -26.5800   21.6400 C   0  0  0  0  0  2  0  0  0  0  0  0
  -18.2110  -26.7250   22.2860 C   0  0  0  0  0  2  0  0  0  0  0  0
  -19.1500  -28.8410   23.3840 C   0  0  0  0  0  0  0  0  0  0  0  0
  -18.9310  -30.1060   23.9710 C   0  0  0  0  0  3  0  0  0  0  0  0
  -17.6260  -30.6070   24.1340 C   0  0  0  0  0  3  0  0  0  0  0  0
  -16.5220  -29.8390   23.7270 C   0  0  0  0  0  3  0  0  0  0  0  0
  -16.7260  -28.5750   23.1440 C   0  0  0  0  0  3  0  0  0  0  0  0
  -25.8870  -32.5060   23.8570 C   0  0  0  0  0  3  0  0  0  0  0  0
  -26.4170  -31.7290   25.1250 C   0  0  1  0  0  0  0  0  0  0  0  0
  -25.3340  -31.4850   26.2030 C   0  0  0  0  0  1  0  0  0  0  0  0
  -26.9940  -30.3530   24.7200 C   0  0  0  0  0  1  0  0  0  0  0  0
  -27.5750  -32.5190   25.7770 C   0  0  0  0  0  1  0  0  0  0  0  0
  -25.5820  -33.9030   24.1940 N   0  0  0  0  0  0  0  0  0  0  0  0
  -25.9050  -34.9580   23.4330 C   0  0  0  0  0  0  0  0  0  0  0  0
  -26.5620  -34.8570   22.3940 O   0  0  0  0  0  0  0  0  0  0  0  0
  -24.9930  -34.0540   25.0000 H   0  0  0  0  0  0  0  0  0  0  0  0
  -24.1660  -36.7450   23.1140 C   0  0  0  0  0  1  0  0  0  0  0  0
  -25.4230  -36.3430   23.9020 C   0  0  0  0  0  3  0  0  0  0  0  0
  -27.5720  -37.2300   24.6930 C   0  0  0  0  0  1  0  0  0  0  0  0
  -26.4510  -37.4000   23.7710 N   0  0  0  0  0  0  0  0  0  0  0  0
  -26.0470  -38.3180   23.9310 H   0  0  0  0  0  0  0  0  0  0  0  0
  1  2  1  0
  1  4  1  0
  1  3  1  0
  3  5  1  0
  4  6  1  0
  7  8  1  0
  7 10  2  0
  8  9  2  0
  9 11  1  0
  9 15  1  0
 10  3  1  0
 10 11  1  0
 12 14  1  0
 12  8  1  0
 13 12  1  0
 16 24  1  0
 17 22  1  0
 18 19  1  0
 18 17  1  0
 20 19  1  0
 20 29  1  0
 20 21  1  0
 22 16  1  0
 22 21  1  0
 23 16  2  0
 24 25  1  0
 24 15  1  0
 26 27  2  0
 27 46  1  0
 28 27  1  0
 28 31  1  0
 29 26  1  0
 29 30  1  0
 30 28  2  0
 31 32  1  0
 32 33  2  0
 34 37  1  0
 34 33  1  0
 35 34  2  0
 36 35  1  0
 36 31  2  0
 37 38  1  0
 38 39  1  0
 39 40  2  0
 41 40  1  0
 41 45  1  0
 42 41  2  0
 43 38  2  0
 43 42  1  0
 44 43  1  0
 46 47  1  0
 47 50  1  0
 47 49  1  0
 48 46  2  0
 51 52  1  0
 51 26  1  0
 53 51  1  0
 54 55  1  0
 54  4  1  0
 56 67  2  0
 57 55  1  0
 57 62  1  0
 58 66  1  0
 58 68  1  0
 59 65  1  0
 59 61  1  0
 60 66  1  0
 61 60  1  0
 62 61  2  0
 63 64  1  0
 63 57  2  0
 64 59  2  0
 65 58  1  0
 66 56  1  0
 68 70  2  0
 69 68  1  0
 71 69  1  0
 72 81  2  0
 72 77  1  0
 73 69  1  0
 73 77  1  0
 74 73  1  0
 75 76  1  0
 75 74  1  0
 76 72  1  0
 77 78  2  0
 78 79  1  0
 80 79  2  0
 81 80  1  0
 82 56  1  0
 82 87  1  0
 82 83  1  0
 83 86  1  1
 83 84  1  0
 85 83  1  0
 87 90  1  0
 88 92  1  0
 88 87  1  0
 89 88  2  0
 92 91  1  0
 94 92  1  0
 94 95  1  0
 94 93  1  0
M  ISO  4  16 100  24 100  54 101  55 101
M  END
>  <TORSDO>  (73) 
F 20

>  <SCORE>  (73) 
-14.296

>  <name>  (73) 
72

>  <ligand_id>  (73) 
72

>  <original_smiles>  (73) 
[H]c1c([H])c([H])c2c(c1[H])C([H])([H])C([H])([H])C([H])([H])C2([H])N([H])C(=O)C1([H])N(C(=O)C([H])(N([H])C(=O)C([H])(N([H])C([H])([H])[H])C([H])([H])[H])C(C([H])([H])[H])(C([H])([H])[H])C([H])([H])[H])C([H])([H])c2c([H])c(OC([H])([H])[N+]([H])=C(N([H])c3oc(C([H])([H])N([H])C(=O)N4C([H])([H])C([H])([H])C([H])([H])C([H])(n5nc(-c6c([H])c([H])c(Oc7c([H])c([H])c(F)c([H])c7F)c([H])c6[H])c(C(=O)N([H])[H])c5N([H])[H])C4([H])[H])c(N([H])[H])c3[H])C([H])([H])[H])c([H])c([H])c2C1([H])[H]

>  <smiles>  (73) 
[H]c1c([H])c([H])c2c(c1[H])C([H])([H])C([H])([H])C([H])([H])C2([H])N([H])C(=O)C1([H])N(C(=O)C([H])(N([H])C(=O)C([H])(N([H])C([H])([H])[H])C([H])([H])[H])C(C([H])([H])[H])(C([H])([H])[H])C([H])([H])[H])C([H])([H])c2c([H])c(OC([H])([H])[N+]([H])=C(N([H])c3oc(C([H])([H])N([H])C(=O)N4C([H])([H])C([H])([H])C([H])([H])C([H])(n5nc(-c6c([H])c([H])c(Oc7c([H])c([H])c(F)c([H])c7F)c([H])c6[H])c(C(=O)N([H])[H])c5N([H])[H])C4([H])[H])c(N([H])[H])c3[H])C([H])([H])[H])c([H])c([H])c2C1([H])[H]

$$$$
73:0:0
     RDKit          3D

 98107  0  0  1  0  0  0  0  0999 V2000
  -28.7690  -23.8230   21.0320 C   0  0  0  0  0  0  0  0  0  0  0  0
  -29.4440  -21.2790   20.9280 C   0  0  0  0  0  3  0  0  0  0  0  0
  -28.3130  -24.2410   18.7510 C   0  0  0  0  0  2  0  0  0  0  0  0
  -28.5180  -22.7110   18.9800 C   0  0  0  0  0  2  0  0  0  0  0  0
  -28.0030  -24.8600   20.1210 C   0  0  0  0  0  3  0  0  0  0  0  0
  -28.9790  -22.4980   20.3750 N   0  0  0  0  0  0  0  0  0  0  0  0
  -29.5390  -21.2300   22.2620 N   0  0  0  0  0  0  0  0  0  0  0  0
  -29.1070  -24.0520   22.1980 O   0  0  0  0  0  0  0  0  0  0  0  0
  -29.9310  -20.4210   22.7160 H   0  0  0  0  0  0  0  0  0  0  0  0
  -29.3670  -22.0690   22.8000 H   0  0  0  0  0  0  0  0  0  0  0  0
  -31.0680  -17.5930   19.0440 C   0  0  0  0  0  3  0  0  0  0  0  0
  -31.4070  -18.8760   18.5840 C   0  0  0  0  0  3  0  0  0  0  0  0
  -29.6070  -18.6250   20.6790 C   0  0  0  0  0  3  0  0  0  0  0  0
  -29.9310  -19.9840   20.2220 C   0  0  0  0  0  0  0  0  0  0  0  0
  -30.1900  -17.3960   20.1330 C   0  0  0  0  0  0  0  0  0  0  0  0
  -30.9000  -20.0530   19.1720 C   0  0  0  0  0  0  0  0  0  0  0  0
  -30.6280  -14.8130   20.3290 C   0  0  0  0  0  0  0  0  0  0  0  0
  -30.4000  -12.5300   19.3360 C   0  0  0  0  0  2  0  0  0  0  0  0
  -29.4660  -12.6010   18.1080 C   0  0  0  0  0  2  0  0  0  0  0  0
  -27.9980  -12.4270   18.5390 C   0  0  0  0  0  2  0  0  0  0  0  0
  -27.6240  -13.3190   19.7530 C   0  0  0  0  0  3  0  0  0  0  0  0
  -28.6830  -13.2490   20.8760 C   0  0  0  0  0  2  0  0  0  0  0  0
  -29.9800  -13.5950   20.2820 N   0  0  0  0  0  0  0  0  0  0  0  0
  -31.8180  -14.8590   20.0050 O   0  0  0  0  0  0  0  0  0  0  0  0
  -29.9060  -15.9870   20.5670 N   0  0  0  0  0  0  0  0  0  0  0  0
  -29.0000  -15.8390   20.9840 H   0  0  0  0  0  0  0  0  0  0  0  0
  -25.2380  -13.9060   20.4820 C   0  0  0  0  0  0  0  0  0  0  0  0
  -24.1740  -13.1310   20.8540 C   0  0  0  0  0  0  0  0  0  0  0  0
  -24.6400  -11.7810   20.8310 C   0  0  0  0  0  0  0  0  0  0  0  0
  -26.2830  -13.0280   20.2480 N   0  0  0  0  0  0  0  0  0  0  0  0
  -25.9310  -11.7450   20.5230 N   0  0  0  0  0  0  0  0  0  0  0  0
  -23.9150  -10.5190   21.0260 C   0  0  0  0  0  0  0  0  0  0  0  0
  -24.3460   -9.5550   21.9650 C   0  0  0  0  0  3  0  0  0  0  0  0
  -23.6190   -8.3590   22.1490 C   0  0  0  0  0  3  0  0  0  0  0  0
  -22.4470   -8.1170   21.3930 C   0  0  0  0  0  0  0  0  0  0  0  0
  -22.0360   -9.0690   20.4430 C   0  0  0  0  0  3  0  0  0  0  0  0
  -22.7630  -10.2560   20.2580 C   0  0  0  0  0  3  0  0  0  0  0  0
  -21.6920   -6.9730   21.4850 O   0  0  0  0  0  0  0  0  0  0  0  0
  -21.6410   -6.2370   22.6410 C   0  0  0  0  0  0  0  0  0  0  0  0
  -21.2100   -6.7980   23.8630 C   0  0  0  0  0  3  0  0  0  0  0  0
  -21.1050   -5.9890   25.0120 C   0  0  0  0  0  3  0  0  0  0  0  0
  -21.4200   -4.6180   24.9390 C   0  0  0  0  0  0  0  0  0  0  0  0
  -21.8430   -4.0560   23.7220 C   0  0  0  0  0  3  0  0  0  0  0  0
  -21.9490   -4.8620   22.5760 C   0  0  0  0  0  0  0  0  0  0  0  0
  -22.3370   -4.3120   21.4000 F   0  0  0  0  0  0  0  0  0  0  0  0
  -21.3120   -3.8380   26.0400 F   0  0  0  0  0  0  0  0  0  0  0  0
  -22.7760  -13.6080   21.1200 C   0  0  0  0  0  0  0  0  0  0  0  0
  -22.0450  -12.9140   21.9850 N   0  0  0  0  0  0  0  0  0  0  0  0
  -22.3400  -14.6330   20.5960 O   0  0  0  0  0  0  0  0  0  0  0  0
  -22.4100  -12.0840   22.4300 H   0  0  0  0  0  0  0  0  0  0  0  0
  -21.1080  -13.2170   22.2060 H   0  0  0  0  0  0  0  0  0  0  0  0
  -25.4000  -15.2760   20.2960 N   0  0  0  0  0  0  0  0  0  0  0  0
  -24.6270  -15.9270   20.3990 H   0  0  0  0  0  0  0  0  0  0  0  0
  -26.2410  -15.7140   19.9420 H   0  0  0  0  0  0  0  0  0  0  0  0
  -31.4650  -21.2450   18.6990 N   0  0  0  0  0  0  0  0  0  0  0  0
  -32.2680  -21.1600   18.0820 H   0  0  0  0  0  0  0  0  0  0  0  0
  -31.5940  -22.0160   19.3450 H   0  0  0  0  0  0  0  0  0  0  0  0
  -28.2620  -26.3510   20.2720 O   0  0  0  0  0  0  0  0  0  0  0  0
  -24.6090  -31.8860   23.2430 C   0  0  0  0  0  0  0  0  0  0  0  0
  -27.1800  -27.2660   20.1840 C   0  0  0  0  0  0  0  0  0  0  0  0
  -23.3930  -30.4870   21.6140 C   0  0  0  0  0  3  0  0  0  0  0  0
  -24.8310  -28.9330   20.1710 C   0  0  0  0  0  0  0  0  0  0  0  0
  -25.9360  -30.7880   21.4140 C   0  0  0  0  0  2  0  0  0  0  0  0
  -26.0080  -29.4040   20.7670 C   0  0  0  0  0  0  0  0  0  0  0  0
  -27.1830  -28.5830   20.7640 C   0  0  0  0  0  3  0  0  0  0  0  0
  -25.9840  -26.8820   19.5330 C   0  0  0  0  0  3  0  0  0  0  0  0
  -24.8260  -27.6820   19.5410 C   0  0  0  0  0  3  0  0  0  0  0  0
  -23.5950  -29.8130   20.2320 C   0  0  0  0  0  2  0  0  0  0  0  0
  -24.6660  -31.0730   22.1460 N   0  0  0  0  0  0  0  0  0  0  0  0
  -23.5300  -32.1650   23.7840 O   0  0  0  0  0  0  0  0  0  0  0  0
  -22.7350  -29.4720   22.5810 C   0  0  0  0  0  0  0  0  0  0  0  0
  -21.4090  -29.2900   22.4630 N   0  0  0  0  0  0  0  0  0  0  0  0
  -23.4190  -28.8520   23.4000 O   0  0  0  0  0  0  0  0  0  0  0  0
  -20.9140  -29.8430   21.7760 H   0  0  0  0  0  0  0  0  0  0  0  0
  -18.0390  -28.0690   22.9730 C   0  0  0  0  0  0  0  0  0  0  0  0
  -20.5960  -28.3530   23.2410 C   0  0  0  0  0  3  0  0  0  0  0  0
  -20.7100  -26.9170   22.6790 C   0  0  0  0  0  2  0  0  0  0  0  0
  -19.6110  -26.5760   21.6660 C   0  0  0  0  0  2  0  0  0  0  0  0
  -18.2280  -26.7160   22.3090 C   0  0  0  0  0  2  0  0  0  0  0  0
  -19.1520  -28.8440   23.3980 C   0  0  0  0  0  0  0  0  0  0  0  0
  -18.9230  -30.1090   23.9800 C   0  0  0  0  0  3  0  0  0  0  0  0
  -17.6130  -30.6000   24.1420 C   0  0  0  0  0  3  0  0  0  0  0  0
  -16.5150  -29.8230   23.7350 C   0  0  0  0  0  3  0  0  0  0  0  0
  -16.7290  -28.5590   23.1560 C   0  0  0  0  0  3  0  0  0  0  0  0
  -25.8950  -32.5210   23.8540 C   0  0  0  0  0  3  0  0  0  0  0  0
  -25.5870  -33.9200   24.1850 N   0  0  0  0  0  0  0  0  0  0  0  0
  -25.9150  -34.9730   23.4240 C   0  0  0  0  0  0  0  0  0  0  0  0
  -26.5780  -34.8690   22.3890 O   0  0  0  0  0  0  0  0  0  0  0  0
  -25.0000  -34.0780   24.9900 H   0  0  0  0  0  0  0  0  0  0  0  0
  -24.1920  -36.7730   23.0770 C   0  0  0  0  0  1  0  0  0  0  0  0
  -25.4330  -36.3620   23.8850 C   0  0  0  0  0  3  0  0  0  0  0  0
  -27.5700  -37.2410   24.7150 C   0  0  0  0  0  1  0  0  0  0  0  0
  -26.4680  -37.4130   23.7720 N   0  0  0  0  0  0  0  0  0  0  0  0
  -26.0630  -38.3340   23.9210 H   0  0  0  0  0  0  0  0  0  0  0  0
  -26.4200  -31.7530   25.1300 C   0  0  1  0  0  0  0  0  0  0  0  0
  -25.3340  -31.5210   26.2060 C   0  0  0  0  0  1  0  0  0  0  0  0
  -27.0010  -30.3740   24.7410 C   0  0  0  0  0  1  0  0  0  0  0  0
  -27.5760  -32.5490   25.7800 C   0  0  0  0  0  1  0  0  0  0  0  0
  1  8  2  0
  2  7  1  0
  3  4  1  0
  3  5  1  0
  4  6  1  0
  5 58  1  0
  5  1  1  0
  6  2  1  0
  6  1  1  0
  7  9  1  0
  7 10  1  0
 11 15  1  0
 12 11  2  0
 12 16  1  0
 14 13  1  0
 14  2  1  0
 15 25  1  0
 15 13  2  0
 16 14  2  0
 17 25  1  0
 18 23  1  0
 19 20  1  0
 19 18  1  0
 21 20  1  0
 21 30  1  0
 21 22  1  0
 23 17  1  0
 23 22  1  0
 24 17  2  0
 25 26  1  0
 27 28  2  0
 28 47  1  0
 29 28  1  0
 29 32  1  0
 30 27  1  0
 30 31  1  0
 31 29  2  0
 32 33  1  0
 33 34  2  0
 35 38  1  0
 35 34  1  0
 36 35  2  0
 37 36  1  0
 37 32  2  0
 38 39  1  0
 39 40  1  0
 40 41  2  0
 42 41  1  0
 42 46  1  0
 43 42  2  0
 44 39  2  0
 44 43  1  0
 45 44  1  0
 47 48  1  0
 48 51  1  0
 48 50  1  0
 49 47  2  0
 52 53  1  0
 52 27  1  0
 54 52  1  0
 55 16  1  0
 55 57  1  0
 56 55  1  0
 59 70  2  0
 60 58  1  0
 60 65  1  0
 61 69  1  0
 61 71  1  0
 62 68  1  0
 62 64  1  0
 63 69  1  0
 64 63  1  0
 65 64  2  0
 66 67  1  0
 66 60  2  0
 67 62  2  0
 68 61  1  0
 69 59  1  0
 71 73  2  0
 72 71  1  0
 74 72  1  0
 75 84  2  0
 75 80  1  0
 76 72  1  0
 76 80  1  0
 77 76  1  0
 78 79  1  0
 78 77  1  0
 79 75  1  0
 80 81  2  0
 81 82  1  0
 83 82  2  0
 84 83  1  0
 85 59  1  0
 85 86  1  0
 85 95  1  0
 86 89  1  0
 87 91  1  0
 87 86  1  0
 88 87  2  0
 91 90  1  0
 93 91  1  0
 93 94  1  0
 93 92  1  0
 95 98  1  1
 95 96  1  0
 97 95  1  0
M  ISO  4   5 101  17 100  25 100  58 101
M  END
>  <TORSDO>  (74) 
F 18

>  <SCORE>  (74) 
-15.268

>  <name>  (74) 
73

>  <ligand_id>  (74) 
73

>  <original_smiles>  (74) 
[H]c1c([H])c([H])c2c(c1[H])C([H])([H])C([H])([H])C([H])([H])C2([H])N([H])C(=O)C1([H])N(C(=O)C([H])(N([H])C(=O)C([H])(N([H])C([H])([H])[H])C([H])([H])[H])C(C([H])([H])[H])(C([H])([H])[H])C([H])([H])[H])C([H])([H])c2c([H])c(OC3([H])C(=O)N(C(c4c([H])c(N([H])C(=O)N5C([H])([H])C([H])([H])C([H])([H])C([H])(n6nc(-c7c([H])c([H])c(Oc8c([H])c([H])c(F)c([H])c8F)c([H])c7[H])c(C(=O)N([H])[H])c6N([H])[H])C5([H])[H])c([H])c([H])c4N([H])[H])=[N+]([H])[H])C([H])([H])C3([H])[H])c([H])c([H])c2C1([H])[H]

>  <smiles>  (74) 
[H]c1c([H])c([H])c2c(c1[H])C([H])([H])C([H])([H])C([H])([H])C2([H])N([H])C(=O)C1([H])N(C(=O)C([H])(N([H])C(=O)C([H])(N([H])C([H])([H])[H])C([H])([H])[H])C(C([H])([H])[H])(C([H])([H])[H])C([H])([H])[H])C([H])([H])c2c([H])c(OC3([H])C(=O)N(C(c4c([H])c(N([H])C(=O)N5C([H])([H])C([H])([H])C([H])([H])C([H])(n6nc(-c7c([H])c([H])c(Oc8c([H])c([H])c(F)c([H])c8F)c([H])c7[H])c(C(=O)N([H])[H])c6N([H])[H])C5([H])[H])c([H])c([H])c4N([H])[H])=[N+]([H])[H])C([H])([H])C3([H])[H])c([H])c([H])c2C1([H])[H]

$$$$
74:0:0
     RDKit          3D

 99108  0  0  1  0  0  0  0  0999 V2000
  -30.9150  -20.4900   20.0670 C   0  0  0  0  0  3  0  0  0  0  0  0
  -28.3550  -23.1400   20.6050 C   0  0  0  0  0  2  0  0  0  0  0  0
  -30.5970  -24.2220   20.4960 C   0  0  0  0  0  2  0  0  0  0  0  0
  -28.8870  -21.9260   19.8200 C   0  0  0  0  0  2  0  0  0  0  0  0
  -31.1580  -22.9700   19.7840 C   0  0  0  0  0  2  0  0  0  0  0  0
  -29.0890  -24.4540   20.2650 C   0  0  1  0  0  0  0  0  0  0  0  0
  -30.3490  -21.7320   20.0100 N   0  0  0  0  0  0  0  0  0  0  0  0
  -32.2090  -20.3810   20.3550 N   0  0  0  0  0  0  0  0  0  0  0  0
  -32.6450  -19.4720   20.3250 H   0  0  0  0  0  0  0  0  0  0  0  0
  -32.7620  -21.1720   20.6350 H   0  0  0  0  0  0  0  0  0  0  0  0
  -30.3190  -18.0770   20.5620 C   0  0  0  0  0  3  0  0  0  0  0  0
  -29.4400  -19.1860   18.5660 C   0  0  0  0  0  3  0  0  0  0  0  0
  -28.9410  -16.8430   18.9650 C   0  0  0  0  0  3  0  0  0  0  0  0
  -30.1910  -19.2440   19.7600 C   0  0  0  0  0  0  0  0  0  0  0  0
  -29.6990  -16.8640   20.1600 C   0  0  0  0  0  0  0  0  0  0  0  0
  -28.8090  -17.9960   18.1740 C   0  0  0  0  0  0  0  0  0  0  0  0
  -28.0910  -17.9560   17.0270 F   0  0  0  0  0  0  0  0  0  0  0  0
  -30.5680  -14.6390   20.5330 C   0  0  0  0  0  0  0  0  0  0  0  0
  -30.3090  -12.4980   19.3570 C   0  0  0  0  0  2  0  0  0  0  0  0
  -29.3660  -12.7330   18.1590 C   0  0  0  0  0  2  0  0  0  0  0  0
  -27.8920  -12.5650   18.5810 C   0  0  0  0  0  2  0  0  0  0  0  0
  -27.5390  -13.3410   19.8790 C   0  0  0  0  0  3  0  0  0  0  0  0
  -28.6050  -13.1150   20.9770 C   0  0  0  0  0  2  0  0  0  0  0  0
  -29.9250  -13.4460   20.4140 N   0  0  0  0  0  0  0  0  0  0  0  0
  -31.7120  -14.8380   20.1150 O   0  0  0  0  0  0  0  0  0  0  0  0
  -29.8030  -15.6680   20.9360 N   0  0  0  0  0  0  0  0  0  0  0  0
  -28.9420  -15.3700   21.3690 H   0  0  0  0  0  0  0  0  0  0  0  0
  -25.1190  -13.8780   20.5750 C   0  0  0  0  0  0  0  0  0  0  0  0
  -24.0710  -13.0710   20.9290 C   0  0  0  0  0  0  0  0  0  0  0  0
  -24.5720  -11.7330   20.8880 C   0  0  0  0  0  0  0  0  0  0  0  0
  -26.1910  -13.0270   20.3450 N   0  0  0  0  0  0  0  0  0  0  0  0
  -25.8640  -11.7320   20.5900 N   0  0  0  0  0  0  0  0  0  0  0  0
  -23.8810  -10.4490   21.0590 C   0  0  0  0  0  0  0  0  0  0  0  0
  -24.3100   -9.5030   22.0150 C   0  0  0  0  0  3  0  0  0  0  0  0
  -23.6190   -8.2820   22.1750 C   0  0  0  0  0  3  0  0  0  0  0  0
  -22.4830   -8.0010   21.3770 C   0  0  0  0  0  0  0  0  0  0  0  0
  -22.0730   -8.9380   20.4120 C   0  0  0  0  0  3  0  0  0  0  0  0
  -22.7660  -10.1490   20.2510 C   0  0  0  0  0  3  0  0  0  0  0  0
  -21.7640   -6.8320   21.4460 O   0  0  0  0  0  0  0  0  0  0  0  0
  -21.6710   -6.1100   22.6080 C   0  0  0  0  0  0  0  0  0  0  0  0
  -21.1240   -6.6640   23.7870 C   0  0  0  0  0  3  0  0  0  0  0  0
  -20.9840   -5.8660   24.9410 C   0  0  0  0  0  3  0  0  0  0  0  0
  -21.3810   -4.5160   24.9160 C   0  0  0  0  0  0  0  0  0  0  0  0
  -21.9210   -3.9610   23.7420 C   0  0  0  0  0  3  0  0  0  0  0  0
  -22.0630   -4.7570   22.5910 C   0  0  0  0  0  0  0  0  0  0  0  0
  -22.5640   -4.2120   21.4560 F   0  0  0  0  0  0  0  0  0  0  0  0
  -21.2400   -3.7460   26.0200 F   0  0  0  0  0  0  0  0  0  0  0  0
  -22.6590  -13.5050   21.1970 C   0  0  0  0  0  0  0  0  0  0  0  0
  -21.9410  -12.7740   22.0420 N   0  0  0  0  0  0  0  0  0  0  0  0
  -22.1980  -14.5290   20.6930 O   0  0  0  0  0  0  0  0  0  0  0  0
  -22.3240  -11.9470   22.4740 H   0  0  0  0  0  0  0  0  0  0  0  0
  -20.9930  -13.0470   22.2630 H   0  0  0  0  0  0  0  0  0  0  0  0
  -25.2470  -15.2540   20.4100 N   0  0  0  0  0  0  0  0  0  0  0  0
  -24.4600  -15.8850   20.5190 H   0  0  0  0  0  0  0  0  0  0  0  0
  -26.0900  -15.7230   20.1060 H   0  0  0  0  0  0  0  0  0  0  0  0
  -28.8000  -24.7920   18.9170 O   0  0  0  0  0  0  0  0  0  0  0  0
  -28.9060  -25.7380   18.8590 H   0  0  0  0  0  0  0  0  0  0  0  0
  -28.5390  -25.6320   21.1100 C   0  0  0  0  0  2  0  0  0  0  0  0
  -28.7030  -26.9170   20.4740 O   0  0  0  0  0  0  0  0  0  0  0  0
  -24.6910  -32.0370   23.3470 C   0  0  0  0  0  0  0  0  0  0  0  0
  -27.5360  -27.6480   20.3920 C   0  0  0  0  0  0  0  0  0  0  0  0
  -23.5680  -30.5890   21.6850 C   0  0  0  0  0  3  0  0  0  0  0  0
  -25.1030  -29.0840   20.3130 C   0  0  0  0  0  0  0  0  0  0  0  0
  -26.0860  -31.0200   21.5510 C   0  0  0  0  0  2  0  0  0  0  0  0
  -26.2290  -29.6480   20.9260 C   0  0  0  0  0  0  0  0  0  0  0  0
  -27.4520  -28.9380   20.9600 C   0  0  0  0  0  3  0  0  0  0  0  0
  -26.3980  -27.1050   19.7540 C   0  0  0  0  0  3  0  0  0  0  0  0
  -25.1820  -27.8100   19.7230 C   0  0  0  0  0  3  0  0  0  0  0  0
  -23.8350  -29.9060   20.3180 C   0  0  0  0  0  2  0  0  0  0  0  0
  -24.7980  -31.2310   22.2530 N   0  0  0  0  0  0  0  0  0  0  0  0
  -23.5870  -32.2840   23.8550 O   0  0  0  0  0  0  0  0  0  0  0  0
  -22.9200  -29.5580   22.6370 C   0  0  0  0  0  0  0  0  0  0  0  0
  -21.6070  -29.3320   22.4690 N   0  0  0  0  0  0  0  0  0  0  0  0
  -23.5950  -28.9660   23.4820 O   0  0  0  0  0  0  0  0  0  0  0  0
  -21.1230  -29.8660   21.7590 H   0  0  0  0  0  0  0  0  0  0  0  0
  -18.2550  -28.0420   22.8720 C   0  0  0  0  0  0  0  0  0  0  0  0
  -20.7950  -28.3780   23.2230 C   0  0  0  0  0  3  0  0  0  0  0  0
  -20.9580  -26.9470   22.6640 C   0  0  0  0  0  2  0  0  0  0  0  0
  -19.8980  -26.5800   21.6200 C   0  0  0  0  0  2  0  0  0  0  0  0
  -18.4930  -26.6920   22.2180 C   0  0  0  0  0  2  0  0  0  0  0  0
  -19.3360  -28.8410   23.3290 C   0  0  0  0  0  0  0  0  0  0  0  0
  -19.0620  -30.1050   23.8980 C   0  0  0  0  0  3  0  0  0  0  0  0
  -17.7390  -30.5680   24.0170 C   0  0  0  0  0  3  0  0  0  0  0  0
  -16.6720  -29.7670   23.5760 C   0  0  0  0  0  3  0  0  0  0  0  0
  -16.9310  -28.5060   23.0100 C   0  0  0  0  0  3  0  0  0  0  0  0
  -25.9410  -32.7070   23.9970 C   0  0  0  0  0  3  0  0  0  0  0  0
  -26.4290  -31.9760   25.3080 C   0  0  1  0  0  0  0  0  0  0  0  0
  -25.2990  -31.7180   26.3320 C   0  0  0  0  0  1  0  0  0  0  0  0
  -27.0790  -30.6150   24.9650 C   0  0  0  0  0  1  0  0  0  0  0  0
  -27.5190  -32.8250   26.0040 C   0  0  0  0  0  1  0  0  0  0  0  0
  -25.5980  -34.1070   24.2800 N   0  0  0  0  0  0  0  0  0  0  0  0
  -25.9280  -35.1430   23.4980 C   0  0  0  0  0  0  0  0  0  0  0  0
  -26.6260  -35.0240   22.4860 O   0  0  0  0  0  0  0  0  0  0  0  0
  -24.9830  -34.2720   25.0630 H   0  0  0  0  0  0  0  0  0  0  0  0
  -24.1650  -36.8800   23.0520 C   0  0  0  0  0  1  0  0  0  0  0  0
  -25.3990  -36.5320   23.9010 C   0  0  0  0  0  3  0  0  0  0  0  0
  -27.4950  -37.4940   24.7450 C   0  0  0  0  0  1  0  0  0  0  0  0
  -26.4090  -37.6060   23.7740 N   0  0  0  0  0  0  0  0  0  0  0  0
  -25.9790  -38.5200   23.8800 H   0  0  0  0  0  0  0  0  0  0  0  0
  1  8  1  0
  4  7  1  0
  4  2  1  0
  5  7  1  0
  5  3  1  0
  6  3  1  0
  6  2  1  0
  6 58  1  1
  7  1  1  0
  8 10  1  0
  9  8  1  0
 12 14  1  0
 13 15  2  0
 14  1  1  0
 14 11  2  0
 15 11  1  0
 15 26  1  0
 16 12  2  0
 16 13  1  0
 17 16  1  0
 18 26  1  0
 19 24  1  0
 20 21  1  0
 20 19  1  0
 22 21  1  0
 22 31  1  0
 22 23  1  0
 24 18  1  0
 24 23  1  0
 25 18  2  0
 26 27  1  0
 28 29  2  0
 29 48  1  0
 30 29  1  0
 30 33  1  0
 31 28  1  0
 31 32  1  0
 32 30  2  0
 33 34  1  0
 34 35  2  0
 36 39  1  0
 36 35  1  0
 37 36  2  0
 38 37  1  0
 38 33  2  0
 39 40  1  0
 40 41  1  0
 41 42  2  0
 43 42  1  0
 43 47  1  0
 44 43  2  0
 45 40  2  0
 45 44  1  0
 46 45  1  0
 48 49  1  0
 49 52  1  0
 49 51  1  0
 50 48  2  0
 53 54  1  0
 53 28  1  0
 55 53  1  0
 56  6  1  0
 57 56  1  0
 59 58  1  0
 60 71  2  0
 61 59  1  0
 61 66  1  0
 62 70  1  0
 62 72  1  0
 63 69  1  0
 63 65  1  0
 64 70  1  0
 65 66  2  0
 65 64  1  0
 67 61  2  0
 68 67  1  0
 68 63  2  0
 69 62  1  0
 70 60  1  0
 72 74  2  0
 73 72  1  0
 75 73  1  0
 76 85  2  0
 76 81  1  0
 77 73  1  0
 77 81  1  0
 78 77  1  0
 79 80  1  0
 79 78  1  0
 80 76  1  0
 81 82  2  0
 82 83  1  0
 84 83  2  0
 85 84  1  0
 86 60  1  0
 86 91  1  0
 86 87  1  0
 87 90  1  1
 87 88  1  0
 89 87  1  0
 91 94  1  0
 92 96  1  0
 92 91  1  0
 93 92  2  0
 96 95  1  0
 98 99  1  0
 98 96  1  0
 98 97  1  0
M  ISO  4  18 100  26 100  58 101  59 101
M  END
>  <TORSDO>  (75) 
F 19

>  <SCORE>  (75) 
-14.727

>  <name>  (75) 
74

>  <ligand_id>  (75) 
74

>  <original_smiles>  (75) 
[H]OC1(C([H])([H])Oc2c([H])c([H])c3c(c2[H])C([H])([H])N(C(=O)C([H])(N([H])C(=O)C([H])(N([H])C([H])([H])[H])C([H])([H])[H])C(C([H])([H])[H])(C([H])([H])[H])C([H])([H])[H])C([H])(C(=O)N([H])C2([H])c4c([H])c([H])c([H])c([H])c4C([H])([H])C([H])([H])C2([H])[H])C3([H])[H])C([H])([H])C([H])([H])N(C(c2c([H])c(F)c([H])c(N([H])C(=O)N3C([H])([H])C([H])([H])C([H])([H])C([H])(n4nc(-c5c([H])c([H])c(Oc6c([H])c([H])c(F)c([H])c6F)c([H])c5[H])c(C(=O)N([H])[H])c4N([H])[H])C3([H])[H])c2[H])=[N+]([H])[H])C([H])([H])C1([H])[H]

>  <smiles>  (75) 
[H]OC1(C([H])([H])Oc2c([H])c([H])c3c(c2[H])C([H])([H])N(C(=O)C([H])(N([H])C(=O)C([H])(N([H])C([H])([H])[H])C([H])([H])[H])C(C([H])([H])[H])(C([H])([H])[H])C([H])([H])[H])C([H])(C(=O)N([H])C2([H])c4c([H])c([H])c([H])c([H])c4C([H])([H])C([H])([H])C2([H])[H])C3([H])[H])C([H])([H])C([H])([H])N(C(c2c([H])c(F)c([H])c(N([H])C(=O)N3C([H])([H])C([H])([H])C([H])([H])C([H])(n4nc(-c5c([H])c([H])c(Oc6c([H])c([H])c(F)c([H])c6F)c([H])c5[H])c(C(=O)N([H])[H])c4N([H])[H])C3([H])[H])c2[H])=[N+]([H])[H])C([H])([H])C1([H])[H]

$$$$
75:0:0
     RDKit          3D

 99109  0  0  1  0  0  0  0  0999 V2000
  -30.1370  -14.0540   19.8780 C   0  0  0  0  0  0  0  0  0  0  0  0
  -30.1010  -11.5810   19.4000 C   0  0  0  0  0  2  0  0  0  0  0  0
  -29.3700  -11.3030   18.0670 C   0  0  0  0  0  2  0  0  0  0  0  0
  -27.8750  -11.0870   18.3430 C   0  0  0  0  0  2  0  0  0  0  0  0
  -27.2840  -12.1830   19.2690 C   0  0  0  0  0  3  0  0  0  0  0  0
  -28.1770  -12.4660   20.5020 C   0  0  0  0  0  2  0  0  0  0  0  0
  -29.5220  -12.8120   20.0320 N   0  0  0  0  0  0  0  0  0  0  0  0
  -31.2370  -14.0090   19.3140 O   0  0  0  0  0  0  0  0  0  0  0  0
  -29.7310  -18.5610   18.5190 C   0  0  0  0  0  3  0  0  0  0  0  0
  -27.5210  -18.4560   19.4070 C   0  0  0  0  0  3  0  0  0  0  0  0
  -30.0010  -17.3180   19.1680 C   0  0  0  0  0  0  0  0  0  0  0  0
  -27.8550  -17.2180   20.1010 C   0  0  0  0  0  0  0  0  0  0  0  0
  -29.0500  -16.4680   19.7630 C   0  0  0  0  0  0  0  0  0  0  0  0
  -28.4400  -19.1590   18.5600 C   0  0  0  0  0  0  0  0  0  0  0  0
  -31.3470  -16.9360   19.7060 C   0  0  0  0  0  2  0  0  0  0  0  0
  -30.9390  -16.0100   20.8960 C   0  0  0  0  0  2  0  0  0  0  0  0
  -29.7120  -15.2990   20.4350 N   0  0  0  0  0  0  0  0  0  0  0  0
  -24.7890  -12.6760   19.6040 C   0  0  0  0  0  0  0  0  0  0  0  0
  -23.7410  -11.8940   20.0080 C   0  0  0  0  0  0  0  0  0  0  0  0
  -24.2870  -10.6000   20.2670 C   0  0  0  0  0  0  0  0  0  0  0  0
  -25.9100  -11.8640   19.6510 N   0  0  0  0  0  0  0  0  0  0  0  0
  -25.6070  -10.6170   20.1030 N   0  0  0  0  0  0  0  0  0  0  0  0
  -23.6190   -9.3330   20.6020 C   0  0  0  0  0  0  0  0  0  0  0  0
  -24.1290   -8.4680   21.5960 C   0  0  0  0  0  3  0  0  0  0  0  0
  -23.4580   -7.2680   21.9150 C   0  0  0  0  0  3  0  0  0  0  0  0
  -22.2620   -6.9210   21.2400 C   0  0  0  0  0  0  0  0  0  0  0  0
  -21.7720   -7.7720   20.2350 C   0  0  0  0  0  3  0  0  0  0  0  0
  -22.4440   -8.9640   19.9160 C   0  0  0  0  0  3  0  0  0  0  0  0
  -21.5530   -5.7640   21.4660 O   0  0  0  0  0  0  0  0  0  0  0  0
  -21.4620   -5.2130   22.7180 C   0  0  0  0  0  0  0  0  0  0  0  0
  -20.9990   -5.9530   23.8280 C   0  0  0  0  0  3  0  0  0  0  0  0
  -20.8500   -5.3250   25.0820 C   0  0  0  0  0  3  0  0  0  0  0  0
  -21.1580   -3.9590   25.2290 C   0  0  0  0  0  0  0  0  0  0  0  0
  -21.6120   -3.2180   24.1220 C   0  0  0  0  0  3  0  0  0  0  0  0
  -21.7610   -3.8450   22.8720 C   0  0  0  0  0  0  0  0  0  0  0  0
  -22.1810   -3.1190   21.8080 F   0  0  0  0  0  0  0  0  0  0  0  0
  -21.0060   -3.3540   26.4300 F   0  0  0  0  0  0  0  0  0  0  0  0
  -22.2960  -12.2980   20.0500 C   0  0  0  0  0  0  0  0  0  0  0  0
  -21.5300  -11.7480   20.9890 N   0  0  0  0  0  0  0  0  0  0  0  0
  -21.8470  -13.1500   19.2820 O   0  0  0  0  0  0  0  0  0  0  0  0
  -21.8950  -11.0670   21.6380 H   0  0  0  0  0  0  0  0  0  0  0  0
  -20.5570  -12.0070   21.0580 H   0  0  0  0  0  0  0  0  0  0  0  0
  -24.8770  -13.9940   19.1760 N   0  0  0  0  0  0  0  0  0  0  0  0
  -24.0700  -14.6050   19.1200 H   0  0  0  0  0  0  0  0  0  0  0  0
  -25.7320  -14.4370   18.8710 H   0  0  0  0  0  0  0  0  0  0  0  0
  -25.9040  -15.3860   22.8430 C   0  0  0  0  0  2  0  0  0  0  0  0
  -25.3030  -16.7890   22.9550 C   0  0  0  0  0  2  0  0  0  0  0  0
  -27.2090  -15.5620   22.0470 C   0  0  0  0  0  2  0  0  0  0  0  0
  -25.7120  -17.4370   21.6370 C   0  0  0  0  0  2  0  0  0  0  0  0
  -27.1750  -16.9760   21.4620 C   0  0  0  0  0  3  0  0  0  0  0  0
  -27.7730  -21.6950   17.9280 C   0  0  0  0  0  0  0  0  0  0  0  0
  -28.1910  -20.3780   17.7370 N   0  0  0  0  0  0  0  0  0  0  0  0
  -27.6360  -22.1750   19.0520 O   0  0  0  0  0  0  0  0  0  0  0  0
  -28.4920  -20.2540   16.7790 H   0  0  0  0  0  0  0  0  0  0  0  0
  -27.5020  -23.7850   16.2360 C   0  0  0  0  0  3  0  0  0  0  0  0
  -27.5070  -22.4380   16.6290 C   0  0  0  0  0  0  0  0  0  0  0  0
  -27.1410  -21.6160   15.6290 O   0  0  0  0  0  0  0  0  0  0  0  0
  -26.8960  -20.7870   16.0190 H   0  0  0  0  0  0  0  0  0  0  0  0
  -27.7670  -25.0680   16.7910 O   0  0  0  0  0  0  0  0  0  0  0  0
  -24.4970  -29.5040   21.5520 C   0  0  0  0  0  0  0  0  0  0  0  0
  -26.6950  -25.9570   17.0750 C   0  0  0  0  0  0  0  0  0  0  0  0
  -23.0950  -28.4970   19.7880 C   0  0  0  0  0  3  0  0  0  0  0  0
  -24.3470  -27.4530   17.8110 C   0  0  0  0  0  0  0  0  0  0  0  0
  -25.5830  -28.9770   19.3460 C   0  0  0  0  0  2  0  0  0  0  0  0
  -25.5890  -27.8150   18.3490 C   0  0  0  0  0  0  0  0  0  0  0  0
  -26.7640  -27.0740   17.9810 C   0  0  0  0  0  3  0  0  0  0  0  0
  -25.4160  -25.6680   16.5440 C   0  0  0  0  0  3  0  0  0  0  0  0
  -24.2650  -26.3920   16.9020 C   0  0  0  0  0  3  0  0  0  0  0  0
  -23.1170  -28.2180   18.2610 C   0  0  0  0  0  2  0  0  0  0  0  0
  -24.4190  -28.9990   20.2850 N   0  0  0  0  0  0  0  0  0  0  0  0
  -23.5000  -29.5730   22.2840 O   0  0  0  0  0  0  0  0  0  0  0  0
  -22.6020  -27.2310   20.5310 C   0  0  0  0  0  0  0  0  0  0  0  0
  -21.2700  -27.0760   20.6530 N   0  0  0  0  0  0  0  0  0  0  0  0
  -23.4110  -26.4050   20.9610 O   0  0  0  0  0  0  0  0  0  0  0  0
  -20.6730  -27.8070   20.2870 H   0  0  0  0  0  0  0  0  0  0  0  0
  -18.0320  -25.7560   21.5850 C   0  0  0  0  0  0  0  0  0  0  0  0
  -20.5920  -25.9350   21.2740 C   0  0  0  0  0  3  0  0  0  0  0  0
  -20.4450  -24.7550   20.2820 C   0  0  0  0  0  2  0  0  0  0  0  0
  -19.1140  -24.7620   19.5260 C   0  0  0  0  0  2  0  0  0  0  0  0
  -17.9420  -24.6890   20.5080 C   0  0  0  0  0  2  0  0  0  0  0  0
  -19.2730  -26.3530   21.9350 C   0  0  0  0  0  0  0  0  0  0  0  0
  -19.2950  -27.3620   22.9210 C   0  0  0  0  0  3  0  0  0  0  0  0
  -18.1060  -27.7770   23.5520 C   0  0  0  0  0  3  0  0  0  0  0  0
  -16.8820  -27.1730   23.2140 C   0  0  0  0  0  3  0  0  0  0  0  0
  -16.8480  -26.1610   22.2370 C   0  0  0  0  0  3  0  0  0  0  0  0
  -25.8400  -30.0330   22.1380 C   0  0  0  0  0  3  0  0  0  0  0  0
  -26.7190  -28.9030   22.8050 C   0  0  1  0  0  0  0  0  0  0  0  0
  -25.9530  -28.0370   23.8340 C   0  0  0  0  0  1  0  0  0  0  0  0
  -27.2930  -27.9500   21.7290 C   0  0  0  0  0  1  0  0  0  0  0  0
  -27.9360  -29.5410   23.5230 C   0  0  0  0  0  1  0  0  0  0  0  0
  -25.5250  -31.0830   23.1160 N   0  0  0  0  0  0  0  0  0  0  0  0
  -25.7410  -32.3930   22.9270 C   0  0  0  0  0  0  0  0  0  0  0  0
  -26.3030  -32.8380   21.9210 O   0  0  0  0  0  0  0  0  0  0  0  0
  -25.0260  -30.7950   23.9450 H   0  0  0  0  0  0  0  0  0  0  0  0
  -23.9820  -34.0760   23.5520 C   0  0  0  0  0  1  0  0  0  0  0  0
  -25.2590  -33.3620   24.0230 C   0  0  0  0  0  3  0  0  0  0  0  0
  -27.4080  -33.7880   25.1290 C   0  0  0  0  0  1  0  0  0  0  0  0
  -26.2750  -34.3660   24.4110 N   0  0  0  0  0  0  0  0  0  0  0  0
  -25.8650  -35.0850   25.0000 H   0  0  0  0  0  0  0  0  0  0  0  0
  1  7  1  0
  1 17  1  0
  2  7  1  0
  3  4  1  0
  3  2  1  0
  5  4  1  0
  5 21  1  0
  5  6  1  0
  7  6  1  0
  8  1  2  0
  9 14  2  0
  9 11  1  0
 10 12  2  0
 11 15  1  0
 11 13  2  0
 12 50  1  0
 13 12  1  0
 13 17  1  0
 14 10  1  0
 15 16  1  0
 17 16  1  0
 18 21  1  0
 18 19  2  0
 19 38  1  0
 19 20  1  0
 20 23  1  0
 21 22  1  0
 22 20  2  0
 23 24  1  0
 24 25  2  0
 26 29  1  0
 26 25  1  0
 27 26  2  0
 28 27  1  0
 28 23  2  0
 29 30  1  0
 30 35  2  0
 30 31  1  0
 31 32  2  0
 32 33  1  0
 33 37  1  0
 34 33  2  0
 35 34  1  0
 36 35  1  0
 38 39  1  0
 39 42  1  0
 39 41  1  0
 40 38  2  0
 43 18  1  0
 44 43  1  0
 45 43  1  0
 46 47  1  0
 48 46  1  0
 49 47  1  0
 50 49  1  0
 50 48  1  0
 51 53  2  0
 52 51  1  0
 52 14  1  0
 54 52  1  0
 55 56  2  0
 55 59  1  0
 56 51  1  0
 57 58  1  0
 57 56  1  0
 59 61  1  0
 60 71  2  0
 61 66  1  0
 62 70  1  0
 62 72  1  0
 63 69  1  0
 63 65  1  0
 64 70  1  0
 65 64  1  0
 66 65  2  0
 67 68  1  0
 67 61  2  0
 68 63  2  0
 69 62  1  0
 70 60  1  0
 72 73  1  0
 72 74  2  0
 75 73  1  0
 76 81  2  0
 76 85  1  0
 77 73  1  0
 77 81  1  0
 78 77  1  0
 79 78  1  0
 79 80  1  0
 80 76  1  0
 81 82  1  0
 82 83  2  0
 84 83  1  0
 85 84  2  0
 86 60  1  0
 86 87  1  0
 86 91  1  0
 87 90  1  1
 87 88  1  0
 89 87  1  0
 91 94  1  0
 92 91  1  0
 92 96  1  0
 93 92  2  0
 96 95  1  0
 96 98  1  0
 98 99  1  0
 98 97  1  0
M  ISO  4   1 100  17 100  55 101  59 101
M  END
>  <TORSDO>  (76) 
F 19

>  <SCORE>  (76) 
19.132

>  <name>  (76) 
75

>  <ligand_id>  (76) 
75

>  <original_smiles>  (76) 
[H]OC(C(=O)N([H])c1c([H])c2c(c(C3([H])C([H])([H])C([H])([H])C([H])([H])C3([H])[H])c1[H])N(C(=O)N1C([H])([H])C([H])([H])C([H])([H])C([H])(n3nc(-c4c([H])c([H])c(Oc5c([H])c([H])c(F)c([H])c5F)c([H])c4[H])c(C(=O)N([H])[H])c3N([H])[H])C1([H])[H])C([H])([H])C2([H])[H])=C([H])Oc1c([H])c([H])c2c(c1[H])C([H])([H])N(C(=O)C([H])(N([H])C(=O)C([H])(N([H])C([H])([H])[H])C([H])([H])[H])C(C([H])([H])[H])(C([H])([H])[H])C([H])([H])[H])C([H])(C(=O)N([H])C1([H])c3c([H])c([H])c([H])c([H])c3C([H])([H])C([H])([H])C1([H])[H])C2([H])[H]

>  <smiles>  (76) 
[H]OC(C(=O)N([H])c1c([H])c2c(c(C3([H])C([H])([H])C([H])([H])C([H])([H])C3([H])[H])c1[H])N(C(=O)N1C([H])([H])C([H])([H])C([H])([H])C([H])(n3nc(-c4c([H])c([H])c(Oc5c([H])c([H])c(F)c([H])c5F)c([H])c4[H])c(C(=O)N([H])[H])c3N([H])[H])C1([H])[H])C([H])([H])C2([H])[H])=C([H])Oc1c([H])c([H])c2c(c1[H])C([H])([H])N(C(=O)C([H])(N([H])C(=O)C([H])(N([H])C([H])([H])[H])C([H])([H])[H])C(C([H])([H])[H])(C([H])([H])[H])C([H])([H])[H])C([H])(C(=O)N([H])C1([H])c3c([H])c([H])c([H])c([H])c3C([H])([H])C([H])([H])C1([H])[H])C2([H])[H]

$$$$
76:0:0
     RDKit          3D

 90 98  0  0  1  0  0  0  0  0999 V2000
  -29.0750  -22.4490   20.6940 C   0  0  0  0  0  2  0  0  0  0  0  0
  -28.6400  -23.8190   19.9760 C   0  0  0  0  0  0  0  0  0  0  0  0
  -28.6130  -23.8590   18.7410 O   0  0  0  0  0  0  0  0  0  0  0  0
  -28.2140  -25.1090   20.8160 C   0  0  0  0  0  2  0  0  0  0  0  0
  -28.3510  -26.4590   20.1860 O   0  0  0  0  0  0  0  0  0  0  0  0
  -24.6060  -31.8800   23.2320 C   0  0  0  0  0  0  0  0  0  0  0  0
  -27.2330  -27.3120   20.1930 C   0  0  0  0  0  0  0  0  0  0  0  0
  -23.4070  -30.4770   21.5910 C   0  0  0  0  0  3  0  0  0  0  0  0
  -24.8640  -28.9210   20.1730 C   0  0  0  0  0  0  0  0  0  0  0  0
  -25.9460  -30.8000   21.4080 C   0  0  0  0  0  2  0  0  0  0  0  0
  -26.0320  -29.4170   20.7660 C   0  0  0  0  0  0  0  0  0  0  0  0
  -27.2230  -28.6280   20.7590 C   0  0  0  0  0  3  0  0  0  0  0  0
  -26.0430  -26.8660   19.5830 C   0  0  0  0  0  3  0  0  0  0  0  0
  -24.8720  -27.6520   19.5700 C   0  0  0  0  0  3  0  0  0  0  0  0
  -23.6260  -29.7950   20.2140 C   0  0  0  0  0  2  0  0  0  0  0  0
  -24.6730  -31.0700   22.1340 N   0  0  0  0  0  0  0  0  0  0  0  0
  -23.5220  -32.1550   23.7660 O   0  0  0  0  0  0  0  0  0  0  0  0
  -22.7440  -29.4630   22.5530 C   0  0  0  0  0  0  0  0  0  0  0  0
  -21.4170  -29.2910   22.4330 N   0  0  0  0  0  0  0  0  0  0  0  0
  -23.4230  -28.8330   23.3690 O   0  0  0  0  0  0  0  0  0  0  0  0
  -20.9270  -29.8510   21.7480 H   0  0  0  0  0  0  0  0  0  0  0  0
  -18.0380  -28.1030   22.9420 C   0  0  0  0  0  0  0  0  0  0  0  0
  -20.5980  -28.3550   23.2040 C   0  0  0  0  0  3  0  0  0  0  0  0
  -20.6940  -26.9240   22.6250 C   0  0  0  0  0  2  0  0  0  0  0  0
  -19.5870  -26.6060   21.6150 C   0  0  0  0  0  2  0  0  0  0  0  0
  -18.2080  -26.7540   22.2630 C   0  0  0  0  0  2  0  0  0  0  0  0
  -19.1600  -28.8610   23.3700 C   0  0  0  0  0  0  0  0  0  0  0  0
  -18.9460  -30.1230   23.9650 C   0  0  0  0  0  3  0  0  0  0  0  0
  -17.6430  -30.6270   24.1370 C   0  0  0  0  0  3  0  0  0  0  0  0
  -16.5360  -29.8660   23.7250 C   0  0  0  0  0  3  0  0  0  0  0  0
  -16.7340  -28.6060   23.1340 C   0  0  0  0  0  3  0  0  0  0  0  0
  -25.8870  -32.5160   23.8560 C   0  0  0  0  0  3  0  0  0  0  0  0
  -26.4000  -31.7480   25.1360 C   0  0  1  0  0  0  0  0  0  0  0  0
  -25.3060  -31.5160   26.2030 C   0  0  0  0  0  1  0  0  0  0  0  0
  -26.9830  -30.3680   24.7490 C   0  0  0  0  0  1  0  0  0  0  0  0
  -27.5510  -32.5420   25.7970 C   0  0  0  0  0  1  0  0  0  0  0  0
  -25.5760  -33.9140   24.1840 N   0  0  0  0  0  0  0  0  0  0  0  0
  -25.9100  -34.9670   23.4260 C   0  0  0  0  0  0  0  0  0  0  0  0
  -26.5830  -34.8630   22.3960 O   0  0  0  0  0  0  0  0  0  0  0  0
  -24.9800  -34.0700   24.9840 H   0  0  0  0  0  0  0  0  0  0  0  0
  -24.1860  -36.7620   23.0650 C   0  0  0  0  0  1  0  0  0  0  0  0
  -25.4220  -36.3560   23.8820 C   0  0  0  0  0  3  0  0  0  0  0  0
  -27.5550  -37.2390   24.7220 C   0  0  0  0  0  1  0  0  0  0  0  0
  -26.4570  -37.4080   23.7730 N   0  0  0  0  0  0  0  0  0  0  0  0
  -26.0510  -38.3290   23.9200 H   0  0  0  0  0  0  0  0  0  0  0  0
  -28.7950  -21.1310   19.9990 N   0  0  0  0  0  0  0  0  0  0  0  0
  -27.8980  -21.1280   19.5170 H   0  0  0  0  0  0  0  0  0  0  0  0
  -30.5700  -14.7430   20.3630 C   0  0  0  0  0  0  0  0  0  0  0  0
  -30.4060  -12.4730   19.3300 C   0  0  0  0  0  2  0  0  0  0  0  0
  -29.4500  -12.5560   18.1180 C   0  0  0  0  0  2  0  0  0  0  0  0
  -27.9820  -12.3770   18.5580 C   0  0  0  0  0  2  0  0  0  0  0  0
  -27.6170  -13.2540   19.7850 C   0  0  0  0  0  3  0  0  0  0  0  0
  -28.6850  -13.1360   20.8960 C   0  0  0  0  0  2  0  0  0  0  0  0
  -29.9800  -13.5010   20.3030 N   0  0  0  0  0  0  0  0  0  0  0  0
  -31.7490  -14.8920   20.0230 O   0  0  0  0  0  0  0  0  0  0  0  0
  -30.6240  -19.4380   20.7470 C   0  0  0  0  0  3  0  0  0  0  0  0
  -29.3680  -19.8300   20.2980 C   0  0  0  0  0  0  0  0  0  0  0  0
  -29.8030  -17.2670   20.4870 C   0  0  0  0  0  0  0  0  0  0  0  0
  -30.8580  -18.0280   20.8360 N   0  0  0  0  0  0  0  0  0  0  0  0
  -29.7110  -15.7990   20.5980 N   0  0  0  0  0  0  0  0  0  0  0  0
  -28.4350  -18.3360   20.0150 S   0  0  0  0  0  0  0  0  0  0  0  0
  -28.7700  -15.4760   20.7540 H   0  0  0  0  0  0  0  0  0  0  0  0
  -25.2300  -13.8450   20.5240 C   0  0  0  0  0  0  0  0  0  0  0  0
  -24.1690  -13.0690   20.9020 C   0  0  0  0  0  0  0  0  0  0  0  0
  -24.6350  -11.7190   20.8680 C   0  0  0  0  0  0  0  0  0  0  0  0
  -26.2750  -12.9670   20.2810 N   0  0  0  0  0  0  0  0  0  0  0  0
  -25.9230  -11.6840   20.5510 N   0  0  0  0  0  0  0  0  0  0  0  0
  -23.9130  -10.4550   21.0610 C   0  0  0  0  0  0  0  0  0  0  0  0
  -24.3610   -9.4820   21.9820 C   0  0  0  0  0  3  0  0  0  0  0  0
  -23.6390   -8.2830   22.1630 C   0  0  0  0  0  3  0  0  0  0  0  0
  -22.4560   -8.0480   21.4230 C   0  0  0  0  0  0  0  0  0  0  0  0
  -22.0270   -9.0090   20.4920 C   0  0  0  0  0  3  0  0  0  0  0  0
  -22.7500  -10.2000   20.3090 C   0  0  0  0  0  3  0  0  0  0  0  0
  -21.7050   -6.9010   21.5160 O   0  0  0  0  0  0  0  0  0  0  0  0
  -21.6830   -6.1450   22.6600 C   0  0  0  0  0  0  0  0  0  0  0  0
  -21.2880   -6.6840   23.9030 C   0  0  0  0  0  3  0  0  0  0  0  0
  -21.2130   -5.8540   25.0390 C   0  0  0  0  0  3  0  0  0  0  0  0
  -21.5240   -4.4850   24.9340 C   0  0  0  0  0  0  0  0  0  0  0  0
  -21.9120   -3.9450   23.6960 C   0  0  0  0  0  3  0  0  0  0  0  0
  -21.9890   -4.7720   22.5610 C   0  0  0  0  0  0  0  0  0  0  0  0
  -22.3430   -4.2420   21.3660 F   0  0  0  0  0  0  0  0  0  0  0  0
  -21.4450   -3.6860   26.0230 F   0  0  0  0  0  0  0  0  0  0  0  0
  -22.7710  -13.5420   21.1820 C   0  0  0  0  0  0  0  0  0  0  0  0
  -22.0490  -12.8420   22.0500 N   0  0  0  0  0  0  0  0  0  0  0  0
  -22.3280  -14.5670   20.6640 O   0  0  0  0  0  0  0  0  0  0  0  0
  -22.4200  -12.0130   22.4900 H   0  0  0  0  0  0  0  0  0  0  0  0
  -21.1120  -13.1410   22.2790 H   0  0  0  0  0  0  0  0  0  0  0  0
  -25.3870  -15.2160   20.3430 N   0  0  0  0  0  0  0  0  0  0  0  0
  -24.6080  -15.8570   20.4440 H   0  0  0  0  0  0  0  0  0  0  0  0
  -26.2030  -15.6540   19.9360 H   0  0  0  0  0  0  0  0  0  0  0  0
  2  1  1  0
  2  4  1  0
  3  2  2  0
  5  7  1  0
  5  4  1  0
  6 17  2  0
  7 12  1  0
  8 16  1  0
  8 18  1  0
  9 15  1  0
  9 11  1  0
 10 16  1  0
 11 10  1  0
 12 11  2  0
 13  7  2  0
 14 13  1  0
 14  9  2  0
 15  8  1  0
 16  6  1  0
 18 20  2  0
 19 18  1  0
 21 19  1  0
 22 31  2  0
 22 27  1  0
 23 19  1  0
 23 27  1  0
 24 23  1  0
 25 26  1  0
 25 24  1  0
 26 22  1  0
 27 28  2  0
 28 29  1  0
 30 29  2  0
 31 30  1  0
 32  6  1  0
 32 37  1  0
 32 33  1  0
 33 36  1  1
 33 34  1  0
 35 33  1  0
 37 40  1  0
 38 42  1  0
 38 37  1  0
 39 38  2  0
 42 41  1  0
 44 42  1  0
 44 45  1  0
 44 43  1  0
 46 57  1  0
 46  1  1  0
 47 46  1  0
 48 60  1  0
 49 54  1  0
 50 51  1  0
 50 49  1  0
 52 51  1  0
 52 66  1  0
 52 53  1  0
 54 48  1  0
 54 53  1  0
 55 48  2  0
 56 59  1  0
 57 56  2  0
 58 60  1  0
 58 59  2  0
 60 62  1  0
 61 57  1  0
 61 58  1  0
 63 64  2  0
 64 83  1  0
 65 64  1  0
 65 68  1  0
 66 63  1  0
 66 67  1  0
 67 65  2  0
 68 69  1  0
 69 70  2  0
 71 74  1  0
 71 70  1  0
 72 71  2  0
 73 72  1  0
 73 68  2  0
 74 75  1  0
 75 76  1  0
 76 77  2  0
 78 77  1  0
 78 82  1  0
 79 78  2  0
 80 75  2  0
 80 79  1  0
 81 80  1  0
 83 84  1  0
 84 87  1  0
 84 86  1  0
 85 83  2  0
 88 89  1  0
 88 63  1  0
 90 88  1  0
M  ISO  4   4 101   5 101  48 100  60 100
M  END
>  <TORSDO>  (77) 
F 19

>  <SCORE>  (77) 
-14.279

>  <name>  (77) 
76

>  <ligand_id>  (77) 
76

>  <original_smiles>  (77) 
[H]c1nc(N([H])C(=O)N2C([H])([H])C([H])([H])C([H])([H])C([H])(n3nc(-c4c([H])c([H])c(Oc5c([H])c([H])c(F)c([H])c5F)c([H])c4[H])c(C(=O)N([H])[H])c3N([H])[H])C2([H])[H])sc1N([H])C([H])([H])C(=O)C([H])([H])Oc1c([H])c([H])c2c(c1[H])C([H])([H])N(C(=O)C([H])(N([H])C(=O)C([H])(N([H])C([H])([H])[H])C([H])([H])[H])C(C([H])([H])[H])(C([H])([H])[H])C([H])([H])[H])C([H])(C(=O)N([H])C1([H])c3c([H])c([H])c([H])c([H])c3C([H])([H])C([H])([H])C1([H])[H])C2([H])[H]

>  <smiles>  (77) 
[H]c1nc(N([H])C(=O)N2C([H])([H])C([H])([H])C([H])([H])C([H])(n3nc(-c4c([H])c([H])c(Oc5c([H])c([H])c(F)c([H])c5F)c([H])c4[H])c(C(=O)N([H])[H])c3N([H])[H])C2([H])[H])sc1N([H])C([H])([H])C(=O)C([H])([H])Oc1c([H])c([H])c2c(c1[H])C([H])([H])N(C(=O)C([H])(N([H])C(=O)C([H])(N([H])C([H])([H])[H])C([H])([H])[H])C(C([H])([H])[H])(C([H])([H])[H])C([H])([H])[H])C([H])(C(=O)N([H])C1([H])c3c([H])c([H])c([H])c([H])c3C([H])([H])C([H])([H])C1([H])[H])C2([H])[H]

$$$$
77:0:0
     RDKit          3D

 95104  0  0  1  0  0  0  0  0999 V2000
  -29.7070  -20.9470   19.5450 C   0  0  0  0  0  3  0  0  0  0  0  0
  -27.6380  -19.9820   20.3760 C   0  0  0  0  0  3  0  0  0  0  0  0
  -27.8550  -22.4110   20.1420 C   0  0  0  0  0  3  0  0  0  0  0  0
  -28.9390  -19.7840   19.8650 C   0  0  0  0  0  0  0  0  0  0  0  0
  -29.1710  -22.2660   19.6570 C   0  0  0  0  0  0  0  0  0  0  0  0
  -27.1030  -21.2790   20.5150 C   0  0  0  0  0  0  0  0  0  0  0  0
  -25.8450  -21.4350   20.9940 F   0  0  0  0  0  0  0  0  0  0  0  0
  -31.2940  -15.2710   20.9150 C   0  0  0  0  0  0  0  0  0  0  0  0
  -31.1890  -12.9000   20.2760 C   0  0  0  0  0  2  0  0  0  0  0  0
  -30.4510  -12.7720   18.9250 C   0  0  0  0  0  2  0  0  0  0  0  0
  -28.9280  -12.6900   19.1370 C   0  0  0  0  0  2  0  0  0  0  0  0
  -28.3810  -13.7580   20.1220 C   0  0  0  0  0  3  0  0  0  0  0  0
  -29.2550  -13.8680   21.3910 C   0  0  0  0  0  2  0  0  0  0  0  0
  -30.6380  -14.0800   20.9580 N   0  0  0  0  0  0  0  0  0  0  0  0
  -32.5200  -15.3380   21.0340 O   0  0  0  0  0  0  0  0  0  0  0  0
  -30.3620  -16.8240   17.7400 C   0  0  0  0  0  2  0  0  0  0  0  0
  -29.9490  -18.2480   18.0960 C   0  0  0  0  0  2  0  0  0  0  0  0
  -31.3580  -16.3390   18.7930 C   0  0  0  0  0  2  0  0  0  0  0  0
  -30.2900  -17.5670   20.5770 C   0  0  0  0  0  2  0  0  0  0  0  0
  -29.3890  -18.3330   19.5300 C   0  0  0  0  0  3  0  0  0  0  0  0
  -30.7010  -16.2070   20.1090 N   0  0  0  0  0  0  0  0  0  0  0  0
  -25.9310  -14.4240   20.5200 C   0  0  0  0  0  0  0  0  0  0  0  0
  -24.8060  -13.6800   20.7490 C   0  0  0  0  0  0  0  0  0  0  0  0
  -25.2360  -12.3190   20.8000 C   0  0  0  0  0  0  0  0  0  0  0  0
  -26.9760  -13.5170   20.4420 N   0  0  0  0  0  0  0  0  0  0  0  0
  -26.5550  -12.2480   20.6760 N   0  0  0  0  0  0  0  0  0  0  0  0
  -24.4630  -11.0740   20.9000 C   0  0  0  0  0  0  0  0  0  0  0  0
  -24.7800  -10.0820   21.8550 C   0  0  0  0  0  3  0  0  0  0  0  0
  -24.0090   -8.9030   21.9460 C   0  0  0  0  0  3  0  0  0  0  0  0
  -22.9050   -8.7090   21.0830 C   0  0  0  0  0  0  0  0  0  0  0  0
  -22.6060   -9.6890   20.1200 C   0  0  0  0  0  3  0  0  0  0  0  0
  -23.3790  -10.8590   20.0260 C   0  0  0  0  0  3  0  0  0  0  0  0
  -22.1140   -7.5850   21.0830 O   0  0  0  0  0  0  0  0  0  0  0  0
  -21.9860   -6.7960   22.1970 C   0  0  0  0  0  0  0  0  0  0  0  0
  -21.5150   -7.3100   23.4250 C   0  0  0  0  0  3  0  0  0  0  0  0
  -21.3330   -6.4480   24.5250 C   0  0  0  0  0  3  0  0  0  0  0  0
  -21.6100   -5.0750   24.3990 C   0  0  0  0  0  0  0  0  0  0  0  0
  -22.0750   -4.5600   23.1760 C   0  0  0  0  0  3  0  0  0  0  0  0
  -22.2600   -5.4180   22.0770 C   0  0  0  0  0  0  0  0  0  0  0  0
  -22.6860   -4.9130   20.8950 F   0  0  0  0  0  0  0  0  0  0  0  0
  -21.4290   -4.2460   25.4530 F   0  0  0  0  0  0  0  0  0  0  0  0
  -23.3960  -14.1910   20.8180 C   0  0  0  0  0  0  0  0  0  0  0  0
  -22.5440  -13.5320   21.5950 N   0  0  0  0  0  0  0  0  0  0  0  0
  -23.0550  -15.2100   20.2170 O   0  0  0  0  0  0  0  0  0  0  0  0
  -22.8300  -12.7080   22.1030 H   0  0  0  0  0  0  0  0  0  0  0  0
  -21.5910  -13.8560   21.6820 H   0  0  0  0  0  0  0  0  0  0  0  0
  -26.1530  -15.7880   20.3480 N   0  0  0  0  0  0  0  0  0  0  0  0
  -25.3980  -16.4650   20.3420 H   0  0  0  0  0  0  0  0  0  0  0  0
  -27.0550  -16.1930   20.1390 H   0  0  0  0  0  0  0  0  0  0  0  0
  -29.9520  -23.3940   19.3070 N   0  0  0  0  0  0  0  0  0  0  0  0
  -30.8290  -23.1930   18.8350 H   0  0  0  0  0  0  0  0  0  0  0  0
  -29.3740  -24.7190   18.9660 C   0  0  0  0  0  2  0  0  0  0  0  0
  -30.4920  -25.7480   21.0650 C   0  0  0  0  0  1  0  0  0  0  0  0
  -29.2800  -25.7820   20.1210 C   0  0  0  0  0  3  0  0  0  0  0  0
  -29.2350  -27.1580   19.6550 O   0  0  0  0  0  0  0  0  0  0  0  0
  -25.2780  -31.6020   23.6470 C   0  0  0  0  0  0  0  0  0  0  0  0
  -28.0560  -27.8680   19.8070 C   0  0  0  0  0  0  0  0  0  0  0  0
  -24.1340  -30.5490   21.7250 C   0  0  0  0  0  3  0  0  0  0  0  0
  -25.6450  -29.3390   20.0580 C   0  0  0  0  0  0  0  0  0  0  0  0
  -26.6620  -30.9580   21.6710 C   0  0  0  0  0  2  0  0  0  0  0  0
  -26.7830  -29.7430   20.7670 C   0  0  0  0  0  0  0  0  0  0  0  0
  -27.9950  -29.0210   20.6320 C   0  0  0  0  0  3  0  0  0  0  0  0
  -26.9000  -27.4820   19.1000 C   0  0  0  0  0  3  0  0  0  0  0  0
  -25.7000  -28.2110   19.2200 C   0  0  0  0  0  3  0  0  0  0  0  0
  -24.3880  -30.1620   20.2430 C   0  0  0  0  0  2  0  0  0  0  0  0
  -25.3750  -31.0410   22.4080 N   0  0  0  0  0  0  0  0  0  0  0  0
  -24.1800  -31.7480   24.2020 O   0  0  0  0  0  0  0  0  0  0  0  0
  -23.4760  -29.3490   22.4430 C   0  0  0  0  0  0  0  0  0  0  0  0
  -22.1590  -29.1770   22.2410 N   0  0  0  0  0  0  0  0  0  0  0  0
  -24.1490  -28.5830   23.1390 O   0  0  0  0  0  0  0  0  0  0  0  0
  -21.6760  -29.8520   21.6640 H   0  0  0  0  0  0  0  0  0  0  0  0
  -18.7960  -27.8660   22.3930 C   0  0  0  0  0  0  0  0  0  0  0  0
  -21.3410  -28.0910   22.7830 C   0  0  0  0  0  3  0  0  0  0  0  0
  -21.4820  -26.8100   21.9290 C   0  0  0  0  0  2  0  0  0  0  0  0
  -20.4120  -26.6890   20.8400 C   0  0  0  0  0  2  0  0  0  0  0  0
  -19.0120  -26.6850   21.4620 C   0  0  0  0  0  2  0  0  0  0  0  0
  -19.8910  -28.5360   23.0010 C   0  0  0  0  0  0  0  0  0  0  0  0
  -19.6370  -29.6510   23.8290 C   0  0  0  0  0  3  0  0  0  0  0  0
  -18.3200  -30.0930   24.0580 C   0  0  0  0  0  3  0  0  0  0  0  0
  -17.2390  -29.4160   23.4680 C   0  0  0  0  0  3  0  0  0  0  0  0
  -17.4780  -28.3030   22.6410 C   0  0  0  0  0  3  0  0  0  0  0  0
  -26.5370  -32.1090   24.4170 C   0  0  0  0  0  3  0  0  0  0  0  0
  -26.9750  -31.1520   25.5930 C   0  0  1  0  0  0  0  0  0  0  0  0
  -25.8260  -30.7990   26.5660 C   0  0  0  0  0  1  0  0  0  0  0  0
  -27.5460  -29.8270   25.0380 C   0  0  0  0  0  1  0  0  0  0  0  0
  -28.1090  -31.8140   26.4130 C   0  0  0  0  0  1  0  0  0  0  0  0
  -26.2330  -33.4530   24.9260 N   0  0  0  0  0  0  0  0  0  0  0  0
  -26.6530  -34.5930   24.3630 C   0  0  0  0  0  0  0  0  0  0  0  0
  -27.4060  -34.6200   23.3840 O   0  0  0  0  0  0  0  0  0  0  0  0
  -25.5770  -33.5100   25.6920 H   0  0  0  0  0  0  0  0  0  0  0  0
  -25.0040  -36.4800   24.1390 C   0  0  0  0  0  1  0  0  0  0  0  0
  -26.1600  -35.9160   24.9810 C   0  0  0  0  0  3  0  0  0  0  0  0
  -28.2340  -36.5900   26.1110 C   0  0  0  0  0  1  0  0  0  0  0  0
  -27.2240  -36.9360   25.1140 N   0  0  0  0  0  0  0  0  0  0  0  0
  -26.8270  -37.8390   25.3650 H   0  0  0  0  0  0  0  0  0  0  0  0
  1  5  2  0
  1  4  1  0
  2  6  1  0
  3  6  2  0
  4  2  2  0
  5  3  1  0
  6  7  1  0
  8 14  1  0
  8 15  2  0
  9 14  1  0
 10 11  1  0
 10  9  1  0
 12 11  1  0
 12 25  1  0
 12 13  1  0
 14 13  1  0
 16 17  1  0
 16 18  1  0
 17 20  1  0
 18 21  1  0
 20  4  1  0
 20 19  1  0
 21 19  1  0
 21  8  1  0
 22 23  2  0
 23 24  1  0
 23 42  1  0
 24 27  1  0
 25 22  1  0
 25 26  1  0
 26 24  2  0
 27 28  1  0
 28 29  2  0
 30 33  1  0
 30 29  1  0
 31 30  2  0
 32 31  1  0
 32 27  2  0
 33 34  1  0
 34 35  1  0
 35 36  2  0
 37 36  1  0
 37 41  1  0
 38 37  2  0
 39 34  2  0
 39 38  1  0
 40 39  1  0
 42 43  1  0
 43 46  1  0
 43 45  1  0
 44 42  2  0
 47 22  1  0
 48 47  1  0
 49 47  1  0
 50  5  1  0
 51 50  1  0
 52 50  1  0
 52 54  1  0
 54 53  1  0
 55 57  1  0
 55 54  1  0
 56 67  2  0
 57 62  1  0
 58 66  1  0
 58 68  1  0
 59 65  1  0
 59 61  1  0
 60 66  1  0
 61 60  1  0
 62 61  2  0
 63 64  1  0
 63 57  2  0
 64 59  2  0
 65 58  1  0
 66 56  1  0
 68 70  2  0
 69 68  1  0
 71 69  1  0
 72 81  2  0
 72 77  1  0
 73 69  1  0
 73 77  1  0
 74 73  1  0
 75 76  1  0
 75 74  1  0
 76 72  1  0
 77 78  2  0
 78 79  1  0
 80 79  2  0
 81 80  1  0
 82 56  1  0
 82 87  1  0
 82 83  1  0
 83 86  1  1
 83 84  1  0
 85 83  1  0
 87 90  1  0
 88 87  1  0
 88 92  1  0
 89 88  2  0
 92 91  1  0
 92 94  1  0
 94 95  1  0
 94 93  1  0
M  ISO  4   8 100  21 100  54 101  55 101
M  END
>  <TORSDO>  (78) 
F 19

>  <SCORE>  (78) 
-7.747

>  <name>  (78) 
77

>  <ligand_id>  (78) 
77

>  <original_smiles>  (78) 
[H]c1c([H])c([H])c2c(c1[H])C([H])([H])C([H])([H])C([H])([H])C2([H])N([H])C(=O)C1([H])N(C(=O)C([H])(N([H])C(=O)C([H])(N([H])C([H])([H])[H])C([H])([H])[H])C(C([H])([H])[H])(C([H])([H])[H])C([H])([H])[H])C([H])([H])c2c([H])c(OC([H])(C([H])([H])[H])C([H])([H])N([H])c3c([H])c(F)c([H])c(C4([H])C([H])([H])N(C(=O)N5C([H])([H])C([H])([H])C([H])([H])C([H])(n6nc(-c7c([H])c([H])c(Oc8c([H])c([H])c(F)c([H])c8F)c([H])c7[H])c(C(=O)N([H])[H])c6N([H])[H])C5([H])[H])C([H])([H])C([H])([H])C4([H])[H])c3[H])c([H])c([H])c2C1([H])[H]

>  <smiles>  (78) 
[H]c1c([H])c([H])c2c(c1[H])C([H])([H])C([H])([H])C([H])([H])C2([H])N([H])C(=O)C1([H])N(C(=O)C([H])(N([H])C(=O)C([H])(N([H])C([H])([H])[H])C([H])([H])[H])C(C([H])([H])[H])(C([H])([H])[H])C([H])([H])[H])C([H])([H])c2c([H])c(OC([H])(C([H])([H])[H])C([H])([H])N([H])c3c([H])c(F)c([H])c(C4([H])C([H])([H])N(C(=O)N5C([H])([H])C([H])([H])C([H])([H])C([H])(n6nc(-c7c([H])c([H])c(Oc8c([H])c([H])c(F)c([H])c8F)c([H])c7[H])c(C(=O)N([H])[H])c6N([H])[H])C5([H])[H])C([H])([H])C([H])([H])C4([H])[H])c3[H])c([H])c([H])c2C1([H])[H]

$$$$
78:0:0
     RDKit          3D

 93102  0  0  1  0  0  0  0  0999 V2000
  -28.2510  -23.8270   20.7690 C   0  0  0  0  0  0  0  0  0  0  0  0
  -27.9460  -25.1940   20.8110 C   0  0  0  0  0  3  0  0  0  0  0  0
  -27.4590  -22.9120   21.6800 C   0  0  0  0  0  2  0  0  0  0  0  0
  -29.2120  -22.8200   20.0230 C   0  0  0  0  0  2  0  0  0  0  0  0
  -27.5670  -21.4820   21.1290 C   0  0  0  0  0  2  0  0  0  0  0  0
  -28.8260  -21.3950   20.3970 N   0  0  0  0  0  0  0  0  0  0  0  0
  -30.6770  -14.9210   19.9510 C   0  0  0  0  0  0  0  0  0  0  0  0
  -30.4890  -12.6390   18.9340 C   0  0  0  0  0  2  0  0  0  0  0  0
  -29.4670  -12.6900   17.7750 C   0  0  0  0  0  2  0  0  0  0  0  0
  -28.0310  -12.4880   18.2990 C   0  0  0  0  0  2  0  0  0  0  0  0
  -27.7200  -13.3690   19.5360 C   0  0  0  0  0  3  0  0  0  0  0  0
  -28.8470  -13.2750   20.5880 C   0  0  0  0  0  2  0  0  0  0  0  0
  -30.1000  -13.6680   19.9260 N   0  0  0  0  0  0  0  0  0  0  0  0
  -31.8300  -15.0680   19.5320 O   0  0  0  0  0  0  0  0  0  0  0  0
  -30.6630  -19.6300   19.5830 C   0  0  0  0  0  0  0  0  0  0  0  0
  -29.4550  -20.0770   20.1510 C   0  0  0  0  0  0  0  0  0  0  0  0
  -29.8980  -17.4660   20.1640 C   0  0  0  0  0  0  0  0  0  0  0  0
  -30.8730  -18.2020   19.6100 N   0  0  0  0  0  0  0  0  0  0  0  0
  -29.8500  -15.9830   20.2960 N   0  0  0  0  0  0  0  0  0  0  0  0
  -28.5990  -18.5870   20.6970 S   0  0  0  0  0  0  0  0  0  0  0  0
  -28.9650  -15.6540   20.6500 H   0  0  0  0  0  0  0  0  0  0  0  0
  -25.3880  -13.9410   20.4440 C   0  0  0  0  0  0  0  0  0  0  0  0
  -24.3470  -13.1550   20.8580 C   0  0  0  0  0  0  0  0  0  0  0  0
  -24.8040  -11.8060   20.7500 C   0  0  0  0  0  0  0  0  0  0  0  0
  -26.4100  -13.0690   20.1060 N   0  0  0  0  0  0  0  0  0  0  0  0
  -26.0700  -11.7770   20.3520 N   0  0  0  0  0  0  0  0  0  0  0  0
  -24.0900  -10.5380   20.9420 C   0  0  0  0  0  0  0  0  0  0  0  0
  -24.5370   -9.5720   21.8710 C   0  0  0  0  0  3  0  0  0  0  0  0
  -23.8220   -8.3680   22.0520 C   0  0  0  0  0  3  0  0  0  0  0  0
  -22.6460   -8.1220   21.3040 C   0  0  0  0  0  0  0  0  0  0  0  0
  -22.2180   -9.0770   20.3650 C   0  0  0  0  0  3  0  0  0  0  0  0
  -22.9340  -10.2720   20.1820 C   0  0  0  0  0  3  0  0  0  0  0  0
  -21.9020   -6.9710   21.3950 O   0  0  0  0  0  0  0  0  0  0  0  0
  -21.8000   -6.2700   22.5700 C   0  0  0  0  0  0  0  0  0  0  0  0
  -21.2850   -6.8570   23.7460 C   0  0  0  0  0  3  0  0  0  0  0  0
  -21.1350   -6.0810   24.9120 C   0  0  0  0  0  3  0  0  0  0  0  0
  -21.4880   -4.7180   24.9030 C   0  0  0  0  0  0  0  0  0  0  0  0
  -21.9960   -4.1310   23.7310 C   0  0  0  0  0  3  0  0  0  0  0  0
  -22.1490   -4.9040   22.5670 C   0  0  0  0  0  0  0  0  0  0  0  0
  -22.6190   -4.3280   21.4340 F   0  0  0  0  0  0  0  0  0  0  0  0
  -21.3360   -3.9700   26.0210 F   0  0  0  0  0  0  0  0  0  0  0  0
  -22.9720  -13.6230   21.2380 C   0  0  0  0  0  0  0  0  0  0  0  0
  -22.3010  -12.8960   22.1260 N   0  0  0  0  0  0  0  0  0  0  0  0
  -22.5040  -14.6670   20.7860 O   0  0  0  0  0  0  0  0  0  0  0  0
  -22.6960  -12.0520   22.5140 H   0  0  0  0  0  0  0  0  0  0  0  0
  -21.3820  -13.1900   22.4220 H   0  0  0  0  0  0  0  0  0  0  0  0
  -25.5420  -15.3160   20.3020 N   0  0  0  0  0  0  0  0  0  0  0  0
  -24.7780  -15.9580   20.4800 H   0  0  0  0  0  0  0  0  0  0  0  0
  -26.3340  -15.7620   19.8560 H   0  0  0  0  0  0  0  0  0  0  0  0
  -31.6940  -20.4830   18.9720 C   0  0  0  0  0  0  0  0  0  0  0  0
  -33.0470  -19.8180   18.7260 C   0  0  0  0  0  1  0  0  0  0  0  0
  -31.5730  -21.6610   18.6270 O   0  0  0  0  0  0  0  0  0  0  0  0
  -28.3360  -26.4190   20.1920 O   0  0  0  0  0  0  0  0  0  0  0  0
  -24.6510  -31.9270   23.2270 C   0  0  0  0  0  0  0  0  0  0  0  0
  -27.3020  -27.3880   20.1210 C   0  0  0  0  0  0  0  0  0  0  0  0
  -23.4640  -30.5310   21.5740 C   0  0  0  0  0  3  0  0  0  0  0  0
  -24.9350  -29.0140   20.1240 C   0  0  0  0  0  0  0  0  0  0  0  0
  -26.0050  -30.8700   21.3950 C   0  0  0  0  0  2  0  0  0  0  0  0
  -26.1040  -29.4950   20.7310 C   0  0  0  0  0  0  0  0  0  0  0  0
  -27.2950  -28.6930   20.7230 C   0  0  0  0  0  3  0  0  0  0  0  0
  -26.1160  -26.9840   19.4730 C   0  0  0  0  0  3  0  0  0  0  0  0
  -24.9460  -27.7660   19.4830 C   0  0  0  0  0  3  0  0  0  0  0  0
  -23.6880  -29.8760   20.1860 C   0  0  0  0  0  2  0  0  0  0  0  0
  -24.7260  -31.1270   22.1210 N   0  0  0  0  0  0  0  0  0  0  0  0
  -23.5650  -32.1850   23.7650 O   0  0  0  0  0  0  0  0  0  0  0  0
  -22.8120  -29.4970   22.5250 C   0  0  0  0  0  0  0  0  0  0  0  0
  -21.4860  -29.3100   22.4030 N   0  0  0  0  0  0  0  0  0  0  0  0
  -23.4990  -28.8690   23.3340 O   0  0  0  0  0  0  0  0  0  0  0  0
  -20.9900  -29.8670   21.7220 H   0  0  0  0  0  0  0  0  0  0  0  0
  -18.1200  -28.0780   22.9140 C   0  0  0  0  0  0  0  0  0  0  0  0
  -20.6800  -28.3570   23.1690 C   0  0  0  0  0  3  0  0  0  0  0  0
  -20.7880  -26.9320   22.5760 C   0  0  0  0  0  2  0  0  0  0  0  0
  -19.6810  -26.6140   21.5640 C   0  0  0  0  0  2  0  0  0  0  0  0
  -18.3030  -26.7390   22.2200 C   0  0  0  0  0  2  0  0  0  0  0  0
  -19.2350  -28.8440   23.3460 C   0  0  0  0  0  0  0  0  0  0  0  0
  -19.0080  -30.0960   23.9580 C   0  0  0  0  0  3  0  0  0  0  0  0
  -17.7000  -30.5810   24.1400 C   0  0  0  0  0  3  0  0  0  0  0  0
  -16.6000  -29.8120   23.7230 C   0  0  0  0  0  3  0  0  0  0  0  0
  -16.8110  -28.5610   23.1160 C   0  0  0  0  0  3  0  0  0  0  0  0
  -25.9250  -32.5710   23.8540 C   0  0  0  0  0  3  0  0  0  0  0  0
  -25.6020  -33.9660   24.1830 N   0  0  0  0  0  0  0  0  0  0  0  0
  -25.9260  -35.0220   23.4240 C   0  0  0  0  0  0  0  0  0  0  0  0
  -26.5960  -34.9230   22.3930 O   0  0  0  0  0  0  0  0  0  0  0  0
  -25.0070  -34.1160   24.9840 H   0  0  0  0  0  0  0  0  0  0  0  0
  -24.1860  -36.8030   23.0690 C   0  0  0  0  0  1  0  0  0  0  0  0
  -25.4290  -36.4070   23.8820 C   0  0  0  0  0  3  0  0  0  0  0  0
  -27.5540  -37.3080   24.7180 C   0  0  0  0  0  1  0  0  0  0  0  0
  -26.4550  -37.4680   23.7700 N   0  0  0  0  0  0  0  0  0  0  0  0
  -26.0410  -38.3840   23.9170 H   0  0  0  0  0  0  0  0  0  0  0  0
  -26.4390  -31.8050   25.1350 C   0  0  1  0  0  0  0  0  0  0  0  0
  -25.3420  -31.5610   26.1980 C   0  0  0  0  0  1  0  0  0  0  0  0
  -27.0350  -30.4310   24.7500 C   0  0  0  0  0  1  0  0  0  0  0  0
  -27.5820  -32.6080   25.8000 C   0  0  0  0  0  1  0  0  0  0  0  0
  1  2  2  0
  1  3  1  0
  4  6  1  0
  4  1  1  0
  5  3  1  0
  6  5  1  0
  7 19  1  0
  8 13  1  0
  9 10  1  0
  9  8  1  0
 11 10  1  0
 11 25  1  0
 11 12  1  0
 13  7  1  0
 13 12  1  0
 14  7  2  0
 15 18  1  0
 15 16  2  0
 16  6  1  0
 16 20  1  0
 17 19  1  0
 17 20  1  0
 18 17  2  0
 19 21  1  0
 22 23  2  0
 23 42  1  0
 24 23  1  0
 24 27  1  0
 25 26  1  0
 25 22  1  0
 26 24  2  0
 27 28  1  0
 28 29  2  0
 30 33  1  0
 30 29  1  0
 31 30  2  0
 32 31  1  0
 32 27  2  0
 33 34  1  0
 34 35  1  0
 35 36  2  0
 37 36  1  0
 37 41  1  0
 38 37  2  0
 39 34  2  0
 39 38  1  0
 40 39  1  0
 42 43  1  0
 43 46  1  0
 43 45  1  0
 44 42  2  0
 47 22  1  0
 47 48  1  0
 49 47  1  0
 50 15  1  0
 51 50  1  0
 52 50  2  0
 53  2  1  0
 54 65  2  0
 55 53  1  0
 55 60  1  0
 56 64  1  0
 56 66  1  0
 57 63  1  0
 57 59  1  0
 58 64  1  0
 59 58  1  0
 60 59  2  0
 61 62  1  0
 61 55  2  0
 62 57  2  0
 63 56  1  0
 64 54  1  0
 66 68  2  0
 67 66  1  0
 69 67  1  0
 70 79  2  0
 70 75  1  0
 71 67  1  0
 71 75  1  0
 72 71  1  0
 73 74  1  0
 73 72  1  0
 74 70  1  0
 75 76  2  0
 76 77  1  0
 78 77  2  0
 79 78  1  0
 80 54  1  0
 80 81  1  0
 80 90  1  0
 81 84  1  0
 82 86  1  0
 82 81  1  0
 83 82  2  0
 86 85  1  0
 88 86  1  0
 88 89  1  0
 88 87  1  0
 90 93  1  1
 90 91  1  0
 92 90  1  0
M  ISO  4   2 101   7 100  19 100  53 101
M  END
>  <TORSDO>  (79) 
F 17

>  <SCORE>  (79) 
-14.528

>  <name>  (79) 
78

>  <ligand_id>  (79) 
78

>  <original_smiles>  (79) 
[H]C(Oc1c([H])c([H])c2c(c1[H])C([H])([H])N(C(=O)C([H])(N([H])C(=O)C([H])(N([H])C([H])([H])[H])C([H])([H])[H])C(C([H])([H])[H])(C([H])([H])[H])C([H])([H])[H])C([H])(C(=O)N([H])C1([H])c3c([H])c([H])c([H])c([H])c3C([H])([H])C([H])([H])C1([H])[H])C2([H])[H])=C1C([H])([H])N(c2sc(N([H])C(=O)N3C([H])([H])C([H])([H])C([H])([H])C([H])(n4nc(-c5c([H])c([H])c(Oc6c([H])c([H])c(F)c([H])c6F)c([H])c5[H])c(C(=O)N([H])[H])c4N([H])[H])C3([H])[H])nc2C(=O)C([H])([H])[H])C([H])([H])C1([H])[H]

>  <smiles>  (79) 
[H]C(Oc1c([H])c([H])c2c(c1[H])C([H])([H])N(C(=O)C([H])(N([H])C(=O)C([H])(N([H])C([H])([H])[H])C([H])([H])[H])C(C([H])([H])[H])(C([H])([H])[H])C([H])([H])[H])C([H])(C(=O)N([H])C1([H])c3c([H])c([H])c([H])c([H])c3C([H])([H])C([H])([H])C1([H])[H])C2([H])[H])=C1C([H])([H])N(c2sc(N([H])C(=O)N3C([H])([H])C([H])([H])C([H])([H])C([H])(n4nc(-c5c([H])c([H])c(Oc6c([H])c([H])c(F)c([H])c6F)c([H])c5[H])c(C(=O)N([H])[H])c4N([H])[H])C3([H])[H])nc2C(=O)C([H])([H])[H])C([H])([H])C1([H])[H]

$$$$
79:0:0
     RDKit          3D

 98107  0  0  1  0  0  0  0  0999 V2000
  -28.7100  -21.1800   20.2170 C   0  0  0  0  0  3  0  0  0  0  0  0
  -30.1350  -23.7340   22.1500 C   0  0  0  0  0  2  0  0  0  0  0  0
  -28.6430  -24.1310   22.0620 C   0  0  0  0  0  2  0  0  0  0  0  0
  -30.4200  -22.8570   20.9210 C   0  0  0  0  0  2  0  0  0  0  0  0
  -28.2390  -23.8000   20.6240 C   0  0  0  0  0  3  0  0  0  0  0  0
  -29.0820  -22.5180   20.4150 N   0  0  0  0  0  0  0  0  0  0  0  0
  -27.4050  -20.9470   20.1270 N   0  0  0  0  0  0  0  0  0  0  0  0
  -27.0950  -19.9990   19.9910 H   0  0  0  0  0  0  0  0  0  0  0  0
  -26.7070  -21.6660   20.2130 H   0  0  0  0  0  0  0  0  0  0  0  0
  -30.7930  -20.1380   19.2970 C   0  0  0  0  0  3  0  0  0  0  0  0
  -29.3270  -18.5710   20.4650 C   0  0  0  0  0  3  0  0  0  0  0  0
  -31.3300  -17.7390   19.3760 C   0  0  0  0  0  3  0  0  0  0  0  0
  -29.6170  -19.9460   20.0500 C   0  0  0  0  0  0  0  0  0  0  0  0
  -31.6320  -19.0610   18.9700 C   0  0  0  0  0  0  0  0  0  0  0  0
  -30.1710  -17.4170   20.1330 C   0  0  0  0  0  0  0  0  0  0  0  0
  -30.6040  -14.8090   20.2960 C   0  0  0  0  0  0  0  0  0  0  0  0
  -30.3880  -12.5240   19.3050 C   0  0  0  0  0  2  0  0  0  0  0  0
  -29.4590  -12.5950   18.0730 C   0  0  0  0  0  2  0  0  0  0  0  0
  -27.9820  -12.4370   18.4920 C   0  0  0  0  0  2  0  0  0  0  0  0
  -27.6110  -13.3060   19.7220 C   0  0  0  0  0  3  0  0  0  0  0  0
  -28.6710  -13.2310   20.8430 C   0  0  0  0  0  2  0  0  0  0  0  0
  -29.9610  -13.5900   20.2420 N   0  0  0  0  0  0  0  0  0  0  0  0
  -31.8040  -14.8450   20.0120 O   0  0  0  0  0  0  0  0  0  0  0  0
  -29.8650  -15.9820   20.4770 N   0  0  0  0  0  0  0  0  0  0  0  0
  -28.9250  -15.8230   20.8070 H   0  0  0  0  0  0  0  0  0  0  0  0
  -25.2250  -13.8850   20.4460 C   0  0  0  0  0  0  0  0  0  0  0  0
  -24.1630  -13.1110   20.8200 C   0  0  0  0  0  0  0  0  0  0  0  0
  -24.6310  -11.7610   20.7980 C   0  0  0  0  0  0  0  0  0  0  0  0
  -26.2700  -13.0100   20.2150 N   0  0  0  0  0  0  0  0  0  0  0  0
  -25.9230  -11.7250   20.4960 N   0  0  0  0  0  0  0  0  0  0  0  0
  -23.9050  -10.4960   20.9940 C   0  0  0  0  0  0  0  0  0  0  0  0
  -24.3310   -9.5380   21.9400 C   0  0  0  0  0  3  0  0  0  0  0  0
  -23.6050   -8.3410   22.1240 C   0  0  0  0  0  3  0  0  0  0  0  0
  -22.4410   -8.0900   21.3600 C   0  0  0  0  0  0  0  0  0  0  0  0
  -22.0300   -9.0390   20.4070 C   0  0  0  0  0  3  0  0  0  0  0  0
  -22.7560  -10.2280   20.2210 C   0  0  0  0  0  3  0  0  0  0  0  0
  -21.6890   -6.9440   21.4510 O   0  0  0  0  0  0  0  0  0  0  0  0
  -21.6300   -6.2130   22.6110 C   0  0  0  0  0  0  0  0  0  0  0  0
  -21.1820   -6.7770   23.8250 C   0  0  0  0  0  3  0  0  0  0  0  0
  -21.0690   -5.9730   24.9740 C   0  0  0  0  0  3  0  0  0  0  0  0
  -21.3970   -4.6040   24.9150 C   0  0  0  0  0  0  0  0  0  0  0  0
  -21.8390   -4.0400   23.7040 C   0  0  0  0  0  3  0  0  0  0  0  0
  -21.9520   -4.8410   22.5560 C   0  0  0  0  0  0  0  0  0  0  0  0
  -22.3580   -4.2880   21.3880 F   0  0  0  0  0  0  0  0  0  0  0  0
  -21.2810   -3.8290   26.0180 F   0  0  0  0  0  0  0  0  0  0  0  0
  -22.7610  -13.5840   21.0770 C   0  0  0  0  0  0  0  0  0  0  0  0
  -22.0360  -12.8930   21.9460 N   0  0  0  0  0  0  0  0  0  0  0  0
  -22.3250  -14.6030   20.5420 O   0  0  0  0  0  0  0  0  0  0  0  0
  -22.4040  -12.0730   22.4020 H   0  0  0  0  0  0  0  0  0  0  0  0
  -21.0940  -13.1920   22.1610 H   0  0  0  0  0  0  0  0  0  0  0  0
  -25.3780  -15.2560   20.2560 N   0  0  0  0  0  0  0  0  0  0  0  0
  -24.5950  -15.8950   20.3450 H   0  0  0  0  0  0  0  0  0  0  0  0
  -26.2060  -15.6940   19.8730 H   0  0  0  0  0  0  0  0  0  0  0  0
  -32.7810  -19.3150   18.2170 N   0  0  0  0  0  0  0  0  0  0  0  0
  -33.2400  -18.5220   17.7760 H   0  0  0  0  0  0  0  0  0  0  0  0
  -32.7950  -20.1460   17.6350 H   0  0  0  0  0  0  0  0  0  0  0  0
  -28.5210  -25.1050   19.6970 C   0  0  0  0  0  2  0  0  0  0  0  0
  -28.4150  -26.5100   20.2200 O   0  0  0  0  0  0  0  0  0  0  0  0
  -24.6200  -31.8880   23.2480 C   0  0  0  0  0  0  0  0  0  0  0  0
  -27.2650  -27.3210   20.1680 C   0  0  0  0  0  0  0  0  0  0  0  0
  -23.4230  -30.4800   21.6100 C   0  0  0  0  0  3  0  0  0  0  0  0
  -24.8790  -28.9200   20.1940 C   0  0  0  0  0  0  0  0  0  0  0  0
  -25.9650  -30.7960   21.4360 C   0  0  0  0  0  2  0  0  0  0  0  0
  -26.0500  -29.4200   20.7770 C   0  0  0  0  0  0  0  0  0  0  0  0
  -27.2410  -28.6310   20.7530 C   0  0  0  0  0  3  0  0  0  0  0  0
  -26.0660  -26.8770   19.5670 C   0  0  0  0  0  3  0  0  0  0  0  0
  -24.8890  -27.6540   19.5860 C   0  0  0  0  0  3  0  0  0  0  0  0
  -23.6420  -29.7900   20.2380 C   0  0  0  0  0  2  0  0  0  0  0  0
  -24.6890  -31.0750   22.1530 N   0  0  0  0  0  0  0  0  0  0  0  0
  -23.5360  -32.1620   23.7830 O   0  0  0  0  0  0  0  0  0  0  0  0
  -22.7630  -29.4680   22.5740 C   0  0  0  0  0  0  0  0  0  0  0  0
  -21.4390  -29.2890   22.4400 N   0  0  0  0  0  0  0  0  0  0  0  0
  -23.4400  -28.8450   23.3960 O   0  0  0  0  0  0  0  0  0  0  0  0
  -20.9570  -29.8320   21.7380 H   0  0  0  0  0  0  0  0  0  0  0  0
  -18.0650  -28.0830   22.9330 C   0  0  0  0  0  0  0  0  0  0  0  0
  -20.6200  -28.3500   23.2080 C   0  0  0  0  0  3  0  0  0  0  0  0
  -20.7310  -26.9210   22.6280 C   0  0  0  0  0  2  0  0  0  0  0  0
  -19.6330  -26.5930   21.6130 C   0  0  0  0  0  2  0  0  0  0  0  0
  -18.2480  -26.7340   22.2570 C   0  0  0  0  0  2  0  0  0  0  0  0
  -19.1800  -28.8490   23.3640 C   0  0  0  0  0  0  0  0  0  0  0  0
  -18.9560  -30.1100   23.9590 C   0  0  0  0  0  3  0  0  0  0  0  0
  -17.6500  -30.6080   24.1240 C   0  0  0  0  0  3  0  0  0  0  0  0
  -16.5490  -29.8380   23.7100 C   0  0  0  0  0  3  0  0  0  0  0  0
  -16.7570  -28.5770   23.1210 C   0  0  0  0  0  3  0  0  0  0  0  0
  -25.9020  -32.5240   23.8690 C   0  0  0  0  0  3  0  0  0  0  0  0
  -26.4120  -31.7640   25.1550 C   0  0  1  0  0  0  0  0  0  0  0  0
  -25.3120  -31.5380   26.2180 C   0  0  0  0  0  1  0  0  0  0  0  0
  -26.9950  -30.3810   24.7840 C   0  0  0  0  0  1  0  0  0  0  0  0
  -27.5560  -32.5670   25.8180 C   0  0  0  0  0  1  0  0  0  0  0  0
  -25.5910  -33.9240   24.1890 N   0  0  0  0  0  0  0  0  0  0  0  0
  -25.9220  -34.9730   23.4250 C   0  0  0  0  0  0  0  0  0  0  0  0
  -26.5900  -34.8650   22.3930 O   0  0  0  0  0  0  0  0  0  0  0  0
  -25.0030  -34.0840   24.9930 H   0  0  0  0  0  0  0  0  0  0  0  0
  -24.1930  -36.7640   23.0640 C   0  0  0  0  0  1  0  0  0  0  0  0
  -25.4330  -36.3610   23.8780 C   0  0  0  0  0  3  0  0  0  0  0  0
  -27.5620  -37.2550   24.7160 C   0  0  0  0  0  1  0  0  0  0  0  0
  -26.4650  -37.4160   23.7660 N   0  0  0  0  0  0  0  0  0  0  0  0
  -26.0540  -38.3350   23.9080 H   0  0  0  0  0  0  0  0  0  0  0  0
  1  7  1  0
  1  6  1  0
  3  2  1  0
  4  2  1  0
  5 57  1  0
  5  3  1  0
  6  5  1  0
  6  4  1  0
  7  9  1  0
  8  7  1  0
 10 13  1  0
 12 15  2  0
 13  1  1  0
 13 11  2  0
 14 10  2  0
 14 12  1  0
 15 11  1  0
 15 24  1  0
 16 24  1  0
 17 22  1  0
 18 19  1  0
 18 17  1  0
 20 19  1  0
 20 29  1  0
 20 21  1  0
 22 16  1  0
 22 21  1  0
 23 16  2  0
 24 25  1  0
 26 27  2  0
 27 46  1  0
 28 27  1  0
 28 31  1  0
 29 26  1  0
 29 30  1  0
 30 28  2  0
 31 32  1  0
 32 33  2  0
 34 37  1  0
 34 33  1  0
 35 34  2  0
 36 35  1  0
 36 31  2  0
 37 38  1  0
 38 39  1  0
 39 40  2  0
 41 40  1  0
 41 45  1  0
 42 41  2  0
 43 38  2  0
 43 42  1  0
 44 43  1  0
 46 47  1  0
 47 50  1  0
 47 49  1  0
 48 46  2  0
 51 52  1  0
 51 26  1  0
 53 51  1  0
 54 14  1  0
 55 54  1  0
 56 54  1  0
 57 58  1  0
 59 70  2  0
 60 58  1  0
 60 65  1  0
 61 69  1  0
 61 71  1  0
 62 68  1  0
 62 64  1  0
 63 69  1  0
 64 63  1  0
 65 64  2  0
 66 67  1  0
 66 60  2  0
 67 62  2  0
 68 61  1  0
 69 59  1  0
 71 73  2  0
 72 71  1  0
 74 72  1  0
 75 84  2  0
 75 80  1  0
 76 72  1  0
 76 80  1  0
 77 76  1  0
 78 79  1  0
 78 77  1  0
 79 75  1  0
 80 81  2  0
 81 82  1  0
 83 82  2  0
 84 83  1  0
 85 59  1  0
 85 90  1  0
 85 86  1  0
 86 89  1  1
 86 87  1  0
 88 86  1  0
 90 93  1  0
 91 95  1  0
 91 90  1  0
 92 91  2  0
 95 94  1  0
 97 95  1  0
 97 98  1  0
 97 96  1  0
M  ISO  4  16 100  24 100  57 101  58 101
M  END
>  <TORSDO>  (80) 
F 19

>  <SCORE>  (80) 
-14.715

>  <name>  (80) 
79

>  <ligand_id>  (80) 
79

>  <original_smiles>  (80) 
[H]c1c([H])c([H])c2c(c1[H])C([H])([H])C([H])([H])C([H])([H])C2([H])N([H])C(=O)C1([H])N(C(=O)C([H])(N([H])C(=O)C([H])(N([H])C([H])([H])[H])C([H])([H])[H])C(C([H])([H])[H])(C([H])([H])[H])C([H])([H])[H])C([H])([H])c2c([H])c(OC([H])([H])C3([H])N(C(c4c([H])c(N([H])[H])c([H])c(N([H])C(=O)N5C([H])([H])C([H])([H])C([H])([H])C([H])(n6nc(-c7c([H])c([H])c(Oc8c([H])c([H])c(F)c([H])c8F)c([H])c7[H])c(C(=O)N([H])[H])c6N([H])[H])C5([H])[H])c4[H])=[N+]([H])[H])C([H])([H])C([H])([H])C3([H])[H])c([H])c([H])c2C1([H])[H]

>  <smiles>  (80) 
[H]c1c([H])c([H])c2c(c1[H])C([H])([H])C([H])([H])C([H])([H])C2([H])N([H])C(=O)C1([H])N(C(=O)C([H])(N([H])C(=O)C([H])(N([H])C([H])([H])[H])C([H])([H])[H])C(C([H])([H])[H])(C([H])([H])[H])C([H])([H])[H])C([H])([H])c2c([H])c(OC([H])([H])C3([H])N(C(c4c([H])c(N([H])[H])c([H])c(N([H])C(=O)N5C([H])([H])C([H])([H])C([H])([H])C([H])(n6nc(-c7c([H])c([H])c(Oc8c([H])c([H])c(F)c([H])c8F)c([H])c7[H])c(C(=O)N([H])[H])c6N([H])[H])C5([H])[H])c4[H])=[N+]([H])[H])C([H])([H])C([H])([H])C3([H])[H])c([H])c([H])c2C1([H])[H]

$$$$
80:0:0
     RDKit          3D

 94105  0  0  1  0  0  0  0  0999 V2000
  -29.2400  -19.5420   19.2090 C   0  0  0  0  0  0  0  0  0  0  0  0
  -29.4670  -19.4890   20.5540 C   0  0  0  0  0  0  0  0  0  0  0  0
  -28.7570  -21.7180   19.7040 C   0  0  0  0  0  0  0  0  0  0  0  0
  -29.4270  -18.3410   18.3380 C   0  0  0  0  0  2  0  0  0  0  0  0
  -29.8590  -18.2270   21.2970 C   0  0  0  0  0  2  0  0  0  0  0  0
  -29.6700  -25.5630   18.5260 C   0  0  0  0  0  2  0  0  0  0  0  0
  -27.9430  -23.6090   18.1840 C   0  0  0  0  0  2  0  0  0  0  0  0
  -28.4060  -24.1950   20.4160 C   0  0  0  0  0  2  0  0  0  0  0  0
  -29.3020  -17.0410   19.1710 C   0  0  0  0  0  2  0  0  0  0  0  0
  -28.2900  -25.0840   18.1580 C   0  0  0  0  0  3  0  0  0  0  0  0
  -28.5770  -25.4450   19.5700 C   0  0  2  0  0  0  0  0  0  0  0  0
  -28.8330  -20.7980   18.7330 N   0  0  0  0  0  0  0  0  0  0  0  0
  -28.3870  -23.0540   19.4760 N   0  0  0  0  0  0  0  0  0  0  0  0
  -30.1440  -17.0430   20.4120 N   0  0  2  0  0  4  0  0  0  0  0  0
  -29.1920  -21.0590   21.2940 S   0  0  0  0  0  0  0  0  0  0  0  0
  -31.1040  -17.1300   20.1080 H   0  0  0  0  0  0  0  0  0  0  0  0
  -28.3950  -26.7640   20.1170 O   0  0  0  0  0  0  0  0  0  0  0  0
  -24.5730  -31.8860   23.2300 C   0  0  0  0  0  0  0  0  0  0  0  0
  -27.1840  -27.4330   20.1140 C   0  0  0  0  0  0  0  0  0  0  0  0
  -23.3480  -30.4910   21.5940 C   0  0  0  0  0  3  0  0  0  0  0  0
  -24.7840  -28.9460   20.1560 C   0  0  0  0  0  0  0  0  0  0  0  0
  -25.8710  -30.8420   21.3730 C   0  0  0  0  0  2  0  0  0  0  0  0
  -25.9470  -29.4690   20.7320 C   0  0  0  0  0  0  0  0  0  0  0  0
  -27.1450  -28.7200   20.7050 C   0  0  0  0  0  3  0  0  0  0  0  0
  -25.9960  -26.9140   19.5530 C   0  0  0  0  0  3  0  0  0  0  0  0
  -24.8040  -27.6680   19.5660 C   0  0  0  0  0  3  0  0  0  0  0  0
  -23.5430  -29.8090   20.2130 C   0  0  0  0  0  2  0  0  0  0  0  0
  -24.6160  -31.0890   22.1240 N   0  0  0  0  0  0  0  0  0  0  0  0
  -23.4980  -32.1620   23.7800 O   0  0  0  0  0  0  0  0  0  0  0  0
  -22.7020  -29.4720   22.5600 C   0  0  0  0  0  0  0  0  0  0  0  0
  -21.3770  -29.2890   22.4390 N   0  0  0  0  0  0  0  0  0  0  0  0
  -23.3890  -28.8490   23.3730 O   0  0  0  0  0  0  0  0  0  0  0  0
  -20.8840  -29.8460   21.7540 H   0  0  0  0  0  0  0  0  0  0  0  0
  -18.0050  -28.0960   22.9500 C   0  0  0  0  0  0  0  0  0  0  0  0
  -20.5640  -28.3510   23.2120 C   0  0  0  0  0  3  0  0  0  0  0  0
  -20.6640  -26.9220   22.6320 C   0  0  0  0  0  2  0  0  0  0  0  0
  -19.5570  -26.6010   21.6220 C   0  0  0  0  0  2  0  0  0  0  0  0
  -18.1780  -26.7470   22.2710 C   0  0  0  0  0  2  0  0  0  0  0  0
  -19.1260  -28.8560   23.3770 C   0  0  0  0  0  0  0  0  0  0  0  0
  -18.9120  -30.1190   23.9690 C   0  0  0  0  0  3  0  0  0  0  0  0
  -17.6080  -30.6220   24.1410 C   0  0  0  0  0  3  0  0  0  0  0  0
  -16.5010  -29.8580   23.7300 C   0  0  0  0  0  3  0  0  0  0  0  0
  -16.7010  -28.5980   23.1410 C   0  0  0  0  0  3  0  0  0  0  0  0
  -25.8670  -32.5110   23.8410 C   0  0  0  0  0  3  0  0  0  0  0  0
  -25.5690  -33.9100   24.1760 N   0  0  0  0  0  0  0  0  0  0  0  0
  -25.8990  -34.9610   23.4140 C   0  0  0  0  0  0  0  0  0  0  0  0
  -26.5580  -34.8560   22.3760 O   0  0  0  0  0  0  0  0  0  0  0  0
  -24.9820  -34.0670   24.9830 H   0  0  0  0  0  0  0  0  0  0  0  0
  -24.1810  -36.7660   23.0680 C   0  0  0  0  0  1  0  0  0  0  0  0
  -25.4210  -36.3520   23.8760 C   0  0  0  0  0  3  0  0  0  0  0  0
  -27.5600  -37.2230   24.7080 C   0  0  0  0  0  1  0  0  0  0  0  0
  -26.4600  -37.3980   23.7640 N   0  0  0  0  0  0  0  0  0  0  0  0
  -26.0590  -38.3210   23.9120 H   0  0  0  0  0  0  0  0  0  0  0  0
  -26.3940  -31.7350   25.1100 C   0  0  1  0  0  0  0  0  0  0  0  0
  -25.3110  -31.4980   26.1880 C   0  0  0  0  0  1  0  0  0  0  0  0
  -26.9690  -30.3570   24.7070 C   0  0  0  0  0  1  0  0  0  0  0  0
  -27.5530  -32.5230   25.7640 C   0  0  0  0  0  1  0  0  0  0  0  0
  -30.0870  -15.7420   21.1610 C   0  0  0  0  0  2  0  0  0  0  0  0
  -30.7730  -14.5500   20.4340 C   0  0  0  0  0  0  0  0  0  0  0  0
  -30.5200  -12.3960   19.2430 C   0  0  0  0  0  2  0  0  0  0  0  0
  -29.5730  -12.6130   18.0410 C   0  0  0  0  0  2  0  0  0  0  0  0
  -28.0940  -12.4760   18.4640 C   0  0  0  0  0  2  0  0  0  0  0  0
  -27.7580  -13.2840   19.7450 C   0  0  0  0  0  3  0  0  0  0  0  0
  -28.8120  -13.0160   20.8430 C   0  0  0  0  0  2  0  0  0  0  0  0
  -30.1320  -13.3550   20.2900 N   0  0  0  0  0  0  0  0  0  0  0  0
  -31.8790  -14.7620   19.9260 O   0  0  0  0  0  0  0  0  0  0  0  0
  -25.3510  -13.8960   20.4260 C   0  0  0  0  0  0  0  0  0  0  0  0
  -24.2820  -13.1260   20.7960 C   0  0  0  0  0  0  0  0  0  0  0  0
  -24.7470  -11.7750   20.7820 C   0  0  0  0  0  0  0  0  0  0  0  0
  -26.4010  -13.0150   20.2130 N   0  0  0  0  0  0  0  0  0  0  0  0
  -26.0400  -11.7350   20.4840 N   0  0  0  0  0  0  0  0  0  0  0  0
  -24.0230  -10.5130   20.9790 C   0  0  0  0  0  0  0  0  0  0  0  0
  -24.4510   -9.5580   21.9270 C   0  0  0  0  0  3  0  0  0  0  0  0
  -23.7270   -8.3590   22.1120 C   0  0  0  0  0  3  0  0  0  0  0  0
  -22.5630   -8.1080   21.3480 C   0  0  0  0  0  0  0  0  0  0  0  0
  -22.1550   -9.0530   20.3890 C   0  0  0  0  0  3  0  0  0  0  0  0
  -22.8790  -10.2430   20.2030 C   0  0  0  0  0  3  0  0  0  0  0  0
  -21.8120   -6.9620   21.4400 O   0  0  0  0  0  0  0  0  0  0  0  0
  -21.7460   -6.2380   22.6030 C   0  0  0  0  0  0  0  0  0  0  0  0
  -21.2850   -6.8070   23.8100 C   0  0  0  0  0  3  0  0  0  0  0  0
  -21.1670   -6.0080   24.9650 C   0  0  0  0  0  3  0  0  0  0  0  0
  -21.5000   -4.6420   24.9140 C   0  0  0  0  0  0  0  0  0  0  0  0
  -21.9550   -4.0720   23.7120 C   0  0  0  0  0  3  0  0  0  0  0  0
  -22.0750   -4.8680   22.5590 C   0  0  0  0  0  0  0  0  0  0  0  0
  -22.4930   -4.3100   21.3970 F   0  0  0  0  0  0  0  0  0  0  0  0
  -21.3800   -3.8720   26.0210 F   0  0  0  0  0  0  0  0  0  0  0  0
  -22.8820  -13.6020   21.0520 C   0  0  0  0  0  0  0  0  0  0  0  0
  -22.1480  -12.9100   21.9180 N   0  0  0  0  0  0  0  0  0  0  0  0
  -22.4460  -14.6230   20.5230 O   0  0  0  0  0  0  0  0  0  0  0  0
  -22.5130  -12.0840   22.3670 H   0  0  0  0  0  0  0  0  0  0  0  0
  -21.2090  -13.2130   22.1340 H   0  0  0  0  0  0  0  0  0  0  0  0
  -25.5120  -15.2650   20.2340 N   0  0  0  0  0  0  0  0  0  0  0  0
  -24.7330  -15.9090   20.3190 H   0  0  0  0  0  0  0  0  0  0  0  0
  -26.3420  -15.7000   19.8590 H   0  0  0  0  0  0  0  0  0  0  0  0
  1  2  2  0
  2 15  1  0
  2  5  1  0
  3 15  1  0
  4  9  1  0
  4  1  1  0
  6 11  1  0
  7 13  1  0
  9 14  1  0
 10  7  1  0
 10  6  1  0
 10 11  1  0
 11 17  1  1
 11  8  1  0
 12  1  1  0
 12  3  2  0
 13  3  1  0
 13  8  1  0
 14 58  1  0
 14  5  1  0
 14 16  1  6
 18 29  2  0
 19 17  1  0
 19 24  1  0
 20 28  1  0
 20 30  1  0
 21 27  1  0
 21 23  1  0
 22 28  1  0
 23 22  1  0
 24 23  2  0
 25 26  1  0
 25 19  2  0
 26 21  2  0
 27 20  1  0
 28 18  1  0
 30 32  2  0
 31 30  1  0
 33 31  1  0
 34 43  2  0
 34 39  1  0
 35 31  1  0
 35 39  1  0
 36 35  1  0
 37 38  1  0
 37 36  1  0
 38 34  1  0
 39 40  2  0
 40 41  1  0
 42 41  2  0
 43 42  1  0
 44 18  1  0
 44 45  1  0
 44 54  1  0
 45 48  1  0
 46 50  1  0
 46 45  1  0
 47 46  2  0
 50 49  1  0
 52 50  1  0
 52 53  1  0
 52 51  1  0
 54 57  1  1
 54 55  1  0
 56 54  1  0
 59 58  1  0
 60 65  1  0
 61 62  1  0
 61 60  1  0
 63 62  1  0
 63 70  1  0
 63 64  1  0
 65 59  1  0
 65 64  1  0
 66 59  2  0
 67 68  2  0
 68 87  1  0
 69 68  1  0
 69 72  1  0
 70 67  1  0
 70 71  1  0
 71 69  2  0
 72 73  1  0
 73 74  2  0
 75 78  1  0
 75 74  1  0
 76 75  2  0
 77 76  1  0
 77 72  2  0
 78 79  1  0
 79 80  1  0
 80 81  2  0
 82 81  1  0
 82 86  1  0
 83 82  2  0
 84 79  2  0
 84 83  1  0
 85 84  1  0
 87 88  1  0
 88 91  1  0
 88 90  1  0
 89 87  2  0
 92 93  1  0
 92 67  1  0
 94 92  1  0
M  ISO  4  11 101  17 101  58 100  59 100
M  END
>  <TORSDO>  (81) 
F 17

>  <SCORE>  (81) 
-15.212

>  <name>  (81) 
80

>  <ligand_id>  (81) 
80

>  <original_smiles>  (81) 
[H]c1c([H])c([H])c2c(c1[H])C([H])([H])C([H])([H])C([H])([H])C2([H])N([H])C(=O)C1([H])N(C(=O)C([H])(N([H])C(=O)C([H])(N([H])C([H])([H])[H])C([H])([H])[H])C(C([H])([H])[H])(C([H])([H])[H])C([H])([H])[H])C([H])([H])c2c([H])c(OC34C([H])([H])N(c5nc6c(s5)C([H])([H])[N+]([H])(C([H])([H])C(=O)N5C([H])([H])C([H])([H])C([H])([H])C([H])(n7nc(-c8c([H])c([H])c(Oc9c([H])c([H])c(F)c([H])c9F)c([H])c8[H])c(C(=O)N([H])[H])c7N([H])[H])C5([H])[H])C([H])([H])C6([H])[H])C([H])([H])C3([H])C4([H])[H])c([H])c([H])c2C1([H])[H]

>  <smiles>  (81) 
[H]c1c([H])c([H])c2c(c1[H])C([H])([H])C([H])([H])C([H])([H])C2([H])N([H])C(=O)C1([H])N(C(=O)C([H])(N([H])C(=O)C([H])(N([H])C([H])([H])[H])C([H])([H])[H])C(C([H])([H])[H])(C([H])([H])[H])C([H])([H])[H])C([H])([H])c2c([H])c(OC34C([H])([H])N(c5nc6c(s5)C([H])([H])[N+]([H])(C([H])([H])C(=O)N5C([H])([H])C([H])([H])C([H])([H])C([H])(n7nc(-c8c([H])c([H])c(Oc9c([H])c([H])c(F)c([H])c9F)c([H])c8[H])c(C(=O)N([H])[H])c7N([H])[H])C5([H])[H])C([H])([H])C6([H])[H])C([H])([H])C3([H])C4([H])[H])c([H])c([H])c2C1([H])[H]

$$$$
81:0:0
     RDKit          3D

 87 95  0  0  1  0  0  0  0  0999 V2000
  -29.0400  -20.7180   21.4710 C   0  0  0  0  0  3  0  0  0  0  0  0
  -28.6750  -22.1950   21.4210 C   0  0  0  0  0  3  0  0  0  0  0  0
  -29.2990  -19.9620   20.3080 C   0  0  0  0  0  0  0  0  0  0  0  0
  -28.5750  -22.8870   20.2000 C   0  0  0  0  0  0  0  0  0  0  0  0
  -29.0070  -21.3940   19.1080 S   0  0  0  0  0  0  0  0  0  0  0  0
  -28.1780  -24.4680   18.2610 C   0  0  0  0  0  1  0  0  0  0  0  0
  -28.1350  -24.3380   19.7110 N   0  0  0  0  0  0  0  0  0  0  0  0
  -28.2250  -25.8920   20.3570 O   0  0  0  0  0  0  0  0  0  0  0  0
  -24.6210  -31.9090   23.2140 C   0  0  0  0  0  0  0  0  0  0  0  0
  -27.1990  -26.9870   20.2360 C   0  0  0  0  0  0  0  0  0  0  0  0
  -23.4370  -30.5000   21.5790 C   0  0  0  0  0  3  0  0  0  0  0  0
  -24.8930  -28.8820   20.1700 C   0  0  0  0  0  0  0  0  0  0  0  0
  -26.0040  -30.7030   21.4470 C   0  0  0  0  0  2  0  0  0  0  0  0
  -26.0770  -29.2870   20.7980 C   0  0  0  0  0  0  0  0  0  0  0  0
  -27.2170  -28.3580   20.8090 C   0  0  0  0  0  3  0  0  0  0  0  0
  -25.9820  -26.7400   19.5600 C   0  0  0  0  0  3  0  0  0  0  0  0
  -24.8730  -27.6310   19.5300 C   0  0  0  0  0  3  0  0  0  0  0  0
  -23.6730  -29.8060   20.2080 C   0  0  0  0  0  2  0  0  0  0  0  0
  -24.7090  -31.0670   22.1330 N   0  0  0  0  0  0  0  0  0  0  0  0
  -23.5280  -32.2020   23.7280 O   0  0  0  0  0  0  0  0  0  0  0  0
  -22.7370  -29.5130   22.5510 C   0  0  0  0  0  0  0  0  0  0  0  0
  -21.4060  -29.3520   22.4280 N   0  0  0  0  0  0  0  0  0  0  0  0
  -23.4000  -28.8890   23.3840 O   0  0  0  0  0  0  0  0  0  0  0  0
  -20.9240  -29.9050   21.7340 H   0  0  0  0  0  0  0  0  0  0  0  0
  -18.0200  -28.1530   22.9450 C   0  0  0  0  0  0  0  0  0  0  0  0
  -20.5810  -28.4200   23.2050 C   0  0  0  0  0  3  0  0  0  0  0  0
  -20.6810  -26.9850   22.6370 C   0  0  0  0  0  2  0  0  0  0  0  0
  -19.5770  -26.6590   21.6250 C   0  0  0  0  0  2  0  0  0  0  0  0
  -18.1960  -26.8030   22.2700 C   0  0  0  0  0  2  0  0  0  0  0  0
  -19.1400  -28.9180   23.3700 C   0  0  0  0  0  0  0  0  0  0  0  0
  -18.9180  -30.1790   23.9670 C   0  0  0  0  0  3  0  0  0  0  0  0
  -17.6120  -30.6750   24.1390 C   0  0  0  0  0  3  0  0  0  0  0  0
  -16.5080  -29.9070   23.7290 C   0  0  0  0  0  3  0  0  0  0  0  0
  -16.7130  -28.6490   23.1380 C   0  0  0  0  0  3  0  0  0  0  0  0
  -25.8870  -32.5600   23.8490 C   0  0  0  0  0  3  0  0  0  0  0  0
  -25.5640  -33.9620   24.1710 N   0  0  0  0  0  0  0  0  0  0  0  0
  -25.8970  -35.0210   23.4200 C   0  0  0  0  0  0  0  0  0  0  0  0
  -26.5690  -34.9190   22.3910 O   0  0  0  0  0  0  0  0  0  0  0  0
  -24.9650  -34.1130   24.9700 H   0  0  0  0  0  0  0  0  0  0  0  0
  -24.1680  -36.8200   23.0740 C   0  0  0  0  0  1  0  0  0  0  0  0
  -25.4110  -36.4100   23.8800 C   0  0  0  0  0  3  0  0  0  0  0  0
  -27.5440  -37.3020   24.7120 C   0  0  0  0  0  1  0  0  0  0  0  0
  -26.4430  -37.4650   23.7660 N   0  0  0  0  0  0  0  0  0  0  0  0
  -26.0350  -38.3850   23.9090 H   0  0  0  0  0  0  0  0  0  0  0  0
  -26.3840  -31.8090   25.1460 C   0  0  1  0  0  0  0  0  0  0  0  0
  -25.2770  -31.5880   26.2040 C   0  0  0  0  0  1  0  0  0  0  0  0
  -26.9720  -30.4240   24.7930 C   0  0  0  0  0  1  0  0  0  0  0  0
  -27.5270  -32.6120   25.8100 C   0  0  0  0  0  1  0  0  0  0  0  0
  -30.0040  -18.3560   20.0030 C   0  0  0  0  0  2  0  0  0  0  0  0
  -30.4380  -15.4300   20.1870 C   0  0  0  0  0  0  0  0  0  0  0  0
  -30.4090  -12.9760   19.3050 C   0  0  0  0  0  2  0  0  0  0  0  0
  -29.4800  -12.7640   18.0820 C   0  0  0  0  0  2  0  0  0  0  0  0
  -28.0380  -12.4790   18.5380 C   0  0  0  0  0  2  0  0  0  0  0  0
  -27.5960  -13.4290   19.6790 C   0  0  0  0  0  3  0  0  0  0  0  0
  -28.6570  -13.5890   20.7900 C   0  0  0  0  0  2  0  0  0  0  0  0
  -29.8700  -14.1180   20.1440 N   0  0  0  0  0  0  0  0  0  0  0  0
  -31.6480  -15.4130   19.9150 O   0  0  0  0  0  0  0  0  0  0  0  0
  -29.7020  -16.7290   20.3280 N   0  0  0  0  0  0  0  0  0  0  0  0
  -28.7330  -16.5680   20.5660 H   0  0  0  0  0  0  0  0  0  0  0  0
  -25.2330  -13.9620   20.4670 C   0  0  0  0  0  0  0  0  0  0  0  0
  -24.1830  -13.1760   20.8480 C   0  0  0  0  0  0  0  0  0  0  0  0
  -24.6600  -11.8300   20.8070 C   0  0  0  0  0  0  0  0  0  0  0  0
  -26.2780  -13.0970   20.2040 N   0  0  0  0  0  0  0  0  0  0  0  0
  -25.9490  -11.8070   20.4790 N   0  0  0  0  0  0  0  0  0  0  0  0
  -23.9430  -10.5610   21.0020 C   0  0  0  0  0  0  0  0  0  0  0  0
  -24.3850   -9.5960   21.9330 C   0  0  0  0  0  3  0  0  0  0  0  0
  -23.6650   -8.3960   22.1170 C   0  0  0  0  0  3  0  0  0  0  0  0
  -22.4880   -8.1520   21.3700 C   0  0  0  0  0  0  0  0  0  0  0  0
  -22.0650   -9.1060   20.4290 C   0  0  0  0  0  3  0  0  0  0  0  0
  -22.7860  -10.2970   20.2420 C   0  0  0  0  0  3  0  0  0  0  0  0
  -21.7390   -7.0040   21.4650 O   0  0  0  0  0  0  0  0  0  0  0  0
  -21.6950   -6.2650   22.6200 C   0  0  0  0  0  0  0  0  0  0  0  0
  -21.2580   -6.8190   23.8430 C   0  0  0  0  0  3  0  0  0  0  0  0
  -21.1620   -6.0070   24.9900 C   0  0  0  0  0  3  0  0  0  0  0  0
  -21.4950   -4.6400   24.9160 C   0  0  0  0  0  0  0  0  0  0  0  0
  -21.9250   -4.0860   23.6980 C   0  0  0  0  0  3  0  0  0  0  0  0
  -22.0220   -4.8960   22.5530 C   0  0  0  0  0  0  0  0  0  0  0  0
  -22.4170   -4.3510   21.3770 F   0  0  0  0  0  0  0  0  0  0  0  0
  -21.3950   -3.8580   26.0150 F   0  0  0  0  0  0  0  0  0  0  0  0
  -22.7850  -13.6430   21.1310 C   0  0  0  0  0  0  0  0  0  0  0  0
  -22.0690  -12.9410   22.0010 N   0  0  0  0  0  0  0  0  0  0  0  0
  -22.3380  -14.6670   20.6170 O   0  0  0  0  0  0  0  0  0  0  0  0
  -22.4440  -12.1140   22.4410 H   0  0  0  0  0  0  0  0  0  0  0  0
  -21.1310  -13.2360   22.2330 H   0  0  0  0  0  0  0  0  0  0  0  0
  -25.3810  -15.3350   20.2890 N   0  0  0  0  0  0  0  0  0  0  0  0
  -24.6080  -15.9790   20.4120 H   0  0  0  0  0  0  0  0  0  0  0  0
  -26.2070  -15.7790   19.9110 H   0  0  0  0  0  0  0  0  0  0  0  0
  2  1  1  0
  3  1  2  0
  4  2  2  0
  5  4  1  0
  5  3  1  0
  6  7  1  0
  7  4  1  0
  7  8  1  0
  9 20  2  0
 10  8  1  0
 10 15  1  0
 11 19  1  0
 11 21  1  0
 12 18  1  0
 12 14  1  0
 13 19  1  0
 14 15  2  0
 14 13  1  0
 16 10  2  0
 17 16  1  0
 17 12  2  0
 18 11  1  0
 19  9  1  0
 21 23  2  0
 22 21  1  0
 24 22  1  0
 25 34  2  0
 25 30  1  0
 26 22  1  0
 26 30  1  0
 27 26  1  0
 28 29  1  0
 28 27  1  0
 29 25  1  0
 30 31  2  0
 31 32  1  0
 33 32  2  0
 34 33  1  0
 35  9  1  0
 35 36  1  0
 35 45  1  0
 36 39  1  0
 37 41  1  0
 37 36  1  0
 38 37  2  0
 41 40  1  0
 43 41  1  0
 43 44  1  0
 43 42  1  0
 45 48  1  1
 45 46  1  0
 47 45  1  0
 49  3  1  0
 49 58  1  0
 50 58  1  0
 51 56  1  0
 52 53  1  0
 52 51  1  0
 54 53  1  0
 54 63  1  0
 54 55  1  0
 56 50  1  0
 56 55  1  0
 57 50  2  0
 58 59  1  0
 60 61  2  0
 61 80  1  0
 62 61  1  0
 62 65  1  0
 63 60  1  0
 63 64  1  0
 64 62  2  0
 65 66  1  0
 66 67  2  0
 68 71  1  0
 68 67  1  0
 69 68  2  0
 70 69  1  0
 70 65  2  0
 71 72  1  0
 72 73  1  0
 73 74  2  0
 75 74  1  0
 75 79  1  0
 76 75  2  0
 77 72  2  0
 77 76  1  0
 78 77  1  0
 80 81  1  0
 81 84  1  0
 81 83  1  0
 82 80  2  0
 85 86  1  0
 85 60  1  0
 87 85  1  0
M  ISO  4   7 101   8 101  50 100  58 100
M  END
>  <TORSDO>  (82) 
F 18

>  <SCORE>  (82) 
-16.044

>  <name>  (82) 
81

>  <ligand_id>  (82) 
81

>  <original_smiles>  (82) 
[H]c1c(N(Oc2c([H])c([H])c3c(c2[H])C([H])([H])N(C(=O)C([H])(N([H])C(=O)C([H])(N([H])C([H])([H])[H])C([H])([H])[H])C(C([H])([H])[H])(C([H])([H])[H])C([H])([H])[H])C([H])(C(=O)N([H])C2([H])c4c([H])c([H])c([H])c([H])c4C([H])([H])C([H])([H])C2([H])[H])C3([H])[H])C([H])([H])[H])sc(C([H])([H])N([H])C(=O)N2C([H])([H])C([H])([H])C([H])([H])C([H])(n3nc(-c4c([H])c([H])c(Oc5c([H])c([H])c(F)c([H])c5F)c([H])c4[H])c(C(=O)N([H])[H])c3N([H])[H])C2([H])[H])c1[H]

>  <smiles>  (82) 
[H]c1c(N(Oc2c([H])c([H])c3c(c2[H])C([H])([H])N(C(=O)C([H])(N([H])C(=O)C([H])(N([H])C([H])([H])[H])C([H])([H])[H])C(C([H])([H])[H])(C([H])([H])[H])C([H])([H])[H])C([H])(C(=O)N([H])C2([H])c4c([H])c([H])c([H])c([H])c4C([H])([H])C([H])([H])C2([H])[H])C3([H])[H])C([H])([H])[H])sc(C([H])([H])N([H])C(=O)N2C([H])([H])C([H])([H])C([H])([H])C([H])(n3nc(-c4c([H])c([H])c(Oc5c([H])c([H])c(F)c([H])c5F)c([H])c4[H])c(C(=O)N([H])[H])c3N([H])[H])C2([H])[H])c1[H]

$$$$
82:0:0
     RDKit          3D

 93101  0  0  1  0  0  0  0  0999 V2000
  -28.7780  -21.1760   20.0120 N   0  0  0  0  0  0  0  0  0  0  0  0
  -27.8870  -21.1770   19.5180 H   0  0  0  0  0  0  0  0  0  0  0  0
  -30.6290  -19.5040   20.7330 C   0  0  0  0  0  3  0  0  0  0  0  0
  -30.8880  -18.0660   20.7690 C   0  0  0  0  0  0  0  0  0  0  0  0
  -29.3760  -19.8770   20.2790 C   0  0  0  0  0  0  0  0  0  0  0  0
  -29.8340  -17.2560   20.3920 C   0  0  0  0  0  0  0  0  0  0  0  0
  -28.4990  -18.3580   19.9480 S   0  0  0  0  0  0  0  0  0  0  0  0
  -30.5390  -14.8040   20.1270 C   0  0  0  0  0  0  0  0  0  0  0  0
  -30.3450  -12.5600   19.0470 C   0  0  0  0  0  2  0  0  0  0  0  0
  -29.3480  -12.6600   17.8710 C   0  0  0  0  0  2  0  0  0  0  0  0
  -27.8980  -12.4640   18.3590 C   0  0  0  0  0  2  0  0  0  0  0  0
  -27.5720  -13.3130   19.6160 C   0  0  0  0  0  3  0  0  0  0  0  0
  -28.6760  -13.1830   20.6870 C   0  0  0  0  0  2  0  0  0  0  0  0
  -29.9470  -13.5650   20.0550 N   0  0  0  0  0  0  0  0  0  0  0  0
  -31.7040  -14.9650   19.7480 O   0  0  0  0  0  0  0  0  0  0  0  0
  -29.6960  -15.8610   20.4150 N   0  0  0  0  0  0  0  0  0  0  0  0
  -28.7520  -15.5560   20.5860 H   0  0  0  0  0  0  0  0  0  0  0  0
  -25.2070  -13.8780   20.4410 C   0  0  0  0  0  0  0  0  0  0  0  0
  -24.1620  -13.0910   20.8430 C   0  0  0  0  0  0  0  0  0  0  0  0
  -24.6360  -11.7430   20.7760 C   0  0  0  0  0  0  0  0  0  0  0  0
  -26.2480  -13.0100   20.1520 N   0  0  0  0  0  0  0  0  0  0  0  0
  -25.9120  -11.7210   20.4150 N   0  0  0  0  0  0  0  0  0  0  0  0
  -23.9280  -10.4720   20.9770 C   0  0  0  0  0  0  0  0  0  0  0  0
  -24.3710   -9.5220   21.9250 C   0  0  0  0  0  3  0  0  0  0  0  0
  -23.6620   -8.3160   22.1130 C   0  0  0  0  0  3  0  0  0  0  0  0
  -22.4990   -8.0500   21.3550 C   0  0  0  0  0  0  0  0  0  0  0  0
  -22.0750   -8.9880   20.3960 C   0  0  0  0  0  3  0  0  0  0  0  0
  -22.7840  -10.1870   20.2070 C   0  0  0  0  0  3  0  0  0  0  0  0
  -21.7620   -6.8940   21.4510 O   0  0  0  0  0  0  0  0  0  0  0  0
  -21.6870   -6.1850   22.6220 C   0  0  0  0  0  0  0  0  0  0  0  0
  -21.1570   -6.7500   23.8030 C   0  0  0  0  0  3  0  0  0  0  0  0
  -21.0330   -5.9640   24.9660 C   0  0  0  0  0  3  0  0  0  0  0  0
  -21.4290   -4.6140   24.9490 C   0  0  0  0  0  0  0  0  0  0  0  0
  -21.9520   -4.0470   23.7730 C   0  0  0  0  0  3  0  0  0  0  0  0
  -22.0770   -4.8300   22.6130 C   0  0  0  0  0  0  0  0  0  0  0  0
  -22.5610   -4.2740   21.4760 F   0  0  0  0  0  0  0  0  0  0  0  0
  -21.3030   -3.8560   26.0650 F   0  0  0  0  0  0  0  0  0  0  0  0
  -22.7720  -13.5510   21.1750 C   0  0  0  0  0  0  0  0  0  0  0  0
  -22.0760  -12.8270   22.0440 N   0  0  0  0  0  0  0  0  0  0  0  0
  -22.3120  -14.5890   20.7010 O   0  0  0  0  0  0  0  0  0  0  0  0
  -22.4600  -11.9870   22.4520 H   0  0  0  0  0  0  0  0  0  0  0  0
  -21.1450  -13.1190   22.3080 H   0  0  0  0  0  0  0  0  0  0  0  0
  -25.3490  -15.2530   20.2730 N   0  0  0  0  0  0  0  0  0  0  0  0
  -24.5720  -15.8890   20.4110 H   0  0  0  0  0  0  0  0  0  0  0  0
  -26.1590  -15.7040   19.8690 H   0  0  0  0  0  0  0  0  0  0  0  0
  -32.1270  -17.5650   21.1880 N   0  0  0  0  0  0  0  0  0  0  0  0
  -32.9260  -18.1840   21.0900 H   0  0  0  0  0  0  0  0  0  0  0  0
  -32.3340  -16.6290   20.8410 H   0  0  0  0  0  0  0  0  0  0  0  0
  -29.0420  -22.4840   20.7290 C   0  0  0  0  0  2  0  0  0  0  0  0
  -28.6180  -23.8630   20.0230 C   0  0  0  0  0  0  0  0  0  0  0  0
  -28.5850  -23.9100   18.7880 O   0  0  0  0  0  0  0  0  0  0  0  0
  -28.2070  -25.1520   20.8710 C   0  0  0  0  0  2  0  0  0  0  0  0
  -28.3530  -26.5070   20.2490 O   0  0  0  0  0  0  0  0  0  0  0  0
  -24.5790  -31.9440   23.2290 C   0  0  0  0  0  0  0  0  0  0  0  0
  -27.2370  -27.3600   20.2380 C   0  0  0  0  0  0  0  0  0  0  0  0
  -23.3960  -30.5310   21.5840 C   0  0  0  0  0  3  0  0  0  0  0  0
  -24.8670  -28.9700   20.1850 C   0  0  0  0  0  0  0  0  0  0  0  0
  -25.9360  -30.8560   21.4220 C   0  0  0  0  0  2  0  0  0  0  0  0
  -26.0290  -29.4700   20.7880 C   0  0  0  0  0  0  0  0  0  0  0  0
  -27.2200  -28.6790   20.7980 C   0  0  0  0  0  3  0  0  0  0  0  0
  -26.0530  -26.9110   19.6170 C   0  0  0  0  0  3  0  0  0  0  0  0
  -24.8820  -27.6980   19.5900 C   0  0  0  0  0  3  0  0  0  0  0  0
  -23.6280  -29.8440   20.2120 C   0  0  0  0  0  2  0  0  0  0  0  0
  -24.6560  -31.1300   22.1350 N   0  0  0  0  0  0  0  0  0  0  0  0
  -23.4890  -32.2210   23.7520 O   0  0  0  0  0  0  0  0  0  0  0  0
  -22.7250  -29.5210   22.5460 C   0  0  0  0  0  0  0  0  0  0  0  0
  -21.3980  -29.3520   22.4180 N   0  0  0  0  0  0  0  0  0  0  0  0
  -23.3990  -28.8920   23.3660 O   0  0  0  0  0  0  0  0  0  0  0  0
  -20.9140  -29.9090   21.7280 H   0  0  0  0  0  0  0  0  0  0  0  0
  -18.0070  -28.2070   22.9520 C   0  0  0  0  0  0  0  0  0  0  0  0
  -20.5740  -28.4190   23.1880 C   0  0  0  0  0  3  0  0  0  0  0  0
  -20.6410  -26.9940   22.5920 C   0  0  0  0  0  2  0  0  0  0  0  0
  -19.5190  -26.7050   21.5890 C   0  0  0  0  0  2  0  0  0  0  0  0
  -18.1490  -26.8650   22.2550 C   0  0  0  0  0  2  0  0  0  0  0  0
  -19.1440  -28.9440   23.3750 C   0  0  0  0  0  0  0  0  0  0  0  0
  -18.9570  -30.2020   23.9880 C   0  0  0  0  0  3  0  0  0  0  0  0
  -17.6630  -30.7230   24.1810 C   0  0  0  0  0  3  0  0  0  0  0  0
  -16.5390  -29.9830   23.7730 C   0  0  0  0  0  3  0  0  0  0  0  0
  -16.7130  -28.7260   23.1650 C   0  0  0  0  0  3  0  0  0  0  0  0
  -25.8540  -32.5860   23.8600 C   0  0  0  0  0  3  0  0  0  0  0  0
  -25.5370  -33.9840   24.1820 N   0  0  0  0  0  0  0  0  0  0  0  0
  -25.8750  -35.0350   23.4230 C   0  0  0  0  0  0  0  0  0  0  0  0
  -26.5560  -34.9290   22.4000 O   0  0  0  0  0  0  0  0  0  0  0  0
  -24.9350  -34.1400   24.9780 H   0  0  0  0  0  0  0  0  0  0  0  0
  -24.1660  -36.8360   23.0240 C   0  0  0  0  0  1  0  0  0  0  0  0
  -25.3810  -36.4250   23.8710 C   0  0  0  0  0  3  0  0  0  0  0  0
  -27.4890  -37.3030   24.7740 C   0  0  0  0  0  1  0  0  0  0  0  0
  -26.4220  -37.4730   23.7920 N   0  0  0  0  0  0  0  0  0  0  0  0
  -26.0150  -38.3960   23.9240 H   0  0  0  0  0  0  0  0  0  0  0  0
  -26.3580  -31.8220   25.1460 C   0  0  1  0  0  0  0  0  0  0  0  0
  -25.2540  -31.5880   26.2060 C   0  0  0  0  0  1  0  0  0  0  0  0
  -26.9490  -30.4450   24.7680 C   0  0  0  0  0  1  0  0  0  0  0  0
  -27.5000  -32.6230   25.8160 C   0  0  0  0  0  1  0  0  0  0  0  0
  1  5  1  0
  1 49  1  0
  2  1  1  0
  3  4  1  0
  4 46  1  0
  5  3  2  0
  6 16  1  0
  6  4  2  0
  7  5  1  0
  7  6  1  0
  8 16  1  0
  9 14  1  0
 10 11  1  0
 10  9  1  0
 12 11  1  0
 12 21  1  0
 12 13  1  0
 14  8  1  0
 14 13  1  0
 15  8  2  0
 16 17  1  0
 18 19  2  0
 19 38  1  0
 20 19  1  0
 20 23  1  0
 21 22  1  0
 21 18  1  0
 22 20  2  0
 23 24  1  0
 24 25  2  0
 26 29  1  0
 26 25  1  0
 27 26  2  0
 28 27  1  0
 28 23  2  0
 29 30  1  0
 30 31  1  0
 31 32  2  0
 33 32  1  0
 33 37  1  0
 34 33  2  0
 35 30  2  0
 35 34  1  0
 36 35  1  0
 38 39  1  0
 39 42  1  0
 39 41  1  0
 40 38  2  0
 43 44  1  0
 43 18  1  0
 45 43  1  0
 47 46  1  0
 48 46  1  0
 50 49  1  0
 50 52  1  0
 51 50  2  0
 53 52  1  0
 54 65  2  0
 55 53  1  0
 55 60  1  0
 56 64  1  0
 56 66  1  0
 57 63  1  0
 57 59  1  0
 58 64  1  0
 59 60  2  0
 59 58  1  0
 61 55  2  0
 62 61  1  0
 62 57  2  0
 63 56  1  0
 64 54  1  0
 66 68  2  0
 67 66  1  0
 69 67  1  0
 70 79  2  0
 70 75  1  0
 71 67  1  0
 71 75  1  0
 72 71  1  0
 73 74  1  0
 73 72  1  0
 74 70  1  0
 75 76  2  0
 76 77  1  0
 78 77  2  0
 79 78  1  0
 80 54  1  0
 80 81  1  0
 80 90  1  0
 81 84  1  0
 82 86  1  0
 82 81  1  0
 83 82  2  0
 86 85  1  0
 88 86  1  0
 88 89  1  0
 88 87  1  0
 90 93  1  1
 90 91  1  0
 92 90  1  0
M  ISO  4   8 100  16 100  52 101  53 101
M  END
>  <TORSDO>  (83) 
F 21

>  <SCORE>  (83) 
-13.630

>  <name>  (83) 
82

>  <ligand_id>  (83) 
82

>  <original_smiles>  (83) 
[H]c1c([H])c([H])c2c(c1[H])C([H])([H])C([H])([H])C([H])([H])C2([H])N([H])C(=O)C1([H])N(C(=O)C([H])(N([H])C(=O)C([H])(N([H])C([H])([H])[H])C([H])([H])[H])C(C([H])([H])[H])(C([H])([H])[H])C([H])([H])[H])C([H])([H])c2c([H])c(OC([H])([H])C(=O)C([H])([H])N([H])c3sc(N([H])C(=O)N4C([H])([H])C([H])([H])C([H])([H])C([H])(n5nc(-c6c([H])c([H])c(Oc7c([H])c([H])c(F)c([H])c7F)c([H])c6[H])c(C(=O)N([H])[H])c5N([H])[H])C4([H])[H])c(N([H])[H])c3[H])c([H])c([H])c2C1([H])[H]

>  <smiles>  (83) 
[H]c1c([H])c([H])c2c(c1[H])C([H])([H])C([H])([H])C([H])([H])C2([H])N([H])C(=O)C1([H])N(C(=O)C([H])(N([H])C(=O)C([H])(N([H])C([H])([H])[H])C([H])([H])[H])C(C([H])([H])[H])(C([H])([H])[H])C([H])([H])[H])C([H])([H])c2c([H])c(OC([H])([H])C(=O)C([H])([H])N([H])c3sc(N([H])C(=O)N4C([H])([H])C([H])([H])C([H])([H])C([H])(n5nc(-c6c([H])c([H])c(Oc7c([H])c([H])c(F)c([H])c7F)c([H])c6[H])c(C(=O)N([H])[H])c5N([H])[H])C4([H])[H])c(N([H])[H])c3[H])c([H])c([H])c2C1([H])[H]

$$$$
83:0:0
     RDKit          3D

 96105  0  0  1  0  0  0  0  0999 V2000
  -29.0240  -23.8020   20.8570 C   0  0  0  0  0  0  0  0  0  0  0  0
  -29.5840  -21.2400   20.7270 C   0  0  0  0  0  3  0  0  0  0  0  0
  -27.6900  -24.0390   18.9510 C   0  0  0  0  0  2  0  0  0  0  0  0
  -28.0270  -22.5310   19.1500 C   0  0  0  0  0  2  0  0  0  0  0  0
  -27.8890  -24.7630   20.3090 C   0  0  1  0  0  0  0  0  0  0  0  0
  -26.6960  -24.5130   21.2760 C   0  0  0  0  0  1  0  0  0  0  0  0
  -28.9710  -22.4260   20.2780 N   0  0  0  0  0  0  0  0  0  0  0  0
  -30.2060  -21.2820   21.9040 N   0  0  0  0  0  0  0  0  0  0  0  0
  -29.8140  -24.1160   21.7560 O   0  0  0  0  0  0  0  0  0  0  0  0
  -30.7310  -20.4820   22.2220 H   0  0  0  0  0  0  0  0  0  0  0  0
  -30.2810  -22.1610   22.3980 H   0  0  0  0  0  0  0  0  0  0  0  0
  -30.5180  -18.6840   18.0280 C   0  0  0  0  0  3  0  0  0  0  0  0
  -30.1700  -19.8810   18.6880 C   0  0  0  0  0  3  0  0  0  0  0  0
  -30.4350  -17.4290   18.6680 C   0  0  0  0  0  3  0  0  0  0  0  0
  -29.5980  -18.5570   20.6530 C   0  0  0  0  0  3  0  0  0  0  0  0
  -29.7120  -19.8750   20.0220 C   0  0  0  0  0  0  0  0  0  0  0  0
  -29.9730  -17.3040   20.0000 C   0  0  0  0  0  0  0  0  0  0  0  0
  -30.5660  -14.7790   20.3240 C   0  0  0  0  0  0  0  0  0  0  0  0
  -30.3490  -12.4750   19.3840 C   0  0  0  0  0  2  0  0  0  0  0  0
  -29.4310  -12.5360   18.1440 C   0  0  0  0  0  2  0  0  0  0  0  0
  -27.9580  -12.3770   18.5620 C   0  0  0  0  0  2  0  0  0  0  0  0
  -27.5750  -13.2900   19.7570 C   0  0  0  0  0  3  0  0  0  0  0  0
  -28.6200  -13.2290   20.8930 C   0  0  0  0  0  2  0  0  0  0  0  0
  -29.9280  -13.5540   20.3110 N   0  0  0  0  0  0  0  0  0  0  0  0
  -31.7470  -14.8500   19.9730 O   0  0  0  0  0  0  0  0  0  0  0  0
  -29.8320  -15.9340   20.5780 N   0  0  0  0  0  0  0  0  0  0  0  0
  -28.9630  -15.7730   21.0640 H   0  0  0  0  0  0  0  0  0  0  0  0
  -25.1830  -13.8960   20.4550 C   0  0  0  0  0  0  0  0  0  0  0  0
  -24.1120  -13.1270   20.8230 C   0  0  0  0  0  0  0  0  0  0  0  0
  -24.5730  -11.7750   20.8170 C   0  0  0  0  0  0  0  0  0  0  0  0
  -26.2260  -13.0110   20.2390 N   0  0  0  0  0  0  0  0  0  0  0  0
  -25.8670  -11.7330   20.5240 N   0  0  0  0  0  0  0  0  0  0  0  0
  -23.8420  -10.5160   21.0170 C   0  0  0  0  0  0  0  0  0  0  0  0
  -24.2730   -9.5520   21.9540 C   0  0  0  0  0  3  0  0  0  0  0  0
  -23.5440   -8.3590   22.1410 C   0  0  0  0  0  3  0  0  0  0  0  0
  -22.3670   -8.1220   21.3910 C   0  0  0  0  0  0  0  0  0  0  0  0
  -21.9560   -9.0750   20.4420 C   0  0  0  0  0  3  0  0  0  0  0  0
  -22.6870  -10.2590   20.2530 C   0  0  0  0  0  3  0  0  0  0  0  0
  -21.6070   -6.9810   21.4880 O   0  0  0  0  0  0  0  0  0  0  0  0
  -21.5710   -6.2360   22.6390 C   0  0  0  0  0  0  0  0  0  0  0  0
  -21.1780   -6.7920   23.8750 C   0  0  0  0  0  3  0  0  0  0  0  0
  -21.0890   -5.9740   25.0190 C   0  0  0  0  0  3  0  0  0  0  0  0
  -21.3830   -4.6000   24.9270 C   0  0  0  0  0  0  0  0  0  0  0  0
  -21.7690   -4.0430   23.6950 C   0  0  0  0  0  3  0  0  0  0  0  0
  -21.8600   -4.8590   22.5540 C   0  0  0  0  0  0  0  0  0  0  0  0
  -22.2130   -4.3140   21.3650 F   0  0  0  0  0  0  0  0  0  0  0  0
  -21.2890   -3.8120   26.0230 F   0  0  0  0  0  0  0  0  0  0  0  0
  -22.7130  -13.6100   21.0720 C   0  0  0  0  0  0  0  0  0  0  0  0
  -21.9750  -12.9270   21.9400 N   0  0  0  0  0  0  0  0  0  0  0  0
  -22.2830  -14.6290   20.5310 O   0  0  0  0  0  0  0  0  0  0  0  0
  -22.3370  -12.1020   22.3950 H   0  0  0  0  0  0  0  0  0  0  0  0
  -21.0360  -13.2320   22.1530 H   0  0  0  0  0  0  0  0  0  0  0  0
  -25.3510  -15.2630   20.2600 N   0  0  0  0  0  0  0  0  0  0  0  0
  -24.5800  -15.9160   20.3470 H   0  0  0  0  0  0  0  0  0  0  0  0
  -26.2020  -15.6980   19.9260 H   0  0  0  0  0  0  0  0  0  0  0  0
  -28.1980  -26.2710   20.2540 O   0  0  0  0  0  0  0  0  0  0  0  0
  -24.5940  -31.8670   23.2390 C   0  0  0  0  0  0  0  0  0  0  0  0
  -27.1500  -27.2330   20.1610 C   0  0  0  0  0  0  0  0  0  0  0  0
  -23.3840  -30.4770   21.6030 C   0  0  0  0  0  3  0  0  0  0  0  0
  -24.8240  -28.9330   20.1580 C   0  0  0  0  0  0  0  0  0  0  0  0
  -25.9360  -30.7610   21.4260 C   0  0  0  0  0  2  0  0  0  0  0  0
  -26.0040  -29.3840   20.7640 C   0  0  0  0  0  0  0  0  0  0  0  0
  -27.1720  -28.5450   20.7560 C   0  0  0  0  0  3  0  0  0  0  0  0
  -25.9580  -26.8890   19.4880 C   0  0  0  0  0  3  0  0  0  0  0  0
  -24.8080  -27.6950   19.5060 C   0  0  0  0  0  3  0  0  0  0  0  0
  -23.5960  -29.8180   20.2170 C   0  0  0  0  0  2  0  0  0  0  0  0
  -24.6570  -31.0560   22.1420 N   0  0  0  0  0  0  0  0  0  0  0  0
  -23.5110  -32.1480   23.7750 O   0  0  0  0  0  0  0  0  0  0  0  0
  -22.7220  -29.4540   22.5600 C   0  0  0  0  0  0  0  0  0  0  0  0
  -21.3930  -29.2820   22.4420 N   0  0  0  0  0  0  0  0  0  0  0  0
  -23.4020  -28.8210   23.3740 O   0  0  0  0  0  0  0  0  0  0  0  0
  -20.9040  -29.8440   21.7590 H   0  0  0  0  0  0  0  0  0  0  0  0
  -18.0120  -28.0900   22.9520 C   0  0  0  0  0  0  0  0  0  0  0  0
  -20.5730  -28.3460   23.2130 C   0  0  0  0  0  3  0  0  0  0  0  0
  -20.6710  -26.9150   22.6370 C   0  0  0  0  0  2  0  0  0  0  0  0
  -19.5640  -26.5950   21.6270 C   0  0  0  0  0  2  0  0  0  0  0  0
  -18.1840  -26.7410   22.2740 C   0  0  0  0  0  2  0  0  0  0  0  0
  -19.1340  -28.8520   23.3780 C   0  0  0  0  0  0  0  0  0  0  0  0
  -18.9190  -30.1130   23.9740 C   0  0  0  0  0  3  0  0  0  0  0  0
  -17.6160  -30.6160   24.1440 C   0  0  0  0  0  3  0  0  0  0  0  0
  -16.5080  -29.8530   23.7350 C   0  0  0  0  0  3  0  0  0  0  0  0
  -16.7080  -28.5910   23.1460 C   0  0  0  0  0  3  0  0  0  0  0  0
  -25.8790  -32.4990   23.8580 C   0  0  0  0  0  3  0  0  0  0  0  0
  -25.5680  -33.8950   24.1930 N   0  0  0  0  0  0  0  0  0  0  0  0
  -25.8880  -34.9520   23.4360 C   0  0  0  0  0  0  0  0  0  0  0  0
  -26.5460  -34.8530   22.3950 O   0  0  0  0  0  0  0  0  0  0  0  0
  -24.9790  -34.0460   24.9980 H   0  0  0  0  0  0  0  0  0  0  0  0
  -24.1460  -36.7390   23.1190 C   0  0  0  0  0  1  0  0  0  0  0  0
  -25.4050  -36.3370   23.9050 C   0  0  0  0  0  3  0  0  0  0  0  0
  -27.5490  -37.2290   24.6970 C   0  0  0  0  0  1  0  0  0  0  0  0
  -26.4290  -37.3970   23.7760 N   0  0  0  0  0  0  0  0  0  0  0  0
  -26.0220  -38.3140   23.9350 H   0  0  0  0  0  0  0  0  0  0  0  0
  -26.3960  -31.7280   25.1330 C   0  0  1  0  0  0  0  0  0  0  0  0
  -25.3040  -31.4890   26.2040 C   0  0  0  0  0  1  0  0  0  0  0  0
  -26.9810  -30.3510   24.7430 C   0  0  0  0  0  1  0  0  0  0  0  0
  -27.5490  -32.5220   25.7910 C   0  0  0  0  0  1  0  0  0  0  0  0
  1  9  2  0
  2  8  1  0
  3  4  1  0
  3  5  1  0
  4  7  1  0
  5  1  1  0
  5  6  1  1
  7  2  1  0
  7  1  1  0
  8 10  1  0
  8 11  1  0
 12 14  2  0
 12 13  1  0
 13 16  2  0
 14 17  1  0
 16 15  1  0
 16  2  1  0
 17 26  1  0
 17 15  2  0
 18 26  1  0
 19 24  1  0
 20 21  1  0
 20 19  1  0
 22 21  1  0
 22 31  1  0
 22 23  1  0
 24 18  1  0
 24 23  1  0
 25 18  2  0
 26 27  1  0
 28 29  2  0
 29 48  1  0
 30 29  1  0
 30 33  1  0
 31 28  1  0
 31 32  1  0
 32 30  2  0
 33 34  1  0
 34 35  2  0
 36 39  1  0
 36 35  1  0
 37 36  2  0
 38 37  1  0
 38 33  2  0
 39 40  1  0
 40 41  1  0
 41 42  2  0
 43 42  1  0
 43 47  1  0
 44 43  2  0
 45 40  2  0
 45 44  1  0
 46 45  1  0
 48 49  1  0
 49 52  1  0
 49 51  1  0
 50 48  2  0
 53 54  1  0
 53 28  1  0
 55 53  1  0
 56  5  1  0
 57 68  2  0
 58 56  1  0
 58 63  1  0
 59 67  1  0
 59 69  1  0
 60 66  1  0
 60 62  1  0
 61 67  1  0
 62 61  1  0
 63 62  2  0
 64 65  1  0
 64 58  2  0
 65 60  2  0
 66 59  1  0
 67 57  1  0
 69 71  2  0
 70 69  1  0
 72 70  1  0
 73 82  2  0
 73 78  1  0
 74 70  1  0
 74 78  1  0
 75 74  1  0
 76 77  1  0
 76 75  1  0
 77 73  1  0
 78 79  2  0
 79 80  1  0
 81 80  2  0
 82 81  1  0
 83 57  1  0
 83 84  1  0
 83 93  1  0
 84 87  1  0
 85 89  1  0
 85 84  1  0
 86 85  2  0
 89 88  1  0
 91 89  1  0
 91 92  1  0
 91 90  1  0
 93 96  1  1
 93 94  1  0
 95 93  1  0
M  ISO  4   5 101  18 100  26 100  56 101
M  END
>  <TORSDO>  (84) 
F 17

>  <SCORE>  (84) 
-15.348

>  <name>  (84) 
83

>  <ligand_id>  (84) 
83

>  <original_smiles>  (84) 
[H]c1c([H])c(C(N2C(=O)C(Oc3c([H])c([H])c4c(c3[H])C([H])([H])N(C(=O)C([H])(N([H])C(=O)C([H])(N([H])C([H])([H])[H])C([H])([H])[H])C(C([H])([H])[H])(C([H])([H])[H])C([H])([H])[H])C([H])(C(=O)N([H])C3([H])c5c([H])c([H])c([H])c([H])c5C([H])([H])C([H])([H])C3([H])[H])C4([H])[H])(C([H])([H])[H])C([H])([H])C2([H])[H])=[N+]([H])[H])c([H])c(N([H])C(=O)N2C([H])([H])C([H])([H])C([H])([H])C([H])(n3nc(-c4c([H])c([H])c(Oc5c([H])c([H])c(F)c([H])c5F)c([H])c4[H])c(C(=O)N([H])[H])c3N([H])[H])C2([H])[H])c1[H]

>  <smiles>  (84) 
[H]c1c([H])c(C(N2C(=O)C(Oc3c([H])c([H])c4c(c3[H])C([H])([H])N(C(=O)C([H])(N([H])C(=O)C([H])(N([H])C([H])([H])[H])C([H])([H])[H])C(C([H])([H])[H])(C([H])([H])[H])C([H])([H])[H])C([H])(C(=O)N([H])C3([H])c5c([H])c([H])c([H])c([H])c5C([H])([H])C([H])([H])C3([H])[H])C4([H])[H])(C([H])([H])[H])C([H])([H])C2([H])[H])=[N+]([H])[H])c([H])c(N([H])C(=O)N2C([H])([H])C([H])([H])C([H])([H])C([H])(n3nc(-c4c([H])c([H])c(Oc5c([H])c([H])c(F)c([H])c5F)c([H])c4[H])c(C(=O)N([H])[H])c3N([H])[H])C2([H])[H])c1[H]

$$$$
84:0:0
     RDKit          3D

 90 99  0  0  1  0  0  0  0  0999 V2000
  -28.9610  -23.4270   20.2220 C   0  0  0  0  0  0  0  0  0  0  0  0
  -28.5360  -22.0700   20.1440 N   0  0  0  0  0  0  0  0  0  0  0  0
  -30.1510  -23.6850   20.4260 O   0  0  0  0  0  0  0  0  0  0  0  0
  -27.5300  -22.0490   20.0370 H   0  0  0  0  0  0  0  0  0  0  0  0
  -30.5930  -15.0730   20.0730 C   0  0  0  0  0  0  0  0  0  0  0  0
  -30.4310  -12.7250   19.1090 C   0  0  0  0  0  2  0  0  0  0  0  0
  -29.4450  -12.6360   17.9220 C   0  0  0  0  0  2  0  0  0  0  0  0
  -28.0080  -12.3960   18.4210 C   0  0  0  0  0  2  0  0  0  0  0  0
  -27.6330  -13.3270   19.6000 C   0  0  0  0  0  3  0  0  0  0  0  0
  -28.7370  -13.3700   20.6800 C   0  0  0  0  0  2  0  0  0  0  0  0
  -29.9680  -13.8200   20.0150 N   0  0  0  0  0  0  0  0  0  0  0  0
  -31.7930  -15.0930   19.7760 O   0  0  0  0  0  0  0  0  0  0  0  0
  -31.0340  -18.8800   19.9090 C   0  0  0  0  0  3  0  0  0  0  0  0
  -30.5140  -20.2550   19.9450 C   0  0  0  0  0  3  0  0  0  0  0  0
  -28.2530  -19.5010   20.4120 C   0  0  0  0  0  3  0  0  0  0  0  0
  -28.7790  -18.1560   20.3880 C   0  0  0  0  0  0  0  0  0  0  0  0
  -30.1430  -17.7880   20.1340 C   0  0  0  0  0  0  0  0  0  0  0  0
  -29.1290  -20.6470   20.1830 C   0  0  0  0  0  0  0  0  0  0  0  0
  -28.4220  -16.6610   20.4960 C   0  0  0  0  0  2  0  0  0  0  0  0
  -29.8760  -16.3090   20.2260 N   0  0  0  0  0  0  0  0  0  0  0  0
  -25.2810  -13.8850   20.4500 C   0  0  0  0  0  0  0  0  0  0  0  0
  -24.2370  -13.0990   20.8520 C   0  0  0  0  0  0  0  0  0  0  0  0
  -24.7060  -11.7530   20.7730 C   0  0  0  0  0  0  0  0  0  0  0  0
  -26.3190  -13.0170   20.1520 N   0  0  0  0  0  0  0  0  0  0  0  0
  -25.9850  -11.7280   20.4140 N   0  0  0  0  0  0  0  0  0  0  0  0
  -23.9910  -10.4850   20.9600 C   0  0  0  0  0  0  0  0  0  0  0  0
  -24.4210   -9.5270   21.9040 C   0  0  0  0  0  3  0  0  0  0  0  0
  -23.7030   -8.3250   22.0790 C   0  0  0  0  0  3  0  0  0  0  0  0
  -22.5420   -8.0730   21.3120 C   0  0  0  0  0  0  0  0  0  0  0  0
  -22.1310   -9.0200   20.3570 C   0  0  0  0  0  3  0  0  0  0  0  0
  -22.8500  -10.2150   20.1790 C   0  0  0  0  0  3  0  0  0  0  0  0
  -21.7950   -6.9230   21.3970 O   0  0  0  0  0  0  0  0  0  0  0  0
  -21.6830   -6.2260   22.5730 C   0  0  0  0  0  0  0  0  0  0  0  0
  -21.1410   -6.8120   23.7390 C   0  0  0  0  0  3  0  0  0  0  0  0
  -20.9790   -6.0380   24.9050 C   0  0  0  0  0  3  0  0  0  0  0  0
  -21.3490   -4.6790   24.9070 C   0  0  0  0  0  0  0  0  0  0  0  0
  -21.8840   -4.0930   23.7460 C   0  0  0  0  0  3  0  0  0  0  0  0
  -22.0470   -4.8640   22.5820 C   0  0  0  0  0  0  0  0  0  0  0  0
  -22.5430   -4.2890   21.4590 F   0  0  0  0  0  0  0  0  0  0  0  0
  -21.1870   -3.9340   26.0250 F   0  0  0  0  0  0  0  0  0  0  0  0
  -22.8500  -13.5680   21.1830 C   0  0  0  0  0  0  0  0  0  0  0  0
  -22.1590  -12.8580   22.0660 N   0  0  0  0  0  0  0  0  0  0  0  0
  -22.3920  -14.6010   20.6940 O   0  0  0  0  0  0  0  0  0  0  0  0
  -22.5430  -12.0220   22.4820 H   0  0  0  0  0  0  0  0  0  0  0  0
  -21.2320  -13.1560   22.3330 H   0  0  0  0  0  0  0  0  0  0  0  0
  -25.4120  -15.2580   20.2820 N   0  0  0  0  0  0  0  0  0  0  0  0
  -24.6030  -15.8620   20.3770 H   0  0  0  0  0  0  0  0  0  0  0  0
  -26.1640  -15.6870   19.7650 H   0  0  0  0  0  0  0  0  0  0  0  0
  -27.9090  -24.7010   20.0350 C   0  0  0  0  0  2  0  0  0  0  0  0
  -28.2500  -26.2100   20.2610 O   0  0  0  0  0  0  0  0  0  0  0  0
  -24.6290  -31.8960   23.2850 C   0  0  0  0  0  0  0  0  0  0  0  0
  -27.2030  -27.2090   20.2040 C   0  0  0  0  0  0  0  0  0  0  0  0
  -23.4290  -30.5250   21.6270 C   0  0  0  0  0  3  0  0  0  0  0  0
  -24.8770  -28.9650   20.1870 C   0  0  0  0  0  0  0  0  0  0  0  0
  -25.9850  -30.7850   21.4700 C   0  0  0  0  0  2  0  0  0  0  0  0
  -26.0570  -29.4000   20.8020 C   0  0  0  0  0  0  0  0  0  0  0  0
  -27.2210  -28.5390   20.7920 C   0  0  0  0  0  3  0  0  0  0  0  0
  -25.9900  -26.8810   19.5530 C   0  0  0  0  0  3  0  0  0  0  0  0
  -24.8560  -27.7190   19.5460 C   0  0  0  0  0  3  0  0  0  0  0  0
  -23.6520  -29.8640   20.2410 C   0  0  0  0  0  2  0  0  0  0  0  0
  -24.7010  -31.0900   22.1820 N   0  0  0  0  0  0  0  0  0  0  0  0
  -23.5420  -32.1770   23.8140 O   0  0  0  0  0  0  0  0  0  0  0  0
  -22.7440  -29.5080   22.5750 C   0  0  0  0  0  0  0  0  0  0  0  0
  -21.4170  -29.3360   22.4380 N   0  0  0  0  0  0  0  0  0  0  0  0
  -23.4100  -28.8770   23.4000 O   0  0  0  0  0  0  0  0  0  0  0  0
  -20.9370  -29.8940   21.7460 H   0  0  0  0  0  0  0  0  0  0  0  0
  -18.0300  -28.1390   22.9210 C   0  0  0  0  0  0  0  0  0  0  0  0
  -20.5910  -28.3920   23.1950 C   0  0  0  0  0  3  0  0  0  0  0  0
  -20.6890  -26.9660   22.6040 C   0  0  0  0  0  2  0  0  0  0  0  0
  -19.5880  -26.6570   21.5850 C   0  0  0  0  0  2  0  0  0  0  0  0
  -18.2050  -26.7990   22.2270 C   0  0  0  0  0  2  0  0  0  0  0  0
  -19.1510  -28.8930   23.3610 C   0  0  0  0  0  0  0  0  0  0  0  0
  -18.9320  -30.1480   23.9710 C   0  0  0  0  0  3  0  0  0  0  0  0
  -17.6280  -30.6480   24.1440 C   0  0  0  0  0  3  0  0  0  0  0  0
  -16.5220  -29.8900   23.7170 C   0  0  0  0  0  3  0  0  0  0  0  0
  -16.7250  -28.6380   23.1130 C   0  0  0  0  0  3  0  0  0  0  0  0
  -25.9070  -32.5200   23.9230 C   0  0  0  0  0  3  0  0  0  0  0  0
  -25.6060  -33.9240   24.2470 N   0  0  0  0  0  0  0  0  0  0  0  0
  -25.9220  -34.9730   23.4760 C   0  0  0  0  0  0  0  0  0  0  0  0
  -26.5670  -34.8610   22.4280 O   0  0  0  0  0  0  0  0  0  0  0  0
  -25.0360  -34.0870   25.0640 H   0  0  0  0  0  0  0  0  0  0  0  0
  -24.1780  -36.7600   23.1750 C   0  0  0  0  0  1  0  0  0  0  0  0
  -25.4530  -36.3660   23.9380 C   0  0  0  0  0  3  0  0  0  0  0  0
  -27.6140  -37.2690   24.6730 C   0  0  0  0  0  1  0  0  0  0  0  0
  -26.4770  -37.4190   23.7690 N   0  0  0  0  0  0  0  0  0  0  0  0
  -26.0730  -38.3400   23.9190 H   0  0  0  0  0  0  0  0  0  0  0  0
  -26.3950  -31.7520   25.2130 C   0  0  1  0  0  0  0  0  0  0  0  0
  -25.2840  -31.5390   26.2660 C   0  0  0  0  0  1  0  0  0  0  0  0
  -26.9670  -30.3640   24.8430 C   0  0  0  0  0  1  0  0  0  0  0  0
  -27.5470  -32.5370   25.8830 C   0  0  0  0  0  1  0  0  0  0  0  0
  1  3  2  0
  2 18  1  0
  2  1  1  0
  4  2  1  0
  5 20  1  0
  6 11  1  0
  7  8  1  0
  7  6  1  0
  9  8  1  0
  9 24  1  0
  9 10  1  0
 11  5  1  0
 11 10  1  0
 12  5  2  0
 13 14  2  0
 13 17  1  0
 14 18  1  0
 16 15  1  0
 16 19  1  0
 17 20  1  0
 17 16  2  0
 18 15  2  0
 20 19  1  0
 21 22  2  0
 22 41  1  0
 23 22  1  0
 23 26  1  0
 24 25  1  0
 24 21  1  0
 25 23  2  0
 26 27  1  0
 27 28  2  0
 29 32  1  0
 29 28  1  0
 30 29  2  0
 31 30  1  0
 31 26  2  0
 32 33  1  0
 33 38  2  0
 33 34  1  0
 34 35  2  0
 35 36  1  0
 36 40  1  0
 37 36  2  0
 38 37  1  0
 39 38  1  0
 41 42  1  0
 42 45  1  0
 42 44  1  0
 43 41  2  0
 46 47  1  0
 46 21  1  0
 48 46  1  0
 49  1  1  0
 49 50  1  0
 51 62  2  0
 52 50  1  0
 52 57  1  0
 53 61  1  0
 53 63  1  0
 54 60  1  0
 54 56  1  0
 55 61  1  0
 56 55  1  0
 57 56  2  0
 58 52  2  0
 59 58  1  0
 59 54  2  0
 60 53  1  0
 61 51  1  0
 63 65  2  0
 64 63  1  0
 66 64  1  0
 67 76  2  0
 67 72  1  0
 68 64  1  0
 68 72  1  0
 69 68  1  0
 70 71  1  0
 70 69  1  0
 71 67  1  0
 72 73  2  0
 73 74  1  0
 75 74  2  0
 76 75  1  0
 77 51  1  0
 77 78  1  0
 77 87  1  0
 78 81  1  0
 79 83  1  0
 79 78  1  0
 80 79  2  0
 83 82  1  0
 85 86  1  0
 85 83  1  0
 85 84  1  0
 87 90  1  1
 87 88  1  0
 89 87  1  0
M  ISO  4   5 100  20 100  49 101  50 101
M  END
>  <TORSDO>  (85) 
F 17

>  <SCORE>  (85) 
-15.135

>  <name>  (85) 
84

>  <ligand_id>  (85) 
84

>  <original_smiles>  (85) 
[H]c1c([H])c([H])c2c(c1[H])C([H])([H])C([H])([H])C([H])([H])C2([H])N([H])C(=O)C1([H])N(C(=O)C([H])(N([H])C(=O)C([H])(N([H])C([H])([H])[H])C([H])([H])[H])C(C([H])([H])[H])(C([H])([H])[H])C([H])([H])[H])C([H])([H])c2c([H])c(OC([H])([H])C(=O)N([H])c3c([H])c([H])c4c(c3[H])C([H])([H])N4C(=O)N3C([H])([H])C([H])([H])C([H])([H])C([H])(n4nc(-c5c([H])c([H])c(Oc6c([H])c([H])c(F)c([H])c6F)c([H])c5[H])c(C(=O)N([H])[H])c4N([H])[H])C3([H])[H])c([H])c([H])c2C1([H])[H]

>  <smiles>  (85) 
[H]c1c([H])c([H])c2c(c1[H])C([H])([H])C([H])([H])C([H])([H])C2([H])N([H])C(=O)C1([H])N(C(=O)C([H])(N([H])C(=O)C([H])(N([H])C([H])([H])[H])C([H])([H])[H])C(C([H])([H])[H])(C([H])([H])[H])C([H])([H])[H])C([H])([H])c2c([H])c(OC([H])([H])C(=O)N([H])c3c([H])c([H])c4c(c3[H])C([H])([H])N4C(=O)N3C([H])([H])C([H])([H])C([H])([H])C([H])(n4nc(-c5c([H])c([H])c(Oc6c([H])c([H])c(F)c([H])c6F)c([H])c5[H])c(C(=O)N([H])[H])c4N([H])[H])C3([H])[H])c([H])c([H])c2C1([H])[H]

$$$$
85:0:0
     RDKit          3D

 97105  0  0  1  0  0  0  0  0999 V2000
  -29.0300  -22.7860   20.1290 C   0  0  0  0  0  0  0  0  0  0  0  0
  -29.9950  -22.0220   19.5440 N   0  0  0  0  0  0  0  0  0  0  0  0
  -28.0770  -22.2760   20.7210 O   0  0  0  0  0  0  0  0  0  0  0  0
  -30.6350  -22.5650   18.9850 H   0  0  0  0  0  0  0  0  0  0  0  0
  -30.5750  -17.8370   18.7060 C   0  0  0  0  0  3  0  0  0  0  0  0
  -29.9270  -19.5620   20.3160 C   0  0  0  0  0  3  0  0  0  0  0  0
  -30.5280  -20.1890   18.0410 C   0  0  0  0  0  3  0  0  0  0  0  0
  -30.1840  -18.1760   20.0180 C   0  0  0  0  0  0  0  0  0  0  0  0
  -30.7600  -18.8330   17.7300 C   0  0  0  0  0  0  0  0  0  0  0  0
  -30.0950  -20.5880   19.3280 C   0  0  0  0  0  0  0  0  0  0  0  0
  -31.2130  -18.4710   16.4610 N   0  0  0  0  0  0  0  0  0  0  0  0
  -31.6420  -17.5570   16.3510 H   0  0  0  0  0  0  0  0  0  0  0  0
  -31.6670  -19.1780   15.8920 H   0  0  0  0  0  0  0  0  0  0  0  0
  -30.1720  -17.0700   21.1120 C   0  0  0  0  0  2  0  0  0  0  0  0
  -30.6180  -14.6000   20.4470 C   0  0  0  0  0  0  0  0  0  0  0  0
  -30.3860  -12.3870   19.3520 C   0  0  0  0  0  2  0  0  0  0  0  0
  -29.4370  -12.5260   18.1420 C   0  0  0  0  0  2  0  0  0  0  0  0
  -27.9640  -12.3730   18.5740 C   0  0  0  0  0  2  0  0  0  0  0  0
  -27.6120  -13.2370   19.8140 C   0  0  0  0  0  3  0  0  0  0  0  0
  -28.6700  -13.0660   20.9260 C   0  0  0  0  0  2  0  0  0  0  0  0
  -29.9800  -13.3950   20.3440 N   0  0  0  0  0  0  0  0  0  0  0  0
  -31.7950  -14.7500   20.1080 O   0  0  0  0  0  0  0  0  0  0  0  0
  -29.8250  -15.6580   20.7650 N   0  0  0  0  0  0  0  0  0  0  0  0
  -28.8610  -15.4160   20.9270 H   0  0  0  0  0  0  0  0  0  0  0  0
  -25.2170  -13.8500   20.5210 C   0  0  0  0  0  0  0  0  0  0  0  0
  -24.1450  -13.0810   20.8910 C   0  0  0  0  0  0  0  0  0  0  0  0
  -24.6040  -11.7300   20.8690 C   0  0  0  0  0  0  0  0  0  0  0  0
  -26.2600  -12.9650   20.2970 N   0  0  0  0  0  0  0  0  0  0  0  0
  -25.8960  -11.6850   20.5670 N   0  0  0  0  0  0  0  0  0  0  0  0
  -23.8760  -10.4690   21.0620 C   0  0  0  0  0  0  0  0  0  0  0  0
  -24.3160   -9.4960   21.9850 C   0  0  0  0  0  3  0  0  0  0  0  0
  -23.5880   -8.3000   22.1670 C   0  0  0  0  0  3  0  0  0  0  0  0
  -22.4050   -8.0710   21.4240 C   0  0  0  0  0  0  0  0  0  0  0  0
  -21.9850   -9.0330   20.4890 C   0  0  0  0  0  3  0  0  0  0  0  0
  -22.7130  -10.2200   20.3070 C   0  0  0  0  0  3  0  0  0  0  0  0
  -21.6470   -6.9280   21.5160 O   0  0  0  0  0  0  0  0  0  0  0  0
  -21.6210   -6.1710   22.6590 C   0  0  0  0  0  0  0  0  0  0  0  0
  -21.2390   -6.7150   23.9050 C   0  0  0  0  0  3  0  0  0  0  0  0
  -21.1610   -5.8840   25.0400 C   0  0  0  0  0  3  0  0  0  0  0  0
  -21.4540   -4.5110   24.9330 C   0  0  0  0  0  0  0  0  0  0  0  0
  -21.8290   -3.9670   23.6920 C   0  0  0  0  0  3  0  0  0  0  0  0
  -21.9100   -4.7950   22.5570 C   0  0  0  0  0  0  0  0  0  0  0  0
  -22.2510   -4.2610   21.3610 F   0  0  0  0  0  0  0  0  0  0  0  0
  -21.3700   -3.7120   26.0210 F   0  0  0  0  0  0  0  0  0  0  0  0
  -22.7480  -13.5630   21.1540 C   0  0  0  0  0  0  0  0  0  0  0  0
  -22.0160  -12.8720   22.0200 N   0  0  0  0  0  0  0  0  0  0  0  0
  -22.3150  -14.5860   20.6260 O   0  0  0  0  0  0  0  0  0  0  0  0
  -22.3790  -12.0440   22.4670 H   0  0  0  0  0  0  0  0  0  0  0  0
  -21.0780  -13.1750   22.2410 H   0  0  0  0  0  0  0  0  0  0  0  0
  -25.3850  -15.2190   20.3340 N   0  0  0  0  0  0  0  0  0  0  0  0
  -24.6190  -15.8760   20.4340 H   0  0  0  0  0  0  0  0  0  0  0  0
  -26.2300  -15.6500   19.9800 H   0  0  0  0  0  0  0  0  0  0  0  0
  -28.2450  -25.1630   20.2450 C   0  0  0  0  0  3  0  0  0  0  0  0
  -29.2340  -24.2590   19.9730 C   0  0  0  0  0  0  0  0  0  0  0  0
  -30.4320  -24.7160   19.5740 O   0  0  0  0  0  0  0  0  0  0  0  0
  -31.0710  -24.0370   19.7510 H   0  0  0  0  0  0  0  0  0  0  0  0
  -28.3590  -26.5580   20.1300 O   0  0  0  0  0  0  0  0  0  0  0  0
  -24.6130  -31.8780   23.2350 C   0  0  0  0  0  0  0  0  0  0  0  0
  -27.2100  -27.3530   20.1490 C   0  0  0  0  0  0  0  0  0  0  0  0
  -23.3930  -30.4770   21.6060 C   0  0  0  0  0  3  0  0  0  0  0  0
  -24.8290  -28.9230   20.1760 C   0  0  0  0  0  0  0  0  0  0  0  0
  -25.9260  -30.8040   21.3980 C   0  0  0  0  0  2  0  0  0  0  0  0
  -25.9990  -29.4240   20.7610 C   0  0  0  0  0  0  0  0  0  0  0  0
  -27.1900  -28.6460   20.7480 C   0  0  0  0  0  3  0  0  0  0  0  0
  -26.0200  -26.8960   19.5390 C   0  0  0  0  0  3  0  0  0  0  0  0
  -24.8380  -27.6610   19.5610 C   0  0  0  0  0  3  0  0  0  0  0  0
  -23.5910  -29.7930   20.2280 C   0  0  0  0  0  2  0  0  0  0  0  0
  -24.6630  -31.0710   22.1360 N   0  0  0  0  0  0  0  0  0  0  0  0
  -23.5350  -32.1580   23.7800 O   0  0  0  0  0  0  0  0  0  0  0  0
  -22.7380  -29.4640   22.5730 C   0  0  0  0  0  0  0  0  0  0  0  0
  -21.4120  -29.2880   22.4550 N   0  0  0  0  0  0  0  0  0  0  0  0
  -23.4230  -28.8380   23.3870 O   0  0  0  0  0  0  0  0  0  0  0  0
  -20.9190  -29.8450   21.7710 H   0  0  0  0  0  0  0  0  0  0  0  0
  -18.0400  -28.0940   22.9710 C   0  0  0  0  0  0  0  0  0  0  0  0
  -20.5970  -28.3540   23.2340 C   0  0  0  0  0  3  0  0  0  0  0  0
  -20.6970  -26.9190   22.6660 C   0  0  0  0  0  2  0  0  0  0  0  0
  -19.5930  -26.5910   21.6580 C   0  0  0  0  0  2  0  0  0  0  0  0
  -18.2130  -26.7400   22.3030 C   0  0  0  0  0  2  0  0  0  0  0  0
  -19.1580  -28.8590   23.3930 C   0  0  0  0  0  0  0  0  0  0  0  0
  -18.9410  -30.1260   23.9770 C   0  0  0  0  0  3  0  0  0  0  0  0
  -17.6370  -30.6270   24.1460 C   0  0  0  0  0  3  0  0  0  0  0  0
  -16.5320  -29.8600   23.7390 C   0  0  0  0  0  3  0  0  0  0  0  0
  -16.7340  -28.5960   23.1580 C   0  0  0  0  0  3  0  0  0  0  0  0
  -25.9040  -32.5080   23.8440 C   0  0  0  0  0  3  0  0  0  0  0  0
  -25.5990  -33.9050   24.1820 N   0  0  0  0  0  0  0  0  0  0  0  0
  -25.9200  -34.9610   23.4220 C   0  0  0  0  0  0  0  0  0  0  0  0
  -26.5740  -34.8610   22.3800 O   0  0  0  0  0  0  0  0  0  0  0  0
  -25.0190  -34.0590   24.9940 H   0  0  0  0  0  0  0  0  0  0  0  0
  -24.1800  -36.7500   23.1040 C   0  0  0  0  0  1  0  0  0  0  0  0
  -25.4380  -36.3480   23.8920 C   0  0  0  0  0  3  0  0  0  0  0  0
  -27.5870  -37.2320   24.6820 C   0  0  0  0  0  1  0  0  0  0  0  0
  -26.4650  -37.4040   23.7640 N   0  0  0  0  0  0  0  0  0  0  0  0
  -26.0590  -38.3200   23.9290 H   0  0  0  0  0  0  0  0  0  0  0  0
  -26.4360  -31.7320   25.1110 C   0  0  1  0  0  0  0  0  0  0  0  0
  -25.3560  -31.4910   26.1920 C   0  0  0  0  0  1  0  0  0  0  0  0
  -27.0120  -30.3550   24.7070 C   0  0  0  0  0  1  0  0  0  0  0  0
  -27.5980  -32.5200   25.7600 C   0  0  0  0  0  1  0  0  0  0  0  0
  1  3  2  0
  2  1  1  0
  4  2  1  0
  5  8  1  0
  7 10  2  0
  8  6  2  0
  8 14  1  0
  9  7  1  0
  9  5  2  0
 10  2  1  0
 10  6  1  0
 11  9  1  0
 12 11  1  0
 13 11  1  0
 15 23  1  0
 16 21  1  0
 17 18  1  0
 17 16  1  0
 19 18  1  0
 19 28  1  0
 19 20  1  0
 21 15  1  0
 21 20  1  0
 22 15  2  0
 23 24  1  0
 23 14  1  0
 25 26  2  0
 26 45  1  0
 27 26  1  0
 27 30  1  0
 28 25  1  0
 28 29  1  0
 29 27  2  0
 30 31  1  0
 31 32  2  0
 33 36  1  0
 33 32  1  0
 34 33  2  0
 35 34  1  0
 35 30  2  0
 36 37  1  0
 37 38  1  0
 38 39  2  0
 40 39  1  0
 40 44  1  0
 41 40  2  0
 42 37  2  0
 42 41  1  0
 43 42  1  0
 45 46  1  0
 46 49  1  0
 46 48  1  0
 47 45  2  0
 50 51  1  0
 50 25  1  0
 52 50  1  0
 54  1  1  0
 54 53  2  0
 55 56  1  0
 55 54  1  0
 57 59  1  0
 57 53  1  0
 58 69  2  0
 59 64  1  0
 60 68  1  0
 60 70  1  0
 61 67  1  0
 61 63  1  0
 62 68  1  0
 63 62  1  0
 64 63  2  0
 65 66  1  0
 65 59  2  0
 66 61  2  0
 67 60  1  0
 68 58  1  0
 70 72  2  0
 71 70  1  0
 73 71  1  0
 74 83  2  0
 74 79  1  0
 75 71  1  0
 75 79  1  0
 76 75  1  0
 77 78  1  0
 77 76  1  0
 78 74  1  0
 79 80  2  0
 80 81  1  0
 82 81  2  0
 83 82  1  0
 84 58  1  0
 84 85  1  0
 84 94  1  0
 85 88  1  0
 86 90  1  0
 86 85  1  0
 87 86  2  0
 90 89  1  0
 92 90  1  0
 92 93  1  0
 92 91  1  0
 94 97  1  1
 94 95  1  0
 96 94  1  0
M  ISO  4  15 100  23 100  53 101  57 101
M  END
>  <TORSDO>  (86) 
F 21

>  <SCORE>  (86) 
-13.966

>  <name>  (86) 
85

>  <ligand_id>  (86) 
85

>  <original_smiles>  (86) 
[H]OC(C(=O)N([H])c1c([H])c(N([H])[H])c([H])c(C([H])([H])N([H])C(=O)N2C([H])([H])C([H])([H])C([H])([H])C([H])(n3nc(-c4c([H])c([H])c(Oc5c([H])c([H])c(F)c([H])c5F)c([H])c4[H])c(C(=O)N([H])[H])c3N([H])[H])C2([H])[H])c1[H])=C([H])Oc1c([H])c([H])c2c(c1[H])C([H])([H])N(C(=O)C([H])(N([H])C(=O)C([H])(N([H])C([H])([H])[H])C([H])([H])[H])C(C([H])([H])[H])(C([H])([H])[H])C([H])([H])[H])C([H])(C(=O)N([H])C1([H])c3c([H])c([H])c([H])c([H])c3C([H])([H])C([H])([H])C1([H])[H])C2([H])[H]

>  <smiles>  (86) 
[H]OC(C(=O)N([H])c1c([H])c(N([H])[H])c([H])c(C([H])([H])N([H])C(=O)N2C([H])([H])C([H])([H])C([H])([H])C([H])(n3nc(-c4c([H])c([H])c(Oc5c([H])c([H])c(F)c([H])c5F)c([H])c4[H])c(C(=O)N([H])[H])c3N([H])[H])C2([H])[H])c1[H])=C([H])Oc1c([H])c([H])c2c(c1[H])C([H])([H])N(C(=O)C([H])(N([H])C(=O)C([H])(N([H])C([H])([H])[H])C([H])([H])[H])C(C([H])([H])[H])(C([H])([H])[H])C([H])([H])[H])C([H])(C(=O)N([H])C1([H])c3c([H])c([H])c([H])c([H])c3C([H])([H])C([H])([H])C1([H])[H])C2([H])[H]

$$$$
86:0:0
     RDKit          3D

 97105  0  0  1  0  0  0  0  0999 V2000
  -29.3010  -21.8430   20.4490 C   0  0  0  0  0  0  0  0  0  0  0  0
  -29.2880  -20.5390   20.0660 N   0  0  0  0  0  0  0  0  0  0  0  0
  -29.9840  -22.2590   21.3900 O   0  0  0  0  0  0  0  0  0  0  0  0
  -28.5870  -20.3110   19.3720 H   0  0  0  0  0  0  0  0  0  0  0  0
  -31.4690  -19.6640   20.8510 C   0  0  0  0  0  3  0  0  0  0  0  0
  -31.8400  -17.2880   21.2200 C   0  0  0  0  0  3  0  0  0  0  0  0
  -29.6340  -18.0730   20.5070 C   0  0  0  0  0  0  0  0  0  0  0  0
  -30.1200  -19.4300   20.4910 C   0  0  0  0  0  0  0  0  0  0  0  0
  -30.5190  -16.9770   20.8140 C   0  0  0  0  0  0  0  0  0  0  0  0
  -32.3100  -18.6100   21.2350 C   0  0  0  0  0  0  0  0  0  0  0  0
  -33.5890  -18.8680   21.6010 F   0  0  0  0  0  0  0  0  0  0  0  0
  -30.7440  -14.5780   20.0630 C   0  0  0  0  0  0  0  0  0  0  0  0
  -30.3500  -12.4820   18.8150 C   0  0  0  0  0  2  0  0  0  0  0  0
  -29.3210  -12.7410   17.6960 C   0  0  0  0  0  2  0  0  0  0  0  0
  -27.8870  -12.5530   18.2280 C   0  0  0  0  0  2  0  0  0  0  0  0
  -27.6380  -13.3170   19.5570 C   0  0  0  0  0  3  0  0  0  0  0  0
  -28.7780  -13.0650   20.5720 C   0  0  0  0  0  2  0  0  0  0  0  0
  -30.0520  -13.4120   19.9210 N   0  0  0  0  0  0  0  0  0  0  0  0
  -31.8220  -14.7610   19.4920 O   0  0  0  0  0  0  0  0  0  0  0  0
  -30.1190  -15.5790   20.7370 N   0  0  0  0  0  0  0  0  0  0  0  0
  -29.2100  -15.3320   21.0930 H   0  0  0  0  0  0  0  0  0  0  0  0
  -25.2700  -13.8390   20.4150 C   0  0  0  0  0  0  0  0  0  0  0  0
  -24.2580  -13.0340   20.8600 C   0  0  0  0  0  0  0  0  0  0  0  0
  -24.7580  -11.6990   20.7910 C   0  0  0  0  0  0  0  0  0  0  0  0
  -26.3290  -12.9950   20.1190 N   0  0  0  0  0  0  0  0  0  0  0  0
  -26.0270  -11.7010   20.4000 N   0  0  0  0  0  0  0  0  0  0  0  0
  -24.0820  -10.4150   21.0150 C   0  0  0  0  0  0  0  0  0  0  0  0
  -24.5090   -9.5230   22.0240 C   0  0  0  0  0  3  0  0  0  0  0  0
  -23.8300   -8.3030   22.2330 C   0  0  0  0  0  3  0  0  0  0  0  0
  -22.7130   -7.9660   21.4340 C   0  0  0  0  0  0  0  0  0  0  0  0
  -22.3060   -8.8460   20.4160 C   0  0  0  0  0  3  0  0  0  0  0  0
  -22.9860  -10.0580   20.2050 C   0  0  0  0  0  3  0  0  0  0  0  0
  -22.0090   -6.7910   21.5490 O   0  0  0  0  0  0  0  0  0  0  0  0
  -21.8460   -6.1650   22.7580 C   0  0  0  0  0  0  0  0  0  0  0  0
  -21.2090   -6.8010   23.8460 C   0  0  0  0  0  3  0  0  0  0  0  0
  -21.0030   -6.0960   25.0490 C   0  0  0  0  0  3  0  0  0  0  0  0
  -21.4220   -4.7570   25.1640 C   0  0  0  0  0  0  0  0  0  0  0  0
  -22.0500   -4.1210   24.0790 C   0  0  0  0  0  3  0  0  0  0  0  0
  -22.2590   -4.8230   22.8780 C   0  0  0  0  0  0  0  0  0  0  0  0
  -22.8480   -4.1990   21.8290 F   0  0  0  0  0  0  0  0  0  0  0  0
  -21.2150   -4.0780   26.3160 F   0  0  0  0  0  0  0  0  0  0  0  0
  -22.8680  -13.4690   21.2260 C   0  0  0  0  0  0  0  0  0  0  0  0
  -22.2220  -12.7500   22.1370 N   0  0  0  0  0  0  0  0  0  0  0  0
  -22.3660  -14.4820   20.7400 O   0  0  0  0  0  0  0  0  0  0  0  0
  -22.6420  -11.9310   22.5500 H   0  0  0  0  0  0  0  0  0  0  0  0
  -21.2930  -13.0230   22.4260 H   0  0  0  0  0  0  0  0  0  0  0  0
  -25.3660  -15.2090   20.2090 N   0  0  0  0  0  0  0  0  0  0  0  0
  -24.5530  -15.8050   20.3120 H   0  0  0  0  0  0  0  0  0  0  0  0
  -26.1040  -15.6450   19.6720 H   0  0  0  0  0  0  0  0  0  0  0  0
  -28.2040  -17.8170   20.1760 C   0  0  0  0  0  0  0  0  0  0  0  0
  -27.4610  -16.8770   21.1170 C   0  0  0  0  0  1  0  0  0  0  0  0
  -27.5990  -18.3750   19.2560 O   0  0  0  0  0  0  0  0  0  0  0  0
  -28.3380  -22.8040   19.7120 C   0  0  0  0  0  2  0  0  0  0  0  0
  -28.8780  -24.2470   19.5290 C   0  0  0  0  0  0  0  0  0  0  0  0
  -29.6700  -24.5170   18.6170 O   0  0  0  0  0  0  0  0  0  0  0  0
  -28.3510  -25.3470   20.4780 C   0  0  0  0  0  2  0  0  0  0  0  0
  -28.4790  -26.6800   19.9260 O   0  0  0  0  0  0  0  0  0  0  0  0
  -24.5540  -31.7400   23.0700 C   0  0  0  0  0  0  0  0  0  0  0  0
  -27.3120  -27.4150   19.9180 C   0  0  0  0  0  0  0  0  0  0  0  0
  -23.3910  -30.3560   21.3830 C   0  0  0  0  0  3  0  0  0  0  0  0
  -24.8890  -28.8800   19.9340 C   0  0  0  0  0  0  0  0  0  0  0  0
  -25.9120  -30.7690   21.2150 C   0  0  0  0  0  2  0  0  0  0  0  0
  -26.0320  -29.4150   20.5430 C   0  0  0  0  0  0  0  0  0  0  0  0
  -27.2500  -28.6920   20.5260 C   0  0  0  0  0  3  0  0  0  0  0  0
  -26.1530  -26.8990   19.2990 C   0  0  0  0  0  3  0  0  0  0  0  0
  -24.9460  -27.6240   19.3070 C   0  0  0  0  0  3  0  0  0  0  0  0
  -23.6260  -29.7120   19.9900 C   0  0  0  0  0  2  0  0  0  0  0  0
  -24.6360  -30.9690   21.9490 N   0  0  0  0  0  0  0  0  0  0  0  0
  -23.4630  -31.9770   23.6070 O   0  0  0  0  0  0  0  0  0  0  0  0
  -22.7510  -29.2990   22.3130 C   0  0  0  0  0  0  0  0  0  0  0  0
  -21.4310  -29.0940   22.1700 N   0  0  0  0  0  0  0  0  0  0  0  0
  -23.4400  -28.6670   23.1190 O   0  0  0  0  0  0  0  0  0  0  0  0
  -20.9370  -29.6570   21.4920 H   0  0  0  0  0  0  0  0  0  0  0  0
  -18.0690  -27.8560   22.6380 C   0  0  0  0  0  0  0  0  0  0  0  0
  -20.6260  -28.1220   22.9090 C   0  0  0  0  0  3  0  0  0  0  0  0
  -20.7360  -26.7150   22.2790 C   0  0  0  0  0  2  0  0  0  0  0  0
  -19.6320  -26.4220   21.2570 C   0  0  0  0  0  2  0  0  0  0  0  0
  -18.2530  -26.5340   21.9120 C   0  0  0  0  0  2  0  0  0  0  0  0
  -19.1840  -28.6090   23.0910 C   0  0  0  0  0  0  0  0  0  0  0  0
  -18.9590  -29.8490   23.7280 C   0  0  0  0  0  3  0  0  0  0  0  0
  -17.6510  -30.3340   23.9180 C   0  0  0  0  0  3  0  0  0  0  0  0
  -16.5510  -29.5770   23.4810 C   0  0  0  0  0  3  0  0  0  0  0  0
  -16.7600  -28.3400   22.8470 C   0  0  0  0  0  3  0  0  0  0  0  0
  -25.8210  -32.3810   23.7180 C   0  0  0  0  0  3  0  0  0  0  0  0
  -25.4880  -33.7680   24.0650 N   0  0  0  0  0  0  0  0  0  0  0  0
  -25.8420  -34.8390   23.3420 C   0  0  0  0  0  0  0  0  0  0  0  0
  -26.5540  -34.7620   22.3350 O   0  0  0  0  0  0  0  0  0  0  0  0
  -24.8640  -33.9020   24.8470 H   0  0  0  0  0  0  0  0  0  0  0  0
  -24.1400  -36.6400   22.9240 C   0  0  0  0  0  1  0  0  0  0  0  0
  -25.3240  -36.2130   23.8060 C   0  0  0  0  0  3  0  0  0  0  0  0
  -27.3930  -37.0740   24.8080 C   0  0  0  0  0  1  0  0  0  0  0  0
  -26.3600  -37.2680   23.7940 N   0  0  0  0  0  0  0  0  0  0  0  0
  -25.9440  -38.1850   23.9350 H   0  0  0  0  0  0  0  0  0  0  0  0
  -26.3350  -31.5960   24.9870 C   0  0  1  0  0  0  0  0  0  0  0  0
  -25.2310  -31.3100   26.0310 C   0  0  0  0  0  1  0  0  0  0  0  0
  -26.9560  -30.2410   24.5750 C   0  0  0  0  0  1  0  0  0  0  0  0
  -27.4570  -32.4010   25.6840 C   0  0  0  0  0  1  0  0  0  0  0  0
  1  3  2  0
  2  1  1  0
  2  8  1  0
  4  2  1  0
  5 10  1  0
  6 10  2  0
  7  9  2  0
  8  7  1  0
  8  5  2  0
  9  6  1  0
 10 11  1  0
 12 20  1  0
 13 18  1  0
 14 15  1  0
 14 13  1  0
 16 15  1  0
 16 25  1  0
 16 17  1  0
 18 12  1  0
 18 17  1  0
 19 12  2  0
 20  9  1  0
 20 21  1  0
 22 23  2  0
 23 42  1  0
 24 23  1  0
 24 27  1  0
 25 26  1  0
 25 22  1  0
 26 24  2  0
 27 28  1  0
 28 29  2  0
 30 33  1  0
 30 29  1  0
 31 30  2  0
 32 31  1  0
 32 27  2  0
 33 34  1  0
 34 39  2  0
 34 35  1  0
 35 36  2  0
 36 37  1  0
 37 41  1  0
 38 37  2  0
 39 38  1  0
 40 39  1  0
 42 43  1  0
 43 46  1  0
 43 45  1  0
 44 42  2  0
 47 48  1  0
 47 22  1  0
 49 47  1  0
 50  7  1  0
 50 51  1  0
 52 50  2  0
 53  1  1  0
 54 53  1  0
 54 56  1  0
 55 54  2  0
 57 56  1  0
 58 69  2  0
 59 57  1  0
 59 64  1  0
 60 68  1  0
 60 70  1  0
 61 67  1  0
 61 63  1  0
 62 68  1  0
 63 62  1  0
 64 63  2  0
 65 66  1  0
 65 59  2  0
 66 61  2  0
 67 60  1  0
 68 58  1  0
 70 72  2  0
 71 70  1  0
 73 71  1  0
 74 83  2  0
 74 79  1  0
 75 71  1  0
 75 79  1  0
 76 75  1  0
 77 78  1  0
 77 76  1  0
 78 74  1  0
 79 80  2  0
 80 81  1  0
 82 81  2  0
 83 82  1  0
 84 58  1  0
 84 85  1  0
 84 94  1  0
 85 88  1  0
 86 90  1  0
 86 85  1  0
 87 86  2  0
 90 89  1  0
 92 90  1  0
 92 93  1  0
 92 91  1  0
 94 97  1  1
 94 95  1  0
 96 94  1  0
M  ISO  4  12 100  20 100  56 101  57 101
M  END
>  <TORSDO>  (87) 
F 21

>  <SCORE>  (87) 
-12.253

>  <name>  (87) 
86

>  <ligand_id>  (87) 
86

>  <original_smiles>  (87) 
[H]c1c([H])c([H])c2c(c1[H])C([H])([H])C([H])([H])C([H])([H])C2([H])N([H])C(=O)C1([H])N(C(=O)C([H])(N([H])C(=O)C([H])(N([H])C([H])([H])[H])C([H])([H])[H])C(C([H])([H])[H])(C([H])([H])[H])C([H])([H])[H])C([H])([H])c2c([H])c(OC([H])([H])C(=O)C([H])([H])C(=O)N([H])c3c([H])c(F)c([H])c(N([H])C(=O)N4C([H])([H])C([H])([H])C([H])([H])C([H])(n5nc(-c6c([H])c([H])c(Oc7c([H])c([H])c(F)c([H])c7F)c([H])c6[H])c(C(=O)N([H])[H])c5N([H])[H])C4([H])[H])c3C(=O)C([H])([H])[H])c([H])c([H])c2C1([H])[H]

>  <smiles>  (87) 
[H]c1c([H])c([H])c2c(c1[H])C([H])([H])C([H])([H])C([H])([H])C2([H])N([H])C(=O)C1([H])N(C(=O)C([H])(N([H])C(=O)C([H])(N([H])C([H])([H])[H])C([H])([H])[H])C(C([H])([H])[H])(C([H])([H])[H])C([H])([H])[H])C([H])([H])c2c([H])c(OC([H])([H])C(=O)C([H])([H])C(=O)N([H])c3c([H])c(F)c([H])c(N([H])C(=O)N4C([H])([H])C([H])([H])C([H])([H])C([H])(n5nc(-c6c([H])c([H])c(Oc7c([H])c([H])c(F)c([H])c7F)c([H])c6[H])c(C(=O)N([H])[H])c5N([H])[H])C4([H])[H])c3C(=O)C([H])([H])[H])c([H])c([H])c2C1([H])[H]

$$$$
87:0:0
     RDKit          3D

 95 99  0  0  1  0  0  0  0  0999 V2000
  -21.2370  -26.3800   21.6420 C   0  0  1  0  0  0  0  0  0  0  0  0
  -17.4820  -24.4440   20.2180 C   0  0  0  0  0  2  0  0  0  0  0  0
  -17.8100  -25.7420   19.3490 C   0  0  0  0  0  2  0  0  0  0  0  0
  -19.4920  -24.0190   22.8130 C   0  0  0  0  0  1  0  0  0  0  0  0
  -18.0080  -24.9210   21.6290 C   0  0  0  0  0  1  0  0  0  0  0  0
  -18.3680  -26.5910   20.5230 C   0  0  0  0  0  2  0  0  0  0  0  0
  -21.3250  -24.2850   22.6130 N   0  0  0  0  0  1  0  0  0  0  0  0
  -20.1180  -27.3430   20.6500 N   0  0  0  0  0  0  0  0  0  0  0  0
  -20.3950  -28.1260   20.0790 H   0  0  0  0  0  0  0  0  0  0  0  0
  -23.3520  -21.7550   21.0930 C   0  0  0  0  0  3  0  0  0  0  0  0
  -24.5090  -20.4390   20.7990 C   0  0  2  0  0  0  0  0  0  0  0  0
  -22.7430  -22.6810   22.2230 C   0  0  0  0  0  1  0  0  0  0  0  0
  -25.5710  -19.5440   21.5530 C   0  0  0  0  0  1  0  0  0  0  0  0
  -24.4530  -19.9620   19.3830 C   0  0  0  0  0  1  0  0  0  0  0  0
  -24.3430  -21.0770   22.8710 S   0  0  0  0  0  0  0  0  0  0  0  0
  -28.2440  -16.7250   20.9100 C   0  0  0  0  0  2  0  0  0  0  0  0
  -29.8040  -14.2610   19.8520 C   0  0  0  0  0  2  0  0  0  0  0  0
  -29.4480  -13.1910   18.6790 C   0  0  0  0  0  2  0  0  0  0  0  0
  -28.2030  -12.3630   18.9970 C   0  0  0  0  0  2  0  0  0  0  0  0
  -27.3880  -13.2990   19.8770 C   0  0  0  0  0  3  0  0  0  0  0  0
  -28.0720  -13.8660   21.1340 C   0  0  0  0  0  2  0  0  0  0  0  0
  -28.6140  -15.1430   20.6370 N   0  0  0  0  0  0  0  0  0  0  0  0
  -29.5260  -16.8860   20.6470 O   0  0  0  0  0  1  0  0  0  0  0  0
  -26.7530  -17.9490   21.3360 N   0  0  0  0  0  1  0  0  0  0  0  0
  -26.1210  -17.1940   21.5800 H   0  0  0  0  0  0  0  0  0  0  0  0
  -25.1100  -13.8000   20.5610 C   0  0  0  0  0  0  0  0  0  0  0  0
  -24.0780  -13.0130   20.9340 C   0  0  0  0  0  0  0  0  0  0  0  0
  -24.5620  -11.6680   20.8810 C   0  0  0  0  0  0  0  0  0  0  0  0
  -26.1160  -12.9080   20.2800 N   0  0  0  0  0  0  0  0  0  0  0  0
  -25.8380  -11.6240   20.5490 N   0  0  0  0  0  0  0  0  0  0  0  0
  -23.8600  -10.4090   21.0510 C   0  0  0  0  0  0  0  0  0  0  0  0
  -24.3360   -9.4090   21.9240 C   0  0  0  0  0  3  0  0  0  0  0  0
  -23.6150   -8.2080   22.0760 C   0  0  0  0  0  3  0  0  0  0  0  0
  -22.4150   -8.0090   21.3540 C   0  0  0  0  0  0  0  0  0  0  0  0
  -21.9670   -9.0000   20.4630 C   0  0  0  0  0  3  0  0  0  0  0  0
  -22.6870  -10.1920   20.3070 C   0  0  0  0  0  3  0  0  0  0  0  0
  -21.6560   -6.8700   21.4240 O   0  0  0  0  0  0  0  0  0  0  0  0
  -21.6800   -6.0630   22.5300 C   0  0  0  0  0  0  0  0  0  0  0  0
  -21.3970   -6.5580   23.8210 C   0  0  0  0  0  3  0  0  0  0  0  0
  -21.3650   -5.6760   24.9190 C   0  0  0  0  0  3  0  0  0  0  0  0
  -21.6040   -4.3020   24.7260 C   0  0  0  0  0  0  0  0  0  0  0  0
  -21.8830   -3.8080   23.4390 C   0  0  0  0  0  3  0  0  0  0  0  0
  -21.9180   -4.6880   22.3430 C   0  0  0  0  0  0  0  0  0  0  0  0
  -22.1660   -4.2070   21.1010 F   0  0  0  0  0  0  0  0  0  0  0  0
  -21.5640   -3.4520   25.7780 F   0  0  0  0  0  0  0  0  0  0  0  0
  -22.6980  -13.4990   21.2090 C   0  0  0  0  0  0  0  0  0  0  0  0
  -21.9760  -12.8020   22.0740 N   0  0  0  0  0  0  0  0  0  0  0  0
  -22.2790  -14.5380   20.6990 O   0  0  0  0  0  0  0  0  0  0  0  0
  -22.3430  -11.9650   22.5040 H   0  0  0  0  0  0  0  0  0  0  0  0
  -21.0410  -13.1050   22.3090 H   0  0  0  0  0  0  0  0  0  0  0  0
  -25.2790  -15.1820   20.4190 N   0  0  0  0  0  0  0  0  0  0  0  0
  -24.4630  -15.7830   20.4710 H   0  0  0  0  0  0  0  0  0  0  0  0
  -26.0040  -15.5550   19.8240 H   0  0  0  0  0  0  0  0  0  0  0  0
  -23.1360  -27.1800   20.7030 C   0  0  0  0  0  1  0  0  0  0  0  0
  -24.9050  -26.7800   20.9570 O   0  0  0  0  0  0  0  0  0  0  0  0
  -24.6540  -31.9500   23.2350 C   0  0  0  0  0  0  0  0  0  0  0  0
  -26.1740  -27.2190   20.3990 C   0  0  0  0  0  3  0  0  0  0  0  0
  -23.4520  -30.6420   21.5630 C   0  0  0  0  0  3  0  0  0  0  0  0
  -24.8720  -29.3680   19.8030 C   0  0  0  0  0  3  0  0  0  0  0  0
  -25.9920  -30.8470   21.4470 C   0  0  0  0  0  2  0  0  0  0  0  0
  -25.9270  -29.5390   20.6940 C   0  0  0  0  0  3  0  0  0  0  0  0
  -26.7490  -28.4240   20.9140 C   0  0  0  0  0  2  0  0  0  0  0  0
  -25.8820  -27.2690   19.0640 C   0  0  0  0  0  2  0  0  0  0  0  0
  -24.9520  -28.3010   18.8600 C   0  0  0  0  0  2  0  0  0  0  0  0
  -23.6720  -30.2690   20.0380 C   0  0  0  0  0  2  0  0  0  0  0  0
  -24.7140  -31.2090   22.1030 N   0  0  0  0  0  0  0  0  0  0  0  0
  -23.5710  -32.2140   23.7810 O   0  0  0  0  0  0  0  0  0  0  0  0
  -23.0330  -29.5070   22.5510 C   0  0  0  0  0  0  0  0  0  0  0  0
  -21.8340  -28.9680   22.4990 N   0  0  0  0  0  0  0  0  0  0  0  0
  -23.8320  -29.0140   23.3430 O   0  0  0  0  0  0  0  0  0  0  0  0
  -21.0850  -29.4010   21.9780 H   0  0  0  0  0  0  0  0  0  0  0  0
  -19.3040  -26.6690   22.7220 C   0  0  0  0  0  3  0  0  0  0  0  0
  -21.5770  -27.7090   23.2380 C   0  0  0  0  0  3  0  0  0  0  0  0
  -22.6210  -26.2270   22.7660 C   0  0  0  0  0  2  0  0  0  0  0  0
  -21.9970  -25.1220   20.6640 C   0  0  0  0  0  2  0  0  0  0  0  0
  -20.1660  -25.1310   20.8660 C   0  0  0  0  0  2  0  0  0  0  0  0
  -20.0150  -27.8450   23.3120 C   0  0  0  0  0  0  0  0  0  0  0  0
  -19.5030  -29.1860   23.8130 C   0  0  0  0  0  3  0  0  0  0  0  0
  -18.1740  -29.6740   23.8380 C   0  0  0  0  0  3  0  0  0  0  0  0
  -17.3120  -28.6730   23.4110 C   0  0  0  0  0  3  0  0  0  0  0  0
  -17.8520  -27.3510   22.9780 C   0  0  0  0  0  3  0  0  0  0  0  0
  -25.9500  -32.5120   23.8730 C   0  0  0  0  0  3  0  0  0  0  0  0
  -25.6390  -33.8870   24.2660 N   0  0  0  0  0  0  0  0  0  0  0  0
  -25.9160  -34.9620   23.5200 C   0  0  0  0  0  0  0  0  0  0  0  0
  -26.5490  -34.9000   22.4620 O   0  0  0  0  0  0  0  0  0  0  0  0
  -25.0790  -34.0090   25.0960 H   0  0  0  0  0  0  0  0  0  0  0  0
  -24.1520  -36.7360   23.2580 C   0  0  0  0  0  1  0  0  0  0  0  0
  -25.4130  -36.3230   24.0340 C   0  0  0  0  0  3  0  0  0  0  0  0
  -27.5620  -37.1860   24.8440 C   0  0  0  0  0  1  0  0  0  0  0  0
  -26.4290  -37.3930   23.9460 N   0  0  0  0  0  0  0  0  0  0  0  0
  -26.0170  -38.2970   24.1600 H   0  0  0  0  0  0  0  0  0  0  0  0
  -26.4620  -31.6690   25.1020 C   0  0  1  0  0  0  0  0  0  0  0  0
  -25.3730  -31.3810   26.1600 C   0  0  0  0  0  1  0  0  0  0  0  0
  -27.0440  -30.3090   24.6510 C   0  0  0  0  0  1  0  0  0  0  0  0
  -27.6180  -32.4300   25.7900 C   0  0  0  0  0  1  0  0  0  0  0  0
  1 74  1  1
  2  5  1  0
  3  2  1  0
  3  6  1  0
  6  8  1  0
  7  4  1  0
  8  1  1  0
  9  8  1  0
 10 12  1  0
 10 15  1  0
 11 10  1  0
 11 13  1  6
 11 15  1  0
 14 11  1  0
 17 22  1  0
 18 19  1  0
 18 17  1  0
 20 19  1  0
 20 29  1  0
 20 21  1  0
 22 16  1  0
 22 21  1  0
 23 16  1  0
 24 25  1  0
 26 27  2  0
 27 46  1  0
 28 27  1  0
 28 31  1  0
 29 30  1  0
 29 26  1  0
 30 28  2  0
 31 32  1  0
 32 33  2  0
 34 37  1  0
 34 33  1  0
 35 34  2  0
 36 35  1  0
 36 31  2  0
 37 38  1  0
 38 39  1  0
 39 40  2  0
 41 40  1  0
 41 45  1  0
 42 41  2  0
 43 38  2  0
 43 42  1  0
 44 43  1  0
 46 47  1  0
 47 50  1  0
 47 49  1  0
 48 46  2  0
 51 52  1  0
 51 26  1  0
 53 51  1  0
 54 55  1  0
 56 67  2  0
 57 62  1  0
 57 55  1  0
 58 66  1  0
 58 68  1  0
 59 64  1  0
 59 65  1  0
 59 61  1  0
 60 66  1  0
 61 62  1  0
 61 60  1  0
 63 57  1  0
 64 63  1  0
 65 58  1  0
 66 56  1  0
 68 70  2  0
 69 68  1  0
 69 73  1  0
 71 69  1  0
 72 81  2  0
 72 77  1  0
 73 74  1  0
 73 77  1  0
 75 76  1  0
 75  1  1  0
 76  1  1  0
 77 78  2  0
 78 79  1  0
 80 79  2  0
 81 80  1  0
 82 56  1  0
 82 83  1  0
 82 92  1  0
 83 86  1  0
 84 88  1  0
 84 83  1  0
 85 84  2  0
 88 87  1  0
 90 88  1  0
 90 91  1  0
 90 89  1  0
 92 95  1  1
 92 93  1  0
 94 92  1  0
M  ISO  4  16 100  24 100  54 101  55 101
M  END
>  <TORSDO>  (88) 
F 18

>  <SCORE>  (88) 
27.223

>  <name>  (88) 
87

>  <ligand_id>  (88) 
87

>  <original_smiles>  (88) 
[H]c1c([H])c([H])c2c(c1[H])C([H])([H])C([H])([H])C([H])([H])C2([H])N([H])C(=O)C1([H])N(C(=O)C([H])(N([H])C(=O)C([H])(N([H])C([H])([H])[H])C([H])([H])[H])C(C([H])([H])[H])(C([H])([H])[H])C([H])([H])[H])C([H])([H])c2c([H])c(OC([H])([H])C3=[N+]([H])C4([H])C([H])([H])C([H])([H])C4([H])C([H])([H])N3c3sc(N([H])C(=O)N4C([H])([H])C([H])([H])C([H])([H])C([H])(n5nc(-c6c([H])c([H])c(Oc7c([H])c([H])c(F)c([H])c7F)c([H])c6[H])c(C(=O)N([H])[H])c5N([H])[H])C4([H])[H])c(C([H])([H])[H])c3[H])c([H])c([H])c2C1([H])[H]

>  <smiles>  (88) 
[H]c1c([H])c([H])c2c(c1[H])C([H])([H])C([H])([H])C([H])([H])C2([H])N([H])C(=O)C1([H])N(C(=O)C([H])(N([H])C(=O)C([H])(N([H])C([H])([H])[H])C([H])([H])[H])C(C([H])([H])[H])(C([H])([H])[H])C([H])([H])[H])C([H])([H])c2c([H])c(OC([H])([H])C3=[N+]([H])C4([H])C([H])([H])C([H])([H])C4([H])C([H])([H])N3c3sc(N([H])C(=O)N4C([H])([H])C([H])([H])C([H])([H])C([H])(n5nc(-c6c([H])c([H])c(Oc7c([H])c([H])c(F)c([H])c7F)c([H])c6[H])c(C(=O)N([H])[H])c5N([H])[H])C4([H])[H])c(C([H])([H])[H])c3[H])c([H])c([H])c2C1([H])[H]

$$$$
88:0:0
     RDKit          3D

 92101  0  0  1  0  0  0  0  0999 V2000
  -30.8560  -22.3160   20.4250 C   0  0  0  0  0  2  0  0  0  0  0  0
  -30.3150  -23.7680   20.4820 C   0  0  0  0  0  2  0  0  0  0  0  0
  -29.7200  -21.4220   19.8800 C   0  0  0  0  0  3  0  0  0  0  0  0
  -28.8490  -23.7030   20.0360 C   0  0  0  0  0  3  0  0  0  0  0  0
  -27.2430  -21.7520   19.6780 C   0  0  0  0  0  1  0  0  0  0  0  0
  -28.4980  -22.2210   20.3040 N   0  0  1  0  0  4  0  0  0  0  0  0
  -28.4030  -22.0840   21.3000 H   0  0  0  0  0  0  0  0  0  0  0  0
  -29.4190  -18.6350   20.4090 C   0  0  0  0  0  3  0  0  0  0  0  0
  -31.3730  -17.7250   19.4880 C   0  0  0  0  0  3  0  0  0  0  0  0
  -30.2110  -17.4000   20.1370 C   0  0  0  0  0  0  0  0  0  0  0  0
  -30.0050  -19.8500   19.9710 C   0  0  0  0  0  0  0  0  0  0  0  0
  -31.5280  -19.4320   19.2030 S   0  0  0  0  0  0  0  0  0  0  0  0
  -30.6020  -14.7970   20.2410 C   0  0  0  0  0  0  0  0  0  0  0  0
  -30.3550  -12.5250   19.2370 C   0  0  0  0  0  2  0  0  0  0  0  0
  -29.4130  -12.6190   18.0200 C   0  0  0  0  0  2  0  0  0  0  0  0
  -27.9440  -12.4600   18.4570 C   0  0  0  0  0  2  0  0  0  0  0  0
  -27.5900  -13.3230   19.6970 C   0  0  0  0  0  3  0  0  0  0  0  0
  -28.6620  -13.2420   20.8050 C   0  0  0  0  0  2  0  0  0  0  0  0
  -29.9480  -13.5850   20.1920 N   0  0  0  0  0  0  0  0  0  0  0  0
  -31.7960  -14.8330   19.9310 O   0  0  0  0  0  0  0  0  0  0  0  0
  -29.8670  -15.9720   20.4380 N   0  0  0  0  0  0  0  0  0  0  0  0
  -28.9190  -15.8130   20.7410 H   0  0  0  0  0  0  0  0  0  0  0  0
  -25.2070  -13.9000   20.4390 C   0  0  0  0  0  0  0  0  0  0  0  0
  -24.1500  -13.1220   20.8220 C   0  0  0  0  0  0  0  0  0  0  0  0
  -24.6190  -11.7730   20.7960 C   0  0  0  0  0  0  0  0  0  0  0  0
  -26.2540  -13.0250   20.2010 N   0  0  0  0  0  0  0  0  0  0  0  0
  -25.9080  -11.7410   20.4780 N   0  0  0  0  0  0  0  0  0  0  0  0
  -23.8970  -10.5090   20.9950 C   0  0  0  0  0  0  0  0  0  0  0  0
  -24.3340   -9.5490   21.9340 C   0  0  0  0  0  3  0  0  0  0  0  0
  -23.6100   -8.3520   22.1220 C   0  0  0  0  0  3  0  0  0  0  0  0
  -22.4360   -8.1050   21.3720 C   0  0  0  0  0  0  0  0  0  0  0  0
  -22.0190   -9.0540   20.4220 C   0  0  0  0  0  3  0  0  0  0  0  0
  -22.7430  -10.2430   20.2310 C   0  0  0  0  0  3  0  0  0  0  0  0
  -21.6850   -6.9580   21.4690 O   0  0  0  0  0  0  0  0  0  0  0  0
  -21.6380   -6.2240   22.6270 C   0  0  0  0  0  0  0  0  0  0  0  0
  -21.2000   -6.7840   23.8470 C   0  0  0  0  0  3  0  0  0  0  0  0
  -21.1010   -5.9760   24.9970 C   0  0  0  0  0  3  0  0  0  0  0  0
  -21.4290   -4.6090   24.9290 C   0  0  0  0  0  0  0  0  0  0  0  0
  -21.8580   -4.0480   23.7130 C   0  0  0  0  0  3  0  0  0  0  0  0
  -21.9600   -4.8540   22.5650 C   0  0  0  0  0  0  0  0  0  0  0  0
  -22.3540   -4.3020   21.3920 F   0  0  0  0  0  0  0  0  0  0  0  0
  -21.3270   -3.8290   26.0310 F   0  0  0  0  0  0  0  0  0  0  0  0
  -22.7510  -13.5960   21.0990 C   0  0  0  0  0  0  0  0  0  0  0  0
  -22.0280  -12.8990   21.9690 N   0  0  0  0  0  0  0  0  0  0  0  0
  -22.3080  -14.6160   20.5750 O   0  0  0  0  0  0  0  0  0  0  0  0
  -22.3930  -12.0690   22.4120 H   0  0  0  0  0  0  0  0  0  0  0  0
  -21.0930  -13.2030   22.1960 H   0  0  0  0  0  0  0  0  0  0  0  0
  -25.3630  -15.2720   20.2480 N   0  0  0  0  0  0  0  0  0  0  0  0
  -24.5900  -15.9210   20.3450 H   0  0  0  0  0  0  0  0  0  0  0  0
  -26.1950  -15.7070   19.8690 H   0  0  0  0  0  0  0  0  0  0  0  0
  -27.9540  -24.9280   20.6000 C   0  0  0  0  0  2  0  0  0  0  0  0
  -28.2630  -26.3660   20.2370 O   0  0  0  0  0  0  0  0  0  0  0  0
  -24.6150  -31.8900   23.2520 C   0  0  0  0  0  0  0  0  0  0  0  0
  -27.1940  -27.2880   20.1860 C   0  0  0  0  0  0  0  0  0  0  0  0
  -23.4140  -30.4960   21.6100 C   0  0  0  0  0  3  0  0  0  0  0  0
  -24.8610  -28.9530   20.1710 C   0  0  0  0  0  0  0  0  0  0  0  0
  -25.9590  -30.8010   21.4320 C   0  0  0  0  0  2  0  0  0  0  0  0
  -26.0350  -29.4220   20.7750 C   0  0  0  0  0  0  0  0  0  0  0  0
  -27.2100  -28.6020   20.7690 C   0  0  0  0  0  3  0  0  0  0  0  0
  -26.0080  -26.9060   19.5220 C   0  0  0  0  0  3  0  0  0  0  0  0
  -24.8540  -27.7090   19.5280 C   0  0  0  0  0  3  0  0  0  0  0  0
  -23.6290  -29.8340   20.2240 C   0  0  0  0  0  2  0  0  0  0  0  0
  -24.6820  -31.0810   22.1540 N   0  0  0  0  0  0  0  0  0  0  0  0
  -23.5300  -32.1640   23.7880 O   0  0  0  0  0  0  0  0  0  0  0  0
  -22.7510  -29.4730   22.5660 C   0  0  0  0  0  0  0  0  0  0  0  0
  -21.4250  -29.2950   22.4430 N   0  0  0  0  0  0  0  0  0  0  0  0
  -23.4330  -28.8460   23.3820 O   0  0  0  0  0  0  0  0  0  0  0  0
  -20.9330  -29.8580   21.7640 H   0  0  0  0  0  0  0  0  0  0  0  0
  -18.0520  -28.0830   22.9540 C   0  0  0  0  0  0  0  0  0  0  0  0
  -20.6100  -28.3540   23.2160 C   0  0  0  0  0  3  0  0  0  0  0  0
  -20.7160  -26.9210   22.6410 C   0  0  0  0  0  2  0  0  0  0  0  0
  -19.6150  -26.5940   21.6280 C   0  0  0  0  0  2  0  0  0  0  0  0
  -18.2340  -26.7350   22.2760 C   0  0  0  0  0  2  0  0  0  0  0  0
  -19.1690  -28.8500   23.3830 C   0  0  0  0  0  0  0  0  0  0  0  0
  -18.9460  -30.1110   23.9780 C   0  0  0  0  0  3  0  0  0  0  0  0
  -17.6400  -30.6060   24.1470 C   0  0  0  0  0  3  0  0  0  0  0  0
  -16.5370  -29.8370   23.7330 C   0  0  0  0  0  3  0  0  0  0  0  0
  -16.7440  -28.5780   23.1440 C   0  0  0  0  0  3  0  0  0  0  0  0
  -25.8950  -32.5290   23.8740 C   0  0  0  0  0  3  0  0  0  0  0  0
  -25.5840  -33.9310   24.1970 N   0  0  0  0  0  0  0  0  0  0  0  0
  -25.9150  -34.9780   23.4340 C   0  0  0  0  0  0  0  0  0  0  0  0
  -26.5830  -34.8690   22.4010 O   0  0  0  0  0  0  0  0  0  0  0  0
  -24.9930  -34.0940   25.0000 H   0  0  0  0  0  0  0  0  0  0  0  0
  -24.1900  -36.7740   23.0730 C   0  0  0  0  0  1  0  0  0  0  0  0
  -25.4310  -36.3710   23.8870 C   0  0  0  0  0  3  0  0  0  0  0  0
  -27.5670  -37.2550   24.7160 C   0  0  0  0  0  1  0  0  0  0  0  0
  -26.4650  -37.4200   23.7710 N   0  0  0  0  0  0  0  0  0  0  0  0
  -26.0600  -38.3420   23.9150 H   0  0  0  0  0  0  0  0  0  0  0  0
  -26.4100  -31.7670   25.1560 C   0  0  1  0  0  0  0  0  0  0  0  0
  -25.3170  -31.5340   26.2250 C   0  0  0  0  0  1  0  0  0  0  0  0
  -26.9930  -30.3870   24.7760 C   0  0  0  0  0  1  0  0  0  0  0  0
  -27.5600  -32.5670   25.8140 C   0  0  0  0  0  1  0  0  0  0  0  0
  1  2  1  0
  3 11  1  0
  3  6  1  0
  3  1  1  0
  4  6  1  0
  4  2  1  0
  4 51  1  0
  5  6  1  0
  6  7  1  1
  9 10  2  0
 10  8  1  0
 10 21  1  0
 11  8  2  0
 12  9  1  0
 12 11  1  0
 13 21  1  0
 14 19  1  0
 15 16  1  0
 15 14  1  0
 17 16  1  0
 17 26  1  0
 17 18  1  0
 19 13  1  0
 19 18  1  0
 20 13  2  0
 21 22  1  0
 23 24  2  0
 24 43  1  0
 25 24  1  0
 25 28  1  0
 26 23  1  0
 26 27  1  0
 27 25  2  0
 28 29  1  0
 29 30  2  0
 31 34  1  0
 31 30  1  0
 32 31  2  0
 33 32  1  0
 33 28  2  0
 34 35  1  0
 35 36  1  0
 36 37  2  0
 38 37  1  0
 38 42  1  0
 39 38  2  0
 40 35  2  0
 40 39  1  0
 41 40  1  0
 43 44  1  0
 44 47  1  0
 44 46  1  0
 45 43  2  0
 48 49  1  0
 48 23  1  0
 50 48  1  0
 52 51  1  0
 53 64  2  0
 54 52  1  0
 54 59  1  0
 55 63  1  0
 55 65  1  0
 56 62  1  0
 56 58  1  0
 57 63  1  0
 58 57  1  0
 59 58  2  0
 60 61  1  0
 60 54  2  0
 61 56  2  0
 62 55  1  0
 63 53  1  0
 65 67  2  0
 66 65  1  0
 68 66  1  0
 69 78  2  0
 69 74  1  0
 70 66  1  0
 70 74  1  0
 71 70  1  0
 72 73  1  0
 72 71  1  0
 73 69  1  0
 74 75  2  0
 75 76  1  0
 77 76  2  0
 78 77  1  0
 79 53  1  0
 79 80  1  0
 79 89  1  0
 80 83  1  0
 81 85  1  0
 81 80  1  0
 82 81  2  0
 85 84  1  0
 87 85  1  0
 87 88  1  0
 87 86  1  0
 89 92  1  1
 89 90  1  0
 91 89  1  0
M  ISO  4  13 100  21 100  51 101  52 101
M  END
>  <TORSDO>  (89) 
F 18

>  <SCORE>  (89) 
-14.597

>  <name>  (89) 
88

>  <ligand_id>  (89) 
88

>  <original_smiles>  (89) 
[H]c1sc(C2([H])C([H])([H])C([H])([H])C([H])(C([H])([H])Oc3c([H])c([H])c4c(c3[H])C([H])([H])N(C(=O)C([H])(N([H])C(=O)C([H])(N([H])C([H])([H])[H])C([H])([H])[H])C(C([H])([H])[H])(C([H])([H])[H])C([H])([H])[H])C([H])(C(=O)N([H])C3([H])c5c([H])c([H])c([H])c([H])c5C([H])([H])C([H])([H])C3([H])[H])C4([H])[H])[N+]2([H])C([H])([H])[H])c([H])c1N([H])C(=O)N1C([H])([H])C([H])([H])C([H])([H])C([H])(n2nc(-c3c([H])c([H])c(Oc4c([H])c([H])c(F)c([H])c4F)c([H])c3[H])c(C(=O)N([H])[H])c2N([H])[H])C1([H])[H]

>  <smiles>  (89) 
[H]c1sc(C2([H])C([H])([H])C([H])([H])C([H])(C([H])([H])Oc3c([H])c([H])c4c(c3[H])C([H])([H])N(C(=O)C([H])(N([H])C(=O)C([H])(N([H])C([H])([H])[H])C([H])([H])[H])C(C([H])([H])[H])(C([H])([H])[H])C([H])([H])[H])C([H])(C(=O)N([H])C3([H])c5c([H])c([H])c([H])c([H])c5C([H])([H])C([H])([H])C3([H])[H])C4([H])[H])[N+]2([H])C([H])([H])[H])c([H])c1N([H])C(=O)N1C([H])([H])C([H])([H])C([H])([H])C([H])(n2nc(-c3c([H])c([H])c(Oc4c([H])c([H])c(F)c([H])c4F)c([H])c3[H])c(C(=O)N([H])[H])c2N([H])[H])C1([H])[H]

$$$$
89:0:0
     RDKit          3D

 93102  0  0  1  0  0  0  0  0999 V2000
  -28.6980  -21.4140   20.0260 C   0  0  0  0  0  3  0  0  0  0  0  0
  -29.0760  -23.8350   19.2100 C   0  0  0  0  0  2  0  0  0  0  0  0
  -28.1260  -24.7460   20.0780 C   0  0  0  0  0  3  0  0  0  0  0  0
  -28.6290  -23.7440   21.1960 C   0  0  0  0  0  3  0  0  0  0  0  0
  -27.6840  -23.1430   22.2260 C   0  0  0  0  0  1  0  0  0  0  0  0
  -29.1370  -22.7230   20.2160 N   0  0  0  0  0  0  0  0  0  0  0  0
  -27.5090  -21.2880   19.4150 N   0  0  0  0  0  0  0  0  0  0  0  0
  -27.1390  -20.3690   19.2270 H   0  0  0  0  0  0  0  0  0  0  0  0
  -26.9900  -22.0760   19.0580 H   0  0  0  0  0  0  0  0  0  0  0  0
  -29.0560  -18.7050   20.0710 C   0  0  0  0  0  3  0  0  0  0  0  0
  -30.9650  -18.2020   21.3040 C   0  0  0  0  0  3  0  0  0  0  0  0
  -29.9440  -17.6170   20.5860 C   0  0  0  0  0  0  0  0  0  0  0  0
  -29.3870  -20.0630   20.3710 C   0  0  0  0  0  0  0  0  0  0  0  0
  -30.8540  -19.9830   21.3430 S   0  0  0  0  0  0  0  0  0  0  0  0
  -30.5350  -14.9590   20.3970 C   0  0  0  0  0  0  0  0  0  0  0  0
  -30.4070  -12.6260   19.4200 C   0  0  0  0  0  2  0  0  0  0  0  0
  -29.4670  -12.5920   18.1890 C   0  0  0  0  0  2  0  0  0  0  0  0
  -28.0030  -12.3840   18.6230 C   0  0  0  0  0  2  0  0  0  0  0  0
  -27.5990  -13.3120   19.8000 C   0  0  0  0  0  3  0  0  0  0  0  0
  -28.6570  -13.2980   20.9270 C   0  0  0  0  0  2  0  0  0  0  0  0
  -29.9340  -13.7070   20.3250 N   0  0  0  0  0  0  0  0  0  0  0  0
  -31.7440  -15.0350   20.1480 O   0  0  0  0  0  0  0  0  0  0  0  0
  -29.7190  -16.1150   20.4850 N   0  0  0  0  0  0  0  0  0  0  0  0
  -28.7440  -15.8600   20.4830 H   0  0  0  0  0  0  0  0  0  0  0  0
  -25.2120  -13.8950   20.5340 C   0  0  0  0  0  0  0  0  0  0  0  0
  -24.1460  -13.1190   20.9030 C   0  0  0  0  0  0  0  0  0  0  0  0
  -24.6110  -11.7690   20.8720 C   0  0  0  0  0  0  0  0  0  0  0  0
  -26.2570  -13.0180   20.2950 N   0  0  0  0  0  0  0  0  0  0  0  0
  -25.9030  -11.7330   20.5610 N   0  0  0  0  0  0  0  0  0  0  0  0
  -23.8850  -10.5050   21.0530 C   0  0  0  0  0  0  0  0  0  0  0  0
  -24.3040   -9.5380   21.9940 C   0  0  0  0  0  3  0  0  0  0  0  0
  -23.5730   -8.3430   22.1660 C   0  0  0  0  0  3  0  0  0  0  0  0
  -22.4110   -8.1050   21.3950 C   0  0  0  0  0  0  0  0  0  0  0  0
  -22.0110   -9.0600   20.4440 C   0  0  0  0  0  3  0  0  0  0  0  0
  -22.7430  -10.2460   20.2690 C   0  0  0  0  0  3  0  0  0  0  0  0
  -21.6540   -6.9600   21.4740 O   0  0  0  0  0  0  0  0  0  0  0  0
  -21.5760   -6.2280   22.6320 C   0  0  0  0  0  0  0  0  0  0  0  0
  -21.0870   -6.7840   23.8340 C   0  0  0  0  0  3  0  0  0  0  0  0
  -20.9580   -5.9780   24.9820 C   0  0  0  0  0  3  0  0  0  0  0  0
  -21.3090   -4.6150   24.9300 C   0  0  0  0  0  0  0  0  0  0  0  0
  -21.7940   -4.0590   23.7340 C   0  0  0  0  0  3  0  0  0  0  0  0
  -21.9250   -4.8630   22.5880 C   0  0  0  0  0  0  0  0  0  0  0  0
  -22.3700   -4.3140   21.4320 F   0  0  0  0  0  0  0  0  0  0  0  0
  -21.1800   -3.8400   26.0330 F   0  0  0  0  0  0  0  0  0  0  0  0
  -22.7470  -13.5960   21.1660 C   0  0  0  0  0  0  0  0  0  0  0  0
  -22.0140  -12.9030   22.0290 N   0  0  0  0  0  0  0  0  0  0  0  0
  -22.3140  -14.6220   20.6420 O   0  0  0  0  0  0  0  0  0  0  0  0
  -22.3760  -12.0740   22.4780 H   0  0  0  0  0  0  0  0  0  0  0  0
  -21.0740  -13.2080   22.2430 H   0  0  0  0  0  0  0  0  0  0  0  0
  -25.3750  -15.2670   20.3600 N   0  0  0  0  0  0  0  0  0  0  0  0
  -24.5980  -15.9120   20.4570 H   0  0  0  0  0  0  0  0  0  0  0  0
  -26.1940  -15.7050   19.9630 H   0  0  0  0  0  0  0  0  0  0  0  0
  -28.3040  -26.2920   20.1660 O   0  0  0  0  0  0  0  0  0  0  0  0
  -24.6490  -31.8910   23.2300 C   0  0  0  0  0  0  0  0  0  0  0  0
  -27.2130  -27.2310   20.1250 C   0  0  0  0  0  0  0  0  0  0  0  0
  -23.4350  -30.5130   21.5850 C   0  0  0  0  0  3  0  0  0  0  0  0
  -24.8740  -28.9550   20.1320 C   0  0  0  0  0  0  0  0  0  0  0  0
  -25.9860  -30.7860   21.3980 C   0  0  0  0  0  2  0  0  0  0  0  0
  -26.0540  -29.4020   20.7370 C   0  0  0  0  0  0  0  0  0  0  0  0
  -27.2230  -28.5580   20.7120 C   0  0  0  0  0  3  0  0  0  0  0  0
  -26.0080  -26.8830   19.4710 C   0  0  0  0  0  3  0  0  0  0  0  0
  -24.8660  -27.7080   19.4820 C   0  0  0  0  0  3  0  0  0  0  0  0
  -23.6440  -29.8490   20.1980 C   0  0  0  0  0  2  0  0  0  0  0  0
  -24.7110  -31.0850   22.1260 N   0  0  0  0  0  0  0  0  0  0  0  0
  -23.5680  -32.1610   23.7760 O   0  0  0  0  0  0  0  0  0  0  0  0
  -22.7620  -29.4970   22.5380 C   0  0  0  0  0  0  0  0  0  0  0  0
  -21.4320  -29.3370   22.4220 N   0  0  0  0  0  0  0  0  0  0  0  0
  -23.4390  -28.8540   23.3430 O   0  0  0  0  0  0  0  0  0  0  0  0
  -20.9420  -29.9180   21.7580 H   0  0  0  0  0  0  0  0  0  0  0  0
  -18.0460  -28.1320   22.9440 C   0  0  0  0  0  0  0  0  0  0  0  0
  -20.6100  -28.3980   23.1930 C   0  0  0  0  0  3  0  0  0  0  0  0
  -20.7030  -26.9620   22.6220 C   0  0  0  0  0  2  0  0  0  0  0  0
  -19.5950  -26.6300   21.6190 C   0  0  0  0  0  2  0  0  0  0  0  0
  -18.2200  -26.7820   22.2720 C   0  0  0  0  0  2  0  0  0  0  0  0
  -19.1680  -28.8950   23.3680 C   0  0  0  0  0  0  0  0  0  0  0  0
  -18.9470  -30.1560   23.9630 C   0  0  0  0  0  3  0  0  0  0  0  0
  -17.6430  -30.6500   24.1440 C   0  0  0  0  0  3  0  0  0  0  0  0
  -16.5370  -29.8850   23.7350 C   0  0  0  0  0  3  0  0  0  0  0  0
  -16.7410  -28.6290   23.1390 C   0  0  0  0  0  3  0  0  0  0  0  0
  -25.9340  -32.5160   23.8500 C   0  0  0  0  0  3  0  0  0  0  0  0
  -25.6290  -33.9110   24.1950 N   0  0  0  0  0  0  0  0  0  0  0  0
  -25.9460  -34.9730   23.4420 C   0  0  0  0  0  0  0  0  0  0  0  0
  -26.5870  -34.8760   22.3920 O   0  0  0  0  0  0  0  0  0  0  0  0
  -25.0600  -34.0630   25.0140 H   0  0  0  0  0  0  0  0  0  0  0  0
  -24.2080  -36.7730   23.1550 C   0  0  0  0  0  1  0  0  0  0  0  0
  -25.4740  -36.3600   23.9240 C   0  0  0  0  0  3  0  0  0  0  0  0
  -27.6310  -37.2510   24.6920 C   0  0  0  0  0  1  0  0  0  0  0  0
  -26.5000  -37.4170   23.7840 N   0  0  0  0  0  0  0  0  0  0  0  0
  -26.0950  -38.3350   23.9440 H   0  0  0  0  0  0  0  0  0  0  0  0
  -26.4510  -31.7340   25.1170 C   0  0  1  0  0  0  0  0  0  0  0  0
  -25.3630  -31.4980   26.1910 C   0  0  0  0  0  1  0  0  0  0  0  0
  -27.0250  -30.3550   24.7150 C   0  0  0  0  0  1  0  0  0  0  0  0
  -27.6090  -32.5200   25.7760 C   0  0  0  0  0  1  0  0  0  0  0  0
  1  7  1  0
  1  6  1  0
  1 13  1  0
  2  3  1  0
  2  6  1  0
  3 53  1  0
  3  4  1  0
  4  5  1  0
  6  4  1  0
  8  7  1  0
  9  7  1  0
 10 13  2  0
 10 12  1  0
 11 14  1  0
 12 11  2  0
 13 14  1  0
 15 23  1  0
 16 21  1  0
 17 18  1  0
 17 16  1  0
 19 18  1  0
 19 28  1  0
 19 20  1  0
 21 15  1  0
 21 20  1  0
 22 15  2  0
 23 12  1  0
 24 23  1  0
 25 26  2  0
 26 45  1  0
 27 26  1  0
 27 30  1  0
 28 25  1  0
 28 29  1  0
 29 27  2  0
 30 31  1  0
 31 32  2  0
 33 36  1  0
 33 32  1  0
 34 33  2  0
 35 34  1  0
 35 30  2  0
 36 37  1  0
 37 38  1  0
 38 39  2  0
 40 39  1  0
 40 44  1  0
 41 40  2  0
 42 37  2  0
 42 41  1  0
 43 42  1  0
 45 46  1  0
 46 49  1  0
 46 48  1  0
 47 45  2  0
 50 51  1  0
 50 25  1  0
 52 50  1  0
 54 65  2  0
 55 53  1  0
 55 60  1  0
 56 64  1  0
 56 66  1  0
 57 63  1  0
 57 59  1  0
 58 64  1  0
 59 58  1  0
 60 59  2  0
 61 62  1  0
 61 55  2  0
 62 57  2  0
 63 56  1  0
 64 54  1  0
 66 68  2  0
 67 66  1  0
 69 67  1  0
 70 79  2  0
 70 75  1  0
 71 67  1  0
 71 75  1  0
 72 71  1  0
 73 74  1  0
 73 72  1  0
 74 70  1  0
 75 76  2  0
 76 77  1  0
 78 77  2  0
 79 78  1  0
 80 54  1  0
 80 81  1  0
 80 90  1  0
 81 84  1  0
 82 86  1  0
 82 81  1  0
 83 82  2  0
 86 85  1  0
 88 86  1  0
 88 89  1  0
 88 87  1  0
 90 93  1  1
 90 91  1  0
 92 90  1  0
M  ISO  4   3 101  15 100  23 100  53 101
M  END
>  <TORSDO>  (90) 
F 17

>  <SCORE>  (90) 
-15.014

>  <name>  (90) 
89

>  <ligand_id>  (90) 
89

>  <original_smiles>  (90) 
[H]c1sc(C(N2C([H])([H])C([H])(Oc3c([H])c([H])c4c(c3[H])C([H])([H])N(C(=O)C([H])(N([H])C(=O)C([H])(N([H])C([H])([H])[H])C([H])([H])[H])C(C([H])([H])[H])(C([H])([H])[H])C([H])([H])[H])C([H])(C(=O)N([H])C3([H])c5c([H])c([H])c([H])c([H])c5C([H])([H])C([H])([H])C3([H])[H])C4([H])[H])C2([H])C([H])([H])[H])=[N+]([H])[H])c([H])c1N([H])C(=O)N1C([H])([H])C([H])([H])C([H])([H])C([H])(n2nc(-c3c([H])c([H])c(Oc4c([H])c([H])c(F)c([H])c4F)c([H])c3[H])c(C(=O)N([H])[H])c2N([H])[H])C1([H])[H]

>  <smiles>  (90) 
[H]c1sc(C(N2C([H])([H])C([H])(Oc3c([H])c([H])c4c(c3[H])C([H])([H])N(C(=O)C([H])(N([H])C(=O)C([H])(N([H])C([H])([H])[H])C([H])([H])[H])C(C([H])([H])[H])(C([H])([H])[H])C([H])([H])[H])C([H])(C(=O)N([H])C3([H])c5c([H])c([H])c([H])c([H])c5C([H])([H])C([H])([H])C3([H])[H])C4([H])[H])C2([H])C([H])([H])[H])=[N+]([H])[H])c([H])c1N([H])C(=O)N1C([H])([H])C([H])([H])C([H])([H])C([H])(n2nc(-c3c([H])c([H])c(Oc4c([H])c([H])c(F)c([H])c4F)c([H])c3[H])c(C(=O)N([H])[H])c2N([H])[H])C1([H])[H]

$$$$
90:0:0
     RDKit          3D

 90 99  0  0  1  0  0  0  0  0999 V2000
  -28.7980  -23.7490   20.3930 C   0  0  0  0  0  0  0  0  0  0  0  0
  -27.9910  -24.8680   20.1690 C   0  0  0  0  0  3  0  0  0  0  0  0
  -30.2310  -23.7300   20.8610 C   0  0  0  0  0  2  0  0  0  0  0  0
  -28.4380  -22.2150   20.2350 C   0  0  0  0  0  2  0  0  0  0  0  0
  -30.7280  -22.2630   20.6930 C   0  0  0  0  0  2  0  0  0  0  0  0
  -29.5840  -21.3330   20.6610 N   0  0  0  0  0  0  0  0  0  0  0  0
  -29.3840  -18.6620   20.7830 C   0  0  0  0  0  3  0  0  0  0  0  0
  -31.0260  -17.8360   19.3400 C   0  0  0  0  0  3  0  0  0  0  0  0
  -30.0830  -17.4510   20.2600 C   0  0  0  0  0  0  0  0  0  0  0  0
  -29.8270  -19.9220   20.2950 C   0  0  0  0  0  0  0  0  0  0  0  0
  -31.0880  -19.5790   19.1170 S   0  0  0  0  0  0  0  0  0  0  0  0
  -30.5730  -14.8400   20.3030 C   0  0  0  0  0  0  0  0  0  0  0  0
  -30.3570  -12.5490   19.3090 C   0  0  0  0  0  2  0  0  0  0  0  0
  -29.4170  -12.6130   18.0860 C   0  0  0  0  0  2  0  0  0  0  0  0
  -27.9500  -12.4380   18.5220 C   0  0  0  0  0  2  0  0  0  0  0  0
  -27.5820  -13.3260   19.7400 C   0  0  0  0  0  3  0  0  0  0  0  0
  -28.6450  -13.2540   20.8580 C   0  0  0  0  0  2  0  0  0  0  0  0
  -29.9380  -13.6120   20.2590 N   0  0  0  0  0  0  0  0  0  0  0  0
  -31.7540  -14.9040   19.9460 O   0  0  0  0  0  0  0  0  0  0  0  0
  -29.8370  -16.0000   20.5880 N   0  0  0  0  0  0  0  0  0  0  0  0
  -28.9350  -15.8080   20.9970 H   0  0  0  0  0  0  0  0  0  0  0  0
  -25.2010  -13.9180   20.4840 C   0  0  0  0  0  0  0  0  0  0  0  0
  -24.1350  -13.1470   20.8580 C   0  0  0  0  0  0  0  0  0  0  0  0
  -24.5930  -11.7950   20.8210 C   0  0  0  0  0  0  0  0  0  0  0  0
  -26.2410  -13.0370   20.2370 N   0  0  0  0  0  0  0  0  0  0  0  0
  -25.8820  -11.7540   20.5040 N   0  0  0  0  0  0  0  0  0  0  0  0
  -23.8630  -10.5340   21.0100 C   0  0  0  0  0  0  0  0  0  0  0  0
  -24.2880   -9.5650   21.9460 C   0  0  0  0  0  3  0  0  0  0  0  0
  -23.5560   -8.3710   22.1230 C   0  0  0  0  0  3  0  0  0  0  0  0
  -22.3840   -8.1380   21.3640 C   0  0  0  0  0  0  0  0  0  0  0  0
  -21.9770   -9.0960   20.4190 C   0  0  0  0  0  3  0  0  0  0  0  0
  -22.7100  -10.2800   20.2390 C   0  0  0  0  0  3  0  0  0  0  0  0
  -21.6240   -6.9950   21.4500 O   0  0  0  0  0  0  0  0  0  0  0  0
  -21.5590   -6.2600   22.6070 C   0  0  0  0  0  0  0  0  0  0  0  0
  -21.1090   -6.8190   23.8220 C   0  0  0  0  0  3  0  0  0  0  0  0
  -20.9910   -6.0100   24.9690 C   0  0  0  0  0  3  0  0  0  0  0  0
  -21.3150   -4.6410   24.9020 C   0  0  0  0  0  0  0  0  0  0  0  0
  -21.7590   -4.0810   23.6920 C   0  0  0  0  0  3  0  0  0  0  0  0
  -21.8790   -4.8880   22.5460 C   0  0  0  0  0  0  0  0  0  0  0  0
  -22.2870   -4.3380   21.3770 F   0  0  0  0  0  0  0  0  0  0  0  0
  -21.1960   -3.8620   26.0020 F   0  0  0  0  0  0  0  0  0  0  0  0
  -22.7410  -13.6300   21.1370 C   0  0  0  0  0  0  0  0  0  0  0  0
  -22.0130  -12.9370   22.0040 N   0  0  0  0  0  0  0  0  0  0  0  0
  -22.3070  -14.6600   20.6200 O   0  0  0  0  0  0  0  0  0  0  0  0
  -22.3780  -12.1040   22.4450 H   0  0  0  0  0  0  0  0  0  0  0  0
  -21.0790  -13.2450   22.2340 H   0  0  0  0  0  0  0  0  0  0  0  0
  -25.3690  -15.2890   20.3090 N   0  0  0  0  0  0  0  0  0  0  0  0
  -24.6050  -15.9450   20.4240 H   0  0  0  0  0  0  0  0  0  0  0  0
  -26.2030  -15.7190   19.9280 H   0  0  0  0  0  0  0  0  0  0  0  0
  -28.2440  -26.2930   20.2340 O   0  0  0  0  0  0  0  0  0  0  0  0
  -24.6210  -31.8910   23.2360 C   0  0  0  0  0  0  0  0  0  0  0  0
  -27.1770  -27.2430   20.1670 C   0  0  0  0  0  0  0  0  0  0  0  0
  -23.4070  -30.5040   21.5990 C   0  0  0  0  0  3  0  0  0  0  0  0
  -24.8440  -28.9500   20.1570 C   0  0  0  0  0  0  0  0  0  0  0  0
  -25.9560  -30.7790   21.4230 C   0  0  0  0  0  2  0  0  0  0  0  0
  -26.0210  -29.3960   20.7710 C   0  0  0  0  0  0  0  0  0  0  0  0
  -27.1860  -28.5520   20.7760 C   0  0  0  0  0  3  0  0  0  0  0  0
  -25.9870  -26.9080   19.4780 C   0  0  0  0  0  3  0  0  0  0  0  0
  -24.8350  -27.7140   19.4980 C   0  0  0  0  0  3  0  0  0  0  0  0
  -23.6160  -29.8390   20.2140 C   0  0  0  0  0  2  0  0  0  0  0  0
  -24.6800  -31.0780   22.1400 N   0  0  0  0  0  0  0  0  0  0  0  0
  -23.5390  -32.1750   23.7730 O   0  0  0  0  0  0  0  0  0  0  0  0
  -22.7390  -29.4870   22.5570 C   0  0  0  0  0  0  0  0  0  0  0  0
  -21.4110  -29.3170   22.4380 N   0  0  0  0  0  0  0  0  0  0  0  0
  -23.4160  -28.8550   23.3730 O   0  0  0  0  0  0  0  0  0  0  0  0
  -20.9210  -29.8770   21.7530 H   0  0  0  0  0  0  0  0  0  0  0  0
  -18.0310  -28.1250   22.9520 C   0  0  0  0  0  0  0  0  0  0  0  0
  -20.5910  -28.3810   23.2110 C   0  0  0  0  0  3  0  0  0  0  0  0
  -20.6890  -26.9480   22.6350 C   0  0  0  0  0  2  0  0  0  0  0  0
  -19.5820  -26.6280   21.6250 C   0  0  0  0  0  2  0  0  0  0  0  0
  -18.2040  -26.7760   22.2750 C   0  0  0  0  0  2  0  0  0  0  0  0
  -19.1530  -28.8850   23.3770 C   0  0  0  0  0  0  0  0  0  0  0  0
  -18.9380  -30.1460   23.9740 C   0  0  0  0  0  3  0  0  0  0  0  0
  -17.6350  -30.6490   24.1460 C   0  0  0  0  0  3  0  0  0  0  0  0
  -16.5270  -29.8860   23.7360 C   0  0  0  0  0  3  0  0  0  0  0  0
  -16.7260  -28.6260   23.1450 C   0  0  0  0  0  3  0  0  0  0  0  0
  -25.9060  -32.5200   23.8540 C   0  0  0  0  0  3  0  0  0  0  0  0
  -25.5970  -33.9160   24.2000 N   0  0  0  0  0  0  0  0  0  0  0  0
  -25.9010  -34.9760   23.4400 C   0  0  0  0  0  0  0  0  0  0  0  0
  -26.5410  -34.8820   22.3880 O   0  0  0  0  0  0  0  0  0  0  0  0
  -25.0240  -34.0620   25.0180 H   0  0  0  0  0  0  0  0  0  0  0  0
  -24.1490  -36.7590   23.1570 C   0  0  0  0  0  1  0  0  0  0  0  0
  -25.4210  -36.3590   23.9200 C   0  0  0  0  0  3  0  0  0  0  0  0
  -27.5770  -37.2600   24.6770 C   0  0  0  0  0  1  0  0  0  0  0  0
  -26.4420  -37.4200   23.7730 N   0  0  0  0  0  0  0  0  0  0  0  0
  -26.0350  -38.3380   23.9350 H   0  0  0  0  0  0  0  0  0  0  0  0
  -26.4300  -31.7390   25.1220 C   0  0  1  0  0  0  0  0  0  0  0  0
  -25.3440  -31.4950   26.1950 C   0  0  0  0  0  1  0  0  0  0  0  0
  -27.0110  -30.3630   24.7210 C   0  0  0  0  0  1  0  0  0  0  0  0
  -27.5850  -32.5280   25.7820 C   0  0  0  0  0  1  0  0  0  0  0  0
  1  3  1  0
  2 50  1  0
  2  1  2  0
  4  1  1  0
  4  6  1  0
  5  3  1  0
  6  5  1  0
  8  9  2  0
  9 20  1  0
  9  7  1  0
 10  6  1  0
 10  7  2  0
 11  8  1  0
 11 10  1  0
 12 20  1  0
 13 18  1  0
 14 15  1  0
 14 13  1  0
 16 15  1  0
 16 25  1  0
 16 17  1  0
 18 12  1  0
 18 17  1  0
 19 12  2  0
 20 21  1  0
 22 23  2  0
 23 42  1  0
 24 23  1  0
 24 27  1  0
 25 22  1  0
 25 26  1  0
 26 24  2  0
 27 28  1  0
 28 29  2  0
 30 33  1  0
 30 29  1  0
 31 30  2  0
 32 31  1  0
 32 27  2  0
 33 34  1  0
 34 35  1  0
 35 36  2  0
 37 36  1  0
 37 41  1  0
 38 37  2  0
 39 34  2  0
 39 38  1  0
 40 39  1  0
 42 43  1  0
 43 46  1  0
 43 45  1  0
 44 42  2  0
 47 48  1  0
 47 22  1  0
 49 47  1  0
 51 62  2  0
 52 50  1  0
 52 57  1  0
 53 61  1  0
 53 63  1  0
 54 60  1  0
 54 56  1  0
 55 61  1  0
 56 57  2  0
 56 55  1  0
 58 59  1  0
 58 52  2  0
 59 54  2  0
 60 53  1  0
 61 51  1  0
 63 65  2  0
 64 63  1  0
 66 64  1  0
 67 76  2  0
 67 72  1  0
 68 64  1  0
 68 72  1  0
 69 68  1  0
 70 71  1  0
 70 69  1  0
 71 67  1  0
 72 73  2  0
 73 74  1  0
 75 74  2  0
 76 75  1  0
 77 51  1  0
 77 78  1  0
 77 87  1  0
 78 81  1  0
 79 83  1  0
 79 78  1  0
 80 79  2  0
 83 82  1  0
 85 83  1  0
 85 86  1  0
 85 84  1  0
 87 90  1  1
 87 88  1  0
 89 87  1  0
M  ISO  4   2 101  12 100  20 100  50 101
M  END
>  <TORSDO>  (91) 
F 17

>  <SCORE>  (91) 
-15.057

>  <name>  (91) 
90

>  <ligand_id>  (91) 
90

>  <original_smiles>  (91) 
[H]C(Oc1c([H])c([H])c2c(c1[H])C([H])([H])N(C(=O)C([H])(N([H])C(=O)C([H])(N([H])C([H])([H])[H])C([H])([H])[H])C(C([H])([H])[H])(C([H])([H])[H])C([H])([H])[H])C([H])(C(=O)N([H])C1([H])c3c([H])c([H])c([H])c([H])c3C([H])([H])C([H])([H])C1([H])[H])C2([H])[H])=C1C([H])([H])N(c2sc([H])c(N([H])C(=O)N3C([H])([H])C([H])([H])C([H])([H])C([H])(n4nc(-c5c([H])c([H])c(Oc6c([H])c([H])c(F)c([H])c6F)c([H])c5[H])c(C(=O)N([H])[H])c4N([H])[H])C3([H])[H])c2[H])C([H])([H])C1([H])[H]

>  <smiles>  (91) 
[H]C(Oc1c([H])c([H])c2c(c1[H])C([H])([H])N(C(=O)C([H])(N([H])C(=O)C([H])(N([H])C([H])([H])[H])C([H])([H])[H])C(C([H])([H])[H])(C([H])([H])[H])C([H])([H])[H])C([H])(C(=O)N([H])C1([H])c3c([H])c([H])c([H])c([H])c3C([H])([H])C([H])([H])C1([H])[H])C2([H])[H])=C1C([H])([H])N(c2sc([H])c(N([H])C(=O)N3C([H])([H])C([H])([H])C([H])([H])C([H])(n4nc(-c5c([H])c([H])c(Oc6c([H])c([H])c(F)c([H])c6F)c([H])c5[H])c(C(=O)N([H])[H])c4N([H])[H])C3([H])[H])c2[H])C([H])([H])C1([H])[H]

$$$$
91:0:0
     RDKit          3D

 91 99  0  0  1  0  0  0  0  0999 V2000
  -29.2030  -20.2860   20.3720 N   0  0  0  0  0  0  0  0  0  0  0  0
  -29.1370  -20.1390   21.3770 H   0  0  0  0  0  0  0  0  0  0  0  0
  -29.5650  -19.4430   18.1460 C   0  0  0  0  0  3  0  0  0  0  0  0
  -29.5590  -19.0470   19.5350 C   0  0  0  0  0  0  0  0  0  0  0  0
  -29.9090  -18.5080   17.2250 C   0  0  0  0  0  0  0  0  0  0  0  0
  -29.9090  -17.5900   19.6190 C   0  0  0  0  0  0  0  0  0  0  0  0
  -29.9840  -18.6580   15.7410 C   0  0  0  0  0  1  0  0  0  0  0  0
  -30.2750  -17.0240   17.9820 S   0  0  0  0  0  0  0  0  0  0  0  0
  -30.6760  -15.1730   20.3230 C   0  0  0  0  0  0  0  0  0  0  0  0
  -30.5560  -12.8020   19.4120 C   0  0  0  0  0  2  0  0  0  0  0  0
  -29.6510  -12.7520   18.1590 C   0  0  0  0  0  2  0  0  0  0  0  0
  -28.1860  -12.5230   18.5690 C   0  0  0  0  0  2  0  0  0  0  0  0
  -27.7550  -13.4450   19.7400 C   0  0  0  0  0  3  0  0  0  0  0  0
  -28.7920  -13.4850   20.8840 C   0  0  0  0  0  2  0  0  0  0  0  0
  -30.0680  -13.9100   20.2940 N   0  0  0  0  0  0  0  0  0  0  0  0
  -31.8810  -15.1840   20.0400 O   0  0  0  0  0  0  0  0  0  0  0  0
  -29.9650  -16.4250   20.4900 N   0  0  0  0  0  0  0  0  0  0  0  0
  -29.1420  -16.3340   21.0660 H   0  0  0  0  0  0  0  0  0  0  0  0
  -25.3600  -13.9970   20.4320 C   0  0  0  0  0  0  0  0  0  0  0  0
  -24.3000  -13.2140   20.7930 C   0  0  0  0  0  0  0  0  0  0  0  0
  -24.7800  -11.8700   20.7900 C   0  0  0  0  0  0  0  0  0  0  0  0
  -26.4170  -13.1290   20.2210 N   0  0  0  0  0  0  0  0  0  0  0  0
  -26.0770  -11.8450   20.5050 N   0  0  0  0  0  0  0  0  0  0  0  0
  -24.0640  -10.6010   20.9830 C   0  0  0  0  0  0  0  0  0  0  0  0
  -24.4840   -9.6490   21.9380 C   0  0  0  0  0  3  0  0  0  0  0  0
  -23.7640   -8.4490   22.1190 C   0  0  0  0  0  3  0  0  0  0  0  0
  -22.6070   -8.1910   21.3450 C   0  0  0  0  0  0  0  0  0  0  0  0
  -22.2040   -9.1320   20.3800 C   0  0  0  0  0  3  0  0  0  0  0  0
  -22.9260  -10.3240   20.1970 C   0  0  0  0  0  3  0  0  0  0  0  0
  -21.8600   -7.0420   21.4350 O   0  0  0  0  0  0  0  0  0  0  0  0
  -21.7920   -6.3160   22.5970 C   0  0  0  0  0  0  0  0  0  0  0  0
  -21.3440   -6.8860   23.8090 C   0  0  0  0  0  3  0  0  0  0  0  0
  -21.2230   -6.0860   24.9620 C   0  0  0  0  0  3  0  0  0  0  0  0
  -21.5440   -4.7160   24.9070 C   0  0  0  0  0  0  0  0  0  0  0  0
  -21.9880   -4.1460   23.7010 C   0  0  0  0  0  3  0  0  0  0  0  0
  -22.1090   -4.9420   22.5490 C   0  0  0  0  0  0  0  0  0  0  0  0
  -22.5160   -4.3830   21.3850 F   0  0  0  0  0  0  0  0  0  0  0  0
  -21.4220   -3.9460   26.0120 F   0  0  0  0  0  0  0  0  0  0  0  0
  -22.8930  -13.6810   21.0280 C   0  0  0  0  0  0  0  0  0  0  0  0
  -22.1580  -12.9950   21.8970 N   0  0  0  0  0  0  0  0  0  0  0  0
  -22.4550  -14.6890   20.4780 O   0  0  0  0  0  0  0  0  0  0  0  0
  -22.5250  -12.1780   22.3620 H   0  0  0  0  0  0  0  0  0  0  0  0
  -21.2140  -13.2920   22.0990 H   0  0  0  0  0  0  0  0  0  0  0  0
  -25.5110  -15.3670   20.2380 N   0  0  0  0  0  0  0  0  0  0  0  0
  -24.7330  -16.0120   20.3300 H   0  0  0  0  0  0  0  0  0  0  0  0
  -26.3530  -15.8120   19.8970 H   0  0  0  0  0  0  0  0  0  0  0  0
  -28.6560  -21.7190   19.8820 C   0  0  0  0  0  2  0  0  0  0  0  0
  -28.7280  -23.2550   20.5770 C   0  0  0  0  0  0  0  0  0  0  0  0
  -29.4360  -23.3800   21.5820 O   0  0  0  0  0  0  0  0  0  0  0  0
  -27.9070  -24.6160   20.0020 C   0  0  0  0  0  2  0  0  0  0  0  0
  -28.1780  -26.1340   20.3810 O   0  0  0  0  0  0  0  0  0  0  0  0
  -24.5950  -31.9700   23.2520 C   0  0  0  0  0  0  0  0  0  0  0  0
  -27.1570  -27.1700   20.2740 C   0  0  0  0  0  0  0  0  0  0  0  0
  -23.3960  -30.5610   21.6260 C   0  0  0  0  0  3  0  0  0  0  0  0
  -24.8430  -28.9640   20.2150 C   0  0  0  0  0  0  0  0  0  0  0  0
  -25.9550  -30.8040   21.4670 C   0  0  0  0  0  2  0  0  0  0  0  0
  -26.0250  -29.3990   20.8280 C   0  0  0  0  0  0  0  0  0  0  0  0
  -27.1800  -28.5180   20.8420 C   0  0  0  0  0  3  0  0  0  0  0  0
  -25.9520  -26.8620   19.6030 C   0  0  0  0  0  3  0  0  0  0  0  0
  -24.8250  -27.7120   19.5850 C   0  0  0  0  0  3  0  0  0  0  0  0
  -23.6200  -29.8700   20.2540 C   0  0  0  0  0  2  0  0  0  0  0  0
  -24.6690  -31.1350   22.1680 N   0  0  0  0  0  0  0  0  0  0  0  0
  -23.5080  -32.2630   23.7740 O   0  0  0  0  0  0  0  0  0  0  0  0
  -22.7110  -29.5660   22.5980 C   0  0  0  0  0  0  0  0  0  0  0  0
  -21.3830  -29.3930   22.4710 N   0  0  0  0  0  0  0  0  0  0  0  0
  -23.3800  -28.9520   23.4330 O   0  0  0  0  0  0  0  0  0  0  0  0
  -20.8980  -29.9400   21.7730 H   0  0  0  0  0  0  0  0  0  0  0  0
  -18.0040  -28.1830   22.9730 C   0  0  0  0  0  0  0  0  0  0  0  0
  -20.5600  -28.4650   23.2520 C   0  0  0  0  0  3  0  0  0  0  0  0
  -20.6730  -27.0230   22.7040 C   0  0  0  0  0  2  0  0  0  0  0  0
  -19.5800  -26.6770   21.6870 C   0  0  0  0  0  2  0  0  0  0  0  0
  -18.1930  -26.8250   22.3200 C   0  0  0  0  0  2  0  0  0  0  0  0
  -19.1150  -28.9590   23.3980 C   0  0  0  0  0  0  0  0  0  0  0  0
  -18.8830  -30.2290   23.9710 C   0  0  0  0  0  3  0  0  0  0  0  0
  -17.5730  -30.7220   24.1230 C   0  0  0  0  0  3  0  0  0  0  0  0
  -16.4770  -29.9440   23.7130 C   0  0  0  0  0  3  0  0  0  0  0  0
  -16.6930  -28.6760   23.1440 C   0  0  0  0  0  3  0  0  0  0  0  0
  -25.8720  -32.6140   23.8730 C   0  0  0  0  0  3  0  0  0  0  0  0
  -26.3820  -31.8590   25.1620 C   0  0  1  0  0  0  0  0  0  0  0  0
  -25.2830  -31.6330   26.2270 C   0  0  0  0  0  1  0  0  0  0  0  0
  -26.9670  -30.4760   24.7970 C   0  0  0  0  0  1  0  0  0  0  0  0
  -27.5270  -32.6620   25.8220 C   0  0  0  0  0  1  0  0  0  0  0  0
  -25.5590  -34.0160   24.1920 N   0  0  0  0  0  0  0  0  0  0  0  0
  -25.8950  -35.0680   23.4330 C   0  0  0  0  0  0  0  0  0  0  0  0
  -26.5650  -34.9590   22.4040 O   0  0  0  0  0  0  0  0  0  0  0  0
  -24.9650  -34.1750   24.9930 H   0  0  0  0  0  0  0  0  0  0  0  0
  -24.1730  -36.8700   23.0740 C   0  0  0  0  0  1  0  0  0  0  0  0
  -25.4130  -36.4600   23.8860 C   0  0  0  0  0  3  0  0  0  0  0  0
  -27.5490  -37.3450   24.7170 C   0  0  0  0  0  1  0  0  0  0  0  0
  -26.4490  -37.5110   23.7710 N   0  0  0  0  0  0  0  0  0  0  0  0
  -26.0450  -38.4320   23.9120 H   0  0  0  0  0  0  0  0  0  0  0  0
  1  2  1  0
  3  4  1  0
  4  6  2  0
  4  1  1  0
  5  8  1  0
  5  3  2  0
  6 17  1  0
  7  5  1  0
  8  6  1  0
  9 17  1  0
 10 15  1  0
 11 12  1  0
 11 10  1  0
 13 12  1  0
 13 22  1  0
 13 14  1  0
 15  9  1  0
 15 14  1  0
 16  9  2  0
 17 18  1  0
 19 20  2  0
 20 39  1  0
 21 20  1  0
 21 24  1  0
 22 19  1  0
 22 23  1  0
 23 21  2  0
 24 25  1  0
 25 26  2  0
 27 30  1  0
 27 26  1  0
 28 27  2  0
 29 28  1  0
 29 24  2  0
 30 31  1  0
 31 32  1  0
 32 33  2  0
 34 33  1  0
 34 38  1  0
 35 34  2  0
 36 31  2  0
 36 35  1  0
 37 36  1  0
 39 40  1  0
 40 43  1  0
 40 42  1  0
 41 39  2  0
 44 45  1  0
 44 19  1  0
 46 44  1  0
 47  1  1  0
 47 48  1  0
 48 49  2  0
 50 51  1  0
 50 48  1  0
 52 63  2  0
 53 51  1  0
 53 58  1  0
 54 62  1  0
 54 64  1  0
 55 61  1  0
 55 57  1  0
 56 62  1  0
 57 58  2  0
 57 56  1  0
 59 53  2  0
 60 59  1  0
 60 55  2  0
 61 54  1  0
 62 52  1  0
 64 66  2  0
 65 64  1  0
 67 65  1  0
 68 77  2  0
 68 73  1  0
 69 65  1  0
 69 73  1  0
 70 69  1  0
 71 72  1  0
 71 70  1  0
 72 68  1  0
 73 74  2  0
 74 75  1  0
 76 75  2  0
 77 76  1  0
 78 52  1  0
 78 83  1  0
 78 79  1  0
 79 82  1  1
 79 80  1  0
 81 79  1  0
 83 86  1  0
 84 88  1  0
 84 83  1  0
 85 84  2  0
 88 87  1  0
 90 88  1  0
 90 91  1  0
 90 89  1  0
M  ISO  4   9 100  17 100  50 101  51 101
M  END
>  <TORSDO>  (92) 
F 20

>  <SCORE>  (92) 
-13.341

>  <name>  (92) 
91

>  <ligand_id>  (92) 
91

>  <original_smiles>  (92) 
[H]c1c([H])c([H])c2c(c1[H])C([H])([H])C([H])([H])C([H])([H])C2([H])N([H])C(=O)C1([H])N(C(=O)C([H])(N([H])C(=O)C([H])(N([H])C([H])([H])[H])C([H])([H])[H])C(C([H])([H])[H])(C([H])([H])[H])C([H])([H])[H])C([H])([H])c2c([H])c(OC([H])([H])C(=O)C([H])([H])N([H])c3c(N([H])C(=O)N4C([H])([H])C([H])([H])C([H])([H])C([H])(n5nc(-c6c([H])c([H])c(Oc7c([H])c([H])c(F)c([H])c7F)c([H])c6[H])c(C(=O)N([H])[H])c5N([H])[H])C4([H])[H])sc(C([H])([H])[H])c3[H])c([H])c([H])c2C1([H])[H]

>  <smiles>  (92) 
[H]c1c([H])c([H])c2c(c1[H])C([H])([H])C([H])([H])C([H])([H])C2([H])N([H])C(=O)C1([H])N(C(=O)C([H])(N([H])C(=O)C([H])(N([H])C([H])([H])[H])C([H])([H])[H])C(C([H])([H])[H])(C([H])([H])[H])C([H])([H])[H])C([H])([H])c2c([H])c(OC([H])([H])C(=O)C([H])([H])N([H])c3c(N([H])C(=O)N4C([H])([H])C([H])([H])C([H])([H])C([H])(n5nc(-c6c([H])c([H])c(Oc7c([H])c([H])c(F)c([H])c7F)c([H])c6[H])c(C(=O)N([H])[H])c5N([H])[H])C4([H])[H])sc(C([H])([H])[H])c3[H])c([H])c([H])c2C1([H])[H]

$$$$
92:0:0
     RDKit          3D

 95104  0  0  1  0  0  0  0  0999 V2000
  -27.9800  -23.8100   20.1140 C   0  0  0  0  0  0  0  0  0  0  0  0
  -28.5250  -21.2240   20.2910 C   0  0  0  0  0  3  0  0  0  0  0  0
  -30.1340  -24.7000   20.0070 C   0  0  0  0  0  2  0  0  0  0  0  0
  -30.2190  -23.1450   19.8800 C   0  0  0  0  0  2  0  0  0  0  0  0
  -28.7030  -25.1480   19.6290 C   0  0  1  0  0  0  0  0  0  0  0  0
  -28.6300  -25.3090   18.0910 C   0  0  0  0  0  1  0  0  0  0  0  0
  -28.8760  -22.5960   20.1270 N   0  0  0  0  0  0  0  0  0  0  0  0
  -27.2230  -20.9680   20.5230 N   0  0  0  0  0  0  0  0  0  0  0  0
  -26.7720  -23.7470   20.3810 O   0  0  0  0  0  0  0  0  0  0  0  0
  -26.8860  -20.0250   20.6370 H   0  0  0  0  0  0  0  0  0  0  0  0
  -26.5540  -21.7300   20.5890 H   0  0  0  0  0  0  0  0  0  0  0  0
  -28.9930  -18.5800   20.4350 C   0  0  0  0  0  3  0  0  0  0  0  0
  -31.2330  -18.1530   19.9840 C   0  0  0  0  0  3  0  0  0  0  0  0
  -30.0390  -17.5440   20.2890 C   0  0  0  0  0  0  0  0  0  0  0  0
  -29.3660  -19.9360   20.2390 C   0  0  0  0  0  0  0  0  0  0  0  0
  -31.0840  -19.9170   19.8620 S   0  0  0  0  0  0  0  0  0  0  0  0
  -30.6560  -14.9430   20.1660 C   0  0  0  0  0  0  0  0  0  0  0  0
  -30.4710  -12.6630   19.1330 C   0  0  0  0  0  2  0  0  0  0  0  0
  -29.4940  -12.7360   17.9380 C   0  0  0  0  0  2  0  0  0  0  0  0
  -28.0400  -12.5400   18.4080 C   0  0  0  0  0  2  0  0  0  0  0  0
  -27.6940  -13.4040   19.6490 C   0  0  0  0  0  3  0  0  0  0  0  0
  -28.7860  -13.3090   20.7360 C   0  0  0  0  0  2  0  0  0  0  0  0
  -30.0570  -13.6980   20.1130 N   0  0  0  0  0  0  0  0  0  0  0  0
  -31.8340  -15.0520   19.8090 O   0  0  0  0  0  0  0  0  0  0  0  0
  -29.8520  -16.0580   20.4360 N   0  0  0  0  0  0  0  0  0  0  0  0
  -28.9220  -15.7890   20.7210 H   0  0  0  0  0  0  0  0  0  0  0  0
  -25.3290  -13.9730   20.4580 C   0  0  0  0  0  0  0  0  0  0  0  0
  -24.2780  -13.1890   20.8470 C   0  0  0  0  0  0  0  0  0  0  0  0
  -24.7440  -11.8400   20.7800 C   0  0  0  0  0  0  0  0  0  0  0  0
  -26.3670  -13.1010   20.1750 N   0  0  0  0  0  0  0  0  0  0  0  0
  -26.0250  -11.8130   20.4320 N   0  0  0  0  0  0  0  0  0  0  0  0
  -24.0280  -10.5720   20.9680 C   0  0  0  0  0  0  0  0  0  0  0  0
  -24.4570   -9.6140   21.9130 C   0  0  0  0  0  3  0  0  0  0  0  0
  -23.7390   -8.4120   22.0900 C   0  0  0  0  0  3  0  0  0  0  0  0
  -22.5780   -8.1580   21.3210 C   0  0  0  0  0  0  0  0  0  0  0  0
  -22.1690   -9.1050   20.3650 C   0  0  0  0  0  3  0  0  0  0  0  0
  -22.8870  -10.2990   20.1870 C   0  0  0  0  0  3  0  0  0  0  0  0
  -21.8330   -7.0060   21.4060 O   0  0  0  0  0  0  0  0  0  0  0  0
  -21.7260   -6.3040   22.5790 C   0  0  0  0  0  0  0  0  0  0  0  0
  -21.1770   -6.8810   23.7450 C   0  0  0  0  0  3  0  0  0  0  0  0
  -21.0220   -6.1010   24.9090 C   0  0  0  0  0  3  0  0  0  0  0  0
  -21.4040   -4.7460   24.9070 C   0  0  0  0  0  0  0  0  0  0  0  0
  -21.9450   -4.1690   23.7450 C   0  0  0  0  0  3  0  0  0  0  0  0
  -22.1020   -4.9460   22.5830 C   0  0  0  0  0  0  0  0  0  0  0  0
  -22.6040   -4.3800   21.4590 F   0  0  0  0  0  0  0  0  0  0  0  0
  -21.2480   -3.9950   26.0220 F   0  0  0  0  0  0  0  0  0  0  0  0
  -22.8870  -13.6570   21.1650 C   0  0  0  0  0  0  0  0  0  0  0  0
  -22.1880  -12.9460   22.0430 N   0  0  0  0  0  0  0  0  0  0  0  0
  -22.4310  -14.6870   20.6710 O   0  0  0  0  0  0  0  0  0  0  0  0
  -22.5710  -12.1130   22.4640 H   0  0  0  0  0  0  0  0  0  0  0  0
  -21.2550  -13.2410   22.2990 H   0  0  0  0  0  0  0  0  0  0  0  0
  -25.4820  -15.3470   20.2970 N   0  0  0  0  0  0  0  0  0  0  0  0
  -24.7070  -15.9880   20.4250 H   0  0  0  0  0  0  0  0  0  0  0  0
  -26.2940  -15.7890   19.8860 H   0  0  0  0  0  0  0  0  0  0  0  0
  -28.4290  -26.5000   20.2870 O   0  0  0  0  0  0  0  0  0  0  0  0
  -24.6110  -31.9260   23.2490 C   0  0  0  0  0  0  0  0  0  0  0  0
  -27.2900  -27.3460   20.1860 C   0  0  0  0  0  0  0  0  0  0  0  0
  -23.4380  -30.5290   21.5860 C   0  0  0  0  0  3  0  0  0  0  0  0
  -24.9150  -28.9910   20.1610 C   0  0  0  0  0  0  0  0  0  0  0  0
  -25.9820  -30.8520   21.4350 C   0  0  0  0  0  2  0  0  0  0  0  0
  -26.0770  -29.4730   20.7730 C   0  0  0  0  0  0  0  0  0  0  0  0
  -27.2610  -28.6640   20.7700 C   0  0  0  0  0  3  0  0  0  0  0  0
  -26.0900  -26.9220   19.5750 C   0  0  0  0  0  3  0  0  0  0  0  0
  -24.9280  -27.7250   19.5530 C   0  0  0  0  0  3  0  0  0  0  0  0
  -23.6730  -29.8630   20.2030 C   0  0  0  0  0  2  0  0  0  0  0  0
  -24.6960  -31.1220   22.1460 N   0  0  0  0  0  0  0  0  0  0  0  0
  -23.5190  -32.1910   23.7730 O   0  0  0  0  0  0  0  0  0  0  0  0
  -22.7680  -29.5060   22.5340 C   0  0  0  0  0  0  0  0  0  0  0  0
  -21.4450  -29.3160   22.3880 N   0  0  0  0  0  0  0  0  0  0  0  0
  -23.4400  -28.8830   23.3620 O   0  0  0  0  0  0  0  0  0  0  0  0
  -20.9610  -29.8700   21.6970 H   0  0  0  0  0  0  0  0  0  0  0  0
  -18.0710  -28.0880   22.8480 C   0  0  0  0  0  0  0  0  0  0  0  0
  -20.6250  -28.3650   23.1430 C   0  0  0  0  0  3  0  0  0  0  0  0
  -20.7430  -26.9410   22.5550 C   0  0  0  0  0  2  0  0  0  0  0  0
  -19.6530  -26.6190   21.5270 C   0  0  0  0  0  2  0  0  0  0  0  0
  -18.2640  -26.7470   22.1600 C   0  0  0  0  0  2  0  0  0  0  0  0
  -19.1800  -28.8550   23.2950 C   0  0  0  0  0  0  0  0  0  0  0  0
  -18.9450  -30.1090   23.8990 C   0  0  0  0  0  3  0  0  0  0  0  0
  -17.6350  -30.5980   24.0580 C   0  0  0  0  0  3  0  0  0  0  0  0
  -16.5410  -29.8290   23.6260 C   0  0  0  0  0  3  0  0  0  0  0  0
  -16.7600  -28.5750   23.0280 C   0  0  0  0  0  3  0  0  0  0  0  0
  -25.8790  -32.5660   23.8930 C   0  0  0  0  0  3  0  0  0  0  0  0
  -25.5580  -33.9640   24.2150 N   0  0  0  0  0  0  0  0  0  0  0  0
  -25.8750  -35.0170   23.4500 C   0  0  0  0  0  0  0  0  0  0  0  0
  -26.5360  -34.9120   22.4130 O   0  0  0  0  0  0  0  0  0  0  0  0
  -24.9690  -34.1170   25.0210 H   0  0  0  0  0  0  0  0  0  0  0  0
  -24.1220  -36.7900   23.1120 C   0  0  0  0  0  1  0  0  0  0  0  0
  -25.3810  -36.4040   23.9040 C   0  0  0  0  0  3  0  0  0  0  0  0
  -27.5150  -37.3260   24.6990 C   0  0  0  0  0  1  0  0  0  0  0  0
  -26.4010  -37.4670   23.7650 N   0  0  0  0  0  0  0  0  0  0  0  0
  -25.9860  -38.3850   23.9030 H   0  0  0  0  0  0  0  0  0  0  0  0
  -26.3750  -31.8020   25.1830 C   0  0  1  0  0  0  0  0  0  0  0  0
  -25.2610  -31.5640   26.2310 C   0  0  0  0  0  1  0  0  0  0  0  0
  -26.9720  -30.4260   24.8100 C   0  0  0  0  0  1  0  0  0  0  0  0
  -27.5080  -32.6040   25.8640 C   0  0  0  0  0  1  0  0  0  0  0  0
  1  7  1  0
  1  9  2  0
  2  8  1  0
  4  3  1  0
  4  7  1  0
  5  6  1  6
  5  3  1  0
  5  1  1  0
  5 55  1  0
  7  2  1  0
  8 11  1  0
  8 10  1  0
 13 14  2  0
 14 12  1  0
 14 25  1  0
 15  2  1  0
 15 12  2  0
 16 13  1  0
 16 15  1  0
 17 25  1  0
 18 23  1  0
 19 20  1  0
 19 18  1  0
 21 20  1  0
 21 30  1  0
 21 22  1  0
 23 17  1  0
 23 22  1  0
 24 17  2  0
 25 26  1  0
 27 28  2  0
 28 47  1  0
 29 28  1  0
 29 32  1  0
 30 31  1  0
 30 27  1  0
 31 29  2  0
 32 33  1  0
 33 34  2  0
 35 38  1  0
 35 34  1  0
 36 35  2  0
 37 36  1  0
 37 32  2  0
 38 39  1  0
 39 44  2  0
 39 40  1  0
 40 41  2  0
 42 41  1  0
 42 46  1  0
 43 42  2  0
 44 43  1  0
 45 44  1  0
 47 48  1  0
 48 51  1  0
 48 50  1  0
 49 47  2  0
 52 53  1  0
 52 27  1  0
 54 52  1  0
 56 67  2  0
 57 55  1  0
 57 62  1  0
 58 66  1  0
 58 68  1  0
 59 65  1  0
 59 61  1  0
 60 66  1  0
 61 60  1  0
 62 61  2  0
 63 57  2  0
 64 63  1  0
 64 59  2  0
 65 58  1  0
 66 56  1  0
 68 70  2  0
 69 68  1  0
 71 69  1  0
 72 81  2  0
 72 77  1  0
 73 69  1  0
 73 77  1  0
 74 73  1  0
 75 76  1  0
 75 74  1  0
 76 72  1  0
 77 78  2  0
 78 79  1  0
 80 79  2  0
 81 80  1  0
 82 56  1  0
 82 83  1  0
 82 92  1  0
 83 86  1  0
 84 88  1  0
 84 83  1  0
 85 84  2  0
 88 87  1  0
 90 91  1  0
 90 88  1  0
 90 89  1  0
 92 95  1  1
 92 93  1  0
 94 92  1  0
M  ISO  4   5 101  17 100  25 100  55 101
M  END
>  <TORSDO>  (93) 
F 17

>  <SCORE>  (93) 
-15.111

>  <name>  (93) 
92

>  <ligand_id>  (93) 
92

>  <original_smiles>  (93) 
[H]c1sc(C(N2C(=O)C(Oc3c([H])c([H])c4c(c3[H])C([H])([H])N(C(=O)C([H])(N([H])C(=O)C([H])(N([H])C([H])([H])[H])C([H])([H])[H])C(C([H])([H])[H])(C([H])([H])[H])C([H])([H])[H])C([H])(C(=O)N([H])C3([H])c5c([H])c([H])c([H])c([H])c5C([H])([H])C([H])([H])C3([H])[H])C4([H])[H])(C([H])([H])[H])C([H])([H])C2([H])[H])=[N+]([H])[H])c([H])c1N([H])C(=O)N1C([H])([H])C([H])([H])C([H])([H])C([H])(n2nc(-c3c([H])c([H])c(Oc4c([H])c([H])c(F)c([H])c4F)c([H])c3[H])c(C(=O)N([H])[H])c2N([H])[H])C1([H])[H]

>  <smiles>  (93) 
[H]c1sc(C(N2C(=O)C(Oc3c([H])c([H])c4c(c3[H])C([H])([H])N(C(=O)C([H])(N([H])C(=O)C([H])(N([H])C([H])([H])[H])C([H])([H])[H])C(C([H])([H])[H])(C([H])([H])[H])C([H])([H])[H])C([H])(C(=O)N([H])C3([H])c5c([H])c([H])c([H])c([H])c5C([H])([H])C([H])([H])C3([H])[H])C4([H])[H])(C([H])([H])[H])C([H])([H])C2([H])[H])=[N+]([H])[H])c([H])c1N([H])C(=O)N1C([H])([H])C([H])([H])C([H])([H])C([H])(n2nc(-c3c([H])c([H])c(Oc4c([H])c([H])c(F)c([H])c4F)c([H])c3[H])c(C(=O)N([H])[H])c2N([H])[H])C1([H])[H]

$$$$
93:0:0
     RDKit          3D

 97106  0  0  1  0  0  0  0  0999 V2000
  -28.7470  -23.8950   21.0240 C   0  0  0  0  0  0  0  0  0  0  0  0
  -29.3520  -21.3540   21.0650 C   0  0  0  0  0  3  0  0  0  0  0  0
  -28.5690  -24.2920   18.7030 C   0  0  0  0  0  2  0  0  0  0  0  0
  -28.8040  -22.7640   18.9600 C   0  0  0  0  0  2  0  0  0  0  0  0
  -28.0790  -24.9070   20.0240 C   0  0  0  0  0  3  0  0  0  0  0  0
  -29.0270  -22.5640   20.4060 N   0  0  0  0  0  0  0  0  0  0  0  0
  -29.3810  -21.3820   22.4140 N   0  0  0  0  0  0  0  0  0  0  0  0
  -28.9360  -24.1370   22.2260 O   0  0  0  0  0  0  0  0  0  0  0  0
  -29.6220  -20.5610   22.9490 H   0  0  0  0  0  0  0  0  0  0  0  0
  -29.2240  -22.2520   22.9110 H   0  0  0  0  0  0  0  0  0  0  0  0
  -30.8170  -18.0890   19.5110 C   0  0  0  0  0  3  0  0  0  0  0  0
  -30.6560  -19.5390   19.6140 C   0  0  0  0  0  0  0  0  0  0  0  0
  -29.6970  -19.9770   20.5120 C   0  0  0  0  0  0  0  0  0  0  0  0
  -30.0090  -17.3100   20.3240 C   0  0  0  0  0  0  0  0  0  0  0  0
  -28.9820  -18.4830   21.2090 S   0  0  0  0  0  0  0  0  0  0  0  0
  -30.6410  -14.8340   20.0080 C   0  0  0  0  0  0  0  0  0  0  0  0
  -30.3850  -12.5900   18.9270 C   0  0  0  0  0  2  0  0  0  0  0  0
  -29.3680  -12.7120   17.7690 C   0  0  0  0  0  2  0  0  0  0  0  0
  -27.9280  -12.5270   18.2840 C   0  0  0  0  0  2  0  0  0  0  0  0
  -27.6400  -13.3680   19.5560 C   0  0  0  0  0  3  0  0  0  0  0  0
  -28.7660  -13.2200   20.6040 C   0  0  0  0  0  2  0  0  0  0  0  0
  -30.0280  -13.5990   19.9530 N   0  0  0  0  0  0  0  0  0  0  0  0
  -31.7760  -14.9760   19.5400 O   0  0  0  0  0  0  0  0  0  0  0  0
  -29.8920  -15.9100   20.4680 N   0  0  0  0  0  0  0  0  0  0  0  0
  -29.0540  -15.6140   20.9450 H   0  0  0  0  0  0  0  0  0  0  0  0
  -25.3030  -13.9500   20.4430 C   0  0  0  0  0  0  0  0  0  0  0  0
  -24.2560  -13.1700   20.8580 C   0  0  0  0  0  0  0  0  0  0  0  0
  -24.7090  -11.8190   20.7610 C   0  0  0  0  0  0  0  0  0  0  0  0
  -26.3250  -13.0730   20.1180 N   0  0  0  0  0  0  0  0  0  0  0  0
  -25.9780  -11.7840   20.3700 N   0  0  0  0  0  0  0  0  0  0  0  0
  -23.9890  -10.5550   20.9620 C   0  0  0  0  0  0  0  0  0  0  0  0
  -24.4500   -9.5770   21.8710 C   0  0  0  0  0  3  0  0  0  0  0  0
  -23.7290   -8.3790   22.0600 C   0  0  0  0  0  3  0  0  0  0  0  0
  -22.5330   -8.1490   21.3410 C   0  0  0  0  0  0  0  0  0  0  0  0
  -22.0910   -9.1140   20.4190 C   0  0  0  0  0  3  0  0  0  0  0  0
  -22.8120  -10.3040   20.2270 C   0  0  0  0  0  3  0  0  0  0  0  0
  -21.7810   -7.0020   21.4400 O   0  0  0  0  0  0  0  0  0  0  0  0
  -21.7300   -6.2740   22.6010 C   0  0  0  0  0  0  0  0  0  0  0  0
  -21.2980   -6.8410   23.8210 C   0  0  0  0  0  3  0  0  0  0  0  0
  -21.1960   -6.0380   24.9740 C   0  0  0  0  0  3  0  0  0  0  0  0
  -21.5150   -4.6690   24.9100 C   0  0  0  0  0  0  0  0  0  0  0  0
  -21.9400   -4.1010   23.6950 C   0  0  0  0  0  3  0  0  0  0  0  0
  -22.0440   -4.9010   22.5440 C   0  0  0  0  0  0  0  0  0  0  0  0
  -22.4340   -4.3440   21.3730 F   0  0  0  0  0  0  0  0  0  0  0  0
  -21.4100   -3.8950   26.0150 F   0  0  0  0  0  0  0  0  0  0  0  0
  -22.8810  -13.6460   21.2300 C   0  0  0  0  0  0  0  0  0  0  0  0
  -22.2060  -12.9300   22.1230 N   0  0  0  0  0  0  0  0  0  0  0  0
  -22.4180  -14.6860   20.7640 O   0  0  0  0  0  0  0  0  0  0  0  0
  -22.5950  -12.0900   22.5220 H   0  0  0  0  0  0  0  0  0  0  0  0
  -21.2850  -13.2300   22.4120 H   0  0  0  0  0  0  0  0  0  0  0  0
  -25.4640  -15.3240   20.2920 N   0  0  0  0  0  0  0  0  0  0  0  0
  -24.7060  -15.9760   20.4610 H   0  0  0  0  0  0  0  0  0  0  0  0
  -26.2840  -15.7650   19.8970 H   0  0  0  0  0  0  0  0  0  0  0  0
  -31.5080  -20.3710   18.8680 N   0  0  0  0  0  0  0  0  0  0  0  0
  -32.3160  -19.9280   18.4420 H   0  0  0  0  0  0  0  0  0  0  0  0
  -31.7590  -21.2690   19.2670 H   0  0  0  0  0  0  0  0  0  0  0  0
  -28.2840  -26.4010   20.2210 O   0  0  0  0  0  0  0  0  0  0  0  0
  -24.6000  -31.8920   23.2250 C   0  0  0  0  0  0  0  0  0  0  0  0
  -27.1870  -27.2990   20.1410 C   0  0  0  0  0  0  0  0  0  0  0  0
  -23.3870  -30.4990   21.5900 C   0  0  0  0  0  3  0  0  0  0  0  0
  -24.8300  -28.9560   20.1410 C   0  0  0  0  0  0  0  0  0  0  0  0
  -25.9290  -30.8070   21.3940 C   0  0  0  0  0  2  0  0  0  0  0  0
  -26.0040  -29.4260   20.7400 C   0  0  0  0  0  0  0  0  0  0  0  0
  -27.1830  -28.6100   20.7330 C   0  0  0  0  0  3  0  0  0  0  0  0
  -25.9950  -26.9140   19.4850 C   0  0  0  0  0  3  0  0  0  0  0  0
  -24.8330  -27.7080   19.4990 C   0  0  0  0  0  3  0  0  0  0  0  0
  -23.5940  -29.8320   20.2040 C   0  0  0  0  0  2  0  0  0  0  0  0
  -24.6580  -31.0850   22.1260 N   0  0  0  0  0  0  0  0  0  0  0  0
  -23.5190  -32.1670   23.7670 O   0  0  0  0  0  0  0  0  0  0  0  0
  -22.7310  -29.4780   22.5520 C   0  0  0  0  0  0  0  0  0  0  0  0
  -21.4050  -29.2930   22.4300 N   0  0  0  0  0  0  0  0  0  0  0  0
  -23.4150  -28.8560   23.3690 O   0  0  0  0  0  0  0  0  0  0  0  0
  -20.9100  -29.8480   21.7460 H   0  0  0  0  0  0  0  0  0  0  0  0
  -18.0380  -28.0670   22.9360 C   0  0  0  0  0  0  0  0  0  0  0  0
  -20.5950  -28.3500   23.2050 C   0  0  0  0  0  3  0  0  0  0  0  0
  -20.7090  -26.9180   22.6330 C   0  0  0  0  0  2  0  0  0  0  0  0
  -19.6100  -26.5830   21.6200 C   0  0  0  0  0  2  0  0  0  0  0  0
  -18.2270  -26.7170   22.2640 C   0  0  0  0  0  2  0  0  0  0  0  0
  -19.1500  -28.8400   23.3640 C   0  0  0  0  0  0  0  0  0  0  0  0
  -18.9190  -30.1020   23.9530 C   0  0  0  0  0  3  0  0  0  0  0  0
  -17.6100  -30.5910   24.1190 C   0  0  0  0  0  3  0  0  0  0  0  0
  -16.5130  -29.8140   23.7080 C   0  0  0  0  0  3  0  0  0  0  0  0
  -16.7280  -28.5540   23.1220 C   0  0  0  0  0  3  0  0  0  0  0  0
  -25.8850  -32.5280   23.8390 C   0  0  0  0  0  3  0  0  0  0  0  0
  -25.5750  -33.9250   24.1760 N   0  0  0  0  0  0  0  0  0  0  0  0
  -25.8910  -34.9820   23.4180 C   0  0  0  0  0  0  0  0  0  0  0  0
  -26.5470  -34.8840   22.3770 O   0  0  0  0  0  0  0  0  0  0  0  0
  -24.9940  -34.0750   24.9890 H   0  0  0  0  0  0  0  0  0  0  0  0
  -24.1510  -36.7700   23.0970 C   0  0  0  0  0  1  0  0  0  0  0  0
  -25.4070  -36.3670   23.8870 C   0  0  0  0  0  3  0  0  0  0  0  0
  -27.5500  -37.2590   24.6880 C   0  0  0  0  0  1  0  0  0  0  0  0
  -26.4330  -37.4250   23.7610 N   0  0  0  0  0  0  0  0  0  0  0  0
  -26.0270  -38.3430   23.9160 H   0  0  0  0  0  0  0  0  0  0  0  0
  -26.4110  -31.7560   25.1120 C   0  0  1  0  0  0  0  0  0  0  0  0
  -25.3270  -31.5170   26.1880 C   0  0  0  0  0  1  0  0  0  0  0  0
  -26.9930  -30.3790   24.7160 C   0  0  0  0  0  1  0  0  0  0  0  0
  -27.5660  -32.5520   25.7670 C   0  0  0  0  0  1  0  0  0  0  0  0
  1  8  2  0
  2  7  1  0
  3  4  1  0
  3  5  1  0
  4  6  1  0
  5 57  1  0
  5  1  1  0
  6  1  1  0
  6  2  1  0
  7 10  1  0
  7  9  1  0
 11 12  1  0
 11 14  2  0
 12 13  2  0
 13  2  1  0
 13 15  1  0
 14 24  1  0
 14 15  1  0
 16 24  1  0
 17 22  1  0
 18 19  1  0
 18 17  1  0
 20 19  1  0
 20 29  1  0
 20 21  1  0
 22 16  1  0
 22 21  1  0
 23 16  2  0
 24 25  1  0
 26 27  2  0
 27 46  1  0
 28 27  1  0
 28 31  1  0
 29 30  1  0
 29 26  1  0
 30 28  2  0
 31 32  1  0
 32 33  2  0
 34 37  1  0
 34 33  1  0
 35 34  2  0
 36 35  1  0
 36 31  2  0
 37 38  1  0
 38 39  1  0
 39 40  2  0
 41 40  1  0
 41 45  1  0
 42 41  2  0
 43 38  2  0
 43 42  1  0
 44 43  1  0
 46 47  1  0
 47 50  1  0
 47 49  1  0
 48 46  2  0
 51 26  1  0
 51 52  1  0
 53 51  1  0
 54 56  1  0
 54 12  1  0
 55 54  1  0
 58 69  2  0
 59 57  1  0
 59 64  1  0
 60 68  1  0
 60 70  1  0
 61 67  1  0
 61 63  1  0
 62 68  1  0
 63 62  1  0
 64 63  2  0
 65 66  1  0
 65 59  2  0
 66 61  2  0
 67 60  1  0
 68 58  1  0
 70 72  2  0
 71 70  1  0
 73 71  1  0
 74 83  2  0
 74 79  1  0
 75 71  1  0
 75 79  1  0
 76 75  1  0
 77 78  1  0
 77 76  1  0
 78 74  1  0
 79 80  2  0
 80 81  1  0
 82 81  2  0
 83 82  1  0
 84 58  1  0
 84 85  1  0
 84 94  1  0
 85 88  1  0
 86 90  1  0
 86 85  1  0
 87 86  2  0
 90 89  1  0
 92 90  1  0
 92 93  1  0
 92 91  1  0
 94 97  1  1
 94 95  1  0
 96 94  1  0
M  ISO  4   5 101  16 100  24 100  57 101
M  END
>  <TORSDO>  (94) 
F 18

>  <SCORE>  (94) 
-14.532

>  <name>  (94) 
93

>  <ligand_id>  (94) 
93

>  <original_smiles>  (94) 
[H]c1c([H])c([H])c2c(c1[H])C([H])([H])C([H])([H])C([H])([H])C2([H])N([H])C(=O)C1([H])N(C(=O)C([H])(N([H])C(=O)C([H])(N([H])C([H])([H])[H])C([H])([H])[H])C(C([H])([H])[H])(C([H])([H])[H])C([H])([H])[H])C([H])([H])c2c([H])c(OC3([H])C(=O)N(C(c4sc(N([H])C(=O)N5C([H])([H])C([H])([H])C([H])([H])C([H])(n6nc(-c7c([H])c([H])c(Oc8c([H])c([H])c(F)c([H])c8F)c([H])c7[H])c(C(=O)N([H])[H])c6N([H])[H])C5([H])[H])c([H])c4N([H])[H])=[N+]([H])[H])C([H])([H])C3([H])[H])c([H])c([H])c2C1([H])[H]

>  <smiles>  (94) 
[H]c1c([H])c([H])c2c(c1[H])C([H])([H])C([H])([H])C([H])([H])C2([H])N([H])C(=O)C1([H])N(C(=O)C([H])(N([H])C(=O)C([H])(N([H])C([H])([H])[H])C([H])([H])[H])C(C([H])([H])[H])(C([H])([H])[H])C([H])([H])[H])C([H])([H])c2c([H])c(OC3([H])C(=O)N(C(c4sc(N([H])C(=O)N5C([H])([H])C([H])([H])C([H])([H])C([H])(n6nc(-c7c([H])c([H])c(Oc8c([H])c([H])c(F)c([H])c8F)c([H])c7[H])c(C(=O)N([H])[H])c6N([H])[H])C5([H])[H])c([H])c4N([H])[H])=[N+]([H])[H])C([H])([H])C3([H])[H])c([H])c([H])c2C1([H])[H]

$$$$
