0:0:0
     RDKit          3D

 90 99  0  0  1  0  0  0  0  0999 V2000
  -29.0660  -22.3670   20.6020 C   0  0  0  0  0  0  0  0  0  0  0  0
  -29.5500  -21.2500   19.9390 N   0  0  0  0  0  0  0  0  0  0  0  0
  -28.6520  -22.2870   21.7610 O   0  0  0  0  0  0  0  0  0  0  0  0
  -29.7800  -21.4330   18.9710 H   0  0  0  0  0  0  0  0  0  0  0  0
  -29.9030  -18.7670   19.5710 C   0  0  0  0  0  3  0  0  0  0  0  0
  -30.3070  -17.5710   20.3010 C   0  0  0  0  0  3  0  0  0  0  0  0
  -30.5610  -17.8510   21.6780 C   0  0  0  0  0  3  0  0  0  0  0  0
  -29.8300  -19.9400   20.3650 C   0  0  0  0  0  0  0  0  0  0  0  0
  -30.2800  -16.4480   22.1150 C   0  0  0  0  0  2  0  0  0  0  0  0
  -29.9990  -16.0620   20.5920 C   0  0  0  0  0  3  0  0  0  0  0  0
  -30.0790  -19.4830   22.0860 S   0  0  0  0  0  0  0  0  0  0  0  0
  -30.8540  -14.8030   20.0690 C   0  0  0  0  0  0  0  0  0  0  0  0
  -30.6140  -12.5890   18.9130 C   0  0  0  0  0  2  0  0  0  0  0  0
  -29.6000  -12.7470   17.7540 C   0  0  0  0  0  2  0  0  0  0  0  0
  -28.1530  -12.5570   18.2550 C   0  0  0  0  0  2  0  0  0  0  0  0
  -27.8620  -13.3830   19.5340 C   0  0  0  0  0  3  0  0  0  0  0  0
  -28.9790  -13.1960   20.5860 C   0  0  0  0  0  2  0  0  0  0  0  0
  -30.2560  -13.5680   19.9620 N   0  0  0  0  0  0  0  0  0  0  0  0
  -31.9940  -14.9680   19.6190 O   0  0  0  0  0  0  0  0  0  0  0  0
  -25.5230  -13.9860   20.4070 C   0  0  0  0  0  0  0  0  0  0  0  0
  -24.4700  -13.2120   20.8120 C   0  0  0  0  0  0  0  0  0  0  0  0
  -24.9170  -11.8580   20.7140 C   0  0  0  0  0  0  0  0  0  0  0  0
  -26.5430  -13.1010   20.0860 N   0  0  0  0  0  0  0  0  0  0  0  0
  -26.1880  -11.8170   20.3350 N   0  0  0  0  0  0  0  0  0  0  0  0
  -24.1900  -10.5970   20.9040 C   0  0  0  0  0  0  0  0  0  0  0  0
  -24.6230   -9.6270   21.8330 C   0  0  0  0  0  3  0  0  0  0  0  0
  -23.8970   -8.4290   22.0080 C   0  0  0  0  0  3  0  0  0  0  0  0
  -22.7250   -8.1940   21.2530 C   0  0  0  0  0  0  0  0  0  0  0  0
  -22.3090   -9.1530   20.3120 C   0  0  0  0  0  3  0  0  0  0  0  0
  -23.0360  -10.3430   20.1360 C   0  0  0  0  0  3  0  0  0  0  0  0
  -21.9680   -7.0510   21.3380 O   0  0  0  0  0  0  0  0  0  0  0  0
  -21.8610   -6.3450   22.5090 C   0  0  0  0  0  0  0  0  0  0  0  0
  -21.3750   -6.9380   23.6950 C   0  0  0  0  0  3  0  0  0  0  0  0
  -21.2170   -6.1580   24.8590 C   0  0  0  0  0  3  0  0  0  0  0  0
  -21.5340   -4.7860   24.8350 C   0  0  0  0  0  0  0  0  0  0  0  0
  -22.0120   -4.1940   23.6530 C   0  0  0  0  0  3  0  0  0  0  0  0
  -22.1720   -4.9710   22.4930 C   0  0  0  0  0  0  0  0  0  0  0  0
  -22.6150   -4.3920   21.3510 F   0  0  0  0  0  0  0  0  0  0  0  0
  -21.3730   -4.0340   25.9490 F   0  0  0  0  0  0  0  0  0  0  0  0
  -23.0950  -13.6930   21.1730 C   0  0  0  0  0  0  0  0  0  0  0  0
  -22.4130  -12.9840   22.0670 N   0  0  0  0  0  0  0  0  0  0  0  0
  -22.6330  -14.7300   20.6990 O   0  0  0  0  0  0  0  0  0  0  0  0
  -22.8010  -12.1440   22.4710 H   0  0  0  0  0  0  0  0  0  0  0  0
  -21.4920  -13.2840   22.3530 H   0  0  0  0  0  0  0  0  0  0  0  0
  -25.6930  -15.3600   20.2650 N   0  0  0  0  0  0  0  0  0  0  0  0
  -24.9360  -16.0130   20.4440 H   0  0  0  0  0  0  0  0  0  0  0  0
  -26.5190  -15.8070   19.8880 H   0  0  0  0  0  0  0  0  0  0  0  0
  -29.0050  -23.8000   19.8930 C   0  0  0  0  0  3  0  0  0  0  0  0
  -28.2040  -25.0140   20.5960 C   0  0  0  0  0  3  0  0  0  0  0  0
  -28.4260  -26.4510   20.2230 O   0  0  0  0  0  0  0  0  0  0  0  0
  -24.6780  -31.9010   23.2040 C   0  0  0  0  0  0  0  0  0  0  0  0
  -27.3170  -27.3190   20.1940 C   0  0  0  0  0  0  0  0  0  0  0  0
  -23.4900  -30.4990   21.5530 C   0  0  0  0  0  3  0  0  0  0  0  0
  -24.9550  -28.9430   20.1460 C   0  0  0  0  0  0  0  0  0  0  0  0
  -26.0310  -30.8150   21.3950 C   0  0  0  0  0  2  0  0  0  0  0  0
  -26.1190  -29.4330   20.7530 C   0  0  0  0  0  0  0  0  0  0  0  0
  -27.3050  -28.6350   20.7620 C   0  0  0  0  0  3  0  0  0  0  0  0
  -26.1340  -26.8890   19.5570 C   0  0  0  0  0  3  0  0  0  0  0  0
  -24.9650  -27.6770   19.5400 C   0  0  0  0  0  3  0  0  0  0  0  0
  -23.7170  -29.8200   20.1770 C   0  0  0  0  0  2  0  0  0  0  0  0
  -24.7520  -31.0910   22.1070 N   0  0  0  0  0  0  0  0  0  0  0  0
  -23.5900  -32.1810   23.7280 O   0  0  0  0  0  0  0  0  0  0  0  0
  -22.8200  -29.4850   22.5100 C   0  0  0  0  0  0  0  0  0  0  0  0
  -21.4940  -29.3110   22.3720 N   0  0  0  0  0  0  0  0  0  0  0  0
  -23.4900  -28.8600   23.3360 O   0  0  0  0  0  0  0  0  0  0  0  0
  -21.0120  -29.8690   21.6820 H   0  0  0  0  0  0  0  0  0  0  0  0
  -18.1170  -28.0990   22.8260 C   0  0  0  0  0  0  0  0  0  0  0  0
  -20.6690  -28.3730   23.1340 C   0  0  0  0  0  3  0  0  0  0  0  0
  -20.7870  -26.9400   22.5690 C   0  0  0  0  0  2  0  0  0  0  0  0
  -19.7020  -26.6030   21.5410 C   0  0  0  0  0  2  0  0  0  0  0  0
  -18.3090  -26.7460   22.1620 C   0  0  0  0  0  2  0  0  0  0  0  0
  -19.2240  -28.8700   23.2670 C   0  0  0  0  0  0  0  0  0  0  0  0
  -18.9910  -30.1350   23.8480 C   0  0  0  0  0  3  0  0  0  0  0  0
  -17.6830  -30.6320   23.9910 C   0  0  0  0  0  3  0  0  0  0  0  0
  -16.5880  -29.8590   23.5640 C   0  0  0  0  0  3  0  0  0  0  0  0
  -16.8060  -28.5940   22.9900 C   0  0  0  0  0  3  0  0  0  0  0  0
  -25.9550  -32.5340   23.8380 C   0  0  0  0  0  3  0  0  0  0  0  0
  -26.4590  -31.7650   25.1210 C   0  0  1  0  0  0  0  0  0  0  0  0
  -25.3520  -31.5300   26.1740 C   0  0  0  0  0  1  0  0  0  0  0  0
  -27.0510  -30.3880   24.7410 C   0  0  0  0  0  1  0  0  0  0  0  0
  -27.5970  -32.5660   25.7960 C   0  0  0  0  0  1  0  0  0  0  0  0
  -25.6410  -33.9340   24.1620 N   0  0  0  0  0  0  0  0  0  0  0  0
  -25.9850  -34.9870   23.4080 C   0  0  0  0  0  0  0  0  0  0  0  0
  -26.6670  -34.8840   22.3860 O   0  0  0  0  0  0  0  0  0  0  0  0
  -25.0360  -34.0890   24.9560 H   0  0  0  0  0  0  0  0  0  0  0  0
  -24.2590  -36.7800   23.0390 C   0  0  0  0  0  1  0  0  0  0  0  0
  -25.4920  -36.3750   23.8610 C   0  0  0  0  0  3  0  0  0  0  0  0
  -27.6200  -37.2600   24.7110 C   0  0  0  0  0  1  0  0  0  0  0  0
  -26.5260  -37.4280   23.7580 N   0  0  0  0  0  0  0  0  0  0  0  0
  -26.1190  -38.3480   23.9010 H   0  0  0  0  0  0  0  0  0  0  0  0
  1  3  2  0
  2  8  1  0
  2  1  1  0
  4  2  1  0
  5  8  2  0
  6  5  1  0
  6 10  1  0
  6  7  1  0
  7 11  1  0
  7  9  1  0
  8 11  1  0
 10 12  1  0
 10  9  1  0
 13 18  1  0
 14 15  1  0
 14 13  1  0
 16 15  1  0
 16 23  1  0
 16 17  1  0
 18 12  1  0
 18 17  1  0
 19 12  2  0
 20 21  2  0
 21 40  1  0
 22 21  1  0
 22 25  1  0
 23 24  1  0
 23 20  1  0
 24 22  2  0
 25 26  1  0
 26 27  2  0
 28 31  1  0
 28 27  1  0
 29 28  2  0
 30 29  1  0
 30 25  2  0
 31 32  1  0
 32 33  1  0
 33 34  2  0
 35 34  1  0
 35 39  1  0
 36 35  2  0
 37 32  2  0
 37 36  1  0
 38 37  1  0
 40 41  1  0
 41 44  1  0
 41 43  1  0
 42 40  2  0
 45 20  1  0
 45 46  1  0
 47 45  1  0
 48 49  2  0
 48  1  1  0
 50 49  1  0
 51 62  2  0
 52 50  1  0
 52 57  1  0
 53 61  1  0
 53 63  1  0
 54 60  1  0
 54 56  1  0
 55 61  1  0
 56 57  2  0
 56 55  1  0
 58 52  2  0
 59 58  1  0
 59 54  2  0
 60 53  1  0
 61 51  1  0
 63 65  2  0
 64 63  1  0
 66 64  1  0
 67 76  2  0
 67 72  1  0
 68 64  1  0
 68 72  1  0
 69 68  1  0
 70 71  1  0
 70 69  1  0
 71 67  1  0
 72 73  2  0
 73 74  1  0
 75 74  2  0
 76 75  1  0
 77 51  1  0
 77 82  1  0
 77 78  1  0
 78 81  1  1
 78 79  1  0
 80 78  1  0
 82 85  1  0
 83 87  1  0
 83 82  1  0
 84 83  2  0
 87 86  1  0
 89 87  1  0
 89 90  1  0
 89 88  1  0
M  ISO  4  10 100  12 100  49 101  50 101
M  END
>  <TORSDO>  (1) 
F 19

>  <SCORE>  (1) 
-13.390

>  <name>  (1) 
0

>  <ligand_id>  (1) 
0

>  <original_smiles>  (1) 
[H]c1c([H])c([H])c2c(c1[H])C([H])([H])C([H])([H])C([H])([H])C2([H])N([H])C(=O)C1([H])N(C(=O)C([H])(N([H])C(=O)C([H])(N([H])C([H])([H])[H])C([H])([H])[H])C(C([H])([H])[H])(C([H])([H])[H])C([H])([H])[H])C([H])([H])c2c([H])c(OC([H])([H])C([H])([H])C(=O)N([H])c3sc4c(c3[H])C([H])(C(=O)N3C([H])([H])C([H])([H])C([H])([H])C([H])(n5nc(-c6c([H])c([H])c(Oc7c([H])c([H])c(F)c([H])c7F)c([H])c6[H])c(C(=O)N([H])[H])c5N([H])[H])C3([H])[H])C4([H])[H])c([H])c([H])c2C1([H])[H]

>  <smiles>  (1) 
[H]c1c([H])c([H])c2c(c1[H])C([H])([H])C([H])([H])C([H])([H])C2([H])N([H])C(=O)C1([H])N(C(=O)C([H])(N([H])C(=O)C([H])(N([H])C([H])([H])[H])C([H])([H])[H])C(C([H])([H])[H])(C([H])([H])[H])C([H])([H])[H])C([H])([H])c2c([H])c(OC([H])([H])C([H])([H])C(=O)N([H])c3sc4c(c3[H])C([H])(C(=O)N3C([H])([H])C([H])([H])C([H])([H])C([H])(n5nc(-c6c([H])c([H])c(Oc7c([H])c([H])c(F)c([H])c7F)c([H])c6[H])c(C(=O)N([H])[H])c5N([H])[H])C3([H])[H])C4([H])[H])c([H])c([H])c2C1([H])[H]

$$$$
1:0:0
     RDKit          3D

 92101  0  0  1  0  0  0  0  0999 V2000
  -28.2490  -21.5230   20.2500 N   0  0  0  0  0  0  0  0  0  0  0  0
  -28.0110  -21.7660   19.2880 H   0  0  0  0  0  0  0  0  0  0  0  0
  -28.7840  -19.1760   21.0230 C   0  0  0  0  0  3  0  0  0  0  0  0
  -29.8400  -18.2330   20.8250 C   0  0  0  0  0  0  0  0  0  0  0  0
  -30.8190  -18.7040   19.9250 C   0  0  0  0  0  0  0  0  0  0  0  0
  -29.0320  -20.3540   20.2980 C   0  0  0  0  0  0  0  0  0  0  0  0
  -31.6970  -17.5210   19.9920 C   0  0  0  0  0  2  0  0  0  0  0  0
  -30.6310  -16.9460   21.0680 C   0  0  0  0  0  3  0  0  0  0  0  0
  -30.5340  -20.2900   19.3220 S   0  0  0  0  0  0  0  0  0  0  0  0
  -30.7000  -14.5230   20.3100 C   0  0  0  0  0  0  0  0  0  0  0  0
  -30.3550  -12.3430   19.1960 C   0  0  0  0  0  2  0  0  0  0  0  0
  -29.4210  -12.5450   17.9840 C   0  0  0  0  0  2  0  0  0  0  0  0
  -27.9470  -12.4160   18.4170 C   0  0  0  0  0  2  0  0  0  0  0  0
  -27.6150  -13.2620   19.6760 C   0  0  0  0  0  3  0  0  0  0  0  0
  -28.6760  -13.0770   20.7840 C   0  0  0  0  0  2  0  0  0  0  0  0
  -29.9910  -13.3630   20.1940 N   0  0  0  0  0  0  0  0  0  0  0  0
  -31.8600  -14.6070   19.9030 O   0  0  0  0  0  0  0  0  0  0  0  0
  -30.0360  -15.6200   20.7520 N   0  0  0  0  0  0  0  0  0  0  0  0
  -29.0750  -15.4800   21.0240 H   0  0  0  0  0  0  0  0  0  0  0  0
  -25.2230  -13.8760   20.3940 C   0  0  0  0  0  0  0  0  0  0  0  0
  -24.1560  -13.1080   20.7760 C   0  0  0  0  0  0  0  0  0  0  0  0
  -24.6150  -11.7560   20.7580 C   0  0  0  0  0  0  0  0  0  0  0  0
  -26.2660  -12.9900   20.1660 N   0  0  0  0  0  0  0  0  0  0  0  0
  -25.9040  -11.7110   20.4450 N   0  0  0  0  0  0  0  0  0  0  0  0
  -23.8860  -10.4980   20.9650 C   0  0  0  0  0  0  0  0  0  0  0  0
  -24.3190   -9.5360   21.9050 C   0  0  0  0  0  3  0  0  0  0  0  0
  -23.5900   -8.3450   22.1020 C   0  0  0  0  0  3  0  0  0  0  0  0
  -22.4110   -8.1040   21.3560 C   0  0  0  0  0  0  0  0  0  0  0  0
  -21.9950   -9.0520   20.4060 C   0  0  0  0  0  3  0  0  0  0  0  0
  -22.7250  -10.2360   20.2090 C   0  0  0  0  0  3  0  0  0  0  0  0
  -21.6550   -6.9620   21.4600 O   0  0  0  0  0  0  0  0  0  0  0  0
  -21.6140   -6.2260   22.6180 C   0  0  0  0  0  0  0  0  0  0  0  0
  -21.1970   -6.7890   23.8420 C   0  0  0  0  0  3  0  0  0  0  0  0
  -21.1040   -5.9790   24.9930 C   0  0  0  0  0  3  0  0  0  0  0  0
  -21.4180   -4.6100   24.9200 C   0  0  0  0  0  0  0  0  0  0  0  0
  -21.8250   -4.0450   23.6970 C   0  0  0  0  0  3  0  0  0  0  0  0
  -21.9200   -4.8520   22.5500 C   0  0  0  0  0  0  0  0  0  0  0  0
  -22.2950   -4.2980   21.3700 F   0  0  0  0  0  0  0  0  0  0  0  0
  -21.3200   -3.8300   26.0220 F   0  0  0  0  0  0  0  0  0  0  0  0
  -22.7590  -13.5920   21.0460 C   0  0  0  0  0  0  0  0  0  0  0  0
  -22.0310  -12.9120   21.9240 N   0  0  0  0  0  0  0  0  0  0  0  0
  -22.3220  -14.6080   20.5080 O   0  0  0  0  0  0  0  0  0  0  0  0
  -22.3990  -12.0910   22.3830 H   0  0  0  0  0  0  0  0  0  0  0  0
  -21.0940  -13.2160   22.1390 H   0  0  0  0  0  0  0  0  0  0  0  0
  -25.3890  -15.2440   20.2030 N   0  0  0  0  0  0  0  0  0  0  0  0
  -24.6190  -15.8960   20.3090 H   0  0  0  0  0  0  0  0  0  0  0  0
  -26.2370  -15.6840   19.8690 H   0  0  0  0  0  0  0  0  0  0  0  0
  -28.7370  -22.7620   20.8980 C   0  0  0  0  0  2  0  0  0  0  0  0
  -28.2740  -24.0790   20.2050 C   0  0  0  0  0  0  0  0  0  0  0  0
  -27.8820  -24.0480   19.0320 O   0  0  0  0  0  0  0  0  0  0  0  0
  -28.2970  -25.4080   21.0190 C   0  0  0  0  0  2  0  0  0  0  0  0
  -28.3920  -26.6180   20.2160 O   0  0  0  0  0  0  0  0  0  0  0  0
  -24.6170  -31.8800   23.2520 C   0  0  0  0  0  0  0  0  0  0  0  0
  -27.2560  -27.4030   20.2020 C   0  0  0  0  0  0  0  0  0  0  0  0
  -23.4180  -30.4770   21.6070 C   0  0  0  0  0  3  0  0  0  0  0  0
  -24.8760  -28.9400   20.1830 C   0  0  0  0  0  0  0  0  0  0  0  0
  -25.9480  -30.8320   21.4180 C   0  0  0  0  0  2  0  0  0  0  0  0
  -26.0340  -29.4590   20.7760 C   0  0  0  0  0  0  0  0  0  0  0  0
  -27.2330  -28.7010   20.7740 C   0  0  0  0  0  3  0  0  0  0  0  0
  -26.0820  -26.9070   19.6000 C   0  0  0  0  0  3  0  0  0  0  0  0
  -24.8970  -27.6670   19.5860 C   0  0  0  0  0  3  0  0  0  0  0  0
  -23.6340  -29.8020   20.2260 C   0  0  0  0  0  2  0  0  0  0  0  0
  -24.6800  -31.0790   22.1510 N   0  0  0  0  0  0  0  0  0  0  0  0
  -23.5320  -32.1470   23.7900 O   0  0  0  0  0  0  0  0  0  0  0  0
  -22.7660  -29.4540   22.5640 C   0  0  0  0  0  0  0  0  0  0  0  0
  -21.4410  -29.2720   22.4370 N   0  0  0  0  0  0  0  0  0  0  0  0
  -23.4490  -28.8260   23.3780 O   0  0  0  0  0  0  0  0  0  0  0  0
  -20.9500  -29.8270   21.7510 H   0  0  0  0  0  0  0  0  0  0  0  0
  -18.0640  -28.0850   22.9440 C   0  0  0  0  0  0  0  0  0  0  0  0
  -20.6230  -28.3330   23.2090 C   0  0  0  0  0  3  0  0  0  0  0  0
  -20.7190  -26.9050   22.6240 C   0  0  0  0  0  2  0  0  0  0  0  0
  -19.6130  -26.5910   21.6120 C   0  0  0  0  0  2  0  0  0  0  0  0
  -18.2330  -26.7380   22.2610 C   0  0  0  0  0  2  0  0  0  0  0  0
  -19.1860  -28.8410   23.3730 C   0  0  0  0  0  0  0  0  0  0  0  0
  -18.9730  -30.1030   23.9690 C   0  0  0  0  0  3  0  0  0  0  0  0
  -17.6690  -30.6060   24.1440 C   0  0  0  0  0  3  0  0  0  0  0  0
  -16.5620  -29.8470   23.7300 C   0  0  0  0  0  3  0  0  0  0  0  0
  -16.7600  -28.5890   23.1350 C   0  0  0  0  0  3  0  0  0  0  0  0
  -25.8980  -32.5150   23.8760 C   0  0  0  0  0  3  0  0  0  0  0  0
  -26.4130  -31.7470   25.1550 C   0  0  1  0  0  0  0  0  0  0  0  0
  -25.3190  -31.5120   26.2210 C   0  0  0  0  0  1  0  0  0  0  0  0
  -26.9980  -30.3700   24.7660 C   0  0  0  0  0  1  0  0  0  0  0  0
  -27.5610  -32.5440   25.8180 C   0  0  0  0  0  1  0  0  0  0  0  0
  -25.5850  -33.9130   24.2010 N   0  0  0  0  0  0  0  0  0  0  0  0
  -25.9120  -34.9630   23.4360 C   0  0  0  0  0  0  0  0  0  0  0  0
  -26.5800  -34.8590   22.4040 O   0  0  0  0  0  0  0  0  0  0  0  0
  -24.9920  -34.0690   25.0030 H   0  0  0  0  0  0  0  0  0  0  0  0
  -24.1770  -36.7490   23.0780 C   0  0  0  0  0  1  0  0  0  0  0  0
  -25.4200  -36.3520   23.8890 C   0  0  0  0  0  3  0  0  0  0  0  0
  -27.5530  -37.2460   24.7130 C   0  0  0  0  0  1  0  0  0  0  0  0
  -26.4480  -37.4090   23.7720 N   0  0  0  0  0  0  0  0  0  0  0  0
  -26.0360  -38.3270   23.9220 H   0  0  0  0  0  0  0  0  0  0  0  0
  1  6  1  0
  1 48  1  0
  2  1  1  0
  4  3  1  0
  4  8  1  0
  5  7  1  0
  5  4  2  0
  6  3  2  0
  7  8  1  0
  8 18  1  0
  9  5  1  0
  9  6  1  0
 10 18  1  0
 11 16  1  0
 12 13  1  0
 12 11  1  0
 14 13  1  0
 14 23  1  0
 14 15  1  0
 16 10  1  0
 16 15  1  0
 17 10  2  0
 18 19  1  0
 20 21  2  0
 21 40  1  0
 22 21  1  0
 22 25  1  0
 23 20  1  0
 23 24  1  0
 24 22  2  0
 25 26  1  0
 26 27  2  0
 28 31  1  0
 28 27  1  0
 29 28  2  0
 30 29  1  0
 30 25  2  0
 31 32  1  0
 32 33  1  0
 33 34  2  0
 35 34  1  0
 35 39  1  0
 36 35  2  0
 37 32  2  0
 37 36  1  0
 38 37  1  0
 40 41  1  0
 41 44  1  0
 41 43  1  0
 42 40  2  0
 45 46  1  0
 45 20  1  0
 47 45  1  0
 49 48  1  0
 49 51  1  0
 50 49  2  0
 52 51  1  0
 53 64  2  0
 54 52  1  0
 54 59  1  0
 55 63  1  0
 55 65  1  0
 56 62  1  0
 56 58  1  0
 57 63  1  0
 58 57  1  0
 59 58  2  0
 60 54  2  0
 61 60  1  0
 61 56  2  0
 62 55  1  0
 63 53  1  0
 65 67  2  0
 66 65  1  0
 68 66  1  0
 69 78  2  0
 69 74  1  0
 70 66  1  0
 70 74  1  0
 71 70  1  0
 72 73  1  0
 72 71  1  0
 73 69  1  0
 74 75  2  0
 75 76  1  0
 77 76  2  0
 78 77  1  0
 79 53  1  0
 79 84  1  0
 79 80  1  0
 80 83  1  1
 80 81  1  0
 82 80  1  0
 84 87  1  0
 85 89  1  0
 85 84  1  0
 86 85  2  0
 89 88  1  0
 91 89  1  0
 91 92  1  0
 91 90  1  0
M  ISO  4  10 100  18 100  51 101  52 101
M  END
>  <TORSDO>  (2) 
F 20

>  <SCORE>  (2) 
-13.621

>  <name>  (2) 
1

>  <ligand_id>  (2) 
1

>  <original_smiles>  (2) 
[H]c1c([H])c([H])c2c(c1[H])C([H])([H])C([H])([H])C([H])([H])C2([H])N([H])C(=O)C1([H])N(C(=O)C([H])(N([H])C(=O)C([H])(N([H])C([H])([H])[H])C([H])([H])[H])C(C([H])([H])[H])(C([H])([H])[H])C([H])([H])[H])C([H])([H])c2c([H])c(OC([H])([H])C(=O)C([H])([H])N([H])c3sc4c(c3[H])C([H])(N([H])C(=O)N3C([H])([H])C([H])([H])C([H])([H])C([H])(n5nc(-c6c([H])c([H])c(Oc7c([H])c([H])c(F)c([H])c7F)c([H])c6[H])c(C(=O)N([H])[H])c5N([H])[H])C3([H])[H])C4([H])[H])c([H])c([H])c2C1([H])[H]

>  <smiles>  (2) 
[H]c1c([H])c([H])c2c(c1[H])C([H])([H])C([H])([H])C([H])([H])C2([H])N([H])C(=O)C1([H])N(C(=O)C([H])(N([H])C(=O)C([H])(N([H])C([H])([H])[H])C([H])([H])[H])C(C([H])([H])[H])(C([H])([H])[H])C([H])([H])[H])C([H])([H])c2c([H])c(OC([H])([H])C(=O)C([H])([H])N([H])c3sc4c(c3[H])C([H])(N([H])C(=O)N3C([H])([H])C([H])([H])C([H])([H])C([H])(n5nc(-c6c([H])c([H])c(Oc7c([H])c([H])c(F)c([H])c7F)c([H])c6[H])c(C(=O)N([H])[H])c5N([H])[H])C3([H])[H])C4([H])[H])c([H])c([H])c2C1([H])[H]

$$$$
2:0:0
     RDKit          3D

 94103  0  0  1  0  0  0  0  0999 V2000
  -29.1530  -24.7150   19.3770 C   0  0  0  0  0  2  0  0  0  0  0  0
  -29.3310  -23.2180   18.9740 C   0  0  0  0  0  2  0  0  0  0  0  0
  -28.2170  -24.9150   20.6440 C   0  0  2  0  0  0  0  0  0  0  0  0
  -28.9510  -23.5120   21.2400 C   0  0  2  0  0  0  0  0  0  0  0  0
  -28.3560  -25.7040   22.0350 C   0  0  0  0  0  1  0  0  0  0  0  0
  -27.9820  -22.8290   22.2630 C   0  0  0  0  0  1  0  0  0  0  0  0
  -30.3640  -23.7550   21.9160 C   0  0  0  0  0  1  0  0  0  0  0  0
  -29.1210  -22.4160   20.1830 N   0  0  2  0  0  4  0  0  0  0  0  0
  -28.2240  -21.9680   20.0680 H   0  0  0  0  0  0  0  0  0  0  0  0
  -28.3720  -26.3770   20.1970 O   0  0  0  0  0  0  0  0  0  0  0  0
  -24.4900  -31.7220   23.0940 C   0  0  0  0  0  0  0  0  0  0  0  0
  -27.2440  -27.2290   20.0470 C   0  0  0  0  0  0  0  0  0  0  0  0
  -23.3320  -30.2900   21.4470 C   0  0  0  0  0  3  0  0  0  0  0  0
  -24.8340  -28.7790   20.0180 C   0  0  0  0  0  0  0  0  0  0  0  0
  -25.8600  -30.6840   21.2650 C   0  0  0  0  0  2  0  0  0  0  0  0
  -25.9860  -29.3100   20.6100 C   0  0  0  0  0  0  0  0  0  0  0  0
  -27.1960  -28.5530   20.5980 C   0  0  0  0  0  3  0  0  0  0  0  0
  -26.0690  -26.7490   19.4340 C   0  0  0  0  0  3  0  0  0  0  0  0
  -24.8800  -27.5100   19.4150 C   0  0  0  0  0  3  0  0  0  0  0  0
  -23.5700  -29.6170   20.0670 C   0  0  0  0  0  2  0  0  0  0  0  0
  -24.5790  -30.9160   21.9940 N   0  0  0  0  0  0  0  0  0  0  0  0
  -23.3970  -31.9680   23.6250 O   0  0  0  0  0  0  0  0  0  0  0  0
  -22.6910  -29.2600   22.4070 C   0  0  0  0  0  0  0  0  0  0  0  0
  -21.3700  -29.0510   22.2760 N   0  0  0  0  0  0  0  0  0  0  0  0
  -23.3810  -28.6490   23.2260 O   0  0  0  0  0  0  0  0  0  0  0  0
  -20.8700  -29.5990   21.5900 H   0  0  0  0  0  0  0  0  0  0  0  0
  -18.0220  -27.7640   22.7560 C   0  0  0  0  0  0  0  0  0  0  0  0
  -20.5710  -28.0910   23.0410 C   0  0  0  0  0  3  0  0  0  0  0  0
  -20.7150  -26.6640   22.4640 C   0  0  0  0  0  2  0  0  0  0  0  0
  -19.6280  -26.3140   21.4440 C   0  0  0  0  0  2  0  0  0  0  0  0
  -18.2390  -26.4210   22.0800 C   0  0  0  0  0  2  0  0  0  0  0  0
  -19.1180  -28.5550   23.1930 C   0  0  0  0  0  0  0  0  0  0  0  0
  -18.8630  -29.8100   23.7860 C   0  0  0  0  0  3  0  0  0  0  0  0
  -17.5440  -30.2770   23.9470 C   0  0  0  0  0  3  0  0  0  0  0  0
  -16.4630  -29.4830   23.5270 C   0  0  0  0  0  3  0  0  0  0  0  0
  -16.7030  -28.2290   22.9380 C   0  0  0  0  0  3  0  0  0  0  0  0
  -25.7510  -32.3880   23.7250 C   0  0  0  0  0  3  0  0  0  0  0  0
  -25.3970  -33.7740   24.0710 N   0  0  0  0  0  0  0  0  0  0  0  0
  -25.7060  -34.8470   23.3310 C   0  0  0  0  0  0  0  0  0  0  0  0
  -26.3870  -34.7760   22.3040 O   0  0  0  0  0  0  0  0  0  0  0  0
  -24.7930  -33.8990   24.8700 H   0  0  0  0  0  0  0  0  0  0  0  0
  -23.9380  -36.6010   22.9800 C   0  0  0  0  0  1  0  0  0  0  0  0
  -25.1760  -36.2140   23.8040 C   0  0  0  0  0  3  0  0  0  0  0  0
  -27.2690  -37.1450   24.6900 C   0  0  0  0  0  1  0  0  0  0  0  0
  -26.1830  -37.2960   23.7260 N   0  0  0  0  0  0  0  0  0  0  0  0
  -25.7490  -38.2020   23.8770 H   0  0  0  0  0  0  0  0  0  0  0  0
  -26.2910  -31.6230   24.9950 C   0  0  1  0  0  0  0  0  0  0  0  0
  -25.2040  -31.3360   26.0590 C   0  0  0  0  0  1  0  0  0  0  0  0
  -26.9210  -30.2700   24.5870 C   0  0  0  0  0  1  0  0  0  0  0  0
  -27.4120  -32.4490   25.6690 C   0  0  0  0  0  1  0  0  0  0  0  0
  -30.1460  -21.2910   20.4950 C   0  0  0  0  0  2  0  0  0  0  0  0
  -30.5830  -17.8230   18.9560 C   0  0  0  0  0  3  0  0  0  0  0  0
  -30.0270  -17.1770   20.0480 C   0  0  0  0  0  0  0  0  0  0  0  0
  -29.8950  -19.8110   20.0100 C   0  0  0  0  0  0  0  0  0  0  0  0
  -30.4960  -19.2470   18.9430 N   0  0  0  0  0  0  0  0  0  0  0  0
  -29.3130  -18.4680   21.0680 S   0  0  0  0  0  0  0  0  0  0  0  0
  -30.6670  -14.7120   19.9240 C   0  0  0  0  0  0  0  0  0  0  0  0
  -30.3980  -12.4350   18.9370 C   0  0  0  0  0  2  0  0  0  0  0  0
  -29.3850  -12.5340   17.7730 C   0  0  0  0  0  2  0  0  0  0  0  0
  -27.9420  -12.3820   18.2920 C   0  0  0  0  0  2  0  0  0  0  0  0
  -27.6590  -13.2680   19.5340 C   0  0  0  0  0  3  0  0  0  0  0  0
  -28.7820  -13.1440   20.5890 C   0  0  0  0  0  2  0  0  0  0  0  0
  -30.0510  -13.4810   19.9260 N   0  0  0  0  0  0  0  0  0  0  0  0
  -31.8000  -14.8380   19.4490 O   0  0  0  0  0  0  0  0  0  0  0  0
  -29.9250  -15.8060   20.3380 N   0  0  0  0  0  0  0  0  0  0  0  0
  -29.1080  -15.5480   20.8700 H   0  0  0  0  0  0  0  0  0  0  0  0
  -25.3430  -13.8990   20.4410 C   0  0  0  0  0  0  0  0  0  0  0  0
  -24.2820  -13.1400   20.8550 C   0  0  0  0  0  0  0  0  0  0  0  0
  -24.7010  -11.7790   20.7460 C   0  0  0  0  0  0  0  0  0  0  0  0
  -26.3420  -13.0010   20.1020 N   0  0  0  0  0  0  0  0  0  0  0  0
  -25.9670  -11.7180   20.3480 N   0  0  0  0  0  0  0  0  0  0  0  0
  -23.9540  -10.5310   20.9410 C   0  0  0  0  0  0  0  0  0  0  0  0
  -24.3730   -9.5570   21.8760 C   0  0  0  0  0  3  0  0  0  0  0  0
  -23.6250   -8.3740   22.0590 C   0  0  0  0  0  3  0  0  0  0  0  0
  -22.4460   -8.1550   21.3090 C   0  0  0  0  0  0  0  0  0  0  0  0
  -22.0450   -9.1170   20.3640 C   0  0  0  0  0  3  0  0  0  0  0  0
  -22.7930  -10.2920   20.1790 C   0  0  0  0  0  3  0  0  0  0  0  0
  -21.6710   -7.0240   21.4020 O   0  0  0  0  0  0  0  0  0  0  0  0
  -21.5590   -6.3230   22.5760 C   0  0  0  0  0  0  0  0  0  0  0  0
  -21.0500   -6.9160   23.7520 C   0  0  0  0  0  3  0  0  0  0  0  0
  -20.8880   -6.1400   24.9170 C   0  0  0  0  0  3  0  0  0  0  0  0
  -21.2230   -4.7730   24.9070 C   0  0  0  0  0  0  0  0  0  0  0  0
  -21.7240   -4.1800   23.7350 C   0  0  0  0  0  3  0  0  0  0  0  0
  -21.8880   -4.9520   22.5720 C   0  0  0  0  0  0  0  0  0  0  0  0
  -22.3510   -4.3710   21.4390 F   0  0  0  0  0  0  0  0  0  0  0  0
  -21.0590   -4.0250   26.0240 F   0  0  0  0  0  0  0  0  0  0  0  0
  -22.9200  -13.6440   21.2380 C   0  0  0  0  0  0  0  0  0  0  0  0
  -22.2280  -12.9290   22.1190 N   0  0  0  0  0  0  0  0  0  0  0  0
  -22.4830  -14.7040   20.7950 O   0  0  0  0  0  0  0  0  0  0  0  0
  -22.5960  -12.0690   22.4960 H   0  0  0  0  0  0  0  0  0  0  0  0
  -21.3170  -13.2470   22.4180 H   0  0  0  0  0  0  0  0  0  0  0  0
  -25.5360  -15.2700   20.3020 N   0  0  0  0  0  0  0  0  0  0  0  0
  -24.7970  -15.9400   20.4910 H   0  0  0  0  0  0  0  0  0  0  0  0
  -26.3710  -15.7000   19.9280 H   0  0  0  0  0  0  0  0  0  0  0  0
  1  3  1  0
  2  1  1  0
  2  8  1  0
  3  4  1  0
  3  5  1  1
  4  7  1  1
  4  6  1  0
  8 51  1  0
  8  4  1  0
  8  9  1  6
 10  3  1  0
 11 22  2  0
 12 10  1  0
 12 17  1  0
 13 21  1  0
 13 23  1  0
 14 20  1  0
 14 16  1  0
 15 21  1  0
 16 15  1  0
 17 16  2  0
 18 12  2  0
 19 18  1  0
 19 14  2  0
 20 13  1  0
 21 11  1  0
 23 25  2  0
 24 23  1  0
 26 24  1  0
 27 36  2  0
 27 32  1  0
 28 24  1  0
 28 32  1  0
 29 28  1  0
 30 31  1  0
 30 29  1  0
 31 27  1  0
 32 33  2  0
 33 34  1  0
 35 34  2  0
 36 35  1  0
 37 11  1  0
 37 38  1  0
 37 47  1  0
 38 41  1  0
 39 43  1  0
 39 38  1  0
 40 39  2  0
 43 42  1  0
 45 43  1  0
 45 46  1  0
 45 44  1  0
 47 50  1  1
 47 48  1  0
 49 47  1  0
 52 53  2  0
 53 65  1  0
 53 56  1  0
 54 51  1  0
 54 56  1  0
 55 52  1  0
 55 54  2  0
 57 63  1  0
 57 65  1  0
 58 63  1  0
 59 60  1  0
 59 58  1  0
 61 60  1  0
 61 70  1  0
 61 62  1  0
 63 62  1  0
 64 57  2  0
 65 66  1  0
 67 68  2  0
 68 87  1  0
 69 68  1  0
 69 72  1  0
 70 71  1  0
 70 67  1  0
 71 69  2  0
 72 73  1  0
 73 74  2  0
 75 78  1  0
 75 74  1  0
 76 75  2  0
 77 76  1  0
 77 72  2  0
 78 79  1  0
 79 80  1  0
 80 81  2  0
 82 81  1  0
 82 86  1  0
 83 82  2  0
 84 79  2  0
 84 83  1  0
 85 84  1  0
 87 88  1  0
 88 91  1  0
 88 90  1  0
 89 87  2  0
 92 67  1  0
 92 93  1  0
 94 92  1  0
M  ISO  4   3 101  10 101  57 100  65 100
M  END
>  <TORSDO>  (3) 
F 18

>  <SCORE>  (3) 
-13.837

>  <name>  (3) 
2

>  <ligand_id>  (3) 
2

>  <original_smiles>  (3) 
[H]c1nc(C([H])([H])[N+]2([H])C([H])([H])C([H])([H])C(Oc3c([H])c([H])c4c(c3[H])C([H])([H])N(C(=O)C([H])(N([H])C(=O)C([H])(N([H])C([H])([H])[H])C([H])([H])[H])C(C([H])([H])[H])(C([H])([H])[H])C([H])([H])[H])C([H])(C(=O)N([H])C3([H])c5c([H])c([H])c([H])c([H])c5C([H])([H])C([H])([H])C3([H])[H])C4([H])[H])(C([H])([H])[H])C2(C([H])([H])[H])C([H])([H])[H])sc1N([H])C(=O)N1C([H])([H])C([H])([H])C([H])([H])C([H])(n2nc(-c3c([H])c([H])c(Oc4c([H])c([H])c(F)c([H])c4F)c([H])c3[H])c(C(=O)N([H])[H])c2N([H])[H])C1([H])[H]

>  <smiles>  (3) 
[H]c1nc(C([H])([H])[N+]2([H])C([H])([H])C([H])([H])C(Oc3c([H])c([H])c4c(c3[H])C([H])([H])N(C(=O)C([H])(N([H])C(=O)C([H])(N([H])C([H])([H])[H])C([H])([H])[H])C(C([H])([H])[H])(C([H])([H])[H])C([H])([H])[H])C([H])(C(=O)N([H])C3([H])c5c([H])c([H])c([H])c([H])c5C([H])([H])C([H])([H])C3([H])[H])C4([H])[H])(C([H])([H])[H])C2(C([H])([H])[H])C([H])([H])[H])sc1N([H])C(=O)N1C([H])([H])C([H])([H])C([H])([H])C([H])(n2nc(-c3c([H])c([H])c(Oc4c([H])c([H])c(F)c([H])c4F)c([H])c3[H])c(C(=O)N([H])[H])c2N([H])[H])C1([H])[H]

$$$$
3:0:0
     RDKit          3D

 94102  0  0  1  0  0  0  0  0999 V2000
  -27.9730  -20.2610   20.4040 C   0  0  0  0  0  3  0  0  0  0  0  0
  -28.4380  -18.8950   20.2520 C   0  0  0  0  0  0  0  0  0  0  0  0
  -29.7790  -18.7570   19.9770 C   0  0  0  0  0  0  0  0  0  0  0  0
  -28.9110  -21.2700   20.2780 C   0  0  0  0  0  0  0  0  0  0  0  0
  -30.4430  -20.4350   19.8810 S   0  0  0  0  0  0  0  0  0  0  0  0
  -29.1130  -23.8650   20.1810 C   0  0  0  0  0  0  0  0  0  0  0  0
  -28.6370  -22.6220   20.5550 N   0  0  0  0  0  0  0  0  0  0  0  0
  -29.9610  -23.9920   19.2950 O   0  0  0  0  0  0  0  0  0  0  0  0
  -27.8660  -22.7370   21.1990 H   0  0  0  0  0  0  0  0  0  0  0  0
  -27.1810  -24.8970   21.6190 C   0  0  0  0  0  1  0  0  0  0  0  0
  -28.5500  -25.1710   20.9460 C   0  0  0  0  0  3  0  0  0  0  0  0
  -28.6920  -26.5320   20.3020 O   0  0  0  0  0  0  0  0  0  0  0  0
  -24.7370  -31.8550   23.2720 C   0  0  0  0  0  0  0  0  0  0  0  0
  -27.5860  -27.4050   20.2480 C   0  0  0  0  0  0  0  0  0  0  0  0
  -23.6430  -30.4590   21.5570 C   0  0  0  0  0  3  0  0  0  0  0  0
  -25.1950  -28.9780   20.1570 C   0  0  0  0  0  0  0  0  0  0  0  0
  -26.1800  -30.8440   21.4880 C   0  0  0  0  0  2  0  0  0  0  0  0
  -26.3240  -29.4780   20.8180 C   0  0  0  0  0  0  0  0  0  0  0  0
  -27.5270  -28.7030   20.8550 C   0  0  0  0  0  3  0  0  0  0  0  0
  -26.4460  -26.9780   19.5390 C   0  0  0  0  0  3  0  0  0  0  0  0
  -25.2580  -27.7350   19.5070 C   0  0  0  0  0  3  0  0  0  0  0  0
  -23.9330  -29.8190   20.1730 C   0  0  0  0  0  2  0  0  0  0  0  0
  -24.8700  -31.0700   22.1620 N   0  0  0  0  0  0  0  0  0  0  0  0
  -23.6240  -32.0930   23.7650 O   0  0  0  0  0  0  0  0  0  0  0  0
  -22.9670  -29.4060   22.4680 C   0  0  0  0  0  0  0  0  0  0  0  0
  -21.6440  -29.2290   22.3130 N   0  0  0  0  0  0  0  0  0  0  0  0
  -23.6350  -28.7520   23.2740 O   0  0  0  0  0  0  0  0  0  0  0  0
  -21.1620  -29.8090   21.6400 H   0  0  0  0  0  0  0  0  0  0  0  0
  -18.2500  -28.0740   22.7980 C   0  0  0  0  0  0  0  0  0  0  0  0
  -20.8180  -28.2610   23.0360 C   0  0  0  0  0  3  0  0  0  0  0  0
  -20.8790  -26.8690   22.3630 C   0  0  0  0  0  2  0  0  0  0  0  0
  -19.7520  -26.6380   21.3520 C   0  0  0  0  0  2  0  0  0  0  0  0
  -18.3860  -26.7690   22.0310 C   0  0  0  0  0  2  0  0  0  0  0  0
  -19.3930  -28.7820   23.2560 C   0  0  0  0  0  0  0  0  0  0  0  0
  -19.2120  -30.0070   23.9350 C   0  0  0  0  0  3  0  0  0  0  0  0
  -17.9230  -30.5230   24.1580 C   0  0  0  0  0  3  0  0  0  0  0  0
  -16.7950  -29.8110   23.7140 C   0  0  0  0  0  3  0  0  0  0  0  0
  -16.9600  -28.5880   23.0410 C   0  0  0  0  0  3  0  0  0  0  0  0
  -25.9740  -32.5100   23.9610 C   0  0  0  0  0  3  0  0  0  0  0  0
  -26.4190  -31.7630   25.2790 C   0  0  1  0  0  0  0  0  0  0  0  0
  -25.2630  -31.5150   26.2740 C   0  0  0  0  0  1  0  0  0  0  0  0
  -27.0550  -30.3930   24.9450 C   0  0  0  0  0  1  0  0  0  0  0  0
  -27.5060  -32.5890   26.0070 C   0  0  0  0  0  1  0  0  0  0  0  0
  -25.6310  -33.9100   24.2520 N   0  0  0  0  0  0  0  0  0  0  0  0
  -25.9800  -34.9540   23.4880 C   0  0  0  0  0  0  0  0  0  0  0  0
  -26.6920  -34.8430   22.4860 O   0  0  0  0  0  0  0  0  0  0  0  0
  -25.0060  -34.0720   25.0280 H   0  0  0  0  0  0  0  0  0  0  0  0
  -24.2430  -36.7160   23.0380 C   0  0  0  0  0  1  0  0  0  0  0  0
  -25.4580  -36.3440   23.9020 C   0  0  0  0  0  3  0  0  0  0  0  0
  -27.5400  -37.2830   24.8050 C   0  0  0  0  0  1  0  0  0  0  0  0
  -26.4800  -37.4100   23.8080 N   0  0  0  0  0  0  0  0  0  0  0  0
  -26.0540  -38.3260   23.9110 H   0  0  0  0  0  0  0  0  0  0  0  0
  -27.5420  -17.8310   20.4180 N   0  0  0  0  0  0  0  0  0  0  0  0
  -27.8830  -17.0620   20.9810 H   0  0  0  0  0  0  0  0  0  0  0  0
  -26.6070  -18.0890   20.7150 H   0  0  0  0  0  0  0  0  0  0  0  0
  -30.6810  -17.4700   19.7930 C   0  0  0  0  0  2  0  0  0  0  0  0
  -30.9400  -14.8820   19.8550 C   0  0  0  0  0  0  0  0  0  0  0  0
  -30.6700  -12.5820   18.9260 C   0  0  0  0  0  2  0  0  0  0  0  0
  -29.6650  -12.6270   17.7560 C   0  0  0  0  0  2  0  0  0  0  0  0
  -28.2250  -12.4610   18.2780 C   0  0  0  0  0  2  0  0  0  0  0  0
  -27.9210  -13.3840   19.4890 C   0  0  0  0  0  3  0  0  0  0  0  0
  -29.0430  -13.3370   20.5470 C   0  0  0  0  0  2  0  0  0  0  0  0
  -30.2990  -13.6650   19.8650 N   0  0  0  0  0  0  0  0  0  0  0  0
  -32.1110  -14.9540   19.4730 O   0  0  0  0  0  0  0  0  0  0  0  0
  -30.2030  -16.0390   20.0460 N   0  0  0  0  0  0  0  0  0  0  0  0
  -29.2250  -15.9260   20.2610 H   0  0  0  0  0  0  0  0  0  0  0  0
  -25.6020  -13.9880   20.4020 C   0  0  0  0  0  0  0  0  0  0  0  0
  -24.5500  -13.2190   20.8170 C   0  0  0  0  0  0  0  0  0  0  0  0
  -24.9840  -11.8630   20.7080 C   0  0  0  0  0  0  0  0  0  0  0  0
  -26.6100  -13.1010   20.0660 N   0  0  0  0  0  0  0  0  0  0  0  0
  -26.2500  -11.8150   20.3130 N   0  0  0  0  0  0  0  0  0  0  0  0
  -24.2470  -10.6070   20.9010 C   0  0  0  0  0  0  0  0  0  0  0  0
  -24.6520   -9.6520   21.8590 C   0  0  0  0  0  3  0  0  0  0  0  0
  -23.9150   -8.4610   22.0400 C   0  0  0  0  0  3  0  0  0  0  0  0
  -22.7570   -8.2190   21.2620 C   0  0  0  0  0  0  0  0  0  0  0  0
  -22.3710   -9.1620   20.2930 C   0  0  0  0  0  3  0  0  0  0  0  0
  -23.1100  -10.3430   20.1110 C   0  0  0  0  0  3  0  0  0  0  0  0
  -21.9930   -7.0800   21.3500 O   0  0  0  0  0  0  0  0  0  0  0  0
  -21.8320   -6.4120   22.5380 C   0  0  0  0  0  0  0  0  0  0  0  0
  -21.2220   -7.0180   23.6570 C   0  0  0  0  0  3  0  0  0  0  0  0
  -21.0150   -6.2730   24.8360 C   0  0  0  0  0  3  0  0  0  0  0  0
  -21.4070   -4.9220   24.8930 C   0  0  0  0  0  0  0  0  0  0  0  0
  -22.0100   -4.3150   23.7770 C   0  0  0  0  0  3  0  0  0  0  0  0
  -22.2200   -5.0580   22.6020 C   0  0  0  0  0  0  0  0  0  0  0  0
  -22.7810   -4.4620   21.5230 F   0  0  0  0  0  0  0  0  0  0  0  0
  -21.2010   -4.2030   26.0220 F   0  0  0  0  0  0  0  0  0  0  0  0
  -23.1860  -13.7090   21.2030 C   0  0  0  0  0  0  0  0  0  0  0  0
  -22.5040  -12.9900   22.0880 N   0  0  0  0  0  0  0  0  0  0  0  0
  -22.7350  -14.7640   20.7580 O   0  0  0  0  0  0  0  0  0  0  0  0
  -22.8820  -12.1340   22.4670 H   0  0  0  0  0  0  0  0  0  0  0  0
  -21.5920  -13.2990   22.3910 H   0  0  0  0  0  0  0  0  0  0  0  0
  -25.7720  -15.3620   20.2670 N   0  0  0  0  0  0  0  0  0  0  0  0
  -25.0260  -16.0150   20.4830 H   0  0  0  0  0  0  0  0  0  0  0  0
  -26.6340  -15.8360   20.0180 H   0  0  0  0  0  0  0  0  0  0  0  0
  2  1  1  0
  2 53  1  0
  3  2  2  0
  4  1  2  0
  4  7  1  0
  5  3  1  0
  5  4  1  0
  6  7  1  0
  6 11  1  0
  7  9  1  0
  8  6  2  0
 11 10  1  0
 12 11  1  0
 13 24  2  0
 14 12  1  0
 14 19  1  0
 15 23  1  0
 15 25  1  0
 16 22  1  0
 16 18  1  0
 17 23  1  0
 18 19  2  0
 18 17  1  0
 20 14  2  0
 21 20  1  0
 21 16  2  0
 22 15  1  0
 23 13  1  0
 25 27  2  0
 26 25  1  0
 28 26  1  0
 29 38  2  0
 29 34  1  0
 30 26  1  0
 30 34  1  0
 31 30  1  0
 32 33  1  0
 32 31  1  0
 33 29  1  0
 34 35  2  0
 35 36  1  0
 37 36  2  0
 38 37  1  0
 39 13  1  0
 39 44  1  0
 39 40  1  0
 40 43  1  1
 40 41  1  0
 42 40  1  0
 44 47  1  0
 45 49  1  0
 45 44  1  0
 46 45  2  0
 49 48  1  0
 51 49  1  0
 51 52  1  0
 51 50  1  0
 53 55  1  0
 53 54  1  0
 56  3  1  0
 56 65  1  0
 57 63  1  0
 57 65  1  0
 58 63  1  0
 59 60  1  0
 59 58  1  0
 61 60  1  0
 61 70  1  0
 61 62  1  0
 63 62  1  0
 64 57  2  0
 65 66  1  0
 67 68  2  0
 68 87  1  0
 69 68  1  0
 69 72  1  0
 70 71  1  0
 70 67  1  0
 71 69  2  0
 72 73  1  0
 73 74  2  0
 75 78  1  0
 75 74  1  0
 76 75  2  0
 77 76  1  0
 77 72  2  0
 78 79  1  0
 79 84  2  0
 79 80  1  0
 80 81  2  0
 81 82  1  0
 82 86  1  0
 83 82  2  0
 84 83  1  0
 85 84  1  0
 87 88  1  0
 88 91  1  0
 88 90  1  0
 89 87  2  0
 92 67  1  0
 92 93  1  0
 94 92  1  0
M  ISO  4  11 101  12 101  57 100  65 100
M  END
>  <TORSDO>  (4) 
F 20

>  <SCORE>  (4) 
-13.744

>  <name>  (4) 
3

>  <ligand_id>  (4) 
3

>  <original_smiles>  (4) 
[H]c1c([H])c([H])c2c(c1[H])C([H])([H])C([H])([H])C([H])([H])C2([H])N([H])C(=O)C1([H])N(C(=O)C([H])(N([H])C(=O)C([H])(N([H])C([H])([H])[H])C([H])([H])[H])C(C([H])([H])[H])(C([H])([H])[H])C([H])([H])[H])C([H])([H])c2c([H])c(OC([H])(C(=O)N([H])c3sc(C([H])([H])N([H])C(=O)N4C([H])([H])C([H])([H])C([H])([H])C([H])(n5nc(-c6c([H])c([H])c(Oc7c([H])c([H])c(F)c([H])c7F)c([H])c6[H])c(C(=O)N([H])[H])c5N([H])[H])C4([H])[H])c(N([H])[H])c3[H])C([H])([H])[H])c([H])c([H])c2C1([H])[H]

>  <smiles>  (4) 
[H]c1c([H])c([H])c2c(c1[H])C([H])([H])C([H])([H])C([H])([H])C2([H])N([H])C(=O)C1([H])N(C(=O)C([H])(N([H])C(=O)C([H])(N([H])C([H])([H])[H])C([H])([H])[H])C(C([H])([H])[H])(C([H])([H])[H])C([H])([H])[H])C([H])([H])c2c([H])c(OC([H])(C(=O)N([H])c3sc(C([H])([H])N([H])C(=O)N4C([H])([H])C([H])([H])C([H])([H])C([H])(n5nc(-c6c([H])c([H])c(Oc7c([H])c([H])c(F)c([H])c7F)c([H])c6[H])c(C(=O)N([H])[H])c5N([H])[H])C4([H])[H])c(N([H])[H])c3[H])C([H])([H])[H])c([H])c([H])c2C1([H])[H]

$$$$
4:0:0
     RDKit          3D

 91 99  0  0  1  0  0  0  0  0999 V2000
  -28.4540  -22.3080   20.3640 N   0  0  0  0  0  0  0  0  0  0  0  0
  -27.5280  -22.2020   19.9580 H   0  0  0  0  0  0  0  0  0  0  0  0
  -28.9840  -19.7960   19.9630 C   0  0  0  0  0  3  0  0  0  0  0  0
  -30.7180  -19.1840   21.3520 C   0  0  0  0  0  3  0  0  0  0  0  0
  -29.8610  -18.6900   20.3970 C   0  0  0  0  0  0  0  0  0  0  0  0
  -29.1940  -21.0670   20.5300 C   0  0  0  0  0  0  0  0  0  0  0  0
  -30.5190  -20.9150   21.6590 S   0  0  0  0  0  0  0  0  0  0  0  0
  -29.9710  -17.2370   19.7680 C   0  0  0  0  0  2  0  0  0  0  0  0
  -30.6010  -14.7650   20.2990 C   0  0  0  0  0  0  0  0  0  0  0  0
  -30.3730  -12.4850   19.3130 C   0  0  0  0  0  2  0  0  0  0  0  0
  -29.4300  -12.5640   18.0900 C   0  0  0  0  0  2  0  0  0  0  0  0
  -27.9620  -12.4000   18.5260 C   0  0  0  0  0  2  0  0  0  0  0  0
  -27.5970  -13.2880   19.7460 C   0  0  0  0  0  3  0  0  0  0  0  0
  -28.6640  -13.2020   20.8630 C   0  0  0  0  0  2  0  0  0  0  0  0
  -29.9610  -13.5430   20.2670 N   0  0  0  0  0  0  0  0  0  0  0  0
  -31.7680  -14.8510   19.9070 O   0  0  0  0  0  0  0  0  0  0  0  0
  -29.8530  -15.9120   20.5220 N   0  0  0  0  0  0  0  0  0  0  0  0
  -28.9410  -15.7430   20.9200 H   0  0  0  0  0  0  0  0  0  0  0  0
  -25.2130  -13.8820   20.4860 C   0  0  0  0  0  0  0  0  0  0  0  0
  -24.1490  -13.1090   20.8650 C   0  0  0  0  0  0  0  0  0  0  0  0
  -24.6100  -11.7570   20.8340 C   0  0  0  0  0  0  0  0  0  0  0  0
  -26.2540  -13.0010   20.2450 N   0  0  0  0  0  0  0  0  0  0  0  0
  -25.8990  -11.7180   20.5170 N   0  0  0  0  0  0  0  0  0  0  0  0
  -23.8820  -10.4960   21.0290 C   0  0  0  0  0  0  0  0  0  0  0  0
  -24.3220   -9.5250   21.9550 C   0  0  0  0  0  3  0  0  0  0  0  0
  -23.5940   -8.3290   22.1410 C   0  0  0  0  0  3  0  0  0  0  0  0
  -22.4110   -8.0970   21.3990 C   0  0  0  0  0  0  0  0  0  0  0  0
  -21.9910   -9.0560   20.4610 C   0  0  0  0  0  3  0  0  0  0  0  0
  -22.7190  -10.2420   20.2740 C   0  0  0  0  0  3  0  0  0  0  0  0
  -21.6550   -6.9530   21.4940 O   0  0  0  0  0  0  0  0  0  0  0  0
  -21.6240   -6.2030   22.6410 C   0  0  0  0  0  0  0  0  0  0  0  0
  -21.2260   -6.7500   23.8810 C   0  0  0  0  0  3  0  0  0  0  0  0
  -21.1430   -5.9270   25.0220 C   0  0  0  0  0  3  0  0  0  0  0  0
  -21.4430   -4.5550   24.9240 C   0  0  0  0  0  0  0  0  0  0  0  0
  -21.8320   -4.0060   23.6900 C   0  0  0  0  0  3  0  0  0  0  0  0
  -21.9180   -4.8280   22.5510 C   0  0  0  0  0  0  0  0  0  0  0  0
  -22.2730   -4.2870   21.3600 F   0  0  0  0  0  0  0  0  0  0  0  0
  -21.3540   -3.7630   26.0170 F   0  0  0  0  0  0  0  0  0  0  0  0
  -22.7510  -13.5870   21.1410 C   0  0  0  0  0  0  0  0  0  0  0  0
  -22.0260  -12.8940   22.0110 N   0  0  0  0  0  0  0  0  0  0  0  0
  -22.3120  -14.6090   20.6190 O   0  0  0  0  0  0  0  0  0  0  0  0
  -22.3950  -12.0670   22.4580 H   0  0  0  0  0  0  0  0  0  0  0  0
  -21.0890  -13.1940   22.2360 H   0  0  0  0  0  0  0  0  0  0  0  0
  -25.3780  -15.2520   20.3000 N   0  0  0  0  0  0  0  0  0  0  0  0
  -24.6140  -15.9120   20.4090 H   0  0  0  0  0  0  0  0  0  0  0  0
  -26.2190  -15.6810   19.9330 H   0  0  0  0  0  0  0  0  0  0  0  0
  -28.9910  -23.7290   20.2610 C   0  0  0  0  0  2  0  0  0  0  0  0
  -26.6780  -24.5320   21.1190 C   0  0  0  0  0  1  0  0  0  0  0  0
  -28.7330  -25.2700   22.2780 C   0  0  0  0  0  1  0  0  0  0  0  0
  -28.1430  -24.9840   20.8860 C   0  0  1  0  0  0  0  0  0  0  0  0
  -28.2780  -26.3450   20.2150 O   0  0  0  0  0  0  0  0  0  0  0  0
  -24.6300  -31.8760   23.2240 C   0  0  0  0  0  0  0  0  0  0  0  0
  -27.2080  -27.2730   20.1790 C   0  0  0  0  0  0  0  0  0  0  0  0
  -23.4170  -30.4830   21.5860 C   0  0  0  0  0  3  0  0  0  0  0  0
  -24.8660  -28.9370   20.1450 C   0  0  0  0  0  0  0  0  0  0  0  0
  -25.9580  -30.7830   21.4010 C   0  0  0  0  0  2  0  0  0  0  0  0
  -26.0340  -29.4000   20.7600 C   0  0  0  0  0  0  0  0  0  0  0  0
  -27.2080  -28.5770   20.7810 C   0  0  0  0  0  3  0  0  0  0  0  0
  -26.0430  -26.9140   19.4700 C   0  0  0  0  0  3  0  0  0  0  0  0
  -24.8730  -27.6980   19.4850 C   0  0  0  0  0  3  0  0  0  0  0  0
  -23.6310  -29.8160   20.2010 C   0  0  0  0  0  2  0  0  0  0  0  0
  -24.6870  -31.0640   22.1270 N   0  0  0  0  0  0  0  0  0  0  0  0
  -23.5490  -32.1550   23.7630 O   0  0  0  0  0  0  0  0  0  0  0  0
  -22.7590  -29.4620   22.5460 C   0  0  0  0  0  0  0  0  0  0  0  0
  -21.4310  -29.2890   22.4290 N   0  0  0  0  0  0  0  0  0  0  0  0
  -23.4400  -28.8340   23.3590 O   0  0  0  0  0  0  0  0  0  0  0  0
  -20.9330  -29.8530   21.7550 H   0  0  0  0  0  0  0  0  0  0  0  0
  -18.0570  -28.0940   22.9480 C   0  0  0  0  0  0  0  0  0  0  0  0
  -20.6170  -28.3500   23.2030 C   0  0  0  0  0  3  0  0  0  0  0  0
  -20.7140  -26.9170   22.6290 C   0  0  0  0  0  2  0  0  0  0  0  0
  -19.6080  -26.5970   21.6190 C   0  0  0  0  0  2  0  0  0  0  0  0
  -18.2290  -26.7450   22.2710 C   0  0  0  0  0  2  0  0  0  0  0  0
  -19.1790  -28.8530   23.3730 C   0  0  0  0  0  0  0  0  0  0  0  0
  -18.9650  -30.1170   23.9670 C   0  0  0  0  0  3  0  0  0  0  0  0
  -17.6620  -30.6190   24.1420 C   0  0  0  0  0  3  0  0  0  0  0  0
  -16.5540  -29.8560   23.7360 C   0  0  0  0  0  3  0  0  0  0  0  0
  -16.7520  -28.5970   23.1410 C   0  0  0  0  0  3  0  0  0  0  0  0
  -25.9170  -32.5060   23.8360 C   0  0  0  0  0  3  0  0  0  0  0  0
  -26.4420  -31.7310   25.1080 C   0  0  1  0  0  0  0  0  0  0  0  0
  -25.3570  -31.4910   26.1810 C   0  0  0  0  0  1  0  0  0  0  0  0
  -27.0220  -30.3540   24.7080 C   0  0  0  0  0  1  0  0  0  0  0  0
  -27.5940  -32.5240   25.7690 C   0  0  0  0  0  1  0  0  0  0  0  0
  -25.6090  -33.9050   24.1720 N   0  0  0  0  0  0  0  0  0  0  0  0
  -25.9360  -34.9610   23.4160 C   0  0  0  0  0  0  0  0  0  0  0  0
  -26.6000  -34.8600   22.3800 O   0  0  0  0  0  0  0  0  0  0  0  0
  -25.0150  -34.0570   24.9750 H   0  0  0  0  0  0  0  0  0  0  0  0
  -24.2090  -36.7580   23.0790 C   0  0  0  0  0  1  0  0  0  0  0  0
  -25.4540  -36.3470   23.8820 C   0  0  0  0  0  3  0  0  0  0  0  0
  -27.5940  -37.2290   24.7030 C   0  0  0  0  0  1  0  0  0  0  0  0
  -26.4860  -37.4000   23.7670 N   0  0  0  0  0  0  0  0  0  0  0  0
  -26.0800  -38.3200   23.9200 H   0  0  0  0  0  0  0  0  0  0  0  0
  1  6  1  0
  2  1  1  0
  3  5  1  0
  3  6  2  0
  4  7  1  0
  5  4  2  0
  6  7  1  0
  8  5  1  0
  8 17  1  0
  9 17  1  0
 10 15  1  0
 11 12  1  0
 11 10  1  0
 13 12  1  0
 13 22  1  0
 13 14  1  0
 15  9  1  0
 15 14  1  0
 16  9  2  0
 17 18  1  0
 19 20  2  0
 20 39  1  0
 21 20  1  0
 21 24  1  0
 22 19  1  0
 22 23  1  0
 23 21  2  0
 24 25  1  0
 25 26  2  0
 27 30  1  0
 27 26  1  0
 28 27  2  0
 29 28  1  0
 29 24  2  0
 30 31  1  0
 31 32  1  0
 32 33  2  0
 34 33  1  0
 34 38  1  0
 35 34  2  0
 36 31  2  0
 36 35  1  0
 37 36  1  0
 39 40  1  0
 40 43  1  0
 40 42  1  0
 41 39  2  0
 44 45  1  0
 44 19  1  0
 46 44  1  0
 47  1  1  0
 47 50  1  0
 50 48  1  1
 50 49  1  0
 51 50  1  0
 52 63  2  0
 53 51  1  0
 53 58  1  0
 54 62  1  0
 54 64  1  0
 55 61  1  0
 55 57  1  0
 56 62  1  0
 57 58  2  0
 57 56  1  0
 59 60  1  0
 59 53  2  0
 60 55  2  0
 61 54  1  0
 62 52  1  0
 64 66  2  0
 65 64  1  0
 67 65  1  0
 68 77  2  0
 68 73  1  0
 69 65  1  0
 69 73  1  0
 70 69  1  0
 71 72  1  0
 71 70  1  0
 72 68  1  0
 73 74  2  0
 74 75  1  0
 76 75  2  0
 77 76  1  0
 78 52  1  0
 78 83  1  0
 78 79  1  0
 79 82  1  1
 79 80  1  0
 81 79  1  0
 83 86  1  0
 84 88  1  0
 84 83  1  0
 85 84  2  0
 88 87  1  0
 90 88  1  0
 90 91  1  0
 90 89  1  0
M  ISO  4   9 100  17 100  50 101  51 101
M  END
>  <TORSDO>  (5) 
F 20

>  <SCORE>  (5) 
-13.960

>  <name>  (5) 
4

>  <ligand_id>  (5) 
4

>  <original_smiles>  (5) 
[H]c1sc(N([H])C([H])([H])C(Oc2c([H])c([H])c3c(c2[H])C([H])([H])N(C(=O)C([H])(N([H])C(=O)C([H])(N([H])C([H])([H])[H])C([H])([H])[H])C(C([H])([H])[H])(C([H])([H])[H])C([H])([H])[H])C([H])(C(=O)N([H])C2([H])c4c([H])c([H])c([H])c([H])c4C([H])([H])C([H])([H])C2([H])[H])C3([H])[H])(C([H])([H])[H])C([H])([H])[H])c([H])c1C([H])([H])N([H])C(=O)N1C([H])([H])C([H])([H])C([H])([H])C([H])(n2nc(-c3c([H])c([H])c(Oc4c([H])c([H])c(F)c([H])c4F)c([H])c3[H])c(C(=O)N([H])[H])c2N([H])[H])C1([H])[H]

>  <smiles>  (5) 
[H]c1sc(N([H])C([H])([H])C(Oc2c([H])c([H])c3c(c2[H])C([H])([H])N(C(=O)C([H])(N([H])C(=O)C([H])(N([H])C([H])([H])[H])C([H])([H])[H])C(C([H])([H])[H])(C([H])([H])[H])C([H])([H])[H])C([H])(C(=O)N([H])C2([H])c4c([H])c([H])c([H])c([H])c4C([H])([H])C([H])([H])C2([H])[H])C3([H])[H])(C([H])([H])[H])C([H])([H])[H])c([H])c1C([H])([H])N([H])C(=O)N1C([H])([H])C([H])([H])C([H])([H])C([H])(n2nc(-c3c([H])c([H])c(Oc4c([H])c([H])c(F)c([H])c4F)c([H])c3[H])c(C(=O)N([H])[H])c2N([H])[H])C1([H])[H]

$$$$
5:0:0
     RDKit          3D

 90 98  0  0  1  0  0  0  0  0999 V2000
  -29.0690  -22.2600   19.8820 C   0  0  0  0  0  2  0  0  0  0  0  0
  -28.5690  -23.6670   20.5170 C   0  0  0  0  0  0  0  0  0  0  0  0
  -28.3040  -23.7060   21.7240 O   0  0  0  0  0  0  0  0  0  0  0  0
  -28.3920  -25.0000   19.6180 C   0  0  0  0  0  2  0  0  0  0  0  0
  -28.3180  -26.3730   20.2650 O   0  0  0  0  0  0  0  0  0  0  0  0
  -24.6070  -31.8800   23.2230 C   0  0  0  0  0  0  0  0  0  0  0  0
  -27.2100  -27.2580   20.1690 C   0  0  0  0  0  0  0  0  0  0  0  0
  -23.4080  -30.4890   21.5760 C   0  0  0  0  0  3  0  0  0  0  0  0
  -24.8590  -28.9320   20.1490 C   0  0  0  0  0  0  0  0  0  0  0  0
  -25.9540  -30.7810   21.4100 C   0  0  0  0  0  2  0  0  0  0  0  0
  -26.0300  -29.3990   20.7560 C   0  0  0  0  0  0  0  0  0  0  0  0
  -27.2030  -28.5720   20.7570 C   0  0  0  0  0  3  0  0  0  0  0  0
  -26.0100  -26.8620   19.5340 C   0  0  0  0  0  3  0  0  0  0  0  0
  -24.8560  -27.6730   19.5270 C   0  0  0  0  0  3  0  0  0  0  0  0
  -23.6270  -29.8160   20.1960 C   0  0  0  0  0  2  0  0  0  0  0  0
  -24.6750  -31.0690   22.1260 N   0  0  0  0  0  0  0  0  0  0  0  0
  -23.5220  -32.1610   23.7530 O   0  0  0  0  0  0  0  0  0  0  0  0
  -22.7350  -29.4750   22.5330 C   0  0  0  0  0  0  0  0  0  0  0  0
  -21.4060  -29.3080   22.4070 N   0  0  0  0  0  0  0  0  0  0  0  0
  -23.4070  -28.8400   23.3500 O   0  0  0  0  0  0  0  0  0  0  0  0
  -20.9220  -29.8710   21.7220 H   0  0  0  0  0  0  0  0  0  0  0  0
  -18.0190  -28.1360   22.9120 C   0  0  0  0  0  0  0  0  0  0  0  0
  -20.5810  -28.3720   23.1740 C   0  0  0  0  0  3  0  0  0  0  0  0
  -20.6680  -26.9440   22.5880 C   0  0  0  0  0  2  0  0  0  0  0  0
  -19.5600  -26.6380   21.5750 C   0  0  0  0  0  2  0  0  0  0  0  0
  -18.1820  -26.7900   22.2250 C   0  0  0  0  0  2  0  0  0  0  0  0
  -19.1460  -28.8850   23.3440 C   0  0  0  0  0  0  0  0  0  0  0  0
  -18.9390  -30.1450   23.9470 C   0  0  0  0  0  3  0  0  0  0  0  0
  -17.6390  -30.6550   24.1220 C   0  0  0  0  0  3  0  0  0  0  0  0
  -16.5270  -29.9030   23.7060 C   0  0  0  0  0  3  0  0  0  0  0  0
  -16.7180  -28.6440   23.1070 C   0  0  0  0  0  3  0  0  0  0  0  0
  -25.8870  -32.5100   23.8540 C   0  0  0  0  0  3  0  0  0  0  0  0
  -26.3920  -31.7390   25.1350 C   0  0  1  0  0  0  0  0  0  0  0  0
  -25.2910  -31.5070   26.1970 C   0  0  0  0  0  1  0  0  0  0  0  0
  -26.9730  -30.3590   24.7510 C   0  0  0  0  0  1  0  0  0  0  0  0
  -27.5420  -32.5310   25.8030 C   0  0  0  0  0  1  0  0  0  0  0  0
  -25.5780  -33.9100   24.1840 N   0  0  0  0  0  0  0  0  0  0  0  0
  -25.9080  -34.9640   23.4250 C   0  0  0  0  0  0  0  0  0  0  0  0
  -26.5730  -34.8600   22.3910 O   0  0  0  0  0  0  0  0  0  0  0  0
  -24.9870  -34.0640   24.9880 H   0  0  0  0  0  0  0  0  0  0  0  0
  -24.1830  -36.7620   23.0800 C   0  0  0  0  0  1  0  0  0  0  0  0
  -25.4260  -36.3530   23.8870 C   0  0  0  0  0  3  0  0  0  0  0  0
  -27.5630  -37.2340   24.7150 C   0  0  0  0  0  1  0  0  0  0  0  0
  -26.4610  -37.4040   23.7730 N   0  0  0  0  0  0  0  0  0  0  0  0
  -26.0560  -38.3250   23.9200 H   0  0  0  0  0  0  0  0  0  0  0  0
  -28.9100  -20.9300   20.6310 N   0  0  0  0  0  0  0  0  0  0  0  0
  -28.1380  -20.9280   21.2930 H   0  0  0  0  0  0  0  0  0  0  0  0
  -30.5640  -14.8140   20.3510 C   0  0  0  0  0  0  0  0  0  0  0  0
  -30.3960  -12.5130   19.3670 C   0  0  0  0  0  2  0  0  0  0  0  0
  -29.4650  -12.5670   18.1340 C   0  0  0  0  0  2  0  0  0  0  0  0
  -27.9940  -12.3850   18.5550 C   0  0  0  0  0  2  0  0  0  0  0  0
  -27.6070  -13.2770   19.7650 C   0  0  0  0  0  3  0  0  0  0  0  0
  -28.6590  -13.2040   20.8940 C   0  0  0  0  0  2  0  0  0  0  0  0
  -29.9560  -13.5720   20.3100 N   0  0  0  0  0  0  0  0  0  0  0  0
  -31.7480  -14.9030   20.0050 O   0  0  0  0  0  0  0  0  0  0  0  0
  -30.6250  -19.3230   19.4880 C   0  0  0  0  0  3  0  0  0  0  0  0
  -29.5540  -19.6610   20.2890 C   0  0  0  0  0  0  0  0  0  0  0  0
  -29.9520  -17.3890   20.3540 C   0  0  0  0  0  0  0  0  0  0  0  0
  -30.8640  -17.9320   19.5380 N   0  0  0  0  0  0  0  0  0  0  0  0
  -29.7830  -15.9340   20.6380 N   0  0  0  0  0  0  0  0  0  0  0  0
  -29.1210  -18.4150   20.8340 O   0  0  0  0  0  0  0  0  0  0  0  0
  -28.8850  -15.7060   21.0300 H   0  0  0  0  0  0  0  0  0  0  0  0
  -25.2150  -13.8610   20.4760 C   0  0  0  0  0  0  0  0  0  0  0  0
  -24.1490  -13.0850   20.8440 C   0  0  0  0  0  0  0  0  0  0  0  0
  -24.6170  -11.7360   20.8220 C   0  0  0  0  0  0  0  0  0  0  0  0
  -26.2620  -12.9840   20.2490 N   0  0  0  0  0  0  0  0  0  0  0  0
  -25.9110  -11.7010   20.5200 N   0  0  0  0  0  0  0  0  0  0  0  0
  -23.8930  -10.4710   21.0130 C   0  0  0  0  0  0  0  0  0  0  0  0
  -24.3180   -9.5120   21.9570 C   0  0  0  0  0  3  0  0  0  0  0  0
  -23.5940   -8.3130   22.1350 C   0  0  0  0  0  3  0  0  0  0  0  0
  -22.4310   -8.0660   21.3690 C   0  0  0  0  0  0  0  0  0  0  0  0
  -22.0240   -9.0150   20.4140 C   0  0  0  0  0  3  0  0  0  0  0  0
  -22.7490  -10.2040   20.2340 C   0  0  0  0  0  3  0  0  0  0  0  0
  -21.6780   -6.9200   21.4560 O   0  0  0  0  0  0  0  0  0  0  0  0
  -21.6150   -6.1870   22.6140 C   0  0  0  0  0  0  0  0  0  0  0  0
  -21.1610   -6.7480   23.8270 C   0  0  0  0  0  3  0  0  0  0  0  0
  -21.0470   -5.9400   24.9770 C   0  0  0  0  0  3  0  0  0  0  0  0
  -21.3750   -4.5740   24.9140 C   0  0  0  0  0  0  0  0  0  0  0  0
  -21.8230   -4.0120   23.7050 C   0  0  0  0  0  3  0  0  0  0  0  0
  -21.9390   -4.8160   22.5570 C   0  0  0  0  0  0  0  0  0  0  0  0
  -22.3500   -4.2650   21.3900 F   0  0  0  0  0  0  0  0  0  0  0  0
  -21.2590   -3.7960   26.0160 F   0  0  0  0  0  0  0  0  0  0  0  0
  -22.7490  -13.5590   21.1030 C   0  0  0  0  0  0  0  0  0  0  0  0
  -22.0160  -12.8630   21.9650 N   0  0  0  0  0  0  0  0  0  0  0  0
  -22.3140  -14.5830   20.5780 O   0  0  0  0  0  0  0  0  0  0  0  0
  -22.3810  -12.0350   22.4110 H   0  0  0  0  0  0  0  0  0  0  0  0
  -21.0750  -13.1630   22.1810 H   0  0  0  0  0  0  0  0  0  0  0  0
  -25.3740  -15.2310   20.2910 N   0  0  0  0  0  0  0  0  0  0  0  0
  -24.5970  -15.8760   20.3840 H   0  0  0  0  0  0  0  0  0  0  0  0
  -26.2050  -15.6690   19.9160 H   0  0  0  0  0  0  0  0  0  0  0  0
  1  2  1  0
  1 46  1  0
  2  3  2  0
  4  5  1  0
  4  2  1  0
  6 17  2  0
  7  5  1  0
  7 12  1  0
  8 16  1  0
  8 18  1  0
  9 15  1  0
  9 11  1  0
 10 16  1  0
 11 12  2  0
 11 10  1  0
 13  7  2  0
 14 13  1  0
 14  9  2  0
 15  8  1  0
 16  6  1  0
 18 20  2  0
 19 18  1  0
 21 19  1  0
 22 31  2  0
 22 27  1  0
 23 19  1  0
 23 27  1  0
 24 23  1  0
 25 26  1  0
 25 24  1  0
 26 22  1  0
 27 28  2  0
 28 29  1  0
 30 29  2  0
 31 30  1  0
 32  6  1  0
 32 37  1  0
 32 33  1  0
 33 36  1  1
 33 34  1  0
 35 33  1  0
 37 40  1  0
 38 42  1  0
 38 37  1  0
 39 38  2  0
 42 41  1  0
 44 42  1  0
 44 45  1  0
 44 43  1  0
 46 47  1  0
 48 60  1  0
 49 54  1  0
 50 51  1  0
 50 49  1  0
 52 51  1  0
 52 66  1  0
 52 53  1  0
 54 48  1  0
 54 53  1  0
 55 48  2  0
 56 59  1  0
 56 57  2  0
 57 46  1  0
 57 61  1  0
 58 60  1  0
 58 61  1  0
 59 58  2  0
 60 62  1  0
 63 64  2  0
 64 83  1  0
 65 64  1  0
 65 68  1  0
 66 63  1  0
 66 67  1  0
 67 65  2  0
 68 69  1  0
 69 70  2  0
 71 74  1  0
 71 70  1  0
 72 71  2  0
 73 72  1  0
 73 68  2  0
 74 75  1  0
 75 76  1  0
 76 77  2  0
 78 77  1  0
 78 82  1  0
 79 78  2  0
 80 75  2  0
 80 79  1  0
 81 80  1  0
 83 84  1  0
 84 87  1  0
 84 86  1  0
 85 83  2  0
 88 89  1  0
 88 63  1  0
 90 88  1  0
M  ISO  4   4 101   5 101  48 100  60 100
M  END
>  <TORSDO>  (6) 
F 19

>  <SCORE>  (6) 
-14.229

>  <name>  (6) 
5

>  <ligand_id>  (6) 
5

>  <original_smiles>  (6) 
[H]c1nc(N([H])C(=O)N2C([H])([H])C([H])([H])C([H])([H])C([H])(n3nc(-c4c([H])c([H])c(Oc5c([H])c([H])c(F)c([H])c5F)c([H])c4[H])c(C(=O)N([H])[H])c3N([H])[H])C2([H])[H])oc1N([H])C([H])([H])C(=O)C([H])([H])Oc1c([H])c([H])c2c(c1[H])C([H])([H])N(C(=O)C([H])(N([H])C(=O)C([H])(N([H])C([H])([H])[H])C([H])([H])[H])C(C([H])([H])[H])(C([H])([H])[H])C([H])([H])[H])C([H])(C(=O)N([H])C1([H])c3c([H])c([H])c([H])c([H])c3C([H])([H])C([H])([H])C1([H])[H])C2([H])[H]

>  <smiles>  (6) 
[H]c1nc(N([H])C(=O)N2C([H])([H])C([H])([H])C([H])([H])C([H])(n3nc(-c4c([H])c([H])c(Oc5c([H])c([H])c(F)c([H])c5F)c([H])c4[H])c(C(=O)N([H])[H])c3N([H])[H])C2([H])[H])oc1N([H])C([H])([H])C(=O)C([H])([H])Oc1c([H])c([H])c2c(c1[H])C([H])([H])N(C(=O)C([H])(N([H])C(=O)C([H])(N([H])C([H])([H])[H])C([H])([H])[H])C(C([H])([H])[H])(C([H])([H])[H])C([H])([H])[H])C([H])(C(=O)N([H])C1([H])c3c([H])c([H])c([H])c([H])c3C([H])([H])C([H])([H])C1([H])[H])C2([H])[H]

$$$$
6:0:0
     RDKit          3D

 95104  0  0  1  0  0  0  0  0999 V2000
  -29.4670  -18.2570   18.3190 C   0  0  0  0  0  3  0  0  0  0  0  0
  -29.6480  -16.9960   18.9350 C   0  0  0  0  0  3  0  0  0  0  0  0
  -29.7930  -18.0610   21.1430 C   0  0  0  0  0  3  0  0  0  0  0  0
  -29.6230  -19.3210   20.4990 C   0  0  0  0  0  0  0  0  0  0  0  0
  -29.4640  -19.4090   19.1270 C   0  0  0  0  0  0  0  0  0  0  0  0
  -29.8180  -16.8730   20.3450 C   0  0  0  0  0  0  0  0  0  0  0  0
  -29.6420  -20.7050   20.9950 C   0  0  0  0  0  0  0  0  0  0  0  0
  -29.3270  -20.8580   18.7070 C   0  0  0  0  0  3  0  0  0  0  0  0
  -29.5010  -21.6050   19.9850 N   0  0  0  0  0  0  0  0  0  0  0  0
  -29.8500  -21.0550   22.2610 N   0  0  0  0  0  0  0  0  0  0  0  0
  -29.9710  -20.3390   22.9600 H   0  0  0  0  0  0  0  0  0  0  0  0
  -29.8110  -22.0150   22.5610 H   0  0  0  0  0  0  0  0  0  0  0  0
  -30.6320  -14.5160   20.4400 C   0  0  0  0  0  0  0  0  0  0  0  0
  -30.3520  -12.3360   19.3180 C   0  0  0  0  0  2  0  0  0  0  0  0
  -29.4110  -12.5470   18.1120 C   0  0  0  0  0  2  0  0  0  0  0  0
  -27.9350  -12.4160   18.5390 C   0  0  0  0  0  2  0  0  0  0  0  0
  -27.6050  -13.2430   19.8110 C   0  0  0  0  0  3  0  0  0  0  0  0
  -28.6590  -13.0130   20.9170 C   0  0  0  0  0  2  0  0  0  0  0  0
  -29.9830  -13.3190   20.3520 N   0  0  0  0  0  0  0  0  0  0  0  0
  -31.7630  -14.6890   19.9740 O   0  0  0  0  0  0  0  0  0  0  0  0
  -29.9170  -15.5580   20.9360 N   0  0  0  0  0  0  0  0  0  0  0  0
  -29.1360  -15.2920   21.5180 H   0  0  0  0  0  0  0  0  0  0  0  0
  -25.2110  -13.8660   20.5160 C   0  0  0  0  0  0  0  0  0  0  0  0
  -24.1370  -13.0990   20.8820 C   0  0  0  0  0  0  0  0  0  0  0  0
  -24.5890  -11.7450   20.8510 C   0  0  0  0  0  0  0  0  0  0  0  0
  -26.2500  -12.9760   20.2860 N   0  0  0  0  0  0  0  0  0  0  0  0
  -25.8800  -11.6960   20.5460 N   0  0  0  0  0  0  0  0  0  0  0  0
  -23.8540  -10.4870   21.0410 C   0  0  0  0  0  0  0  0  0  0  0  0
  -24.2770   -9.5170   21.9750 C   0  0  0  0  0  3  0  0  0  0  0  0
  -23.5430   -8.3250   22.1530 C   0  0  0  0  0  3  0  0  0  0  0  0
  -22.3700   -8.0950   21.3960 C   0  0  0  0  0  0  0  0  0  0  0  0
  -21.9660   -9.0530   20.4490 C   0  0  0  0  0  3  0  0  0  0  0  0
  -22.7020  -10.2360   20.2690 C   0  0  0  0  0  3  0  0  0  0  0  0
  -21.6080   -6.9560   21.4820 O   0  0  0  0  0  0  0  0  0  0  0  0
  -21.5490   -6.2150   22.6350 C   0  0  0  0  0  0  0  0  0  0  0  0
  -21.1150   -6.7730   23.8570 C   0  0  0  0  0  3  0  0  0  0  0  0
  -21.0000   -5.9600   25.0020 C   0  0  0  0  0  3  0  0  0  0  0  0
  -21.3110   -4.5890   24.9260 C   0  0  0  0  0  0  0  0  0  0  0  0
  -21.7390   -4.0310   23.7080 C   0  0  0  0  0  3  0  0  0  0  0  0
  -21.8530   -4.8410   22.5650 C   0  0  0  0  0  0  0  0  0  0  0  0
  -22.2450   -4.2920   21.3900 F   0  0  0  0  0  0  0  0  0  0  0  0
  -21.1950   -3.8050   26.0230 F   0  0  0  0  0  0  0  0  0  0  0  0
  -22.7420  -13.5860   21.1510 C   0  0  0  0  0  0  0  0  0  0  0  0
  -22.0080  -12.8930   22.0150 N   0  0  0  0  0  0  0  0  0  0  0  0
  -22.3120  -14.6160   20.6350 O   0  0  0  0  0  0  0  0  0  0  0  0
  -22.3700  -12.0590   22.4530 H   0  0  0  0  0  0  0  0  0  0  0  0
  -21.0720  -13.2000   22.2390 H   0  0  0  0  0  0  0  0  0  0  0  0
  -25.3880  -15.2350   20.3400 N   0  0  0  0  0  0  0  0  0  0  0  0
  -24.6310  -15.9000   20.4580 H   0  0  0  0  0  0  0  0  0  0  0  0
  -26.2440  -15.6670   20.0200 H   0  0  0  0  0  0  0  0  0  0  0  0
  -29.8000  -23.0840   19.9560 C   0  0  0  0  0  2  0  0  0  0  0  0
  -28.6730  -24.1120   20.2660 C   0  0  0  0  0  0  0  0  0  0  0  0
  -27.7940  -23.8590   21.0970 O   0  0  0  0  0  0  0  0  0  0  0  0
  -28.6950  -25.4610   19.4770 C   0  0  0  0  0  2  0  0  0  0  0  0
  -28.4720  -26.6510   20.2840 O   0  0  0  0  0  0  0  0  0  0  0  0
  -24.6130  -31.8800   23.2370 C   0  0  0  0  0  0  0  0  0  0  0  0
  -27.2920  -27.3810   20.2130 C   0  0  0  0  0  0  0  0  0  0  0  0
  -23.4260  -30.4670   21.5900 C   0  0  0  0  0  3  0  0  0  0  0  0
  -24.8960  -28.9170   20.1870 C   0  0  0  0  0  0  0  0  0  0  0  0
  -25.9570  -30.8140   21.4220 C   0  0  0  0  0  2  0  0  0  0  0  0
  -26.0480  -29.4360   20.7900 C   0  0  0  0  0  0  0  0  0  0  0  0
  -27.2430  -28.6740   20.8010 C   0  0  0  0  0  3  0  0  0  0  0  0
  -26.1150  -26.8840   19.6100 C   0  0  0  0  0  3  0  0  0  0  0  0
  -24.9270  -27.6430   19.5950 C   0  0  0  0  0  3  0  0  0  0  0  0
  -23.6510  -29.7780   20.2170 C   0  0  0  0  0  2  0  0  0  0  0  0
  -24.6830  -31.0710   22.1400 N   0  0  0  0  0  0  0  0  0  0  0  0
  -23.5250  -32.1560   23.7630 O   0  0  0  0  0  0  0  0  0  0  0  0
  -22.7630  -29.4540   22.5510 C   0  0  0  0  0  0  0  0  0  0  0  0
  -21.4370  -29.2830   22.4220 N   0  0  0  0  0  0  0  0  0  0  0  0
  -23.4390  -28.8230   23.3670 O   0  0  0  0  0  0  0  0  0  0  0  0
  -20.9520  -29.8420   21.7340 H   0  0  0  0  0  0  0  0  0  0  0  0
  -18.0490  -28.1340   22.9360 C   0  0  0  0  0  0  0  0  0  0  0  0
  -20.6110  -28.3520   23.1910 C   0  0  0  0  0  3  0  0  0  0  0  0
  -20.6880  -26.9240   22.6020 C   0  0  0  0  0  2  0  0  0  0  0  0
  -19.5750  -26.6260   21.5920 C   0  0  0  0  0  2  0  0  0  0  0  0
  -18.2000  -26.7880   22.2470 C   0  0  0  0  0  2  0  0  0  0  0  0
  -19.1820  -28.8750   23.3640 C   0  0  0  0  0  0  0  0  0  0  0  0
  -18.9870  -30.1370   23.9670 C   0  0  0  0  0  3  0  0  0  0  0  0
  -17.6920  -30.6570   24.1450 C   0  0  0  0  0  3  0  0  0  0  0  0
  -16.5740  -29.9140   23.7310 C   0  0  0  0  0  3  0  0  0  0  0  0
  -16.7520  -28.6540   23.1340 C   0  0  0  0  0  3  0  0  0  0  0  0
  -25.8910  -32.5160   23.8680 C   0  0  0  0  0  3  0  0  0  0  0  0
  -26.3980  -31.7490   25.1500 C   0  0  1  0  0  0  0  0  0  0  0  0
  -25.2970  -31.5090   26.2080 C   0  0  0  0  0  1  0  0  0  0  0  0
  -26.9900  -30.3720   24.7650 C   0  0  0  0  0  1  0  0  0  0  0  0
  -27.5430  -32.5460   25.8190 C   0  0  0  0  0  1  0  0  0  0  0  0
  -25.5770  -33.9140   24.1900 N   0  0  0  0  0  0  0  0  0  0  0  0
  -25.9130  -34.9650   23.4280 C   0  0  0  0  0  0  0  0  0  0  0  0
  -26.5920  -34.8580   22.4030 O   0  0  0  0  0  0  0  0  0  0  0  0
  -24.9730  -34.0720   24.9840 H   0  0  0  0  0  0  0  0  0  0  0  0
  -24.1860  -36.7520   23.0470 C   0  0  0  0  0  1  0  0  0  0  0  0
  -25.4180  -36.3530   23.8750 C   0  0  0  0  0  3  0  0  0  0  0  0
  -27.5410  -37.2430   24.7270 C   0  0  0  0  0  1  0  0  0  0  0  0
  -26.4500  -37.4080   23.7710 N   0  0  0  0  0  0  0  0  0  0  0  0
  -26.0410  -38.3280   23.9110 H   0  0  0  0  0  0  0  0  0  0  0  0
  1  2  2  0
  1  5  1  0
  2  6  1  0
  4  7  2  0
  4  3  1  0
  5  4  1  0
  6 21  1  0
  6  3  2  0
  7 10  1  0
  8  5  2  0
  8  9  1  0
  9  7  1  0
 10 12  1  0
 10 11  1  0
 13 21  1  0
 14 19  1  0
 15 16  1  0
 15 14  1  0
 17 16  1  0
 17 26  1  0
 17 18  1  0
 19 13  1  0
 19 18  1  0
 20 13  2  0
 21 22  1  0
 23 24  2  0
 24 43  1  0
 25 24  1  0
 25 28  1  0
 26 23  1  0
 26 27  1  0
 27 25  2  0
 28 29  1  0
 29 30  2  0
 31 34  1  0
 31 30  1  0
 32 31  2  0
 33 32  1  0
 33 28  2  0
 34 35  1  0
 35 36  1  0
 36 37  2  0
 38 37  1  0
 38 42  1  0
 39 38  2  0
 40 35  2  0
 40 39  1  0
 41 40  1  0
 43 44  1  0
 44 47  1  0
 44 46  1  0
 45 43  2  0
 48 49  1  0
 48 23  1  0
 50 48  1  0
 51  9  1  0
 51 52  1  0
 52 53  2  0
 54 52  1  0
 54 55  1  0
 56 67  2  0
 57 55  1  0
 57 62  1  0
 58 66  1  0
 58 68  1  0
 59 65  1  0
 59 61  1  0
 60 66  1  0
 61 62  2  0
 61 60  1  0
 63 57  2  0
 64 63  1  0
 64 59  2  0
 65 58  1  0
 66 56  1  0
 68 70  2  0
 69 68  1  0
 71 69  1  0
 72 81  2  0
 72 77  1  0
 73 69  1  0
 73 77  1  0
 74 73  1  0
 75 76  1  0
 75 74  1  0
 76 72  1  0
 77 78  2  0
 78 79  1  0
 80 79  2  0
 81 80  1  0
 82 56  1  0
 82 87  1  0
 82 83  1  0
 83 86  1  1
 83 84  1  0
 85 83  1  0
 87 90  1  0
 88 92  1  0
 88 87  1  0
 89 88  2  0
 92 91  1  0
 94 92  1  0
 94 95  1  0
 94 93  1  0
M  ISO  4  13 100  21 100  54 101  55 101
M  END
>  <TORSDO>  (7) 
F 19

>  <SCORE>  (7) 
-14.585

>  <name>  (7) 
6

>  <ligand_id>  (7) 
6

>  <original_smiles>  (7) 
[H]c1c([H])c([H])c2c(c1[H])C([H])([H])C([H])([H])C([H])([H])C2([H])N([H])C(=O)C1([H])N(C(=O)C([H])(N([H])C(=O)C([H])(N([H])C([H])([H])[H])C([H])([H])[H])C(C([H])([H])[H])(C([H])([H])[H])C([H])([H])[H])C([H])([H])c2c([H])c(OC([H])([H])C(=O)C([H])([H])N3C(=[N+]([H])[H])c4c([H])c(N([H])C(=O)N5C([H])([H])C([H])([H])C([H])([H])C([H])(n6nc(-c7c([H])c([H])c(Oc8c([H])c([H])c(F)c([H])c8F)c([H])c7[H])c(C(=O)N([H])[H])c6N([H])[H])C5([H])[H])c([H])c([H])c4C3([H])[H])c([H])c([H])c2C1([H])[H]

>  <smiles>  (7) 
[H]c1c([H])c([H])c2c(c1[H])C([H])([H])C([H])([H])C([H])([H])C2([H])N([H])C(=O)C1([H])N(C(=O)C([H])(N([H])C(=O)C([H])(N([H])C([H])([H])[H])C([H])([H])[H])C(C([H])([H])[H])(C([H])([H])[H])C([H])([H])[H])C([H])([H])c2c([H])c(OC([H])([H])C(=O)C([H])([H])N3C(=[N+]([H])[H])c4c([H])c(N([H])C(=O)N5C([H])([H])C([H])([H])C([H])([H])C([H])(n6nc(-c7c([H])c([H])c(Oc8c([H])c([H])c(F)c([H])c8F)c([H])c7[H])c(C(=O)N([H])[H])c6N([H])[H])C5([H])[H])c([H])c([H])c4C3([H])[H])c([H])c([H])c2C1([H])[H]

$$$$
7:0:0
     RDKit          3D

 93102  0  0  1  0  0  0  0  0999 V2000
  -30.1500  -17.8030   19.2000 C   0  0  0  0  0  3  0  0  0  0  0  0
  -29.9620  -17.1560   20.4130 C   0  0  0  0  0  0  0  0  0  0  0  0
  -29.5550  -19.7590   20.3490 C   0  0  0  0  0  0  0  0  0  0  0  0
  -29.5960  -23.3830   21.6780 C   0  0  0  0  0  2  0  0  0  0  0  0
  -29.5440  -21.8440   21.8790 C   0  0  0  0  0  2  0  0  0  0  0  0
  -28.5800  -23.6740   20.5680 C   0  0  1  0  0  0  0  0  0  0  0  0
  -28.8920  -22.3260   19.7030 C   0  0  2  0  0  0  0  0  0  0  0  0
  -27.1630  -23.6540   21.1920 C   0  0  0  0  0  1  0  0  0  0  0  0
  -30.0560  -22.5800   18.7160 C   0  0  0  0  0  1  0  0  0  0  0  0
  -27.6700  -21.9130   18.8570 C   0  0  0  0  0  1  0  0  0  0  0  0
  -29.8970  -19.2070   19.1740 N   0  0  0  0  0  0  0  0  0  0  0  0
  -29.2940  -21.1730   20.5970 N   0  0  0  0  0  0  0  0  0  0  0  0
  -29.5060  -18.4400   21.5830 S   0  0  0  0  0  0  0  0  0  0  0  0
  -30.7260  -14.7330   20.2000 C   0  0  0  0  0  0  0  0  0  0  0  0
  -30.5200  -12.4930   19.1200 C   0  0  0  0  0  2  0  0  0  0  0  0
  -29.5420  -12.6300   17.9310 C   0  0  0  0  0  2  0  0  0  0  0  0
  -28.0820  -12.4500   18.3950 C   0  0  0  0  0  2  0  0  0  0  0  0
  -27.7570  -13.2820   19.6650 C   0  0  0  0  0  3  0  0  0  0  0  0
  -28.8470  -13.1130   20.7460 C   0  0  0  0  0  2  0  0  0  0  0  0
  -30.1320  -13.4930   20.1410 N   0  0  0  0  0  0  0  0  0  0  0  0
  -31.8520  -14.9050   19.7220 O   0  0  0  0  0  0  0  0  0  0  0  0
  -29.9830  -15.7830   20.7120 N   0  0  0  0  0  0  0  0  0  0  0  0
  -29.2200  -15.4720   21.2950 H   0  0  0  0  0  0  0  0  0  0  0  0
  -25.3850  -13.8640   20.4600 C   0  0  0  0  0  0  0  0  0  0  0  0
  -24.3310  -13.0850   20.8520 C   0  0  0  0  0  0  0  0  0  0  0  0
  -24.7950  -11.7340   20.7910 C   0  0  0  0  0  0  0  0  0  0  0  0
  -26.4240  -12.9890   20.1850 N   0  0  0  0  0  0  0  0  0  0  0  0
  -26.0760  -11.7010   20.4430 N   0  0  0  0  0  0  0  0  0  0  0  0
  -24.0770  -10.4690   20.9870 C   0  0  0  0  0  0  0  0  0  0  0  0
  -24.5170   -9.5060   21.9220 C   0  0  0  0  0  3  0  0  0  0  0  0
  -23.7950   -8.3070   22.1080 C   0  0  0  0  0  3  0  0  0  0  0  0
  -22.6220   -8.0610   21.3570 C   0  0  0  0  0  0  0  0  0  0  0  0
  -22.2010   -9.0120   20.4100 C   0  0  0  0  0  3  0  0  0  0  0  0
  -22.9230  -10.2030   20.2240 C   0  0  0  0  0  3  0  0  0  0  0  0
  -21.8740   -6.9120   21.4490 O   0  0  0  0  0  0  0  0  0  0  0  0
  -21.8000   -6.1940   22.6150 C   0  0  0  0  0  0  0  0  0  0  0  0
  -21.2900   -6.7540   23.8060 C   0  0  0  0  0  3  0  0  0  0  0  0
  -21.1680   -5.9590   24.9630 C   0  0  0  0  0  3  0  0  0  0  0  0
  -21.5460   -4.6040   24.9300 C   0  0  0  0  0  0  0  0  0  0  0  0
  -22.0460   -4.0420   23.7420 C   0  0  0  0  0  3  0  0  0  0  0  0
  -22.1710   -4.8340   22.5880 C   0  0  0  0  0  0  0  0  0  0  0  0
  -22.6360   -4.2820   21.4400 F   0  0  0  0  0  0  0  0  0  0  0  0
  -21.4220   -3.8380   26.0390 F   0  0  0  0  0  0  0  0  0  0  0  0
  -22.9420  -13.5600   21.1710 C   0  0  0  0  0  0  0  0  0  0  0  0
  -22.2350  -12.8480   22.0430 N   0  0  0  0  0  0  0  0  0  0  0  0
  -22.4910  -14.5950   20.6820 O   0  0  0  0  0  0  0  0  0  0  0  0
  -22.6090  -12.0100   22.4600 H   0  0  0  0  0  0  0  0  0  0  0  0
  -21.3060  -13.1510   22.2980 H   0  0  0  0  0  0  0  0  0  0  0  0
  -25.5440  -15.2370   20.2920 N   0  0  0  0  0  0  0  0  0  0  0  0
  -24.7790  -15.8890   20.4240 H   0  0  0  0  0  0  0  0  0  0  0  0
  -26.3800  -15.6790   19.9330 H   0  0  0  0  0  0  0  0  0  0  0  0
  -28.7220  -25.1270   19.8330 C   0  0  0  0  0  2  0  0  0  0  0  0
  -28.5220  -26.4640   20.4790 O   0  0  0  0  0  0  0  0  0  0  0  0
  -24.6220  -31.8630   23.2570 C   0  0  0  0  0  0  0  0  0  0  0  0
  -27.3890  -27.2910   20.3240 C   0  0  0  0  0  0  0  0  0  0  0  0
  -23.4960  -30.4550   21.5690 C   0  0  0  0  0  3  0  0  0  0  0  0
  -25.0150  -28.9070   20.2010 C   0  0  0  0  0  0  0  0  0  0  0  0
  -26.0380  -30.7820   21.4920 C   0  0  0  0  0  2  0  0  0  0  0  0
  -26.1510  -29.4010   20.8510 C   0  0  0  0  0  0  0  0  0  0  0  0
  -27.3350  -28.6020   20.9050 C   0  0  0  0  0  3  0  0  0  0  0  0
  -26.2300  -26.8560   19.6450 C   0  0  0  0  0  3  0  0  0  0  0  0
  -25.0590  -27.6440   19.5880 C   0  0  0  0  0  3  0  0  0  0  0  0
  -23.7690  -29.7730   20.2010 C   0  0  0  0  0  2  0  0  0  0  0  0
  -24.7350  -31.0540   22.1630 N   0  0  0  0  0  0  0  0  0  0  0  0
  -23.5160  -32.1350   23.7470 O   0  0  0  0  0  0  0  0  0  0  0  0
  -22.7980  -29.4390   22.5050 C   0  0  0  0  0  0  0  0  0  0  0  0
  -21.4710  -29.2900   22.3560 N   0  0  0  0  0  0  0  0  0  0  0  0
  -23.4510  -28.7870   23.3230 O   0  0  0  0  0  0  0  0  0  0  0  0
  -21.0040  -29.8660   21.6690 H   0  0  0  0  0  0  0  0  0  0  0  0
  -18.0540  -28.2060   22.8470 C   0  0  0  0  0  0  0  0  0  0  0  0
  -20.6240  -28.3550   23.0990 C   0  0  0  0  0  3  0  0  0  0  0  0
  -20.6640  -26.9450   22.4670 C   0  0  0  0  0  2  0  0  0  0  0  0
  -19.5420  -26.7050   21.4530 C   0  0  0  0  0  2  0  0  0  0  0  0
  -18.1710  -26.8800   22.1130 C   0  0  0  0  0  2  0  0  0  0  0  0
  -19.2060  -28.9070   23.2940 C   0  0  0  0  0  0  0  0  0  0  0  0
  -19.0430  -30.1520   23.9380 C   0  0  0  0  0  3  0  0  0  0  0  0
  -17.7600  -30.6970   24.1370 C   0  0  0  0  0  3  0  0  0  0  0  0
  -16.6230  -29.9920   23.7070 C   0  0  0  0  0  3  0  0  0  0  0  0
  -16.7710  -28.7470   23.0690 C   0  0  0  0  0  3  0  0  0  0  0  0
  -25.8740  -32.5040   23.9320 C   0  0  0  0  0  3  0  0  0  0  0  0
  -25.5540  -33.9100   24.2250 N   0  0  0  0  0  0  0  0  0  0  0  0
  -25.9090  -34.9480   23.4560 C   0  0  0  0  0  0  0  0  0  0  0  0
  -26.6110  -34.8250   22.4490 O   0  0  0  0  0  0  0  0  0  0  0  0
  -24.9360  -34.0780   25.0040 H   0  0  0  0  0  0  0  0  0  0  0  0
  -24.1980  -36.7360   23.0050 C   0  0  0  0  0  1  0  0  0  0  0  0
  -25.4060  -36.3450   23.8700 C   0  0  0  0  0  3  0  0  0  0  0  0
  -27.5010  -37.2490   24.7770 C   0  0  0  0  0  1  0  0  0  0  0  0
  -26.4440  -37.3950   23.7800 N   0  0  0  0  0  0  0  0  0  0  0  0
  -26.0320  -38.3170   23.8870 H   0  0  0  0  0  0  0  0  0  0  0  0
  -26.3230  -31.7550   25.2480 C   0  0  1  0  0  0  0  0  0  0  0  0
  -25.1750  -31.5330   26.2600 C   0  0  0  0  0  1  0  0  0  0  0  0
  -26.9270  -30.3720   24.9140 C   0  0  0  0  0  1  0  0  0  0  0  0
  -27.4360  -32.5630   25.9580 C   0  0  0  0  0  1  0  0  0  0  0  0
  1  2  2  0
  2 22  1  0
  2 13  1  0
  3 12  1  0
  3 13  1  0
  4  5  1  0
  6  8  1  1
  6  4  1  0
  7  6  1  0
  7 12  1  0
  7  9  1  6
 10  7  1  0
 11  1  1  0
 11  3  2  0
 12  5  1  0
 14 22  1  0
 15 20  1  0
 16 17  1  0
 16 15  1  0
 18 17  1  0
 18 27  1  0
 18 19  1  0
 20 14  1  0
 20 19  1  0
 21 14  2  0
 22 23  1  0
 24 25  2  0
 25 44  1  0
 26 25  1  0
 26 29  1  0
 27 28  1  0
 27 24  1  0
 28 26  2  0
 29 30  1  0
 30 31  2  0
 32 35  1  0
 32 31  1  0
 33 32  2  0
 34 33  1  0
 34 29  2  0
 35 36  1  0
 36 37  1  0
 37 38  2  0
 39 38  1  0
 39 43  1  0
 40 39  2  0
 41 36  2  0
 41 40  1  0
 42 41  1  0
 44 45  1  0
 45 48  1  0
 45 47  1  0
 46 44  2  0
 49 50  1  0
 49 24  1  0
 51 49  1  0
 52 53  1  0
 52  6  1  0
 54 65  2  0
 55 53  1  0
 55 60  1  0
 56 64  1  0
 56 66  1  0
 57 63  1  0
 57 59  1  0
 58 64  1  0
 59 60  2  0
 59 58  1  0
 61 55  2  0
 62 61  1  0
 62 57  2  0
 63 56  1  0
 64 54  1  0
 66 68  2  0
 67 66  1  0
 69 67  1  0
 70 79  2  0
 70 75  1  0
 71 67  1  0
 71 75  1  0
 72 71  1  0
 73 74  1  0
 73 72  1  0
 74 70  1  0
 75 76  2  0
 76 77  1  0
 78 77  2  0
 79 78  1  0
 80 54  1  0
 80 81  1  0
 80 90  1  0
 81 84  1  0
 82 86  1  0
 82 81  1  0
 83 82  2  0
 86 85  1  0
 88 86  1  0
 88 89  1  0
 88 87  1  0
 90 93  1  1
 90 91  1  0
 92 90  1  0
M  ISO  4  14 100  22 100  52 101  53 101
M  END
>  <TORSDO>  (8) 
F 17

>  <SCORE>  (8) 
-14.715

>  <name>  (8) 
7

>  <ligand_id>  (8) 
7

>  <original_smiles>  (8) 
[H]c1nc(N2C([H])([H])C([H])([H])C(C([H])([H])[H])(C([H])([H])Oc3c([H])c([H])c4c(c3[H])C([H])([H])N(C(=O)C([H])(N([H])C(=O)C([H])(N([H])C([H])([H])[H])C([H])([H])[H])C(C([H])([H])[H])(C([H])([H])[H])C([H])([H])[H])C([H])(C(=O)N([H])C3([H])c5c([H])c([H])c([H])c([H])c5C([H])([H])C([H])([H])C3([H])[H])C4([H])[H])C2(C([H])([H])[H])C([H])([H])[H])sc1N([H])C(=O)N1C([H])([H])C([H])([H])C([H])([H])C([H])(n2nc(-c3c([H])c([H])c(Oc4c([H])c([H])c(F)c([H])c4F)c([H])c3[H])c(C(=O)N([H])[H])c2N([H])[H])C1([H])[H]

>  <smiles>  (8) 
[H]c1nc(N2C([H])([H])C([H])([H])C(C([H])([H])[H])(C([H])([H])Oc3c([H])c([H])c4c(c3[H])C([H])([H])N(C(=O)C([H])(N([H])C(=O)C([H])(N([H])C([H])([H])[H])C([H])([H])[H])C(C([H])([H])[H])(C([H])([H])[H])C([H])([H])[H])C([H])(C(=O)N([H])C3([H])c5c([H])c([H])c([H])c([H])c5C([H])([H])C([H])([H])C3([H])[H])C4([H])[H])C2(C([H])([H])[H])C([H])([H])[H])sc1N([H])C(=O)N1C([H])([H])C([H])([H])C([H])([H])C([H])(n2nc(-c3c([H])c([H])c(Oc4c([H])c([H])c(F)c([H])c4F)c([H])c3[H])c(C(=O)N([H])[H])c2N([H])[H])C1([H])[H]

$$$$
8:0:0
     RDKit          3D

 95104  0  0  1  0  0  0  0  0999 V2000
  -29.8410  -20.9700   21.6250 C   0  0  0  0  0  3  0  0  0  0  0  0
  -29.7560  -23.8470   19.2270 C   0  0  0  0  0  2  0  0  0  0  0  0
  -29.9810  -22.3360   19.4840 C   0  0  0  0  0  2  0  0  0  0  0  0
  -29.1900  -23.4120   21.4780 C   0  0  0  0  0  2  0  0  0  0  0  0
  -28.7240  -24.2970   20.2850 C   0  0  2  0  0  0  0  0  0  0  0  0
  -27.2980  -23.8710   19.8640 C   0  0  0  0  0  1  0  0  0  0  0  0
  -29.6820  -22.1300   20.9090 N   0  0  0  0  0  0  0  0  0  0  0  0
  -29.5330  -20.9940   22.9350 N   0  0  0  0  0  0  0  0  0  0  0  0
  -29.6980  -20.1820   23.5100 H   0  0  0  0  0  0  0  0  0  0  0  0
  -29.1740  -21.8170   23.3940 H   0  0  0  0  0  0  0  0  0  0  0  0
  -31.4520  -19.3630   20.3770 C   0  0  0  0  0  3  0  0  0  0  0  0
  -31.6250  -17.9530   20.1550 C   0  0  0  0  0  3  0  0  0  0  0  0
  -30.3260  -19.6830   21.0970 C   0  0  0  0  0  0  0  0  0  0  0  0
  -30.6360  -17.1610   20.7060 C   0  0  0  0  0  0  0  0  0  0  0  0
  -29.4580  -18.2040   21.4890 S   0  0  0  0  0  0  0  0  0  0  0  0
  -31.1440  -14.8110   20.0940 C   0  0  0  0  0  0  0  0  0  0  0  0
  -30.8150  -12.6340   18.9580 C   0  0  0  0  0  2  0  0  0  0  0  0
  -29.8340  -12.8510   17.7890 C   0  0  0  0  0  2  0  0  0  0  0  0
  -28.3720  -12.7170   18.2700 C   0  0  0  0  0  2  0  0  0  0  0  0
  -28.0870  -13.5300   19.5620 C   0  0  0  0  0  3  0  0  0  0  0  0
  -29.1880  -13.2980   20.6230 C   0  0  0  0  0  2  0  0  0  0  0  0
  -30.4870  -13.6170   20.0050 N   0  0  0  0  0  0  0  0  0  0  0  0
  -32.2380  -15.0030   19.5570 O   0  0  0  0  0  0  0  0  0  0  0  0
  -30.4570  -15.7990   20.7150 N   0  0  0  0  0  0  0  0  0  0  0  0
  -29.6110  -15.4780   21.1630 H   0  0  0  0  0  0  0  0  0  0  0  0
  -25.7280  -14.1360   20.4010 C   0  0  0  0  0  0  0  0  0  0  0  0
  -24.6700  -13.3640   20.7970 C   0  0  0  0  0  0  0  0  0  0  0  0
  -25.1120  -12.0110   20.7020 C   0  0  0  0  0  0  0  0  0  0  0  0
  -26.7530  -13.2520   20.0930 N   0  0  0  0  0  0  0  0  0  0  0  0
  -26.3850  -11.9660   20.3260 N   0  0  0  0  0  0  0  0  0  0  0  0
  -24.3790  -10.7510   20.8890 C   0  0  0  0  0  0  0  0  0  0  0  0
  -24.7690   -9.8050   21.8640 C   0  0  0  0  0  3  0  0  0  0  0  0
  -24.0370   -8.6120   22.0370 C   0  0  0  0  0  3  0  0  0  0  0  0
  -22.8990   -8.3550   21.2370 C   0  0  0  0  0  0  0  0  0  0  0  0
  -22.5290   -9.2890   20.2530 C   0  0  0  0  0  3  0  0  0  0  0  0
  -23.2630  -10.4730   20.0750 C   0  0  0  0  0  3  0  0  0  0  0  0
  -22.1430   -7.2110   21.3160 O   0  0  0  0  0  0  0  0  0  0  0  0
  -21.9360   -6.5640   22.5100 C   0  0  0  0  0  0  0  0  0  0  0  0
  -21.2940   -7.1950   23.5980 C   0  0  0  0  0  3  0  0  0  0  0  0
  -21.0400   -6.4720   24.7810 C   0  0  0  0  0  3  0  0  0  0  0  0
  -21.4210   -5.1200   24.8740 C   0  0  0  0  0  0  0  0  0  0  0  0
  -22.0540   -4.4890   23.7900 C   0  0  0  0  0  3  0  0  0  0  0  0
  -22.3100   -5.2100   22.6110 C   0  0  0  0  0  0  0  0  0  0  0  0
  -22.9020   -4.5910   21.5610 F   0  0  0  0  0  0  0  0  0  0  0  0
  -21.1710   -4.4230   26.0070 F   0  0  0  0  0  0  0  0  0  0  0  0
  -23.2920  -13.8500   21.1520 C   0  0  0  0  0  0  0  0  0  0  0  0
  -22.6000  -13.1440   22.0390 N   0  0  0  0  0  0  0  0  0  0  0  0
  -22.8390  -14.8910   20.6770 O   0  0  0  0  0  0  0  0  0  0  0  0
  -22.9750  -12.2990   22.4440 H   0  0  0  0  0  0  0  0  0  0  0  0
  -21.6780  -13.4510   22.3150 H   0  0  0  0  0  0  0  0  0  0  0  0
  -25.9000  -15.5100   20.2600 N   0  0  0  0  0  0  0  0  0  0  0  0
  -25.1490  -16.1670   20.4410 H   0  0  0  0  0  0  0  0  0  0  0  0
  -26.7420  -15.9570   19.9180 H   0  0  0  0  0  0  0  0  0  0  0  0
  -28.7570  -25.8350   20.6470 C   0  0  0  0  0  2  0  0  0  0  0  0
  -28.4800  -26.7970   19.5990 O   0  0  0  0  0  0  0  0  0  0  0  0
  -24.6630  -31.7840   23.0860 C   0  0  0  0  0  0  0  0  0  0  0  0
  -27.3170  -27.5400   19.7190 C   0  0  0  0  0  0  0  0  0  0  0  0
  -23.4480  -30.4500   21.3970 C   0  0  0  0  0  3  0  0  0  0  0  0
  -24.8990  -29.0210   19.8590 C   0  0  0  0  0  0  0  0  0  0  0  0
  -25.9650  -30.8630   21.1660 C   0  0  0  0  0  2  0  0  0  0  0  0
  -26.0620  -29.5260   20.4550 C   0  0  0  0  0  0  0  0  0  0  0  0
  -27.2750  -28.7910   20.3860 C   0  0  0  0  0  3  0  0  0  0  0  0
  -26.1390  -27.0710   19.1050 C   0  0  0  0  0  3  0  0  0  0  0  0
  -24.9330  -27.7910   19.1830 C   0  0  0  0  0  3  0  0  0  0  0  0
  -23.6400  -29.8520   19.9780 C   0  0  0  0  0  2  0  0  0  0  0  0
  -24.7120  -31.0450   21.9410 N   0  0  0  0  0  0  0  0  0  0  0  0
  -23.5900  -32.0020   23.6640 O   0  0  0  0  0  0  0  0  0  0  0  0
  -22.8380  -29.3630   22.3130 C   0  0  0  0  0  0  0  0  0  0  0  0
  -21.5160  -29.1530   22.1990 N   0  0  0  0  0  0  0  0  0  0  0  0
  -23.5510  -28.7130   23.0800 O   0  0  0  0  0  0  0  0  0  0  0  0
  -20.9950  -29.7310   21.5550 H   0  0  0  0  0  0  0  0  0  0  0  0
  -18.1790  -27.8620   22.7120 C   0  0  0  0  0  0  0  0  0  0  0  0
  -20.7380  -28.1560   22.9360 C   0  0  0  0  0  3  0  0  0  0  0  0
  -20.8500  -26.7610   22.2780 C   0  0  0  0  0  2  0  0  0  0  0  0
  -19.7310  -26.4760   21.2720 C   0  0  0  0  0  2  0  0  0  0  0  0
  -18.3620  -26.5590   21.9550 C   0  0  0  0  0  2  0  0  0  0  0  0
  -19.2950  -28.6200   23.1590 C   0  0  0  0  0  0  0  0  0  0  0  0
  -19.0680  -29.8450   23.8250 C   0  0  0  0  0  3  0  0  0  0  0  0
  -17.7590  -30.3110   24.0500 C   0  0  0  0  0  3  0  0  0  0  0  0
  -16.6580  -29.5470   23.6240 C   0  0  0  0  0  3  0  0  0  0  0  0
  -16.8700  -28.3260   22.9600 C   0  0  0  0  0  3  0  0  0  0  0  0
  -25.9520  -32.4080   23.7080 C   0  0  0  0  0  3  0  0  0  0  0  0
  -25.6340  -33.7910   24.0850 N   0  0  0  0  0  0  0  0  0  0  0  0
  -25.9430  -34.8700   23.3520 C   0  0  0  0  0  0  0  0  0  0  0  0
  -26.5960  -34.8040   22.3080 O   0  0  0  0  0  0  0  0  0  0  0  0
  -25.0590  -33.9140   24.9060 H   0  0  0  0  0  0  0  0  0  0  0  0
  -24.1910  -36.6500   23.0730 C   0  0  0  0  0  1  0  0  0  0  0  0
  -25.4470  -36.2360   23.8580 C   0  0  0  0  0  3  0  0  0  0  0  0
  -27.5760  -37.1250   24.6960 C   0  0  0  0  0  1  0  0  0  0  0  0
  -26.4640  -37.3060   23.7670 N   0  0  0  0  0  0  0  0  0  0  0  0
  -26.0460  -38.2150   23.9470 H   0  0  0  0  0  0  0  0  0  0  0  0
  -26.4940  -31.6010   24.9520 C   0  0  1  0  0  0  0  0  0  0  0  0
  -25.4190  -31.3080   26.0240 C   0  0  0  0  0  1  0  0  0  0  0  0
  -27.0930  -30.2480   24.5040 C   0  0  0  0  0  1  0  0  0  0  0  0
  -27.6380  -32.3910   25.6310 C   0  0  0  0  0  1  0  0  0  0  0  0
  1  8  1  0
  2  3  1  0
  2  5  1  0
  3  7  1  0
  5  6  1  6
  5 54  1  0
  5  4  1  0
  7  4  1  0
  7  1  1  0
  8 10  1  0
  8  9  1  0
 11 13  2  0
 12 11  1  0
 12 14  2  0
 13 15  1  0
 13  1  1  0
 14 24  1  0
 14 15  1  0
 16 24  1  0
 17 22  1  0
 18 19  1  0
 18 17  1  0
 20 19  1  0
 20 29  1  0
 20 21  1  0
 22 16  1  0
 22 21  1  0
 23 16  2  0
 24 25  1  0
 26 27  2  0
 27 46  1  0
 28 27  1  0
 28 31  1  0
 29 30  1  0
 29 26  1  0
 30 28  2  0
 31 32  1  0
 32 33  2  0
 34 37  1  0
 34 33  1  0
 35 34  2  0
 36 35  1  0
 36 31  2  0
 37 38  1  0
 38 43  2  0
 38 39  1  0
 39 40  2  0
 40 41  1  0
 41 45  1  0
 42 41  2  0
 43 42  1  0
 44 43  1  0
 46 47  1  0
 47 50  1  0
 47 49  1  0
 48 46  2  0
 51 26  1  0
 51 52  1  0
 53 51  1  0
 55 57  1  0
 55 54  1  0
 56 67  2  0
 57 62  1  0
 58 66  1  0
 58 68  1  0
 59 65  1  0
 59 61  1  0
 60 66  1  0
 61 60  1  0
 62 61  2  0
 63 64  1  0
 63 57  2  0
 64 59  2  0
 65 58  1  0
 66 56  1  0
 68 70  2  0
 69 68  1  0
 71 69  1  0
 72 81  2  0
 72 77  1  0
 73 69  1  0
 73 77  1  0
 74 73  1  0
 75 76  1  0
 75 74  1  0
 76 72  1  0
 77 78  2  0
 78 79  1  0
 80 79  2  0
 81 80  1  0
 82 56  1  0
 82 83  1  0
 82 92  1  0
 83 86  1  0
 84 88  1  0
 84 83  1  0
 85 84  2  0
 88 87  1  0
 90 88  1  0
 90 91  1  0
 90 89  1  0
 92 95  1  1
 92 93  1  0
 94 92  1  0
M  ISO  4  16 100  24 100  54 101  55 101
M  END
>  <TORSDO>  (9) 
F 18

>  <SCORE>  (9) 
-13.362

>  <name>  (9) 
8

>  <ligand_id>  (9) 
8

>  <original_smiles>  (9) 
[H]c1c(C(N2C([H])([H])C([H])([H])C(C([H])([H])[H])(C([H])([H])Oc3c([H])c([H])c4c(c3[H])C([H])([H])N(C(=O)C([H])(N([H])C(=O)C([H])(N([H])C([H])([H])[H])C([H])([H])[H])C(C([H])([H])[H])(C([H])([H])[H])C([H])([H])[H])C([H])(C(=O)N([H])C3([H])c5c([H])c([H])c([H])c([H])c5C([H])([H])C([H])([H])C3([H])[H])C4([H])[H])C2([H])[H])=[N+]([H])[H])sc(N([H])C(=O)N2C([H])([H])C([H])([H])C([H])([H])C([H])(n3nc(-c4c([H])c([H])c(Oc5c([H])c([H])c(F)c([H])c5F)c([H])c4[H])c(C(=O)N([H])[H])c3N([H])[H])C2([H])[H])c1[H]

>  <smiles>  (9) 
[H]c1c(C(N2C([H])([H])C([H])([H])C(C([H])([H])[H])(C([H])([H])Oc3c([H])c([H])c4c(c3[H])C([H])([H])N(C(=O)C([H])(N([H])C(=O)C([H])(N([H])C([H])([H])[H])C([H])([H])[H])C(C([H])([H])[H])(C([H])([H])[H])C([H])([H])[H])C([H])(C(=O)N([H])C3([H])c5c([H])c([H])c([H])c([H])c5C([H])([H])C([H])([H])C3([H])[H])C4([H])[H])C2([H])[H])=[N+]([H])[H])sc(N([H])C(=O)N2C([H])([H])C([H])([H])C([H])([H])C([H])(n3nc(-c4c([H])c([H])c(Oc5c([H])c([H])c(F)c([H])c5F)c([H])c4[H])c(C(=O)N([H])[H])c3N([H])[H])C2([H])[H])c1[H]

$$$$
9:0:0
     RDKit          3D

 97106  0  0  1  0  0  0  0  0999 V2000
  -29.5960  -23.0430   20.7400 C   0  0  0  0  0  3  0  0  0  0  0  0
  -28.9710  -24.2660   20.8690 C   0  0  0  0  0  0  0  0  0  0  0  0
  -31.1650  -21.3170   21.7140 C   0  0  0  0  0  3  0  0  0  0  0  0
  -29.0470  -25.0760   22.1540 C   0  0  0  0  0  2  0  0  0  0  0  0
  -29.5870  -24.2440   23.3080 C   0  0  0  0  0  2  0  0  0  0  0  0
  -30.8200  -23.4740   22.8450 C   0  0  0  0  0  2  0  0  0  0  0  0
  -30.4840  -22.5300   21.7300 N   0  0  0  0  0  0  0  0  0  0  0  0
  -32.2690  -21.2400   22.4720 N   0  0  0  0  0  0  0  0  0  0  0  0
  -32.7510  -20.3570   22.5450 H   0  0  0  0  0  0  0  0  0  0  0  0
  -32.6750  -22.0470   22.9130 H   0  0  0  0  0  0  0  0  0  0  0  0
  -31.9870  -19.1410   20.7650 C   0  0  0  0  0  3  0  0  0  0  0  0
  -31.8030  -17.7510   20.5570 C   0  0  0  0  0  3  0  0  0  0  0  0
  -29.4150  -18.0700   20.7010 C   0  0  0  0  0  3  0  0  0  0  0  0
  -30.8960  -20.0190   21.0160 C   0  0  0  0  0  0  0  0  0  0  0  0
  -30.5090  -17.1680   20.5830 C   0  0  0  0  0  0  0  0  0  0  0  0
  -29.5950  -19.4680   20.9170 C   0  0  0  0  0  0  0  0  0  0  0  0
  -28.5090  -20.2460   21.1410 F   0  0  0  0  0  0  0  0  0  0  0  0
  -30.9810  -14.6860   20.0670 C   0  0  0  0  0  0  0  0  0  0  0  0
  -30.6440  -12.5000   18.9490 C   0  0  0  0  0  2  0  0  0  0  0  0
  -29.6500  -12.6960   17.7840 C   0  0  0  0  0  2  0  0  0  0  0  0
  -28.1930  -12.5720   18.2750 C   0  0  0  0  0  2  0  0  0  0  0  0
  -27.9170  -13.4120   19.5510 C   0  0  0  0  0  3  0  0  0  0  0  0
  -29.0180  -13.1880   20.6120 C   0  0  0  0  0  2  0  0  0  0  0  0
  -30.3140  -13.4970   19.9850 N   0  0  0  0  0  0  0  0  0  0  0  0
  -32.1190  -14.8200   19.6070 O   0  0  0  0  0  0  0  0  0  0  0  0
  -30.2430  -15.7390   20.5210 N   0  0  0  0  0  0  0  0  0  0  0  0
  -29.3380  -15.4580   20.8610 H   0  0  0  0  0  0  0  0  0  0  0  0
  -25.5730  -14.0560   20.3920 C   0  0  0  0  0  0  0  0  0  0  0  0
  -24.5050  -13.3000   20.7940 C   0  0  0  0  0  0  0  0  0  0  0  0
  -24.9300  -11.9390   20.7090 C   0  0  0  0  0  0  0  0  0  0  0  0
  -26.5830  -13.1550   20.0890 N   0  0  0  0  0  0  0  0  0  0  0  0
  -26.2020  -11.8770   20.3380 N   0  0  0  0  0  0  0  0  0  0  0  0
  -24.1810  -10.6900   20.9000 C   0  0  0  0  0  0  0  0  0  0  0  0
  -24.5960   -9.7160   21.8350 C   0  0  0  0  0  3  0  0  0  0  0  0
  -23.8490   -8.5320   22.0140 C   0  0  0  0  0  3  0  0  0  0  0  0
  -22.6720   -8.3140   21.2590 C   0  0  0  0  0  0  0  0  0  0  0  0
  -22.2770   -9.2750   20.3140 C   0  0  0  0  0  3  0  0  0  0  0  0
  -23.0250  -10.4510   20.1310 C   0  0  0  0  0  3  0  0  0  0  0  0
  -21.8970   -7.1830   21.3490 O   0  0  0  0  0  0  0  0  0  0  0  0
  -21.7930   -6.4730   22.5170 C   0  0  0  0  0  0  0  0  0  0  0  0
  -21.3040   -7.0600   23.7050 C   0  0  0  0  0  3  0  0  0  0  0  0
  -21.1480   -6.2750   24.8660 C   0  0  0  0  0  3  0  0  0  0  0  0
  -21.4680   -4.9050   24.8390 C   0  0  0  0  0  0  0  0  0  0  0  0
  -21.9490   -4.3180   23.6570 C   0  0  0  0  0  3  0  0  0  0  0  0
  -22.1080   -5.0980   22.4980 C   0  0  0  0  0  0  0  0  0  0  0  0
  -22.5520   -4.5230   21.3550 F   0  0  0  0  0  0  0  0  0  0  0  0
  -21.3090   -4.1490   25.9500 F   0  0  0  0  0  0  0  0  0  0  0  0
  -23.1340  -13.8030   21.1420 C   0  0  0  0  0  0  0  0  0  0  0  0
  -22.4430  -13.1250   22.0530 N   0  0  0  0  0  0  0  0  0  0  0  0
  -22.6850  -14.8340   20.6410 O   0  0  0  0  0  0  0  0  0  0  0  0
  -22.8200  -12.2930   22.4820 H   0  0  0  0  0  0  0  0  0  0  0  0
  -21.5230  -13.4440   22.3260 H   0  0  0  0  0  0  0  0  0  0  0  0
  -25.7620  -15.4250   20.2370 N   0  0  0  0  0  0  0  0  0  0  0  0
  -25.0040  -16.0860   20.3730 H   0  0  0  0  0  0  0  0  0  0  0  0
  -26.5780  -15.8450   19.8120 H   0  0  0  0  0  0  0  0  0  0  0  0
  -28.1190  -24.9800   19.7910 C   0  0  0  0  0  2  0  0  0  0  0  0
  -28.2530  -26.4450   19.7780 O   0  0  0  0  0  0  0  0  0  0  0  0
  -24.6340  -31.7130   23.0280 C   0  0  0  0  0  0  0  0  0  0  0  0
  -27.1080  -27.2430   19.7850 C   0  0  0  0  0  0  0  0  0  0  0  0
  -23.3560  -30.3480   21.4130 C   0  0  0  0  0  3  0  0  0  0  0  0
  -24.7390  -28.8240   19.9000 C   0  0  0  0  0  0  0  0  0  0  0  0
  -25.8800  -30.6770   21.1240 C   0  0  0  0  0  2  0  0  0  0  0  0
  -25.9290  -29.3110   20.4560 C   0  0  0  0  0  0  0  0  0  0  0  0
  -27.1150  -28.5300   20.3920 C   0  0  0  0  0  3  0  0  0  0  0  0
  -25.9000  -26.8030   19.1950 C   0  0  0  0  0  3  0  0  0  0  0  0
  -24.7250  -27.5740   19.2610 C   0  0  0  0  0  3  0  0  0  0  0  0
  -23.5070  -29.6970   20.0140 C   0  0  0  0  0  2  0  0  0  0  0  0
  -24.6450  -30.9270   21.9130 N   0  0  0  0  0  0  0  0  0  0  0  0
  -23.5750  -31.9830   23.6130 O   0  0  0  0  0  0  0  0  0  0  0  0
  -22.7320  -29.3140   22.3810 C   0  0  0  0  0  0  0  0  0  0  0  0
  -21.4050  -29.1270   22.2880 N   0  0  0  0  0  0  0  0  0  0  0  0
  -23.4390  -28.6850   23.1720 O   0  0  0  0  0  0  0  0  0  0  0  0
  -20.8940  -29.6880   21.6220 H   0  0  0  0  0  0  0  0  0  0  0  0
  -18.0530  -27.8960   22.8510 C   0  0  0  0  0  0  0  0  0  0  0  0
  -20.6140  -28.1770   23.0700 C   0  0  0  0  0  3  0  0  0  0  0  0
  -20.7170  -26.7510   22.4850 C   0  0  0  0  0  2  0  0  0  0  0  0
  -19.5970  -26.4240   21.4920 C   0  0  0  0  0  2  0  0  0  0  0  0
  -18.2280  -26.5520   22.1650 C   0  0  0  0  0  2  0  0  0  0  0  0
  -19.1740  -28.6660   23.2630 C   0  0  0  0  0  0  0  0  0  0  0  0
  -18.9550  -29.9240   23.8640 C   0  0  0  0  0  3  0  0  0  0  0  0
  -17.6490  -30.4120   24.0600 C   0  0  0  0  0  3  0  0  0  0  0  0
  -16.5430  -29.6380   23.6650 C   0  0  0  0  0  3  0  0  0  0  0  0
  -16.7470  -28.3820   23.0680 C   0  0  0  0  0  3  0  0  0  0  0  0
  -25.9450  -32.3260   23.6080 C   0  0  0  0  0  3  0  0  0  0  0  0
  -25.6420  -33.6970   24.0400 N   0  0  0  0  0  0  0  0  0  0  0  0
  -25.9440  -34.7990   23.3430 C   0  0  0  0  0  0  0  0  0  0  0  0
  -26.5790  -34.7680   22.2850 O   0  0  0  0  0  0  0  0  0  0  0  0
  -25.0760  -33.7950   24.8710 H   0  0  0  0  0  0  0  0  0  0  0  0
  -24.2070  -36.6070   23.1480 C   0  0  0  0  0  1  0  0  0  0  0  0
  -25.4640  -36.1520   23.9060 C   0  0  0  0  0  3  0  0  0  0  0  0
  -27.6100  -36.9840   24.7600 C   0  0  0  0  0  1  0  0  0  0  0  0
  -26.4930  -37.2120   23.8460 N   0  0  0  0  0  0  0  0  0  0  0  0
  -26.0900  -38.1210   24.0600 H   0  0  0  0  0  0  0  0  0  0  0  0
  -26.5490  -31.4880   24.8010 C   0  0  1  0  0  0  0  0  0  0  0  0
  -25.5260  -31.1630   25.9140 C   0  0  0  0  0  1  0  0  0  0  0  0
  -27.1280  -30.1490   24.2870 C   0  0  0  0  0  1  0  0  0  0  0  0
  -27.7270  -32.2610   25.4420 C   0  0  0  0  0  1  0  0  0  0  0  0
  1  2  2  0
  1  7  1  0
  2  4  1  0
  3  7  1  0
  3  8  1  0
  4  5  1  0
  6  5  1  0
  7  6  1  0
  8  9  1  0
  8 10  1  0
 11 14  1  0
 12 15  1  0
 12 11  2  0
 13 16  1  0
 14  3  1  0
 15 13  2  0
 16 14  2  0
 16 17  1  0
 18 26  1  0
 19 24  1  0
 20 21  1  0
 20 19  1  0
 22 21  1  0
 22 31  1  0
 22 23  1  0
 24 18  1  0
 24 23  1  0
 25 18  2  0
 26 15  1  0
 26 27  1  0
 28 29  2  0
 29 48  1  0
 30 29  1  0
 30 33  1  0
 31 32  1  0
 31 28  1  0
 32 30  2  0
 33 34  1  0
 34 35  2  0
 36 39  1  0
 36 35  1  0
 37 36  2  0
 38 37  1  0
 38 33  2  0
 39 40  1  0
 40 41  1  0
 41 42  2  0
 43 42  1  0
 43 47  1  0
 44 43  2  0
 45 40  2  0
 45 44  1  0
 46 45  1  0
 48 49  1  0
 49 52  1  0
 49 51  1  0
 50 48  2  0
 53 54  1  0
 53 28  1  0
 55 53  1  0
 56  2  1  0
 57 59  1  0
 57 56  1  0
 58 69  2  0
 59 64  1  0
 60 68  1  0
 60 70  1  0
 61 67  1  0
 61 63  1  0
 62 68  1  0
 63 62  1  0
 64 63  2  0
 65 66  1  0
 65 59  2  0
 66 61  2  0
 67 60  1  0
 68 58  1  0
 70 72  2  0
 71 70  1  0
 73 71  1  0
 74 83  2  0
 74 79  1  0
 75 71  1  0
 75 79  1  0
 76 75  1  0
 77 78  1  0
 77 76  1  0
 78 74  1  0
 79 80  2  0
 80 81  1  0
 82 81  2  0
 83 82  1  0
 84 58  1  0
 84 85  1  0
 84 94  1  0
 85 88  1  0
 86 90  1  0
 86 85  1  0
 87 86  2  0
 90 89  1  0
 92 90  1  0
 92 93  1  0
 92 91  1  0
 94 97  1  1
 94 95  1  0
 96 94  1  0
M  ISO  4  18 100  26 100  56 101  57 101
M  END
>  <TORSDO>  (10) 
F 18

>  <SCORE>  (10) 
-13.785

>  <name>  (10) 
9

>  <ligand_id>  (10) 
9

>  <original_smiles>  (10) 
[H]C1=C(C([H])([H])Oc2c([H])c([H])c3c(c2[H])C([H])([H])N(C(=O)C([H])(N([H])C(=O)C([H])(N([H])C([H])([H])[H])C([H])([H])[H])C(C([H])([H])[H])(C([H])([H])[H])C([H])([H])[H])C([H])(C(=O)N([H])C2([H])c4c([H])c([H])c([H])c([H])c4C([H])([H])C([H])([H])C2([H])[H])C3([H])[H])C([H])([H])C([H])([H])C([H])([H])N1C(c1c([H])c([H])c(N([H])C(=O)N2C([H])([H])C([H])([H])C([H])([H])C([H])(n3nc(-c4c([H])c([H])c(Oc5c([H])c([H])c(F)c([H])c5F)c([H])c4[H])c(C(=O)N([H])[H])c3N([H])[H])C2([H])[H])c([H])c1F)=[N+]([H])[H]

>  <smiles>  (10) 
[H]C1=C(C([H])([H])Oc2c([H])c([H])c3c(c2[H])C([H])([H])N(C(=O)C([H])(N([H])C(=O)C([H])(N([H])C([H])([H])[H])C([H])([H])[H])C(C([H])([H])[H])(C([H])([H])[H])C([H])([H])[H])C([H])(C(=O)N([H])C2([H])c4c([H])c([H])c([H])c([H])c4C([H])([H])C([H])([H])C2([H])[H])C3([H])[H])C([H])([H])C([H])([H])C([H])([H])N1C(c1c([H])c([H])c(N([H])C(=O)N2C([H])([H])C([H])([H])C([H])([H])C([H])(n3nc(-c4c([H])c([H])c(Oc5c([H])c([H])c(F)c([H])c5F)c([H])c4[H])c(C(=O)N([H])[H])c3N([H])[H])C2([H])[H])c([H])c1F)=[N+]([H])[H]

$$$$
10:0:0
     RDKit          3D

 97106  0  0  1  0  0  0  0  0999 V2000
  -32.0590  -19.9920   20.3610 C   0  0  0  0  0  3  0  0  0  0  0  0
  -31.6220  -23.5740   19.6020 C   0  0  0  0  0  2  0  0  0  0  0  0
  -32.3010  -22.2390   19.3280 C   0  0  0  0  0  2  0  0  0  0  0  0
  -30.3350  -21.8850   20.6950 C   0  0  0  0  0  2  0  0  0  0  0  0
  -30.1550  -23.2430   19.9320 C   0  0  2  0  0  0  0  0  0  0  0  0
  -29.3930  -23.0250   18.6050 C   0  0  0  0  0  1  0  0  0  0  0  0
  -31.5690  -21.2490   20.1430 N   0  0  0  0  0  0  0  0  0  0  0  0
  -33.1970  -19.6620   19.7470 N   0  0  0  0  0  0  0  0  0  0  0  0
  -33.6560  -18.7960   19.9910 H   0  0  0  0  0  0  0  0  0  0  0  0
  -33.6620  -20.2920   19.1180 H   0  0  0  0  0  0  0  0  0  0  0  0
  -30.7990  -18.2610   23.4930 C   0  0  0  0  0  3  0  0  0  0  0  0
  -31.2380  -19.2680   22.6110 C   0  0  0  0  0  3  0  0  0  0  0  0
  -30.5810  -16.9500   23.0250 C   0  0  0  0  0  3  0  0  0  0  0  0
  -31.2690  -17.6350   20.7920 C   0  0  0  0  0  3  0  0  0  0  0  0
  -31.4780  -18.9660   21.2530 C   0  0  0  0  0  0  0  0  0  0  0  0
  -30.8170  -16.6130   21.6730 C   0  0  0  0  0  0  0  0  0  0  0  0
  -31.0720  -14.4470   20.3660 C   0  0  0  0  0  0  0  0  0  0  0  0
  -30.6910  -12.3980   19.0210 C   0  0  0  0  0  2  0  0  0  0  0  0
  -29.7310  -12.6830   17.8470 C   0  0  0  0  0  2  0  0  0  0  0  0
  -28.2570  -12.5600   18.2930 C   0  0  0  0  0  2  0  0  0  0  0  0
  -27.9680  -13.3460   19.6010 C   0  0  0  0  0  3  0  0  0  0  0  0
  -29.0260  -12.9940   20.6700 C   0  0  0  0  0  2  0  0  0  0  0  0
  -30.3590  -13.3110   20.1230 N   0  0  0  0  0  0  0  0  0  0  0  0
  -32.1330  -14.7030   19.7870 O   0  0  0  0  0  0  0  0  0  0  0  0
  -30.5120  -15.2690   21.2750 N   0  0  0  0  0  0  0  0  0  0  0  0
  -29.7170  -14.8530   21.7380 H   0  0  0  0  0  0  0  0  0  0  0  0
  -25.5860  -14.0150   20.3350 C   0  0  0  0  0  0  0  0  0  0  0  0
  -24.5020  -13.2710   20.7240 C   0  0  0  0  0  0  0  0  0  0  0  0
  -24.9280  -11.9080   20.6900 C   0  0  0  0  0  0  0  0  0  0  0  0
  -26.6080  -13.1100   20.0920 N   0  0  0  0  0  0  0  0  0  0  0  0
  -26.2140  -11.8370   20.3620 N   0  0  0  0  0  0  0  0  0  0  0  0
  -24.1740  -10.6630   20.8940 C   0  0  0  0  0  0  0  0  0  0  0  0
  -24.5690   -9.7100   21.8600 C   0  0  0  0  0  3  0  0  0  0  0  0
  -23.8200   -8.5310   22.0500 C   0  0  0  0  0  3  0  0  0  0  0  0
  -22.6610   -8.2900   21.2750 C   0  0  0  0  0  0  0  0  0  0  0  0
  -22.2840   -9.2310   20.2990 C   0  0  0  0  0  3  0  0  0  0  0  0
  -23.0350  -10.4020   20.1060 C   0  0  0  0  0  3  0  0  0  0  0  0
  -21.8880   -7.1560   21.3720 O   0  0  0  0  0  0  0  0  0  0  0  0
  -21.7620   -6.4680   22.5540 C   0  0  0  0  0  0  0  0  0  0  0  0
  -21.2710   -7.0840   23.7250 C   0  0  0  0  0  3  0  0  0  0  0  0
  -21.0910   -6.3260   24.8980 C   0  0  0  0  0  3  0  0  0  0  0  0
  -21.3940   -4.9520   24.9010 C   0  0  0  0  0  0  0  0  0  0  0  0
  -21.8760   -4.3300   23.7350 C   0  0  0  0  0  3  0  0  0  0  0  0
  -22.0570   -5.0880   22.5620 C   0  0  0  0  0  0  0  0  0  0  0  0
  -22.5030   -4.4840   21.4350 F   0  0  0  0  0  0  0  0  0  0  0  0
  -21.2130   -4.2210   26.0250 F   0  0  0  0  0  0  0  0  0  0  0  0
  -23.1180  -13.7840   21.0060 C   0  0  0  0  0  0  0  0  0  0  0  0
  -22.3810  -13.1200   21.8920 N   0  0  0  0  0  0  0  0  0  0  0  0
  -22.6950  -14.8070   20.4710 O   0  0  0  0  0  0  0  0  0  0  0  0
  -22.7340  -12.2960   22.3570 H   0  0  0  0  0  0  0  0  0  0  0  0
  -21.4460  -13.4420   22.1040 H   0  0  0  0  0  0  0  0  0  0  0  0
  -25.7790  -15.3800   20.1490 N   0  0  0  0  0  0  0  0  0  0  0  0
  -25.0230  -16.0520   20.2460 H   0  0  0  0  0  0  0  0  0  0  0  0
  -26.6320  -15.7880   19.7830 H   0  0  0  0  0  0  0  0  0  0  0  0
  -29.5930  -24.4610   20.7600 C   0  0  0  0  0  2  0  0  0  0  0  0
  -28.1810  -25.0590   20.5120 C   0  0  0  0  0  2  0  0  0  0  0  0
  -28.3150  -26.5030   20.5070 O   0  0  0  0  0  0  0  0  0  0  0  0
  -24.5970  -31.9050   23.2830 C   0  0  0  0  0  0  0  0  0  0  0  0
  -27.1730  -27.2740   20.4230 C   0  0  0  0  0  0  0  0  0  0  0  0
  -23.3840  -30.4670   21.6800 C   0  0  0  0  0  3  0  0  0  0  0  0
  -24.8260  -28.8550   20.3310 C   0  0  0  0  0  0  0  0  0  0  0  0
  -25.9220  -30.7690   21.5000 C   0  0  0  0  0  2  0  0  0  0  0  0
  -25.9890  -29.3730   20.9120 C   0  0  0  0  0  0  0  0  0  0  0  0
  -27.1710  -28.5900   20.9480 C   0  0  0  0  0  3  0  0  0  0  0  0
  -25.9890  -26.7820   19.8270 C   0  0  0  0  0  3  0  0  0  0  0  0
  -24.8210  -27.5640   19.7810 C   0  0  0  0  0  3  0  0  0  0  0  0
  -23.6010  -29.7410   20.3260 C   0  0  0  0  0  2  0  0  0  0  0  0
  -24.6520  -31.0640   22.2140 N   0  0  0  0  0  0  0  0  0  0  0  0
  -23.5130  -32.2130   23.8040 O   0  0  0  0  0  0  0  0  0  0  0  0
  -22.7070  -29.4870   22.6680 C   0  0  0  0  0  0  0  0  0  0  0  0
  -21.3870  -29.2930   22.5090 N   0  0  0  0  0  0  0  0  0  0  0  0
  -23.3670  -28.9030   23.5290 O   0  0  0  0  0  0  0  0  0  0  0  0
  -20.9160  -29.8100   21.7810 H   0  0  0  0  0  0  0  0  0  0  0  0
  -18.0110  -28.0860   22.9380 C   0  0  0  0  0  0  0  0  0  0  0  0
  -20.5500  -28.3940   23.3030 C   0  0  0  0  0  3  0  0  0  0  0  0
  -20.6970  -26.9330   22.8200 C   0  0  0  0  0  2  0  0  0  0  0  0
  -19.6480  -26.5360   21.7780 C   0  0  0  0  0  2  0  0  0  0  0  0
  -18.2350  -26.7020   22.3500 C   0  0  0  0  0  2  0  0  0  0  0  0
  -19.1020  -28.8870   23.3690 C   0  0  0  0  0  0  0  0  0  0  0  0
  -18.8440  -30.1810   23.8730 C   0  0  0  0  0  3  0  0  0  0  0  0
  -17.5280  -30.6730   23.9510 C   0  0  0  0  0  3  0  0  0  0  0  0
  -16.4520  -29.8710   23.5370 C   0  0  0  0  0  3  0  0  0  0  0  0
  -16.6930  -28.5800   23.0340 C   0  0  0  0  0  3  0  0  0  0  0  0
  -25.8840  -32.5390   23.8900 C   0  0  0  0  0  3  0  0  0  0  0  0
  -26.4070  -31.7810   25.1730 C   0  0  1  0  0  0  0  0  0  0  0  0
  -25.3170  -31.5510   26.2450 C   0  0  0  0  0  1  0  0  0  0  0  0
  -26.9890  -30.3990   24.7920 C   0  0  0  0  0  1  0  0  0  0  0  0
  -27.5600  -32.5820   25.8230 C   0  0  0  0  0  1  0  0  0  0  0  0
  -25.5840  -33.9410   24.2040 N   0  0  0  0  0  0  0  0  0  0  0  0
  -25.9240  -34.9810   23.4310 C   0  0  0  0  0  0  0  0  0  0  0  0
  -26.5940  -34.8620   22.4010 O   0  0  0  0  0  0  0  0  0  0  0  0
  -24.9890  -34.1110   25.0020 H   0  0  0  0  0  0  0  0  0  0  0  0
  -24.2000  -36.7720   23.0570 C   0  0  0  0  0  1  0  0  0  0  0  0
  -25.4430  -36.3760   23.8710 C   0  0  0  0  0  3  0  0  0  0  0  0
  -27.5800  -37.2660   24.6850 C   0  0  0  0  0  1  0  0  0  0  0  0
  -26.4770  -37.4250   23.7410 N   0  0  0  0  0  0  0  0  0  0  0  0
  -26.0740  -38.3460   23.8800 H   0  0  0  0  0  0  0  0  0  0  0  0
  1  8  1  0
  1 15  1  0
  2  5  1  0
  3  2  1  0
  3  7  1  0
  5  6  1  6
  5  4  1  0
  5 55  1  0
  7  1  1  0
  7  4  1  0
  8  9  1  0
 10  8  1  0
 12 11  2  0
 13 11  1  0
 14 15  2  0
 14 16  1  0
 15 12  1  0
 16 13  2  0
 17 25  1  0
 18 23  1  0
 19 20  1  0
 19 18  1  0
 21 20  1  0
 21 30  1  0
 21 22  1  0
 23 17  1  0
 23 22  1  0
 24 17  2  0
 25 16  1  0
 25 26  1  0
 27 28  2  0
 28 47  1  0
 29 28  1  0
 29 32  1  0
 30 27  1  0
 30 31  1  0
 31 29  2  0
 32 33  1  0
 33 34  2  0
 35 38  1  0
 35 34  1  0
 36 35  2  0
 37 36  1  0
 37 32  2  0
 38 39  1  0
 39 44  2  0
 39 40  1  0
 40 41  2  0
 41 42  1  0
 42 46  1  0
 43 42  2  0
 44 43  1  0
 45 44  1  0
 47 48  1  0
 48 51  1  0
 48 50  1  0
 49 47  2  0
 52 53  1  0
 52 27  1  0
 54 52  1  0
 56 55  1  0
 57 56  1  0
 58 69  2  0
 59 57  1  0
 59 64  1  0
 60 68  1  0
 60 70  1  0
 61 63  1  0
 62 68  1  0
 63 64  2  0
 63 62  1  0
 65 59  2  0
 66 65  1  0
 66 61  2  0
 67 61  1  0
 67 60  1  0
 68 58  1  0
 70 72  2  0
 71 70  1  0
 73 71  1  0
 74 83  2  0
 74 79  1  0
 75 71  1  0
 75 79  1  0
 76 75  1  0
 77 78  1  0
 77 76  1  0
 78 74  1  0
 79 80  2  0
 80 81  1  0
 82 81  2  0
 83 82  1  0
 84 58  1  0
 84 89  1  0
 84 85  1  0
 85 88  1  1
 85 86  1  0
 87 85  1  0
 89 92  1  0
 90 94  1  0
 90 89  1  0
 91 90  2  0
 94 93  1  0
 96 94  1  0
 96 97  1  0
 96 95  1  0
M  ISO  4  17 100  25 100  56 101  57 101
M  END
>  <TORSDO>  (11) 
F 19

>  <SCORE>  (11) 
-13.547

>  <name>  (11) 
10

>  <ligand_id>  (11) 
10

>  <original_smiles>  (11) 
[H]c1c([H])c(C(N2C([H])([H])C([H])([H])C(C([H])([H])[H])(C([H])([H])C([H])([H])Oc3c([H])c([H])c4c(c3[H])C([H])([H])N(C(=O)C([H])(N([H])C(=O)C([H])(N([H])C([H])([H])[H])C([H])([H])[H])C(C([H])([H])[H])(C([H])([H])[H])C([H])([H])[H])C([H])(C(=O)N([H])C3([H])c5c([H])c([H])c([H])c([H])c5C([H])([H])C([H])([H])C3([H])[H])C4([H])[H])C2([H])[H])=[N+]([H])[H])c([H])c(N([H])C(=O)N2C([H])([H])C([H])([H])C([H])([H])C([H])(n3nc(-c4c([H])c([H])c(Oc5c([H])c([H])c(F)c([H])c5F)c([H])c4[H])c(C(=O)N([H])[H])c3N([H])[H])C2([H])[H])c1[H]

>  <smiles>  (11) 
[H]c1c([H])c(C(N2C([H])([H])C([H])([H])C(C([H])([H])[H])(C([H])([H])C([H])([H])Oc3c([H])c([H])c4c(c3[H])C([H])([H])N(C(=O)C([H])(N([H])C(=O)C([H])(N([H])C([H])([H])[H])C([H])([H])[H])C(C([H])([H])[H])(C([H])([H])[H])C([H])([H])[H])C([H])(C(=O)N([H])C3([H])c5c([H])c([H])c([H])c([H])c5C([H])([H])C([H])([H])C3([H])[H])C4([H])[H])C2([H])[H])=[N+]([H])[H])c([H])c(N([H])C(=O)N2C([H])([H])C([H])([H])C([H])([H])C([H])(n3nc(-c4c([H])c([H])c(Oc5c([H])c([H])c(F)c([H])c5F)c([H])c4[H])c(C(=O)N([H])[H])c3N([H])[H])C2([H])[H])c1[H]

$$$$
11:0:0
     RDKit          3D

 92100  0  0  1  0  0  0  0  0999 V2000
  -28.4770  -22.2600   20.4400 C   0  0  0  0  0  0  0  0  0  0  0  0
  -29.3350  -21.2800   19.9590 N   0  0  0  0  0  0  0  0  0  0  0  0
  -27.6790  -21.9620   21.3280 O   0  0  0  0  0  0  0  0  0  0  0  0
  -30.0500  -21.6180   19.3300 H   0  0  0  0  0  0  0  0  0  0  0  0
  -28.5750  -17.6770   20.7200 C   0  0  0  0  0  3  0  0  0  0  0  0
  -28.2780  -19.0810   20.5490 C   0  0  0  0  0  3  0  0  0  0  0  0
  -29.8810  -17.2950   20.5000 C   0  0  0  0  0  0  0  0  0  0  0  0
  -29.3380  -19.8920   20.1940 C   0  0  0  0  0  0  0  0  0  0  0  0
  -30.7540  -18.7830   20.0210 S   0  0  0  0  0  0  0  0  0  0  0  0
  -30.4630  -15.9490   20.9260 C   0  0  0  0  0  0  0  0  0  0  0  0
  -30.5520  -15.7370   22.1740 N   0  0  0  0  0  0  0  0  0  0  0  0
  -30.2350  -16.5360   22.7090 H   0  0  0  0  0  0  0  0  0  0  0  0
  -30.9570  -14.8000   19.9450 C   0  0  0  0  0  0  0  0  0  0  0  0
  -30.5990  -12.5710   18.8500 C   0  0  0  0  0  2  0  0  0  0  0  0
  -29.6040  -12.7210   17.6790 C   0  0  0  0  0  2  0  0  0  0  0  0
  -28.1590  -12.5720   18.1890 C   0  0  0  0  0  2  0  0  0  0  0  0
  -27.8840  -13.4340   19.4470 C   0  0  0  0  0  3  0  0  0  0  0  0
  -28.9930  -13.2590   20.5070 C   0  0  0  0  0  2  0  0  0  0  0  0
  -30.2780  -13.5970   19.8740 N   0  0  0  0  0  0  0  0  0  0  0  0
  -32.0070  -14.9580   19.3140 O   0  0  0  0  0  0  0  0  0  0  0  0
  -25.5590  -14.0810   20.3220 C   0  0  0  0  0  0  0  0  0  0  0  0
  -24.4930  -13.3330   20.7380 C   0  0  0  0  0  0  0  0  0  0  0  0
  -24.9090  -11.9690   20.6500 C   0  0  0  0  0  0  0  0  0  0  0  0
  -26.5590  -13.1780   20.0030 N   0  0  0  0  0  0  0  0  0  0  0  0
  -26.1760  -11.9000   20.2590 N   0  0  0  0  0  0  0  0  0  0  0  0
  -24.1560  -10.7260   20.8560 C   0  0  0  0  0  0  0  0  0  0  0  0
  -24.5870   -9.7490   21.7810 C   0  0  0  0  0  3  0  0  0  0  0  0
  -23.8390   -8.5690   21.9790 C   0  0  0  0  0  3  0  0  0  0  0  0
  -22.6450   -8.3550   21.2500 C   0  0  0  0  0  0  0  0  0  0  0  0
  -22.2300   -9.3190   20.3150 C   0  0  0  0  0  3  0  0  0  0  0  0
  -22.9780  -10.4920   20.1170 C   0  0  0  0  0  3  0  0  0  0  0  0
  -21.8670   -7.2260   21.3550 O   0  0  0  0  0  0  0  0  0  0  0  0
  -21.7840   -6.5170   22.5260 C   0  0  0  0  0  0  0  0  0  0  0  0
  -21.3660   -7.1180   23.7330 C   0  0  0  0  0  3  0  0  0  0  0  0
  -21.2300   -6.3350   24.8980 C   0  0  0  0  0  3  0  0  0  0  0  0
  -21.4990   -4.9540   24.8540 C   0  0  0  0  0  0  0  0  0  0  0  0
  -21.9110   -4.3540   23.6520 C   0  0  0  0  0  3  0  0  0  0  0  0
  -22.0510   -5.1330   22.4900 C   0  0  0  0  0  0  0  0  0  0  0  0
  -22.4270   -4.5470   21.3270 F   0  0  0  0  0  0  0  0  0  0  0  0
  -21.3590   -4.2000   25.9690 F   0  0  0  0  0  0  0  0  0  0  0  0
  -23.1320  -13.8480   21.1020 C   0  0  0  0  0  0  0  0  0  0  0  0
  -22.4380  -13.1640   22.0030 N   0  0  0  0  0  0  0  0  0  0  0  0
  -22.6950  -14.8930   20.6200 O   0  0  0  0  0  0  0  0  0  0  0  0
  -22.8070  -12.3160   22.4080 H   0  0  0  0  0  0  0  0  0  0  0  0
  -21.5300  -13.4940   22.2940 H   0  0  0  0  0  0  0  0  0  0  0  0
  -25.7570  -15.4490   20.1660 N   0  0  0  0  0  0  0  0  0  0  0  0
  -25.0020  -16.1110   20.3110 H   0  0  0  0  0  0  0  0  0  0  0  0
  -26.5660  -15.8570   19.7180 H   0  0  0  0  0  0  0  0  0  0  0  0
  -28.4340  -23.7670   19.8650 C   0  0  0  0  0  2  0  0  0  0  0  0
  -27.0000  -24.9480   21.7780 C   0  0  0  0  0  1  0  0  0  0  0  0
  -28.2030  -25.0710   20.8130 C   0  0  0  0  0  3  0  0  0  0  0  0
  -28.3080  -26.4690   20.2580 O   0  0  0  0  0  0  0  0  0  0  0  0
  -24.5230  -31.8840   23.2160 C   0  0  0  0  0  0  0  0  0  0  0  0
  -27.1960  -27.3280   20.2030 C   0  0  0  0  0  0  0  0  0  0  0  0
  -23.3510  -30.4780   21.5630 C   0  0  0  0  0  3  0  0  0  0  0  0
  -24.8260  -28.9340   20.1490 C   0  0  0  0  0  0  0  0  0  0  0  0
  -25.8890  -30.8060   21.4120 C   0  0  0  0  0  2  0  0  0  0  0  0
  -25.9830  -29.4280   20.7650 C   0  0  0  0  0  0  0  0  0  0  0  0
  -27.1720  -28.6380   20.7810 C   0  0  0  0  0  3  0  0  0  0  0  0
  -26.0260  -26.8960   19.5440 C   0  0  0  0  0  3  0  0  0  0  0  0
  -24.8500  -27.6730   19.5280 C   0  0  0  0  0  3  0  0  0  0  0  0
  -23.5810  -29.8020   20.1870 C   0  0  0  0  0  2  0  0  0  0  0  0
  -24.6060  -31.0750   22.1200 N   0  0  0  0  0  0  0  0  0  0  0  0
  -23.4310  -32.1580   23.7350 O   0  0  0  0  0  0  0  0  0  0  0  0
  -22.6810  -29.4580   22.5130 C   0  0  0  0  0  0  0  0  0  0  0  0
  -21.3600  -29.2710   22.3620 N   0  0  0  0  0  0  0  0  0  0  0  0
  -23.3520  -28.8350   23.3410 O   0  0  0  0  0  0  0  0  0  0  0  0
  -20.8770  -29.8310   21.6720 H   0  0  0  0  0  0  0  0  0  0  0  0
  -17.9860  -28.0440   22.7990 C   0  0  0  0  0  0  0  0  0  0  0  0
  -20.5330  -28.3310   23.1190 C   0  0  0  0  0  3  0  0  0  0  0  0
  -20.6640  -26.8980   22.5550 C   0  0  0  0  0  2  0  0  0  0  0  0
  -19.5880  -26.5500   21.5190 C   0  0  0  0  0  2  0  0  0  0  0  0
  -18.1930  -26.6900   22.1370 C   0  0  0  0  0  2  0  0  0  0  0  0
  -19.0860  -28.8220   23.2430 C   0  0  0  0  0  0  0  0  0  0  0  0
  -18.8440  -30.0880   23.8200 C   0  0  0  0  0  3  0  0  0  0  0  0
  -17.5300  -30.5760   23.9610 C   0  0  0  0  0  3  0  0  0  0  0  0
  -16.4440  -29.7960   23.5320 C   0  0  0  0  0  3  0  0  0  0  0  0
  -16.6710  -28.5310   22.9590 C   0  0  0  0  0  3  0  0  0  0  0  0
  -25.7930  -32.5240   23.8560 C   0  0  0  0  0  3  0  0  0  0  0  0
  -26.2820  -31.7650   25.1500 C   0  0  1  0  0  0  0  0  0  0  0  0
  -25.1630  -31.5330   26.1910 C   0  0  0  0  0  1  0  0  0  0  0  0
  -26.8750  -30.3840   24.7850 C   0  0  0  0  0  1  0  0  0  0  0  0
  -27.4190  -32.5660   25.8290 C   0  0  0  0  0  1  0  0  0  0  0  0
  -25.4760  -33.9260   24.1670 N   0  0  0  0  0  0  0  0  0  0  0  0
  -25.8250  -34.9730   23.4070 C   0  0  0  0  0  0  0  0  0  0  0  0
  -26.5160  -34.8590   22.3910 O   0  0  0  0  0  0  0  0  0  0  0  0
  -24.8620  -34.0850   24.9530 H   0  0  0  0  0  0  0  0  0  0  0  0
  -24.1020  -36.7590   23.0020 C   0  0  0  0  0  1  0  0  0  0  0  0
  -25.3280  -36.3650   23.8410 C   0  0  0  0  0  3  0  0  0  0  0  0
  -27.4450  -37.2570   24.7060 C   0  0  0  0  0  1  0  0  0  0  0  0
  -26.3620  -37.4180   23.7380 N   0  0  0  0  0  0  0  0  0  0  0  0
  -25.9540  -38.3380   23.8690 H   0  0  0  0  0  0  0  0  0  0  0  0
  1  3  2  0
  2  8  1  0
  2  1  1  0
  4  2  1  0
  6  5  1  0
  7  5  2  0
  7 10  1  0
  8  6  2  0
  9  8  1  0
  9  7  1  0
 10 11  2  0
 11 12  1  0
 13 10  1  0
 14 19  1  0
 15 16  1  0
 15 14  1  0
 17 16  1  0
 17 24  1  0
 17 18  1  0
 19 13  1  0
 19 18  1  0
 20 13  2  0
 21 22  2  0
 22 41  1  0
 23 22  1  0
 23 26  1  0
 24 25  1  0
 24 21  1  0
 25 23  2  0
 26 27  1  0
 27 28  2  0
 29 32  1  0
 29 28  1  0
 30 29  2  0
 31 30  1  0
 31 26  2  0
 32 33  1  0
 33 34  1  0
 34 35  2  0
 36 35  1  0
 36 40  1  0
 37 36  2  0
 38 33  2  0
 38 37  1  0
 39 38  1  0
 41 42  1  0
 42 45  1  0
 42 44  1  0
 43 41  2  0
 46 47  1  0
 46 21  1  0
 48 46  1  0
 49  1  1  0
 49 51  1  0
 51 50  1  0
 52 51  1  0
 53 64  2  0
 54 52  1  0
 54 59  1  0
 55 63  1  0
 55 65  1  0
 56 62  1  0
 56 58  1  0
 57 63  1  0
 58 59  2  0
 58 57  1  0
 60 54  2  0
 61 60  1  0
 61 56  2  0
 62 55  1  0
 63 53  1  0
 65 67  2  0
 66 65  1  0
 68 66  1  0
 69 78  2  0
 69 74  1  0
 70 66  1  0
 70 74  1  0
 71 70  1  0
 72 73  1  0
 72 71  1  0
 73 69  1  0
 74 75  2  0
 75 76  1  0
 77 76  2  0
 78 77  1  0
 79 53  1  0
 79 84  1  0
 79 80  1  0
 80 83  1  1
 80 81  1  0
 82 80  1  0
 84 87  1  0
 85 89  1  0
 85 84  1  0
 86 85  2  0
 89 88  1  0
 91 89  1  0
 91 92  1  0
 91 90  1  0
M  ISO  4  10 100  13 100  51 101  52 101
M  END
>  <TORSDO>  (12) 
F 20

>  <SCORE>  (12) 
-13.704

>  <name>  (12) 
11

>  <ligand_id>  (12) 
11

>  <original_smiles>  (12) 
[H]N=C(C(=O)N1C([H])([H])C([H])([H])C([H])([H])C([H])(n2nc(-c3c([H])c([H])c(Oc4c([H])c([H])c(F)c([H])c4F)c([H])c3[H])c(C(=O)N([H])[H])c2N([H])[H])C1([H])[H])c1sc(N([H])C(=O)C([H])([H])C([H])(Oc2c([H])c([H])c3c(c2[H])C([H])([H])N(C(=O)C([H])(N([H])C(=O)C([H])(N([H])C([H])([H])[H])C([H])([H])[H])C(C([H])([H])[H])(C([H])([H])[H])C([H])([H])[H])C([H])(C(=O)N([H])C2([H])c4c([H])c([H])c([H])c([H])c4C([H])([H])C([H])([H])C2([H])[H])C3([H])[H])C([H])([H])[H])c([H])c1[H]

>  <smiles>  (12) 
[H]N=C(C(=O)N1C([H])([H])C([H])([H])C([H])([H])C([H])(n2nc(-c3c([H])c([H])c(Oc4c([H])c([H])c(F)c([H])c4F)c([H])c3[H])c(C(=O)N([H])[H])c2N([H])[H])C1([H])[H])c1sc(N([H])C(=O)C([H])([H])C([H])(Oc2c([H])c([H])c3c(c2[H])C([H])([H])N(C(=O)C([H])(N([H])C(=O)C([H])(N([H])C([H])([H])[H])C([H])([H])[H])C(C([H])([H])[H])(C([H])([H])[H])C([H])([H])[H])C([H])(C(=O)N([H])C2([H])c4c([H])c([H])c([H])c([H])c4C([H])([H])C([H])([H])C2([H])[H])C3([H])[H])C([H])([H])[H])c([H])c1[H]

$$$$
12:0:0
     RDKit          3D

 92101  0  0  1  0  0  0  0  0999 V2000
  -27.2770  -21.9790   20.0150 C   0  0  0  0  0  2  0  0  0  0  0  0
  -27.7710  -20.4950   20.3370 C   0  0  0  0  0  2  0  0  0  0  0  0
  -29.5330  -21.8830   19.8460 C   0  0  0  0  0  2  0  0  0  0  0  0
  -28.3960  -23.0350   20.3010 C   0  0  2  0  0  0  0  0  0  0  0  0
  -28.3850  -23.3220   21.8120 C   0  0  0  0  0  1  0  0  0  0  0  0
  -29.2170  -20.3640   20.1120 N   0  0  0  0  0  0  0  0  0  0  0  0
  -31.9110  -18.8660   22.1870 C   0  0  0  0  0  3  0  0  0  0  0  0
  -30.9840  -19.7300   21.7040 C   0  0  0  0  0  0  0  0  0  0  0  0
  -30.0920  -19.2050   20.6650 C   0  0  0  0  0  0  0  0  0  0  0  0
  -30.3380  -17.7150   20.5530 C   0  0  0  0  0  0  0  0  0  0  0  0
  -31.0170  -21.0750   22.3660 C   0  0  0  0  0  1  0  0  0  0  0  0
  -31.7360  -17.3130   21.5550 S   0  0  0  0  0  0  0  0  0  0  0  0
  -30.5260  -15.1510   19.8640 C   0  0  0  0  0  0  0  0  0  0  0  0
  -30.3050  -12.7730   18.9370 C   0  0  0  0  0  2  0  0  0  0  0  0
  -29.2950  -12.6680   17.7740 C   0  0  0  0  0  2  0  0  0  0  0  0
  -27.8710  -12.4520   18.3160 C   0  0  0  0  0  2  0  0  0  0  0  0
  -27.5390  -13.3970   19.5000 C   0  0  0  0  0  3  0  0  0  0  0  0
  -28.6740  -13.4760   20.5440 C   0  0  0  0  0  2  0  0  0  0  0  0
  -29.8740  -13.9080   19.8180 N   0  0  0  0  0  0  0  0  0  0  0  0
  -31.7170  -15.1060   19.5310 O   0  0  0  0  0  0  0  0  0  0  0  0
  -29.8590  -16.4410   20.0120 N   0  0  0  0  0  0  0  0  0  0  0  0
  -28.8580  -16.3920   19.8940 H   0  0  0  0  0  0  0  0  0  0  0  0
  -25.2390  -13.9700   20.4520 C   0  0  0  0  0  0  0  0  0  0  0  0
  -24.1970  -13.1940   20.8780 C   0  0  0  0  0  0  0  0  0  0  0  0
  -24.6420  -11.8410   20.7720 C   0  0  0  0  0  0  0  0  0  0  0  0
  -26.2480  -13.0900   20.1030 N   0  0  0  0  0  0  0  0  0  0  0  0
  -25.9050  -11.8020   20.3640 N   0  0  0  0  0  0  0  0  0  0  0  0
  -23.9130  -10.5810   20.9770 C   0  0  0  0  0  0  0  0  0  0  0  0
  -24.3750   -9.5960   21.8770 C   0  0  0  0  0  3  0  0  0  0  0  0
  -23.6450   -8.4030   22.0710 C   0  0  0  0  0  3  0  0  0  0  0  0
  -22.4370   -8.1880   21.3650 C   0  0  0  0  0  0  0  0  0  0  0  0
  -21.9940   -9.1610   20.4530 C   0  0  0  0  0  3  0  0  0  0  0  0
  -22.7260  -10.3450   20.2570 C   0  0  0  0  0  3  0  0  0  0  0  0
  -21.6740   -7.0500   21.4720 O   0  0  0  0  0  0  0  0  0  0  0  0
  -21.6470   -6.3080   22.6250 C   0  0  0  0  0  0  0  0  0  0  0  0
  -21.2390   -6.8620   23.8590 C   0  0  0  0  0  3  0  0  0  0  0  0
  -21.1590   -6.0460   25.0040 C   0  0  0  0  0  3  0  0  0  0  0  0
  -21.4750   -4.6770   24.9200 C   0  0  0  0  0  0  0  0  0  0  0  0
  -21.8750   -4.1220   23.6910 C   0  0  0  0  0  3  0  0  0  0  0  0
  -21.9570   -4.9350   22.5460 C   0  0  0  0  0  0  0  0  0  0  0  0
  -22.3230   -4.3910   21.3610 F   0  0  0  0  0  0  0  0  0  0  0  0
  -21.3910   -3.8910   26.0180 F   0  0  0  0  0  0  0  0  0  0  0  0
  -22.8300  -13.6780   21.2620 C   0  0  0  0  0  0  0  0  0  0  0  0
  -22.1570  -12.9640   22.1560 N   0  0  0  0  0  0  0  0  0  0  0  0
  -22.3720  -14.7250   20.8070 O   0  0  0  0  0  0  0  0  0  0  0  0
  -22.5420  -12.1170   22.5470 H   0  0  0  0  0  0  0  0  0  0  0  0
  -21.2420  -13.2710   22.4560 H   0  0  0  0  0  0  0  0  0  0  0  0
  -25.4030  -15.3430   20.3010 N   0  0  0  0  0  0  0  0  0  0  0  0
  -24.6500  -15.9960   20.4920 H   0  0  0  0  0  0  0  0  0  0  0  0
  -26.2140  -15.7880   19.8940 H   0  0  0  0  0  0  0  0  0  0  0  0
  -28.1480  -24.6060   19.5840 C   0  0  0  0  0  2  0  0  0  0  0  0
  -28.1650  -26.1100   20.1370 O   0  0  0  0  0  0  0  0  0  0  0  0
  -24.6110  -31.8930   23.1890 C   0  0  0  0  0  0  0  0  0  0  0  0
  -27.1220  -27.1350   20.0600 C   0  0  0  0  0  0  0  0  0  0  0  0
  -23.3870  -30.5070   21.5630 C   0  0  0  0  0  3  0  0  0  0  0  0
  -24.8090  -28.9410   20.0920 C   0  0  0  0  0  0  0  0  0  0  0  0
  -25.9430  -30.7540   21.3580 C   0  0  0  0  0  2  0  0  0  0  0  0
  -26.0020  -29.3620   20.6890 C   0  0  0  0  0  0  0  0  0  0  0  0
  -27.1540  -28.4740   20.6600 C   0  0  0  0  0  3  0  0  0  0  0  0
  -25.9000  -26.8450   19.4140 C   0  0  0  0  0  3  0  0  0  0  0  0
  -24.7740  -27.7010   19.4360 C   0  0  0  0  0  3  0  0  0  0  0  0
  -23.5860  -29.8460   20.1720 C   0  0  0  0  0  2  0  0  0  0  0  0
  -24.6690  -31.0750   22.0890 N   0  0  0  0  0  0  0  0  0  0  0  0
  -23.5330  -32.1720   23.7360 O   0  0  0  0  0  0  0  0  0  0  0  0
  -22.7230  -29.4930   22.5270 C   0  0  0  0  0  0  0  0  0  0  0  0
  -21.3940  -29.3160   22.4210 N   0  0  0  0  0  0  0  0  0  0  0  0
  -23.4090  -28.8660   23.3390 O   0  0  0  0  0  0  0  0  0  0  0  0
  -20.8960  -29.8760   21.7430 H   0  0  0  0  0  0  0  0  0  0  0  0
  -18.0330  -28.0650   22.9490 C   0  0  0  0  0  0  0  0  0  0  0  0
  -20.5900  -28.3690   23.1990 C   0  0  0  0  0  3  0  0  0  0  0  0
  -20.7110  -26.9360   22.6300 C   0  0  0  0  0  2  0  0  0  0  0  0
  -19.6090  -26.5930   21.6240 C   0  0  0  0  0  2  0  0  0  0  0  0
  -18.2280  -26.7180   22.2730 C   0  0  0  0  0  2  0  0  0  0  0  0
  -19.1420  -28.8470   23.3690 C   0  0  0  0  0  0  0  0  0  0  0  0
  -18.9040  -30.1060   23.9610 C   0  0  0  0  0  3  0  0  0  0  0  0
  -17.5910  -30.5820   24.1410 C   0  0  0  0  0  3  0  0  0  0  0  0
  -16.4980  -29.7990   23.7360 C   0  0  0  0  0  3  0  0  0  0  0  0
  -16.7200  -28.5420   23.1430 C   0  0  0  0  0  3  0  0  0  0  0  0
  -25.8950  -32.5320   23.7980 C   0  0  0  0  0  3  0  0  0  0  0  0
  -25.5790  -33.9260   24.1530 N   0  0  0  0  0  0  0  0  0  0  0  0
  -25.8830  -34.9940   23.4050 C   0  0  0  0  0  0  0  0  0  0  0  0
  -26.5230  -34.9110   22.3540 O   0  0  0  0  0  0  0  0  0  0  0  0
  -25.0070  -34.0630   24.9730 H   0  0  0  0  0  0  0  0  0  0  0  0
  -24.1320  -36.7870   23.1400 C   0  0  0  0  0  1  0  0  0  0  0  0
  -25.4040  -36.3750   23.9000 C   0  0  0  0  0  3  0  0  0  0  0  0
  -27.5570  -37.2680   24.6730 C   0  0  0  0  0  1  0  0  0  0  0  0
  -26.4250  -37.4370   23.7670 N   0  0  0  0  0  0  0  0  0  0  0  0
  -26.0180  -38.3530   23.9380 H   0  0  0  0  0  0  0  0  0  0  0  0
  -26.4320  -31.7550   25.0630 C   0  0  1  0  0  0  0  0  0  0  0  0
  -25.3550  -31.5060   26.1450 C   0  0  0  0  0  1  0  0  0  0  0  0
  -27.0160  -30.3820   24.6590 C   0  0  0  0  0  1  0  0  0  0  0  0
  -27.5910  -32.5490   25.7120 C   0  0  0  0  0  1  0  0  0  0  0  0
  1  4  1  0
  1  2  1  0
  3  6  1  0
  3  4  1  0
  4  5  1  1
  6  2  1  0
  6  9  1  0
  8  7  2  0
  8 11  1  0
  9  8  1  0
 10  9  2  0
 10 12  1  0
 12  7  1  0
 13 21  1  0
 14 19  1  0
 15 16  1  0
 15 14  1  0
 17 16  1  0
 17 26  1  0
 17 18  1  0
 19 13  1  0
 19 18  1  0
 20 13  2  0
 21 10  1  0
 22 21  1  0
 23 24  2  0
 24 43  1  0
 25 24  1  0
 25 28  1  0
 26 27  1  0
 26 23  1  0
 27 25  2  0
 28 29  1  0
 29 30  2  0
 31 34  1  0
 31 30  1  0
 32 31  2  0
 33 32  1  0
 33 28  2  0
 34 35  1  0
 35 36  1  0
 36 37  2  0
 38 37  1  0
 38 42  1  0
 39 38  2  0
 40 35  2  0
 40 39  1  0
 41 40  1  0
 43 44  1  0
 44 47  1  0
 44 46  1  0
 45 43  2  0
 48 23  1  0
 48 49  1  0
 50 48  1  0
 51 52  1  0
 51  4  1  0
 53 64  2  0
 54 52  1  0
 54 59  1  0
 55 63  1  0
 55 65  1  0
 56 62  1  0
 56 58  1  0
 57 63  1  0
 58 57  1  0
 59 58  2  0
 60 61  1  0
 60 54  2  0
 61 56  2  0
 62 55  1  0
 63 53  1  0
 65 67  2  0
 66 65  1  0
 68 66  1  0
 69 78  2  0
 69 74  1  0
 70 66  1  0
 70 74  1  0
 71 70  1  0
 72 73  1  0
 72 71  1  0
 73 69  1  0
 74 75  2  0
 75 76  1  0
 77 76  2  0
 78 77  1  0
 79 53  1  0
 79 80  1  0
 79 89  1  0
 80 83  1  0
 81 85  1  0
 81 80  1  0
 82 81  2  0
 85 84  1  0
 87 85  1  0
 87 88  1  0
 87 86  1  0
 89 92  1  1
 89 90  1  0
 91 89  1  0
M  ISO  4  13 100  21 100  51 101  52 101
M  END
>  <TORSDO>  (13) 
F 18

>  <SCORE>  (13) 
-14.647

>  <name>  (13) 
12

>  <ligand_id>  (13) 
12

>  <original_smiles>  (13) 
[H]c1sc(N([H])C(=O)N2C([H])([H])C([H])([H])C([H])([H])C([H])(n3nc(-c4c([H])c([H])c(Oc5c([H])c([H])c(F)c([H])c5F)c([H])c4[H])c(C(=O)N([H])[H])c3N([H])[H])C2([H])[H])c(N2C([H])([H])C([H])([H])C(C([H])([H])[H])(C([H])([H])Oc3c([H])c([H])c4c(c3[H])C([H])([H])N(C(=O)C([H])(N([H])C(=O)C([H])(N([H])C([H])([H])[H])C([H])([H])[H])C(C([H])([H])[H])(C([H])([H])[H])C([H])([H])[H])C([H])(C(=O)N([H])C3([H])c5c([H])c([H])c([H])c([H])c5C([H])([H])C([H])([H])C3([H])[H])C4([H])[H])C2([H])[H])c1C([H])([H])[H]

>  <smiles>  (13) 
[H]c1sc(N([H])C(=O)N2C([H])([H])C([H])([H])C([H])([H])C([H])(n3nc(-c4c([H])c([H])c(Oc5c([H])c([H])c(F)c([H])c5F)c([H])c4[H])c(C(=O)N([H])[H])c3N([H])[H])C2([H])[H])c(N2C([H])([H])C([H])([H])C(C([H])([H])[H])(C([H])([H])Oc3c([H])c([H])c4c(c3[H])C([H])([H])N(C(=O)C([H])(N([H])C(=O)C([H])(N([H])C([H])([H])[H])C([H])([H])[H])C(C([H])([H])[H])(C([H])([H])[H])C([H])([H])[H])C([H])(C(=O)N([H])C3([H])c5c([H])c([H])c([H])c([H])c5C([H])([H])C([H])([H])C3([H])[H])C4([H])[H])C2([H])[H])c1C([H])([H])[H]

$$$$
13:0:0
     RDKit          3D

 97105  0  0  1  0  0  0  0  0999 V2000
  -30.3410  -21.2450   20.3990 C   0  0  0  0  0  0  0  0  0  0  0  0
  -31.5990  -21.4450   20.8300 N   0  0  0  0  0  4  0  0  0  0  0  0
  -29.5320  -22.3630   20.1380 N   0  0  0  0  0  0  0  0  0  0  0  0
  -32.1740  -20.6590   21.0900 H   0  0  0  0  0  0  0  0  0  0  0  0
  -32.0110  -22.3580   20.9460 H   0  0  0  0  0  0  0  0  0  0  0  0
  -28.5740  -22.0520   20.0160 H   0  0  0  0  0  0  0  0  0  0  0  0
  -30.6640  -18.5130   20.4730 C   0  0  0  0  0  3  0  0  0  0  0  0
  -29.8660  -19.7690   20.3020 C   0  0  0  0  0  0  0  0  0  0  0  0
  -29.9500  -17.2920   20.4080 C   0  0  0  0  0  0  0  0  0  0  0  0
  -28.5370  -19.4750   20.1050 C   0  0  0  0  0  0  0  0  0  0  0  0
  -28.2680  -17.7370   20.1350 S   0  0  0  0  0  0  0  0  0  0  0  0
  -30.8940  -14.8680   19.9280 C   0  0  0  0  0  0  0  0  0  0  0  0
  -30.7150  -12.5300   18.9840 C   0  0  0  0  0  2  0  0  0  0  0  0
  -29.7150  -12.5080   17.8020 C   0  0  0  0  0  2  0  0  0  0  0  0
  -28.2680  -12.3360   18.3040 C   0  0  0  0  0  2  0  0  0  0  0  0
  -27.9380  -13.2890   19.4810 C   0  0  0  0  0  3  0  0  0  0  0  0
  -29.0390  -13.2360   20.5650 C   0  0  0  0  0  2  0  0  0  0  0  0
  -30.3160  -13.6070   19.9300 N   0  0  0  0  0  0  0  0  0  0  0  0
  -31.9850  -15.0380   19.3710 O   0  0  0  0  0  0  0  0  0  0  0  0
  -30.1720  -15.8920   20.5330 N   0  0  0  0  0  0  0  0  0  0  0  0
  -29.4480  -15.4700   21.0920 H   0  0  0  0  0  0  0  0  0  0  0  0
  -25.6040  -13.9390   20.3180 C   0  0  0  0  0  0  0  0  0  0  0  0
  -24.5330  -13.1920   20.7320 C   0  0  0  0  0  0  0  0  0  0  0  0
  -24.9530  -11.8280   20.6610 C   0  0  0  0  0  0  0  0  0  0  0  0
  -26.6080  -13.0310   20.0250 N   0  0  0  0  0  0  0  0  0  0  0  0
  -26.2250  -11.7570   20.2870 N   0  0  0  0  0  0  0  0  0  0  0  0
  -24.2000  -10.5830   20.8750 C   0  0  0  0  0  0  0  0  0  0  0  0
  -24.6220   -9.6190   21.8170 C   0  0  0  0  0  3  0  0  0  0  0  0
  -23.8690   -8.4400   22.0220 C   0  0  0  0  0  3  0  0  0  0  0  0
  -22.6820   -8.2190   21.2830 C   0  0  0  0  0  0  0  0  0  0  0  0
  -22.2760   -9.1760   20.3360 C   0  0  0  0  0  3  0  0  0  0  0  0
  -23.0270  -10.3450   20.1300 C   0  0  0  0  0  3  0  0  0  0  0  0
  -21.9060   -7.0930   21.3940 O   0  0  0  0  0  0  0  0  0  0  0  0
  -21.8030   -6.4020   22.5760 C   0  0  0  0  0  0  0  0  0  0  0  0
  -21.3360   -7.0140   23.7590 C   0  0  0  0  0  3  0  0  0  0  0  0
  -21.1810   -6.2480   24.9330 C   0  0  0  0  0  3  0  0  0  0  0  0
  -21.4850   -4.8750   24.9240 C   0  0  0  0  0  0  0  0  0  0  0  0
  -21.9470   -4.2630   23.7440 C   0  0  0  0  0  3  0  0  0  0  0  0
  -22.1040   -5.0240   22.5740 C   0  0  0  0  0  0  0  0  0  0  0  0
  -22.5270   -4.4250   21.4340 F   0  0  0  0  0  0  0  0  0  0  0  0
  -21.3300   -4.1390   26.0490 F   0  0  0  0  0  0  0  0  0  0  0  0
  -23.1700  -13.7080   21.0880 C   0  0  0  0  0  0  0  0  0  0  0  0
  -22.4860  -13.0410   22.0090 N   0  0  0  0  0  0  0  0  0  0  0  0
  -22.7250  -14.7370   20.5830 O   0  0  0  0  0  0  0  0  0  0  0  0
  -22.8580  -12.2040   22.4290 H   0  0  0  0  0  0  0  0  0  0  0  0
  -21.5770  -13.3750   22.2990 H   0  0  0  0  0  0  0  0  0  0  0  0
  -25.8060  -15.3040   20.1470 N   0  0  0  0  0  0  0  0  0  0  0  0
  -25.0690  -15.9870   20.2950 H   0  0  0  0  0  0  0  0  0  0  0  0
  -26.6590  -15.7110   19.7860 H   0  0  0  0  0  0  0  0  0  0  0  0
  -27.4420  -20.3370   19.9460 N   0  0  0  0  0  0  0  0  0  0  0  0
  -27.1950  -20.8730   20.7760 H   0  0  0  0  0  0  0  0  0  0  0  0
  -26.5720  -19.9210   19.6120 H   0  0  0  0  0  0  0  0  0  0  0  0
  -29.6190  -23.9090   20.3730 C   0  0  0  0  0  2  0  0  0  0  0  0
  -29.4610  -25.1700   18.1220 C   0  0  0  0  0  1  0  0  0  0  0  0
  -27.3530  -24.2520   19.1850 C   0  0  0  0  0  1  0  0  0  0  0  0
  -28.7190  -24.9720   19.4720 C   0  0  1  0  0  0  0  0  0  0  0  0
  -28.5910  -26.4240   20.0150 O   0  0  0  0  0  0  0  0  0  0  0  0
  -24.6420  -31.7690   23.1180 C   0  0  0  0  0  0  0  0  0  0  0  0
  -27.4720  -27.3260   19.9230 C   0  0  0  0  0  0  0  0  0  0  0  0
  -23.5310  -30.3990   21.3970 C   0  0  0  0  0  3  0  0  0  0  0  0
  -25.0650  -28.9550   19.9410 C   0  0  0  0  0  0  0  0  0  0  0  0
  -26.0730  -30.7660   21.3150 C   0  0  0  0  0  2  0  0  0  0  0  0
  -26.2090  -29.4120   20.6060 C   0  0  0  0  0  0  0  0  0  0  0  0
  -27.4050  -28.6060   20.5960 C   0  0  0  0  0  3  0  0  0  0  0  0
  -26.3180  -27.0110   19.1700 C   0  0  0  0  0  3  0  0  0  0  0  0
  -25.1290  -27.7640   19.2130 C   0  0  0  0  0  3  0  0  0  0  0  0
  -23.8020  -29.7990   19.9960 C   0  0  0  0  0  2  0  0  0  0  0  0
  -24.7650  -30.9970   22.0000 N   0  0  0  0  0  0  0  0  0  0  0  0
  -23.5350  -32.0020   23.6250 O   0  0  0  0  0  0  0  0  0  0  0  0
  -22.8740  -29.3240   22.2960 C   0  0  0  0  0  0  0  0  0  0  0  0
  -21.5480  -29.1440   22.1550 N   0  0  0  0  0  0  0  0  0  0  0  0
  -23.5520  -28.6570   23.0820 O   0  0  0  0  0  0  0  0  0  0  0  0
  -21.0550  -29.7450   21.5090 H   0  0  0  0  0  0  0  0  0  0  0  0
  -18.1650  -27.9360   22.6310 C   0  0  0  0  0  0  0  0  0  0  0  0
  -20.7330  -28.1580   22.8700 C   0  0  0  0  0  3  0  0  0  0  0  0
  -20.8110  -26.7720   22.1900 C   0  0  0  0  0  2  0  0  0  0  0  0
  -19.6870  -26.5320   21.1750 C   0  0  0  0  0  2  0  0  0  0  0  0
  -18.3200  -26.6390   21.8550 C   0  0  0  0  0  2  0  0  0  0  0  0
  -19.2980  -28.6560   23.0940 C   0  0  0  0  0  0  0  0  0  0  0  0
  -19.1030  -29.8750   23.7770 C   0  0  0  0  0  3  0  0  0  0  0  0
  -17.8050  -30.3710   24.0090 C   0  0  0  0  0  3  0  0  0  0  0  0
  -16.6870  -29.6440   23.5650 C   0  0  0  0  0  3  0  0  0  0  0  0
  -16.8680  -28.4310   22.8780 C   0  0  0  0  0  3  0  0  0  0  0  0
  -25.8860  -32.4200   23.7990 C   0  0  0  0  0  3  0  0  0  0  0  0
  -26.3620  -31.6420   25.0860 C   0  0  1  0  0  0  0  0  0  0  0  0
  -25.2290  -31.3730   26.1020 C   0  0  0  0  0  1  0  0  0  0  0  0
  -26.9890  -30.2780   24.7120 C   0  0  0  0  0  1  0  0  0  0  0  0
  -27.4660  -32.4530   25.8070 C   0  0  0  0  0  1  0  0  0  0  0  0
  -25.5380  -33.8080   24.1330 N   0  0  0  0  0  0  0  0  0  0  0  0
  -25.8640  -34.8770   23.3970 C   0  0  0  0  0  0  0  0  0  0  0  0
  -26.5620  -34.8040   22.3820 O   0  0  0  0  0  0  0  0  0  0  0  0
  -24.9160  -33.9400   24.9180 H   0  0  0  0  0  0  0  0  0  0  0  0
  -24.1030  -36.6370   23.0290 C   0  0  0  0  0  1  0  0  0  0  0  0
  -25.3360  -36.2450   23.8610 C   0  0  0  0  0  3  0  0  0  0  0  0
  -27.4280  -37.1770   24.7570 C   0  0  0  0  0  1  0  0  0  0  0  0
  -26.3440  -37.3260   23.7880 N   0  0  0  0  0  0  0  0  0  0  0  0
  -25.9070  -38.2340   23.9340 H   0  0  0  0  0  0  0  0  0  0  0  0
  1  2  2  0
  2  5  1  0
  2  4  1  0
  3 53  1  0
  3  1  1  0
  6  3  1  0
  8  1  1  0
  8  7  1  0
  9  7  2  0
  9 20  1  0
 10 11  1  0
 10  8  2  0
 11  9  1  0
 12 18  1  0
 12 20  1  0
 13 18  1  0
 14 15  1  0
 14 13  1  0
 16 15  1  0
 16 25  1  0
 16 17  1  0
 18 17  1  0
 19 12  2  0
 20 21  1  0
 22 23  2  0
 23 42  1  0
 24 23  1  0
 24 27  1  0
 25 26  1  0
 25 22  1  0
 26 24  2  0
 27 28  1  0
 28 29  2  0
 30 33  1  0
 30 29  1  0
 31 30  2  0
 32 31  1  0
 32 27  2  0
 33 34  1  0
 34 35  1  0
 35 36  2  0
 37 36  1  0
 37 41  1  0
 38 37  2  0
 39 34  2  0
 39 38  1  0
 40 39  1  0
 42 43  1  0
 43 46  1  0
 43 45  1  0
 44 42  2  0
 47 48  1  0
 47 22  1  0
 49 47  1  0
 50 10  1  0
 50 51  1  0
 52 50  1  0
 56 54  1  6
 55 56  1  0
 56 57  1  0
 56 53  1  0
 58 69  2  0
 59 57  1  0
 59 64  1  0
 60 68  1  0
 60 70  1  0
 61 67  1  0
 61 63  1  0
 62 68  1  0
 63 62  1  0
 64 63  2  0
 65 66  1  0
 65 59  2  0
 66 61  2  0
 67 60  1  0
 68 58  1  0
 70 72  2  0
 71 70  1  0
 73 71  1  0
 74 83  2  0
 74 79  1  0
 75 71  1  0
 75 79  1  0
 76 75  1  0
 77 78  1  0
 77 76  1  0
 78 74  1  0
 79 80  2  0
 80 81  1  0
 82 81  2  0
 83 82  1  0
 84 58  1  0
 84 89  1  0
 84 85  1  0
 85 88  1  1
 85 86  1  0
 87 85  1  0
 89 92  1  0
 90 94  1  0
 90 89  1  0
 91 90  2  0
 94 93  1  0
 96 94  1  0
 96 97  1  0
 96 95  1  0
M  ISO  4  12 100  20 100  56 101  57 101
M  END
>  <TORSDO>  (14) 
F 20

>  <SCORE>  (14) 
-14.064

>  <name>  (14) 
13

>  <ligand_id>  (14) 
13

>  <original_smiles>  (14) 
[H]c1c([H])c([H])c2c(c1[H])C([H])([H])C([H])([H])C([H])([H])C2([H])N([H])C(=O)C1([H])N(C(=O)C([H])(N([H])C(=O)C([H])(N([H])C([H])([H])[H])C([H])([H])[H])C(C([H])([H])[H])(C([H])([H])[H])C([H])([H])[H])C([H])([H])c2c([H])c(OC(C([H])([H])[H])(C([H])([H])[H])C([H])([H])[N+]([H])=C(c3c(N([H])[H])sc(N([H])C(=O)N4C([H])([H])C([H])([H])C([H])([H])C([H])(n5nc(-c6c([H])c([H])c(Oc7c([H])c([H])c(F)c([H])c7F)c([H])c6[H])c(C(=O)N([H])[H])c5N([H])[H])C4([H])[H])c3[H])N([H])[H])c([H])c([H])c2C1([H])[H]

>  <smiles>  (14) 
[H]c1c([H])c([H])c2c(c1[H])C([H])([H])C([H])([H])C([H])([H])C2([H])N([H])C(=O)C1([H])N(C(=O)C([H])(N([H])C(=O)C([H])(N([H])C([H])([H])[H])C([H])([H])[H])C(C([H])([H])[H])(C([H])([H])[H])C([H])([H])[H])C([H])([H])c2c([H])c(OC(C([H])([H])[H])(C([H])([H])[H])C([H])([H])[N+]([H])=C(c3c(N([H])[H])sc(N([H])C(=O)N4C([H])([H])C([H])([H])C([H])([H])C([H])(n5nc(-c6c([H])c([H])c(Oc7c([H])c([H])c(F)c([H])c7F)c([H])c6[H])c(C(=O)N([H])[H])c5N([H])[H])C4([H])[H])c3[H])N([H])[H])c([H])c([H])c2C1([H])[H]

$$$$
14:0:0
     RDKit          3D

 94103  0  0  1  0  0  0  0  0999 V2000
  -29.5500  -23.4700   20.9530 C   0  0  0  0  0  2  0  0  0  0  0  0
  -28.2410  -22.8100   18.9520 C   0  0  0  0  0  2  0  0  0  0  0  0
  -29.5510  -21.9640   21.3990 C   0  0  0  0  0  2  0  0  0  0  0  0
  -28.2150  -21.3340   19.4610 C   0  0  0  0  0  2  0  0  0  0  0  0
  -28.3590  -23.9120   20.0530 C   0  0  1  0  0  0  0  0  0  0  0  0
  -29.3780  -21.0080   20.2900 N   0  0  0  0  0  0  0  0  0  0  0  0
  -30.6120  -14.6210   20.4220 C   0  0  0  0  0  0  0  0  0  0  0  0
  -30.3890  -12.3930   19.3510 C   0  0  0  0  0  2  0  0  0  0  0  0
  -29.4440  -12.5360   18.1380 C   0  0  0  0  0  2  0  0  0  0  0  0
  -27.9710  -12.3790   18.5690 C   0  0  0  0  0  2  0  0  0  0  0  0
  -27.6170  -13.2390   19.8130 C   0  0  0  0  0  3  0  0  0  0  0  0
  -28.6780  -13.0740   20.9250 C   0  0  0  0  0  2  0  0  0  0  0  0
  -29.9880  -13.4050   20.3450 N   0  0  0  0  0  0  0  0  0  0  0  0
  -31.7800  -14.7670   20.0480 O   0  0  0  0  0  0  0  0  0  0  0  0
  -31.0600  -19.1450   20.6690 C   0  0  0  0  0  0  0  0  0  0  0  0
  -29.7820  -19.6410   20.4580 C   0  0  0  0  0  0  0  0  0  0  0  0
  -29.9820  -17.1060   20.6230 C   0  0  0  0  0  0  0  0  0  0  0  0
  -32.3160  -19.9550   20.7720 C   0  0  0  0  0  1  0  0  0  0  0  0
  -31.1560  -17.7360   20.7630 N   0  0  0  0  0  0  0  0  0  0  0  0
  -29.7950  -15.6710   20.7270 N   0  0  0  0  0  0  0  0  0  0  0  0
  -28.6560  -18.2740   20.3740 S   0  0  0  0  0  0  0  0  0  0  0  0
  -28.8490  -15.3920   20.9240 H   0  0  0  0  0  0  0  0  0  0  0  0
  -25.2240  -13.8450   20.5280 C   0  0  0  0  0  0  0  0  0  0  0  0
  -24.1570  -13.0720   20.9000 C   0  0  0  0  0  0  0  0  0  0  0  0
  -24.6200  -11.7210   20.8730 C   0  0  0  0  0  0  0  0  0  0  0  0
  -26.2680  -12.9630   20.2960 N   0  0  0  0  0  0  0  0  0  0  0  0
  -25.9100  -11.6810   20.5640 N   0  0  0  0  0  0  0  0  0  0  0  0
  -23.8950  -10.4580   21.0650 C   0  0  0  0  0  0  0  0  0  0  0  0
  -24.3370   -9.4850   21.9890 C   0  0  0  0  0  3  0  0  0  0  0  0
  -23.6120   -8.2870   22.1690 C   0  0  0  0  0  3  0  0  0  0  0  0
  -22.4300   -8.0550   21.4260 C   0  0  0  0  0  0  0  0  0  0  0  0
  -22.0060   -9.0170   20.4920 C   0  0  0  0  0  3  0  0  0  0  0  0
  -22.7320  -10.2060   20.3100 C   0  0  0  0  0  3  0  0  0  0  0  0
  -21.6760   -6.9110   21.5160 O   0  0  0  0  0  0  0  0  0  0  0  0
  -21.6490   -6.1550   22.6610 C   0  0  0  0  0  0  0  0  0  0  0  0
  -21.2560   -6.6980   23.9030 C   0  0  0  0  0  3  0  0  0  0  0  0
  -21.1760   -5.8700   25.0410 C   0  0  0  0  0  3  0  0  0  0  0  0
  -21.4780   -4.4990   24.9360 C   0  0  0  0  0  0  0  0  0  0  0  0
  -21.8640   -3.9550   23.6980 C   0  0  0  0  0  3  0  0  0  0  0  0
  -21.9460   -4.7800   22.5630 C   0  0  0  0  0  0  0  0  0  0  0  0
  -22.2980   -4.2470   21.3680 F   0  0  0  0  0  0  0  0  0  0  0  0
  -21.3930   -3.7000   26.0260 F   0  0  0  0  0  0  0  0  0  0  0  0
  -22.7590  -13.5490   21.1700 C   0  0  0  0  0  0  0  0  0  0  0  0
  -22.0310  -12.8530   22.0370 N   0  0  0  0  0  0  0  0  0  0  0  0
  -22.3210  -14.5730   20.6480 O   0  0  0  0  0  0  0  0  0  0  0  0
  -22.4000  -12.0240   22.4790 H   0  0  0  0  0  0  0  0  0  0  0  0
  -21.0950  -13.1550   22.2620 H   0  0  0  0  0  0  0  0  0  0  0  0
  -25.3850  -15.2160   20.3450 N   0  0  0  0  0  0  0  0  0  0  0  0
  -24.6070  -15.8580   20.4400 H   0  0  0  0  0  0  0  0  0  0  0  0
  -26.2130  -15.6540   19.9650 H   0  0  0  0  0  0  0  0  0  0  0  0
  -27.1420  -23.9010   20.7810 O   0  0  0  0  0  0  0  0  0  0  0  0
  -27.0480  -23.0430   21.1740 H   0  0  0  0  0  0  0  0  0  0  0  0
  -28.4980  -25.3530   19.3860 C   0  0  0  0  0  2  0  0  0  0  0  0
  -28.3790  -26.5870   20.1730 O   0  0  0  0  0  0  0  0  0  0  0  0
  -24.6070  -31.8930   23.2280 C   0  0  0  0  0  0  0  0  0  0  0  0
  -27.2150  -27.3650   20.1420 C   0  0  0  0  0  0  0  0  0  0  0  0
  -23.3920  -30.4920   21.5960 C   0  0  0  0  0  3  0  0  0  0  0  0
  -24.8330  -28.9420   20.1650 C   0  0  0  0  0  0  0  0  0  0  0  0
  -25.9260  -30.8200   21.3930 C   0  0  0  0  0  2  0  0  0  0  0  0
  -26.0030  -29.4430   20.7490 C   0  0  0  0  0  0  0  0  0  0  0  0
  -27.1910  -28.6630   20.7320 C   0  0  0  0  0  3  0  0  0  0  0  0
  -26.0110  -26.8940   19.5670 C   0  0  0  0  0  3  0  0  0  0  0  0
  -24.8360  -27.6700   19.5720 C   0  0  0  0  0  3  0  0  0  0  0  0
  -23.5950  -29.8120   20.2170 C   0  0  0  0  0  2  0  0  0  0  0  0
  -24.6610  -31.0860   22.1300 N   0  0  0  0  0  0  0  0  0  0  0  0
  -23.5280  -32.1710   23.7700 O   0  0  0  0  0  0  0  0  0  0  0  0
  -22.7370  -29.4770   22.5620 C   0  0  0  0  0  0  0  0  0  0  0  0
  -21.4110  -29.3000   22.4430 N   0  0  0  0  0  0  0  0  0  0  0  0
  -23.4200  -28.8510   23.3770 O   0  0  0  0  0  0  0  0  0  0  0  0
  -20.9210  -29.8560   21.7560 H   0  0  0  0  0  0  0  0  0  0  0  0
  -18.0360  -28.1100   22.9590 C   0  0  0  0  0  0  0  0  0  0  0  0
  -20.5940  -28.3650   23.2190 C   0  0  0  0  0  3  0  0  0  0  0  0
  -20.6930  -26.9340   22.6440 C   0  0  0  0  0  2  0  0  0  0  0  0
  -19.5860  -26.6110   21.6360 C   0  0  0  0  0  2  0  0  0  0  0  0
  -18.2070  -26.7590   22.2840 C   0  0  0  0  0  2  0  0  0  0  0  0
  -19.1570  -28.8720   23.3820 C   0  0  0  0  0  0  0  0  0  0  0  0
  -18.9410  -30.1370   23.9700 C   0  0  0  0  0  3  0  0  0  0  0  0
  -17.6380  -30.6410   24.1410 C   0  0  0  0  0  3  0  0  0  0  0  0
  -16.5310  -29.8760   23.7330 C   0  0  0  0  0  3  0  0  0  0  0  0
  -16.7310  -28.6130   23.1480 C   0  0  0  0  0  3  0  0  0  0  0  0
  -25.8950  -32.5250   23.8420 C   0  0  0  0  0  3  0  0  0  0  0  0
  -25.5870  -33.9220   24.1780 N   0  0  0  0  0  0  0  0  0  0  0  0
  -25.9130  -34.9770   23.4190 C   0  0  0  0  0  0  0  0  0  0  0  0
  -26.5740  -34.8770   22.3830 O   0  0  0  0  0  0  0  0  0  0  0  0
  -24.9970  -34.0740   24.9840 H   0  0  0  0  0  0  0  0  0  0  0  0
  -24.1760  -36.7660   23.0860 C   0  0  0  0  0  1  0  0  0  0  0  0
  -25.4260  -36.3630   23.8850 C   0  0  0  0  0  3  0  0  0  0  0  0
  -27.5700  -37.2430   24.6950 C   0  0  0  0  0  1  0  0  0  0  0  0
  -26.4540  -37.4200   23.7700 N   0  0  0  0  0  0  0  0  0  0  0  0
  -26.0470  -38.3360   23.9390 H   0  0  0  0  0  0  0  0  0  0  0  0
  -26.4220  -31.7510   25.1120 C   0  0  1  0  0  0  0  0  0  0  0  0
  -25.3380  -31.5110   26.1880 C   0  0  0  0  0  1  0  0  0  0  0  0
  -27.0010  -30.3750   24.7120 C   0  0  0  0  0  1  0  0  0  0  0  0
  -27.5800  -32.5410   25.7660 C   0  0  0  0  0  1  0  0  0  0  0  0
  1  3  1  0
  2  4  1  0
  2  5  1  0
  4  6  1  0
  5 53  1  6
  5 51  1  0
  5  1  1  0
  6 16  1  0
  6  3  1  0
  7 20  1  0
  8 13  1  0
  9 10  1  0
  9  8  1  0
 11 10  1  0
 11 26  1  0
 11 12  1  0
 13  7  1  0
 13 12  1  0
 14  7  2  0
 15 19  1  0
 15 18  1  0
 16 15  2  0
 17 20  1  0
 17 19  2  0
 20 22  1  0
 21 16  1  0
 21 17  1  0
 23 24  2  0
 24 43  1  0
 25 24  1  0
 25 28  1  0
 26 23  1  0
 26 27  1  0
 27 25  2  0
 28 29  1  0
 29 30  2  0
 31 34  1  0
 31 30  1  0
 32 31  2  0
 33 32  1  0
 33 28  2  0
 34 35  1  0
 35 36  1  0
 36 37  2  0
 38 37  1  0
 38 42  1  0
 39 38  2  0
 40 35  2  0
 40 39  1  0
 41 40  1  0
 43 44  1  0
 44 47  1  0
 44 46  1  0
 45 43  2  0
 48 49  1  0
 48 23  1  0
 50 48  1  0
 51 52  1  0
 53 54  1  0
 55 66  2  0
 56 54  1  0
 56 61  1  0
 57 65  1  0
 57 67  1  0
 58 64  1  0
 58 60  1  0
 59 65  1  0
 60 59  1  0
 61 60  2  0
 62 63  1  0
 62 56  2  0
 63 58  2  0
 64 57  1  0
 65 55  1  0
 67 69  2  0
 68 67  1  0
 70 68  1  0
 71 80  2  0
 71 76  1  0
 72 68  1  0
 72 76  1  0
 73 72  1  0
 74 75  1  0
 74 73  1  0
 75 71  1  0
 76 77  2  0
 77 78  1  0
 79 78  2  0
 80 79  1  0
 81 55  1  0
 81 82  1  0
 81 91  1  0
 82 85  1  0
 83 87  1  0
 83 82  1  0
 84 83  2  0
 87 86  1  0
 89 87  1  0
 89 90  1  0
 89 88  1  0
 91 94  1  1
 91 92  1  0
 93 91  1  0
M  ISO  4   7 100  20 100  53 101  54 101
M  END
>  <TORSDO>  (15) 
F 18

>  <SCORE>  (15) 
-15.208

>  <name>  (15) 
14

>  <ligand_id>  (15) 
14

>  <original_smiles>  (15) 
[H]OC1(C([H])([H])Oc2c([H])c([H])c3c(c2[H])C([H])([H])N(C(=O)C([H])(N([H])C(=O)C([H])(N([H])C([H])([H])[H])C([H])([H])[H])C(C([H])([H])[H])(C([H])([H])[H])C([H])([H])[H])C([H])(C(=O)N([H])C2([H])c4c([H])c([H])c([H])c([H])c4C([H])([H])C([H])([H])C2([H])[H])C3([H])[H])C([H])([H])C([H])([H])N(c2sc(N([H])C(=O)N3C([H])([H])C([H])([H])C([H])([H])C([H])(n4nc(-c5c([H])c([H])c(Oc6c([H])c([H])c(F)c([H])c6F)c([H])c5[H])c(C(=O)N([H])[H])c4N([H])[H])C3([H])[H])nc2C([H])([H])[H])C([H])([H])C1([H])[H]

>  <smiles>  (15) 
[H]OC1(C([H])([H])Oc2c([H])c([H])c3c(c2[H])C([H])([H])N(C(=O)C([H])(N([H])C(=O)C([H])(N([H])C([H])([H])[H])C([H])([H])[H])C(C([H])([H])[H])(C([H])([H])[H])C([H])([H])[H])C([H])(C(=O)N([H])C2([H])c4c([H])c([H])c([H])c([H])c4C([H])([H])C([H])([H])C2([H])[H])C3([H])[H])C([H])([H])C([H])([H])N(c2sc(N([H])C(=O)N3C([H])([H])C([H])([H])C([H])([H])C([H])(n4nc(-c5c([H])c([H])c(Oc6c([H])c([H])c(F)c([H])c6F)c([H])c5[H])c(C(=O)N([H])[H])c4N([H])[H])C3([H])[H])nc2C([H])([H])[H])C([H])([H])C1([H])[H]

$$$$
15:0:0
     RDKit          3D

 89 97  0  0  1  0  0  0  0  0999 V2000
  -30.7420  -18.5000   19.7980 C   0  0  0  0  0  3  0  0  0  0  0  0
  -29.7840  -17.6310   20.3280 C   0  0  0  0  0  0  0  0  0  0  0  0
  -29.2830  -20.3580   20.2660 C   0  0  0  0  0  0  0  0  0  0  0  0
  -30.4620  -19.9300   19.7580 N   0  0  0  0  0  0  0  0  0  0  0  0
  -28.7490  -21.7640   20.3640 N   0  0  0  0  0  0  0  0  0  0  0  0
  -28.4570  -18.8010   20.8200 S   0  0  0  0  0  0  0  0  0  0  0  0
  -27.8720  -21.7210   20.8780 H   0  0  0  0  0  0  0  0  0  0  0  0
  -30.5420  -15.0460   20.2060 C   0  0  0  0  0  0  0  0  0  0  0  0
  -30.4680  -12.6860   19.2580 C   0  0  0  0  0  2  0  0  0  0  0  0
  -29.5190  -12.6270   18.0340 C   0  0  0  0  0  2  0  0  0  0  0  0
  -28.0630  -12.3990   18.4780 C   0  0  0  0  0  2  0  0  0  0  0  0
  -27.6580  -13.3130   19.6650 C   0  0  0  0  0  3  0  0  0  0  0  0
  -28.7240  -13.3230   20.7820 C   0  0  0  0  0  2  0  0  0  0  0  0
  -29.9860  -13.7640   20.1700 N   0  0  0  0  0  0  0  0  0  0  0  0
  -31.7280  -15.1510   19.8720 O   0  0  0  0  0  0  0  0  0  0  0  0
  -29.7170  -16.1840   20.4630 N   0  0  0  0  0  0  0  0  0  0  0  0
  -28.8110  -15.8760   20.7850 H   0  0  0  0  0  0  0  0  0  0  0  0
  -25.2750  -13.8670   20.4180 C   0  0  0  0  0  0  0  0  0  0  0  0
  -24.2230  -13.0820   20.7960 C   0  0  0  0  0  0  0  0  0  0  0  0
  -24.7000  -11.7360   20.7640 C   0  0  0  0  0  0  0  0  0  0  0  0
  -26.3260  -13.0000   20.1710 N   0  0  0  0  0  0  0  0  0  0  0  0
  -25.9900  -11.7130   20.4460 N   0  0  0  0  0  0  0  0  0  0  0  0
  -23.9880  -10.4660   20.9600 C   0  0  0  0  0  0  0  0  0  0  0  0
  -24.4140   -9.5180   21.9160 C   0  0  0  0  0  3  0  0  0  0  0  0
  -23.6990   -8.3150   22.1000 C   0  0  0  0  0  3  0  0  0  0  0  0
  -22.5430   -8.0500   21.3270 C   0  0  0  0  0  0  0  0  0  0  0  0
  -22.1360   -8.9880   20.3610 C   0  0  0  0  0  3  0  0  0  0  0  0
  -22.8520  -10.1810   20.1760 C   0  0  0  0  0  3  0  0  0  0  0  0
  -21.8010   -6.8980   21.4190 O   0  0  0  0  0  0  0  0  0  0  0  0
  -21.7220   -6.1840   22.5870 C   0  0  0  0  0  0  0  0  0  0  0  0
  -21.2240   -6.7550   23.7780 C   0  0  0  0  0  3  0  0  0  0  0  0
  -21.0970   -5.9640   24.9380 C   0  0  0  0  0  3  0  0  0  0  0  0
  -21.4560   -4.6040   24.9070 C   0  0  0  0  0  0  0  0  0  0  0  0
  -21.9480   -4.0320   23.7200 C   0  0  0  0  0  3  0  0  0  0  0  0
  -22.0770   -4.8200   22.5630 C   0  0  0  0  0  0  0  0  0  0  0  0
  -22.5300   -4.2580   21.4170 F   0  0  0  0  0  0  0  0  0  0  0  0
  -21.3270   -3.8430   26.0200 F   0  0  0  0  0  0  0  0  0  0  0  0
  -22.8210  -13.5450   21.0730 C   0  0  0  0  0  0  0  0  0  0  0  0
  -22.1010  -12.8370   21.9360 N   0  0  0  0  0  0  0  0  0  0  0  0
  -22.3750  -14.5700   20.5600 O   0  0  0  0  0  0  0  0  0  0  0  0
  -22.4750  -12.0090   22.3740 H   0  0  0  0  0  0  0  0  0  0  0  0
  -21.1610  -13.1300   22.1640 H   0  0  0  0  0  0  0  0  0  0  0  0
  -25.4230  -15.2400   20.2350 N   0  0  0  0  0  0  0  0  0  0  0  0
  -24.6440  -15.8790   20.3450 H   0  0  0  0  0  0  0  0  0  0  0  0
  -26.2470  -15.6840   19.8540 H   0  0  0  0  0  0  0  0  0  0  0  0
  -28.9630  -23.2600   19.9040 C   0  0  0  0  0  2  0  0  0  0  0  0
  -26.6490  -24.1750   20.7030 C   0  0  0  0  0  1  0  0  0  0  0  0
  -28.1110  -24.6130   20.5080 C   0  0  0  0  0  3  0  0  0  0  0  0
  -28.2490  -26.1340   20.0680 O   0  0  0  0  0  0  0  0  0  0  0  0
  -24.5900  -31.8230   23.1320 C   0  0  0  0  0  0  0  0  0  0  0  0
  -27.1920  -27.1340   20.0590 C   0  0  0  0  0  0  0  0  0  0  0  0
  -23.4070  -30.4550   21.4600 C   0  0  0  0  0  3  0  0  0  0  0  0
  -24.8710  -28.9050   20.0210 C   0  0  0  0  0  0  0  0  0  0  0  0
  -25.9640  -30.7150   21.3290 C   0  0  0  0  0  2  0  0  0  0  0  0
  -26.0430  -29.3300   20.6590 C   0  0  0  0  0  0  0  0  0  0  0  0
  -27.2050  -28.4610   20.6620 C   0  0  0  0  0  3  0  0  0  0  0  0
  -26.0090  -26.8440   19.3450 C   0  0  0  0  0  3  0  0  0  0  0  0
  -24.8680  -27.6750   19.3470 C   0  0  0  0  0  3  0  0  0  0  0  0
  -23.6430  -29.8030   20.0710 C   0  0  0  0  0  2  0  0  0  0  0  0
  -24.6730  -31.0200   22.0280 N   0  0  0  0  0  0  0  0  0  0  0  0
  -23.4970  -32.0980   23.6540 O   0  0  0  0  0  0  0  0  0  0  0  0
  -22.7200  -29.4320   22.3980 C   0  0  0  0  0  0  0  0  0  0  0  0
  -21.3890  -29.2820   22.2770 N   0  0  0  0  0  0  0  0  0  0  0  0
  -23.3880  -28.7740   23.2010 O   0  0  0  0  0  0  0  0  0  0  0  0
  -20.9050  -29.8630   21.6070 H   0  0  0  0  0  0  0  0  0  0  0  0
  -17.9910  -28.1390   22.8030 C   0  0  0  0  0  0  0  0  0  0  0  0
  -20.5590  -28.3350   23.0280 C   0  0  0  0  0  3  0  0  0  0  0  0
  -20.6170  -26.9220   22.3990 C   0  0  0  0  0  2  0  0  0  0  0  0
  -19.4890  -26.6640   21.3960 C   0  0  0  0  0  2  0  0  0  0  0  0
  -18.1230  -26.8140   22.0720 C   0  0  0  0  0  2  0  0  0  0  0  0
  -19.1340  -28.8600   23.2370 C   0  0  0  0  0  0  0  0  0  0  0  0
  -18.9540  -30.1030   23.8840 C   0  0  0  0  0  3  0  0  0  0  0  0
  -17.6630  -30.6230   24.0980 C   0  0  0  0  0  3  0  0  0  0  0  0
  -16.5340  -29.8980   23.6770 C   0  0  0  0  0  3  0  0  0  0  0  0
  -16.6990  -28.6580   23.0350 C   0  0  0  0  0  3  0  0  0  0  0  0
  -25.8590  -32.4510   23.7820 C   0  0  0  0  0  3  0  0  0  0  0  0
  -25.5470  -33.8490   24.1200 N   0  0  0  0  0  0  0  0  0  0  0  0
  -25.9000  -34.9120   23.3850 C   0  0  0  0  0  0  0  0  0  0  0  0
  -26.5890  -34.8180   22.3660 O   0  0  0  0  0  0  0  0  0  0  0  0
  -24.9350  -33.9960   24.9100 H   0  0  0  0  0  0  0  0  0  0  0  0
  -24.2010  -36.7320   23.0140 C   0  0  0  0  0  1  0  0  0  0  0  0
  -25.4130  -36.2980   23.8530 C   0  0  0  0  0  3  0  0  0  0  0  0
  -27.5280  -37.1510   24.7660 C   0  0  0  0  0  1  0  0  0  0  0  0
  -26.4590  -37.3420   23.7880 N   0  0  0  0  0  0  0  0  0  0  0  0
  -26.0570  -38.2650   23.9340 H   0  0  0  0  0  0  0  0  0  0  0  0
  -26.3480  -31.6730   25.0660 C   0  0  1  0  0  0  0  0  0  0  0  0
  -25.2350  -31.4350   26.1120 C   0  0  0  0  0  1  0  0  0  0  0  0
  -26.9350  -30.2940   24.6850 C   0  0  0  0  0  1  0  0  0  0  0  0
  -27.4890  -32.4600   25.7520 C   0  0  0  0  0  1  0  0  0  0  0  0
  1  2  2  0
  2 16  1  0
  2  6  1  0
  3  5  1  0
  3  6  1  0
  4  1  1  0
  4  3  2  0
  5  7  1  0
  8 16  1  0
  9 14  1  0
 10 11  1  0
 10  9  1  0
 12 11  1  0
 12 21  1  0
 12 13  1  0
 14  8  1  0
 14 13  1  0
 15  8  2  0
 16 17  1  0
 18 19  2  0
 19 38  1  0
 20 19  1  0
 20 23  1  0
 21 18  1  0
 21 22  1  0
 22 20  2  0
 23 24  1  0
 24 25  2  0
 26 29  1  0
 26 25  1  0
 27 26  2  0
 28 27  1  0
 28 23  2  0
 29 30  1  0
 30 31  1  0
 31 32  2  0
 33 32  1  0
 33 37  1  0
 34 33  2  0
 35 30  2  0
 35 34  1  0
 36 35  1  0
 38 39  1  0
 39 42  1  0
 39 41  1  0
 40 38  2  0
 43 44  1  0
 43 18  1  0
 45 43  1  0
 46  5  1  0
 46 48  1  0
 48 47  1  0
 49 48  1  0
 50 61  2  0
 51 49  1  0
 51 56  1  0
 52 60  1  0
 52 62  1  0
 53 59  1  0
 53 55  1  0
 54 60  1  0
 55 56  2  0
 55 54  1  0
 57 58  1  0
 57 51  2  0
 58 53  2  0
 59 52  1  0
 60 50  1  0
 62 64  2  0
 63 62  1  0
 65 63  1  0
 66 75  2  0
 66 71  1  0
 67 63  1  0
 67 71  1  0
 68 67  1  0
 69 70  1  0
 69 68  1  0
 70 66  1  0
 71 72  2  0
 72 73  1  0
 74 73  2  0
 75 74  1  0
 76 50  1  0
 76 77  1  0
 76 86  1  0
 77 80  1  0
 78 82  1  0
 78 77  1  0
 79 78  2  0
 82 81  1  0
 84 82  1  0
 84 85  1  0
 84 83  1  0
 86 89  1  1
 86 87  1  0
 88 86  1  0
M  ISO  4   8 100  16 100  48 101  49 101
M  END
>  <TORSDO>  (16) 
F 18

>  <SCORE>  (16) 
-14.777

>  <name>  (16) 
15

>  <ligand_id>  (16) 
15

>  <original_smiles>  (16) 
[H]c1nc(N([H])C([H])([H])C([H])(Oc2c([H])c([H])c3c(c2[H])C([H])([H])N(C(=O)C([H])(N([H])C(=O)C([H])(N([H])C([H])([H])[H])C([H])([H])[H])C(C([H])([H])[H])(C([H])([H])[H])C([H])([H])[H])C([H])(C(=O)N([H])C2([H])c4c([H])c([H])c([H])c([H])c4C([H])([H])C([H])([H])C2([H])[H])C3([H])[H])C([H])([H])[H])sc1N([H])C(=O)N1C([H])([H])C([H])([H])C([H])([H])C([H])(n2nc(-c3c([H])c([H])c(Oc4c([H])c([H])c(F)c([H])c4F)c([H])c3[H])c(C(=O)N([H])[H])c2N([H])[H])C1([H])[H]

>  <smiles>  (16) 
[H]c1nc(N([H])C([H])([H])C([H])(Oc2c([H])c([H])c3c(c2[H])C([H])([H])N(C(=O)C([H])(N([H])C(=O)C([H])(N([H])C([H])([H])[H])C([H])([H])[H])C(C([H])([H])[H])(C([H])([H])[H])C([H])([H])[H])C([H])(C(=O)N([H])C2([H])c4c([H])c([H])c([H])c([H])c4C([H])([H])C([H])([H])C2([H])[H])C3([H])[H])C([H])([H])[H])sc1N([H])C(=O)N1C([H])([H])C([H])([H])C([H])([H])C([H])(n2nc(-c3c([H])c([H])c(Oc4c([H])c([H])c(F)c([H])c4F)c([H])c3[H])c(C(=O)N([H])[H])c2N([H])[H])C1([H])[H]

$$$$
16:0:0
     RDKit          3D

 95104  0  0  1  0  0  0  0  0999 V2000
  -30.6240  -14.8110   20.4820 C   0  0  0  0  0  0  0  0  0  0  0  0
  -30.3820  -12.5220   19.4870 C   0  0  0  0  0  2  0  0  0  0  0  0
  -29.4710  -12.5530   18.2440 C   0  0  0  0  0  2  0  0  0  0  0  0
  -28.0030  -12.3800   18.6590 C   0  0  0  0  0  2  0  0  0  0  0  0
  -27.6050  -13.3020   19.8390 C   0  0  0  0  0  3  0  0  0  0  0  0
  -28.6390  -13.2710   20.9840 C   0  0  0  0  0  2  0  0  0  0  0  0
  -29.9420  -13.6080   20.4030 N   0  0  0  0  0  0  0  0  0  0  0  0
  -31.7930  -14.8370   20.0820 O   0  0  0  0  0  0  0  0  0  0  0  0
  -28.7760  -19.6600   20.2890 C   0  0  0  0  0  3  0  0  0  0  0  0
  -30.4780  -20.8440   21.5600 C   0  0  0  0  0  3  0  0  0  0  0  0
  -29.3770  -18.3920   20.6530 C   0  0  0  0  0  0  0  0  0  0  0  0
  -30.4820  -18.3750   21.4730 C   0  0  0  0  0  0  0  0  0  0  0  0
  -29.3190  -20.9370   20.7270 C   0  0  0  0  0  0  0  0  0  0  0  0
  -31.0610  -19.5860   21.9210 C   0  0  0  0  0  0  0  0  0  0  0  0
  -29.0460  -16.9020   20.3050 C   0  0  0  0  0  3  0  0  0  0  0  0
  -30.9090  -16.9310   21.7690 C   0  0  0  0  0  3  0  0  0  0  0  0
  -30.0440  -15.9810   20.9930 N   0  0  0  0  0  0  0  0  0  0  0  0
  -25.2160  -13.9000   20.5360 C   0  0  0  0  0  0  0  0  0  0  0  0
  -24.1430  -13.1300   20.9000 C   0  0  0  0  0  0  0  0  0  0  0  0
  -24.6030  -11.7780   20.8780 C   0  0  0  0  0  0  0  0  0  0  0  0
  -26.2570  -13.0150   20.3130 N   0  0  0  0  0  0  0  0  0  0  0  0
  -25.8970  -11.7350   20.5830 N   0  0  0  0  0  0  0  0  0  0  0  0
  -23.8690  -10.5190   21.0580 C   0  0  0  0  0  0  0  0  0  0  0  0
  -24.2880   -9.5480   21.9940 C   0  0  0  0  0  3  0  0  0  0  0  0
  -23.5510   -8.3550   22.1650 C   0  0  0  0  0  3  0  0  0  0  0  0
  -22.3850   -8.1260   21.3990 C   0  0  0  0  0  0  0  0  0  0  0  0
  -21.9860   -9.0860   20.4520 C   0  0  0  0  0  3  0  0  0  0  0  0
  -22.7220  -10.2700   20.2790 C   0  0  0  0  0  3  0  0  0  0  0  0
  -21.6200   -6.9870   21.4810 O   0  0  0  0  0  0  0  0  0  0  0  0
  -21.5520   -6.2480   22.6350 C   0  0  0  0  0  0  0  0  0  0  0  0
  -21.1170   -6.8070   23.8560 C   0  0  0  0  0  3  0  0  0  0  0  0
  -20.9970   -5.9940   24.9990 C   0  0  0  0  0  3  0  0  0  0  0  0
  -21.3010   -4.6210   24.9240 C   0  0  0  0  0  0  0  0  0  0  0  0
  -21.7290   -4.0610   23.7070 C   0  0  0  0  0  3  0  0  0  0  0  0
  -21.8510   -4.8720   22.5650 C   0  0  0  0  0  0  0  0  0  0  0  0
  -22.2450   -4.3210   21.3910 F   0  0  0  0  0  0  0  0  0  0  0  0
  -21.1790   -3.8370   26.0210 F   0  0  0  0  0  0  0  0  0  0  0  0
  -22.7460  -13.6160   21.1530 C   0  0  0  0  0  0  0  0  0  0  0  0
  -22.0060  -12.9240   22.0150 N   0  0  0  0  0  0  0  0  0  0  0  0
  -22.3210  -14.6420   20.6250 O   0  0  0  0  0  0  0  0  0  0  0  0
  -22.3650  -12.0930   22.4580 H   0  0  0  0  0  0  0  0  0  0  0  0
  -21.0700  -13.2350   22.2320 H   0  0  0  0  0  0  0  0  0  0  0  0
  -25.3890  -15.2680   20.3570 N   0  0  0  0  0  0  0  0  0  0  0  0
  -24.6220  -15.9280   20.4390 H   0  0  0  0  0  0  0  0  0  0  0  0
  -26.2340  -15.6890   19.9950 H   0  0  0  0  0  0  0  0  0  0  0  0
  -32.2160  -19.5270   22.7060 N   0  0  0  0  0  0  0  0  0  0  0  0
  -32.7950  -20.3570   22.7790 H   0  0  0  0  0  0  0  0  0  0  0  0
  -32.7770  -18.6840   22.6430 H   0  0  0  0  0  0  0  0  0  0  0  0
  -28.7090  -22.2030   20.3370 N   0  0  0  0  0  0  0  0  0  0  0  0
  -27.8800  -22.1200   19.7590 H   0  0  0  0  0  0  0  0  0  0  0  0
  -29.1210  -23.6670   20.5590 C   0  0  0  0  0  2  0  0  0  0  0  0
  -27.6970  -24.4670   18.6410 C   0  0  0  0  0  1  0  0  0  0  0  0
  -26.8270  -24.5230   21.0950 C   0  0  0  0  0  1  0  0  0  0  0  0
  -28.0090  -24.8030   20.1260 C   0  0  1  0  0  0  0  0  0  0  0  0
  -28.2540  -26.3230   20.1970 O   0  0  0  0  0  0  0  0  0  0  0  0
  -24.5970  -31.8630   23.2270 C   0  0  0  0  0  0  0  0  0  0  0  0
  -27.1830  -27.2750   20.1050 C   0  0  0  0  0  0  0  0  0  0  0  0
  -23.3960  -30.4910   21.5690 C   0  0  0  0  0  3  0  0  0  0  0  0
  -24.8420  -28.9730   20.1110 C   0  0  0  0  0  0  0  0  0  0  0  0
  -25.9440  -30.7860   21.3970 C   0  0  0  0  0  2  0  0  0  0  0  0
  -26.0200  -29.4170   20.7240 C   0  0  0  0  0  0  0  0  0  0  0  0
  -27.1930  -28.5840   20.7080 C   0  0  0  0  0  3  0  0  0  0  0  0
  -25.9790  -26.9360   19.4420 C   0  0  0  0  0  3  0  0  0  0  0  0
  -24.8310  -27.7440   19.4500 C   0  0  0  0  0  3  0  0  0  0  0  0
  -23.6060  -29.8470   20.1790 C   0  0  0  0  0  2  0  0  0  0  0  0
  -24.6660  -31.0640   22.1220 N   0  0  0  0  0  0  0  0  0  0  0  0
  -23.5120  -32.1390   23.7600 O   0  0  0  0  0  0  0  0  0  0  0  0
  -22.7270  -29.4580   22.5120 C   0  0  0  0  0  0  0  0  0  0  0  0
  -21.3980  -29.2900   22.3930 N   0  0  0  0  0  0  0  0  0  0  0  0
  -23.4040  -28.8110   23.3170 O   0  0  0  0  0  0  0  0  0  0  0  0
  -20.9050  -29.8600   21.7190 H   0  0  0  0  0  0  0  0  0  0  0  0
  -18.0170  -28.1060   22.9060 C   0  0  0  0  0  0  0  0  0  0  0  0
  -20.5800  -28.3440   23.1530 C   0  0  0  0  0  3  0  0  0  0  0  0
  -20.6670  -26.9240   22.5480 C   0  0  0  0  0  2  0  0  0  0  0  0
  -19.5510  -26.6300   21.5400 C   0  0  0  0  0  2  0  0  0  0  0  0
  -18.1750  -26.7710   22.1990 C   0  0  0  0  0  2  0  0  0  0  0  0
  -19.1460  -28.8520   23.3410 C   0  0  0  0  0  0  0  0  0  0  0  0
  -18.9390  -30.1060   23.9560 C   0  0  0  0  0  3  0  0  0  0  0  0
  -17.6390  -30.6090   24.1490 C   0  0  0  0  0  3  0  0  0  0  0  0
  -16.5250  -29.8590   23.7300 C   0  0  0  0  0  3  0  0  0  0  0  0
  -16.7160  -28.6100   23.1150 C   0  0  0  0  0  3  0  0  0  0  0  0
  -25.8760  -32.4880   23.8560 C   0  0  0  0  0  3  0  0  0  0  0  0
  -26.3830  -31.7070   25.1310 C   0  0  1  0  0  0  0  0  0  0  0  0
  -25.2850  -31.4620   26.1920 C   0  0  0  0  0  1  0  0  0  0  0  0
  -26.9610  -30.3290   24.7340 C   0  0  0  0  0  1  0  0  0  0  0  0
  -27.5390  -32.4920   25.7980 C   0  0  0  0  0  1  0  0  0  0  0  0
  -25.5700  -33.8850   24.1960 N   0  0  0  0  0  0  0  0  0  0  0  0
  -25.8920  -34.9410   23.4350 C   0  0  0  0  0  0  0  0  0  0  0  0
  -26.5460  -34.8420   22.3930 O   0  0  0  0  0  0  0  0  0  0  0  0
  -24.9910  -34.0390   25.0060 H   0  0  0  0  0  0  0  0  0  0  0  0
  -24.1520  -36.7320   23.1200 C   0  0  0  0  0  1  0  0  0  0  0  0
  -25.4110  -36.3280   23.9030 C   0  0  0  0  0  3  0  0  0  0  0  0
  -27.5580  -37.2180   24.6970 C   0  0  0  0  0  1  0  0  0  0  0  0
  -26.4380  -37.3830   23.7720 N   0  0  0  0  0  0  0  0  0  0  0  0
  -26.0330  -38.3020   23.9320 H   0  0  0  0  0  0  0  0  0  0  0  0
  1 17  1  0
  2  7  1  0
  3  4  1  0
  3  2  1  0
  5  4  1  0
  5 21  1  0
  5  6  1  0
  7  1  1  0
  7  6  1  0
  8  1  2  0
  9 11  1  0
  9 13  2  0
 10 14  2  0
 11 12  1  0
 12 16  2  0
 12 14  1  0
 13 10  1  0
 14 46  1  0
 15 11  2  0
 15 17  1  0
 17 16  1  0
 18 19  2  0
 19 38  1  0
 20 19  1  0
 20 23  1  0
 21 18  1  0
 21 22  1  0
 22 20  2  0
 23 24  1  0
 24 25  2  0
 26 29  1  0
 26 25  1  0
 27 26  2  0
 28 27  1  0
 28 23  2  0
 29 30  1  0
 30 31  1  0
 31 32  2  0
 33 32  1  0
 33 37  1  0
 34 33  2  0
 35 30  2  0
 35 34  1  0
 36 35  1  0
 38 39  1  0
 39 42  1  0
 39 41  1  0
 40 38  2  0
 43 44  1  0
 43 18  1  0
 45 43  1  0
 46 47  1  0
 48 46  1  0
 49 51  1  0
 49 13  1  0
 50 49  1  0
 54 52  1  6
 54 55  1  0
 54 51  1  0
 54 53  1  0
 56 67  2  0
 57 55  1  0
 57 62  1  0
 58 66  1  0
 58 68  1  0
 59 65  1  0
 59 61  1  0
 60 66  1  0
 61 60  1  0
 62 61  2  0
 63 64  1  0
 63 57  2  0
 64 59  2  0
 65 58  1  0
 66 56  1  0
 68 70  2  0
 69 68  1  0
 71 69  1  0
 72 81  2  0
 72 77  1  0
 73 69  1  0
 73 77  1  0
 74 73  1  0
 75 76  1  0
 75 74  1  0
 76 72  1  0
 77 78  2  0
 78 79  1  0
 80 79  2  0
 81 80  1  0
 82 56  1  0
 82 87  1  0
 82 83  1  0
 83 86  1  1
 83 84  1  0
 85 83  1  0
 87 90  1  0
 88 92  1  0
 88 87  1  0
 89 88  2  0
 92 91  1  0
 94 92  1  0
 94 95  1  0
 94 93  1  0
M  ISO  4   1 100  17 100  54 101  55 101
M  END
>  <TORSDO>  (17) 
F 19

>  <SCORE>  (17) 
-14.817

>  <name>  (17) 
16

>  <ligand_id>  (17) 
16

>  <original_smiles>  (17) 
[H]c1c([H])c([H])c2c(c1[H])C([H])([H])C([H])([H])C([H])([H])C2([H])N([H])C(=O)C1([H])N(C(=O)C([H])(N([H])C(=O)C([H])(N([H])C([H])([H])[H])C([H])([H])[H])C(C([H])([H])[H])(C([H])([H])[H])C([H])([H])[H])C([H])([H])c2c([H])c(OC(C([H])([H])[H])(C([H])([H])[H])C([H])([H])N([H])c3c([H])c(N([H])[H])c4c(c3[H])C([H])([H])N(C(=O)N3C([H])([H])C([H])([H])C([H])([H])C([H])(n5nc(-c6c([H])c([H])c(Oc7c([H])c([H])c(F)c([H])c7F)c([H])c6[H])c(C(=O)N([H])[H])c5N([H])[H])C3([H])[H])C4([H])[H])c([H])c([H])c2C1([H])[H]

>  <smiles>  (17) 
[H]c1c([H])c([H])c2c(c1[H])C([H])([H])C([H])([H])C([H])([H])C2([H])N([H])C(=O)C1([H])N(C(=O)C([H])(N([H])C(=O)C([H])(N([H])C([H])([H])[H])C([H])([H])[H])C(C([H])([H])[H])(C([H])([H])[H])C([H])([H])[H])C([H])([H])c2c([H])c(OC(C([H])([H])[H])(C([H])([H])[H])C([H])([H])N([H])c3c([H])c(N([H])[H])c4c(c3[H])C([H])([H])N(C(=O)N3C([H])([H])C([H])([H])C([H])([H])C([H])(n5nc(-c6c([H])c([H])c(Oc7c([H])c([H])c(F)c([H])c7F)c([H])c6[H])c(C(=O)N([H])[H])c5N([H])[H])C3([H])[H])C4([H])[H])c([H])c([H])c2C1([H])[H]

$$$$
17:0:0
     RDKit          3D

 96104  0  0  1  0  0  0  0  0999 V2000
  -28.5360  -22.7890   20.1290 C   0  0  0  0  0  0  0  0  0  0  0  0
  -28.0190  -22.5670   19.0290 O   0  0  0  0  0  0  0  0  0  0  0  0
  -29.2950  -24.4380   21.9790 C   0  0  0  0  0  1  0  0  0  0  0  0
  -28.3170  -24.1850   20.8040 C   0  0  2  0  0  0  0  0  0  0  0  0
  -26.9200  -24.1270   21.3000 N   0  0  0  0  0  4  0  0  0  0  0  0
  -26.8150  -23.4480   22.0360 H   0  0  0  0  0  0  0  0  0  0  0  0
  -26.3070  -23.8380   20.5540 H   0  0  0  0  0  0  0  0  0  0  0  0
  -26.6100  -25.0150   21.6550 H   0  0  0  0  0  0  0  0  0  0  0  0
  -28.4910  -25.3290   19.7340 C   0  0  0  0  0  2  0  0  0  0  0  0
  -28.4000  -26.6870   20.2310 O   0  0  0  0  0  0  0  0  0  0  0  0
  -24.5740  -31.8910   23.2080 C   0  0  0  0  0  0  0  0  0  0  0  0
  -27.2190  -27.4070   20.1700 C   0  0  0  0  0  0  0  0  0  0  0  0
  -23.3710  -30.4790   21.5760 C   0  0  0  0  0  3  0  0  0  0  0  0
  -24.8270  -28.9300   20.1600 C   0  0  0  0  0  0  0  0  0  0  0  0
  -25.8960  -30.8260   21.3830 C   0  0  0  0  0  2  0  0  0  0  0  0
  -25.9810  -29.4500   20.7540 C   0  0  0  0  0  0  0  0  0  0  0  0
  -27.1770  -28.6940   20.7630 C   0  0  0  0  0  3  0  0  0  0  0  0
  -26.0460  -26.9170   19.5500 C   0  0  0  0  0  3  0  0  0  0  0  0
  -24.8550  -27.6630   19.5560 C   0  0  0  0  0  3  0  0  0  0  0  0
  -23.5850  -29.7940   20.1990 C   0  0  0  0  0  2  0  0  0  0  0  0
  -24.6310  -31.0800   22.1140 N   0  0  0  0  0  0  0  0  0  0  0  0
  -23.4930  -32.1710   23.7440 O   0  0  0  0  0  0  0  0  0  0  0  0
  -22.7220  -29.4620   22.5390 C   0  0  0  0  0  0  0  0  0  0  0  0
  -21.3950  -29.2890   22.4290 N   0  0  0  0  0  0  0  0  0  0  0  0
  -23.4120  -28.8270   23.3420 O   0  0  0  0  0  0  0  0  0  0  0  0
  -20.8900  -29.8710   21.7780 H   0  0  0  0  0  0  0  0  0  0  0  0
  -18.0290  -28.1090   22.9620 C   0  0  0  0  0  0  0  0  0  0  0  0
  -20.5900  -28.3430   23.1980 C   0  0  0  0  0  3  0  0  0  0  0  0
  -20.6760  -26.9190   22.6040 C   0  0  0  0  0  2  0  0  0  0  0  0
  -19.5480  -26.6080   21.6130 C   0  0  0  0  0  2  0  0  0  0  0  0
  -18.1840  -26.7560   22.2930 C   0  0  0  0  0  2  0  0  0  0  0  0
  -19.1590  -28.8600   23.3770 C   0  0  0  0  0  0  0  0  0  0  0  0
  -18.9630  -30.1280   23.9670 C   0  0  0  0  0  3  0  0  0  0  0  0
  -17.6680  -30.6450   24.1450 C   0  0  0  0  0  3  0  0  0  0  0  0
  -16.5500  -29.8900   23.7470 C   0  0  0  0  0  3  0  0  0  0  0  0
  -16.7300  -28.6230   23.1630 C   0  0  0  0  0  3  0  0  0  0  0  0
  -25.8610  -32.5250   23.8210 C   0  0  0  0  0  3  0  0  0  0  0  0
  -25.5510  -33.9200   24.1560 N   0  0  0  0  0  0  0  0  0  0  0  0
  -25.8810  -34.9750   23.3970 C   0  0  0  0  0  0  0  0  0  0  0  0
  -26.5520  -34.8760   22.3660 O   0  0  0  0  0  0  0  0  0  0  0  0
  -24.9560  -34.0720   24.9560 H   0  0  0  0  0  0  0  0  0  0  0  0
  -24.1600  -36.7700   23.0270 C   0  0  0  0  0  1  0  0  0  0  0  0
  -25.3860  -36.3600   23.8570 C   0  0  0  0  0  3  0  0  0  0  0  0
  -27.5010  -37.2440   24.7350 C   0  0  0  0  0  1  0  0  0  0  0  0
  -26.4210  -37.4120   23.7680 N   0  0  0  0  0  0  0  0  0  0  0  0
  -26.0120  -38.3310   23.9070 H   0  0  0  0  0  0  0  0  0  0  0  0
  -26.3920  -31.7520   25.0900 C   0  0  1  0  0  0  0  0  0  0  0  0
  -25.3060  -31.4970   26.1620 C   0  0  0  0  0  1  0  0  0  0  0  0
  -26.9890  -30.3820   24.6910 C   0  0  0  0  0  1  0  0  0  0  0  0
  -27.5360  -32.5540   25.7550 C   0  0  0  0  0  1  0  0  0  0  0  0
  -29.2700  -21.6240   20.8570 C   0  0  0  0  0  2  0  0  0  0  0  0
  -29.3030  -20.3700   20.0730 N   0  0  0  0  0  0  0  0  0  0  0  0
  -28.7460  -20.4080   19.2170 H   0  0  0  0  0  0  0  0  0  0  0  0
  -30.9340  -17.5740   21.9110 C   0  0  0  0  0  3  0  0  0  0  0  0
  -30.6270  -18.9570   21.6840 C   0  0  0  0  0  3  0  0  0  0  0  0
  -30.4180  -16.7140   20.9690 C   0  0  0  0  0  0  0  0  0  0  0  0
  -29.8490  -19.1730   20.5710 C   0  0  0  0  0  0  0  0  0  0  0  0
  -29.5510  -17.6440   19.7520 S   0  0  0  0  0  0  0  0  0  0  0  0
  -30.9390  -14.4870   20.1100 C   0  0  0  0  0  0  0  0  0  0  0  0
  -30.5800  -12.3440   18.9240 C   0  0  0  0  0  2  0  0  0  0  0  0
  -29.5690  -12.5540   17.7780 C   0  0  0  0  0  2  0  0  0  0  0  0
  -28.1190  -12.4150   18.2860 C   0  0  0  0  0  2  0  0  0  0  0  0
  -27.8610  -13.2470   19.5700 C   0  0  0  0  0  3  0  0  0  0  0  0
  -28.9690  -12.9930   20.6150 C   0  0  0  0  0  2  0  0  0  0  0  0
  -30.2700  -13.3030   19.9960 N   0  0  0  0  0  0  0  0  0  0  0  0
  -31.9560  -14.7460   19.4590 O   0  0  0  0  0  0  0  0  0  0  0  0
  -30.4280  -15.3490   21.0140 N   0  0  0  0  0  0  0  0  0  0  0  0
  -29.7450  -14.9310   21.6280 H   0  0  0  0  0  0  0  0  0  0  0  0
  -25.5240  -13.8840   20.4450 C   0  0  0  0  0  0  0  0  0  0  0  0
  -24.4610  -13.1200   20.8570 C   0  0  0  0  0  0  0  0  0  0  0  0
  -24.8880  -11.7610   20.7480 C   0  0  0  0  0  0  0  0  0  0  0  0
  -26.5310  -12.9870   20.1190 N   0  0  0  0  0  0  0  0  0  0  0  0
  -26.1550  -11.7050   20.3570 N   0  0  0  0  0  0  0  0  0  0  0  0
  -24.1450  -10.5090   20.9420 C   0  0  0  0  0  0  0  0  0  0  0  0
  -24.5660   -9.5390   21.8780 C   0  0  0  0  0  3  0  0  0  0  0  0
  -23.8260   -8.3510   22.0590 C   0  0  0  0  0  3  0  0  0  0  0  0
  -22.6490   -8.1260   21.3070 C   0  0  0  0  0  0  0  0  0  0  0  0
  -22.2460   -9.0860   20.3610 C   0  0  0  0  0  3  0  0  0  0  0  0
  -22.9870  -10.2650   20.1780 C   0  0  0  0  0  3  0  0  0  0  0  0
  -21.8790   -6.9910   21.3980 O   0  0  0  0  0  0  0  0  0  0  0  0
  -21.7660   -6.2910   22.5720 C   0  0  0  0  0  0  0  0  0  0  0  0
  -21.2520   -6.8830   23.7460 C   0  0  0  0  0  3  0  0  0  0  0  0
  -21.0890   -6.1080   24.9120 C   0  0  0  0  0  3  0  0  0  0  0  0
  -21.4250   -4.7400   24.9020 C   0  0  0  0  0  0  0  0  0  0  0  0
  -21.9330   -4.1490   23.7320 C   0  0  0  0  0  3  0  0  0  0  0  0
  -22.0990   -4.9210   22.5690 C   0  0  0  0  0  0  0  0  0  0  0  0
  -22.5660   -4.3400   21.4380 F   0  0  0  0  0  0  0  0  0  0  0  0
  -21.2610   -3.9940   26.0190 F   0  0  0  0  0  0  0  0  0  0  0  0
  -23.0970  -13.6160   21.2350 C   0  0  0  0  0  0  0  0  0  0  0  0
  -22.4100  -12.9050   22.1230 N   0  0  0  0  0  0  0  0  0  0  0  0
  -22.6510  -14.6710   20.7840 O   0  0  0  0  0  0  0  0  0  0  0  0
  -22.7860  -12.0510   22.5120 H   0  0  0  0  0  0  0  0  0  0  0  0
  -21.4950  -13.2160   22.4180 H   0  0  0  0  0  0  0  0  0  0  0  0
  -25.7070  -15.2560   20.3070 N   0  0  0  0  0  0  0  0  0  0  0  0
  -24.9660  -15.9210   20.4960 H   0  0  0  0  0  0  0  0  0  0  0  0
  -26.5540  -15.6920   19.9590 H   0  0  0  0  0  0  0  0  0  0  0  0
  1  4  1  0
  1 51  1  0
  2  1  2  0
  4  5  1  0
  4  3  1  1
  5  8  1  0
  5  6  1  0
  7  5  1  0
  9 10  1  0
  9  4  1  0
 11 22  2  0
 12 10  1  0
 12 17  1  0
 13 21  1  0
 13 23  1  0
 14 20  1  0
 14 16  1  0
 15 21  1  0
 16 17  2  0
 16 15  1  0
 18 19  1  0
 18 12  2  0
 19 14  2  0
 20 13  1  0
 21 11  1  0
 23 25  2  0
 24 23  1  0
 26 24  1  0
 27 36  2  0
 27 32  1  0
 28 24  1  0
 28 32  1  0
 29 28  1  0
 30 31  1  0
 30 29  1  0
 31 27  1  0
 32 33  2  0
 33 34  1  0
 35 34  2  0
 36 35  1  0
 37 11  1  0
 37 38  1  0
 37 47  1  0
 38 41  1  0
 39 43  1  0
 39 38  1  0
 40 39  2  0
 43 42  1  0
 45 43  1  0
 45 46  1  0
 45 44  1  0
 47 50  1  1
 47 48  1  0
 49 47  1  0
 52 57  1  0
 52 51  1  0
 53 52  1  0
 55 54  1  0
 56 67  1  0
 56 54  2  0
 57 55  2  0
 58 57  1  0
 58 56  1  0
 59 67  1  0
 60 65  1  0
 61 62  1  0
 61 60  1  0
 63 62  1  0
 63 72  1  0
 63 64  1  0
 65 59  1  0
 65 64  1  0
 66 59  2  0
 67 68  1  0
 69 70  2  0
 70 89  1  0
 71 70  1  0
 71 74  1  0
 72 73  1  0
 72 69  1  0
 73 71  2  0
 74 75  1  0
 75 76  2  0
 77 80  1  0
 77 76  1  0
 78 77  2  0
 79 78  1  0
 79 74  2  0
 80 81  1  0
 81 82  1  0
 82 83  2  0
 84 83  1  0
 84 88  1  0
 85 84  2  0
 86 81  2  0
 86 85  1  0
 87 86  1  0
 89 90  1  0
 90 93  1  0
 90 92  1  0
 91 89  2  0
 94 69  1  0
 94 95  1  0
 96 94  1  0
M  ISO  4   9 101  10 101  59 100  67 100
M  END
>  <TORSDO>  (18) 
F 22

>  <SCORE>  (18) 
-13.311

>  <name>  (18) 
17

>  <ligand_id>  (18) 
17

>  <original_smiles>  (18) 
[H]c1c(N([H])C(=O)N2C([H])([H])C([H])([H])C([H])([H])C([H])(n3nc(-c4c([H])c([H])c(Oc5c([H])c([H])c(F)c([H])c5F)c([H])c4[H])c(C(=O)N([H])[H])c3N([H])[H])C2([H])[H])sc(N([H])C([H])([H])C(=O)C(C([H])([H])[H])(C([H])([H])Oc2c([H])c([H])c3c(c2[H])C([H])([H])N(C(=O)C([H])(N([H])C(=O)C([H])(N([H])C([H])([H])[H])C([H])([H])[H])C(C([H])([H])[H])(C([H])([H])[H])C([H])([H])[H])C([H])(C(=O)N([H])C2([H])c4c([H])c([H])c([H])c([H])c4C([H])([H])C([H])([H])C2([H])[H])C3([H])[H])[N+]([H])([H])[H])c1[H]

>  <smiles>  (18) 
[H]c1c(N([H])C(=O)N2C([H])([H])C([H])([H])C([H])([H])C([H])(n3nc(-c4c([H])c([H])c(Oc5c([H])c([H])c(F)c([H])c5F)c([H])c4[H])c(C(=O)N([H])[H])c3N([H])[H])C2([H])[H])sc(N([H])C([H])([H])C(=O)C(C([H])([H])[H])(C([H])([H])Oc2c([H])c([H])c3c(c2[H])C([H])([H])N(C(=O)C([H])(N([H])C(=O)C([H])(N([H])C([H])([H])[H])C([H])([H])[H])C(C([H])([H])[H])(C([H])([H])[H])C([H])([H])[H])C([H])(C(=O)N([H])C2([H])c4c([H])c([H])c([H])c([H])c4C([H])([H])C([H])([H])C2([H])[H])C3([H])[H])[N+]([H])([H])[H])c1[H]

$$$$
18:0:0
     RDKit          3D

 94102  0  0  1  0  0  0  0  0999 V2000
  -29.6460  -21.1460   20.4570 C   0  0  0  0  0  0  0  0  0  0  0  0
  -29.1790  -23.7550   20.3160 C   0  0  0  0  0  0  0  0  0  0  0  0
  -27.7170  -21.9770   19.1730 C   0  0  0  0  0  1  0  0  0  0  0  0
  -28.9010  -22.2750   20.0070 N   0  0  0  0  0  0  0  0  0  0  0  0
  -30.7960  -21.3440   21.1270 N   0  0  0  0  0  4  0  0  0  0  0  0
  -30.1220  -24.0420   21.0680 O   0  0  0  0  0  0  0  0  0  0  0  0
  -31.3040  -20.5660   21.5180 H   0  0  0  0  0  0  0  0  0  0  0  0
  -31.1020  -22.2860   21.3390 H   0  0  0  0  0  0  0  0  0  0  0  0
  -30.1770  -18.4580   20.3480 C   0  0  0  0  0  3  0  0  0  0  0  0
  -29.2550  -19.6420   20.3340 C   0  0  0  0  0  0  0  0  0  0  0  0
  -29.5390  -17.1920   20.3900 C   0  0  0  0  0  0  0  0  0  0  0  0
  -27.9920  -19.2730   20.3520 N   0  0  0  0  0  0  0  0  0  0  0  0
  -27.8480  -17.5970   20.3850 S   0  0  0  0  0  0  0  0  0  0  0  0
  -30.5930  -14.8020   19.9980 C   0  0  0  0  0  0  0  0  0  0  0  0
  -30.3870  -12.5220   18.9550 C   0  0  0  0  0  2  0  0  0  0  0  0
  -29.3720  -12.6040   17.7910 C   0  0  0  0  0  2  0  0  0  0  0  0
  -27.9250  -12.4330   18.2980 C   0  0  0  0  0  2  0  0  0  0  0  0
  -27.6280  -13.3040   19.5460 C   0  0  0  0  0  3  0  0  0  0  0  0
  -28.7460  -13.1620   20.6030 C   0  0  0  0  0  2  0  0  0  0  0  0
  -30.0160  -13.5460   19.9610 N   0  0  0  0  0  0  0  0  0  0  0  0
  -31.7150  -14.9850   19.5130 O   0  0  0  0  0  0  0  0  0  0  0  0
  -29.8020  -15.8090   20.5300 N   0  0  0  0  0  0  0  0  0  0  0  0
  -29.0160  -15.3540   20.9680 H   0  0  0  0  0  0  0  0  0  0  0  0
  -25.2870  -13.9220   20.4030 C   0  0  0  0  0  0  0  0  0  0  0  0
  -24.2330  -13.1600   20.8260 C   0  0  0  0  0  0  0  0  0  0  0  0
  -24.6710  -11.8040   20.7480 C   0  0  0  0  0  0  0  0  0  0  0  0
  -26.3040  -13.0310   20.1000 N   0  0  0  0  0  0  0  0  0  0  0  0
  -25.9420  -11.7500   20.3670 N   0  0  0  0  0  0  0  0  0  0  0  0
  -23.9350  -10.5500   20.9590 C   0  0  0  0  0  0  0  0  0  0  0  0
  -24.3920   -9.5680   21.8650 C   0  0  0  0  0  3  0  0  0  0  0  0
  -23.6560   -8.3810   22.0650 C   0  0  0  0  0  3  0  0  0  0  0  0
  -22.4480   -8.1680   21.3600 C   0  0  0  0  0  0  0  0  0  0  0  0
  -22.0090   -9.1380   20.4420 C   0  0  0  0  0  3  0  0  0  0  0  0
  -22.7450  -10.3180   20.2410 C   0  0  0  0  0  3  0  0  0  0  0  0
  -21.6810   -7.0330   21.4700 O   0  0  0  0  0  0  0  0  0  0  0  0
  -21.6590   -6.2890   22.6230 C   0  0  0  0  0  0  0  0  0  0  0  0
  -21.2690   -6.8460   23.8610 C   0  0  0  0  0  3  0  0  0  0  0  0
  -21.1930   -6.0290   25.0080 C   0  0  0  0  0  3  0  0  0  0  0  0
  -21.4960   -4.6570   24.9170 C   0  0  0  0  0  0  0  0  0  0  0  0
  -21.8800   -4.1000   23.6840 C   0  0  0  0  0  3  0  0  0  0  0  0
  -21.9570   -4.9140   22.5400 C   0  0  0  0  0  0  0  0  0  0  0  0
  -22.3060   -4.3690   21.3500 F   0  0  0  0  0  0  0  0  0  0  0  0
  -21.4170   -3.8710   26.0150 F   0  0  0  0  0  0  0  0  0  0  0  0
  -22.8610  -13.6560   21.1820 C   0  0  0  0  0  0  0  0  0  0  0  0
  -22.1720  -12.9620   22.0800 N   0  0  0  0  0  0  0  0  0  0  0  0
  -22.4110  -14.6950   20.7000 O   0  0  0  0  0  0  0  0  0  0  0  0
  -22.5490  -12.1210   22.4920 H   0  0  0  0  0  0  0  0  0  0  0  0
  -21.2540  -13.2760   22.3620 H   0  0  0  0  0  0  0  0  0  0  0  0
  -25.4540  -15.2900   20.2250 N   0  0  0  0  0  0  0  0  0  0  0  0
  -24.6820  -15.9360   20.3520 H   0  0  0  0  0  0  0  0  0  0  0  0
  -26.2440  -15.7050   19.7490 H   0  0  0  0  0  0  0  0  0  0  0  0
  -28.7540  -25.1510   18.1940 C   0  0  0  0  0  1  0  0  0  0  0  0
  -28.3100  -24.9640   19.6620 C   0  0  0  0  0  3  0  0  0  0  0  0
  -28.3850  -26.3670   20.2550 O   0  0  0  0  0  0  0  0  0  0  0  0
  -24.6210  -31.8740   23.2140 C   0  0  0  0  0  0  0  0  0  0  0  0
  -27.2830  -27.2720   20.1690 C   0  0  0  0  0  0  0  0  0  0  0  0
  -23.4430  -30.4730   21.5620 C   0  0  0  0  0  3  0  0  0  0  0  0
  -24.9170  -28.9320   20.1430 C   0  0  0  0  0  0  0  0  0  0  0  0
  -25.9910  -30.7850   21.4110 C   0  0  0  0  0  2  0  0  0  0  0  0
  -26.0830  -29.4040   20.7570 C   0  0  0  0  0  0  0  0  0  0  0  0
  -27.2650  -28.5860   20.7630 C   0  0  0  0  0  3  0  0  0  0  0  0
  -26.0850  -26.8850   19.5200 C   0  0  0  0  0  3  0  0  0  0  0  0
  -24.9250  -27.6810   19.5140 C   0  0  0  0  0  3  0  0  0  0  0  0
  -23.6770  -29.8050   20.1820 C   0  0  0  0  0  2  0  0  0  0  0  0
  -24.7030  -31.0630   22.1180 N   0  0  0  0  0  0  0  0  0  0  0  0
  -23.5290  -32.1450   23.7370 O   0  0  0  0  0  0  0  0  0  0  0  0
  -22.7730  -29.4500   22.5130 C   0  0  0  0  0  0  0  0  0  0  0  0
  -21.4450  -29.2790   22.3860 N   0  0  0  0  0  0  0  0  0  0  0  0
  -23.4490  -28.8160   23.3280 O   0  0  0  0  0  0  0  0  0  0  0  0
  -20.9590  -29.8420   21.7030 H   0  0  0  0  0  0  0  0  0  0  0  0
  -18.0600  -28.1080   22.9040 C   0  0  0  0  0  0  0  0  0  0  0  0
  -20.6240  -28.3380   23.1500 C   0  0  0  0  0  3  0  0  0  0  0  0
  -20.7040  -26.9150   22.5510 C   0  0  0  0  0  2  0  0  0  0  0  0
  -19.5880  -26.6200   21.5430 C   0  0  0  0  0  2  0  0  0  0  0  0
  -18.2150  -26.7690   22.2050 C   0  0  0  0  0  2  0  0  0  0  0  0
  -19.1910  -28.8530   23.3340 C   0  0  0  0  0  0  0  0  0  0  0  0
  -18.9910  -30.1060   23.9510 C   0  0  0  0  0  3  0  0  0  0  0  0
  -17.6930  -30.6170   24.1400 C   0  0  0  0  0  3  0  0  0  0  0  0
  -16.5770  -29.8710   23.7250 C   0  0  0  0  0  3  0  0  0  0  0  0
  -16.7610  -28.6170   23.1130 C   0  0  0  0  0  3  0  0  0  0  0  0
  -25.8910  -32.5150   23.8490 C   0  0  0  0  0  3  0  0  0  0  0  0
  -25.5680  -33.9130   24.1770 N   0  0  0  0  0  0  0  0  0  0  0  0
  -25.8980  -34.9690   23.4230 C   0  0  0  0  0  0  0  0  0  0  0  0
  -26.5760  -34.8710   22.3960 O   0  0  0  0  0  0  0  0  0  0  0  0
  -24.9660  -34.0620   24.9730 H   0  0  0  0  0  0  0  0  0  0  0  0
  -24.1600  -36.7520   23.0620 C   0  0  0  0  0  1  0  0  0  0  0  0
  -25.4000  -36.3540   23.8780 C   0  0  0  0  0  3  0  0  0  0  0  0
  -27.5230  -37.2570   24.7220 C   0  0  0  0  0  1  0  0  0  0  0  0
  -26.4260  -37.4140   23.7700 N   0  0  0  0  0  0  0  0  0  0  0  0
  -26.0130  -38.3330   23.9120 H   0  0  0  0  0  0  0  0  0  0  0  0
  -26.3950  -31.7500   25.1350 C   0  0  1  0  0  0  0  0  0  0  0  0
  -25.2890  -31.5070   26.1880 C   0  0  0  0  0  1  0  0  0  0  0  0
  -26.9940  -30.3760   24.7560 C   0  0  0  0  0  1  0  0  0  0  0  0
  -27.5310  -32.5530   25.8100 C   0  0  0  0  0  1  0  0  0  0  0  0
  1  5  2  0
  2  6  2  0
  3  4  1  0
  4  2  1  0
  4  1  1  0
  5  8  1  0
  5  7  1  0
  9 11  2  0
 10  9  1  0
 10 12  2  0
 10  1  1  0
 11 22  1  0
 12 13  1  0
 13 11  1  0
 14 22  1  0
 15 20  1  0
 16 17  1  0
 16 15  1  0
 18 17  1  0
 18 27  1  0
 18 19  1  0
 20 14  1  0
 20 19  1  0
 21 14  2  0
 22 23  1  0
 24 25  2  0
 25 44  1  0
 26 25  1  0
 26 29  1  0
 27 28  1  0
 27 24  1  0
 28 26  2  0
 29 30  1  0
 30 31  2  0
 32 35  1  0
 32 31  1  0
 33 32  2  0
 34 33  1  0
 34 29  2  0
 35 36  1  0
 36 37  1  0
 37 38  2  0
 39 38  1  0
 39 43  1  0
 40 39  2  0
 41 36  2  0
 41 40  1  0
 42 41  1  0
 44 45  1  0
 45 48  1  0
 45 47  1  0
 46 44  2  0
 49 50  1  0
 49 24  1  0
 51 49  1  0
 53 52  1  0
 53 54  1  0
 53  2  1  0
 55 66  2  0
 56 54  1  0
 56 61  1  0
 57 65  1  0
 57 67  1  0
 58 64  1  0
 58 60  1  0
 59 65  1  0
 60 61  2  0
 60 59  1  0
 62 56  2  0
 63 62  1  0
 63 58  2  0
 64 57  1  0
 65 55  1  0
 67 69  2  0
 68 67  1  0
 70 68  1  0
 71 80  2  0
 71 76  1  0
 72 68  1  0
 72 76  1  0
 73 72  1  0
 74 75  1  0
 74 73  1  0
 75 71  1  0
 76 77  2  0
 77 78  1  0
 79 78  2  0
 80 79  1  0
 81 55  1  0
 81 82  1  0
 81 91  1  0
 82 85  1  0
 83 87  1  0
 83 82  1  0
 84 83  2  0
 87 86  1  0
 89 87  1  0
 89 90  1  0
 89 88  1  0
 91 94  1  1
 91 92  1  0
 93 91  1  0
M  ISO  4  14 100  22 100  53 101  54 101
M  END
>  <TORSDO>  (19) 
F 18

>  <SCORE>  (19) 
-14.753

>  <name>  (19) 
18

>  <ligand_id>  (19) 
18

>  <original_smiles>  (19) 
[H]c1c(C(N(C(=O)C([H])(Oc2c([H])c([H])c3c(c2[H])C([H])([H])N(C(=O)C([H])(N([H])C(=O)C([H])(N([H])C([H])([H])[H])C([H])([H])[H])C(C([H])([H])[H])(C([H])([H])[H])C([H])([H])[H])C([H])(C(=O)N([H])C2([H])c4c([H])c([H])c([H])c([H])c4C([H])([H])C([H])([H])C2([H])[H])C3([H])[H])C([H])([H])[H])C([H])([H])[H])=[N+]([H])[H])nsc1N([H])C(=O)N1C([H])([H])C([H])([H])C([H])([H])C([H])(n2nc(-c3c([H])c([H])c(Oc4c([H])c([H])c(F)c([H])c4F)c([H])c3[H])c(C(=O)N([H])[H])c2N([H])[H])C1([H])[H]

>  <smiles>  (19) 
[H]c1c(C(N(C(=O)C([H])(Oc2c([H])c([H])c3c(c2[H])C([H])([H])N(C(=O)C([H])(N([H])C(=O)C([H])(N([H])C([H])([H])[H])C([H])([H])[H])C(C([H])([H])[H])(C([H])([H])[H])C([H])([H])[H])C([H])(C(=O)N([H])C2([H])c4c([H])c([H])c([H])c([H])c4C([H])([H])C([H])([H])C2([H])[H])C3([H])[H])C([H])([H])[H])C([H])([H])[H])=[N+]([H])[H])nsc1N([H])C(=O)N1C([H])([H])C([H])([H])C([H])([H])C([H])(n2nc(-c3c([H])c([H])c(Oc4c([H])c([H])c(F)c([H])c4F)c([H])c3[H])c(C(=O)N([H])[H])c2N([H])[H])C1([H])[H]

$$$$
19:0:0
     RDKit          3D

 95104  0  0  1  0  0  0  0  0999 V2000
  -26.6760  -21.6350   20.6170 C   0  0  0  0  0  3  0  0  0  0  0  0
  -27.5420  -22.0580   21.8250 C   0  0  0  0  0  2  0  0  0  0  0  0
  -27.4270  -21.1370   19.3600 C   0  0  0  0  0  3  0  0  0  0  0  0
  -29.0000  -22.4740   21.5230 C   0  0  0  0  0  2  0  0  0  0  0  0
  -28.9540  -21.4020   19.3170 C   0  0  0  0  0  3  0  0  0  0  0  0
  -29.2650  -22.7160   20.0790 N   0  0  1  0  0  4  0  0  0  0  0  0
  -30.2660  -22.8290   20.0050 H   0  0  0  0  0  0  0  0  0  0  0  0
  -31.5830  -18.3780   20.3170 C   0  0  0  0  0  3  0  0  0  0  0  0
  -30.3840  -17.7750   20.0190 C   0  0  0  0  0  0  0  0  0  0  0  0
  -29.7980  -20.1130   19.7720 C   0  0  0  0  0  0  0  0  0  0  0  0
  -29.3980  -18.7890   19.7190 N   0  0  0  0  0  0  0  0  0  0  0  0
  -31.5110  -20.1460   20.2300 S   0  0  0  0  0  0  0  0  0  0  0  0
  -30.9810  -15.1950   20.0120 C   0  0  0  0  0  0  0  0  0  0  0  0
  -30.8210  -12.8390   19.1740 C   0  0  0  0  0  2  0  0  0  0  0  0
  -29.8690  -12.8020   17.9570 C   0  0  0  0  0  2  0  0  0  0  0  0
  -28.4060  -12.6380   18.4170 C   0  0  0  0  0  2  0  0  0  0  0  0
  -28.0280  -13.6180   19.5580 C   0  0  0  0  0  3  0  0  0  0  0  0
  -29.0960  -13.6230   20.6750 C   0  0  0  0  0  2  0  0  0  0  0  0
  -30.3820  -13.9540   20.0440 N   0  0  0  0  0  0  0  0  0  0  0  0
  -32.1720  -15.2850   19.6940 O   0  0  0  0  0  0  0  0  0  0  0  0
  -30.1500  -16.3090   20.1010 N   0  0  0  0  0  0  0  0  0  0  0  0
  -29.1820  -16.0540   20.2050 H   0  0  0  0  0  0  0  0  0  0  0  0
  -25.6920  -14.2680   20.3970 C   0  0  0  0  0  0  0  0  0  0  0  0
  -24.6080  -13.5200   20.7670 C   0  0  0  0  0  0  0  0  0  0  0  0
  -25.0160  -12.1540   20.6590 C   0  0  0  0  0  0  0  0  0  0  0  0
  -26.6910  -13.3610   20.0830 N   0  0  0  0  0  0  0  0  0  0  0  0
  -26.2930  -12.0820   20.3050 N   0  0  0  0  0  0  0  0  0  0  0  0
  -24.2470  -10.9130   20.8160 C   0  0  0  0  0  0  0  0  0  0  0  0
  -24.6320   -9.9170   21.7400 C   0  0  0  0  0  3  0  0  0  0  0  0
  -23.8660   -8.7400   21.8840 C   0  0  0  0  0  3  0  0  0  0  0  0
  -22.6990   -8.5520   21.1060 C   0  0  0  0  0  0  0  0  0  0  0  0
  -22.3340   -9.5370   20.1710 C   0  0  0  0  0  3  0  0  0  0  0  0
  -23.1000  -10.7050   20.0250 C   0  0  0  0  0  3  0  0  0  0  0  0
  -21.9090   -7.4300   21.1590 O   0  0  0  0  0  0  0  0  0  0  0  0
  -21.7640   -6.7060   22.3160 C   0  0  0  0  0  0  0  0  0  0  0  0
  -21.2470   -7.2820   23.4970 C   0  0  0  0  0  3  0  0  0  0  0  0
  -21.0510   -6.4860   24.6430 C   0  0  0  0  0  3  0  0  0  0  0  0
  -21.3610   -5.1130   24.6080 C   0  0  0  0  0  0  0  0  0  0  0  0
  -21.8720   -4.5360   23.4330 C   0  0  0  0  0  3  0  0  0  0  0  0
  -22.0710   -5.3310   22.2900 C   0  0  0  0  0  0  0  0  0  0  0  0
  -22.5420   -4.7650   21.1540 F   0  0  0  0  0  0  0  0  0  0  0  0
  -21.1650   -4.3470   25.7070 F   0  0  0  0  0  0  0  0  0  0  0  0
  -23.2410  -14.0380   21.1070 C   0  0  0  0  0  0  0  0  0  0  0  0
  -22.5200  -13.3400   21.9770 N   0  0  0  0  0  0  0  0  0  0  0  0
  -22.8240  -15.0960   20.6370 O   0  0  0  0  0  0  0  0  0  0  0  0
  -22.8710  -12.4840   22.3780 H   0  0  0  0  0  0  0  0  0  0  0  0
  -21.6040  -13.6700   22.2500 H   0  0  0  0  0  0  0  0  0  0  0  0
  -25.9030  -15.6390   20.2770 N   0  0  0  0  0  0  0  0  0  0  0  0
  -25.1550  -16.3080   20.4290 H   0  0  0  0  0  0  0  0  0  0  0  0
  -26.7350  -16.0620   19.8890 H   0  0  0  0  0  0  0  0  0  0  0  0
  -28.6680  -24.0540   19.5010 C   0  0  0  0  0  2  0  0  0  0  0  0
  -27.7980  -25.5490   21.5110 C   0  0  0  0  0  1  0  0  0  0  0  0
  -30.1850  -25.7490   20.7330 C   0  0  0  0  0  1  0  0  0  0  0  0
  -28.7360  -25.5070   20.2780 C   0  0  1  0  0  0  0  0  0  0  0  0
  -28.5060  -26.7940   19.5100 O   0  0  0  0  0  0  0  0  0  0  0  0
  -24.5910  -31.7870   23.0860 C   0  0  0  0  0  0  0  0  0  0  0  0
  -27.3440  -27.5940   19.6200 C   0  0  0  0  0  0  0  0  0  0  0  0
  -23.4150  -30.4590   21.3670 C   0  0  0  0  0  3  0  0  0  0  0  0
  -24.9030  -29.0940   19.7890 C   0  0  0  0  0  0  0  0  0  0  0  0
  -25.9290  -30.9200   21.1470 C   0  0  0  0  0  2  0  0  0  0  0  0
  -26.0630  -29.5960   20.3930 C   0  0  0  0  0  0  0  0  0  0  0  0
  -27.2870  -28.8610   20.2910 C   0  0  0  0  0  3  0  0  0  0  0  0
  -26.1580  -27.1500   19.0000 C   0  0  0  0  0  3  0  0  0  0  0  0
  -24.9540  -27.8800   19.0820 C   0  0  0  0  0  3  0  0  0  0  0  0
  -23.6250  -29.9000   19.9350 C   0  0  0  0  0  2  0  0  0  0  0  0
  -24.6660  -31.0700   21.9250 N   0  0  0  0  0  0  0  0  0  0  0  0
  -23.5110  -31.9640   23.6660 O   0  0  0  0  0  0  0  0  0  0  0  0
  -22.8290  -29.3410   22.2620 C   0  0  0  0  0  0  0  0  0  0  0  0
  -21.5090  -29.1060   22.1540 N   0  0  0  0  0  0  0  0  0  0  0  0
  -23.5590  -28.6890   23.0130 O   0  0  0  0  0  0  0  0  0  0  0  0
  -20.9750  -29.6880   21.5250 H   0  0  0  0  0  0  0  0  0  0  0  0
  -18.2170  -27.6800   22.6160 C   0  0  0  0  0  0  0  0  0  0  0  0
  -20.7610  -28.0690   22.8650 C   0  0  0  0  0  3  0  0  0  0  0  0
  -20.9340  -26.6900   22.1840 C   0  0  0  0  0  2  0  0  0  0  0  0
  -19.8340  -26.3790   21.1650 C   0  0  0  0  0  2  0  0  0  0  0  0
  -18.4590  -26.3960   21.8380 C   0  0  0  0  0  2  0  0  0  0  0  0
  -19.2980  -28.4730   23.0840 C   0  0  0  0  0  0  0  0  0  0  0  0
  -19.0180  -29.6740   23.7710 C   0  0  0  0  0  3  0  0  0  0  0  0
  -17.6900  -30.0820   23.9940 C   0  0  0  0  0  3  0  0  0  0  0  0
  -16.6230  -29.2860   23.5420 C   0  0  0  0  0  3  0  0  0  0  0  0
  -16.8890  -28.0860   22.8590 C   0  0  0  0  0  3  0  0  0  0  0  0
  -25.8580  -32.4360   23.7270 C   0  0  0  0  0  3  0  0  0  0  0  0
  -26.4000  -31.6360   24.9740 C   0  0  1  0  0  0  0  0  0  0  0  0
  -25.3220  -31.3420   26.0430 C   0  0  0  0  0  1  0  0  0  0  0  0
  -27.0090  -30.2840   24.5360 C   0  0  0  0  0  1  0  0  0  0  0  0
  -27.5370  -32.4350   25.6540 C   0  0  0  0  0  1  0  0  0  0  0  0
  -25.5090  -33.8120   24.1080 N   0  0  0  0  0  0  0  0  0  0  0  0
  -25.8110  -34.9020   23.3900 C   0  0  0  0  0  0  0  0  0  0  0  0
  -26.4800  -34.8560   22.3540 O   0  0  0  0  0  0  0  0  0  0  0  0
  -24.9120  -33.9200   24.9160 H   0  0  0  0  0  0  0  0  0  0  0  0
  -24.0270  -36.6550   23.1120 C   0  0  0  0  0  1  0  0  0  0  0  0
  -25.2860  -36.2590   23.8990 C   0  0  0  0  0  3  0  0  0  0  0  0
  -27.3940  -37.1830   24.7540 C   0  0  0  0  0  1  0  0  0  0  0  0
  -26.2860  -37.3460   23.8170 N   0  0  0  0  0  0  0  0  0  0  0  0
  -25.8520  -38.2480   23.9940 H   0  0  0  0  0  0  0  0  0  0  0  0
  1  2  1  0
  3  1  2  0
  4  2  1  0
  5  3  1  0
  5 10  1  0
  5  6  1  0
  6  4  1  0
  6  7  1  1
  9 21  1  0
  9  8  2  0
 10 12  1  0
 11 10  2  0
 11  9  1  0
 12  8  1  0
 13 19  1  0
 13 21  1  0
 14 19  1  0
 15 16  1  0
 15 14  1  0
 17 16  1  0
 17 26  1  0
 17 18  1  0
 19 18  1  0
 20 13  2  0
 21 22  1  0
 23 24  2  0
 24 43  1  0
 25 24  1  0
 25 28  1  0
 26 27  1  0
 26 23  1  0
 27 25  2  0
 28 29  1  0
 29 30  2  0
 31 34  1  0
 31 30  1  0
 32 31  2  0
 33 32  1  0
 33 28  2  0
 34 35  1  0
 35 36  1  0
 36 37  2  0
 38 37  1  0
 38 42  1  0
 39 38  2  0
 40 35  2  0
 40 39  1  0
 41 40  1  0
 43 44  1  0
 44 47  1  0
 44 46  1  0
 45 43  2  0
 48 23  1  0
 48 49  1  0
 50 48  1  0
 51  6  1  0
 51 54  1  0
 54 53  1  1
 54 52  1  0
 55 57  1  0
 55 54  1  0
 56 67  2  0
 57 62  1  0
 58 66  1  0
 58 68  1  0
 59 65  1  0
 59 61  1  0
 60 66  1  0
 61 60  1  0
 62 61  2  0
 63 64  1  0
 63 57  2  0
 64 59  2  0
 65 58  1  0
 66 56  1  0
 68 70  2  0
 69 68  1  0
 71 69  1  0
 72 81  2  0
 72 77  1  0
 73 69  1  0
 73 77  1  0
 74 73  1  0
 75 76  1  0
 75 74  1  0
 76 72  1  0
 77 78  2  0
 78 79  1  0
 80 79  2  0
 81 80  1  0
 82 56  1  0
 82 87  1  0
 82 83  1  0
 83 86  1  1
 83 84  1  0
 85 83  1  0
 87 90  1  0
 88 92  1  0
 88 87  1  0
 89 88  2  0
 92 91  1  0
 94 92  1  0
 94 95  1  0
 94 93  1  0
M  ISO  4  13 100  21 100  54 101  55 101
M  END
>  <TORSDO>  (20) 
F 19

>  <SCORE>  (20) 
-12.307

>  <name>  (20) 
19

>  <ligand_id>  (20) 
19

>  <original_smiles>  (20) 
[H]c1sc(C2([H])C([H])([H])C([H])([H])C([H])([H])C([H])([H])[N+]2([H])C([H])([H])C(Oc2c([H])c([H])c3c(c2[H])C([H])([H])N(C(=O)C([H])(N([H])C(=O)C([H])(N([H])C([H])([H])[H])C([H])([H])[H])C(C([H])([H])[H])(C([H])([H])[H])C([H])([H])[H])C([H])(C(=O)N([H])C2([H])c4c([H])c([H])c([H])c([H])c4C([H])([H])C([H])([H])C2([H])[H])C3([H])[H])(C([H])([H])[H])C([H])([H])[H])nc1N([H])C(=O)N1C([H])([H])C([H])([H])C([H])([H])C([H])(n2nc(-c3c([H])c([H])c(Oc4c([H])c([H])c(F)c([H])c4F)c([H])c3[H])c(C(=O)N([H])[H])c2N([H])[H])C1([H])[H]

>  <smiles>  (20) 
[H]c1sc(C2([H])C([H])([H])C([H])([H])C([H])([H])C([H])([H])[N+]2([H])C([H])([H])C(Oc2c([H])c([H])c3c(c2[H])C([H])([H])N(C(=O)C([H])(N([H])C(=O)C([H])(N([H])C([H])([H])[H])C([H])([H])[H])C(C([H])([H])[H])(C([H])([H])[H])C([H])([H])[H])C([H])(C(=O)N([H])C2([H])c4c([H])c([H])c([H])c([H])c4C([H])([H])C([H])([H])C2([H])[H])C3([H])[H])(C([H])([H])[H])C([H])([H])[H])nc1N([H])C(=O)N1C([H])([H])C([H])([H])C([H])([H])C([H])(n2nc(-c3c([H])c([H])c(Oc4c([H])c([H])c(F)c([H])c4F)c([H])c3[H])c(C(=O)N([H])[H])c2N([H])[H])C1([H])[H]

$$$$
20:0:0
     RDKit          3D

 97106  0  0  1  0  0  0  0  0999 V2000
  -29.8530  -23.6130   21.3300 C   0  0  0  0  0  2  0  0  0  0  0  0
  -30.0300  -22.1130   21.6750 C   0  0  0  0  0  2  0  0  0  0  0  0
  -28.6000  -23.7100   20.4360 C   0  0  1  0  0  0  0  0  0  0  0  0
  -28.7780  -22.2820   19.6450 C   0  0  2  0  0  0  0  0  0  0  0  0
  -27.3460  -23.6960   21.3380 C   0  0  0  0  0  1  0  0  0  0  0  0
  -29.5030  -22.5250   18.3090 C   0  0  0  0  0  1  0  0  0  0  0  0
  -27.4370  -21.6030   19.3040 C   0  0  0  0  0  1  0  0  0  0  0  0
  -29.6060  -21.3570   20.5020 N   0  0  0  0  0  0  0  0  0  0  0  0
  -31.2750  -17.9290   20.1580 C   0  0  0  0  0  3  0  0  0  0  0  0
  -31.2730  -19.3860   20.0830 C   0  0  0  0  0  0  0  0  0  0  0  0
  -30.0080  -19.9580   20.2990 C   0  0  0  0  0  0  0  0  0  0  0  0
  -30.0810  -17.2770   20.3660 C   0  0  0  0  0  0  0  0  0  0  0  0
  -28.8660  -18.5860   20.5090 S   0  0  0  0  0  0  0  0  0  0  0  0
  -30.5990  -14.7820   20.1760 C   0  0  0  0  0  0  0  0  0  0  0  0
  -30.3610  -12.5340   19.1120 C   0  0  0  0  0  2  0  0  0  0  0  0
  -29.3890  -12.6550   17.9190 C   0  0  0  0  0  2  0  0  0  0  0  0
  -27.9300  -12.4800   18.3860 C   0  0  0  0  0  2  0  0  0  0  0  0
  -27.5990  -13.3330   19.6390 C   0  0  0  0  0  3  0  0  0  0  0  0
  -28.6900  -13.1990   20.7270 C   0  0  0  0  0  2  0  0  0  0  0  0
  -29.9710  -13.5590   20.1070 N   0  0  0  0  0  0  0  0  0  0  0  0
  -31.7730  -14.8840   19.8090 O   0  0  0  0  0  0  0  0  0  0  0  0
  -29.8220  -15.8960   20.4650 N   0  0  0  0  0  0  0  0  0  0  0  0
  -28.8750  -15.6630   20.7220 H   0  0  0  0  0  0  0  0  0  0  0  0
  -25.2270  -13.9130   20.4200 C   0  0  0  0  0  0  0  0  0  0  0  0
  -24.1730  -13.1340   20.8130 C   0  0  0  0  0  0  0  0  0  0  0  0
  -24.6430  -11.7840   20.7710 C   0  0  0  0  0  0  0  0  0  0  0  0
  -26.2690  -13.0380   20.1600 N   0  0  0  0  0  0  0  0  0  0  0  0
  -25.9260  -11.7540   20.4340 N   0  0  0  0  0  0  0  0  0  0  0  0
  -23.9260  -10.5180   20.9770 C   0  0  0  0  0  0  0  0  0  0  0  0
  -24.3800   -9.5550   21.9030 C   0  0  0  0  0  3  0  0  0  0  0  0
  -23.6630   -8.3540   22.0970 C   0  0  0  0  0  3  0  0  0  0  0  0
  -22.4800   -8.1080   21.3620 C   0  0  0  0  0  0  0  0  0  0  0  0
  -22.0450   -9.0600   20.4230 C   0  0  0  0  0  3  0  0  0  0  0  0
  -22.7630  -10.2520   20.2280 C   0  0  0  0  0  3  0  0  0  0  0  0
  -21.7330   -6.9600   21.4640 O   0  0  0  0  0  0  0  0  0  0  0  0
  -21.7040   -6.2200   22.6200 C   0  0  0  0  0  0  0  0  0  0  0  0
  -21.2870   -6.7770   23.8490 C   0  0  0  0  0  3  0  0  0  0  0  0
  -21.2050   -5.9640   24.9970 C   0  0  0  0  0  3  0  0  0  0  0  0
  -21.5310   -4.5960   24.9180 C   0  0  0  0  0  0  0  0  0  0  0  0
  -21.9400   -4.0400   23.6930 C   0  0  0  0  0  3  0  0  0  0  0  0
  -22.0230   -4.8500   22.5470 C   0  0  0  0  0  0  0  0  0  0  0  0
  -22.3980   -4.3040   21.3650 F   0  0  0  0  0  0  0  0  0  0  0  0
  -21.4450   -3.8140   26.0190 F   0  0  0  0  0  0  0  0  0  0  0  0
  -22.7790  -13.6040   21.1150 C   0  0  0  0  0  0  0  0  0  0  0  0
  -22.0750  -12.9020   21.9940 N   0  0  0  0  0  0  0  0  0  0  0  0
  -22.3260  -14.6290   20.6060 O   0  0  0  0  0  0  0  0  0  0  0  0
  -22.4540  -12.0730   22.4270 H   0  0  0  0  0  0  0  0  0  0  0  0
  -21.1400  -13.1980   22.2400 H   0  0  0  0  0  0  0  0  0  0  0  0
  -25.3780  -15.2850   20.2390 N   0  0  0  0  0  0  0  0  0  0  0  0
  -24.6060  -15.9300   20.3630 H   0  0  0  0  0  0  0  0  0  0  0  0
  -26.2020  -15.7280   19.8540 H   0  0  0  0  0  0  0  0  0  0  0  0
  -33.4820  -19.2880   18.8100 C   0  0  0  0  0  1  0  0  0  0  0  0
  -33.4150  -20.1180   21.1660 C   0  0  0  0  0  1  0  0  0  0  0  0
  -32.5430  -21.4940   19.2590 C   0  0  0  0  0  1  0  0  0  0  0  0
  -32.6300  -20.0740   19.8410 C   0  0  2  0  0  0  0  0  0  0  0  0
  -28.5260  -25.1100   19.5930 C   0  0  0  0  0  2  0  0  0  0  0  0
  -28.4090  -26.4740   20.2200 O   0  0  0  0  0  0  0  0  0  0  0  0
  -24.6230  -31.8770   23.2210 C   0  0  0  0  0  0  0  0  0  0  0  0
  -27.2730  -27.3140   20.1410 C   0  0  0  0  0  0  0  0  0  0  0  0
  -23.4370  -30.4840   21.5640 C   0  0  0  0  0  3  0  0  0  0  0  0
  -24.9010  -28.9480   20.1300 C   0  0  0  0  0  0  0  0  0  0  0  0
  -25.9780  -30.8050   21.4000 C   0  0  0  0  0  2  0  0  0  0  0  0
  -26.0650  -29.4270   20.7430 C   0  0  0  0  0  0  0  0  0  0  0  0
  -27.2470  -28.6210   20.7390 C   0  0  0  0  0  3  0  0  0  0  0  0
  -26.0770  -26.8970   19.5100 C   0  0  0  0  0  3  0  0  0  0  0  0
  -24.9140  -27.6920   19.5040 C   0  0  0  0  0  3  0  0  0  0  0  0
  -23.6620  -29.8210   20.1790 C   0  0  0  0  0  2  0  0  0  0  0  0
  -24.6990  -31.0750   22.1180 N   0  0  0  0  0  0  0  0  0  0  0  0
  -23.5350  -32.1450   23.7500 O   0  0  0  0  0  0  0  0  0  0  0  0
  -22.7740  -29.4570   22.5150 C   0  0  0  0  0  0  0  0  0  0  0  0
  -21.4470  -29.2860   22.3920 N   0  0  0  0  0  0  0  0  0  0  0  0
  -23.4530  -28.8200   23.3240 O   0  0  0  0  0  0  0  0  0  0  0  0
  -20.9590  -29.8540   21.7140 H   0  0  0  0  0  0  0  0  0  0  0  0
  -18.0640  -28.0990   22.8920 C   0  0  0  0  0  0  0  0  0  0  0  0
  -20.6260  -28.3400   23.1500 C   0  0  0  0  0  3  0  0  0  0  0  0
  -20.7160  -26.9180   22.5490 C   0  0  0  0  0  2  0  0  0  0  0  0
  -19.6050  -26.6170   21.5380 C   0  0  0  0  0  2  0  0  0  0  0  0
  -18.2280  -26.7600   22.1920 C   0  0  0  0  0  2  0  0  0  0  0  0
  -19.1900  -28.8480   23.3270 C   0  0  0  0  0  0  0  0  0  0  0  0
  -18.9810  -30.1010   23.9420 C   0  0  0  0  0  3  0  0  0  0  0  0
  -17.6790  -30.6060   24.1250 C   0  0  0  0  0  3  0  0  0  0  0  0
  -16.5680  -29.8530   23.7060 C   0  0  0  0  0  3  0  0  0  0  0  0
  -16.7620  -28.6020   23.0950 C   0  0  0  0  0  3  0  0  0  0  0  0
  -25.8980  -32.5130   23.8570 C   0  0  0  0  0  3  0  0  0  0  0  0
  -26.4010  -31.7440   25.1410 C   0  0  1  0  0  0  0  0  0  0  0  0
  -25.2960  -31.5030   26.1960 C   0  0  0  0  0  1  0  0  0  0  0  0
  -26.9900  -30.3680   24.7550 C   0  0  0  0  0  1  0  0  0  0  0  0
  -27.5460  -32.5400   25.8120 C   0  0  0  0  0  1  0  0  0  0  0  0
  -25.5820  -33.9110   24.1850 N   0  0  0  0  0  0  0  0  0  0  0  0
  -25.9160  -34.9650   23.4280 C   0  0  0  0  0  0  0  0  0  0  0  0
  -26.5900  -34.8620   22.4000 O   0  0  0  0  0  0  0  0  0  0  0  0
  -24.9890  -34.0660   24.9870 H   0  0  0  0  0  0  0  0  0  0  0  0
  -24.1870  -36.7560   23.0640 C   0  0  0  0  0  1  0  0  0  0  0  0
  -25.4250  -36.3540   23.8830 C   0  0  0  0  0  3  0  0  0  0  0  0
  -27.5550  -37.2400   24.7240 C   0  0  0  0  0  1  0  0  0  0  0  0
  -26.4560  -37.4070   23.7750 N   0  0  0  0  0  0  0  0  0  0  0  0
  -26.0490  -38.3270   23.9200 H   0  0  0  0  0  0  0  0  0  0  0  0
  1  2  1  0
  3  1  1  0
  3  5  1  1
  4  3  1  0
  4  8  1  0
  4  6  1  6
  7  4  1  0
  8  2  1  0
  9 12  2  0
 10  9  1  0
 10 11  2  0
 11  8  1  0
 11 13  1  0
 12 22  1  0
 12 13  1  0
 14 22  1  0
 15 20  1  0
 16 17  1  0
 16 15  1  0
 18 17  1  0
 18 27  1  0
 18 19  1  0
 20 14  1  0
 20 19  1  0
 21 14  2  0
 22 23  1  0
 24 25  2  0
 25 44  1  0
 26 25  1  0
 26 29  1  0
 27 24  1  0
 27 28  1  0
 28 26  2  0
 29 30  1  0
 30 31  2  0
 32 35  1  0
 32 31  1  0
 33 32  2  0
 34 33  1  0
 34 29  2  0
 35 36  1  0
 36 37  1  0
 37 38  2  0
 39 38  1  0
 39 43  1  0
 40 39  2  0
 41 36  2  0
 41 40  1  0
 42 41  1  0
 44 45  1  0
 45 48  1  0
 45 47  1  0
 46 44  2  0
 49 50  1  0
 49 24  1  0
 51 49  1  0
 55 52  1  6
 54 55  1  0
 55 10  1  0
 55 53  1  0
 56 57  1  0
 56  3  1  0
 58 69  2  0
 59 57  1  0
 59 64  1  0
 60 68  1  0
 60 70  1  0
 61 67  1  0
 61 63  1  0
 62 68  1  0
 63 62  1  0
 64 63  2  0
 65 59  2  0
 66 65  1  0
 66 61  2  0
 67 60  1  0
 68 58  1  0
 70 72  2  0
 71 70  1  0
 73 71  1  0
 74 83  2  0
 74 79  1  0
 75 71  1  0
 75 79  1  0
 76 75  1  0
 77 78  1  0
 77 76  1  0
 78 74  1  0
 79 80  2  0
 80 81  1  0
 82 81  2  0
 83 82  1  0
 84 58  1  0
 84 89  1  0
 84 85  1  0
 85 88  1  1
 85 86  1  0
 87 85  1  0
 89 92  1  0
 90 94  1  0
 90 89  1  0
 91 90  2  0
 94 93  1  0
 96 94  1  0
 96 97  1  0
 96 95  1  0
M  ISO  4  14 100  22 100  56 101  57 101
M  END
>  <TORSDO>  (21) 
F 19

>  <SCORE>  (21) 
-14.684

>  <name>  (21) 
20

>  <ligand_id>  (21) 
20

>  <original_smiles>  (21) 
[H]c1c([H])c([H])c2c(c1[H])C([H])([H])C([H])([H])C([H])([H])C2([H])N([H])C(=O)C1([H])N(C(=O)C([H])(N([H])C(=O)C([H])(N([H])C([H])([H])[H])C([H])([H])[H])C(C([H])([H])[H])(C([H])([H])[H])C([H])([H])[H])C([H])([H])c2c([H])c(OC([H])([H])C3(C([H])([H])[H])C([H])([H])C([H])([H])N(c4sc(N([H])C(=O)N5C([H])([H])C([H])([H])C([H])([H])C([H])(n6nc(-c7c([H])c([H])c(Oc8c([H])c([H])c(F)c([H])c8F)c([H])c7[H])c(C(=O)N([H])[H])c6N([H])[H])C5([H])[H])c([H])c4C(C([H])([H])[H])(C([H])([H])[H])C([H])([H])[H])C3(C([H])([H])[H])C([H])([H])[H])c([H])c([H])c2C1([H])[H]

>  <smiles>  (21) 
[H]c1c([H])c([H])c2c(c1[H])C([H])([H])C([H])([H])C([H])([H])C2([H])N([H])C(=O)C1([H])N(C(=O)C([H])(N([H])C(=O)C([H])(N([H])C([H])([H])[H])C([H])([H])[H])C(C([H])([H])[H])(C([H])([H])[H])C([H])([H])[H])C([H])([H])c2c([H])c(OC([H])([H])C3(C([H])([H])[H])C([H])([H])C([H])([H])N(c4sc(N([H])C(=O)N5C([H])([H])C([H])([H])C([H])([H])C([H])(n6nc(-c7c([H])c([H])c(Oc8c([H])c([H])c(F)c([H])c8F)c([H])c7[H])c(C(=O)N([H])[H])c6N([H])[H])C5([H])[H])c([H])c4C(C([H])([H])[H])(C([H])([H])[H])C([H])([H])[H])C3(C([H])([H])[H])C([H])([H])[H])c([H])c([H])c2C1([H])[H]

$$$$
21:0:0
     RDKit          3D

100109  0  0  1  0  0  0  0  0999 V2000
  -31.3730  -20.6580   19.9410 C   0  0  0  0  0  3  0  0  0  0  0  0
  -30.6550  -24.3230   19.5480 C   0  0  0  0  0  2  0  0  0  0  0  0
  -31.4060  -23.0450   19.1460 C   0  0  0  0  0  2  0  0  0  0  0  0
  -29.5710  -22.4680   20.5870 C   0  0  0  0  0  2  0  0  0  0  0  0
  -29.2480  -23.8430   19.8870 C   0  0  2  0  0  0  0  0  0  0  0  0
  -30.7810  -21.9150   19.8880 N   0  0  0  0  0  0  0  0  0  0  0  0
  -32.4360  -20.5070   19.1450 N   0  0  0  0  0  0  0  0  0  0  0  0
  -33.0050  -19.6790   19.2320 H   0  0  0  0  0  0  0  0  0  0  0  0
  -32.7170  -21.2120   18.4860 H   0  0  0  0  0  0  0  0  0  0  0  0
  -30.5370  -17.0440   22.2700 C   0  0  0  0  0  3  0  0  0  0  0  0
  -30.5950  -18.2940   22.9130 C   0  0  0  0  0  3  0  0  0  0  0  0
  -30.9700  -18.1430   20.1470 C   0  0  0  0  0  3  0  0  0  0  0  0
  -31.0310  -19.4430   20.7780 C   0  0  0  0  0  0  0  0  0  0  0  0
  -30.7700  -16.9320   20.8880 C   0  0  0  0  0  0  0  0  0  0  0  0
  -30.8900  -19.4750   22.2030 C   0  0  0  0  0  0  0  0  0  0  0  0
  -31.3870  -14.5740   20.0160 C   0  0  0  0  0  0  0  0  0  0  0  0
  -31.0270  -12.4090   18.8430 C   0  0  0  0  0  2  0  0  0  0  0  0
  -30.0290  -12.6560   17.6880 C   0  0  0  0  0  2  0  0  0  0  0  0
  -28.5640  -12.5740   18.1740 C   0  0  0  0  0  2  0  0  0  0  0  0
  -28.3220  -13.4070   19.4590 C   0  0  0  0  0  3  0  0  0  0  0  0
  -29.4070  -13.0990   20.5160 C   0  0  0  0  0  2  0  0  0  0  0  0
  -30.7190  -13.3870   19.9010 N   0  0  0  0  0  0  0  0  0  0  0  0
  -32.5500  -14.7230   19.6220 O   0  0  0  0  0  0  0  0  0  0  0  0
  -30.5660  -15.6120   20.3330 N   0  0  0  0  0  0  0  0  0  0  0  0
  -29.6410  -15.2500   20.5130 H   0  0  0  0  0  0  0  0  0  0  0  0
  -26.0040  -14.1690   20.2840 C   0  0  0  0  0  0  0  0  0  0  0  0
  -24.9030  -13.4650   20.6890 C   0  0  0  0  0  0  0  0  0  0  0  0
  -25.2680  -12.0860   20.6190 C   0  0  0  0  0  0  0  0  0  0  0  0
  -26.9750  -13.2210   19.9920 N   0  0  0  0  0  0  0  0  0  0  0  0
  -26.5380  -11.9630   20.2520 N   0  0  0  0  0  0  0  0  0  0  0  0
  -24.4650  -10.8720   20.8220 C   0  0  0  0  0  0  0  0  0  0  0  0
  -24.8400   -9.8880   21.7640 C   0  0  0  0  0  3  0  0  0  0  0  0
  -24.0450   -8.7390   21.9510 C   0  0  0  0  0  3  0  0  0  0  0  0
  -22.8590   -8.5640   21.1970 C   0  0  0  0  0  0  0  0  0  0  0  0
  -22.5020   -9.5370   20.2450 C   0  0  0  0  0  3  0  0  0  0  0  0
  -23.2980  -10.6780   20.0550 C   0  0  0  0  0  3  0  0  0  0  0  0
  -22.0380   -7.4670   21.2930 O   0  0  0  0  0  0  0  0  0  0  0  0
  -21.9040   -6.7690   22.4680 C   0  0  0  0  0  0  0  0  0  0  0  0
  -21.4530   -7.3880   23.6540 C   0  0  0  0  0  3  0  0  0  0  0  0
  -21.2630   -6.6190   24.8200 C   0  0  0  0  0  3  0  0  0  0  0  0
  -21.5140   -5.2350   24.8010 C   0  0  0  0  0  0  0  0  0  0  0  0
  -21.9600   -4.6160   23.6190 C   0  0  0  0  0  3  0  0  0  0  0  0
  -22.1530   -5.3820   22.4560 C   0  0  0  0  0  0  0  0  0  0  0  0
  -22.5610   -4.7770   21.3150 F   0  0  0  0  0  0  0  0  0  0  0  0
  -21.3250   -4.4960   25.9190 F   0  0  0  0  0  0  0  0  0  0  0  0
  -23.5520  -14.0320   21.0250 C   0  0  0  0  0  0  0  0  0  0  0  0
  -22.8190  -13.3850   21.9250 N   0  0  0  0  0  0  0  0  0  0  0  0
  -23.1600  -15.0840   20.5240 O   0  0  0  0  0  0  0  0  0  0  0  0
  -23.1500  -12.5360   22.3570 H   0  0  0  0  0  0  0  0  0  0  0  0
  -21.9130  -13.7500   22.1850 H   0  0  0  0  0  0  0  0  0  0  0  0
  -26.2570  -15.5290   20.1200 N   0  0  0  0  0  0  0  0  0  0  0  0
  -25.5310  -16.2260   20.2560 H   0  0  0  0  0  0  0  0  0  0  0  0
  -27.0870  -15.9090   19.6860 H   0  0  0  0  0  0  0  0  0  0  0  0
  -31.0880  -20.6190   22.9850 N   0  0  0  0  0  0  0  0  0  0  0  0
  -31.1120  -20.5020   23.9920 H   0  0  0  0  0  0  0  0  0  0  0  0
  -31.8080  -21.2680   22.6800 H   0  0  0  0  0  0  0  0  0  0  0  0
  -28.5380  -23.4880   18.7100 O   0  0  0  0  0  0  0  0  0  0  0  0
  -28.8840  -22.6450   18.4350 H   0  0  0  0  0  0  0  0  0  0  0  0
  -28.3670  -24.8970   20.6760 C   0  0  0  0  0  2  0  0  0  0  0  0
  -28.5820  -26.3270   20.4040 O   0  0  0  0  0  0  0  0  0  0  0  0
  -24.7010  -31.6280   23.3380 C   0  0  0  0  0  0  0  0  0  0  0  0
  -27.4470  -27.1340   20.3530 C   0  0  0  0  0  0  0  0  0  0  0  0
  -23.5600  -30.2300   21.6520 C   0  0  0  0  0  3  0  0  0  0  0  0
  -25.0650  -28.6940   20.2730 C   0  0  0  0  0  0  0  0  0  0  0  0
  -26.0990  -30.5730   21.5540 C   0  0  0  0  0  2  0  0  0  0  0  0
  -26.2070  -29.2030   20.9020 C   0  0  0  0  0  0  0  0  0  0  0  0
  -27.4070  -28.4360   20.9250 C   0  0  0  0  0  3  0  0  0  0  0  0
  -26.2830  -26.6640   19.7030 C   0  0  0  0  0  3  0  0  0  0  0  0
  -25.1020  -27.4270   19.6650 C   0  0  0  0  0  3  0  0  0  0  0  0
  -23.8220  -29.5560   20.2800 C   0  0  0  0  0  2  0  0  0  0  0  0
  -24.8020  -30.8270   22.2390 N   0  0  0  0  0  0  0  0  0  0  0  0
  -23.5980  -31.8990   23.8370 O   0  0  0  0  0  0  0  0  0  0  0  0
  -22.8700  -29.2070   22.5860 C   0  0  0  0  0  0  0  0  0  0  0  0
  -21.5550  -29.0060   22.3920 N   0  0  0  0  0  0  0  0  0  0  0  0
  -23.5170  -28.5970   23.4400 O   0  0  0  0  0  0  0  0  0  0  0  0
  -21.0930  -29.5520   21.6790 H   0  0  0  0  0  0  0  0  0  0  0  0
  -18.1880  -27.7260   22.6910 C   0  0  0  0  0  0  0  0  0  0  0  0
  -20.7140  -28.0600   23.1250 C   0  0  0  0  0  3  0  0  0  0  0  0
  -20.8910  -26.6220   22.5860 C   0  0  0  0  0  2  0  0  0  0  0  0
  -19.8690  -26.2500   21.5060 C   0  0  0  0  0  2  0  0  0  0  0  0
  -18.4450  -26.3700   22.0560 C   0  0  0  0  0  2  0  0  0  0  0  0
  -19.2550  -28.5260   23.1790 C   0  0  0  0  0  0  0  0  0  0  0  0
  -18.9650  -29.7930   23.7310 C   0  0  0  0  0  3  0  0  0  0  0  0
  -17.6400  -30.2620   23.8010 C   0  0  0  0  0  3  0  0  0  0  0  0
  -16.5850  -29.4600   23.3320 C   0  0  0  0  0  3  0  0  0  0  0  0
  -16.8590  -28.1930   22.7850 C   0  0  0  0  0  3  0  0  0  0  0  0
  -25.9590  -32.2630   24.0070 C   0  0  0  0  0  3  0  0  0  0  0  0
  -26.3970  -31.5280   25.3340 C   0  0  1  0  0  0  0  0  0  0  0  0
  -25.2420  -31.3370   26.3470 C   0  0  0  0  0  1  0  0  0  0  0  0
  -26.9810  -30.1320   25.0160 C   0  0  0  0  0  1  0  0  0  0  0  0
  -27.5200  -32.3300   26.0340 C   0  0  0  0  0  1  0  0  0  0  0  0
  -25.6540  -33.6740   24.2770 N   0  0  0  0  0  0  0  0  0  0  0  0
  -26.0620  -34.6990   23.5180 C   0  0  0  0  0  0  0  0  0  0  0  0
  -26.8000  -34.5550   22.5390 O   0  0  0  0  0  0  0  0  0  0  0  0
  -25.0030  -33.8620   25.0250 H   0  0  0  0  0  0  0  0  0  0  0  0
  -24.3890  -36.5080   23.0100 C   0  0  0  0  0  1  0  0  0  0  0  0
  -25.5720  -36.1080   23.9050 C   0  0  0  0  0  3  0  0  0  0  0  0
  -27.6690  -36.9800   24.8410 C   0  0  0  0  0  1  0  0  0  0  0  0
  -26.6280  -37.1400   23.8290 N   0  0  0  0  0  0  0  0  0  0  0  0
  -26.2300  -38.0710   23.9300 H   0  0  0  0  0  0  0  0  0  0  0  0
  1  7  1  0
  1 13  1  0
  2  5  1  0
  3  2  1  0
  3  6  1  0
  5  4  1  0
  5 59  1  1
  6  1  1  0
  6  4  1  0
  7  8  1  0
  9  7  1  0
 10 11  1  0
 12 13  2  0
 12 14  1  0
 13 15  1  0
 14 10  2  0
 15 11  2  0
 15 54  1  0
 16 24  1  0
 17 22  1  0
 18 19  1  0
 18 17  1  0
 20 19  1  0
 20 29  1  0
 20 21  1  0
 22 16  1  0
 22 21  1  0
 23 16  2  0
 24 25  1  0
 24 14  1  0
 26 27  2  0
 27 46  1  0
 28 27  1  0
 28 31  1  0
 29 30  1  0
 29 26  1  0
 30 28  2  0
 31 32  1  0
 32 33  2  0
 34 37  1  0
 34 33  1  0
 35 34  2  0
 36 35  1  0
 36 31  2  0
 37 38  1  0
 38 39  1  0
 39 40  2  0
 41 40  1  0
 41 45  1  0
 42 41  2  0
 43 38  2  0
 43 42  1  0
 44 43  1  0
 46 47  1  0
 47 50  1  0
 47 49  1  0
 48 46  2  0
 51 52  1  0
 51 26  1  0
 53 51  1  0
 54 55  1  0
 56 54  1  0
 57  5  1  0
 58 57  1  0
 60 59  1  0
 61 72  2  0
 62 60  1  0
 62 67  1  0
 63 71  1  0
 63 73  1  0
 64 70  1  0
 64 66  1  0
 65 71  1  0
 66 67  2  0
 66 65  1  0
 68 62  2  0
 69 68  1  0
 69 64  2  0
 70 63  1  0
 71 61  1  0
 73 75  2  0
 74 73  1  0
 76 74  1  0
 77 86  2  0
 77 82  1  0
 78 74  1  0
 78 82  1  0
 79 78  1  0
 80 81  1  0
 80 79  1  0
 81 77  1  0
 82 83  2  0
 83 84  1  0
 85 84  2  0
 86 85  1  0
 87 61  1  0
 87 92  1  0
 87 88  1  0
 88 91  1  1
 88 89  1  0
 90 88  1  0
 92 95  1  0
 93 97  1  0
 93 92  1  0
 94 93  2  0
 97 96  1  0
 99 97  1  0
 99100  1  0
 99 98  1  0
M  ISO  4  16 100  24 100  59 101  60 101
M  END
>  <TORSDO>  (22) 
F 20

>  <SCORE>  (22) 
-12.942

>  <name>  (22) 
21

>  <ligand_id>  (22) 
21

>  <original_smiles>  (22) 
[H]OC1(C([H])([H])Oc2c([H])c([H])c3c(c2[H])C([H])([H])N(C(=O)C([H])(N([H])C(=O)C([H])(N([H])C([H])([H])[H])C([H])([H])[H])C(C([H])([H])[H])(C([H])([H])[H])C([H])([H])[H])C([H])(C(=O)N([H])C2([H])c4c([H])c([H])c([H])c([H])c4C([H])([H])C([H])([H])C2([H])[H])C3([H])[H])C([H])([H])N(C(c2c([H])c(N([H])C(=O)N3C([H])([H])C([H])([H])C([H])([H])C([H])(n4nc(-c5c([H])c([H])c(Oc6c([H])c([H])c(F)c([H])c6F)c([H])c5[H])c(C(=O)N([H])[H])c4N([H])[H])C3([H])[H])c([H])c([H])c2N([H])[H])=[N+]([H])[H])C([H])([H])C1([H])[H]

>  <smiles>  (22) 
[H]OC1(C([H])([H])Oc2c([H])c([H])c3c(c2[H])C([H])([H])N(C(=O)C([H])(N([H])C(=O)C([H])(N([H])C([H])([H])[H])C([H])([H])[H])C(C([H])([H])[H])(C([H])([H])[H])C([H])([H])[H])C([H])(C(=O)N([H])C2([H])c4c([H])c([H])c([H])c([H])c4C([H])([H])C([H])([H])C2([H])[H])C3([H])[H])C([H])([H])N(C(c2c([H])c(N([H])C(=O)N3C([H])([H])C([H])([H])C([H])([H])C([H])(n4nc(-c5c([H])c([H])c(Oc6c([H])c([H])c(F)c([H])c6F)c([H])c5[H])c(C(=O)N([H])[H])c4N([H])[H])C3([H])[H])c([H])c([H])c2N([H])[H])=[N+]([H])[H])C([H])([H])C1([H])[H]

$$$$
22:0:0
     RDKit          3D

 97106  0  0  1  0  0  0  0  0999 V2000
  -29.5160  -23.2610   21.5380 C   0  0  0  0  0  2  0  0  0  0  0  0
  -30.0820  -21.8010   21.4560 C   0  0  0  0  0  2  0  0  0  0  0  0
  -28.5830  -22.1910   19.7140 C   0  0  0  0  0  2  0  0  0  0  0  0
  -29.0790  -23.6750   20.1110 C   0  0  2  0  0  0  0  0  0  0  0  0
  -29.4460  -21.1160   20.3260 N   0  0  0  0  0  0  0  0  0  0  0  0
  -29.4880  -18.5090   20.6780 C   0  0  0  0  0  3  0  0  0  0  0  0
  -29.8150  -19.7360   19.9020 C   0  0  0  0  0  0  0  0  0  0  0  0
  -30.5820  -19.3670   18.7940 C   0  0  0  0  0  0  0  0  0  0  0  0
  -29.9790  -17.2660   20.2140 C   0  0  0  0  0  0  0  0  0  0  0  0
  -30.8310  -17.6130   18.7420 S   0  0  0  0  0  0  0  0  0  0  0  0
  -30.5770  -14.7900   20.3540 C   0  0  0  0  0  0  0  0  0  0  0  0
  -30.3770  -12.5060   19.3610 C   0  0  0  0  0  2  0  0  0  0  0  0
  -29.4430  -12.5770   18.1340 C   0  0  0  0  0  2  0  0  0  0  0  0
  -27.9720  -12.4110   18.5620 C   0  0  0  0  0  2  0  0  0  0  0  0
  -27.6040  -13.2910   19.7870 C   0  0  0  0  0  3  0  0  0  0  0  0
  -28.6600  -13.2000   20.9080 C   0  0  0  0  0  2  0  0  0  0  0  0
  -29.9560  -13.5590   20.3180 N   0  0  0  0  0  0  0  0  0  0  0  0
  -31.7530  -14.8750   19.9860 O   0  0  0  0  0  0  0  0  0  0  0  0
  -29.8370  -15.9320   20.6670 N   0  0  0  0  0  0  0  0  0  0  0  0
  -28.9850  -15.7430   21.1740 H   0  0  0  0  0  0  0  0  0  0  0  0
  -25.2140  -13.8790   20.5090 C   0  0  0  0  0  0  0  0  0  0  0  0
  -24.1500  -13.1050   20.8860 C   0  0  0  0  0  0  0  0  0  0  0  0
  -24.6150  -11.7540   20.8600 C   0  0  0  0  0  0  0  0  0  0  0  0
  -26.2580  -13.0010   20.2760 N   0  0  0  0  0  0  0  0  0  0  0  0
  -25.9060  -11.7180   20.5480 N   0  0  0  0  0  0  0  0  0  0  0  0
  -23.8890  -10.4920   21.0560 C   0  0  0  0  0  0  0  0  0  0  0  0
  -24.3330   -9.5190   21.9810 C   0  0  0  0  0  3  0  0  0  0  0  0
  -23.6110   -8.3220   22.1630 C   0  0  0  0  0  3  0  0  0  0  0  0
  -22.4270   -8.0890   21.4240 C   0  0  0  0  0  0  0  0  0  0  0  0
  -22.0010   -9.0480   20.4880 C   0  0  0  0  0  3  0  0  0  0  0  0
  -22.7250  -10.2370   20.3030 C   0  0  0  0  0  3  0  0  0  0  0  0
  -21.6710   -6.9460   21.5200 O   0  0  0  0  0  0  0  0  0  0  0  0
  -21.6470   -6.1910   22.6650 C   0  0  0  0  0  0  0  0  0  0  0  0
  -21.2580   -6.7360   23.9090 C   0  0  0  0  0  3  0  0  0  0  0  0
  -21.1810   -5.9090   25.0470 C   0  0  0  0  0  3  0  0  0  0  0  0
  -21.4830   -4.5370   24.9440 C   0  0  0  0  0  0  0  0  0  0  0  0
  -21.8650   -3.9910   23.7040 C   0  0  0  0  0  3  0  0  0  0  0  0
  -21.9420   -4.8160   22.5680 C   0  0  0  0  0  0  0  0  0  0  0  0
  -22.2910   -4.2800   21.3740 F   0  0  0  0  0  0  0  0  0  0  0  0
  -21.4010   -3.7410   26.0350 F   0  0  0  0  0  0  0  0  0  0  0  0
  -22.7520  -13.5820   21.1560 C   0  0  0  0  0  0  0  0  0  0  0  0
  -22.0250  -12.8910   22.0270 N   0  0  0  0  0  0  0  0  0  0  0  0
  -22.3140  -14.6030   20.6290 O   0  0  0  0  0  0  0  0  0  0  0  0
  -22.3930  -12.0660   22.4790 H   0  0  0  0  0  0  0  0  0  0  0  0
  -21.0860  -13.1920   22.2470 H   0  0  0  0  0  0  0  0  0  0  0  0
  -25.3780  -15.2480   20.3240 N   0  0  0  0  0  0  0  0  0  0  0  0
  -24.6150  -15.9040   20.4460 H   0  0  0  0  0  0  0  0  0  0  0  0
  -26.2170  -15.6790   19.9540 H   0  0  0  0  0  0  0  0  0  0  0  0
  -32.2610  -21.1900   18.3250 C   0  0  0  0  0  1  0  0  0  0  0  0
  -30.2770  -20.8920   16.7640 C   0  0  0  0  0  1  0  0  0  0  0  0
  -32.1390  -19.3190   16.7480 C   0  0  0  0  0  1  0  0  0  0  0  0
  -31.2750  -20.1890   17.7000 C   0  0  2  0  0  0  0  0  0  0  0  0
  -30.2850  -24.1150   19.2460 C   0  0  0  0  0  0  0  0  0  0  0  0
  -30.0570  -24.3630   17.7580 C   0  0  0  0  0  1  0  0  0  0  0  0
  -31.4040  -24.3140   19.7270 O   0  0  0  0  0  0  0  0  0  0  0  0
  -27.9910  -24.8870   19.9990 C   0  0  0  0  0  2  0  0  0  0  0  0
  -28.2560  -26.3600   20.2280 O   0  0  0  0  0  0  0  0  0  0  0  0
  -24.6090  -31.8980   23.2390 C   0  0  0  0  0  0  0  0  0  0  0  0
  -27.1650  -27.2690   20.1770 C   0  0  0  0  0  0  0  0  0  0  0  0
  -23.3910  -30.5020   21.6120 C   0  0  0  0  0  3  0  0  0  0  0  0
  -24.8230  -28.9440   20.1780 C   0  0  0  0  0  0  0  0  0  0  0  0
  -25.9380  -30.7940   21.4160 C   0  0  0  0  0  2  0  0  0  0  0  0
  -26.0050  -29.4110   20.7640 C   0  0  0  0  0  0  0  0  0  0  0  0
  -27.1800  -28.5890   20.7480 C   0  0  0  0  0  3  0  0  0  0  0  0
  -25.9480  -26.8710   19.5730 C   0  0  0  0  0  3  0  0  0  0  0  0
  -24.7990  -27.6810   19.5720 C   0  0  0  0  0  3  0  0  0  0  0  0
  -23.5950  -29.8310   20.2310 C   0  0  0  0  0  2  0  0  0  0  0  0
  -24.6660  -31.0840   22.1430 N   0  0  0  0  0  0  0  0  0  0  0  0
  -23.5290  -32.1800   23.7790 O   0  0  0  0  0  0  0  0  0  0  0  0
  -22.7280  -29.4900   22.5770 C   0  0  0  0  0  0  0  0  0  0  0  0
  -21.4000  -29.3140   22.4570 N   0  0  0  0  0  0  0  0  0  0  0  0
  -23.4080  -28.8650   23.3940 O   0  0  0  0  0  0  0  0  0  0  0  0
  -20.9110  -29.8700   21.7700 H   0  0  0  0  0  0  0  0  0  0  0  0
  -18.0220  -28.1170   22.9710 C   0  0  0  0  0  0  0  0  0  0  0  0
  -20.5810  -28.3810   23.2350 C   0  0  0  0  0  3  0  0  0  0  0  0
  -20.6820  -26.9450   22.6690 C   0  0  0  0  0  2  0  0  0  0  0  0
  -19.5790  -26.6150   21.6590 C   0  0  0  0  0  2  0  0  0  0  0  0
  -18.1980  -26.7640   22.3030 C   0  0  0  0  0  2  0  0  0  0  0  0
  -19.1400  -28.8830   23.3940 C   0  0  0  0  0  0  0  0  0  0  0  0
  -18.9210  -30.1480   23.9800 C   0  0  0  0  0  3  0  0  0  0  0  0
  -17.6150  -30.6490   24.1440 C   0  0  0  0  0  3  0  0  0  0  0  0
  -16.5100  -29.8790   23.7380 C   0  0  0  0  0  3  0  0  0  0  0  0
  -16.7150  -28.6160   23.1580 C   0  0  0  0  0  3  0  0  0  0  0  0
  -25.8960  -32.5280   23.8530 C   0  0  0  0  0  3  0  0  0  0  0  0
  -26.4180  -31.7540   25.1270 C   0  0  1  0  0  0  0  0  0  0  0  0
  -25.3320  -31.5200   26.2030 C   0  0  0  0  0  1  0  0  0  0  0  0
  -26.9930  -30.3740   24.7310 C   0  0  0  0  0  1  0  0  0  0  0  0
  -27.5800  -32.5430   25.7760 C   0  0  0  0  0  1  0  0  0  0  0  0
  -25.5890  -33.9250   24.1920 N   0  0  0  0  0  0  0  0  0  0  0  0
  -25.9050  -34.9810   23.4300 C   0  0  0  0  0  0  0  0  0  0  0  0
  -26.5550  -34.8820   22.3860 O   0  0  0  0  0  0  0  0  0  0  0  0
  -25.0110  -34.0760   25.0050 H   0  0  0  0  0  0  0  0  0  0  0  0
  -24.1630  -36.7700   23.1210 C   0  0  0  0  0  1  0  0  0  0  0  0
  -25.4260  -36.3680   23.9020 C   0  0  0  0  0  3  0  0  0  0  0  0
  -27.5790  -37.2550   24.6770 C   0  0  0  0  0  1  0  0  0  0  0  0
  -26.4520  -37.4250   23.7640 N   0  0  0  0  0  0  0  0  0  0  0  0
  -26.0480  -38.3440   23.9250 H   0  0  0  0  0  0  0  0  0  0  0  0
  2  1  1  0
  3  4  1  0
  3  5  1  0
  4 56  1  1
  4  1  1  0
  5  2  1  0
  7  5  1  0
  7  6  1  0
  8  7  2  0
  9 19  1  0
  9  6  2  0
 10  8  1  0
 10  9  1  0
 11 19  1  0
 12 17  1  0
 13 14  1  0
 13 12  1  0
 15 14  1  0
 15 24  1  0
 15 16  1  0
 17 11  1  0
 17 16  1  0
 18 11  2  0
 19 20  1  0
 21 22  2  0
 22 41  1  0
 23 22  1  0
 23 26  1  0
 24 21  1  0
 24 25  1  0
 25 23  2  0
 26 27  1  0
 27 28  2  0
 29 32  1  0
 29 28  1  0
 30 29  2  0
 31 30  1  0
 31 26  2  0
 32 33  1  0
 33 34  1  0
 34 35  2  0
 36 35  1  0
 36 40  1  0
 37 36  2  0
 38 33  2  0
 38 37  1  0
 39 38  1  0
 41 42  1  0
 42 45  1  0
 42 44  1  0
 43 41  2  0
 46 47  1  0
 46 21  1  0
 48 46  1  0
 52 50  1  6
 51 52  1  0
 52 49  1  0
 52  8  1  0
 53 55  2  0
 53  4  1  0
 54 53  1  0
 56 57  1  0
 58 69  2  0
 59 57  1  0
 59 64  1  0
 60 68  1  0
 60 70  1  0
 61 67  1  0
 61 63  1  0
 62 68  1  0
 63 62  1  0
 64 63  2  0
 65 59  2  0
 66 65  1  0
 66 61  2  0
 67 60  1  0
 68 58  1  0
 70 72  2  0
 71 70  1  0
 73 71  1  0
 74 83  2  0
 74 79  1  0
 75 71  1  0
 75 79  1  0
 76 75  1  0
 77 78  1  0
 77 76  1  0
 78 74  1  0
 79 80  2  0
 80 81  1  0
 82 81  2  0
 83 82  1  0
 84 58  1  0
 84 89  1  0
 84 85  1  0
 85 88  1  1
 85 86  1  0
 87 85  1  0
 89 92  1  0
 90 94  1  0
 90 89  1  0
 91 90  2  0
 94 93  1  0
 96 94  1  0
 96 97  1  0
 96 95  1  0
M  ISO  4  11 100  19 100  56 101  57 101
M  END
>  <TORSDO>  (23) 
F 20

>  <SCORE>  (23) 
-14.109

>  <name>  (23) 
22

>  <ligand_id>  (23) 
22

>  <original_smiles>  (23) 
[H]c1c([H])c([H])c2c(c1[H])C([H])([H])C([H])([H])C([H])([H])C2([H])N([H])C(=O)C1([H])N(C(=O)C([H])(N([H])C(=O)C([H])(N([H])C([H])([H])[H])C([H])([H])[H])C(C([H])([H])[H])(C([H])([H])[H])C([H])([H])[H])C([H])([H])c2c([H])c(OC([H])([H])C3(C(=O)C([H])([H])[H])C([H])([H])N(c4c(C(C([H])([H])[H])(C([H])([H])[H])C([H])([H])[H])sc(N([H])C(=O)N5C([H])([H])C([H])([H])C([H])([H])C([H])(n6nc(-c7c([H])c([H])c(Oc8c([H])c([H])c(F)c([H])c8F)c([H])c7[H])c(C(=O)N([H])[H])c6N([H])[H])C5([H])[H])c4[H])C([H])([H])C3([H])[H])c([H])c([H])c2C1([H])[H]

>  <smiles>  (23) 
[H]c1c([H])c([H])c2c(c1[H])C([H])([H])C([H])([H])C([H])([H])C2([H])N([H])C(=O)C1([H])N(C(=O)C([H])(N([H])C(=O)C([H])(N([H])C([H])([H])[H])C([H])([H])[H])C(C([H])([H])[H])(C([H])([H])[H])C([H])([H])[H])C([H])([H])c2c([H])c(OC([H])([H])C3(C(=O)C([H])([H])[H])C([H])([H])N(c4c(C(C([H])([H])[H])(C([H])([H])[H])C([H])([H])[H])sc(N([H])C(=O)N5C([H])([H])C([H])([H])C([H])([H])C([H])(n6nc(-c7c([H])c([H])c(Oc8c([H])c([H])c(F)c([H])c8F)c([H])c7[H])c(C(=O)N([H])[H])c6N([H])[H])C5([H])[H])c4[H])C([H])([H])C3([H])[H])c([H])c([H])c2C1([H])[H]

$$$$
23:0:0
     RDKit          3D

 93102  0  0  1  0  0  0  0  0999 V2000
  -28.7140  -22.7310   18.9620 C   0  0  0  0  0  2  0  0  0  0  0  0
  -29.1650  -23.2850   21.3060 C   0  0  0  0  0  2  0  0  0  0  0  0
  -29.5030  -21.3930   19.1290 C   0  0  0  0  0  2  0  0  0  0  0  0
  -29.9430  -21.9270   21.4240 C   0  0  0  0  0  2  0  0  0  0  0  0
  -29.1640  -23.9130   19.8790 C   0  0  1  0  0  0  0  0  0  0  0  0
  -29.4810  -20.8680   20.5000 N   0  0  0  0  0  0  0  0  0  0  0  0
  -29.3840  -18.2910   20.5120 C   0  0  0  0  0  3  0  0  0  0  0  0
  -31.5210  -17.5550   21.1120 C   0  0  0  0  0  3  0  0  0  0  0  0
  -30.2580  -17.1510   20.7590 C   0  0  0  0  0  0  0  0  0  0  0  0
  -29.9910  -19.5380   20.6770 C   0  0  0  0  0  0  0  0  0  0  0  0
  -31.6610  -19.2990   21.1600 S   0  0  0  0  0  0  0  0  0  0  0  0
  -30.5960  -14.6270   20.4350 C   0  0  0  0  0  0  0  0  0  0  0  0
  -30.3290  -12.4050   19.3660 C   0  0  0  0  0  2  0  0  0  0  0  0
  -29.3920  -12.5460   18.1470 C   0  0  0  0  0  2  0  0  0  0  0  0
  -27.9180  -12.3900   18.5740 C   0  0  0  0  0  2  0  0  0  0  0  0
  -27.5610  -13.2520   19.8150 C   0  0  0  0  0  3  0  0  0  0  0  0
  -28.6210  -13.1160   20.9320 C   0  0  0  0  0  2  0  0  0  0  0  0
  -29.9290  -13.4350   20.3430 N   0  0  0  0  0  0  0  0  0  0  0  0
  -31.7780  -14.7170   20.0900 O   0  0  0  0  0  0  0  0  0  0  0  0
  -29.8480  -15.7470   20.6920 N   0  0  0  0  0  0  0  0  0  0  0  0
  -28.8590  -15.5730   20.7900 H   0  0  0  0  0  0  0  0  0  0  0  0
  -25.1630  -13.8410   20.5260 C   0  0  0  0  0  0  0  0  0  0  0  0
  -24.0980  -13.0650   20.8920 C   0  0  0  0  0  0  0  0  0  0  0  0
  -24.5650  -11.7140   20.8660 C   0  0  0  0  0  0  0  0  0  0  0  0
  -26.2130  -12.9660   20.2990 N   0  0  0  0  0  0  0  0  0  0  0  0
  -25.8590  -11.6820   20.5670 N   0  0  0  0  0  0  0  0  0  0  0  0
  -23.8430  -10.4500   21.0570 C   0  0  0  0  0  0  0  0  0  0  0  0
  -24.2820   -9.4790   21.9840 C   0  0  0  0  0  3  0  0  0  0  0  0
  -23.5600   -8.2790   22.1630 C   0  0  0  0  0  3  0  0  0  0  0  0
  -22.3830   -8.0420   21.4140 C   0  0  0  0  0  0  0  0  0  0  0  0
  -21.9610   -9.0010   20.4760 C   0  0  0  0  0  3  0  0  0  0  0  0
  -22.6840  -10.1920   20.2950 C   0  0  0  0  0  3  0  0  0  0  0  0
  -21.6290   -6.8960   21.5040 O   0  0  0  0  0  0  0  0  0  0  0  0
  -21.5980   -6.1430   22.6510 C   0  0  0  0  0  0  0  0  0  0  0  0
  -21.1870   -6.6870   23.8870 C   0  0  0  0  0  3  0  0  0  0  0  0
  -21.1010   -5.8610   25.0260 C   0  0  0  0  0  3  0  0  0  0  0  0
  -21.4160   -4.4930   24.9280 C   0  0  0  0  0  0  0  0  0  0  0  0
  -21.8210   -3.9490   23.6970 C   0  0  0  0  0  3  0  0  0  0  0  0
  -21.9090   -4.7710   22.5600 C   0  0  0  0  0  0  0  0  0  0  0  0
  -22.2770   -4.2380   21.3710 F   0  0  0  0  0  0  0  0  0  0  0  0
  -21.3270   -3.6960   26.0190 F   0  0  0  0  0  0  0  0  0  0  0  0
  -22.6960  -13.5370   21.1540 C   0  0  0  0  0  0  0  0  0  0  0  0
  -21.9660  -12.8450   22.0210 N   0  0  0  0  0  0  0  0  0  0  0  0
  -22.2580  -14.5570   20.6230 O   0  0  0  0  0  0  0  0  0  0  0  0
  -22.3330  -12.0190   22.4710 H   0  0  0  0  0  0  0  0  0  0  0  0
  -21.0280  -13.1470   22.2370 H   0  0  0  0  0  0  0  0  0  0  0  0
  -25.3210  -15.2120   20.3440 N   0  0  0  0  0  0  0  0  0  0  0  0
  -24.5450  -15.8560   20.4530 H   0  0  0  0  0  0  0  0  0  0  0  0
  -26.1620  -15.6600   20.0060 H   0  0  0  0  0  0  0  0  0  0  0  0
  -31.1500  -25.3240   20.0300 C   0  0  0  0  0  1  0  0  0  0  0  0
  -30.4880  -24.2170   19.4260 O   0  0  0  0  0  0  0  0  0  0  0  0
  -28.1540  -25.1310   19.6530 C   0  0  0  0  0  2  0  0  0  0  0  0
  -28.3150  -26.4980   20.1870 O   0  0  0  0  0  0  0  0  0  0  0  0
  -24.6050  -31.8760   23.2660 C   0  0  0  0  0  0  0  0  0  0  0  0
  -27.1900  -27.3420   20.1500 C   0  0  0  0  0  0  0  0  0  0  0  0
  -23.3870  -30.4910   21.6260 C   0  0  0  0  0  3  0  0  0  0  0  0
  -24.8240  -28.9520   20.1830 C   0  0  0  0  0  0  0  0  0  0  0  0
  -25.9290  -30.8030   21.4320 C   0  0  0  0  0  2  0  0  0  0  0  0
  -25.9990  -29.4310   20.7760 C   0  0  0  0  0  0  0  0  0  0  0  0
  -27.1820  -28.6360   20.7560 C   0  0  0  0  0  3  0  0  0  0  0  0
  -25.9850  -26.9220   19.5320 C   0  0  0  0  0  3  0  0  0  0  0  0
  -24.8170  -27.6990   19.5590 C   0  0  0  0  0  3  0  0  0  0  0  0
  -23.5910  -29.8280   20.2410 C   0  0  0  0  0  2  0  0  0  0  0  0
  -24.6600  -31.0740   22.1640 N   0  0  0  0  0  0  0  0  0  0  0  0
  -23.5260  -32.1550   23.8080 O   0  0  0  0  0  0  0  0  0  0  0  0
  -22.7320  -29.4660   22.5830 C   0  0  0  0  0  0  0  0  0  0  0  0
  -21.4060  -29.2880   22.4590 N   0  0  0  0  0  0  0  0  0  0  0  0
  -23.4140  -28.8360   23.3960 O   0  0  0  0  0  0  0  0  0  0  0  0
  -20.9160  -29.8470   21.7760 H   0  0  0  0  0  0  0  0  0  0  0  0
  -18.0310  -28.0840   22.9590 C   0  0  0  0  0  0  0  0  0  0  0  0
  -20.5900  -28.3490   23.2290 C   0  0  0  0  0  3  0  0  0  0  0  0
  -20.6930  -26.9170   22.6560 C   0  0  0  0  0  2  0  0  0  0  0  0
  -19.5920  -26.5910   21.6410 C   0  0  0  0  0  2  0  0  0  0  0  0
  -18.2100  -26.7340   22.2840 C   0  0  0  0  0  2  0  0  0  0  0  0
  -19.1490  -28.8480   23.3880 C   0  0  0  0  0  0  0  0  0  0  0  0
  -18.9270  -30.1110   23.9810 C   0  0  0  0  0  3  0  0  0  0  0  0
  -17.6220  -30.6110   24.1440 C   0  0  0  0  0  3  0  0  0  0  0  0
  -16.5190  -29.8450   23.7300 C   0  0  0  0  0  3  0  0  0  0  0  0
  -16.7240  -28.5820   23.1450 C   0  0  0  0  0  3  0  0  0  0  0  0
  -25.8960  -32.5020   23.8810 C   0  0  0  0  0  3  0  0  0  0  0  0
  -26.4140  -31.7290   25.1570 C   0  0  1  0  0  0  0  0  0  0  0  0
  -25.3240  -31.4930   26.2290 C   0  0  0  0  0  1  0  0  0  0  0  0
  -26.9890  -30.3480   24.7630 C   0  0  0  0  0  1  0  0  0  0  0  0
  -27.5720  -32.5160   25.8130 C   0  0  0  0  0  1  0  0  0  0  0  0
  -25.5930  -33.9010   24.2140 N   0  0  0  0  0  0  0  0  0  0  0  0
  -25.9140  -34.9510   23.4480 C   0  0  0  0  0  0  0  0  0  0  0  0
  -26.5670  -34.8470   22.4060 O   0  0  0  0  0  0  0  0  0  0  0  0
  -25.0110  -34.0560   25.0240 H   0  0  0  0  0  0  0  0  0  0  0  0
  -24.1760  -36.7410   23.1270 C   0  0  0  0  0  1  0  0  0  0  0  0
  -25.4350  -36.3410   23.9120 C   0  0  0  0  0  3  0  0  0  0  0  0
  -27.5860  -37.2300   24.6940 C   0  0  0  0  0  1  0  0  0  0  0  0
  -26.4640  -37.3950   23.7730 N   0  0  0  0  0  0  0  0  0  0  0  0
  -26.0600  -38.3140   23.9250 H   0  0  0  0  0  0  0  0  0  0  0  0
  1  3  1  0
  1  5  1  0
  2  4  1  0
  3  6  1  0
  5 52  1  1
  5  2  1  0
  6 10  1  0
  6  4  1  0
  7 10  2  0
  7  9  1  0
  8 11  1  0
  9  8  2  0
 10 11  1  0
 12 20  1  0
 13 18  1  0
 14 15  1  0
 14 13  1  0
 16 15  1  0
 16 25  1  0
 16 17  1  0
 18 12  1  0
 18 17  1  0
 19 12  2  0
 20  9  1  0
 20 21  1  0
 22 23  2  0
 23 42  1  0
 24 23  1  0
 24 27  1  0
 25 22  1  0
 25 26  1  0
 26 24  2  0
 27 28  1  0
 28 29  2  0
 30 33  1  0
 30 29  1  0
 31 30  2  0
 32 31  1  0
 32 27  2  0
 33 34  1  0
 34 35  1  0
 35 36  2  0
 37 36  1  0
 37 41  1  0
 38 37  2  0
 39 34  2  0
 39 38  1  0
 40 39  1  0
 42 43  1  0
 43 46  1  0
 43 45  1  0
 44 42  2  0
 47 48  1  0
 47 22  1  0
 49 47  1  0
 51  5  1  0
 51 50  1  0
 52 53  1  0
 54 65  2  0
 55 53  1  0
 55 60  1  0
 56 64  1  0
 56 66  1  0
 57 63  1  0
 57 59  1  0
 58 64  1  0
 59 58  1  0
 60 59  2  0
 61 62  1  0
 61 55  2  0
 62 57  2  0
 63 56  1  0
 64 54  1  0
 66 68  2  0
 67 66  1  0
 69 67  1  0
 70 79  2  0
 70 75  1  0
 71 67  1  0
 71 75  1  0
 72 71  1  0
 73 74  1  0
 73 72  1  0
 74 70  1  0
 75 76  2  0
 76 77  1  0
 78 77  2  0
 79 78  1  0
 80 54  1  0
 80 85  1  0
 80 81  1  0
 81 84  1  1
 81 82  1  0
 83 81  1  0
 85 88  1  0
 86 90  1  0
 86 85  1  0
 87 86  2  0
 90 89  1  0
 92 90  1  0
 92 93  1  0
 92 91  1  0
M  ISO  4  12 100  20 100  52 101  53 101
M  END
>  <TORSDO>  (24) 
F 19

>  <SCORE>  (24) 
-14.456

>  <name>  (24) 
23

>  <ligand_id>  (24) 
23

>  <original_smiles>  (24) 
[H]c1sc(N2C([H])([H])C([H])([H])C(OC([H])([H])[H])(C([H])([H])Oc3c([H])c([H])c4c(c3[H])C([H])([H])N(C(=O)C([H])(N([H])C(=O)C([H])(N([H])C([H])([H])[H])C([H])([H])[H])C(C([H])([H])[H])(C([H])([H])[H])C([H])([H])[H])C([H])(C(=O)N([H])C3([H])c5c([H])c([H])c([H])c([H])c5C([H])([H])C([H])([H])C3([H])[H])C4([H])[H])C([H])([H])C2([H])[H])c([H])c1N([H])C(=O)N1C([H])([H])C([H])([H])C([H])([H])C([H])(n2nc(-c3c([H])c([H])c(Oc4c([H])c([H])c(F)c([H])c4F)c([H])c3[H])c(C(=O)N([H])[H])c2N([H])[H])C1([H])[H]

>  <smiles>  (24) 
[H]c1sc(N2C([H])([H])C([H])([H])C(OC([H])([H])[H])(C([H])([H])Oc3c([H])c([H])c4c(c3[H])C([H])([H])N(C(=O)C([H])(N([H])C(=O)C([H])(N([H])C([H])([H])[H])C([H])([H])[H])C(C([H])([H])[H])(C([H])([H])[H])C([H])([H])[H])C([H])(C(=O)N([H])C3([H])c5c([H])c([H])c([H])c([H])c5C([H])([H])C([H])([H])C3([H])[H])C4([H])[H])C([H])([H])C2([H])[H])c([H])c1N([H])C(=O)N1C([H])([H])C([H])([H])C([H])([H])C([H])(n2nc(-c3c([H])c([H])c(Oc4c([H])c([H])c(F)c([H])c4F)c([H])c3[H])c(C(=O)N([H])[H])c2N([H])[H])C1([H])[H]

$$$$
24:0:0
     RDKit          3D

 93102  0  0  1  0  0  0  0  0999 V2000
  -30.3840  -23.7350   20.2530 C   0  0  0  0  0  2  0  0  0  0  0  0
  -30.8960  -22.3000   19.9740 C   0  0  0  0  0  2  0  0  0  0  0  0
  -28.5710  -22.2180   20.4570 C   0  0  0  0  0  2  0  0  0  0  0  0
  -28.8680  -23.7320   19.9560 C   0  0  2  0  0  0  0  0  0  0  0  0
  -29.7980  -21.3780   20.2680 N   0  0  0  0  0  0  0  0  0  0  0  0
  -31.2240  -19.3210   20.0010 C   0  0  0  0  0  3  0  0  0  0  0  0
  -31.2600  -17.8790   20.0750 C   0  0  0  0  0  3  0  0  0  0  0  0
  -30.0180  -19.9330   20.2790 C   0  0  0  0  0  0  0  0  0  0  0  0
  -30.0780  -17.2560   20.4180 C   0  0  0  0  0  0  0  0  0  0  0  0
  -28.8800  -18.5950   20.6470 S   0  0  0  0  0  0  0  0  0  0  0  0
  -30.5880  -14.7590   20.2960 C   0  0  0  0  0  0  0  0  0  0  0  0
  -30.3710  -12.4980   19.2630 C   0  0  0  0  0  2  0  0  0  0  0  0
  -29.4190  -12.5950   18.0500 C   0  0  0  0  0  2  0  0  0  0  0  0
  -27.9530  -12.4210   18.4940 C   0  0  0  0  0  2  0  0  0  0  0  0
  -27.5970  -13.2940   19.7270 C   0  0  0  0  0  3  0  0  0  0  0  0
  -28.6670  -13.1830   20.8350 C   0  0  0  0  0  2  0  0  0  0  0  0
  -29.9590  -13.5360   20.2340 N   0  0  0  0  0  0  0  0  0  0  0  0
  -31.7670  -14.8550   19.9450 O   0  0  0  0  0  0  0  0  0  0  0  0
  -29.8120  -15.8810   20.5620 N   0  0  0  0  0  0  0  0  0  0  0  0
  -28.8660  -15.6580   20.8310 H   0  0  0  0  0  0  0  0  0  0  0  0
  -25.2130  -13.8770   20.4740 C   0  0  0  0  0  0  0  0  0  0  0  0
  -24.1530  -13.1000   20.8530 C   0  0  0  0  0  0  0  0  0  0  0  0
  -24.6190  -11.7510   20.8170 C   0  0  0  0  0  0  0  0  0  0  0  0
  -26.2560  -13.0010   20.2290 N   0  0  0  0  0  0  0  0  0  0  0  0
  -25.9070  -11.7170   20.4970 N   0  0  0  0  0  0  0  0  0  0  0  0
  -23.8980  -10.4860   21.0100 C   0  0  0  0  0  0  0  0  0  0  0  0
  -24.3350   -9.5210   21.9450 C   0  0  0  0  0  3  0  0  0  0  0  0
  -23.6130   -8.3210   22.1260 C   0  0  0  0  0  3  0  0  0  0  0  0
  -22.4400   -8.0780   21.3730 C   0  0  0  0  0  0  0  0  0  0  0  0
  -22.0210   -9.0310   20.4280 C   0  0  0  0  0  3  0  0  0  0  0  0
  -22.7440  -10.2220   20.2450 C   0  0  0  0  0  3  0  0  0  0  0  0
  -21.6890   -6.9310   21.4640 O   0  0  0  0  0  0  0  0  0  0  0  0
  -21.6390   -6.1930   22.6200 C   0  0  0  0  0  0  0  0  0  0  0  0
  -21.1970   -6.7480   23.8400 C   0  0  0  0  0  3  0  0  0  0  0  0
  -21.0970   -5.9350   24.9880 C   0  0  0  0  0  3  0  0  0  0  0  0
  -21.4270   -4.5700   24.9150 C   0  0  0  0  0  0  0  0  0  0  0  0
  -21.8630   -4.0140   23.6990 C   0  0  0  0  0  3  0  0  0  0  0  0
  -21.9650   -4.8240   22.5540 C   0  0  0  0  0  0  0  0  0  0  0  0
  -22.3650   -4.2780   21.3800 F   0  0  0  0  0  0  0  0  0  0  0  0
  -21.3240   -3.7870   26.0150 F   0  0  0  0  0  0  0  0  0  0  0  0
  -22.7560  -13.5730   21.1360 C   0  0  0  0  0  0  0  0  0  0  0  0
  -22.0340  -12.8710   22.0020 N   0  0  0  0  0  0  0  0  0  0  0  0
  -22.3130  -14.6000   20.6220 O   0  0  0  0  0  0  0  0  0  0  0  0
  -22.4050  -12.0410   22.4390 H   0  0  0  0  0  0  0  0  0  0  0  0
  -21.0980  -13.1690   22.2340 H   0  0  0  0  0  0  0  0  0  0  0  0
  -25.3700  -15.2490   20.2950 N   0  0  0  0  0  0  0  0  0  0  0  0
  -24.5960  -15.8960   20.4040 H   0  0  0  0  0  0  0  0  0  0  0  0
  -26.2010  -15.6900   19.9250 H   0  0  0  0  0  0  0  0  0  0  0  0
  -28.5780  -23.8120   18.4370 C   0  0  0  0  0  0  0  0  0  0  0  0
  -27.1510  -23.5500   17.9670 C   0  0  0  0  0  1  0  0  0  0  0  0
  -29.4510  -24.0900   17.6090 O   0  0  0  0  0  0  0  0  0  0  0  0
  -28.0990  -24.9890   20.6440 C   0  0  0  0  0  2  0  0  0  0  0  0
  -28.3290  -26.4230   20.2450 O   0  0  0  0  0  0  0  0  0  0  0  0
  -24.6090  -31.8950   23.2410 C   0  0  0  0  0  0  0  0  0  0  0  0
  -27.2270  -27.3040   20.2130 C   0  0  0  0  0  0  0  0  0  0  0  0
  -23.4120  -30.4890   21.6040 C   0  0  0  0  0  3  0  0  0  0  0  0
  -24.8680  -28.9360   20.1830 C   0  0  0  0  0  0  0  0  0  0  0  0
  -25.9530  -30.8060   21.4240 C   0  0  0  0  0  2  0  0  0  0  0  0
  -26.0370  -29.4230   20.7810 C   0  0  0  0  0  0  0  0  0  0  0  0
  -27.2220  -28.6200   20.7820 C   0  0  0  0  0  3  0  0  0  0  0  0
  -26.0390  -26.8850   19.5750 C   0  0  0  0  0  3  0  0  0  0  0  0
  -24.8730  -27.6750   19.5680 C   0  0  0  0  0  3  0  0  0  0  0  0
  -23.6290  -29.8100   20.2270 C   0  0  0  0  0  2  0  0  0  0  0  0
  -24.6770  -31.0820   22.1460 N   0  0  0  0  0  0  0  0  0  0  0  0
  -23.5250  -32.1720   23.7740 O   0  0  0  0  0  0  0  0  0  0  0  0
  -22.7490  -29.4740   22.5680 C   0  0  0  0  0  0  0  0  0  0  0  0
  -21.4220  -29.2950   22.4420 N   0  0  0  0  0  0  0  0  0  0  0  0
  -23.4280  -28.8520   23.3880 O   0  0  0  0  0  0  0  0  0  0  0  0
  -20.9330  -29.8480   21.7520 H   0  0  0  0  0  0  0  0  0  0  0  0
  -18.0460  -28.1000   22.9540 C   0  0  0  0  0  0  0  0  0  0  0  0
  -20.6050  -28.3580   23.2150 C   0  0  0  0  0  3  0  0  0  0  0  0
  -20.7050  -26.9260   22.6400 C   0  0  0  0  0  2  0  0  0  0  0  0
  -19.5990  -26.6050   21.6280 C   0  0  0  0  0  2  0  0  0  0  0  0
  -18.2200  -26.7500   22.2770 C   0  0  0  0  0  2  0  0  0  0  0  0
  -19.1660  -28.8620   23.3790 C   0  0  0  0  0  0  0  0  0  0  0  0
  -18.9500  -30.1240   23.9720 C   0  0  0  0  0  3  0  0  0  0  0  0
  -17.6460  -30.6260   24.1430 C   0  0  0  0  0  3  0  0  0  0  0  0
  -16.5400  -29.8610   23.7320 C   0  0  0  0  0  3  0  0  0  0  0  0
  -16.7410  -28.6000   23.1440 C   0  0  0  0  0  3  0  0  0  0  0  0
  -25.8890  -32.5340   23.8640 C   0  0  0  0  0  3  0  0  0  0  0  0
  -26.4030  -31.7710   25.1460 C   0  0  1  0  0  0  0  0  0  0  0  0
  -25.3070  -31.5380   26.2120 C   0  0  0  0  0  1  0  0  0  0  0  0
  -26.9890  -30.3920   24.7650 C   0  0  0  0  0  1  0  0  0  0  0  0
  -27.5510  -32.5700   25.8060 C   0  0  0  0  0  1  0  0  0  0  0  0
  -25.5760  -33.9340   24.1860 N   0  0  0  0  0  0  0  0  0  0  0  0
  -25.9090  -34.9840   23.4250 C   0  0  0  0  0  0  0  0  0  0  0  0
  -26.5810  -34.8780   22.3950 O   0  0  0  0  0  0  0  0  0  0  0  0
  -24.9780  -34.0910   24.9850 H   0  0  0  0  0  0  0  0  0  0  0  0
  -24.1840  -36.7780   23.0560 C   0  0  0  0  0  1  0  0  0  0  0  0
  -25.4200  -36.3740   23.8760 C   0  0  0  0  0  3  0  0  0  0  0  0
  -27.5500  -37.2600   24.7180 C   0  0  0  0  0  1  0  0  0  0  0  0
  -26.4540  -37.4270   23.7670 N   0  0  0  0  0  0  0  0  0  0  0  0
  -26.0470  -38.3470   23.9090 H   0  0  0  0  0  0  0  0  0  0  0  0
  2  1  1  0
  2  5  1  0
  4  1  1  0
  4  3  1  0
  4 52  1  1
  5  8  1  0
  5  3  1  0
  6  7  1  0
  6  8  2  0
  7  9  2  0
  8 10  1  0
  9 19  1  0
  9 10  1  0
 11 19  1  0
 12 17  1  0
 13 14  1  0
 13 12  1  0
 15 14  1  0
 15 24  1  0
 15 16  1  0
 17 11  1  0
 17 16  1  0
 18 11  2  0
 19 20  1  0
 21 22  2  0
 22 41  1  0
 23 22  1  0
 23 26  1  0
 24 21  1  0
 24 25  1  0
 25 23  2  0
 26 27  1  0
 27 28  2  0
 29 32  1  0
 29 28  1  0
 30 29  2  0
 31 30  1  0
 31 26  2  0
 32 33  1  0
 33 34  1  0
 34 35  2  0
 36 35  1  0
 36 40  1  0
 37 36  2  0
 38 33  2  0
 38 37  1  0
 39 38  1  0
 41 42  1  0
 42 45  1  0
 42 44  1  0
 43 41  2  0
 46 47  1  0
 46 21  1  0
 48 46  1  0
 49  4  1  0
 50 49  1  0
 51 49  2  0
 53 52  1  0
 54 65  2  0
 55 53  1  0
 55 60  1  0
 56 64  1  0
 56 66  1  0
 57 63  1  0
 57 59  1  0
 58 64  1  0
 59 60  2  0
 59 58  1  0
 61 55  2  0
 62 61  1  0
 62 57  2  0
 63 56  1  0
 64 54  1  0
 66 68  2  0
 67 66  1  0
 69 67  1  0
 70 79  2  0
 70 75  1  0
 71 67  1  0
 71 75  1  0
 72 71  1  0
 73 74  1  0
 73 72  1  0
 74 70  1  0
 75 76  2  0
 76 77  1  0
 78 77  2  0
 79 78  1  0
 80 54  1  0
 80 85  1  0
 80 81  1  0
 81 84  1  1
 81 82  1  0
 83 81  1  0
 85 88  1  0
 86 90  1  0
 86 85  1  0
 87 86  2  0
 90 89  1  0
 92 90  1  0
 92 93  1  0
 92 91  1  0
M  ISO  4  11 100  19 100  52 101  53 101
M  END
>  <TORSDO>  (25) 
F 19

>  <SCORE>  (25) 
-14.248

>  <name>  (25) 
24

>  <ligand_id>  (25) 
24

>  <original_smiles>  (25) 
[H]c1c(N([H])C(=O)N2C([H])([H])C([H])([H])C([H])([H])C([H])(n3nc(-c4c([H])c([H])c(Oc5c([H])c([H])c(F)c([H])c5F)c([H])c4[H])c(C(=O)N([H])[H])c3N([H])[H])C2([H])[H])sc(N2C([H])([H])C([H])([H])C(C(=O)C([H])([H])[H])(C([H])([H])Oc3c([H])c([H])c4c(c3[H])C([H])([H])N(C(=O)C([H])(N([H])C(=O)C([H])(N([H])C([H])([H])[H])C([H])([H])[H])C(C([H])([H])[H])(C([H])([H])[H])C([H])([H])[H])C([H])(C(=O)N([H])C3([H])c5c([H])c([H])c([H])c([H])c5C([H])([H])C([H])([H])C3([H])[H])C4([H])[H])C2([H])[H])c1[H]

>  <smiles>  (25) 
[H]c1c(N([H])C(=O)N2C([H])([H])C([H])([H])C([H])([H])C([H])(n3nc(-c4c([H])c([H])c(Oc5c([H])c([H])c(F)c([H])c5F)c([H])c4[H])c(C(=O)N([H])[H])c3N([H])[H])C2([H])[H])sc(N2C([H])([H])C([H])([H])C(C(=O)C([H])([H])[H])(C([H])([H])Oc3c([H])c([H])c4c(c3[H])C([H])([H])N(C(=O)C([H])(N([H])C(=O)C([H])(N([H])C([H])([H])[H])C([H])([H])[H])C(C([H])([H])[H])(C([H])([H])[H])C([H])([H])[H])C([H])(C(=O)N([H])C3([H])c5c([H])c([H])c([H])c([H])c5C([H])([H])C([H])([H])C3([H])[H])C4([H])[H])C2([H])[H])c1[H]

$$$$
25:0:0
     RDKit          3D

 96105  0  0  1  0  0  0  0  0999 V2000
  -28.5230  -19.3910   20.8310 C   0  0  0  0  0  3  0  0  0  0  0  0
  -28.6490  -17.9720   20.8130 C   0  0  0  0  0  3  0  0  0  0  0  0
  -30.9990  -18.1580   20.3890 C   0  0  0  0  0  3  0  0  0  0  0  0
  -30.8910  -19.5830   20.5180 C   0  0  0  0  0  0  0  0  0  0  0  0
  -29.6420  -20.2690   20.7180 C   0  0  0  0  0  0  0  0  0  0  0  0
  -29.8860  -17.2990   20.5970 C   0  0  0  0  0  0  0  0  0  0  0  0
  -32.1420  -20.4040   20.5190 C   0  0  0  0  0  0  0  0  0  0  0  0
  -30.7870  -22.1480   21.6030 C   0  0  0  0  0  2  0  0  0  0  0  0
  -32.0050  -21.6320   20.9890 N   0  0  0  0  0  0  0  0  0  0  0  0
  -29.5930  -21.7230   20.8480 N   0  0  0  0  0  0  0  0  0  0  0  0
  -33.2360  -19.9450   20.1680 O   0  0  0  0  0  0  0  0  0  0  0  0
  -32.8460  -22.1740   21.1230 H   0  0  0  0  0  0  0  0  0  0  0  0
  -30.7100  -14.8160   20.1560 C   0  0  0  0  0  0  0  0  0  0  0  0
  -30.5010  -12.5890   19.0400 C   0  0  0  0  0  2  0  0  0  0  0  0
  -29.4950  -12.7140   17.8600 C   0  0  0  0  0  2  0  0  0  0  0  0
  -28.0440  -12.5230   18.3430 C   0  0  0  0  0  2  0  0  0  0  0  0
  -27.7450  -13.3680   19.6120 C   0  0  0  0  0  3  0  0  0  0  0  0
  -28.8390  -13.1730   20.6810 C   0  0  0  0  0  2  0  0  0  0  0  0
  -30.1200  -13.5760   20.0780 N   0  0  0  0  0  0  0  0  0  0  0  0
  -31.8380  -15.0140   19.6820 O   0  0  0  0  0  0  0  0  0  0  0  0
  -29.9250  -15.8230   20.6820 N   0  0  0  0  0  0  0  0  0  0  0  0
  -29.1450  -15.4220   21.1800 H   0  0  0  0  0  0  0  0  0  0  0  0
  -25.3770  -13.9590   20.4300 C   0  0  0  0  0  0  0  0  0  0  0  0
  -24.3280  -13.1780   20.8280 C   0  0  0  0  0  0  0  0  0  0  0  0
  -24.7930  -11.8290   20.7590 C   0  0  0  0  0  0  0  0  0  0  0  0
  -26.4140  -13.0830   20.1440 N   0  0  0  0  0  0  0  0  0  0  0  0
  -26.0720  -11.7980   20.4110 N   0  0  0  0  0  0  0  0  0  0  0  0
  -24.0780  -10.5620   20.9580 C   0  0  0  0  0  0  0  0  0  0  0  0
  -24.5080   -9.6130   21.9120 C   0  0  0  0  0  3  0  0  0  0  0  0
  -23.7950   -8.4080   22.0970 C   0  0  0  0  0  3  0  0  0  0  0  0
  -22.6380   -8.1430   21.3260 C   0  0  0  0  0  0  0  0  0  0  0  0
  -22.2300   -9.0780   20.3590 C   0  0  0  0  0  3  0  0  0  0  0  0
  -22.9430  -10.2750   20.1730 C   0  0  0  0  0  3  0  0  0  0  0  0
  -21.8980   -6.9900   21.4180 O   0  0  0  0  0  0  0  0  0  0  0  0
  -21.7880   -6.2990   22.5990 C   0  0  0  0  0  0  0  0  0  0  0  0
  -21.2290   -6.8860   23.7540 C   0  0  0  0  0  3  0  0  0  0  0  0
  -21.0700   -6.1200   24.9270 C   0  0  0  0  0  3  0  0  0  0  0  0
  -21.4570   -4.7660   24.9420 C   0  0  0  0  0  0  0  0  0  0  0  0
  -22.0070   -4.1790   23.7890 C   0  0  0  0  0  3  0  0  0  0  0  0
  -22.1690   -4.9430   22.6210 C   0  0  0  0  0  0  0  0  0  0  0  0
  -22.6810   -4.3670   21.5050 F   0  0  0  0  0  0  0  0  0  0  0  0
  -21.2970   -4.0260   26.0630 F   0  0  0  0  0  0  0  0  0  0  0  0
  -22.9400  -13.6450   21.1570 C   0  0  0  0  0  0  0  0  0  0  0  0
  -22.2430  -12.9310   22.0310 N   0  0  0  0  0  0  0  0  0  0  0  0
  -22.4840  -14.6810   20.6730 O   0  0  0  0  0  0  0  0  0  0  0  0
  -22.6310  -12.0950   22.4390 H   0  0  0  0  0  0  0  0  0  0  0  0
  -21.3120  -13.2220   22.2960 H   0  0  0  0  0  0  0  0  0  0  0  0
  -25.5330  -15.3310   20.2550 N   0  0  0  0  0  0  0  0  0  0  0  0
  -24.7610  -15.9730   20.3880 H   0  0  0  0  0  0  0  0  0  0  0  0
  -26.3350  -15.7520   19.8030 H   0  0  0  0  0  0  0  0  0  0  0  0
  -28.3610  -22.4440   21.3300 C   0  0  0  0  0  2  0  0  0  0  0  0
  -26.7260  -23.4500   19.7330 C   0  0  0  0  0  1  0  0  0  0  0  0
  -27.0180  -24.4310   22.0220 C   0  0  0  0  0  1  0  0  0  0  0  0
  -27.7730  -23.8770   20.7910 C   0  0  1  0  0  0  0  0  0  0  0  0
  -28.6700  -25.0920   20.1900 C   0  0  0  0  0  2  0  0  0  0  0  0
  -28.4610  -26.5870   20.2750 O   0  0  0  0  0  0  0  0  0  0  0  0
  -24.6850  -31.8980   23.2670 C   0  0  0  0  0  0  0  0  0  0  0  0
  -27.2990  -27.3780   20.1550 C   0  0  0  0  0  0  0  0  0  0  0  0
  -23.4940  -30.5230   21.6060 C   0  0  0  0  0  3  0  0  0  0  0  0
  -24.9310  -28.9950   20.1190 C   0  0  0  0  0  0  0  0  0  0  0  0
  -26.0090  -30.8530   21.4000 C   0  0  0  0  0  2  0  0  0  0  0  0
  -26.0860  -29.4750   20.7450 C   0  0  0  0  0  0  0  0  0  0  0  0
  -27.2680  -28.6730   20.7680 C   0  0  0  0  0  3  0  0  0  0  0  0
  -26.1490  -26.9850   19.4420 C   0  0  0  0  0  3  0  0  0  0  0  0
  -24.9660  -27.7640   19.4330 C   0  0  0  0  0  3  0  0  0  0  0  0
  -23.6840  -29.8560   20.2160 C   0  0  0  0  0  2  0  0  0  0  0  0
  -24.7560  -31.1080   22.1520 N   0  0  0  0  0  0  0  0  0  0  0  0
  -23.6020  -32.1480   23.8140 O   0  0  0  0  0  0  0  0  0  0  0  0
  -22.8400  -29.5020   22.5640 C   0  0  0  0  0  0  0  0  0  0  0  0
  -21.5170  -29.4380   22.4280 N   0  0  0  0  0  0  0  0  0  0  0  0
  -23.4980  -28.8100   23.3420 O   0  0  0  0  0  0  0  0  0  0  0  0
  -21.1260  -30.1320   21.8050 H   0  0  0  0  0  0  0  0  0  0  0  0
  -18.1090  -27.9870   22.9060 C   0  0  0  0  0  0  0  0  0  0  0  0
  -20.5790  -28.4170   22.8060 C   0  0  0  0  0  3  0  0  0  0  0  0
  -20.8490  -26.9280   22.5680 C   0  0  0  0  0  2  0  0  0  0  0  0
  -19.7340  -26.3830   21.6480 C   0  0  0  0  0  2  0  0  0  0  0  0
  -18.3220  -26.6250   22.2300 C   0  0  0  0  0  2  0  0  0  0  0  0
  -19.2020  -28.8020   23.2880 C   0  0  0  0  0  0  0  0  0  0  0  0
  -18.9780  -30.0390   23.9260 C   0  0  0  0  0  3  0  0  0  0  0  0
  -17.6620  -30.4920   24.1310 C   0  0  0  0  0  3  0  0  0  0  0  0
  -16.5720  -29.7040   23.7140 C   0  0  0  0  0  3  0  0  0  0  0  0
  -16.7960  -28.4480   23.1200 C   0  0  0  0  0  3  0  0  0  0  0  0
  -25.9590  -32.5350   23.8940 C   0  0  0  0  0  3  0  0  0  0  0  0
  -26.4630  -31.7580   25.1730 C   0  0  1  0  0  0  0  0  0  0  0  0
  -25.3680  -31.5250   26.2350 C   0  0  0  0  0  1  0  0  0  0  0  0
  -27.0490  -30.3820   24.7770 C   0  0  0  0  0  1  0  0  0  0  0  0
  -27.6000  -32.5470   25.8540 C   0  0  0  0  0  1  0  0  0  0  0  0
  -25.6460  -33.9320   24.2320 N   0  0  0  0  0  0  0  0  0  0  0  0
  -25.9580  -34.9840   23.4610 C   0  0  0  0  0  0  0  0  0  0  0  0
  -26.6050  -34.8780   22.4160 O   0  0  0  0  0  0  0  0  0  0  0  0
  -25.0690  -34.0850   25.0500 H   0  0  0  0  0  0  0  0  0  0  0  0
  -24.2080  -36.7670   23.1470 C   0  0  0  0  0  1  0  0  0  0  0  0
  -25.4700  -36.3700   23.9280 C   0  0  0  0  0  3  0  0  0  0  0  0
  -27.6150  -37.2780   24.7130 C   0  0  0  0  0  1  0  0  0  0  0  0
  -26.4950  -37.4260   23.7870 N   0  0  0  0  0  0  0  0  0  0  0  0
  -26.0800  -38.3400   23.9330 H   0  0  0  0  0  0  0  0  0  0  0  0
  2  1  1  0
  3  4  2  0
  3  6  1  0
  4  7  1  0
  4  5  1  0
  5  1  2  0
  5 10  1  0
  6 21  1  0
  6  2  2  0
  7  9  1  0
  9 12  1  0
  9  8  1  0
 10 51  1  0
 10  8  1  0
 11  7  2  0
 13 21  1  0
 14 19  1  0
 15 16  1  0
 15 14  1  0
 17 16  1  0
 17 26  1  0
 17 18  1  0
 19 13  1  0
 19 18  1  0
 20 13  2  0
 21 22  1  0
 23 24  2  0
 24 43  1  0
 25 24  1  0
 25 28  1  0
 26 27  1  0
 26 23  1  0
 27 25  2  0
 28 29  1  0
 29 30  2  0
 31 34  1  0
 31 30  1  0
 32 31  2  0
 33 32  1  0
 33 28  2  0
 34 35  1  0
 35 40  2  0
 35 36  1  0
 36 37  2  0
 37 38  1  0
 38 42  1  0
 39 38  2  0
 40 39  1  0
 41 40  1  0
 43 44  1  0
 44 47  1  0
 44 46  1  0
 45 43  2  0
 48 49  1  0
 48 23  1  0
 50 48  1  0
 54 52  1  6
 54 51  1  0
 54 53  1  0
 55 56  1  0
 55 54  1  0
 57 68  2  0
 58 56  1  0
 58 63  1  0
 59 67  1  0
 59 69  1  0
 60 66  1  0
 60 62  1  0
 61 67  1  0
 62 63  2  0
 62 61  1  0
 64 58  2  0
 65 64  1  0
 65 60  2  0
 66 59  1  0
 67 57  1  0
 69 71  2  0
 70 69  1  0
 72 70  1  0
 73 82  2  0
 73 78  1  0
 74 70  1  0
 74 78  1  0
 75 74  1  0
 76 77  1  0
 76 75  1  0
 77 73  1  0
 78 79  2  0
 79 80  1  0
 81 80  2  0
 82 81  1  0
 83 57  1  0
 83 88  1  0
 83 84  1  0
 84 87  1  1
 84 85  1  0
 86 84  1  0
 88 91  1  0
 89 93  1  0
 89 88  1  0
 90 89  2  0
 93 92  1  0
 95 93  1  0
 95 96  1  0
 95 94  1  0
M  ISO  4  13 100  21 100  55 101  56 101
M  END
>  <TORSDO>  (26) 
F 19

>  <SCORE>  (26) 
-14.371

>  <name>  (26) 
25

>  <ligand_id>  (26) 
25

>  <original_smiles>  (26) 
[H]c1c([H])c([H])c2c(c1[H])C([H])([H])C([H])([H])C([H])([H])C2([H])N([H])C(=O)C1([H])N(C(=O)C([H])(N([H])C(=O)C([H])(N([H])C([H])([H])[H])C([H])([H])[H])C(C([H])([H])[H])(C([H])([H])[H])C([H])([H])[H])C([H])([H])c2c([H])c(OC([H])([H])C(C([H])([H])[H])(C([H])([H])[H])C([H])([H])N3c4c([H])c([H])c(N([H])C(=O)N5C([H])([H])C([H])([H])C([H])([H])C([H])(n6nc(-c7c([H])c([H])c(Oc8c([H])c([H])c(F)c([H])c8F)c([H])c7[H])c(C(=O)N([H])[H])c6N([H])[H])C5([H])[H])c([H])c4C(=O)N([H])C3([H])[H])c([H])c([H])c2C1([H])[H]

>  <smiles>  (26) 
[H]c1c([H])c([H])c2c(c1[H])C([H])([H])C([H])([H])C([H])([H])C2([H])N([H])C(=O)C1([H])N(C(=O)C([H])(N([H])C(=O)C([H])(N([H])C([H])([H])[H])C([H])([H])[H])C(C([H])([H])[H])(C([H])([H])[H])C([H])([H])[H])C([H])([H])c2c([H])c(OC([H])([H])C(C([H])([H])[H])(C([H])([H])[H])C([H])([H])N3c4c([H])c([H])c(N([H])C(=O)N5C([H])([H])C([H])([H])C([H])([H])C([H])(n6nc(-c7c([H])c([H])c(Oc8c([H])c([H])c(F)c([H])c8F)c([H])c7[H])c(C(=O)N([H])[H])c6N([H])[H])C5([H])[H])c([H])c4C(=O)N([H])C3([H])[H])c([H])c([H])c2C1([H])[H]

$$$$
26:0:0
     RDKit          3D

 93102  0  0  1  0  0  0  0  0999 V2000
  -27.1890  -22.8260   21.0600 C   0  0  0  0  0  2  0  0  0  0  0  0
  -27.4670  -21.3380   20.7700 C   0  0  0  0  0  2  0  0  0  0  0  0
  -28.1700  -23.6840   20.2130 C   0  0  1  0  0  0  0  0  0  0  0  0
  -29.4220  -22.6360   20.2580 C   0  0  2  0  0  0  0  0  0  0  0  0
  -27.5740  -23.7730   18.7870 C   0  0  0  0  0  1  0  0  0  0  0  0
  -30.2700  -22.8650   21.5290 C   0  0  0  0  0  1  0  0  0  0  0  0
  -30.3470  -22.8050   19.0290 C   0  0  0  0  0  1  0  0  0  0  0  0
  -28.8440  -21.2390   20.3040 N   0  0  0  0  0  0  0  0  0  0  0  0
  -30.8110  -19.5610   20.0370 C   0  0  0  0  0  3  0  0  0  0  0  0
  -31.0820  -18.1320   20.0460 C   0  0  0  0  0  3  0  0  0  0  0  0
  -29.4980  -19.9340   20.2540 C   0  0  0  0  0  0  0  0  0  0  0  0
  -29.9960  -17.3080   20.2850 C   0  0  0  0  0  0  0  0  0  0  0  0
  -28.5980  -18.4030   20.4830 S   0  0  0  0  0  0  0  0  0  0  0  0
  -30.7050  -14.8560   20.0430 C   0  0  0  0  0  0  0  0  0  0  0  0
  -30.4730  -12.6180   18.9610 C   0  0  0  0  0  2  0  0  0  0  0  0
  -29.4600  -12.7420   17.8020 C   0  0  0  0  0  2  0  0  0  0  0  0
  -28.0180  -12.5550   18.3120 C   0  0  0  0  0  2  0  0  0  0  0  0
  -27.7190  -13.3970   19.5810 C   0  0  0  0  0  3  0  0  0  0  0  0
  -28.8410  -13.2460   20.6310 C   0  0  0  0  0  2  0  0  0  0  0  0
  -30.1060  -13.6200   19.9830 N   0  0  0  0  0  0  0  0  0  0  0  0
  -31.8620  -15.0120   19.6390 O   0  0  0  0  0  0  0  0  0  0  0  0
  -29.8810  -15.9140   20.3810 N   0  0  0  0  0  0  0  0  0  0  0  0
  -28.9660  -15.5960   20.6700 H   0  0  0  0  0  0  0  0  0  0  0  0
  -25.3790  -13.9730   20.4650 C   0  0  0  0  0  0  0  0  0  0  0  0
  -24.3350  -13.1910   20.8740 C   0  0  0  0  0  0  0  0  0  0  0  0
  -24.7900  -11.8390   20.7760 C   0  0  0  0  0  0  0  0  0  0  0  0
  -26.4030  -13.0990   20.1390 N   0  0  0  0  0  0  0  0  0  0  0  0
  -26.0600  -11.8090   20.3900 N   0  0  0  0  0  0  0  0  0  0  0  0
  -24.0730  -10.5710   20.9710 C   0  0  0  0  0  0  0  0  0  0  0  0
  -24.5240   -9.6020   21.8960 C   0  0  0  0  0  3  0  0  0  0  0  0
  -23.8060   -8.4010   22.0760 C   0  0  0  0  0  3  0  0  0  0  0  0
  -22.6270   -8.1570   21.3340 C   0  0  0  0  0  0  0  0  0  0  0  0
  -22.1940   -9.1150   20.4010 C   0  0  0  0  0  3  0  0  0  0  0  0
  -22.9120  -10.3090   20.2150 C   0  0  0  0  0  3  0  0  0  0  0  0
  -21.8810   -7.0070   21.4280 O   0  0  0  0  0  0  0  0  0  0  0  0
  -21.8060   -6.2890   22.5950 C   0  0  0  0  0  0  0  0  0  0  0  0
  -21.3050   -6.8580   23.7860 C   0  0  0  0  0  3  0  0  0  0  0  0
  -21.1730   -6.0660   24.9450 C   0  0  0  0  0  3  0  0  0  0  0  0
  -21.5410   -4.7070   24.9140 C   0  0  0  0  0  0  0  0  0  0  0  0
  -22.0410   -4.1380   23.7290 C   0  0  0  0  0  3  0  0  0  0  0  0
  -22.1690   -4.9270   22.5720 C   0  0  0  0  0  0  0  0  0  0  0  0
  -22.6290   -4.3680   21.4260 F   0  0  0  0  0  0  0  0  0  0  0  0
  -21.4100   -3.9460   26.0240 F   0  0  0  0  0  0  0  0  0  0  0  0
  -22.9580  -13.6600   21.2410 C   0  0  0  0  0  0  0  0  0  0  0  0
  -22.2760  -12.9400   22.1250 N   0  0  0  0  0  0  0  0  0  0  0  0
  -22.4960  -14.7020   20.7780 O   0  0  0  0  0  0  0  0  0  0  0  0
  -22.6640  -12.0990   22.5240 H   0  0  0  0  0  0  0  0  0  0  0  0
  -21.3540  -13.2390   22.4080 H   0  0  0  0  0  0  0  0  0  0  0  0
  -25.5380  -15.3490   20.3200 N   0  0  0  0  0  0  0  0  0  0  0  0
  -24.7830  -16.0010   20.5010 H   0  0  0  0  0  0  0  0  0  0  0  0
  -26.3470  -15.7910   19.9010 H   0  0  0  0  0  0  0  0  0  0  0  0
  -28.2070  -25.1880   20.8840 C   0  0  0  0  0  2  0  0  0  0  0  0
  -28.4140  -26.5170   20.2190 O   0  0  0  0  0  0  0  0  0  0  0  0
  -24.6420  -31.9440   23.2550 C   0  0  0  0  0  0  0  0  0  0  0  0
  -27.3220  -27.4090   20.2020 C   0  0  0  0  0  0  0  0  0  0  0  0
  -23.4710  -30.5380   21.6020 C   0  0  0  0  0  3  0  0  0  0  0  0
  -24.9500  -29.0130   20.1800 C   0  0  0  0  0  0  0  0  0  0  0  0
  -26.0110  -30.8830   21.4410 C   0  0  0  0  0  2  0  0  0  0  0  0
  -26.1130  -29.5070   20.7850 C   0  0  0  0  0  0  0  0  0  0  0  0
  -27.3070  -28.7190   20.7850 C   0  0  0  0  0  3  0  0  0  0  0  0
  -26.1400  -26.9790   19.5730 C   0  0  0  0  0  3  0  0  0  0  0  0
  -24.9660  -27.7510   19.5650 C   0  0  0  0  0  3  0  0  0  0  0  0
  -23.7050  -29.8770   20.2200 C   0  0  0  0  0  2  0  0  0  0  0  0
  -24.7270  -31.1390   22.1560 N   0  0  0  0  0  0  0  0  0  0  0  0
  -23.5500  -32.2060   23.7820 O   0  0  0  0  0  0  0  0  0  0  0  0
  -22.8140  -29.5070   22.5500 C   0  0  0  0  0  0  0  0  0  0  0  0
  -21.4900  -29.3170   22.4180 N   0  0  0  0  0  0  0  0  0  0  0  0
  -23.4940  -28.8820   23.3690 O   0  0  0  0  0  0  0  0  0  0  0  0
  -21.0000  -29.8710   21.7310 H   0  0  0  0  0  0  0  0  0  0  0  0
  -18.1190  -28.1060   22.9240 C   0  0  0  0  0  0  0  0  0  0  0  0
  -20.6780  -28.3680   23.1820 C   0  0  0  0  0  3  0  0  0  0  0  0
  -20.7780  -26.9440   22.5880 C   0  0  0  0  0  2  0  0  0  0  0  0
  -19.6720  -26.6330   21.5760 C   0  0  0  0  0  2  0  0  0  0  0  0
  -18.2930  -26.7680   22.2270 C   0  0  0  0  0  2  0  0  0  0  0  0
  -19.2380  -28.8660   23.3580 C   0  0  0  0  0  0  0  0  0  0  0  0
  -19.0200  -30.1190   23.9700 C   0  0  0  0  0  3  0  0  0  0  0  0
  -17.7140  -30.6150   24.1500 C   0  0  0  0  0  3  0  0  0  0  0  0
  -16.6090  -29.8530   23.7310 C   0  0  0  0  0  3  0  0  0  0  0  0
  -16.8120  -28.6000   23.1260 C   0  0  0  0  0  3  0  0  0  0  0  0
  -25.9110  -32.5920   23.8890 C   0  0  0  0  0  3  0  0  0  0  0  0
  -25.5870  -33.9890   24.2060 N   0  0  0  0  0  0  0  0  0  0  0  0
  -25.9170  -35.0410   23.4430 C   0  0  0  0  0  0  0  0  0  0  0  0
  -26.5980  -34.9360   22.4210 O   0  0  0  0  0  0  0  0  0  0  0  0
  -24.9780  -34.1430   24.9970 H   0  0  0  0  0  0  0  0  0  0  0  0
  -24.1800  -36.8170   23.0520 C   0  0  0  0  0  1  0  0  0  0  0  0
  -25.4120  -36.4280   23.8840 C   0  0  0  0  0  3  0  0  0  0  0  0
  -27.5270  -37.3320   24.7430 C   0  0  0  0  0  1  0  0  0  0  0  0
  -26.4370  -37.4900   23.7820 N   0  0  0  0  0  0  0  0  0  0  0  0
  -26.0210  -38.4050   23.9250 H   0  0  0  0  0  0  0  0  0  0  0  0
  -26.4130  -31.8340   25.1770 C   0  0  1  0  0  0  0  0  0  0  0  0
  -25.3070  -31.5950   26.2300 C   0  0  0  0  0  1  0  0  0  0  0  0
  -27.0150  -30.4600   24.8050 C   0  0  0  0  0  1  0  0  0  0  0  0
  -27.5510  -32.6410   25.8470 C   0  0  0  0  0  1  0  0  0  0  0  0
  2  1  1  0
  3  5  1  6
  3  4  1  0
  3 52  1  0
  3  1  1  0
  4  8  1  0
  4  6  1  1
  7  4  1  0
  8  2  1  0
  9 10  1  0
  9 11  2  0
 10 12  2  0
 11  8  1  0
 11 13  1  0
 12 22  1  0
 12 13  1  0
 14 22  1  0
 15 20  1  0
 16 17  1  0
 16 15  1  0
 18 17  1  0
 18 27  1  0
 18 19  1  0
 20 14  1  0
 20 19  1  0
 21 14  2  0
 22 23  1  0
 24 25  2  0
 25 44  1  0
 26 25  1  0
 26 29  1  0
 27 28  1  0
 27 24  1  0
 28 26  2  0
 29 30  1  0
 30 31  2  0
 32 35  1  0
 32 31  1  0
 33 32  2  0
 34 33  1  0
 34 29  2  0
 35 36  1  0
 36 37  1  0
 37 38  2  0
 39 38  1  0
 39 43  1  0
 40 39  2  0
 41 36  2  0
 41 40  1  0
 42 41  1  0
 44 45  1  0
 45 48  1  0
 45 47  1  0
 46 44  2  0
 49 24  1  0
 49 50  1  0
 51 49  1  0
 53 52  1  0
 54 65  2  0
 55 53  1  0
 55 60  1  0
 56 64  1  0
 56 66  1  0
 57 63  1  0
 57 59  1  0
 58 64  1  0
 59 58  1  0
 60 59  2  0
 61 55  2  0
 62 61  1  0
 62 57  2  0
 63 56  1  0
 64 54  1  0
 66 68  2  0
 67 66  1  0
 69 67  1  0
 70 79  2  0
 70 75  1  0
 71 67  1  0
 71 75  1  0
 72 71  1  0
 73 74  1  0
 73 72  1  0
 74 70  1  0
 75 76  2  0
 76 77  1  0
 78 77  2  0
 79 78  1  0
 80 54  1  0
 80 81  1  0
 80 90  1  0
 81 84  1  0
 82 86  1  0
 82 81  1  0
 83 82  2  0
 86 85  1  0
 88 86  1  0
 88 89  1  0
 88 87  1  0
 90 93  1  1
 90 91  1  0
 92 90  1  0
M  ISO  4  14 100  22 100  52 101  53 101
M  END
>  <TORSDO>  (27) 
F 18

>  <SCORE>  (27) 
-14.432

>  <name>  (27) 
26

>  <ligand_id>  (27) 
26

>  <original_smiles>  (27) 
[H]c1c(N([H])C(=O)N2C([H])([H])C([H])([H])C([H])([H])C([H])(n3nc(-c4c([H])c([H])c(Oc5c([H])c([H])c(F)c([H])c5F)c([H])c4[H])c(C(=O)N([H])[H])c3N([H])[H])C2([H])[H])sc(N2C([H])([H])C([H])([H])C(C([H])([H])[H])(C([H])([H])Oc3c([H])c([H])c4c(c3[H])C([H])([H])N(C(=O)C([H])(N([H])C(=O)C([H])(N([H])C([H])([H])[H])C([H])([H])[H])C(C([H])([H])[H])(C([H])([H])[H])C([H])([H])[H])C([H])(C(=O)N([H])C3([H])c5c([H])c([H])c([H])c([H])c5C([H])([H])C([H])([H])C3([H])[H])C4([H])[H])C2(C([H])([H])[H])C([H])([H])[H])c1[H]

>  <smiles>  (27) 
[H]c1c(N([H])C(=O)N2C([H])([H])C([H])([H])C([H])([H])C([H])(n3nc(-c4c([H])c([H])c(Oc5c([H])c([H])c(F)c([H])c5F)c([H])c4[H])c(C(=O)N([H])[H])c3N([H])[H])C2([H])[H])sc(N2C([H])([H])C([H])([H])C(C([H])([H])[H])(C([H])([H])Oc3c([H])c([H])c4c(c3[H])C([H])([H])N(C(=O)C([H])(N([H])C(=O)C([H])(N([H])C([H])([H])[H])C([H])([H])[H])C(C([H])([H])[H])(C([H])([H])[H])C([H])([H])[H])C([H])(C(=O)N([H])C3([H])c5c([H])c([H])c([H])c([H])c5C([H])([H])C([H])([H])C3([H])[H])C4([H])[H])C2(C([H])([H])[H])C([H])([H])[H])c1[H]

$$$$
27:0:0
     RDKit          3D

100108  0  0  1  0  0  0  0  0999 V2000
  -29.7600  -17.5090   19.1480 C   0  0  0  0  0  3  0  0  0  0  0  0
  -31.5160  -18.4350   17.7360 C   0  0  0  0  0  3  0  0  0  0  0  0
  -29.2730  -19.3680   17.6480 C   0  0  0  0  0  3  0  0  0  0  0  0
  -31.1000  -17.4870   18.7140 C   0  0  0  0  0  0  0  0  0  0  0  0
  -28.8310  -18.4380   18.6250 C   0  0  0  0  0  0  0  0  0  0  0  0
  -30.6210  -19.4030   17.2080 C   0  0  0  0  0  0  0  0  0  0  0  0
  -30.8300  -21.6870   16.1210 C   0  0  0  0  0  0  0  0  0  0  0  0
  -31.1120  -20.3630   16.2470 N   0  0  0  0  0  0  0  0  0  0  0  0
  -30.0710  -22.2890   16.8840 O   0  0  0  0  0  0  0  0  0  0  0  0
  -31.8100  -20.0150   15.6050 H   0  0  0  0  0  0  0  0  0  0  0  0
  -31.5290  -22.5080   15.0040 C   0  0  0  0  0  2  0  0  0  0  0  0
  -30.5730  -23.4680   14.2350 C   0  0  0  0  0  2  0  0  0  0  0  0
  -30.3620  -24.7800   14.8230 O   0  0  0  0  0  0  0  0  0  0  0  0
  -23.7530  -25.5790   17.4160 C   0  0  0  0  0  0  0  0  0  0  0  0
  -29.0990  -25.3260   14.6340 C   0  0  0  0  0  0  0  0  0  0  0  0
  -24.0550  -26.1170   15.0240 C   0  0  0  0  0  3  0  0  0  0  0  0
  -26.4680  -26.3170   14.2280 C   0  0  0  0  0  0  0  0  0  0  0  0
  -25.9920  -26.3950   16.6770 C   0  0  0  0  0  2  0  0  0  0  0  0
  -26.9410  -26.1030   15.5290 C   0  0  0  0  0  0  0  0  0  0  0  0
  -28.2580  -25.6190   15.7380 C   0  0  0  0  0  3  0  0  0  0  0  0
  -28.6000  -25.5800   13.3320 C   0  0  0  0  0  3  0  0  0  0  0  0
  -27.2970  -26.0610   13.1270 C   0  0  0  0  0  3  0  0  0  0  0  0
  -25.0540  -26.8260   14.0740 C   0  0  0  0  0  2  0  0  0  0  0  0
  -24.5860  -25.9920   16.4200 N   0  0  0  0  0  0  0  0  0  0  0  0
  -22.5570  -25.3420   17.1950 O   0  0  0  0  0  0  0  0  0  0  0  0
  -23.6490  -24.7630   14.3980 C   0  0  0  0  0  0  0  0  0  0  0  0
  -22.8820  -24.8160   13.2960 N   0  0  0  0  0  0  0  0  0  0  0  0
  -24.0420  -23.6990   14.8860 O   0  0  0  0  0  0  0  0  0  0  0  0
  -22.5950  -25.7260   12.9640 H   0  0  0  0  0  0  0  0  0  0  0  0
  -20.9120  -23.8550   10.4220 C   0  0  0  0  0  0  0  0  0  0  0  0
  -22.4120  -23.6690   12.5200 C   0  0  0  0  0  3  0  0  0  0  0  0
  -23.5120  -23.1550   11.5620 C   0  0  0  0  0  2  0  0  0  0  0  0
  -23.4280  -23.7700   10.1610 C   0  0  0  0  0  2  0  0  0  0  0  0
  -22.0710  -23.4640    9.5200 C   0  0  0  0  0  2  0  0  0  0  0  0
  -21.0760  -23.9660   11.8280 C   0  0  0  0  0  0  0  0  0  0  0  0
  -19.9760  -24.3660   12.6160 C   0  0  0  0  0  3  0  0  0  0  0  0
  -18.7300  -24.6480   12.0240 C   0  0  0  0  0  3  0  0  0  0  0  0
  -18.5700  -24.5220   10.6340 C   0  0  0  0  0  3  0  0  0  0  0  0
  -19.6570  -24.1220    9.8360 C   0  0  0  0  0  3  0  0  0  0  0  0
  -24.2560  -25.4080   18.8840 C   0  0  0  0  0  3  0  0  0  0  0  0
  -23.2580  -26.0250   19.7680 N   0  0  0  0  0  0  0  0  0  0  0  0
  -23.3280  -27.2770   20.2390 C   0  0  0  0  0  0  0  0  0  0  0  0
  -24.2930  -28.0170   20.0280 O   0  0  0  0  0  0  0  0  0  0  0  0
  -22.4150  -25.4940   19.9390 H   0  0  0  0  0  0  0  0  0  0  0  0
  -21.2000  -28.6140   20.1870 C   0  0  0  0  0  1  0  0  0  0  0  0
  -22.1420  -27.7880   21.0770 C   0  0  0  0  0  3  0  0  0  0  0  0
  -23.2000  -27.8040   23.2920 C   0  0  0  0  0  1  0  0  0  0  0  0
  -22.5530  -28.5940   22.2480 N   0  0  0  0  0  0  0  0  0  0  0  0
  -21.7520  -29.0670   22.6570 H   0  0  0  0  0  0  0  0  0  0  0  0
  -24.5020  -23.9010   19.2840 C   0  0  1  0  0  0  0  0  0  0  0  0
  -23.3090  -22.9700   18.9660 C   0  0  0  0  0  1  0  0  0  0  0  0
  -25.7460  -23.3390   18.5570 C   0  0  0  0  0  1  0  0  0  0  0  0
  -24.7980  -23.8050   20.7990 C   0  0  0  0  0  1  0  0  0  0  0  0
  -27.2380  -19.4900   20.2650 C   0  0  0  0  0  1  0  0  0  0  0  0
  -27.0520  -17.0400   19.7420 C   0  0  0  0  0  1  0  0  0  0  0  0
  -26.3340  -18.7390   18.0690 C   0  0  0  0  0  1  0  0  0  0  0  0
  -27.3840  -18.4280   19.1580 C   0  0  2  0  0  0  0  0  0  0  0  0
  -32.1170  -16.5180   19.3490 C   0  0  0  0  0  3  0  0  0  0  0  0
  -32.1640  -14.0500   19.7190 C   0  0  0  0  0  0  0  0  0  0  0  0
  -31.8140  -11.6310   19.4020 C   0  0  0  0  0  2  0  0  0  0  0  0
  -30.8980  -11.4000   18.1830 C   0  0  0  0  0  2  0  0  0  0  0  0
  -29.4190  -11.4310   18.6100 C   0  0  0  0  0  2  0  0  0  0  0  0
  -29.0720  -12.6660   19.4860 C   0  0  0  0  0  3  0  0  0  0  0  0
  -30.1110  -12.8700   20.6130 C   0  0  0  0  0  2  0  0  0  0  0  0
  -31.4450  -12.9260   19.9970 N   0  0  0  0  0  0  0  0  0  0  0  0
  -33.3000  -14.0050   19.2420 O   0  0  0  0  0  0  0  0  0  0  0  0
  -31.5460  -15.2420   19.8520 N   0  0  0  0  0  0  0  0  0  0  0  0
  -30.5950  -15.2470   20.1840 H   0  0  0  0  0  0  0  0  0  0  0  0
  -26.8110  -13.5990   20.2800 C   0  0  0  0  0  0  0  0  0  0  0  0
  -25.6560  -12.9850   20.6800 C   0  0  0  0  0  0  0  0  0  0  0  0
  -25.9140  -11.5820   20.6230 C   0  0  0  0  0  0  0  0  0  0  0  0
  -27.7110  -12.5810   20.0100 N   0  0  0  0  0  0  0  0  0  0  0  0
  -27.1750  -11.3600   20.2730 N   0  0  0  0  0  0  0  0  0  0  0  0
  -25.0170  -10.4360   20.8240 C   0  0  0  0  0  0  0  0  0  0  0  0
  -25.1910   -9.5430   21.9050 C   0  0  0  0  0  3  0  0  0  0  0  0
  -24.3050   -8.4600   22.0880 C   0  0  0  0  0  3  0  0  0  0  0  0
  -23.2280   -8.2630   21.1910 C   0  0  0  0  0  0  0  0  0  0  0  0
  -23.0730   -9.1410   20.1040 C   0  0  0  0  0  3  0  0  0  0  0  0
  -23.9600  -10.2150   19.9190 C   0  0  0  0  0  3  0  0  0  0  0  0
  -22.3340   -7.2240   21.2750 O   0  0  0  0  0  0  0  0  0  0  0  0
  -21.7870   -6.8410   22.4730 C   0  0  0  0  0  0  0  0  0  0  0  0
  -20.9200   -7.6870   23.1990 C   0  0  0  0  0  3  0  0  0  0  0  0
  -20.3250   -7.2280   24.3920 C   0  0  0  0  0  3  0  0  0  0  0  0
  -20.5850   -5.9240   24.8530 C   0  0  0  0  0  0  0  0  0  0  0  0
  -21.4430   -5.0780   24.1280 C   0  0  0  0  0  3  0  0  0  0  0  0
  -22.0390   -5.5360   22.9400 C   0  0  0  0  0  0  0  0  0  0  0  0
  -22.8480   -4.7100   22.2330 F   0  0  0  0  0  0  0  0  0  0  0  0
  -20.0080   -5.4800   25.9940 F   0  0  0  0  0  0  0  0  0  0  0  0
  -24.3520  -13.6590   21.0020 C   0  0  0  0  0  0  0  0  0  0  0  0
  -23.5730  -13.0800   21.9090 N   0  0  0  0  0  0  0  0  0  0  0  0
  -24.0400  -14.7300   20.4840 O   0  0  0  0  0  0  0  0  0  0  0  0
  -23.8370  -12.2100   22.3490 H   0  0  0  0  0  0  0  0  0  0  0  0
  -22.6980  -13.5130   22.1690 H   0  0  0  0  0  0  0  0  0  0  0  0
  -27.1670  -14.9330   20.1010 N   0  0  0  0  0  0  0  0  0  0  0  0
  -26.5050  -15.6860   20.2440 H   0  0  0  0  0  0  0  0  0  0  0  0
  -28.0550  -15.2510   19.7370 H   0  0  0  0  0  0  0  0  0  0  0  0
  -32.9340  -17.2950   20.2990 N   0  0  0  0  0  4  0  0  0  0  0  0
  -32.3820  -17.6130   21.0730 H   0  0  0  0  0  0  0  0  0  0  0  0
  -33.3200  -18.1000   19.8390 H   0  0  0  0  0  0  0  0  0  0  0  0
  -33.6990  -16.7410   20.6420 H   0  0  0  0  0  0  0  0  0  0  0  0
  2  4  2  0
  3  5  1  0
  4  1  1  0
  4 58  1  0
  5  1  2  0
  5 57  1  0
  6  3  2  0
  6  2  1  0
  7  8  1  0
  7  9  2  0
  8  6  1  0
 10  8  1  0
 11  7  1  0
 12 13  1  0
 12 11  1  0
 15 13  1  0
 15 20  1  0
 16 26  1  0
 16 24  1  0
 17 19  1  0
 19 20  2  0
 19 18  1  0
 21 15  2  0
 22 21  1  0
 22 17  2  0
 23 17  1  0
 23 16  1  0
 24 18  1  0
 24 14  1  0
 25 14  2  0
 26 28  2  0
 27 26  1  0
 29 27  1  0
 30 35  1  0
 31 27  1  0
 32 31  1  0
 33 32  1  0
 34 33  1  0
 34 30  1  0
 35 31  1  0
 35 36  2  0
 37 36  1  0
 38 37  2  0
 39 30  2  0
 39 38  1  0
 40 14  1  0
 40 50  1  0
 40 41  1  0
 41 44  1  0
 41 42  1  0
 42 46  1  0
 43 42  2  0
 46 45  1  0
 46 48  1  0
 48 49  1  0
 48 47  1  0
 50 53  1  1
 51 50  1  0
 52 50  1  0
 57 56  1  6
 57 55  1  0
 57 54  1  0
 58 67  1  0
 58 97  1  0
 59 67  1  0
 59 65  1  0
 60 65  1  0
 61 62  1  0
 61 60  1  0
 63 62  1  0
 63 72  1  0
 63 64  1  0
 65 64  1  0
 66 59  2  0
 67 68  1  0
 69 70  2  0
 70 89  1  0
 71 70  1  0
 71 74  1  0
 72 73  1  0
 72 69  1  0
 73 71  2  0
 74 75  1  0
 75 76  2  0
 77 80  1  0
 77 76  1  0
 78 77  2  0
 79 78  1  0
 79 74  2  0
 80 81  1  0
 81 86  2  0
 81 82  1  0
 82 83  2  0
 83 84  1  0
 84 88  1  0
 85 84  2  0
 86 85  1  0
 87 86  1  0
 89 90  1  0
 90 93  1  0
 90 92  1  0
 91 89  2  0
 94 95  1  0
 94 69  1  0
 96 94  1  0
 97100  1  0
 97 98  1  0
 99 97  1  0
M  ISO  4  12 101  13 101  59 100  67 100
M  END
>  <TORSDO>  (28) 
F 22

>  <SCORE>  (28) 
-6.388

>  <name>  (28) 
27

>  <ligand_id>  (28) 
27

>  <original_smiles>  (28) 
[H]c1c([H])c([H])c2c(c1[H])C([H])([H])C([H])([H])C([H])([H])C2([H])N([H])C(=O)C1([H])N(C(=O)C([H])(N([H])C(=O)C([H])(N([H])C([H])([H])[H])C([H])([H])[H])C(C([H])([H])[H])(C([H])([H])[H])C([H])([H])[H])C([H])([H])c2c([H])c(OC([H])([H])C([H])([H])C(=O)N([H])c3c([H])c(C(C([H])([H])[H])(C([H])([H])[H])C([H])([H])[H])c([H])c(C([H])(N([H])C(=O)N4C([H])([H])C([H])([H])C([H])([H])C([H])(n5nc(-c6c([H])c([H])c(Oc7c([H])c([H])c(F)c([H])c7F)c([H])c6[H])c(C(=O)N([H])[H])c5N([H])[H])C4([H])[H])[N+]([H])([H])[H])c3[H])c([H])c([H])c2C1([H])[H]

>  <smiles>  (28) 
[H]c1c([H])c([H])c2c(c1[H])C([H])([H])C([H])([H])C([H])([H])C2([H])N([H])C(=O)C1([H])N(C(=O)C([H])(N([H])C(=O)C([H])(N([H])C([H])([H])[H])C([H])([H])[H])C(C([H])([H])[H])(C([H])([H])[H])C([H])([H])[H])C([H])([H])c2c([H])c(OC([H])([H])C([H])([H])C(=O)N([H])c3c([H])c(C(C([H])([H])[H])(C([H])([H])[H])C([H])([H])[H])c([H])c(C([H])(N([H])C(=O)N4C([H])([H])C([H])([H])C([H])([H])C([H])(n5nc(-c6c([H])c([H])c(Oc7c([H])c([H])c(F)c([H])c7F)c([H])c6[H])c(C(=O)N([H])[H])c5N([H])[H])C4([H])[H])[N+]([H])([H])[H])c3[H])c([H])c([H])c2C1([H])[H]

$$$$
28:0:0
     RDKit          3D

 90 98  0  0  1  0  0  0  0  0999 V2000
  -28.6040  -22.2330   20.5580 C   0  0  0  0  0  2  0  0  0  0  0  0
  -31.5560  -17.7960   20.0840 C   0  0  0  0  0  3  0  0  0  0  0  0
  -30.2790  -17.4280   20.4410 C   0  0  0  0  0  0  0  0  0  0  0  0
  -30.1030  -19.8170   20.3780 C   0  0  0  0  0  0  0  0  0  0  0  0
  -29.4510  -18.6210   20.5950 N   0  0  0  0  0  0  0  0  0  0  0  0
  -29.7160  -21.2130   20.4090 N   0  0  0  0  0  0  0  0  0  0  0  0
  -31.7870  -19.5250   19.9590 S   0  0  0  0  0  0  0  0  0  0  0  0
  -30.5550  -21.7670   20.2490 H   0  0  0  0  0  0  0  0  0  0  0  0
  -30.6090  -14.8200   20.3880 C   0  0  0  0  0  0  0  0  0  0  0  0
  -30.3750  -12.5440   19.3840 C   0  0  0  0  0  2  0  0  0  0  0  0
  -29.4440  -12.6220   18.1550 C   0  0  0  0  0  2  0  0  0  0  0  0
  -27.9770  -12.4380   18.5860 C   0  0  0  0  0  2  0  0  0  0  0  0
  -27.5980  -13.3210   19.8050 C   0  0  0  0  0  3  0  0  0  0  0  0
  -28.6580  -13.2560   20.9270 C   0  0  0  0  0  2  0  0  0  0  0  0
  -29.9520  -13.6090   20.3280 N   0  0  0  0  0  0  0  0  0  0  0  0
  -31.8010  -14.8510   20.0660 O   0  0  0  0  0  0  0  0  0  0  0  0
  -29.8850  -15.9940   20.6030 N   0  0  0  0  0  0  0  0  0  0  0  0
  -28.9200  -15.8450   20.8450 H   0  0  0  0  0  0  0  0  0  0  0  0
  -25.2090  -13.8880   20.5410 C   0  0  0  0  0  0  0  0  0  0  0  0
  -24.1490  -13.1050   20.9080 C   0  0  0  0  0  0  0  0  0  0  0  0
  -24.6170  -11.7570   20.8650 C   0  0  0  0  0  0  0  0  0  0  0  0
  -26.2580  -13.0180   20.2960 N   0  0  0  0  0  0  0  0  0  0  0  0
  -25.9090  -11.7290   20.5540 N   0  0  0  0  0  0  0  0  0  0  0  0
  -23.8950  -10.4900   21.0450 C   0  0  0  0  0  0  0  0  0  0  0  0
  -24.3160   -9.5280   21.9890 C   0  0  0  0  0  3  0  0  0  0  0  0
  -23.5960   -8.3260   22.1570 C   0  0  0  0  0  3  0  0  0  0  0  0
  -22.4390   -8.0770   21.3800 C   0  0  0  0  0  0  0  0  0  0  0  0
  -22.0360   -9.0290   20.4260 C   0  0  0  0  0  3  0  0  0  0  0  0
  -22.7570  -10.2230   20.2560 C   0  0  0  0  0  3  0  0  0  0  0  0
  -21.6880   -6.9290   21.4570 O   0  0  0  0  0  0  0  0  0  0  0  0
  -21.6010   -6.2040   22.6190 C   0  0  0  0  0  0  0  0  0  0  0  0
  -21.0730   -6.7580   23.8050 C   0  0  0  0  0  3  0  0  0  0  0  0
  -20.9370   -5.9560   24.9570 C   0  0  0  0  0  3  0  0  0  0  0  0
  -21.3190   -4.6020   24.9210 C   0  0  0  0  0  0  0  0  0  0  0  0
  -21.8390   -4.0460   23.7390 C   0  0  0  0  0  3  0  0  0  0  0  0
  -21.9760   -4.8460   22.5890 C   0  0  0  0  0  0  0  0  0  0  0  0
  -22.4590   -4.3000   21.4470 F   0  0  0  0  0  0  0  0  0  0  0  0
  -21.1790   -3.8290   26.0230 F   0  0  0  0  0  0  0  0  0  0  0  0
  -22.7490  -13.5750   21.1840 C   0  0  0  0  0  0  0  0  0  0  0  0
  -22.0220  -12.8710   22.0430 N   0  0  0  0  0  0  0  0  0  0  0  0
  -22.3100  -14.6060   20.6760 O   0  0  0  0  0  0  0  0  0  0  0  0
  -22.3890  -12.0380   22.4790 H   0  0  0  0  0  0  0  0  0  0  0  0
  -21.0850  -13.1700   22.2710 H   0  0  0  0  0  0  0  0  0  0  0  0
  -25.3660  -15.2610   20.3740 N   0  0  0  0  0  0  0  0  0  0  0  0
  -24.5870  -15.9010   20.4830 H   0  0  0  0  0  0  0  0  0  0  0  0
  -26.1970  -15.7100   20.0150 H   0  0  0  0  0  0  0  0  0  0  0  0
  -28.9870  -23.7910   20.4130 C   0  0  0  0  0  0  0  0  0  0  0  0
  -30.1710  -24.0860   20.2100 O   0  0  0  0  0  0  0  0  0  0  0  0
  -27.8730  -24.9390   20.5130 C   0  0  0  0  0  2  0  0  0  0  0  0
  -28.2430  -26.3930   20.3080 O   0  0  0  0  0  0  0  0  0  0  0  0
  -24.5900  -31.9270   23.3010 C   0  0  0  0  0  0  0  0  0  0  0  0
  -27.1700  -27.3180   20.2460 C   0  0  0  0  0  0  0  0  0  0  0  0
  -23.3840  -30.5410   21.6540 C   0  0  0  0  0  3  0  0  0  0  0  0
  -24.8290  -28.9900   20.2220 C   0  0  0  0  0  0  0  0  0  0  0  0
  -25.9310  -30.8340   21.4820 C   0  0  0  0  0  2  0  0  0  0  0  0
  -26.0030  -29.4540   20.8290 C   0  0  0  0  0  0  0  0  0  0  0  0
  -27.1790  -28.6330   20.8270 C   0  0  0  0  0  3  0  0  0  0  0  0
  -25.9750  -26.9360   19.5960 C   0  0  0  0  0  3  0  0  0  0  0  0
  -24.8220  -27.7400   19.5920 C   0  0  0  0  0  3  0  0  0  0  0  0
  -23.6000  -29.8750   20.2710 C   0  0  0  0  0  2  0  0  0  0  0  0
  -24.6550  -31.1190   22.2010 N   0  0  0  0  0  0  0  0  0  0  0  0
  -23.5060  -32.2090   23.8330 O   0  0  0  0  0  0  0  0  0  0  0  0
  -22.7130  -29.5230   22.6080 C   0  0  0  0  0  0  0  0  0  0  0  0
  -21.3880  -29.3430   22.4700 N   0  0  0  0  0  0  0  0  0  0  0  0
  -23.3850  -28.9010   23.4340 O   0  0  0  0  0  0  0  0  0  0  0  0
  -20.9050  -29.8980   21.7790 H   0  0  0  0  0  0  0  0  0  0  0  0
  -18.0060  -28.1430   22.9480 C   0  0  0  0  0  0  0  0  0  0  0  0
  -20.5630  -28.4050   23.2350 C   0  0  0  0  0  3  0  0  0  0  0  0
  -20.6680  -26.9720   22.6600 C   0  0  0  0  0  2  0  0  0  0  0  0
  -19.5730  -26.6500   21.6390 C   0  0  0  0  0  2  0  0  0  0  0  0
  -18.1880  -26.7940   22.2740 C   0  0  0  0  0  2  0  0  0  0  0  0
  -19.1210  -28.9060   23.3850 C   0  0  0  0  0  0  0  0  0  0  0  0
  -18.8950  -30.1690   23.9760 C   0  0  0  0  0  3  0  0  0  0  0  0
  -17.5890  -30.6680   24.1320 C   0  0  0  0  0  3  0  0  0  0  0  0
  -16.4890  -29.9010   23.7110 C   0  0  0  0  0  3  0  0  0  0  0  0
  -16.6980  -28.6400   23.1250 C   0  0  0  0  0  3  0  0  0  0  0  0
  -25.8730  -32.5530   23.9280 C   0  0  0  0  0  3  0  0  0  0  0  0
  -26.3670  -31.7920   25.2190 C   0  0  1  0  0  0  0  0  0  0  0  0
  -25.2600  -31.5770   26.2780 C   0  0  0  0  0  1  0  0  0  0  0  0
  -26.9400  -30.4030   24.8500 C   0  0  0  0  0  1  0  0  0  0  0  0
  -27.5190  -32.5810   25.8840 C   0  0  0  0  0  1  0  0  0  0  0  0
  -25.5750  -33.9580   24.2390 N   0  0  0  0  0  0  0  0  0  0  0  0
  -25.9060  -34.9980   23.4600 C   0  0  0  0  0  0  0  0  0  0  0  0
  -26.5610  -34.8750   22.4240 O   0  0  0  0  0  0  0  0  0  0  0  0
  -24.9900  -34.1280   25.0450 H   0  0  0  0  0  0  0  0  0  0  0  0
  -24.1840  -36.7990   23.1040 C   0  0  0  0  0  1  0  0  0  0  0  0
  -25.4330  -36.3960   23.9040 C   0  0  0  0  0  3  0  0  0  0  0  0
  -27.5810  -37.2850   24.6990 C   0  0  0  0  0  1  0  0  0  0  0  0
  -26.4710  -37.4420   23.7620 N   0  0  0  0  0  0  0  0  0  0  0  0
  -26.0710  -38.3670   23.8950 H   0  0  0  0  0  0  0  0  0  0  0  0
  2  3  2  0
  3  5  1  0
  3 17  1  0
  4  6  1  0
  4  5  2  0
  6  1  1  0
  7  2  1  0
  7  4  1  0
  8  6  1  0
  9 17  1  0
 10 15  1  0
 11 12  1  0
 11 10  1  0
 13 12  1  0
 13 22  1  0
 13 14  1  0
 15  9  1  0
 15 14  1  0
 16  9  2  0
 17 18  1  0
 19 20  2  0
 20 39  1  0
 21 20  1  0
 21 24  1  0
 22 19  1  0
 22 23  1  0
 23 21  2  0
 24 25  1  0
 25 26  2  0
 27 30  1  0
 27 26  1  0
 28 27  2  0
 29 28  1  0
 29 24  2  0
 30 31  1  0
 31 32  1  0
 32 33  2  0
 34 33  1  0
 34 38  1  0
 35 34  2  0
 36 31  2  0
 36 35  1  0
 37 36  1  0
 39 40  1  0
 40 43  1  0
 40 42  1  0
 41 39  2  0
 44 45  1  0
 44 19  1  0
 46 44  1  0
 47 49  1  0
 47  1  1  0
 48 47  2  0
 50 49  1  0
 51 62  2  0
 52 50  1  0
 52 57  1  0
 53 61  1  0
 53 63  1  0
 54 60  1  0
 54 56  1  0
 55 61  1  0
 56 55  1  0
 57 56  2  0
 58 52  2  0
 59 58  1  0
 59 54  2  0
 60 53  1  0
 61 51  1  0
 63 65  2  0
 64 63  1  0
 66 64  1  0
 67 76  2  0
 67 72  1  0
 68 64  1  0
 68 72  1  0
 69 68  1  0
 70 71  1  0
 70 69  1  0
 71 67  1  0
 72 73  2  0
 73 74  1  0
 75 74  2  0
 76 75  1  0
 77 51  1  0
 77 82  1  0
 77 78  1  0
 78 81  1  1
 78 79  1  0
 80 78  1  0
 82 85  1  0
 83 87  1  0
 83 82  1  0
 84 83  2  0
 87 86  1  0
 89 90  1  0
 89 87  1  0
 89 88  1  0
M  ISO  4   9 100  17 100  49 101  50 101
M  END
>  <TORSDO>  (29) 
F 19

>  <SCORE>  (29) 
-14.151

>  <name>  (29) 
28

>  <ligand_id>  (29) 
28

>  <original_smiles>  (29) 
[H]c1sc(N([H])C([H])([H])C(=O)C([H])([H])Oc2c([H])c([H])c3c(c2[H])C([H])([H])N(C(=O)C([H])(N([H])C(=O)C([H])(N([H])C([H])([H])[H])C([H])([H])[H])C(C([H])([H])[H])(C([H])([H])[H])C([H])([H])[H])C([H])(C(=O)N([H])C2([H])c4c([H])c([H])c([H])c([H])c4C([H])([H])C([H])([H])C2([H])[H])C3([H])[H])nc1N([H])C(=O)N1C([H])([H])C([H])([H])C([H])([H])C([H])(n2nc(-c3c([H])c([H])c(Oc4c([H])c([H])c(F)c([H])c4F)c([H])c3[H])c(C(=O)N([H])[H])c2N([H])[H])C1([H])[H]

>  <smiles>  (29) 
[H]c1sc(N([H])C([H])([H])C(=O)C([H])([H])Oc2c([H])c([H])c3c(c2[H])C([H])([H])N(C(=O)C([H])(N([H])C(=O)C([H])(N([H])C([H])([H])[H])C([H])([H])[H])C(C([H])([H])[H])(C([H])([H])[H])C([H])([H])[H])C([H])(C(=O)N([H])C2([H])c4c([H])c([H])c([H])c([H])c4C([H])([H])C([H])([H])C2([H])[H])C3([H])[H])nc1N([H])C(=O)N1C([H])([H])C([H])([H])C([H])([H])C([H])(n2nc(-c3c([H])c([H])c(Oc4c([H])c([H])c(F)c([H])c4F)c([H])c3[H])c(C(=O)N([H])[H])c2N([H])[H])C1([H])[H]

$$$$
29:0:0
     RDKit          3D

 91100  0  0  1  0  0  0  0  0999 V2000
  -27.4430  -23.1500   19.4010 C   0  0  0  0  0  2  0  0  0  0  0  0
  -27.6480  -21.5960   19.3860 C   0  0  0  0  0  2  0  0  0  0  0  0
  -29.2740  -22.6100   20.8030 C   0  0  0  0  0  2  0  0  0  0  0  0
  -28.0410  -23.6390   20.7410 C   0  0  2  0  0  0  0  0  0  0  0  0
  -27.0730  -23.2090   21.8870 C   0  0  0  0  0  1  0  0  0  0  0  0
  -28.8520  -21.3130   20.1780 N   0  0  0  0  0  0  0  0  0  0  0  0
  -30.6460  -19.5800   20.8530 C   0  0  0  0  0  3  0  0  0  0  0  0
  -30.8900  -18.1410   20.9020 C   0  0  0  0  0  3  0  0  0  0  0  0
  -29.4080  -19.9740   20.3840 C   0  0  0  0  0  0  0  0  0  0  0  0
  -29.8470  -17.3280   20.4950 C   0  0  0  0  0  0  0  0  0  0  0  0
  -28.5310  -18.4540   20.0170 S   0  0  0  0  0  0  0  0  0  0  0  0
  -30.5610  -14.8470   20.3210 C   0  0  0  0  0  0  0  0  0  0  0  0
  -30.4180  -12.5650   19.2970 C   0  0  0  0  0  2  0  0  0  0  0  0
  -29.4600  -12.6180   18.0860 C   0  0  0  0  0  2  0  0  0  0  0  0
  -27.9940  -12.4340   18.5290 C   0  0  0  0  0  2  0  0  0  0  0  0
  -27.6220  -13.3140   19.7510 C   0  0  0  0  0  3  0  0  0  0  0  0
  -28.6940  -13.2150   20.8610 C   0  0  0  0  0  2  0  0  0  0  0  0
  -29.9790  -13.5990   20.2590 N   0  0  0  0  0  0  0  0  0  0  0  0
  -31.7460  -14.9920   20.0070 O   0  0  0  0  0  0  0  0  0  0  0  0
  -29.6990  -15.9260   20.4890 N   0  0  0  0  0  0  0  0  0  0  0  0
  -28.7410  -15.6210   20.5580 H   0  0  0  0  0  0  0  0  0  0  0  0
  -25.2420  -13.8980   20.5120 C   0  0  0  0  0  0  0  0  0  0  0  0
  -24.1830  -13.1190   20.8870 C   0  0  0  0  0  0  0  0  0  0  0  0
  -24.6470  -11.7680   20.8410 C   0  0  0  0  0  0  0  0  0  0  0  0
  -26.2830  -13.0180   20.2540 N   0  0  0  0  0  0  0  0  0  0  0  0
  -25.9330  -11.7340   20.5170 N   0  0  0  0  0  0  0  0  0  0  0  0
  -23.9260  -10.5050   21.0300 C   0  0  0  0  0  0  0  0  0  0  0  0
  -24.3520   -9.5440   21.9730 C   0  0  0  0  0  3  0  0  0  0  0  0
  -23.6320   -8.3440   22.1510 C   0  0  0  0  0  3  0  0  0  0  0  0
  -22.4720   -8.0940   21.3810 C   0  0  0  0  0  0  0  0  0  0  0  0
  -22.0640   -9.0420   20.4250 C   0  0  0  0  0  3  0  0  0  0  0  0
  -22.7850  -10.2330   20.2480 C   0  0  0  0  0  3  0  0  0  0  0  0
  -21.7220   -6.9440   21.4660 O   0  0  0  0  0  0  0  0  0  0  0  0
  -21.6390   -6.2230   22.6280 C   0  0  0  0  0  0  0  0  0  0  0  0
  -21.1310   -6.7860   23.8200 C   0  0  0  0  0  3  0  0  0  0  0  0
  -20.9990   -5.9890   24.9740 C   0  0  0  0  0  3  0  0  0  0  0  0
  -21.3670   -4.6300   24.9390 C   0  0  0  0  0  0  0  0  0  0  0  0
  -21.8670   -4.0660   23.7510 C   0  0  0  0  0  3  0  0  0  0  0  0
  -22.0020   -4.8610   22.5990 C   0  0  0  0  0  0  0  0  0  0  0  0
  -22.4660   -4.3070   21.4510 F   0  0  0  0  0  0  0  0  0  0  0  0
  -21.2320   -3.8600   26.0450 F   0  0  0  0  0  0  0  0  0  0  0  0
  -22.7870  -13.5910   21.1750 C   0  0  0  0  0  0  0  0  0  0  0  0
  -22.0650  -12.8820   22.0350 N   0  0  0  0  0  0  0  0  0  0  0  0
  -22.3440  -14.6230   20.6730 O   0  0  0  0  0  0  0  0  0  0  0  0
  -22.4300  -12.0430   22.4620 H   0  0  0  0  0  0  0  0  0  0  0  0
  -21.1270  -13.1770   22.2680 H   0  0  0  0  0  0  0  0  0  0  0  0
  -25.4020  -15.2700   20.3440 N   0  0  0  0  0  0  0  0  0  0  0  0
  -24.6330  -15.9180   20.4710 H   0  0  0  0  0  0  0  0  0  0  0  0
  -26.2350  -15.7160   19.9850 H   0  0  0  0  0  0  0  0  0  0  0  0
  -28.2490  -25.2550   21.0100 C   0  0  0  0  0  2  0  0  0  0  0  0
  -28.2710  -26.4390   20.0940 O   0  0  0  0  0  0  0  0  0  0  0  0
  -24.5600  -31.8900   23.2070 C   0  0  0  0  0  0  0  0  0  0  0  0
  -27.1870  -27.3350   20.1230 C   0  0  0  0  0  0  0  0  0  0  0  0
  -23.3720  -30.5090   21.5430 C   0  0  0  0  0  3  0  0  0  0  0  0
  -24.8350  -28.9720   20.1070 C   0  0  0  0  0  0  0  0  0  0  0  0
  -25.9120  -30.8290   21.3750 C   0  0  0  0  0  2  0  0  0  0  0  0
  -26.0020  -29.4500   20.7200 C   0  0  0  0  0  0  0  0  0  0  0  0
  -27.1860  -28.6430   20.7160 C   0  0  0  0  0  3  0  0  0  0  0  0
  -26.0000  -26.9180   19.4930 C   0  0  0  0  0  3  0  0  0  0  0  0
  -24.8370  -27.7140   19.4830 C   0  0  0  0  0  3  0  0  0  0  0  0
  -23.5980  -29.8480   20.1580 C   0  0  0  0  0  2  0  0  0  0  0  0
  -24.6340  -31.0890   22.1020 N   0  0  0  0  0  0  0  0  0  0  0  0
  -23.4710  -32.1620   23.7380 O   0  0  0  0  0  0  0  0  0  0  0  0
  -22.7000  -29.4820   22.4900 C   0  0  0  0  0  0  0  0  0  0  0  0
  -21.3700  -29.3200   22.3740 N   0  0  0  0  0  0  0  0  0  0  0  0
  -23.3770  -28.8340   23.2910 O   0  0  0  0  0  0  0  0  0  0  0  0
  -20.8730  -29.9040   21.7160 H   0  0  0  0  0  0  0  0  0  0  0  0
  -17.9870  -28.1490   22.8860 C   0  0  0  0  0  0  0  0  0  0  0  0
  -20.5520  -28.3690   23.1300 C   0  0  0  0  0  3  0  0  0  0  0  0
  -20.6330  -26.9510   22.5180 C   0  0  0  0  0  2  0  0  0  0  0  0
  -19.5130  -26.6680   21.5120 C   0  0  0  0  0  2  0  0  0  0  0  0
  -18.1410  -26.8180   22.1740 C   0  0  0  0  0  2  0  0  0  0  0  0
  -19.1230  -28.8850   23.3230 C   0  0  0  0  0  0  0  0  0  0  0  0
  -18.9270  -30.1360   23.9470 C   0  0  0  0  0  3  0  0  0  0  0  0
  -17.6310  -30.6500   24.1400 C   0  0  0  0  0  3  0  0  0  0  0  0
  -16.5110  -29.9100   23.7210 C   0  0  0  0  0  3  0  0  0  0  0  0
  -16.6910  -28.6610   23.0990 C   0  0  0  0  0  3  0  0  0  0  0  0
  -25.8350  -32.5220   23.8450 C   0  0  0  0  0  3  0  0  0  0  0  0
  -25.5270  -33.9240   24.1700 N   0  0  0  0  0  0  0  0  0  0  0  0
  -25.8740  -34.9730   23.4110 C   0  0  0  0  0  0  0  0  0  0  0  0
  -26.5560  -34.8630   22.3890 O   0  0  0  0  0  0  0  0  0  0  0  0
  -24.9390  -34.0890   24.9720 H   0  0  0  0  0  0  0  0  0  0  0  0
  -24.1810  -36.7830   23.0120 C   0  0  0  0  0  1  0  0  0  0  0  0
  -25.3900  -36.3650   23.8620 C   0  0  0  0  0  3  0  0  0  0  0  0
  -27.5060  -37.2270   24.7620 C   0  0  0  0  0  1  0  0  0  0  0  0
  -26.4380  -37.4060   23.7820 N   0  0  0  0  0  0  0  0  0  0  0  0
  -26.0380  -38.3300   23.9140 H   0  0  0  0  0  0  0  0  0  0  0  0
  -26.3310  -31.7530   25.1290 C   0  0  1  0  0  0  0  0  0  0  0  0
  -25.2220  -31.5160   26.1800 C   0  0  0  0  0  1  0  0  0  0  0  0
  -26.9210  -30.3770   24.7420 C   0  0  0  0  0  1  0  0  0  0  0  0
  -27.4760  -32.5400   25.8080 C   0  0  0  0  0  1  0  0  0  0  0  0
  1  4  1  0
  2  1  1  0
  2  6  1  0
  4  3  1  0
  4 50  1  0
  4  5  1  1
  6  9  1  0
  6  3  1  0
  7  8  1  0
  9  7  2  0
 10  8  2  0
 11  9  1  0
 11 10  1  0
 12 20  1  0
 13 18  1  0
 14 15  1  0
 14 13  1  0
 16 15  1  0
 16 25  1  0
 16 17  1  0
 18 12  1  0
 18 17  1  0
 19 12  2  0
 20 10  1  0
 20 21  1  0
 22 23  2  0
 23 42  1  0
 24 23  1  0
 24 27  1  0
 25 22  1  0
 25 26  1  0
 26 24  2  0
 27 28  1  0
 28 29  2  0
 30 33  1  0
 30 29  1  0
 31 30  2  0
 32 31  1  0
 32 27  2  0
 33 34  1  0
 34 35  1  0
 35 36  2  0
 37 36  1  0
 37 41  1  0
 38 37  2  0
 39 34  2  0
 39 38  1  0
 40 39  1  0
 42 43  1  0
 43 46  1  0
 43 45  1  0
 44 42  2  0
 47 48  1  0
 47 22  1  0
 49 47  1  0
 51 53  1  0
 51 50  1  0
 52 63  2  0
 53 58  1  0
 54 62  1  0
 54 64  1  0
 55 61  1  0
 55 57  1  0
 56 62  1  0
 57 56  1  0
 58 57  2  0
 59 53  2  0
 60 59  1  0
 60 55  2  0
 61 54  1  0
 62 52  1  0
 64 66  2  0
 65 64  1  0
 67 65  1  0
 68 77  2  0
 68 73  1  0
 69 65  1  0
 69 73  1  0
 70 69  1  0
 71 72  1  0
 71 70  1  0
 72 68  1  0
 73 74  2  0
 74 75  1  0
 76 75  2  0
 77 76  1  0
 78 52  1  0
 78 79  1  0
 78 88  1  0
 79 82  1  0
 80 84  1  0
 80 79  1  0
 81 80  2  0
 84 83  1  0
 86 84  1  0
 86 87  1  0
 86 85  1  0
 88 91  1  1
 88 89  1  0
 90 88  1  0
M  ISO  4  12 100  20 100  50 101  51 101
M  END
>  <TORSDO>  (30) 
F 18

>  <SCORE>  (30) 
-14.840

>  <name>  (30) 
29

>  <ligand_id>  (30) 
29

>  <original_smiles>  (30) 
[H]c1c(N([H])C(=O)N2C([H])([H])C([H])([H])C([H])([H])C([H])(n3nc(-c4c([H])c([H])c(Oc5c([H])c([H])c(F)c([H])c5F)c([H])c4[H])c(C(=O)N([H])[H])c3N([H])[H])C2([H])[H])sc(N2C([H])([H])C([H])([H])C(C([H])([H])[H])(C([H])([H])Oc3c([H])c([H])c4c(c3[H])C([H])([H])N(C(=O)C([H])(N([H])C(=O)C([H])(N([H])C([H])([H])[H])C([H])([H])[H])C(C([H])([H])[H])(C([H])([H])[H])C([H])([H])[H])C([H])(C(=O)N([H])C3([H])c5c([H])c([H])c([H])c([H])c5C([H])([H])C([H])([H])C3([H])[H])C4([H])[H])C2([H])[H])c1[H]

>  <smiles>  (30) 
[H]c1c(N([H])C(=O)N2C([H])([H])C([H])([H])C([H])([H])C([H])(n3nc(-c4c([H])c([H])c(Oc5c([H])c([H])c(F)c([H])c5F)c([H])c4[H])c(C(=O)N([H])[H])c3N([H])[H])C2([H])[H])sc(N2C([H])([H])C([H])([H])C(C([H])([H])[H])(C([H])([H])Oc3c([H])c([H])c4c(c3[H])C([H])([H])N(C(=O)C([H])(N([H])C(=O)C([H])(N([H])C([H])([H])[H])C([H])([H])[H])C(C([H])([H])[H])(C([H])([H])[H])C([H])([H])[H])C([H])(C(=O)N([H])C3([H])c5c([H])c([H])c([H])c([H])c5C([H])([H])C([H])([H])C3([H])[H])C4([H])[H])C2([H])[H])c1[H]

$$$$
30:0:0
     RDKit          3D

 98107  0  0  1  0  0  0  0  0999 V2000
  -28.7300  -22.9620   21.4330 C   0  0  0  0  0  3  0  0  0  0  0  0
  -26.8110  -24.2620   21.0340 C   0  0  0  0  0  3  0  0  0  0  0  0
  -28.1320  -24.2600   21.4150 C   0  0  0  0  0  0  0  0  0  0  0  0
  -27.8910  -21.9630   21.0210 C   0  0  0  0  0  0  0  0  0  0  0  0
  -26.3090  -22.6350   20.6240 S   0  0  0  0  0  0  0  0  0  0  0  0
  -30.0820  -25.3910   22.2950 C   0  0  0  0  0  0  0  0  0  0  0  0
  -28.8990  -25.4290   21.6580 N   0  0  0  0  0  0  0  0  0  0  0  0
  -30.2510  -24.7160   23.3150 O   0  0  0  0  0  0  0  0  0  0  0  0
  -28.7460  -26.2100   21.0310 H   0  0  0  0  0  0  0  0  0  0  0  0
  -31.2560  -26.1830   21.7230 C   0  0  0  0  0  2  0  0  0  0  0  0
  -30.8780  -27.4910   21.0310 C   0  0  0  0  0  2  0  0  0  0  0  0
  -30.0820  -27.2390   19.8680 O   0  0  0  0  0  0  0  0  0  0  0  0
  -25.0910  -31.0520   23.1590 C   0  0  0  0  0  0  0  0  0  0  0  0
  -28.8130  -27.7710   19.8370 C   0  0  0  0  0  0  0  0  0  0  0  0
  -24.3050  -29.6890   21.2420 C   0  0  0  0  0  3  0  0  0  0  0  0
  -26.1400  -28.6920   19.7750 C   0  0  0  0  0  0  0  0  0  0  0  0
  -26.6870  -30.5950   21.3110 C   0  0  0  0  0  2  0  0  0  0  0  0
  -27.1030  -29.3730   20.5260 C   0  0  0  0  0  0  0  0  0  0  0  0
  -28.4340  -28.9320   20.5470 C   0  0  0  0  0  3  0  0  0  0  0  0
  -27.8390  -27.0970   19.0710 C   0  0  0  0  0  3  0  0  0  0  0  0
  -26.5020  -27.5470   19.0400 C   0  0  0  0  0  3  0  0  0  0  0  0
  -24.7360  -29.2540   19.8130 C   0  0  0  0  0  2  0  0  0  0  0  0
  -25.3710  -30.4560   21.9660 N   0  0  0  0  0  0  0  0  0  0  0  0
  -23.9500  -31.0170   23.6380 O   0  0  0  0  0  0  0  0  0  0  0  0
  -23.8310  -28.4300   22.0000 C   0  0  0  0  0  0  0  0  0  0  0  0
  -22.5790  -28.0200   21.7440 N   0  0  0  0  0  0  0  0  0  0  0  0
  -24.5880  -27.8300   22.7670 O   0  0  0  0  0  0  0  0  0  0  0  0
  -22.0160  -28.5650   21.1040 H   0  0  0  0  0  0  0  0  0  0  0  0
  -19.4750  -26.1970   21.8530 C   0  0  0  0  0  0  0  0  0  0  0  0
  -21.9340  -26.8370   22.3060 C   0  0  0  0  0  3  0  0  0  0  0  0
  -22.3110  -25.5610   21.5140 C   0  0  0  0  0  2  0  0  0  0  0  0
  -21.3130  -25.2320   20.4020 C   0  0  0  0  0  2  0  0  0  0  0  0
  -19.9110  -25.0270   20.9820 C   0  0  0  0  0  2  0  0  0  0  0  0
  -20.4280  -27.0540   22.4630 C   0  0  0  0  0  0  0  0  0  0  0  0
  -19.9730  -28.1510   23.2270 C   0  0  0  0  0  3  0  0  0  0  0  0
  -18.5970  -28.3890   23.3970 C   0  0  0  0  0  3  0  0  0  0  0  0
  -17.6580  -27.5260   22.8090 C   0  0  0  0  0  3  0  0  0  0  0  0
  -18.0960  -26.4330   22.0400 C   0  0  0  0  0  3  0  0  0  0  0  0
  -26.1820  -31.8190   23.9720 C   0  0  0  0  0  3  0  0  0  0  0  0
  -26.6390  -31.0610   25.2810 C   0  0  1  0  0  0  0  0  0  0  0  0
  -25.4650  -30.6150   26.1830 C   0  0  0  0  0  1  0  0  0  0  0  0
  -27.4700  -29.8060   24.9270 C   0  0  0  0  0  1  0  0  0  0  0  0
  -27.5590  -31.9760   26.1220 C   0  0  0  0  0  1  0  0  0  0  0  0
  -25.6350  -33.1430   24.2980 N   0  0  0  0  0  0  0  0  0  0  0  0
  -25.9050  -34.2630   23.6120 C   0  0  0  0  0  0  0  0  0  0  0  0
  -26.7090  -34.3010   22.6790 O   0  0  0  0  0  0  0  0  0  0  0  0
  -24.9210  -33.1720   25.0110 H   0  0  0  0  0  0  0  0  0  0  0  0
  -23.9860  -35.7980   23.0810 C   0  0  0  0  0  1  0  0  0  0  0  0
  -25.1660  -35.5470   24.0340 C   0  0  0  0  0  3  0  0  0  0  0  0
  -27.0320  -36.7020   25.1360 C   0  0  0  0  0  1  0  0  0  0  0  0
  -26.0380  -36.7440   24.0660 N   0  0  0  0  0  0  0  0  0  0  0  0
  -25.4860  -37.5900   24.1790 H   0  0  0  0  0  0  0  0  0  0  0  0
  -28.1670  -20.5190   20.7590 C   0  0  0  0  0  0  0  0  0  0  0  0
  -29.4510  -20.1350   20.9400 N   0  0  0  0  0  0  0  0  0  0  0  0
  -27.2820  -19.7640   20.3530 O   0  0  0  0  0  0  0  0  0  0  0  0
  -30.0090  -20.8430   21.3980 H   0  0  0  0  0  0  0  0  0  0  0  0
  -30.9880  -15.0480   19.9570 C   0  0  0  0  0  0  0  0  0  0  0  0
  -30.8340  -12.7310   19.0440 C   0  0  0  0  0  2  0  0  0  0  0  0
  -29.8700  -12.6430   17.8450 C   0  0  0  0  0  2  0  0  0  0  0  0
  -28.4280  -12.3930   18.3310 C   0  0  0  0  0  2  0  0  0  0  0  0
  -28.0210  -13.4180   19.4170 C   0  0  0  0  0  3  0  0  0  0  0  0
  -29.0790  -13.4970   20.5350 C   0  0  0  0  0  2  0  0  0  0  0  0
  -30.3800  -13.8250   19.9270 N   0  0  0  0  0  0  0  0  0  0  0  0
  -32.0970  -15.2230   19.4390 O   0  0  0  0  0  0  0  0  0  0  0  0
  -31.2880  -18.3210   21.2120 C   0  0  0  0  0  2  0  0  0  0  0  0
  -29.5280  -18.0870   19.3630 C   0  0  0  0  0  2  0  0  0  0  0  0
  -30.8930  -16.8930   21.6790 C   0  0  0  0  0  2  0  0  0  0  0  0
  -29.1520  -16.7530   20.0260 C   0  0  0  0  0  2  0  0  0  0  0  0
  -30.2560  -19.0590   20.3110 C   0  0  0  0  0  3  0  0  0  0  0  0
  -30.3240  -16.0620   20.6010 N   0  0  0  0  0  0  0  0  0  0  0  0
  -25.6810  -14.0770   20.2540 C   0  0  0  0  0  0  0  0  0  0  0  0
  -24.6150  -13.3260   20.6590 C   0  0  0  0  0  0  0  0  0  0  0  0
  -25.0470  -11.9640   20.5750 C   0  0  0  0  0  0  0  0  0  0  0  0
  -26.6940  -13.1750   19.9590 N   0  0  0  0  0  0  0  0  0  0  0  0
  -26.3250  -11.8990   20.2240 N   0  0  0  0  0  0  0  0  0  0  0  0
  -24.3110  -10.7150   20.7660 C   0  0  0  0  0  0  0  0  0  0  0  0
  -24.7190   -9.7540   21.7180 C   0  0  0  0  0  3  0  0  0  0  0  0
  -23.9790   -8.5680   21.8930 C   0  0  0  0  0  3  0  0  0  0  0  0
  -22.8210   -8.3330   21.1110 C   0  0  0  0  0  0  0  0  0  0  0  0
  -22.4380   -9.2820   20.1470 C   0  0  0  0  0  3  0  0  0  0  0  0
  -23.1770  -10.4630   19.9710 C   0  0  0  0  0  3  0  0  0  0  0  0
  -22.0580   -7.1930   21.1870 O   0  0  0  0  0  0  0  0  0  0  0  0
  -21.8810   -6.5200   22.3680 C   0  0  0  0  0  0  0  0  0  0  0  0
  -21.3430   -7.1600   23.5040 C   0  0  0  0  0  3  0  0  0  0  0  0
  -21.1240   -6.4230   24.6820 C   0  0  0  0  0  3  0  0  0  0  0  0
  -21.4230   -5.0480   24.7200 C   0  0  0  0  0  0  0  0  0  0  0  0
  -21.9460   -4.4080   23.5830 C   0  0  0  0  0  3  0  0  0  0  0  0
  -22.1760   -5.1420   22.4060 C   0  0  0  0  0  0  0  0  0  0  0  0
  -22.6710   -4.5210   21.3070 F   0  0  0  0  0  0  0  0  0  0  0  0
  -21.2000   -4.3340   25.8490 F   0  0  0  0  0  0  0  0  0  0  0  0
  -23.2420  -13.8250   21.0150 C   0  0  0  0  0  0  0  0  0  0  0  0
  -22.5470  -13.1310   21.9080 N   0  0  0  0  0  0  0  0  0  0  0  0
  -22.7990  -14.8670   20.5330 O   0  0  0  0  0  0  0  0  0  0  0  0
  -22.9290  -12.2840   22.3080 H   0  0  0  0  0  0  0  0  0  0  0  0
  -21.6230  -13.4350   22.1910 H   0  0  0  0  0  0  0  0  0  0  0  0
  -25.8660  -15.4460   20.0810 N   0  0  0  0  0  0  0  0  0  0  0  0
  -26.6870  -15.8180   19.6210 H   0  0  0  0  0  0  0  0  0  0  0  0
  -25.0800  -16.0840   20.0620 H   0  0  0  0  0  0  0  0  0  0  0  0
  2  3  2  0
  3  1  1  0
  3  7  1  0
  4  1  2  0
  5  4  1  0
  5  2  1  0
  6  8  2  0
  7  6  1  0
  9  7  1  0
 10  6  1  0
 11 10  1  0
 12 11  1  0
 13 24  2  0
 14 12  1  0
 14 19  1  0
 15 23  1  0
 15 25  1  0
 16 22  1  0
 16 18  1  0
 17 23  1  0
 18 19  2  0
 18 17  1  0
 20 14  2  0
 21 20  1  0
 21 16  2  0
 22 15  1  0
 23 13  1  0
 25 27  2  0
 26 25  1  0
 28 26  1  0
 29 38  2  0
 29 34  1  0
 30 26  1  0
 30 34  1  0
 31 30  1  0
 32 33  1  0
 32 31  1  0
 33 29  1  0
 34 35  2  0
 35 36  1  0
 37 36  2  0
 38 37  1  0
 39 13  1  0
 39 44  1  0
 39 40  1  0
 40 43  1  1
 40 41  1  0
 42 40  1  0
 44 47  1  0
 45 49  1  0
 45 44  1  0
 46 45  2  0
 49 48  1  0
 49 51  1  0
 51 52  1  0
 51 50  1  0
 53 54  1  0
 53  4  1  0
 54 56  1  0
 55 53  2  0
 57 70  1  0
 58 63  1  0
 59 60  1  0
 59 58  1  0
 61 60  1  0
 61 74  1  0
 61 62  1  0
 63 57  1  0
 63 62  1  0
 64 57  2  0
 65 67  1  0
 66 68  1  0
 66 69  1  0
 68 70  1  0
 69 54  1  0
 69 65  1  0
 70 67  1  0
 71 72  2  0
 72 91  1  0
 73 72  1  0
 73 76  1  0
 74 75  1  0
 74 71  1  0
 75 73  2  0
 76 77  1  0
 77 78  2  0
 79 82  1  0
 79 78  1  0
 80 79  2  0
 81 80  1  0
 81 76  2  0
 82 83  1  0
 83 88  2  0
 83 84  1  0
 84 85  2  0
 85 86  1  0
 86 90  1  0
 87 86  2  0
 88 87  1  0
 89 88  1  0
 91 92  1  0
 92 95  1  0
 92 94  1  0
 93 91  2  0
 96 71  1  0
 97 96  1  0
 98 96  1  0
M  ISO  4  11 101  12 101  57 100  70 100
M  END
>  <TORSDO>  (31) 
F 20

>  <SCORE>  (31) 
-9.461

>  <name>  (31) 
30

>  <ligand_id>  (31) 
30

>  <original_smiles>  (31) 
[H]c1sc(C(=O)N([H])C2([H])C([H])([H])C([H])([H])N(C(=O)N3C([H])([H])C([H])([H])C([H])([H])C([H])(n4nc(-c5c([H])c([H])c(Oc6c([H])c([H])c(F)c([H])c6F)c([H])c5[H])c(C(=O)N([H])[H])c4N([H])[H])C3([H])[H])C([H])([H])C2([H])[H])c([H])c1N([H])C(=O)C([H])([H])C([H])([H])Oc1c([H])c([H])c2c(c1[H])C([H])([H])N(C(=O)C([H])(N([H])C(=O)C([H])(N([H])C([H])([H])[H])C([H])([H])[H])C(C([H])([H])[H])(C([H])([H])[H])C([H])([H])[H])C([H])(C(=O)N([H])C1([H])c3c([H])c([H])c([H])c([H])c3C([H])([H])C([H])([H])C1([H])[H])C2([H])[H]

>  <smiles>  (31) 
[H]c1sc(C(=O)N([H])C2([H])C([H])([H])C([H])([H])N(C(=O)N3C([H])([H])C([H])([H])C([H])([H])C([H])(n4nc(-c5c([H])c([H])c(Oc6c([H])c([H])c(F)c([H])c6F)c([H])c5[H])c(C(=O)N([H])[H])c4N([H])[H])C3([H])[H])C([H])([H])C2([H])[H])c([H])c1N([H])C(=O)C([H])([H])C([H])([H])Oc1c([H])c([H])c2c(c1[H])C([H])([H])N(C(=O)C([H])(N([H])C(=O)C([H])(N([H])C([H])([H])[H])C([H])([H])[H])C(C([H])([H])[H])(C([H])([H])[H])C([H])([H])[H])C([H])(C(=O)N([H])C1([H])c3c([H])c([H])c([H])c([H])c3C([H])([H])C([H])([H])C1([H])[H])C2([H])[H]

$$$$
31:0:0
     RDKit          3D

 91100  0  0  1  0  0  0  0  0999 V2000
  -28.2470  -23.7020   18.9350 C   0  0  0  0  0  3  0  0  0  0  0  0
  -28.5560  -23.7780   20.2390 C   0  0  0  0  0  0  0  0  0  0  0  0
  -28.2070  -22.3920   18.1740 C   0  0  0  0  0  2  0  0  0  0  0  0
  -29.0290  -22.4390   20.9790 C   0  0  0  0  0  2  0  0  0  0  0  0
  -27.9400  -21.1990   19.1100 C   0  0  0  0  0  2  0  0  0  0  0  0
  -28.9090  -21.1440   20.1930 N   0  0  0  0  0  0  0  0  0  0  0  0
  -30.7860  -19.4300   20.6030 C   0  0  0  0  0  3  0  0  0  0  0  0
  -31.0120  -17.9880   20.5900 C   0  0  0  0  0  3  0  0  0  0  0  0
  -29.4710  -19.8310   20.4880 C   0  0  0  0  0  0  0  0  0  0  0  0
  -29.8840  -17.1900   20.5130 C   0  0  0  0  0  0  0  0  0  0  0  0
  -28.5000  -18.3250   20.4590 S   0  0  0  0  0  0  0  0  0  0  0  0
  -30.5510  -14.7300   20.1730 C   0  0  0  0  0  0  0  0  0  0  0  0
  -30.3510  -12.4860   19.0840 C   0  0  0  0  0  2  0  0  0  0  0  0
  -29.3600  -12.5800   17.9030 C   0  0  0  0  0  2  0  0  0  0  0  0
  -27.9070  -12.3970   18.3850 C   0  0  0  0  0  2  0  0  0  0  0  0
  -27.5780  -13.2580   19.6320 C   0  0  0  0  0  3  0  0  0  0  0  0
  -28.6730  -13.1170   20.7120 C   0  0  0  0  0  2  0  0  0  0  0  0
  -29.9520  -13.4940   20.0910 N   0  0  0  0  0  0  0  0  0  0  0  0
  -31.7140  -14.8890   19.7930 O   0  0  0  0  0  0  0  0  0  0  0  0
  -29.7210  -15.7930   20.4930 N   0  0  0  0  0  0  0  0  0  0  0  0
  -28.7770  -15.4860   20.6710 H   0  0  0  0  0  0  0  0  0  0  0  0
  -25.2080  -13.8440   20.4280 C   0  0  0  0  0  0  0  0  0  0  0  0
  -24.1550  -13.0690   20.8320 C   0  0  0  0  0  0  0  0  0  0  0  0
  -24.6210  -11.7170   20.7760 C   0  0  0  0  0  0  0  0  0  0  0  0
  -26.2480  -12.9680   20.1550 N   0  0  0  0  0  0  0  0  0  0  0  0
  -25.9020  -11.6830   20.4260 N   0  0  0  0  0  0  0  0  0  0  0  0
  -23.9100  -10.4500   20.9830 C   0  0  0  0  0  0  0  0  0  0  0  0
  -24.3670   -9.4830   21.9050 C   0  0  0  0  0  3  0  0  0  0  0  0
  -23.6510   -8.2830   22.0990 C   0  0  0  0  0  3  0  0  0  0  0  0
  -22.4620   -8.0410   21.3690 C   0  0  0  0  0  0  0  0  0  0  0  0
  -22.0250   -8.9960   20.4330 C   0  0  0  0  0  3  0  0  0  0  0  0
  -22.7430  -10.1870   20.2400 C   0  0  0  0  0  3  0  0  0  0  0  0
  -21.7190   -6.8910   21.4690 O   0  0  0  0  0  0  0  0  0  0  0  0
  -21.6910   -6.1540   22.6260 C   0  0  0  0  0  0  0  0  0  0  0  0
  -21.2610   -6.7060   23.8540 C   0  0  0  0  0  3  0  0  0  0  0  0
  -21.1840   -5.8910   25.0030 C   0  0  0  0  0  3  0  0  0  0  0  0
  -21.5240   -4.5290   24.9240 C   0  0  0  0  0  0  0  0  0  0  0  0
  -21.9450   -3.9760   23.7020 C   0  0  0  0  0  3  0  0  0  0  0  0
  -22.0250   -4.7840   22.5560 C   0  0  0  0  0  0  0  0  0  0  0  0
  -22.4120   -4.2450   21.3760 F   0  0  0  0  0  0  0  0  0  0  0  0
  -21.4410   -3.7450   26.0220 F   0  0  0  0  0  0  0  0  0  0  0  0
  -22.7640  -13.5390   21.1450 C   0  0  0  0  0  0  0  0  0  0  0  0
  -22.0640  -12.8360   22.0250 N   0  0  0  0  0  0  0  0  0  0  0  0
  -22.3080  -14.5650   20.6420 O   0  0  0  0  0  0  0  0  0  0  0  0
  -22.4470  -12.0050   22.4480 H   0  0  0  0  0  0  0  0  0  0  0  0
  -21.1350  -13.1370   22.2820 H   0  0  0  0  0  0  0  0  0  0  0  0
  -25.3640  -15.2180   20.2430 N   0  0  0  0  0  0  0  0  0  0  0  0
  -24.5900  -15.8600   20.3650 H   0  0  0  0  0  0  0  0  0  0  0  0
  -26.1700  -15.6430   19.8050 H   0  0  0  0  0  0  0  0  0  0  0  0
  -28.3370  -25.1550   20.9980 C   0  0  0  0  0  2  0  0  0  0  0  0
  -28.3950  -26.4480   20.2390 O   0  0  0  0  0  0  0  0  0  0  0  0
  -24.6250  -31.8570   23.2340 C   0  0  0  0  0  0  0  0  0  0  0  0
  -27.2760  -27.2990   20.2210 C   0  0  0  0  0  0  0  0  0  0  0  0
  -23.4350  -30.4570   21.5790 C   0  0  0  0  0  3  0  0  0  0  0  0
  -24.9070  -28.9110   20.1600 C   0  0  0  0  0  0  0  0  0  0  0  0
  -25.9710  -30.7890   21.4070 C   0  0  0  0  0  2  0  0  0  0  0  0
  -26.0670  -29.4060   20.7710 C   0  0  0  0  0  0  0  0  0  0  0  0
  -27.2560  -28.6140   20.7890 C   0  0  0  0  0  3  0  0  0  0  0  0
  -26.1010  -26.8580   19.5810 C   0  0  0  0  0  3  0  0  0  0  0  0
  -24.9270  -27.6430   19.5530 C   0  0  0  0  0  3  0  0  0  0  0  0
  -23.6630  -29.7800   20.2000 C   0  0  0  0  0  2  0  0  0  0  0  0
  -24.6950  -31.0540   22.1310 N   0  0  0  0  0  0  0  0  0  0  0  0
  -23.5380  -32.1310   23.7620 O   0  0  0  0  0  0  0  0  0  0  0  0
  -22.7690  -29.4410   22.5350 C   0  0  0  0  0  0  0  0  0  0  0  0
  -21.4410  -29.2740   22.4160 N   0  0  0  0  0  0  0  0  0  0  0  0
  -23.4460  -28.8040   23.3460 O   0  0  0  0  0  0  0  0  0  0  0  0
  -20.9510  -29.8380   21.7370 H   0  0  0  0  0  0  0  0  0  0  0  0
  -18.0580  -28.1050   22.9240 C   0  0  0  0  0  0  0  0  0  0  0  0
  -20.6200  -28.3330   23.1810 C   0  0  0  0  0  3  0  0  0  0  0  0
  -20.7040  -26.9120   22.5790 C   0  0  0  0  0  2  0  0  0  0  0  0
  -19.5900  -26.6150   21.5700 C   0  0  0  0  0  2  0  0  0  0  0  0
  -18.2140  -26.7650   22.2280 C   0  0  0  0  0  2  0  0  0  0  0  0
  -19.1860  -28.8510   23.3570 C   0  0  0  0  0  0  0  0  0  0  0  0
  -18.9850  -30.1070   23.9700 C   0  0  0  0  0  3  0  0  0  0  0  0
  -17.6860  -30.6230   24.1450 C   0  0  0  0  0  3  0  0  0  0  0  0
  -16.5700  -29.8740   23.7300 C   0  0  0  0  0  3  0  0  0  0  0  0
  -16.7590  -28.6170   23.1260 C   0  0  0  0  0  3  0  0  0  0  0  0
  -25.9010  -32.4890   23.8680 C   0  0  0  0  0  3  0  0  0  0  0  0
  -25.5930  -33.8900   24.1900 N   0  0  0  0  0  0  0  0  0  0  0  0
  -25.9290  -34.9400   23.4270 C   0  0  0  0  0  0  0  0  0  0  0  0
  -26.6010  -34.8310   22.3990 O   0  0  0  0  0  0  0  0  0  0  0  0
  -24.9970  -34.0500   24.9900 H   0  0  0  0  0  0  0  0  0  0  0  0
  -24.2040  -36.7320   23.0660 C   0  0  0  0  0  1  0  0  0  0  0  0
  -25.4440  -36.3310   23.8810 C   0  0  0  0  0  3  0  0  0  0  0  0
  -27.5780  -37.2190   24.7110 C   0  0  0  0  0  1  0  0  0  0  0  0
  -26.4790  -37.3820   23.7630 N   0  0  0  0  0  0  0  0  0  0  0  0
  -26.0730  -38.3030   23.9060 H   0  0  0  0  0  0  0  0  0  0  0  0
  -26.4030  -31.7230   25.1530 C   0  0  1  0  0  0  0  0  0  0  0  0
  -25.2990  -31.4960   26.2110 C   0  0  0  0  0  1  0  0  0  0  0  0
  -26.9870  -30.3430   24.7740 C   0  0  0  0  0  1  0  0  0  0  0  0
  -27.5480  -32.5170   25.8250 C   0  0  0  0  0  1  0  0  0  0  0  0
  1  2  2  0
  2  4  1  0
  2 50  1  0
  3  1  1  0
  3  5  1  0
  5  6  1  0
  6  9  1  0
  6  4  1  0
  8  7  1  0
  9  7  2  0
 10  8  2  0
 11  9  1  0
 11 10  1  0
 12 20  1  0
 13 18  1  0
 14 15  1  0
 14 13  1  0
 16 15  1  0
 16 25  1  0
 16 17  1  0
 18 12  1  0
 18 17  1  0
 19 12  2  0
 20 10  1  0
 20 21  1  0
 22 23  2  0
 23 42  1  0
 24 23  1  0
 24 27  1  0
 25 26  1  0
 25 22  1  0
 26 24  2  0
 27 28  1  0
 28 29  2  0
 30 33  1  0
 30 29  1  0
 31 30  2  0
 32 31  1  0
 32 27  2  0
 33 34  1  0
 34 35  1  0
 35 36  2  0
 37 36  1  0
 37 41  1  0
 38 37  2  0
 39 34  2  0
 39 38  1  0
 40 39  1  0
 42 43  1  0
 43 46  1  0
 43 45  1  0
 44 42  2  0
 47 48  1  0
 47 22  1  0
 49 47  1  0
 51 50  1  0
 52 63  2  0
 53 51  1  0
 53 58  1  0
 54 62  1  0
 54 64  1  0
 55 61  1  0
 55 57  1  0
 56 62  1  0
 57 58  2  0
 57 56  1  0
 59 53  2  0
 60 59  1  0
 60 55  2  0
 61 54  1  0
 62 52  1  0
 64 66  2  0
 65 64  1  0
 67 65  1  0
 68 77  2  0
 68 73  1  0
 69 65  1  0
 69 73  1  0
 70 69  1  0
 71 72  1  0
 71 70  1  0
 72 68  1  0
 73 74  2  0
 74 75  1  0
 76 75  2  0
 77 76  1  0
 78 52  1  0
 78 79  1  0
 78 88  1  0
 79 82  1  0
 80 84  1  0
 80 79  1  0
 81 80  2  0
 84 83  1  0
 86 84  1  0
 86 87  1  0
 86 85  1  0
 88 91  1  1
 88 89  1  0
 90 88  1  0
M  ISO  4  12 100  20 100  50 101  51 101
M  END
>  <TORSDO>  (32) 
F 18

>  <SCORE>  (32) 
-14.770

>  <name>  (32) 
31

>  <ligand_id>  (32) 
31

>  <original_smiles>  (32) 
[H]C1=C(C([H])([H])Oc2c([H])c([H])c3c(c2[H])C([H])([H])N(C(=O)C([H])(N([H])C(=O)C([H])(N([H])C([H])([H])[H])C([H])([H])[H])C(C([H])([H])[H])(C([H])([H])[H])C([H])([H])[H])C([H])(C(=O)N([H])C2([H])c4c([H])c([H])c([H])c([H])c4C([H])([H])C([H])([H])C2([H])[H])C3([H])[H])C([H])([H])N(c2sc(N([H])C(=O)N3C([H])([H])C([H])([H])C([H])([H])C([H])(n4nc(-c5c([H])c([H])c(Oc6c([H])c([H])c(F)c([H])c6F)c([H])c5[H])c(C(=O)N([H])[H])c4N([H])[H])C3([H])[H])c([H])c2[H])C([H])([H])C1([H])[H]

>  <smiles>  (32) 
[H]C1=C(C([H])([H])Oc2c([H])c([H])c3c(c2[H])C([H])([H])N(C(=O)C([H])(N([H])C(=O)C([H])(N([H])C([H])([H])[H])C([H])([H])[H])C(C([H])([H])[H])(C([H])([H])[H])C([H])([H])[H])C([H])(C(=O)N([H])C2([H])c4c([H])c([H])c([H])c([H])c4C([H])([H])C([H])([H])C2([H])[H])C3([H])[H])C([H])([H])N(c2sc(N([H])C(=O)N3C([H])([H])C([H])([H])C([H])([H])C([H])(n4nc(-c5c([H])c([H])c(Oc6c([H])c([H])c(F)c([H])c6F)c([H])c5[H])c(C(=O)N([H])[H])c4N([H])[H])C3([H])[H])c([H])c2[H])C([H])([H])C1([H])[H]

$$$$
32:0:0
     RDKit          3D

 98107  0  0  1  0  0  0  0  0999 V2000
  -28.9020  -23.0000   19.7500 C   0  0  0  0  0  3  0  0  0  0  0  0
  -28.4170  -24.2570   19.9360 C   0  0  0  0  0  0  0  0  0  0  0  0
  -28.6740  -20.7380   20.9200 C   0  0  0  0  0  3  0  0  0  0  0  0
  -27.4070  -24.2800   21.0470 C   0  0  0  0  0  3  0  0  0  0  0  0
  -27.3430  -22.8010   21.4730 C   0  0  0  0  0  3  0  0  0  0  0  0
  -28.3650  -22.0750   20.6660 N   0  0  0  0  0  0  0  0  0  0  0  0
  -27.9460  -20.1720   21.8920 N   0  0  0  0  0  0  0  0  0  0  0  0
  -28.2080  -19.2580   22.2250 H   0  0  0  0  0  0  0  0  0  0  0  0
  -27.1720  -20.6400   22.3290 H   0  0  0  0  0  0  0  0  0  0  0  0
  -31.6530  -17.8590   19.4880 C   0  0  0  0  0  3  0  0  0  0  0  0
  -31.9260  -19.2370   19.4150 C   0  0  0  0  0  3  0  0  0  0  0  0
  -29.4580  -18.3820   20.3500 C   0  0  0  0  0  3  0  0  0  0  0  0
  -29.7140  -19.8060   20.3170 C   0  0  0  0  0  0  0  0  0  0  0  0
  -30.4210  -17.3800   19.9920 C   0  0  0  0  0  0  0  0  0  0  0  0
  -31.0070  -20.2080   19.8600 C   0  0  0  0  0  0  0  0  0  0  0  0
  -30.8990  -14.8410   19.8880 C   0  0  0  0  0  0  0  0  0  0  0  0
  -30.6150  -12.5740   18.9320 C   0  0  0  0  0  2  0  0  0  0  0  0
  -29.6120  -12.6680   17.7630 C   0  0  0  0  0  2  0  0  0  0  0  0
  -28.1700  -12.5080   18.2830 C   0  0  0  0  0  2  0  0  0  0  0  0
  -27.8700  -13.4100   19.5090 C   0  0  0  0  0  3  0  0  0  0  0  0
  -28.9910  -13.3180   20.5680 C   0  0  0  0  0  2  0  0  0  0  0  0
  -30.2600  -13.6320   19.8990 N   0  0  0  0  0  0  0  0  0  0  0  0
  -32.0540  -14.9300   19.4660 O   0  0  0  0  0  0  0  0  0  0  0  0
  -30.1350  -15.9490   20.1590 N   0  0  0  0  0  0  0  0  0  0  0  0
  -29.2050  -15.7260   20.4750 H   0  0  0  0  0  0  0  0  0  0  0  0
  -25.5440  -14.0050   20.4240 C   0  0  0  0  0  0  0  0  0  0  0  0
  -24.4970  -13.2290   20.8370 C   0  0  0  0  0  0  0  0  0  0  0  0
  -24.9350  -11.8750   20.7160 C   0  0  0  0  0  0  0  0  0  0  0  0
  -26.5560  -13.1240   20.0780 N   0  0  0  0  0  0  0  0  0  0  0  0
  -26.2000  -11.8350   20.3150 N   0  0  0  0  0  0  0  0  0  0  0  0
  -24.2050  -10.6140   20.9020 C   0  0  0  0  0  0  0  0  0  0  0  0
  -24.6210   -9.6540   21.8510 C   0  0  0  0  0  3  0  0  0  0  0  0
  -23.8910   -8.4580   22.0260 C   0  0  0  0  0  3  0  0  0  0  0  0
  -22.7310   -8.2150   21.2520 C   0  0  0  0  0  0  0  0  0  0  0  0
  -22.3340   -9.1650   20.2930 C   0  0  0  0  0  3  0  0  0  0  0  0
  -23.0650  -10.3520   20.1160 C   0  0  0  0  0  3  0  0  0  0  0  0
  -21.9750   -7.0710   21.3350 O   0  0  0  0  0  0  0  0  0  0  0  0
  -21.8080   -6.4040   22.5210 C   0  0  0  0  0  0  0  0  0  0  0  0
  -21.2320   -7.0250   23.6510 C   0  0  0  0  0  3  0  0  0  0  0  0
  -21.0150   -6.2810   24.8280 C   0  0  0  0  0  3  0  0  0  0  0  0
  -21.3650   -4.9180   24.8770 C   0  0  0  0  0  0  0  0  0  0  0  0
  -21.9350   -4.2970   23.7510 C   0  0  0  0  0  3  0  0  0  0  0  0
  -22.1530   -5.0370   22.5770 C   0  0  0  0  0  0  0  0  0  0  0  0
  -22.6830   -4.4300   21.4870 F   0  0  0  0  0  0  0  0  0  0  0  0
  -21.1510   -4.2020   26.0040 F   0  0  0  0  0  0  0  0  0  0  0  0
  -23.1290  -13.7120   21.2260 C   0  0  0  0  0  0  0  0  0  0  0  0
  -22.4570  -12.9920   22.1170 N   0  0  0  0  0  0  0  0  0  0  0  0
  -22.6700  -14.7600   20.7760 O   0  0  0  0  0  0  0  0  0  0  0  0
  -22.8440  -12.1430   22.5030 H   0  0  0  0  0  0  0  0  0  0  0  0
  -21.5420  -13.2950   22.4190 H   0  0  0  0  0  0  0  0  0  0  0  0
  -25.7120  -15.3800   20.2870 N   0  0  0  0  0  0  0  0  0  0  0  0
  -24.9440  -16.0210   20.4540 H   0  0  0  0  0  0  0  0  0  0  0  0
  -26.5050  -15.8200   19.8400 H   0  0  0  0  0  0  0  0  0  0  0  0
  -31.4850  -21.5230   19.8620 N   0  0  0  0  0  0  0  0  0  0  0  0
  -31.0370  -22.2360   20.4290 H   0  0  0  0  0  0  0  0  0  0  0  0
  -32.4770  -21.6920   19.7290 H   0  0  0  0  0  0  0  0  0  0  0  0
  -28.7270  -25.5570   19.1390 C   0  0  0  0  0  2  0  0  0  0  0  0
  -28.6100  -26.8380   19.8480 O   0  0  0  0  0  0  0  0  0  0  0  0
  -24.7210  -31.9150   23.1250 C   0  0  0  0  0  0  0  0  0  0  0  0
  -27.4300  -27.5840   19.8510 C   0  0  0  0  0  0  0  0  0  0  0  0
  -23.5370  -30.5430   21.4480 C   0  0  0  0  0  3  0  0  0  0  0  0
  -25.0100  -29.0940   19.9470 C   0  0  0  0  0  0  0  0  0  0  0  0
  -26.0590  -30.9520   21.2420 C   0  0  0  0  0  2  0  0  0  0  0  0
  -26.1680  -29.6020   20.5480 C   0  0  0  0  0  0  0  0  0  0  0  0
  -27.3770  -28.8550   20.4960 C   0  0  0  0  0  3  0  0  0  0  0  0
  -26.2420  -27.1110   19.2490 C   0  0  0  0  0  3  0  0  0  0  0  0
  -25.0470  -27.8530   19.2940 C   0  0  0  0  0  3  0  0  0  0  0  0
  -23.7500  -29.9280   20.0410 C   0  0  0  0  0  2  0  0  0  0  0  0
  -24.7920  -31.1520   21.9960 N   0  0  0  0  0  0  0  0  0  0  0  0
  -23.6370  -32.1380   23.6830 O   0  0  0  0  0  0  0  0  0  0  0  0
  -22.9200  -29.4680   22.3760 C   0  0  0  0  0  0  0  0  0  0  0  0
  -21.5960  -29.2700   22.2720 N   0  0  0  0  0  0  0  0  0  0  0  0
  -23.6320  -28.8210   23.1470 O   0  0  0  0  0  0  0  0  0  0  0  0
  -21.0790  -29.8480   21.6260 H   0  0  0  0  0  0  0  0  0  0  0  0
  -18.2510  -28.0110   22.8160 C   0  0  0  0  0  0  0  0  0  0  0  0
  -20.8140  -28.2840   23.0200 C   0  0  0  0  0  3  0  0  0  0  0  0
  -20.9110  -26.8850   22.3680 C   0  0  0  0  0  2  0  0  0  0  0  0
  -19.7810  -26.6020   21.3740 C   0  0  0  0  0  2  0  0  0  0  0  0
  -18.4190  -26.7000   22.0670 C   0  0  0  0  0  2  0  0  0  0  0  0
  -19.3750  -28.7620   23.2500 C   0  0  0  0  0  0  0  0  0  0  0  0
  -19.1640  -29.9920   23.9100 C   0  0  0  0  0  3  0  0  0  0  0  0
  -17.8600  -30.4700   24.1410 C   0  0  0  0  0  3  0  0  0  0  0  0
  -16.7500  -29.7150   23.7240 C   0  0  0  0  0  3  0  0  0  0  0  0
  -16.9480  -28.4880   23.0660 C   0  0  0  0  0  3  0  0  0  0  0  0
  -25.9940  -32.5620   23.7530 C   0  0  0  0  0  3  0  0  0  0  0  0
  -26.5380  -31.7700   25.0060 C   0  0  1  0  0  0  0  0  0  0  0  0
  -25.4590  -31.4780   26.0740 C   0  0  0  0  0  1  0  0  0  0  0  0
  -27.1510  -30.4190   24.5720 C   0  0  0  0  0  1  0  0  0  0  0  0
  -27.6730  -32.5750   25.6840 C   0  0  0  0  0  1  0  0  0  0  0  0
  -25.6520  -33.9430   24.1220 N   0  0  0  0  0  0  0  0  0  0  0  0
  -25.9520  -35.0240   23.3880 C   0  0  0  0  0  0  0  0  0  0  0  0
  -26.6140  -34.9650   22.3480 O   0  0  0  0  0  0  0  0  0  0  0  0
  -25.0640  -34.0630   24.9340 H   0  0  0  0  0  0  0  0  0  0  0  0
  -24.1790  -36.7830   23.0920 C   0  0  0  0  0  1  0  0  0  0  0  0
  -25.4350  -36.3860   23.8860 C   0  0  0  0  0  3  0  0  0  0  0  0
  -27.5480  -37.3050   24.7320 C   0  0  0  0  0  1  0  0  0  0  0  0
  -26.4410  -37.4660   23.7940 N   0  0  0  0  0  0  0  0  0  0  0  0
  -26.0120  -38.3730   23.9620 H   0  0  0  0  0  0  0  0  0  0  0  0
  1  2  2  0
  1  6  1  0
  2  4  1  0
  3  7  1  0
  4  5  2  0
  6  3  1  0
  6  5  1  0
  7  8  1  0
  7  9  1  0
 10 14  1  0
 11 10  2  0
 11 15  1  0
 13 12  1  0
 13  3  1  0
 14 24  1  0
 14 12  2  0
 15 54  1  0
 15 13  2  0
 16 22  1  0
 16 24  1  0
 17 22  1  0
 18 19  1  0
 18 17  1  0
 20 19  1  0
 20 29  1  0
 20 21  1  0
 22 21  1  0
 23 16  2  0
 24 25  1  0
 26 27  2  0
 27 46  1  0
 28 27  1  0
 28 31  1  0
 29 30  1  0
 29 26  1  0
 30 28  2  0
 31 32  1  0
 32 33  2  0
 34 37  1  0
 34 33  1  0
 35 34  2  0
 36 35  1  0
 36 31  2  0
 37 38  1  0
 38 43  2  0
 38 39  1  0
 39 40  2  0
 40 41  1  0
 41 45  1  0
 42 41  2  0
 43 42  1  0
 44 43  1  0
 46 47  1  0
 47 50  1  0
 47 49  1  0
 48 46  2  0
 51 26  1  0
 51 52  1  0
 53 51  1  0
 54 55  1  0
 56 54  1  0
 57 58  1  0
 57  2  1  0
 58 60  1  0
 59 70  2  0
 60 65  1  0
 61 69  1  0
 61 71  1  0
 62 68  1  0
 62 64  1  0
 63 69  1  0
 64 63  1  0
 65 64  2  0
 66 67  1  0
 66 60  2  0
 67 62  2  0
 68 61  1  0
 69 59  1  0
 71 73  2  0
 72 71  1  0
 74 72  1  0
 75 84  2  0
 75 80  1  0
 76 72  1  0
 76 80  1  0
 77 76  1  0
 78 79  1  0
 78 77  1  0
 79 75  1  0
 80 81  2  0
 81 82  1  0
 83 82  2  0
 84 83  1  0
 85 59  1  0
 85 90  1  0
 85 86  1  0
 86 89  1  1
 86 87  1  0
 88 86  1  0
 90 93  1  0
 91 95  1  0
 91 90  1  0
 92 91  2  0
 95 94  1  0
 97 95  1  0
 97 98  1  0
 97 96  1  0
M  ISO  4  16 100  24 100  57 101  58 101
M  END
>  <TORSDO>  (33) 
F 19

>  <SCORE>  (33) 
-12.881

>  <name>  (33) 
32

>  <ligand_id>  (33) 
32

>  <original_smiles>  (33) 
[H]C1=C(C([H])([H])Oc2c([H])c([H])c3c(c2[H])C([H])([H])N(C(=O)C([H])(N([H])C(=O)C([H])(N([H])C([H])([H])[H])C([H])([H])[H])C(C([H])([H])[H])(C([H])([H])[H])C([H])([H])[H])C([H])(C(=O)N([H])C2([H])c4c([H])c([H])c([H])c([H])c4C([H])([H])C([H])([H])C2([H])[H])C3([H])[H])C([H])([H])C([H])([H])N1C(c1c([H])c(N([H])C(=O)N2C([H])([H])C([H])([H])C([H])([H])C([H])(n3nc(-c4c([H])c([H])c(Oc5c([H])c([H])c(F)c([H])c5F)c([H])c4[H])c(C(=O)N([H])[H])c3N([H])[H])C2([H])[H])c([H])c([H])c1N([H])[H])=[N+]([H])[H]

>  <smiles>  (33) 
[H]C1=C(C([H])([H])Oc2c([H])c([H])c3c(c2[H])C([H])([H])N(C(=O)C([H])(N([H])C(=O)C([H])(N([H])C([H])([H])[H])C([H])([H])[H])C(C([H])([H])[H])(C([H])([H])[H])C([H])([H])[H])C([H])(C(=O)N([H])C2([H])c4c([H])c([H])c([H])c([H])c4C([H])([H])C([H])([H])C2([H])[H])C3([H])[H])C([H])([H])C([H])([H])N1C(c1c([H])c(N([H])C(=O)N2C([H])([H])C([H])([H])C([H])([H])C([H])(n3nc(-c4c([H])c([H])c(Oc5c([H])c([H])c(F)c([H])c5F)c([H])c4[H])c(C(=O)N([H])[H])c3N([H])[H])C2([H])[H])c([H])c([H])c1N([H])[H])=[N+]([H])[H]

$$$$
33:0:0
     RDKit          3D

 92101  0  0  1  0  0  0  0  0999 V2000
  -28.9010  -19.0330   19.3260 C   0  0  0  0  0  3  0  0  0  0  0  0
  -28.6010  -20.4600   19.3880 C   0  0  0  0  0  3  0  0  0  0  0  0
  -29.9380  -18.6090   20.1330 C   0  0  0  0  0  0  0  0  0  0  0  0
  -29.3810  -21.1920   20.2630 C   0  0  0  0  0  0  0  0  0  0  0  0
  -30.5000  -20.0420   21.0290 S   0  0  0  0  0  0  0  0  0  0  0  0
  -30.7740  -14.7290   19.6560 C   0  0  0  0  0  0  0  0  0  0  0  0
  -30.3650  -12.5520   18.4950 C   0  0  0  0  0  2  0  0  0  0  0  0
  -29.2820  -12.7200   17.4090 C   0  0  0  0  0  2  0  0  0  0  0  0
  -27.8760  -12.5480   18.0140 C   0  0  0  0  0  2  0  0  0  0  0  0
  -27.6810  -13.3640   19.3200 C   0  0  0  0  0  3  0  0  0  0  0  0
  -28.8660  -13.1820   20.2890 C   0  0  0  0  0  2  0  0  0  0  0  0
  -30.0830  -13.5450   19.5570 N   0  0  0  0  0  0  0  0  0  0  0  0
  -31.8900  -14.8310   19.1360 O   0  0  0  0  0  0  0  0  0  0  0  0
  -30.6850  -17.2330   20.2960 C   0  0  0  0  0  3  0  0  0  0  0  0
  -30.3480  -16.3970   21.4970 C   0  0  2  0  0  0  0  0  0  0  0  0
  -29.0470  -16.5760   22.2630 C   0  0  0  0  0  1  0  0  0  0  0  0
  -31.4520  -15.7840   22.3510 C   0  0  0  0  0  1  0  0  0  0  0  0
  -30.1330  -15.8450   20.1850 N   0  0  0  0  0  0  0  0  0  0  0  0
  -25.4260  -13.9450   20.3950 C   0  0  0  0  0  0  0  0  0  0  0  0
  -24.3910  -13.1660   20.8370 C   0  0  0  0  0  0  0  0  0  0  0  0
  -24.8040  -11.8120   20.6420 C   0  0  0  0  0  0  0  0  0  0  0  0
  -26.4020  -13.0660   19.9580 N   0  0  0  0  0  0  0  0  0  0  0  0
  -26.0430  -11.7730   20.1670 N   0  0  0  0  0  0  0  0  0  0  0  0
  -24.0680  -10.5540   20.8260 C   0  0  0  0  0  0  0  0  0  0  0  0
  -24.5540   -9.5290   21.6690 C   0  0  0  0  0  3  0  0  0  0  0  0
  -23.8180   -8.3380   21.8450 C   0  0  0  0  0  3  0  0  0  0  0  0
  -22.5830   -8.1610   21.1780 C   0  0  0  0  0  0  0  0  0  0  0  0
  -22.1140   -9.1740   20.3230 C   0  0  0  0  0  3  0  0  0  0  0  0
  -22.8500  -10.3570   20.1440 C   0  0  0  0  0  3  0  0  0  0  0  0
  -21.8120   -7.0270   21.2690 O   0  0  0  0  0  0  0  0  0  0  0  0
  -21.7890   -6.2630   22.4080 C   0  0  0  0  0  0  0  0  0  0  0  0
  -21.4230   -6.8020   23.6600 C   0  0  0  0  0  3  0  0  0  0  0  0
  -21.3440   -5.9650   24.7910 C   0  0  0  0  0  3  0  0  0  0  0  0
  -21.6210   -4.5890   24.6720 C   0  0  0  0  0  0  0  0  0  0  0  0
  -21.9800   -4.0490   23.4240 C   0  0  0  0  0  3  0  0  0  0  0  0
  -22.0600   -4.8830   22.2950 C   0  0  0  0  0  0  0  0  0  0  0  0
  -22.3860   -4.3550   21.0910 F   0  0  0  0  0  0  0  0  0  0  0  0
  -21.5380   -3.7840   25.7560 F   0  0  0  0  0  0  0  0  0  0  0  0
  -23.0550  -13.6480   21.3230 C   0  0  0  0  0  0  0  0  0  0  0  0
  -22.4300  -12.9090   22.2340 N   0  0  0  0  0  0  0  0  0  0  0  0
  -22.5780  -14.7120   20.9300 O   0  0  0  0  0  0  0  0  0  0  0  0
  -22.8310  -12.0470   22.5710 H   0  0  0  0  0  0  0  0  0  0  0  0
  -21.5390  -13.2110   22.6000 H   0  0  0  0  0  0  0  0  0  0  0  0
  -25.6110  -15.3210   20.3060 N   0  0  0  0  0  0  0  0  0  0  0  0
  -24.8950  -15.9860   20.5780 H   0  0  0  0  0  0  0  0  0  0  0  0
  -26.4470  -15.7640   19.9450 H   0  0  0  0  0  0  0  0  0  0  0  0
  -29.4150  -22.5880   20.6380 N   0  0  0  0  0  0  0  0  0  0  0  0
  -30.0280  -22.8310   21.4120 H   0  0  0  0  0  0  0  0  0  0  0  0
  -28.8050  -23.7840   19.9440 C   0  0  0  0  0  2  0  0  0  0  0  0
  -27.9160  -25.0850   22.0150 C   0  0  0  0  0  1  0  0  0  0  0  0
  -28.8450  -25.1670   20.7880 C   0  0  0  0  0  3  0  0  0  0  0  0
  -28.8170  -26.5250   20.1560 O   0  0  0  0  0  0  0  0  0  0  0  0
  -24.7780  -31.7050   23.2100 C   0  0  0  0  0  0  0  0  0  0  0  0
  -27.6600  -27.3200   20.1430 C   0  0  0  0  0  0  0  0  0  0  0  0
  -23.6790  -30.2880   21.5120 C   0  0  0  0  0  3  0  0  0  0  0  0
  -25.2310  -28.8290   20.0920 C   0  0  0  0  0  0  0  0  0  0  0  0
  -26.2030  -30.7240   21.3970 C   0  0  0  0  0  2  0  0  0  0  0  0
  -26.3610  -29.3600   20.7280 C   0  0  0  0  0  0  0  0  0  0  0  0
  -27.5810  -28.6200   20.7370 C   0  0  0  0  0  3  0  0  0  0  0  0
  -26.5110  -26.8380   19.4860 C   0  0  0  0  0  3  0  0  0  0  0  0
  -25.3090  -27.5740   19.4610 C   0  0  0  0  0  3  0  0  0  0  0  0
  -23.9560  -29.6490   20.1250 C   0  0  0  0  0  2  0  0  0  0  0  0
  -24.9030  -30.9230   22.0980 N   0  0  0  0  0  0  0  0  0  0  0  0
  -23.6690  -31.9220   23.7230 O   0  0  0  0  0  0  0  0  0  0  0  0
  -23.0380  -29.2250   22.4360 C   0  0  0  0  0  0  0  0  0  0  0  0
  -21.7260  -28.9870   22.2660 N   0  0  0  0  0  0  0  0  0  0  0  0
  -23.7210  -28.6190   23.2650 O   0  0  0  0  0  0  0  0  0  0  0  0
  -21.2320  -29.5310   21.5730 H   0  0  0  0  0  0  0  0  0  0  0  0
  -18.4010  -27.6040   22.6270 C   0  0  0  0  0  0  0  0  0  0  0  0
  -20.9310  -27.9970   22.9950 C   0  0  0  0  0  3  0  0  0  0  0  0
  -21.1320  -26.5800   22.4080 C   0  0  0  0  0  2  0  0  0  0  0  0
  -20.0870  -26.2120   21.3500 C   0  0  0  0  0  2  0  0  0  0  0  0
  -18.6760  -26.2740   21.9420 C   0  0  0  0  0  2  0  0  0  0  0  0
  -19.4610  -28.4180   23.1070 C   0  0  0  0  0  0  0  0  0  0  0  0
  -19.1530  -29.6600   23.7050 C   0  0  0  0  0  3  0  0  0  0  0  0
  -17.8180  -30.0890   23.8270 C   0  0  0  0  0  3  0  0  0  0  0  0
  -16.7730  -29.2700   23.3650 C   0  0  0  0  0  3  0  0  0  0  0  0
  -17.0650  -28.0300   22.7710 C   0  0  0  0  0  3  0  0  0  0  0  0
  -26.0150  -32.3790   23.8780 C   0  0  0  0  0  3  0  0  0  0  0  0
  -26.5150  -31.6210   25.1690 C   0  0  1  0  0  0  0  0  0  0  0  0
  -25.3960  -31.3410   26.2000 C   0  0  0  0  0  1  0  0  0  0  0  0
  -27.1590  -30.2660   24.7940 C   0  0  0  0  0  1  0  0  0  0  0  0
  -27.6150  -32.4520   25.8710 C   0  0  0  0  0  1  0  0  0  0  0  0
  -25.6450  -33.7650   24.2040 N   0  0  0  0  0  0  0  0  0  0  0  0
  -25.9500  -34.8310   23.4530 C   0  0  0  0  0  0  0  0  0  0  0  0
  -26.6420  -34.7560   22.4350 O   0  0  0  0  0  0  0  0  0  0  0  0
  -25.0290  -33.8950   24.9930 H   0  0  0  0  0  0  0  0  0  0  0  0
  -24.1530  -36.5520   23.0800 C   0  0  0  0  0  1  0  0  0  0  0  0
  -25.4010  -36.1980   23.9050 C   0  0  0  0  0  3  0  0  0  0  0  0
  -27.4870  -37.1690   24.7580 C   0  0  0  0  0  1  0  0  0  0  0  0
  -26.3900  -37.2930   23.8020 N   0  0  0  0  0  0  0  0  0  0  0  0
  -25.9440  -38.1950   23.9470 H   0  0  0  0  0  0  0  0  0  0  0  0
  1  2  1  0
  1  3  2  0
  2  4  2  0
  3  5  1  0
  4 47  1  0
  4  5  1  0
  6 18  1  0
  7 12  1  0
  8  9  1  0
  8  7  1  0
 10  9  1  0
 10 22  1  0
 10 11  1  0
 12  6  1  0
 12 11  1  0
 13  6  2  0
 14  3  1  0
 14 15  1  0
 15 16  1  1
 15 17  1  0
 18 14  1  0
 18 15  1  0
 19 20  2  0
 20 39  1  0
 21 24  1  0
 21 20  1  0
 22 23  1  0
 22 19  1  0
 23 21  2  0
 24 25  1  0
 25 26  2  0
 27 30  1  0
 27 26  1  0
 28 27  2  0
 29 28  1  0
 29 24  2  0
 30 31  1  0
 31 32  1  0
 32 33  2  0
 34 33  1  0
 34 38  1  0
 35 34  2  0
 36 31  2  0
 36 35  1  0
 37 36  1  0
 39 40  1  0
 40 42  1  0
 40 43  1  0
 41 39  2  0
 44 19  1  0
 44 45  1  0
 46 44  1  0
 47 48  1  0
 49 47  1  0
 49 51  1  0
 51 50  1  0
 52 51  1  0
 53 64  2  0
 54 52  1  0
 54 59  1  0
 55 63  1  0
 55 65  1  0
 56 62  1  0
 56 58  1  0
 57 63  1  0
 58 59  2  0
 58 57  1  0
 60 54  2  0
 61 60  1  0
 61 56  2  0
 62 55  1  0
 63 53  1  0
 65 67  2  0
 66 65  1  0
 68 66  1  0
 69 78  2  0
 69 74  1  0
 70 66  1  0
 70 74  1  0
 71 70  1  0
 72 73  1  0
 72 71  1  0
 73 69  1  0
 74 75  2  0
 75 76  1  0
 77 76  2  0
 78 77  1  0
 79 53  1  0
 79 84  1  0
 79 80  1  0
 80 83  1  1
 80 81  1  0
 82 80  1  0
 84 87  1  0
 85 89  1  0
 85 84  1  0
 86 85  2  0
 89 88  1  0
 91 89  1  0
 91 92  1  0
 91 90  1  0
M  ISO  4   6 100  18 100  51 101  52 101
M  END
>  <TORSDO>  (34) 
F 19

>  <SCORE>  (34) 
-10.676

>  <name>  (34) 
33

>  <ligand_id>  (34) 
33

>  <original_smiles>  (34) 
[H]c1c(N([H])C([H])([H])C([H])(Oc2c([H])c([H])c3c(c2[H])C([H])([H])N(C(=O)C([H])(N([H])C(=O)C([H])(N([H])C([H])([H])[H])C([H])([H])[H])C(C([H])([H])[H])(C([H])([H])[H])C([H])([H])[H])C([H])(C(=O)N([H])C2([H])c4c([H])c([H])c([H])c([H])c4C([H])([H])C([H])([H])C2([H])[H])C3([H])[H])C([H])([H])[H])sc(C2([H])N(C(=O)N3C([H])([H])C([H])([H])C([H])([H])C([H])(n4nc(-c5c([H])c([H])c(Oc6c([H])c([H])c(F)c([H])c6F)c([H])c5[H])c(C(=O)N([H])[H])c4N([H])[H])C3([H])[H])C2(C([H])([H])[H])C([H])([H])[H])c1[H]

>  <smiles>  (34) 
[H]c1c(N([H])C([H])([H])C([H])(Oc2c([H])c([H])c3c(c2[H])C([H])([H])N(C(=O)C([H])(N([H])C(=O)C([H])(N([H])C([H])([H])[H])C([H])([H])[H])C(C([H])([H])[H])(C([H])([H])[H])C([H])([H])[H])C([H])(C(=O)N([H])C2([H])c4c([H])c([H])c([H])c([H])c4C([H])([H])C([H])([H])C2([H])[H])C3([H])[H])C([H])([H])[H])sc(C2([H])N(C(=O)N3C([H])([H])C([H])([H])C([H])([H])C([H])(n4nc(-c5c([H])c([H])c(Oc6c([H])c([H])c(F)c([H])c6F)c([H])c5[H])c(C(=O)N([H])[H])c4N([H])[H])C3([H])[H])C2(C([H])([H])[H])C([H])([H])[H])c1[H]

$$$$
34:0:0
     RDKit          3D

 94103  0  0  1  0  0  0  0  0999 V2000
  -30.7970  -19.8390   20.1610 C   0  0  0  0  0  3  0  0  0  0  0  0
  -30.9070  -18.3930   20.2860 C   0  0  0  0  0  3  0  0  0  0  0  0
  -28.5520  -18.2740   20.2590 C   0  0  0  0  0  3  0  0  0  0  0  0
  -29.5740  -20.6010   20.0280 C   0  0  0  0  0  0  0  0  0  0  0  0
  -29.7740  -17.5220   20.3330 C   0  0  0  0  0  0  0  0  0  0  0  0
  -28.4460  -19.7130   20.0980 C   0  0  0  0  0  0  0  0  0  0  0  0
  -30.5770  -14.9040   20.2300 C   0  0  0  0  0  0  0  0  0  0  0  0
  -30.4390  -12.5910   19.2290 C   0  0  0  0  0  2  0  0  0  0  0  0
  -29.4860  -12.6380   18.0120 C   0  0  0  0  0  2  0  0  0  0  0  0
  -28.0190  -12.4440   18.4490 C   0  0  0  0  0  2  0  0  0  0  0  0
  -27.6430  -13.3170   19.6780 C   0  0  0  0  0  3  0  0  0  0  0  0
  -28.7170  -13.2360   20.7880 C   0  0  0  0  0  2  0  0  0  0  0  0
  -29.9980  -13.6420   20.1820 N   0  0  0  0  0  0  0  0  0  0  0  0
  -31.7590  -15.0260   19.8950 O   0  0  0  0  0  0  0  0  0  0  0  0
  -29.7410  -16.0050   20.4770 N   0  0  0  0  0  0  0  0  0  0  0  0
  -28.8200  -15.6690   20.7210 H   0  0  0  0  0  0  0  0  0  0  0  0
  -25.2560  -13.8950   20.4220 C   0  0  0  0  0  0  0  0  0  0  0  0
  -24.1960  -13.1170   20.8050 C   0  0  0  0  0  0  0  0  0  0  0  0
  -24.6660  -11.7680   20.7720 C   0  0  0  0  0  0  0  0  0  0  0  0
  -26.3030  -13.0210   20.1780 N   0  0  0  0  0  0  0  0  0  0  0  0
  -25.9550  -11.7350   20.4530 N   0  0  0  0  0  0  0  0  0  0  0  0
  -23.9440  -10.5050   20.9740 C   0  0  0  0  0  0  0  0  0  0  0  0
  -24.3740   -9.5490   21.9210 C   0  0  0  0  0  3  0  0  0  0  0  0
  -23.6540   -8.3490   22.1060 C   0  0  0  0  0  3  0  0  0  0  0  0
  -22.4890   -8.0980   21.3440 C   0  0  0  0  0  0  0  0  0  0  0  0
  -22.0760   -9.0420   20.3880 C   0  0  0  0  0  3  0  0  0  0  0  0
  -22.7980  -10.2330   20.2010 C   0  0  0  0  0  3  0  0  0  0  0  0
  -21.7390   -6.9500   21.4400 O   0  0  0  0  0  0  0  0  0  0  0  0
  -21.6750   -6.2250   22.6040 C   0  0  0  0  0  0  0  0  0  0  0  0
  -21.2150   -6.7920   23.8120 C   0  0  0  0  0  3  0  0  0  0  0  0
  -21.0990   -5.9910   24.9660 C   0  0  0  0  0  3  0  0  0  0  0  0
  -21.4360   -4.6250   24.9150 C   0  0  0  0  0  0  0  0  0  0  0  0
  -21.8900   -4.0570   23.7120 C   0  0  0  0  0  3  0  0  0  0  0  0
  -22.0050   -4.8540   22.5590 C   0  0  0  0  0  0  0  0  0  0  0  0
  -22.4230   -4.2960   21.3970 F   0  0  0  0  0  0  0  0  0  0  0  0
  -21.3200   -3.8560   26.0220 F   0  0  0  0  0  0  0  0  0  0  0  0
  -22.7980  -13.5910   21.0800 C   0  0  0  0  0  0  0  0  0  0  0  0
  -22.0720  -12.8960   21.9490 N   0  0  0  0  0  0  0  0  0  0  0  0
  -22.3540  -14.6140   20.5570 O   0  0  0  0  0  0  0  0  0  0  0  0
  -22.4430  -12.0750   22.4010 H   0  0  0  0  0  0  0  0  0  0  0  0
  -21.1310  -13.1930   22.1660 H   0  0  0  0  0  0  0  0  0  0  0  0
  -25.4080  -15.2660   20.2340 N   0  0  0  0  0  0  0  0  0  0  0  0
  -24.6200  -15.9010   20.3230 H   0  0  0  0  0  0  0  0  0  0  0  0
  -26.2130  -15.6930   19.7910 H   0  0  0  0  0  0  0  0  0  0  0  0
  -29.5280  -22.3430   18.0540 C   0  0  0  0  0  2  0  0  0  0  0  0
  -30.7840  -22.6460   18.8060 C   0  0  0  0  0  2  0  0  0  0  0  0
  -29.5390  -22.1910   19.5740 C   0  0  2  0  0  0  0  0  0  0  0  0
  -28.8780  -23.4910   20.3350 C   0  0  0  0  0  0  0  0  0  0  0  0
  -28.6910  -23.4250   21.5540 O   0  0  0  0  0  0  0  0  0  0  0  0
  -28.4510  -24.8960   19.5720 C   0  0  0  0  0  2  0  0  0  0  0  0
  -28.3600  -26.2750   20.2690 O   0  0  0  0  0  0  0  0  0  0  0  0
  -24.6010  -31.8560   23.2010 C   0  0  0  0  0  0  0  0  0  0  0  0
  -27.2630  -27.2020   20.1620 C   0  0  0  0  0  0  0  0  0  0  0  0
  -23.4230  -30.4540   21.5470 C   0  0  0  0  0  3  0  0  0  0  0  0
  -24.8980  -28.8940   20.1340 C   0  0  0  0  0  0  0  0  0  0  0  0
  -25.9750  -30.7450   21.4110 C   0  0  0  0  0  2  0  0  0  0  0  0
  -26.0630  -29.3600   20.7500 C   0  0  0  0  0  0  0  0  0  0  0  0
  -27.2400  -28.5260   20.7550 C   0  0  0  0  0  3  0  0  0  0  0  0
  -26.0600  -26.8260   19.5150 C   0  0  0  0  0  3  0  0  0  0  0  0
  -24.9020  -27.6360   19.5110 C   0  0  0  0  0  3  0  0  0  0  0  0
  -23.6600  -29.7760   20.1710 C   0  0  0  0  0  2  0  0  0  0  0  0
  -24.6840  -31.0410   22.1060 N   0  0  0  0  0  0  0  0  0  0  0  0
  -23.5090  -32.1330   23.7200 O   0  0  0  0  0  0  0  0  0  0  0  0
  -22.7460  -29.4410   22.5030 C   0  0  0  0  0  0  0  0  0  0  0  0
  -21.4160  -29.2800   22.3820 N   0  0  0  0  0  0  0  0  0  0  0  0
  -23.4180  -28.8040   23.3170 O   0  0  0  0  0  0  0  0  0  0  0  0
  -20.9320  -29.8470   21.7000 H   0  0  0  0  0  0  0  0  0  0  0  0
  -18.0270  -28.1140   22.9080 C   0  0  0  0  0  0  0  0  0  0  0  0
  -20.5920  -28.3400   23.1470 C   0  0  0  0  0  3  0  0  0  0  0  0
  -20.6670  -26.9150   22.5470 C   0  0  0  0  0  2  0  0  0  0  0  0
  -19.5480  -26.6230   21.5430 C   0  0  0  0  0  2  0  0  0  0  0  0
  -18.1770  -26.7750   22.2070 C   0  0  0  0  0  2  0  0  0  0  0  0
  -19.1600  -28.8550   23.3350 C   0  0  0  0  0  0  0  0  0  0  0  0
  -18.9640  -30.1100   23.9520 C   0  0  0  0  0  3  0  0  0  0  0  0
  -17.6680  -30.6220   24.1490 C   0  0  0  0  0  3  0  0  0  0  0  0
  -16.5490  -29.8760   23.7380 C   0  0  0  0  0  3  0  0  0  0  0  0
  -16.7290  -28.6250   23.1230 C   0  0  0  0  0  3  0  0  0  0  0  0
  -25.8700  -32.4990   23.8420 C   0  0  0  0  0  3  0  0  0  0  0  0
  -26.3690  -31.7400   25.1330 C   0  0  1  0  0  0  0  0  0  0  0  0
  -25.2580  -31.5110   26.1880 C   0  0  0  0  0  1  0  0  0  0  0  0
  -26.9610  -30.3590   24.7720 C   0  0  0  0  0  1  0  0  0  0  0  0
  -27.5060  -32.5450   25.8080 C   0  0  0  0  0  1  0  0  0  0  0  0
  -25.5480  -33.8970   24.1660 N   0  0  0  0  0  0  0  0  0  0  0  0
  -25.8850  -34.9540   23.4150 C   0  0  0  0  0  0  0  0  0  0  0  0
  -26.5670  -34.8530   22.3920 O   0  0  0  0  0  0  0  0  0  0  0  0
  -24.9400  -34.0450   24.9580 H   0  0  0  0  0  0  0  0  0  0  0  0
  -24.1610  -36.7500   23.0440 C   0  0  0  0  0  1  0  0  0  0  0  0
  -25.3900  -36.3420   23.8710 C   0  0  0  0  0  3  0  0  0  0  0  0
  -27.5090  -37.2270   24.7420 C   0  0  0  0  0  1  0  0  0  0  0  0
  -26.4230  -37.3960   23.7790 N   0  0  0  0  0  0  0  0  0  0  0  0
  -26.0130  -38.3160   23.9200 H   0  0  0  0  0  0  0  0  0  0  0  0
  -27.1640  -20.2420   19.9440 N   0  0  0  0  0  0  0  0  0  0  0  0
  -26.4120  -19.6020   19.7000 H   0  0  0  0  0  0  0  0  0  0  0  0
  -27.0610  -21.1380   19.4840 H   0  0  0  0  0  0  0  0  0  0  0  0
  1  2  1  0
  2  5  2  0
  3  5  1  0
  4  6  1  0
  4  1  2  0
  5 15  1  0
  6  3  2  0
  7 15  1  0
  8 13  1  0
  9 10  1  0
  9  8  1  0
 11 10  1  0
 11 20  1  0
 11 12  1  0
 13  7  1  0
 13 12  1  0
 14  7  2  0
 15 16  1  0
 17 18  2  0
 18 37  1  0
 19 18  1  0
 19 22  1  0
 20 17  1  0
 20 21  1  0
 21 19  2  0
 22 23  1  0
 23 24  2  0
 25 28  1  0
 25 24  1  0
 26 25  2  0
 27 26  1  0
 27 22  2  0
 28 29  1  0
 29 30  1  0
 30 31  2  0
 32 31  1  0
 32 36  1  0
 33 32  2  0
 34 29  2  0
 34 33  1  0
 35 34  1  0
 37 38  1  0
 38 41  1  0
 38 40  1  0
 39 37  2  0
 42 43  1  0
 42 17  1  0
 44 42  1  0
 45 46  1  0
 45 47  1  0
 46 47  1  0
 47  4  1  0
 47 48  1  1
 48 49  2  0
 50 51  1  0
 50 48  1  0
 52 63  2  0
 53 51  1  0
 53 58  1  0
 54 62  1  0
 54 64  1  0
 55 61  1  0
 55 57  1  0
 56 62  1  0
 57 58  2  0
 57 56  1  0
 59 53  2  0
 60 59  1  0
 60 55  2  0
 61 54  1  0
 62 52  1  0
 64 66  2  0
 65 64  1  0
 67 65  1  0
 68 77  2  0
 68 73  1  0
 69 65  1  0
 69 73  1  0
 70 69  1  0
 71 72  1  0
 71 70  1  0
 72 68  1  0
 73 74  2  0
 74 75  1  0
 76 75  2  0
 77 76  1  0
 78 52  1  0
 78 83  1  0
 78 79  1  0
 79 82  1  1
 79 80  1  0
 81 79  1  0
 83 86  1  0
 84 88  1  0
 84 83  1  0
 85 84  2  0
 88 87  1  0
 90 88  1  0
 90 91  1  0
 90 89  1  0
 92  6  1  0
 93 92  1  0
 94 92  1  0
M  ISO  4   7 100  15 100  50 101  51 101
M  END
>  <TORSDO>  (35) 
F 20

>  <SCORE>  (35) 
-14.196

>  <name>  (35) 
34

>  <ligand_id>  (35) 
34

>  <original_smiles>  (35) 
[H]c1c([H])c([H])c2c(c1[H])C([H])([H])C([H])([H])C([H])([H])C2([H])N([H])C(=O)C1([H])N(C(=O)C([H])(N([H])C(=O)C([H])(N([H])C([H])([H])[H])C([H])([H])[H])C(C([H])([H])[H])(C([H])([H])[H])C([H])([H])[H])C([H])([H])c2c([H])c(OC([H])([H])C(=O)C3(c4c([H])c([H])c(N([H])C(=O)N5C([H])([H])C([H])([H])C([H])([H])C([H])(n6nc(-c7c([H])c([H])c(Oc8c([H])c([H])c(F)c([H])c8F)c([H])c7[H])c(C(=O)N([H])[H])c6N([H])[H])C5([H])[H])c([H])c4N([H])[H])C([H])([H])C3([H])[H])c([H])c([H])c2C1([H])[H]

>  <smiles>  (35) 
[H]c1c([H])c([H])c2c(c1[H])C([H])([H])C([H])([H])C([H])([H])C2([H])N([H])C(=O)C1([H])N(C(=O)C([H])(N([H])C(=O)C([H])(N([H])C([H])([H])[H])C([H])([H])[H])C(C([H])([H])[H])(C([H])([H])[H])C([H])([H])[H])C([H])([H])c2c([H])c(OC([H])([H])C(=O)C3(c4c([H])c([H])c(N([H])C(=O)N5C([H])([H])C([H])([H])C([H])([H])C([H])(n6nc(-c7c([H])c([H])c(Oc8c([H])c([H])c(F)c([H])c8F)c([H])c7[H])c(C(=O)N([H])[H])c6N([H])[H])C5([H])[H])c([H])c4N([H])[H])C([H])([H])C3([H])[H])c([H])c([H])c2C1([H])[H]

$$$$
35:0:0
     RDKit          3D

 97105  0  0  1  0  0  0  0  0999 V2000
  -29.0300  -22.7860   20.1290 C   0  0  0  0  0  0  0  0  0  0  0  0
  -29.9950  -22.0220   19.5440 N   0  0  0  0  0  0  0  0  0  0  0  0
  -28.0770  -22.2760   20.7210 O   0  0  0  0  0  0  0  0  0  0  0  0
  -30.6350  -22.5650   18.9850 H   0  0  0  0  0  0  0  0  0  0  0  0
  -30.5750  -17.8370   18.7060 C   0  0  0  0  0  3  0  0  0  0  0  0
  -29.9270  -19.5620   20.3160 C   0  0  0  0  0  3  0  0  0  0  0  0
  -30.5280  -20.1890   18.0410 C   0  0  0  0  0  3  0  0  0  0  0  0
  -30.1840  -18.1760   20.0180 C   0  0  0  0  0  0  0  0  0  0  0  0
  -30.7600  -18.8330   17.7300 C   0  0  0  0  0  0  0  0  0  0  0  0
  -30.0950  -20.5880   19.3280 C   0  0  0  0  0  0  0  0  0  0  0  0
  -31.2130  -18.4710   16.4610 N   0  0  0  0  0  0  0  0  0  0  0  0
  -31.6420  -17.5570   16.3510 H   0  0  0  0  0  0  0  0  0  0  0  0
  -31.6670  -19.1780   15.8920 H   0  0  0  0  0  0  0  0  0  0  0  0
  -30.1720  -17.0700   21.1120 C   0  0  0  0  0  2  0  0  0  0  0  0
  -30.6180  -14.6000   20.4470 C   0  0  0  0  0  0  0  0  0  0  0  0
  -30.3860  -12.3870   19.3520 C   0  0  0  0  0  2  0  0  0  0  0  0
  -29.4370  -12.5260   18.1420 C   0  0  0  0  0  2  0  0  0  0  0  0
  -27.9640  -12.3730   18.5740 C   0  0  0  0  0  2  0  0  0  0  0  0
  -27.6120  -13.2370   19.8140 C   0  0  0  0  0  3  0  0  0  0  0  0
  -28.6700  -13.0660   20.9260 C   0  0  0  0  0  2  0  0  0  0  0  0
  -29.9800  -13.3950   20.3440 N   0  0  0  0  0  0  0  0  0  0  0  0
  -31.7950  -14.7500   20.1080 O   0  0  0  0  0  0  0  0  0  0  0  0
  -29.8250  -15.6580   20.7650 N   0  0  0  0  0  0  0  0  0  0  0  0
  -28.8610  -15.4160   20.9270 H   0  0  0  0  0  0  0  0  0  0  0  0
  -25.2170  -13.8500   20.5210 C   0  0  0  0  0  0  0  0  0  0  0  0
  -24.1450  -13.0810   20.8910 C   0  0  0  0  0  0  0  0  0  0  0  0
  -24.6040  -11.7300   20.8690 C   0  0  0  0  0  0  0  0  0  0  0  0
  -26.2600  -12.9650   20.2970 N   0  0  0  0  0  0  0  0  0  0  0  0
  -25.8960  -11.6850   20.5670 N   0  0  0  0  0  0  0  0  0  0  0  0
  -23.8760  -10.4690   21.0620 C   0  0  0  0  0  0  0  0  0  0  0  0
  -24.3160   -9.4960   21.9850 C   0  0  0  0  0  3  0  0  0  0  0  0
  -23.5880   -8.3000   22.1670 C   0  0  0  0  0  3  0  0  0  0  0  0
  -22.4050   -8.0710   21.4240 C   0  0  0  0  0  0  0  0  0  0  0  0
  -21.9850   -9.0330   20.4890 C   0  0  0  0  0  3  0  0  0  0  0  0
  -22.7130  -10.2200   20.3070 C   0  0  0  0  0  3  0  0  0  0  0  0
  -21.6470   -6.9280   21.5160 O   0  0  0  0  0  0  0  0  0  0  0  0
  -21.6210   -6.1710   22.6590 C   0  0  0  0  0  0  0  0  0  0  0  0
  -21.2390   -6.7150   23.9050 C   0  0  0  0  0  3  0  0  0  0  0  0
  -21.1610   -5.8840   25.0400 C   0  0  0  0  0  3  0  0  0  0  0  0
  -21.4540   -4.5110   24.9330 C   0  0  0  0  0  0  0  0  0  0  0  0
  -21.8290   -3.9670   23.6920 C   0  0  0  0  0  3  0  0  0  0  0  0
  -21.9100   -4.7950   22.5570 C   0  0  0  0  0  0  0  0  0  0  0  0
  -22.2510   -4.2610   21.3610 F   0  0  0  0  0  0  0  0  0  0  0  0
  -21.3700   -3.7120   26.0210 F   0  0  0  0  0  0  0  0  0  0  0  0
  -22.7480  -13.5630   21.1540 C   0  0  0  0  0  0  0  0  0  0  0  0
  -22.0160  -12.8720   22.0200 N   0  0  0  0  0  0  0  0  0  0  0  0
  -22.3150  -14.5860   20.6260 O   0  0  0  0  0  0  0  0  0  0  0  0
  -22.3790  -12.0440   22.4670 H   0  0  0  0  0  0  0  0  0  0  0  0
  -21.0780  -13.1750   22.2410 H   0  0  0  0  0  0  0  0  0  0  0  0
  -25.3850  -15.2190   20.3340 N   0  0  0  0  0  0  0  0  0  0  0  0
  -24.6190  -15.8760   20.4340 H   0  0  0  0  0  0  0  0  0  0  0  0
  -26.2300  -15.6500   19.9800 H   0  0  0  0  0  0  0  0  0  0  0  0
  -28.2450  -25.1630   20.2450 C   0  0  0  0  0  3  0  0  0  0  0  0
  -29.2340  -24.2590   19.9730 C   0  0  0  0  0  0  0  0  0  0  0  0
  -30.4320  -24.7160   19.5740 O   0  0  0  0  0  0  0  0  0  0  0  0
  -31.0710  -24.0370   19.7510 H   0  0  0  0  0  0  0  0  0  0  0  0
  -28.3590  -26.5580   20.1300 O   0  0  0  0  0  0  0  0  0  0  0  0
  -24.6130  -31.8780   23.2350 C   0  0  0  0  0  0  0  0  0  0  0  0
  -27.2100  -27.3530   20.1490 C   0  0  0  0  0  0  0  0  0  0  0  0
  -23.3930  -30.4770   21.6060 C   0  0  0  0  0  3  0  0  0  0  0  0
  -24.8290  -28.9230   20.1760 C   0  0  0  0  0  0  0  0  0  0  0  0
  -25.9260  -30.8040   21.3980 C   0  0  0  0  0  2  0  0  0  0  0  0
  -25.9990  -29.4240   20.7610 C   0  0  0  0  0  0  0  0  0  0  0  0
  -27.1900  -28.6460   20.7480 C   0  0  0  0  0  3  0  0  0  0  0  0
  -26.0200  -26.8960   19.5390 C   0  0  0  0  0  3  0  0  0  0  0  0
  -24.8380  -27.6610   19.5610 C   0  0  0  0  0  3  0  0  0  0  0  0
  -23.5910  -29.7930   20.2280 C   0  0  0  0  0  2  0  0  0  0  0  0
  -24.6630  -31.0710   22.1360 N   0  0  0  0  0  0  0  0  0  0  0  0
  -23.5350  -32.1580   23.7800 O   0  0  0  0  0  0  0  0  0  0  0  0
  -22.7380  -29.4640   22.5730 C   0  0  0  0  0  0  0  0  0  0  0  0
  -21.4120  -29.2880   22.4550 N   0  0  0  0  0  0  0  0  0  0  0  0
  -23.4230  -28.8380   23.3870 O   0  0  0  0  0  0  0  0  0  0  0  0
  -20.9190  -29.8450   21.7710 H   0  0  0  0  0  0  0  0  0  0  0  0
  -18.0400  -28.0940   22.9710 C   0  0  0  0  0  0  0  0  0  0  0  0
  -20.5970  -28.3540   23.2340 C   0  0  0  0  0  3  0  0  0  0  0  0
  -20.6970  -26.9190   22.6660 C   0  0  0  0  0  2  0  0  0  0  0  0
  -19.5930  -26.5910   21.6580 C   0  0  0  0  0  2  0  0  0  0  0  0
  -18.2130  -26.7400   22.3030 C   0  0  0  0  0  2  0  0  0  0  0  0
  -19.1580  -28.8590   23.3930 C   0  0  0  0  0  0  0  0  0  0  0  0
  -18.9410  -30.1260   23.9770 C   0  0  0  0  0  3  0  0  0  0  0  0
  -17.6370  -30.6270   24.1460 C   0  0  0  0  0  3  0  0  0  0  0  0
  -16.5320  -29.8600   23.7390 C   0  0  0  0  0  3  0  0  0  0  0  0
  -16.7340  -28.5960   23.1580 C   0  0  0  0  0  3  0  0  0  0  0  0
  -25.9040  -32.5080   23.8440 C   0  0  0  0  0  3  0  0  0  0  0  0
  -25.5990  -33.9050   24.1820 N   0  0  0  0  0  0  0  0  0  0  0  0
  -25.9200  -34.9610   23.4220 C   0  0  0  0  0  0  0  0  0  0  0  0
  -26.5740  -34.8610   22.3800 O   0  0  0  0  0  0  0  0  0  0  0  0
  -25.0190  -34.0590   24.9940 H   0  0  0  0  0  0  0  0  0  0  0  0
  -24.1800  -36.7500   23.1040 C   0  0  0  0  0  1  0  0  0  0  0  0
  -25.4380  -36.3480   23.8920 C   0  0  0  0  0  3  0  0  0  0  0  0
  -27.5870  -37.2320   24.6820 C   0  0  0  0  0  1  0  0  0  0  0  0
  -26.4650  -37.4040   23.7640 N   0  0  0  0  0  0  0  0  0  0  0  0
  -26.0590  -38.3200   23.9290 H   0  0  0  0  0  0  0  0  0  0  0  0
  -26.4360  -31.7320   25.1110 C   0  0  1  0  0  0  0  0  0  0  0  0
  -25.3560  -31.4910   26.1920 C   0  0  0  0  0  1  0  0  0  0  0  0
  -27.0120  -30.3550   24.7070 C   0  0  0  0  0  1  0  0  0  0  0  0
  -27.5980  -32.5200   25.7600 C   0  0  0  0  0  1  0  0  0  0  0  0
  1  3  2  0
  2  1  1  0
  4  2  1  0
  5  8  1  0
  7 10  2  0
  8  6  2  0
  8 14  1  0
  9  7  1  0
  9  5  2  0
 10  2  1  0
 10  6  1  0
 11  9  1  0
 12 11  1  0
 13 11  1  0
 15 23  1  0
 16 21  1  0
 17 18  1  0
 17 16  1  0
 19 18  1  0
 19 28  1  0
 19 20  1  0
 21 15  1  0
 21 20  1  0
 22 15  2  0
 23 24  1  0
 23 14  1  0
 25 26  2  0
 26 45  1  0
 27 26  1  0
 27 30  1  0
 28 25  1  0
 28 29  1  0
 29 27  2  0
 30 31  1  0
 31 32  2  0
 33 36  1  0
 33 32  1  0
 34 33  2  0
 35 34  1  0
 35 30  2  0
 36 37  1  0
 37 38  1  0
 38 39  2  0
 40 39  1  0
 40 44  1  0
 41 40  2  0
 42 37  2  0
 42 41  1  0
 43 42  1  0
 45 46  1  0
 46 49  1  0
 46 48  1  0
 47 45  2  0
 50 51  1  0
 50 25  1  0
 52 50  1  0
 54  1  1  0
 54 53  2  0
 55 56  1  0
 55 54  1  0
 57 59  1  0
 57 53  1  0
 58 69  2  0
 59 64  1  0
 60 68  1  0
 60 70  1  0
 61 67  1  0
 61 63  1  0
 62 68  1  0
 63 62  1  0
 64 63  2  0
 65 66  1  0
 65 59  2  0
 66 61  2  0
 67 60  1  0
 68 58  1  0
 70 72  2  0
 71 70  1  0
 73 71  1  0
 74 83  2  0
 74 79  1  0
 75 71  1  0
 75 79  1  0
 76 75  1  0
 77 78  1  0
 77 76  1  0
 78 74  1  0
 79 80  2  0
 80 81  1  0
 82 81  2  0
 83 82  1  0
 84 58  1  0
 84 85  1  0
 84 94  1  0
 85 88  1  0
 86 90  1  0
 86 85  1  0
 87 86  2  0
 90 89  1  0
 92 90  1  0
 92 93  1  0
 92 91  1  0
 94 97  1  1
 94 95  1  0
 96 94  1  0
M  ISO  4  15 100  23 100  53 101  57 101
M  END
>  <TORSDO>  (36) 
F 21

>  <SCORE>  (36) 
-13.966

>  <name>  (36) 
35

>  <ligand_id>  (36) 
35

>  <original_smiles>  (36) 
[H]OC(C(=O)N([H])c1c([H])c(N([H])[H])c([H])c(C([H])([H])N([H])C(=O)N2C([H])([H])C([H])([H])C([H])([H])C([H])(n3nc(-c4c([H])c([H])c(Oc5c([H])c([H])c(F)c([H])c5F)c([H])c4[H])c(C(=O)N([H])[H])c3N([H])[H])C2([H])[H])c1[H])=C([H])Oc1c([H])c([H])c2c(c1[H])C([H])([H])N(C(=O)C([H])(N([H])C(=O)C([H])(N([H])C([H])([H])[H])C([H])([H])[H])C(C([H])([H])[H])(C([H])([H])[H])C([H])([H])[H])C([H])(C(=O)N([H])C1([H])c3c([H])c([H])c([H])c([H])c3C([H])([H])C([H])([H])C1([H])[H])C2([H])[H]

>  <smiles>  (36) 
[H]OC(C(=O)N([H])c1c([H])c(N([H])[H])c([H])c(C([H])([H])N([H])C(=O)N2C([H])([H])C([H])([H])C([H])([H])C([H])(n3nc(-c4c([H])c([H])c(Oc5c([H])c([H])c(F)c([H])c5F)c([H])c4[H])c(C(=O)N([H])[H])c3N([H])[H])C2([H])[H])c1[H])=C([H])Oc1c([H])c([H])c2c(c1[H])C([H])([H])N(C(=O)C([H])(N([H])C(=O)C([H])(N([H])C([H])([H])[H])C([H])([H])[H])C(C([H])([H])[H])(C([H])([H])[H])C([H])([H])[H])C([H])(C(=O)N([H])C1([H])c3c([H])c([H])c([H])c([H])c3C([H])([H])C([H])([H])C1([H])[H])C2([H])[H]

$$$$
36:0:0
     RDKit          3D

 99107  0  0  1  0  0  0  0  0999 V2000
  -29.3080  -20.7050   20.8220 C   0  0  0  0  0  0  0  0  0  0  0  0
  -29.5670  -21.9830   20.4460 N   0  0  0  0  0  0  0  0  0  0  0  0
  -28.2070  -20.4730   21.5380 N   0  0  0  0  0  4  0  0  0  0  0  0
  -30.2760  -22.1150   19.7350 H   0  0  0  0  0  0  0  0  0  0  0  0
  -28.0400  -19.5550   21.9180 H   0  0  0  0  0  0  0  0  0  0  0  0
  -27.5440  -21.2050   21.7230 H   0  0  0  0  0  0  0  0  0  0  0  0
  -29.8130  -18.2270   20.4620 C   0  0  0  0  0  3  0  0  0  0  0  0
  -31.6310  -19.8540   20.5690 C   0  0  0  0  0  3  0  0  0  0  0  0
  -32.1290  -17.4740   20.3710 C   0  0  0  0  0  3  0  0  0  0  0  0
  -30.2460  -19.5830   20.5750 C   0  0  0  0  0  0  0  0  0  0  0  0
  -30.7470  -17.1540   20.3590 C   0  0  0  0  0  0  0  0  0  0  0  0
  -32.5640  -18.8090   20.4650 C   0  0  0  0  0  0  0  0  0  0  0  0
  -33.8890  -19.0880   20.4800 F   0  0  0  0  0  0  0  0  0  0  0  0
  -30.9470  -14.7090   19.8060 C   0  0  0  0  0  0  0  0  0  0  0  0
  -30.5970  -12.4600   18.8440 C   0  0  0  0  0  2  0  0  0  0  0  0
  -29.5770  -12.5500   17.6910 C   0  0  0  0  0  2  0  0  0  0  0  0
  -28.1410  -12.4150   18.2290 C   0  0  0  0  0  2  0  0  0  0  0  0
  -27.8650  -13.3420   19.4430 C   0  0  0  0  0  3  0  0  0  0  0  0
  -28.9980  -13.2480   20.4920 C   0  0  0  0  0  2  0  0  0  0  0  0
  -30.2700  -13.5260   19.8080 N   0  0  0  0  0  0  0  0  0  0  0  0
  -32.0350  -14.8300   19.2410 O   0  0  0  0  0  0  0  0  0  0  0  0
  -30.2900  -15.7850   20.3040 N   0  0  0  0  0  0  0  0  0  0  0  0
  -29.3470  -15.6070   20.6140 H   0  0  0  0  0  0  0  0  0  0  0  0
  -25.5590  -13.9720   20.3930 C   0  0  0  0  0  0  0  0  0  0  0  0
  -24.5080  -13.2090   20.8250 C   0  0  0  0  0  0  0  0  0  0  0  0
  -24.9260  -11.8490   20.6950 C   0  0  0  0  0  0  0  0  0  0  0  0
  -26.5540  -13.0780   20.0320 N   0  0  0  0  0  0  0  0  0  0  0  0
  -26.1830  -11.7930   20.2720 N   0  0  0  0  0  0  0  0  0  0  0  0
  -24.1840  -10.5970   20.8960 C   0  0  0  0  0  0  0  0  0  0  0  0
  -24.6190   -9.6210   21.8200 C   0  0  0  0  0  3  0  0  0  0  0  0
  -23.8790   -8.4340   22.0080 C   0  0  0  0  0  3  0  0  0  0  0  0
  -22.6890   -8.2160   21.2740 C   0  0  0  0  0  0  0  0  0  0  0  0
  -22.2740   -9.1810   20.3390 C   0  0  0  0  0  3  0  0  0  0  0  0
  -23.0150  -10.3580   20.1490 C   0  0  0  0  0  3  0  0  0  0  0  0
  -21.9200   -7.0820   21.3720 O   0  0  0  0  0  0  0  0  0  0  0  0
  -21.8210   -6.3790   22.5460 C   0  0  0  0  0  0  0  0  0  0  0  0
  -21.3170   -6.9660   23.7270 C   0  0  0  0  0  3  0  0  0  0  0  0
  -21.1690   -6.1880   24.8920 C   0  0  0  0  0  3  0  0  0  0  0  0
  -21.5130   -4.8230   24.8770 C   0  0  0  0  0  0  0  0  0  0  0  0
  -22.0100   -4.2350   23.7000 C   0  0  0  0  0  3  0  0  0  0  0  0
  -22.1600   -5.0110   22.5370 C   0  0  0  0  0  0  0  0  0  0  0  0
  -22.6200   -4.4340   21.4010 F   0  0  0  0  0  0  0  0  0  0  0  0
  -21.3630   -4.0740   25.9940 F   0  0  0  0  0  0  0  0  0  0  0  0
  -23.1540  -13.7080   21.2420 C   0  0  0  0  0  0  0  0  0  0  0  0
  -22.4870  -12.9920   22.1400 N   0  0  0  0  0  0  0  0  0  0  0  0
  -22.7000  -14.7650   20.8060 O   0  0  0  0  0  0  0  0  0  0  0  0
  -22.8680  -12.1350   22.5130 H   0  0  0  0  0  0  0  0  0  0  0  0
  -21.5820  -13.3060   22.4610 H   0  0  0  0  0  0  0  0  0  0  0  0
  -25.7450  -15.3450   20.2560 N   0  0  0  0  0  0  0  0  0  0  0  0
  -25.0020  -16.0080   20.4470 H   0  0  0  0  0  0  0  0  0  0  0  0
  -26.5580  -15.7730   19.8340 H   0  0  0  0  0  0  0  0  0  0  0  0
  -28.9550  -23.2480   20.9700 C   0  0  0  0  0  3  0  0  0  0  0  0
  -31.2210  -24.4080   21.5060 C   0  0  0  0  0  1  0  0  0  0  0  0
  -30.1700  -22.8970   23.2340 C   0  0  0  0  0  1  0  0  0  0  0  0
  -29.8930  -23.8560   22.0640 C   0  0  0  0  0  3  0  0  0  0  0  0
  -28.6420  -24.2990   19.8480 C   0  0  0  0  0  0  0  0  0  0  0  0
  -28.9620  -24.1170   18.6690 O   0  0  0  0  0  0  0  0  0  0  0  0
  -27.9170  -25.6000   20.2940 C   0  0  0  0  0  2  0  0  0  0  0  0
  -27.9720  -26.6920   19.3480 O   0  0  0  0  0  0  0  0  0  0  0  0
  -24.4880  -31.7120   23.0440 C   0  0  0  0  0  0  0  0  0  0  0  0
  -26.8570  -27.4980   19.4530 C   0  0  0  0  0  0  0  0  0  0  0  0
  -23.1520  -30.4350   21.3990 C   0  0  0  0  0  3  0  0  0  0  0  0
  -24.4860  -29.0130   19.7520 C   0  0  0  0  0  0  0  0  0  0  0  0
  -25.6590  -30.8090   21.0360 C   0  0  0  0  0  2  0  0  0  0  0  0
  -25.6900  -29.4890   20.2880 C   0  0  0  0  0  0  0  0  0  0  0  0
  -26.8830  -28.7390   20.1350 C   0  0  0  0  0  3  0  0  0  0  0  0
  -25.6400  -27.0470   18.9030 C   0  0  0  0  0  3  0  0  0  0  0  0
  -24.4560  -27.7930   19.0540 C   0  0  0  0  0  3  0  0  0  0  0  0
  -23.2530  -29.8640   19.9600 C   0  0  0  0  0  2  0  0  0  0  0  0
  -24.4560  -30.9960   21.8840 N   0  0  0  0  0  0  0  0  0  0  0  0
  -23.4510  -31.9410   23.6840 O   0  0  0  0  0  0  0  0  0  0  0  0
  -22.5700  -29.3460   22.3290 C   0  0  0  0  0  0  0  0  0  0  0  0
  -21.2480  -29.1270   22.2420 N   0  0  0  0  0  0  0  0  0  0  0  0
  -23.3040  -28.7020   23.0830 O   0  0  0  0  0  0  0  0  0  0  0  0
  -20.7140  -29.7020   21.6050 H   0  0  0  0  0  0  0  0  0  0  0  0
  -17.9470  -27.7400   22.7350 C   0  0  0  0  0  0  0  0  0  0  0  0
  -20.4910  -28.1250   22.9910 C   0  0  0  0  0  3  0  0  0  0  0  0
  -20.6630  -26.7190   22.3700 C   0  0  0  0  0  2  0  0  0  0  0  0
  -19.5690  -26.3690   21.3570 C   0  0  0  0  0  2  0  0  0  0  0  0
  -18.1880  -26.4210   22.0180 C   0  0  0  0  0  2  0  0  0  0  0  0
  -19.0280  -28.5460   23.1780 C   0  0  0  0  0  0  0  0  0  0  0  0
  -18.7500  -29.7780   23.8080 C   0  0  0  0  0  3  0  0  0  0  0  0
  -17.4230  -30.2060   23.9990 C   0  0  0  0  0  3  0  0  0  0  0  0
  -16.3570  -29.3960   23.5740 C   0  0  0  0  0  3  0  0  0  0  0  0
  -16.6190  -28.1640   22.9470 C   0  0  0  0  0  3  0  0  0  0  0  0
  -25.8200  -32.2950   23.6080 C   0  0  0  0  0  3  0  0  0  0  0  0
  -25.5570  -33.6810   24.0180 N   0  0  0  0  0  0  0  0  0  0  0  0
  -25.8940  -34.7630   23.3030 C   0  0  0  0  0  0  0  0  0  0  0  0
  -26.5300  -34.6970   22.2470 O   0  0  0  0  0  0  0  0  0  0  0  0
  -24.9920  -33.8090   24.8460 H   0  0  0  0  0  0  0  0  0  0  0  0
  -24.2140  -36.6200   23.0780 C   0  0  0  0  0  1  0  0  0  0  0  0
  -25.4550  -36.1370   23.8440 C   0  0  0  0  0  3  0  0  0  0  0  0
  -27.6240  -36.9180   24.6890 C   0  0  0  0  0  1  0  0  0  0  0  0
  -26.5160  -37.1650   23.7700 N   0  0  0  0  0  0  0  0  0  0  0  0
  -26.1400  -38.0880   23.9680 H   0  0  0  0  0  0  0  0  0  0  0  0
  -26.4060  -31.4580   24.8110 C   0  0  1  0  0  0  0  0  0  0  0  0
  -25.3800  -31.1850   25.9350 C   0  0  0  0  0  1  0  0  0  0  0  0
  -26.9390  -30.0940   24.3170 C   0  0  0  0  0  1  0  0  0  0  0  0
  -27.6090  -32.2050   25.4320 C   0  0  0  0  0  1  0  0  0  0  0  0
  1  3  2  0
  2  1  1  0
  2 52  1  0
  3  6  1  0
  3  5  1  0
  4  2  1  0
  7 10  1  0
  8 10  2  0
  9 12  2  0
 10  1  1  0
 11  9  1  0
 11  7  2  0
 12 13  1  0
 12  8  1  0
 14 20  1  0
 14 22  1  0
 15 20  1  0
 16 17  1  0
 16 15  1  0
 18 17  1  0
 18 27  1  0
 18 19  1  0
 20 19  1  0
 21 14  2  0
 22 11  1  0
 22 23  1  0
 24 25  2  0
 25 44  1  0
 26 25  1  0
 26 29  1  0
 27 28  1  0
 27 24  1  0
 28 26  2  0
 29 30  1  0
 30 31  2  0
 32 35  1  0
 32 31  1  0
 33 32  2  0
 34 33  1  0
 34 29  2  0
 35 36  1  0
 36 37  1  0
 37 38  2  0
 39 38  1  0
 39 43  1  0
 40 39  2  0
 41 36  2  0
 41 40  1  0
 42 41  1  0
 44 45  1  0
 45 48  1  0
 45 47  1  0
 46 44  2  0
 49 24  1  0
 49 50  1  0
 51 49  1  0
 52 56  1  0
 52 55  1  0
 53 55  1  0
 55 54  1  0
 56 58  1  0
 57 56  2  0
 59 61  1  0
 59 58  1  0
 60 71  2  0
 61 66  1  0
 62 70  1  0
 62 72  1  0
 63 69  1  0
 63 65  1  0
 64 70  1  0
 65 64  1  0
 66 65  2  0
 67 68  1  0
 67 61  2  0
 68 63  2  0
 69 62  1  0
 70 60  1  0
 72 74  2  0
 73 72  1  0
 75 73  1  0
 76 85  2  0
 76 81  1  0
 77 73  1  0
 77 81  1  0
 78 77  1  0
 79 80  1  0
 79 78  1  0
 80 76  1  0
 81 82  2  0
 82 83  1  0
 84 83  2  0
 85 84  1  0
 86 60  1  0
 86 87  1  0
 86 96  1  0
 87 90  1  0
 88 92  1  0
 88 87  1  0
 89 88  2  0
 92 91  1  0
 94 92  1  0
 94 95  1  0
 94 93  1  0
 96 99  1  1
 96 97  1  0
 98 96  1  0
M  ISO  4  14 100  22 100  58 101  59 101
M  END
>  <TORSDO>  (37) 
F 21

>  <SCORE>  (37) 
-12.670

>  <name>  (37) 
36

>  <ligand_id>  (37) 
36

>  <original_smiles>  (37) 
[H]c1c([H])c([H])c2c(c1[H])C([H])([H])C([H])([H])C([H])([H])C2([H])N([H])C(=O)C1([H])N(C(=O)C([H])(N([H])C(=O)C([H])(N([H])C([H])([H])[H])C([H])([H])[H])C(C([H])([H])[H])(C([H])([H])[H])C([H])([H])[H])C([H])([H])c2c([H])c(OC([H])([H])C(=O)C([H])(N([H])C(c3c([H])c(F)c([H])c(N([H])C(=O)N4C([H])([H])C([H])([H])C([H])([H])C([H])(n5nc(-c6c([H])c([H])c(Oc7c([H])c([H])c(F)c([H])c7F)c([H])c6[H])c(C(=O)N([H])[H])c5N([H])[H])C4([H])[H])c3[H])=[N+]([H])[H])C([H])(C([H])([H])[H])C([H])([H])[H])c([H])c([H])c2C1([H])[H]

>  <smiles>  (37) 
[H]c1c([H])c([H])c2c(c1[H])C([H])([H])C([H])([H])C([H])([H])C2([H])N([H])C(=O)C1([H])N(C(=O)C([H])(N([H])C(=O)C([H])(N([H])C([H])([H])[H])C([H])([H])[H])C(C([H])([H])[H])(C([H])([H])[H])C([H])([H])[H])C([H])([H])c2c([H])c(OC([H])([H])C(=O)C([H])(N([H])C(c3c([H])c(F)c([H])c(N([H])C(=O)N4C([H])([H])C([H])([H])C([H])([H])C([H])(n5nc(-c6c([H])c([H])c(Oc7c([H])c([H])c(F)c([H])c7F)c([H])c6[H])c(C(=O)N([H])[H])c5N([H])[H])C4([H])[H])c3[H])=[N+]([H])[H])C([H])(C([H])([H])[H])C([H])([H])[H])c([H])c([H])c2C1([H])[H]

$$$$
37:0:0
     RDKit          3D

 91100  0  0  1  0  0  0  0  0999 V2000
  -28.6280  -23.7820   20.1860 C   0  0  0  0  0  0  0  0  0  0  0  0
  -28.2770  -25.0310   19.6590 C   0  0  0  0  0  3  0  0  0  0  0  0
  -29.0420  -23.4510   21.6010 C   0  0  0  0  0  2  0  0  0  0  0  0
  -28.6710  -22.3820   19.4700 C   0  0  0  0  0  2  0  0  0  0  0  0
  -29.4760  -21.9450   21.6210 C   0  0  0  0  0  2  0  0  0  0  0  0
  -28.9650  -21.2510   20.4310 N   0  0  0  0  0  0  0  0  0  0  0  0
  -31.5970  -19.0300   18.8970 C   0  0  0  0  0  3  0  0  0  0  0  0
  -30.8190  -20.1470   19.2580 C   0  0  0  0  0  3  0  0  0  0  0  0
  -31.2740  -17.7250   19.3190 C   0  0  0  0  0  3  0  0  0  0  0  0
  -29.3740  -18.6460   20.5120 C   0  0  0  0  0  3  0  0  0  0  0  0
  -29.6750  -20.0190   20.0730 C   0  0  0  0  0  0  0  0  0  0  0  0
  -30.1600  -17.4530   20.1490 C   0  0  0  0  0  0  0  0  0  0  0  0
  -30.5910  -14.8310   20.3330 C   0  0  0  0  0  0  0  0  0  0  0  0
  -30.3680  -12.5360   19.3600 C   0  0  0  0  0  2  0  0  0  0  0  0
  -29.4360  -12.5940   18.1310 C   0  0  0  0  0  2  0  0  0  0  0  0
  -27.9660  -12.4220   18.5600 C   0  0  0  0  0  2  0  0  0  0  0  0
  -27.5910  -13.3120   19.7760 C   0  0  0  0  0  3  0  0  0  0  0  0
  -28.6530  -13.2550   20.8960 C   0  0  0  0  0  2  0  0  0  0  0  0
  -29.9430  -13.6110   20.2930 N   0  0  0  0  0  0  0  0  0  0  0  0
  -31.7880  -14.8560   20.0400 O   0  0  0  0  0  0  0  0  0  0  0  0
  -29.8600  -16.0190   20.5240 N   0  0  0  0  0  0  0  0  0  0  0  0
  -28.9300  -15.8620   20.8820 H   0  0  0  0  0  0  0  0  0  0  0  0
  -25.2050  -13.8940   20.5080 C   0  0  0  0  0  0  0  0  0  0  0  0
  -24.1400  -13.1190   20.8800 C   0  0  0  0  0  0  0  0  0  0  0  0
  -24.6050  -11.7690   20.8540 C   0  0  0  0  0  0  0  0  0  0  0  0
  -26.2500  -13.0160   20.2720 N   0  0  0  0  0  0  0  0  0  0  0  0
  -25.8960  -11.7330   20.5450 N   0  0  0  0  0  0  0  0  0  0  0  0
  -23.8790  -10.5060   21.0500 C   0  0  0  0  0  0  0  0  0  0  0  0
  -24.3190   -9.5340   21.9750 C   0  0  0  0  0  3  0  0  0  0  0  0
  -23.5920   -8.3380   22.1580 C   0  0  0  0  0  3  0  0  0  0  0  0
  -22.4100   -8.1050   21.4170 C   0  0  0  0  0  0  0  0  0  0  0  0
  -21.9870   -9.0660   20.4810 C   0  0  0  0  0  3  0  0  0  0  0  0
  -22.7160  -10.2530   20.2960 C   0  0  0  0  0  3  0  0  0  0  0  0
  -21.6540   -6.9610   21.5100 O   0  0  0  0  0  0  0  0  0  0  0  0
  -21.6280   -6.2060   22.6550 C   0  0  0  0  0  0  0  0  0  0  0  0
  -21.2390   -6.7530   23.8980 C   0  0  0  0  0  3  0  0  0  0  0  0
  -21.1580   -5.9250   25.0350 C   0  0  0  0  0  3  0  0  0  0  0  0
  -21.4580   -4.5530   24.9320 C   0  0  0  0  0  0  0  0  0  0  0  0
  -21.8400   -4.0070   23.6950 C   0  0  0  0  0  3  0  0  0  0  0  0
  -21.9220   -4.8310   22.5590 C   0  0  0  0  0  0  0  0  0  0  0  0
  -22.2700   -4.2960   21.3640 F   0  0  0  0  0  0  0  0  0  0  0  0
  -21.3730   -3.7560   26.0240 F   0  0  0  0  0  0  0  0  0  0  0  0
  -22.7420  -13.5970   21.1470 C   0  0  0  0  0  0  0  0  0  0  0  0
  -22.0140  -12.9090   22.0180 N   0  0  0  0  0  0  0  0  0  0  0  0
  -22.3050  -14.6190   20.6190 O   0  0  0  0  0  0  0  0  0  0  0  0
  -22.3800  -12.0830   22.4700 H   0  0  0  0  0  0  0  0  0  0  0  0
  -21.0770  -13.2140   22.2380 H   0  0  0  0  0  0  0  0  0  0  0  0
  -25.3670  -15.2630   20.3240 N   0  0  0  0  0  0  0  0  0  0  0  0
  -24.5940  -15.9140   20.4210 H   0  0  0  0  0  0  0  0  0  0  0  0
  -26.2050  -15.6990   19.9580 H   0  0  0  0  0  0  0  0  0  0  0  0
  -28.2950  -26.3460   20.2360 O   0  0  0  0  0  0  0  0  0  0  0  0
  -24.6310  -31.8780   23.2350 C   0  0  0  0  0  0  0  0  0  0  0  0
  -27.2040  -27.2560   20.1490 C   0  0  0  0  0  0  0  0  0  0  0  0
  -23.4130  -30.4820   21.6020 C   0  0  0  0  0  3  0  0  0  0  0  0
  -24.8520  -28.9240   20.1590 C   0  0  0  0  0  0  0  0  0  0  0  0
  -25.9580  -30.7790   21.4060 C   0  0  0  0  0  2  0  0  0  0  0  0
  -26.0290  -29.3950   20.7520 C   0  0  0  0  0  0  0  0  0  0  0  0
  -27.2050  -28.5720   20.7370 C   0  0  0  0  0  3  0  0  0  0  0  0
  -25.9970  -26.8570   19.5320 C   0  0  0  0  0  3  0  0  0  0  0  0
  -24.8410  -27.6650   19.5380 C   0  0  0  0  0  3  0  0  0  0  0  0
  -23.6180  -29.8070   20.2200 C   0  0  0  0  0  2  0  0  0  0  0  0
  -24.6870  -31.0660   22.1370 N   0  0  0  0  0  0  0  0  0  0  0  0
  -23.5510  -32.1590   23.7760 O   0  0  0  0  0  0  0  0  0  0  0  0
  -22.7520  -29.4700   22.5690 C   0  0  0  0  0  0  0  0  0  0  0  0
  -21.4250  -29.2930   22.4530 N   0  0  0  0  0  0  0  0  0  0  0  0
  -23.4350  -28.8470   23.3880 O   0  0  0  0  0  0  0  0  0  0  0  0
  -20.9310  -29.8490   21.7680 H   0  0  0  0  0  0  0  0  0  0  0  0
  -18.0550  -28.0720   22.9640 C   0  0  0  0  0  0  0  0  0  0  0  0
  -20.6120  -28.3560   23.2310 C   0  0  0  0  0  3  0  0  0  0  0  0
  -20.7230  -26.9200   22.6660 C   0  0  0  0  0  2  0  0  0  0  0  0
  -19.6240  -26.5810   21.6530 C   0  0  0  0  0  2  0  0  0  0  0  0
  -18.2410  -26.7200   22.2960 C   0  0  0  0  0  2  0  0  0  0  0  0
  -19.1680  -28.8470   23.3880 C   0  0  0  0  0  0  0  0  0  0  0  0
  -18.9370  -30.1100   23.9740 C   0  0  0  0  0  3  0  0  0  0  0  0
  -17.6290  -30.6020   24.1360 C   0  0  0  0  0  3  0  0  0  0  0  0
  -16.5310  -29.8260   23.7270 C   0  0  0  0  0  3  0  0  0  0  0  0
  -16.7450  -28.5610   23.1470 C   0  0  0  0  0  3  0  0  0  0  0  0
  -25.9180  -32.5110   23.8490 C   0  0  0  0  0  3  0  0  0  0  0  0
  -25.6080  -33.9080   24.1910 N   0  0  0  0  0  0  0  0  0  0  0  0
  -25.9200  -34.9670   23.4310 C   0  0  0  0  0  0  0  0  0  0  0  0
  -26.5670  -34.8700   22.3840 O   0  0  0  0  0  0  0  0  0  0  0  0
  -25.0320  -34.0560   25.0060 H   0  0  0  0  0  0  0  0  0  0  0  0
  -24.1730  -36.7540   23.1310 C   0  0  0  0  0  1  0  0  0  0  0  0
  -25.4390  -36.3520   23.9050 C   0  0  0  0  0  3  0  0  0  0  0  0
  -27.5930  -37.2470   24.6740 C   0  0  0  0  0  1  0  0  0  0  0  0
  -26.4630  -37.4120   23.7640 N   0  0  0  0  0  0  0  0  0  0  0  0
  -26.0560  -38.3290   23.9240 H   0  0  0  0  0  0  0  0  0  0  0  0
  -26.4450  -31.7370   25.1190 C   0  0  1  0  0  0  0  0  0  0  0  0
  -25.3640  -31.4980   26.1990 C   0  0  0  0  0  1  0  0  0  0  0  0
  -27.0210  -30.3580   24.7200 C   0  0  0  0  0  1  0  0  0  0  0  0
  -27.6040  -32.5270   25.7700 C   0  0  0  0  0  1  0  0  0  0  0  0
  1  3  1  0
  2  1  2  0
  2 51  1  0
  3  5  1  0
  4  1  1  0
  4  6  1  0
  6  5  1  0
  7  8  2  0
  7  9  1  0
  8 11  1  0
  9 12  2  0
 11  6  1  0
 11 10  2  0
 12 10  1  0
 12 21  1  0
 13 21  1  0
 14 19  1  0
 15 16  1  0
 15 14  1  0
 17 16  1  0
 17 26  1  0
 17 18  1  0
 19 13  1  0
 19 18  1  0
 20 13  2  0
 21 22  1  0
 23 24  2  0
 24 43  1  0
 25 24  1  0
 25 28  1  0
 26 23  1  0
 26 27  1  0
 27 25  2  0
 28 29  1  0
 29 30  2  0
 31 34  1  0
 31 30  1  0
 32 31  2  0
 33 32  1  0
 33 28  2  0
 34 35  1  0
 35 36  1  0
 36 37  2  0
 38 37  1  0
 38 42  1  0
 39 38  2  0
 40 35  2  0
 40 39  1  0
 41 40  1  0
 43 44  1  0
 44 47  1  0
 44 46  1  0
 45 43  2  0
 48 49  1  0
 48 23  1  0
 50 48  1  0
 52 63  2  0
 53 51  1  0
 53 58  1  0
 54 62  1  0
 54 64  1  0
 55 61  1  0
 55 57  1  0
 56 62  1  0
 57 56  1  0
 58 57  2  0
 59 60  1  0
 59 53  2  0
 60 55  2  0
 61 54  1  0
 62 52  1  0
 64 66  2  0
 65 64  1  0
 67 65  1  0
 68 77  2  0
 68 73  1  0
 69 65  1  0
 69 73  1  0
 70 69  1  0
 71 72  1  0
 71 70  1  0
 72 68  1  0
 73 74  2  0
 74 75  1  0
 76 75  2  0
 77 76  1  0
 78 52  1  0
 78 79  1  0
 78 88  1  0
 79 82  1  0
 80 84  1  0
 80 79  1  0
 81 80  2  0
 84 83  1  0
 86 84  1  0
 86 87  1  0
 86 85  1  0
 88 91  1  1
 88 89  1  0
 90 88  1  0
M  ISO  4   2 101  13 100  21 100  51 101
M  END
>  <TORSDO>  (38) 
F 17

>  <SCORE>  (38) 
-15.170

>  <name>  (38) 
37

>  <ligand_id>  (38) 
37

>  <original_smiles>  (38) 
[H]C(Oc1c([H])c([H])c2c(c1[H])C([H])([H])N(C(=O)C([H])(N([H])C(=O)C([H])(N([H])C([H])([H])[H])C([H])([H])[H])C(C([H])([H])[H])(C([H])([H])[H])C([H])([H])[H])C([H])(C(=O)N([H])C1([H])c3c([H])c([H])c([H])c([H])c3C([H])([H])C([H])([H])C1([H])[H])C2([H])[H])=C1C([H])([H])N(c2c([H])c([H])c([H])c(N([H])C(=O)N3C([H])([H])C([H])([H])C([H])([H])C([H])(n4nc(-c5c([H])c([H])c(Oc6c([H])c([H])c(F)c([H])c6F)c([H])c5[H])c(C(=O)N([H])[H])c4N([H])[H])C3([H])[H])c2[H])C([H])([H])C1([H])[H]

>  <smiles>  (38) 
[H]C(Oc1c([H])c([H])c2c(c1[H])C([H])([H])N(C(=O)C([H])(N([H])C(=O)C([H])(N([H])C([H])([H])[H])C([H])([H])[H])C(C([H])([H])[H])(C([H])([H])[H])C([H])([H])[H])C([H])(C(=O)N([H])C1([H])c3c([H])c([H])c([H])c([H])c3C([H])([H])C([H])([H])C1([H])[H])C2([H])[H])=C1C([H])([H])N(c2c([H])c([H])c([H])c(N([H])C(=O)N3C([H])([H])C([H])([H])C([H])([H])C([H])(n4nc(-c5c([H])c([H])c(Oc6c([H])c([H])c(F)c([H])c6F)c([H])c5[H])c(C(=O)N([H])[H])c4N([H])[H])C3([H])[H])c2[H])C([H])([H])C1([H])[H]

$$$$
38:0:0
     RDKit          3D

 90 98  0  0  1  0  0  0  0  0999 V2000
  -28.9180  -23.2560   20.2310 C   0  0  0  0  0  0  0  0  0  0  0  0
  -28.5290  -21.8730   20.3030 N   0  0  0  0  0  0  0  0  0  0  0  0
  -30.1090  -23.5250   20.0540 O   0  0  0  0  0  0  0  0  0  0  0  0
  -27.5290  -21.8150   20.4470 H   0  0  0  0  0  0  0  0  0  0  0  0
  -30.4760  -15.1020   20.1120 C   0  0  0  0  0  0  0  0  0  0  0  0
  -30.3950  -12.7300   19.1650 C   0  0  0  0  0  2  0  0  0  0  0  0
  -29.4250  -12.6570   17.9610 C   0  0  0  0  0  2  0  0  0  0  0  0
  -27.9780  -12.4180   18.4330 C   0  0  0  0  0  2  0  0  0  0  0  0
  -27.5900  -13.3320   19.6230 C   0  0  0  0  0  3  0  0  0  0  0  0
  -28.6770  -13.3590   20.7190 C   0  0  0  0  0  2  0  0  0  0  0  0
  -29.9200  -13.8140   20.0790 N   0  0  0  0  0  0  0  0  0  0  0  0
  -31.6690  -15.1840   19.7930 O   0  0  0  0  0  0  0  0  0  0  0  0
  -30.4370  -20.0770   19.9890 C   0  0  0  0  0  3  0  0  0  0  0  0
  -29.1390  -20.5450   20.2420 C   0  0  0  0  0  0  0  0  0  0  0  0
  -29.6640  -17.8040   20.2490 C   0  0  0  0  0  0  0  0  0  0  0  0
  -30.7060  -18.6380   19.9910 N   0  0  0  0  0  0  0  0  0  0  0  0
  -29.6360  -16.2470   20.3230 N   0  0  0  0  0  0  0  0  0  0  0  0
  -28.2430  -18.9620   20.5020 S   0  0  0  0  0  0  0  0  0  0  0  0
  -28.7110  -15.9260   20.5570 H   0  0  0  0  0  0  0  0  0  0  0  0
  -25.2290  -13.8830   20.4390 C   0  0  0  0  0  0  0  0  0  0  0  0
  -24.1810  -13.0980   20.8320 C   0  0  0  0  0  0  0  0  0  0  0  0
  -24.6540  -11.7500   20.7720 C   0  0  0  0  0  0  0  0  0  0  0  0
  -26.2700  -13.0160   20.1570 N   0  0  0  0  0  0  0  0  0  0  0  0
  -25.9350  -11.7270   20.4240 N   0  0  0  0  0  0  0  0  0  0  0  0
  -23.9390  -10.4810   20.9670 C   0  0  0  0  0  0  0  0  0  0  0  0
  -24.3790   -9.5230   21.9070 C   0  0  0  0  0  3  0  0  0  0  0  0
  -23.6620   -8.3210   22.0900 C   0  0  0  0  0  3  0  0  0  0  0  0
  -22.4930   -8.0670   21.3340 C   0  0  0  0  0  0  0  0  0  0  0  0
  -22.0740   -9.0150   20.3830 C   0  0  0  0  0  3  0  0  0  0  0  0
  -22.7900  -10.2090   20.1980 C   0  0  0  0  0  3  0  0  0  0  0  0
  -21.7490   -6.9160   21.4260 O   0  0  0  0  0  0  0  0  0  0  0  0
  -21.6730   -6.2010   22.5940 C   0  0  0  0  0  0  0  0  0  0  0  0
  -21.1830   -6.7720   23.7880 C   0  0  0  0  0  3  0  0  0  0  0  0
  -21.0570   -5.9810   24.9470 C   0  0  0  0  0  3  0  0  0  0  0  0
  -21.4090   -4.6180   24.9130 C   0  0  0  0  0  0  0  0  0  0  0  0
  -21.8920   -4.0460   23.7230 C   0  0  0  0  0  3  0  0  0  0  0  0
  -22.0200   -4.8340   22.5660 C   0  0  0  0  0  0  0  0  0  0  0  0
  -22.4650   -4.2720   21.4170 F   0  0  0  0  0  0  0  0  0  0  0  0
  -21.2820   -3.8570   26.0250 F   0  0  0  0  0  0  0  0  0  0  0  0
  -22.7890  -13.5630   21.1440 C   0  0  0  0  0  0  0  0  0  0  0  0
  -22.0900  -12.8560   22.0240 N   0  0  0  0  0  0  0  0  0  0  0  0
  -22.3320  -14.5900   20.6430 O   0  0  0  0  0  0  0  0  0  0  0  0
  -22.4720  -12.0260   22.4500 H   0  0  0  0  0  0  0  0  0  0  0  0
  -21.1560  -13.1500   22.2750 H   0  0  0  0  0  0  0  0  0  0  0  0
  -25.3760  -15.2570   20.2680 N   0  0  0  0  0  0  0  0  0  0  0  0
  -24.5940  -15.8930   20.3900 H   0  0  0  0  0  0  0  0  0  0  0  0
  -26.1760  -15.6990   19.8360 H   0  0  0  0  0  0  0  0  0  0  0  0
  -27.1150  -24.4140   21.7150 C   0  0  0  0  0  1  0  0  0  0  0  0
  -27.8460  -24.5580   20.3660 C   0  0  0  0  0  3  0  0  0  0  0  0
  -28.2170  -26.1010   20.2520 O   0  0  0  0  0  0  0  0  0  0  0  0
  -24.6310  -31.8920   23.2400 C   0  0  0  0  0  0  0  0  0  0  0  0
  -27.1930  -27.1410   20.1920 C   0  0  0  0  0  0  0  0  0  0  0  0
  -23.4320  -30.5090   21.5930 C   0  0  0  0  0  3  0  0  0  0  0  0
  -24.8780  -28.9350   20.1610 C   0  0  0  0  0  0  0  0  0  0  0  0
  -25.9910  -30.7530   21.4390 C   0  0  0  0  0  2  0  0  0  0  0  0
  -26.0620  -29.3600   20.7780 C   0  0  0  0  0  0  0  0  0  0  0  0
  -27.2190  -28.4810   20.7740 C   0  0  0  0  0  3  0  0  0  0  0  0
  -25.9850  -26.8420   19.5220 C   0  0  0  0  0  3  0  0  0  0  0  0
  -24.8560  -27.6910   19.5150 C   0  0  0  0  0  3  0  0  0  0  0  0
  -23.6550  -29.8390   20.2120 C   0  0  0  0  0  2  0  0  0  0  0  0
  -24.7060  -31.0740   22.1450 N   0  0  0  0  0  0  0  0  0  0  0  0
  -23.5440  -32.1780   23.7660 O   0  0  0  0  0  0  0  0  0  0  0  0
  -22.7450  -29.5000   22.5490 C   0  0  0  0  0  0  0  0  0  0  0  0
  -21.4160  -29.3370   22.4220 N   0  0  0  0  0  0  0  0  0  0  0  0
  -23.4130  -28.8660   23.3700 O   0  0  0  0  0  0  0  0  0  0  0  0
  -20.9320  -29.8980   21.7350 H   0  0  0  0  0  0  0  0  0  0  0  0
  -18.0270  -28.1520   22.9300 C   0  0  0  0  0  0  0  0  0  0  0  0
  -20.5900  -28.3990   23.1890 C   0  0  0  0  0  3  0  0  0  0  0  0
  -20.6810  -26.9700   22.6030 C   0  0  0  0  0  2  0  0  0  0  0  0
  -19.5730  -26.6620   21.5900 C   0  0  0  0  0  2  0  0  0  0  0  0
  -18.1940  -26.8090   22.2410 C   0  0  0  0  0  2  0  0  0  0  0  0
  -19.1520  -28.9060   23.3610 C   0  0  0  0  0  0  0  0  0  0  0  0
  -18.9400  -30.1630   23.9680 C   0  0  0  0  0  3  0  0  0  0  0  0
  -17.6380  -30.6670   24.1460 C   0  0  0  0  0  3  0  0  0  0  0  0
  -16.5290  -29.9110   23.7290 C   0  0  0  0  0  3  0  0  0  0  0  0
  -16.7250  -28.6560   23.1270 C   0  0  0  0  0  3  0  0  0  0  0  0
  -25.9070  -32.5240   23.8730 C   0  0  0  0  0  3  0  0  0  0  0  0
  -25.5940  -33.9210   24.2160 N   0  0  0  0  0  0  0  0  0  0  0  0
  -25.8970  -34.9820   23.4570 C   0  0  0  0  0  0  0  0  0  0  0  0
  -26.5350  -34.8890   22.4040 O   0  0  0  0  0  0  0  0  0  0  0  0
  -25.0220  -34.0660   25.0350 H   0  0  0  0  0  0  0  0  0  0  0  0
  -24.1340  -36.7600   23.1920 C   0  0  0  0  0  1  0  0  0  0  0  0
  -25.4190  -36.3670   23.9390 C   0  0  0  0  0  3  0  0  0  0  0  0
  -27.5800  -37.2800   24.6670 C   0  0  0  0  0  1  0  0  0  0  0  0
  -26.4340  -37.4310   23.7740 N   0  0  0  0  0  0  0  0  0  0  0  0
  -26.0240  -38.3470   23.9350 H   0  0  0  0  0  0  0  0  0  0  0  0
  -26.4150  -31.7470   25.1500 C   0  0  1  0  0  0  0  0  0  0  0  0
  -25.3150  -31.5080   26.2120 C   0  0  0  0  0  1  0  0  0  0  0  0
  -26.9970  -30.3680   24.7620 C   0  0  0  0  0  1  0  0  0  0  0  0
  -27.5630  -32.5360   25.8210 C   0  0  0  0  0  1  0  0  0  0  0  0
  1  2  1  0
  1 49  1  0
  2  4  1  0
  3  1  2  0
  5 17  1  0
  6 11  1  0
  7  8  1  0
  7  6  1  0
  9  8  1  0
  9 23  1  0
  9 10  1  0
 11  5  1  0
 11 10  1  0
 12  5  2  0
 13 16  1  0
 13 14  2  0
 14  2  1  0
 14 18  1  0
 15 17  1  0
 15 18  1  0
 16 15  2  0
 17 19  1  0
 20 21  2  0
 21 40  1  0
 22 21  1  0
 22 25  1  0
 23 24  1  0
 23 20  1  0
 24 22  2  0
 25 26  1  0
 26 27  2  0
 28 31  1  0
 28 27  1  0
 29 28  2  0
 30 29  1  0
 30 25  2  0
 31 32  1  0
 32 33  1  0
 33 34  2  0
 35 34  1  0
 35 39  1  0
 36 35  2  0
 37 32  2  0
 37 36  1  0
 38 37  1  0
 40 41  1  0
 41 44  1  0
 41 43  1  0
 42 40  2  0
 45 46  1  0
 45 20  1  0
 47 45  1  0
 49 48  1  0
 50 49  1  0
 51 62  2  0
 52 50  1  0
 52 57  1  0
 53 61  1  0
 53 63  1  0
 54 60  1  0
 54 56  1  0
 55 61  1  0
 56 55  1  0
 57 56  2  0
 58 52  2  0
 59 58  1  0
 59 54  2  0
 60 53  1  0
 61 51  1  0
 63 65  2  0
 64 63  1  0
 66 64  1  0
 67 76  2  0
 67 72  1  0
 68 64  1  0
 68 72  1  0
 69 68  1  0
 70 71  1  0
 70 69  1  0
 71 67  1  0
 72 73  2  0
 73 74  1  0
 75 74  2  0
 76 75  1  0
 77 51  1  0
 77 78  1  0
 77 87  1  0
 78 81  1  0
 79 83  1  0
 79 78  1  0
 80 79  2  0
 83 82  1  0
 85 86  1  0
 85 83  1  0
 85 84  1  0
 87 90  1  1
 87 88  1  0
 89 87  1  0
M  ISO  4   5 100  17 100  49 101  50 101
M  END
>  <TORSDO>  (39) 
F 17

>  <SCORE>  (39) 
-14.944

>  <name>  (39) 
38

>  <ligand_id>  (39) 
38

>  <original_smiles>  (39) 
[H]c1nc(N([H])C(=O)N2C([H])([H])C([H])([H])C([H])([H])C([H])(n3nc(-c4c([H])c([H])c(Oc5c([H])c([H])c(F)c([H])c5F)c([H])c4[H])c(C(=O)N([H])[H])c3N([H])[H])C2([H])[H])sc1N([H])C(=O)C([H])(Oc1c([H])c([H])c2c(c1[H])C([H])([H])N(C(=O)C([H])(N([H])C(=O)C([H])(N([H])C([H])([H])[H])C([H])([H])[H])C(C([H])([H])[H])(C([H])([H])[H])C([H])([H])[H])C([H])(C(=O)N([H])C1([H])c3c([H])c([H])c([H])c([H])c3C([H])([H])C([H])([H])C1([H])[H])C2([H])[H])C([H])([H])[H]

>  <smiles>  (39) 
[H]c1nc(N([H])C(=O)N2C([H])([H])C([H])([H])C([H])([H])C([H])(n3nc(-c4c([H])c([H])c(Oc5c([H])c([H])c(F)c([H])c5F)c([H])c4[H])c(C(=O)N([H])[H])c3N([H])[H])C2([H])[H])sc1N([H])C(=O)C([H])(Oc1c([H])c([H])c2c(c1[H])C([H])([H])N(C(=O)C([H])(N([H])C(=O)C([H])(N([H])C([H])([H])[H])C([H])([H])[H])C(C([H])([H])[H])(C([H])([H])[H])C([H])([H])[H])C([H])(C(=O)N([H])C1([H])c3c([H])c([H])c([H])c([H])c3C([H])([H])C([H])([H])C1([H])[H])C2([H])[H])C([H])([H])[H]

$$$$
39:0:0
     RDKit          3D

 94103  0  0  1  0  0  0  0  0999 V2000
  -27.9620  -22.2120   21.8050 C   0  0  0  0  0  2  0  0  0  0  0  0
  -28.3050  -20.7170   21.6660 C   0  0  0  0  0  2  0  0  0  0  0  0
  -29.0860  -21.8760   19.6890 C   0  0  0  0  0  3  0  0  0  0  0  0
  -28.7930  -23.0010   20.7640 C   0  0  2  0  0  0  0  0  0  0  0  0
  -28.0760  -21.8740   18.5320 C   0  0  0  0  0  1  0  0  0  0  0  0
  -29.0290  -20.5850   20.4170 N   0  0  0  0  0  0  0  0  0  0  0  0
  -30.5130  -19.1470   19.0090 C   0  0  0  0  0  3  0  0  0  0  0  0
  -30.8540  -17.7540   19.0470 C   0  0  0  0  0  3  0  0  0  0  0  0
  -29.6340  -19.3540   20.0360 C   0  0  0  0  0  0  0  0  0  0  0  0
  -30.1570  -17.1970   20.0920 C   0  0  0  0  0  0  0  0  0  0  0  0
  -29.3960  -18.1730   20.7170 O   0  0  0  0  0  0  0  0  0  0  0  0
  -30.8560  -14.8080   20.0050 C   0  0  0  0  0  0  0  0  0  0  0  0
  -30.5750  -12.5920   18.9450 C   0  0  0  0  0  2  0  0  0  0  0  0
  -29.5700  -12.7530   17.7840 C   0  0  0  0  0  2  0  0  0  0  0  0
  -28.1200  -12.6000   18.2880 C   0  0  0  0  0  2  0  0  0  0  0  0
  -27.8360  -13.4430   19.5590 C   0  0  0  0  0  3  0  0  0  0  0  0
  -28.9510  -13.2610   20.6150 C   0  0  0  0  0  2  0  0  0  0  0  0
  -30.2320  -13.5930   19.9730 N   0  0  0  0  0  0  0  0  0  0  0  0
  -31.9880  -14.9630   19.5320 O   0  0  0  0  0  0  0  0  0  0  0  0
  -30.1050  -15.8600   20.4470 N   0  0  0  0  0  0  0  0  0  0  0  0
  -29.2910  -15.5910   20.9750 H   0  0  0  0  0  0  0  0  0  0  0  0
  -25.4940  -14.0370   20.4410 C   0  0  0  0  0  0  0  0  0  0  0  0
  -24.4430  -13.2600   20.8450 C   0  0  0  0  0  0  0  0  0  0  0  0
  -24.8880  -11.9070   20.7370 C   0  0  0  0  0  0  0  0  0  0  0  0
  -26.5140  -13.1570   20.1130 N   0  0  0  0  0  0  0  0  0  0  0  0
  -26.1570  -11.8690   20.3490 N   0  0  0  0  0  0  0  0  0  0  0  0
  -24.1620  -10.6450   20.9230 C   0  0  0  0  0  0  0  0  0  0  0  0
  -24.5770   -9.6870   21.8760 C   0  0  0  0  0  3  0  0  0  0  0  0
  -23.8510   -8.4900   22.0500 C   0  0  0  0  0  3  0  0  0  0  0  0
  -22.6960   -8.2390   21.2710 C   0  0  0  0  0  0  0  0  0  0  0  0
  -22.3000   -9.1840   20.3080 C   0  0  0  0  0  3  0  0  0  0  0  0
  -23.0260  -10.3740   20.1330 C   0  0  0  0  0  3  0  0  0  0  0  0
  -21.9430   -7.0920   21.3540 O   0  0  0  0  0  0  0  0  0  0  0  0
  -21.7910   -6.4150   22.5370 C   0  0  0  0  0  0  0  0  0  0  0  0
  -21.1950   -7.0170   23.6670 C   0  0  0  0  0  3  0  0  0  0  0  0
  -20.9940   -6.2630   24.8410 C   0  0  0  0  0  3  0  0  0  0  0  0
  -21.3770   -4.9090   24.8840 C   0  0  0  0  0  0  0  0  0  0  0  0
  -21.9650   -4.3070   23.7570 C   0  0  0  0  0  3  0  0  0  0  0  0
  -22.1680   -5.0580   22.5870 C   0  0  0  0  0  0  0  0  0  0  0  0
  -22.7150   -4.4670   21.4970 F   0  0  0  0  0  0  0  0  0  0  0  0
  -21.1770   -4.1830   26.0090 F   0  0  0  0  0  0  0  0  0  0  0  0
  -23.0700  -13.7370   21.2180 C   0  0  0  0  0  0  0  0  0  0  0  0
  -22.3850  -13.0100   22.0930 N   0  0  0  0  0  0  0  0  0  0  0  0
  -22.6140  -14.7890   20.7700 O   0  0  0  0  0  0  0  0  0  0  0  0
  -22.7690  -12.1590   22.4780 H   0  0  0  0  0  0  0  0  0  0  0  0
  -21.4640  -13.3080   22.3840 H   0  0  0  0  0  0  0  0  0  0  0  0
  -25.6630  -15.4120   20.3040 N   0  0  0  0  0  0  0  0  0  0  0  0
  -24.9120  -16.0690   20.4840 H   0  0  0  0  0  0  0  0  0  0  0  0
  -26.4940  -15.8550   19.9320 H   0  0  0  0  0  0  0  0  0  0  0  0
  -30.9310  -22.6050   21.9460 C   0  0  0  0  0  1  0  0  0  0  0  0
  -30.0090  -23.5070   21.3370 O   0  0  0  0  0  0  0  0  0  0  0  0
  -28.0100  -24.3350   20.3840 C   0  0  0  0  0  2  0  0  0  0  0  0
  -28.6830  -25.4730   19.5330 C   0  0  0  0  0  2  0  0  0  0  0  0
  -28.5730  -26.8450   20.0270 O   0  0  0  0  0  0  0  0  0  0  0  0
  -24.6730  -31.9050   23.2490 C   0  0  0  0  0  0  0  0  0  0  0  0
  -27.3830  -27.5680   20.0110 C   0  0  0  0  0  0  0  0  0  0  0  0
  -23.4890  -30.5370   21.5640 C   0  0  0  0  0  3  0  0  0  0  0  0
  -24.9650  -29.0720   20.0770 C   0  0  0  0  0  0  0  0  0  0  0  0
  -26.0100  -30.9370   21.3730 C   0  0  0  0  0  2  0  0  0  0  0  0
  -26.1180  -29.5860   20.6810 C   0  0  0  0  0  0  0  0  0  0  0  0
  -27.3260  -28.8430   20.6400 C   0  0  0  0  0  3  0  0  0  0  0  0
  -26.2060  -27.0820   19.3990 C   0  0  0  0  0  3  0  0  0  0  0  0
  -25.0080  -27.8240   19.4310 C   0  0  0  0  0  3  0  0  0  0  0  0
  -23.7070  -29.9100   20.1600 C   0  0  0  0  0  2  0  0  0  0  0  0
  -24.7430  -31.1420   22.1200 N   0  0  0  0  0  0  0  0  0  0  0  0
  -23.5870  -32.1370   23.8010 O   0  0  0  0  0  0  0  0  0  0  0  0
  -22.8580  -29.4720   22.4910 C   0  0  0  0  0  0  0  0  0  0  0  0
  -21.5420  -29.2500   22.3430 N   0  0  0  0  0  0  0  0  0  0  0  0
  -23.5510  -28.8510   23.3010 O   0  0  0  0  0  0  0  0  0  0  0  0
  -21.0420  -29.8080   21.6650 H   0  0  0  0  0  0  0  0  0  0  0  0
  -18.2060  -27.9190   22.7630 C   0  0  0  0  0  0  0  0  0  0  0  0
  -20.7490  -28.2650   23.0790 C   0  0  0  0  0  3  0  0  0  0  0  0
  -20.9120  -26.8530   22.4710 C   0  0  0  0  0  2  0  0  0  0  0  0
  -19.8370  -26.5150   21.4320 C   0  0  0  0  0  2  0  0  0  0  0  0
  -18.4420  -26.5940   22.0580 C   0  0  0  0  0  2  0  0  0  0  0  0
  -19.2890  -28.7110   23.2280 C   0  0  0  0  0  0  0  0  0  0  0  0
  -19.0160  -29.9510   23.8450 C   0  0  0  0  0  3  0  0  0  0  0  0
  -17.6910  -30.4010   24.0010 C   0  0  0  0  0  3  0  0  0  0  0  0
  -16.6220  -29.6060   23.5530 C   0  0  0  0  0  3  0  0  0  0  0  0
  -16.8800  -28.3670   22.9400 C   0  0  0  0  0  3  0  0  0  0  0  0
  -25.9460  -32.5410   23.8890 C   0  0  0  0  0  3  0  0  0  0  0  0
  -26.4530  -31.7670   25.1680 C   0  0  1  0  0  0  0  0  0  0  0  0
  -25.3490  -31.5140   26.2200 C   0  0  0  0  0  1  0  0  0  0  0  0
  -27.0550  -30.3990   24.7750 C   0  0  0  0  0  1  0  0  0  0  0  0
  -27.5870  -32.5700   25.8500 C   0  0  0  0  0  1  0  0  0  0  0  0
  -25.6270  -33.9360   24.2200 N   0  0  0  0  0  0  0  0  0  0  0  0
  -25.9660  -34.9930   23.4700 C   0  0  0  0  0  0  0  0  0  0  0  0
  -26.6510  -34.8970   22.4480 O   0  0  0  0  0  0  0  0  0  0  0  0
  -25.0200  -34.0840   25.0140 H   0  0  0  0  0  0  0  0  0  0  0  0
  -24.2450  -36.7870   23.0880 C   0  0  0  0  0  1  0  0  0  0  0  0
  -25.4660  -36.3780   23.9270 C   0  0  0  0  0  3  0  0  0  0  0  0
  -27.5750  -37.2630   24.8220 C   0  0  0  0  0  1  0  0  0  0  0  0
  -26.5010  -37.4320   23.8460 N   0  0  0  0  0  0  0  0  0  0  0  0
  -26.0900  -38.3520   23.9820 H   0  0  0  0  0  0  0  0  0  0  0  0
  2  1  1  0
  3  5  1  0
  3  6  1  0
  3  4  1  0
  4 52  1  6
  4 51  1  0
  4  1  1  0
  6  2  1  0
  7  8  1  0
  7  9  2  0
  8 10  2  0
  9  6  1  0
  9 11  1  0
 10 20  1  0
 10 11  1  0
 12 20  1  0
 13 18  1  0
 14 15  1  0
 14 13  1  0
 16 15  1  0
 16 25  1  0
 16 17  1  0
 18 12  1  0
 18 17  1  0
 19 12  2  0
 20 21  1  0
 22 23  2  0
 23 42  1  0
 24 23  1  0
 24 27  1  0
 25 26  1  0
 25 22  1  0
 26 24  2  0
 27 28  1  0
 28 29  2  0
 30 33  1  0
 30 29  1  0
 31 30  2  0
 32 31  1  0
 32 27  2  0
 33 34  1  0
 34 39  2  0
 34 35  1  0
 35 36  2  0
 36 37  1  0
 37 41  1  0
 38 37  2  0
 39 38  1  0
 40 39  1  0
 42 43  1  0
 43 46  1  0
 43 45  1  0
 44 42  2  0
 47 22  1  0
 47 48  1  0
 49 47  1  0
 51 50  1  0
 53 54  1  0
 53 52  1  0
 55 66  2  0
 56 54  1  0
 56 61  1  0
 57 65  1  0
 57 67  1  0
 58 64  1  0
 58 60  1  0
 59 65  1  0
 60 59  1  0
 61 60  2  0
 62 63  1  0
 62 56  2  0
 63 58  2  0
 64 57  1  0
 65 55  1  0
 67 69  2  0
 68 67  1  0
 70 68  1  0
 71 80  2  0
 71 76  1  0
 72 68  1  0
 72 76  1  0
 73 72  1  0
 74 75  1  0
 74 73  1  0
 75 71  1  0
 76 77  2  0
 77 78  1  0
 79 78  2  0
 80 79  1  0
 81 55  1  0
 81 86  1  0
 81 82  1  0
 82 85  1  1
 82 83  1  0
 84 82  1  0
 86 89  1  0
 87 91  1  0
 87 86  1  0
 88 87  2  0
 91 90  1  0
 93 91  1  0
 93 94  1  0
 93 92  1  0
M  ISO  4  12 100  20 100  53 101  54 101
M  END
>  <TORSDO>  (40) 
F 20

>  <SCORE>  (40) 
-13.032

>  <name>  (40) 
39

>  <ligand_id>  (40) 
39

>  <original_smiles>  (40) 
[H]c1c(N([H])C(=O)N2C([H])([H])C([H])([H])C([H])([H])C([H])(n3nc(-c4c([H])c([H])c(Oc5c([H])c([H])c(F)c([H])c5F)c([H])c4[H])c(C(=O)N([H])[H])c3N([H])[H])C2([H])[H])oc(N2C([H])([H])C([H])([H])C(OC([H])([H])[H])(C([H])([H])C([H])([H])Oc3c([H])c([H])c4c(c3[H])C([H])([H])N(C(=O)C([H])(N([H])C(=O)C([H])(N([H])C([H])([H])[H])C([H])([H])[H])C(C([H])([H])[H])(C([H])([H])[H])C([H])([H])[H])C([H])(C(=O)N([H])C3([H])c5c([H])c([H])c([H])c([H])c5C([H])([H])C([H])([H])C3([H])[H])C4([H])[H])C2([H])C([H])([H])[H])c1[H]

>  <smiles>  (40) 
[H]c1c(N([H])C(=O)N2C([H])([H])C([H])([H])C([H])([H])C([H])(n3nc(-c4c([H])c([H])c(Oc5c([H])c([H])c(F)c([H])c5F)c([H])c4[H])c(C(=O)N([H])[H])c3N([H])[H])C2([H])[H])oc(N2C([H])([H])C([H])([H])C(OC([H])([H])[H])(C([H])([H])C([H])([H])Oc3c([H])c([H])c4c(c3[H])C([H])([H])N(C(=O)C([H])(N([H])C(=O)C([H])(N([H])C([H])([H])[H])C([H])([H])[H])C(C([H])([H])[H])(C([H])([H])[H])C([H])([H])[H])C([H])(C(=O)N([H])C3([H])c5c([H])c([H])c([H])c([H])c5C([H])([H])C([H])([H])C3([H])[H])C4([H])[H])C2([H])C([H])([H])[H])c1[H]

$$$$
40:0:0
     RDKit          3D

 95104  0  0  1  0  0  0  0  0999 V2000
  -28.5660  -23.0120   19.0760 C   0  0  0  0  0  2  0  0  0  0  0  0
  -28.8920  -21.4850   19.3440 C   0  0  0  0  0  2  0  0  0  0  0  0
  -30.2020  -22.8630   20.6570 C   0  0  0  0  0  2  0  0  0  0  0  0
  -28.9060  -23.7720   20.3780 C   0  0  2  0  0  0  0  0  0  0  0  0
  -27.7800  -23.5230   21.4090 C   0  0  0  0  0  1  0  0  0  0  0  0
  -29.9800  -21.4020   20.3320 N   0  0  0  0  0  0  0  0  0  0  0  0
  -30.5900  -19.4690   23.4510 C   0  0  0  0  0  3  0  0  0  0  0  0
  -30.2890  -20.2250   21.2040 C   0  0  0  0  0  0  0  0  0  0  0  0
  -30.2640  -20.5050   22.6390 C   0  0  0  0  0  0  0  0  0  0  0  0
  -30.6220  -18.8210   21.0100 C   0  0  0  0  0  0  0  0  0  0  0  0
  -30.9890  -18.0680   22.5560 S   0  0  0  0  0  0  0  0  0  0  0  0
  -29.9320  -21.7420   23.2070 N   0  0  0  0  0  0  0  0  0  0  0  0
  -29.4920  -21.7700   24.1200 H   0  0  0  0  0  0  0  0  0  0  0  0
  -29.5630  -22.4280   22.5590 H   0  0  0  0  0  0  0  0  0  0  0  0
  -30.8580  -17.7420   19.8670 C   0  0  0  0  0  2  0  0  0  0  0  0
  -31.3550  -15.0680   19.9820 C   0  0  0  0  0  0  0  0  0  0  0  0
  -31.1070  -12.7070   19.1500 C   0  0  0  0  0  2  0  0  0  0  0  0
  -30.1660  -12.7000   17.9240 C   0  0  0  0  0  2  0  0  0  0  0  0
  -28.6930  -12.6120   18.3600 C   0  0  0  0  0  2  0  0  0  0  0  0
  -28.3500  -13.6020   19.5040 C   0  0  0  0  0  3  0  0  0  0  0  0
  -29.4020  -13.5690   20.6310 C   0  0  0  0  0  2  0  0  0  0  0  0
  -30.7080  -13.8460   20.0180 N   0  0  0  0  0  0  0  0  0  0  0  0
  -32.5330  -15.1140   19.6170 O   0  0  0  0  0  0  0  0  0  0  0  0
  -30.6000  -16.2310   20.1630 N   0  0  0  0  0  0  0  0  0  0  0  0
  -29.6590  -16.0310   20.4660 H   0  0  0  0  0  0  0  0  0  0  0  0
  -26.0240  -14.3370   20.2960 C   0  0  0  0  0  0  0  0  0  0  0  0
  -24.9180  -13.6290   20.6720 C   0  0  0  0  0  0  0  0  0  0  0  0
  -25.2830  -12.2490   20.6070 C   0  0  0  0  0  0  0  0  0  0  0  0
  -26.9990  -13.3920   20.0160 N   0  0  0  0  0  0  0  0  0  0  0  0
  -26.5600  -12.1310   20.2670 N   0  0  0  0  0  0  0  0  0  0  0  0
  -24.4760  -11.0360   20.7870 C   0  0  0  0  0  0  0  0  0  0  0  0
  -24.8320  -10.0380   21.7210 C   0  0  0  0  0  3  0  0  0  0  0  0
  -24.0260   -8.8930   21.8880 C   0  0  0  0  0  3  0  0  0  0  0  0
  -22.8450   -8.7380   21.1240 C   0  0  0  0  0  0  0  0  0  0  0  0
  -22.5050   -9.7230   20.1800 C   0  0  0  0  0  3  0  0  0  0  0  0
  -23.3140  -10.8590   20.0090 C   0  0  0  0  0  3  0  0  0  0  0  0
  -22.0130   -7.6470   21.2040 O   0  0  0  0  0  0  0  0  0  0  0  0
  -21.8580   -6.9440   22.3720 C   0  0  0  0  0  0  0  0  0  0  0  0
  -21.4400   -7.5660   23.5690 C   0  0  0  0  0  3  0  0  0  0  0  0
  -21.2280   -6.7920   24.7280 C   0  0  0  0  0  3  0  0  0  0  0  0
  -21.4250   -5.3990   24.6900 C   0  0  0  0  0  0  0  0  0  0  0  0
  -21.8420   -4.7780   23.5000 C   0  0  0  0  0  3  0  0  0  0  0  0
  -22.0540   -5.5490   22.3440 C   0  0  0  0  0  0  0  0  0  0  0  0
  -22.4320   -4.9420   21.1910 F   0  0  0  0  0  0  0  0  0  0  0  0
  -21.2130   -4.6530   25.8000 F   0  0  0  0  0  0  0  0  0  0  0  0
  -23.5600  -14.1940   20.9770 C   0  0  0  0  0  0  0  0  0  0  0  0
  -22.8140  -13.5560   21.8700 N   0  0  0  0  0  0  0  0  0  0  0  0
  -23.1720  -15.2390   20.4550 O   0  0  0  0  0  0  0  0  0  0  0  0
  -23.1440  -12.7130   22.3180 H   0  0  0  0  0  0  0  0  0  0  0  0
  -21.9020  -13.9170   22.1120 H   0  0  0  0  0  0  0  0  0  0  0  0
  -26.2790  -15.6970   20.1460 N   0  0  0  0  0  0  0  0  0  0  0  0
  -25.5730  -16.4000   20.3350 H   0  0  0  0  0  0  0  0  0  0  0  0
  -27.1470  -16.0870   19.8000 H   0  0  0  0  0  0  0  0  0  0  0  0
  -29.1670  -25.3960   20.3580 C   0  0  0  0  0  2  0  0  0  0  0  0
  -28.6240  -26.4750   19.4630 O   0  0  0  0  0  0  0  0  0  0  0  0
  -24.7300  -31.6100   22.9500 C   0  0  0  0  0  0  0  0  0  0  0  0
  -27.4560  -27.2380   19.6780 C   0  0  0  0  0  0  0  0  0  0  0  0
  -23.5400  -30.2090   21.3010 C   0  0  0  0  0  3  0  0  0  0  0  0
  -25.0170  -28.7620   19.7880 C   0  0  0  0  0  0  0  0  0  0  0  0
  -26.0550  -30.6470   21.0480 C   0  0  0  0  0  2  0  0  0  0  0  0
  -26.1830  -29.2860   20.3620 C   0  0  0  0  0  0  0  0  0  0  0  0
  -27.4070  -28.5420   20.2860 C   0  0  0  0  0  3  0  0  0  0  0  0
  -26.2620  -26.7760   19.0910 C   0  0  0  0  0  3  0  0  0  0  0  0
  -25.0620  -27.5160   19.1430 C   0  0  0  0  0  3  0  0  0  0  0  0
  -23.7450  -29.5830   19.8960 C   0  0  0  0  0  2  0  0  0  0  0  0
  -24.7950  -30.8420   21.8210 N   0  0  0  0  0  0  0  0  0  0  0  0
  -23.6530  -31.8160   23.5290 O   0  0  0  0  0  0  0  0  0  0  0  0
  -22.9590  -29.1330   22.2490 C   0  0  0  0  0  0  0  0  0  0  0  0
  -21.6450  -28.8740   22.1410 N   0  0  0  0  0  0  0  0  0  0  0  0
  -23.6910  -28.5350   23.0430 O   0  0  0  0  0  0  0  0  0  0  0  0
  -21.1130  -29.4130   21.4710 H   0  0  0  0  0  0  0  0  0  0  0  0
  -18.3760  -27.3910   22.6100 C   0  0  0  0  0  0  0  0  0  0  0  0
  -20.9010  -27.8670   22.9010 C   0  0  0  0  0  3  0  0  0  0  0  0
  -21.1290  -26.4520   22.3210 C   0  0  0  0  0  2  0  0  0  0  0  0
  -20.0660  -26.0410   21.2970 C   0  0  0  0  0  2  0  0  0  0  0  0
  -18.6720  -26.0650   21.9310 C   0  0  0  0  0  2  0  0  0  0  0  0
  -19.4230  -28.2450   23.0500 C   0  0  0  0  0  0  0  0  0  0  0  0
  -19.0930  -29.4800   23.6500 C   0  0  0  0  0  3  0  0  0  0  0  0
  -17.7490  -29.8670   23.8090 C   0  0  0  0  0  3  0  0  0  0  0  0
  -16.7170  -29.0130   23.3830 C   0  0  0  0  0  3  0  0  0  0  0  0
  -17.0320  -27.7760   22.7900 C   0  0  0  0  0  3  0  0  0  0  0  0
  -25.9980  -32.2880   23.5510 C   0  0  0  0  0  3  0  0  0  0  0  0
  -26.6220  -31.4780   24.7540 C   0  0  1  0  0  0  0  0  0  0  0  0
  -25.6020  -31.1200   25.8600 C   0  0  0  0  0  1  0  0  0  0  0  0
  -27.2570  -30.1610   24.2540 C   0  0  0  0  0  1  0  0  0  0  0  0
  -27.7590  -32.3010   25.4030 C   0  0  0  0  0  1  0  0  0  0  0  0
  -25.6180  -33.6420   23.9820 N   0  0  0  0  0  0  0  0  0  0  0  0
  -25.8940  -34.7650   23.3030 C   0  0  0  0  0  0  0  0  0  0  0  0
  -26.5620  -34.7710   22.2650 O   0  0  0  0  0  0  0  0  0  0  0  0
  -25.0220  -33.7070   24.7940 H   0  0  0  0  0  0  0  0  0  0  0  0
  -24.0780  -36.4930   23.0850 C   0  0  0  0  0  1  0  0  0  0  0  0
  -25.3420  -36.0900   23.8630 C   0  0  0  0  0  3  0  0  0  0  0  0
  -27.4370  -37.0110   24.7540 C   0  0  0  0  0  1  0  0  0  0  0  0
  -26.3220  -37.1980   23.8290 N   0  0  0  0  0  0  0  0  0  0  0  0
  -25.8730  -38.0840   24.0480 H   0  0  0  0  0  0  0  0  0  0  0  0
  1  2  1  0
  1  4  1  0
  2  6  1  0
  4  3  1  0
  4  5  1  1
  6  3  1  0
  6  8  1  0
  8  9  1  0
  9 12  1  0
  9  7  2  0
 10  8  2  0
 10 11  1  0
 11  7  1  0
 12 13  1  0
 14 12  1  0
 15 24  1  0
 15 10  1  0
 16 22  1  0
 16 24  1  0
 17 22  1  0
 18 19  1  0
 18 17  1  0
 20 19  1  0
 20 29  1  0
 20 21  1  0
 22 21  1  0
 23 16  2  0
 24 25  1  0
 26 27  2  0
 27 46  1  0
 28 27  1  0
 28 31  1  0
 29 30  1  0
 29 26  1  0
 30 28  2  0
 31 32  1  0
 32 33  2  0
 34 37  1  0
 34 33  1  0
 35 34  2  0
 36 35  1  0
 36 31  2  0
 37 38  1  0
 38 39  1  0
 39 40  2  0
 41 40  1  0
 41 45  1  0
 42 41  2  0
 43 38  2  0
 43 42  1  0
 44 43  1  0
 46 47  1  0
 47 50  1  0
 47 49  1  0
 48 46  2  0
 51 26  1  0
 51 52  1  0
 53 51  1  0
 54  4  1  0
 55 57  1  0
 55 54  1  0
 56 67  2  0
 57 62  1  0
 58 66  1  0
 58 68  1  0
 59 65  1  0
 59 61  1  0
 60 66  1  0
 61 60  1  0
 62 61  2  0
 63 64  1  0
 63 57  2  0
 64 59  2  0
 65 58  1  0
 66 56  1  0
 68 70  2  0
 69 68  1  0
 71 69  1  0
 72 81  2  0
 72 77  1  0
 73 69  1  0
 73 77  1  0
 74 73  1  0
 75 76  1  0
 75 74  1  0
 76 72  1  0
 77 78  2  0
 78 79  1  0
 80 79  2  0
 81 80  1  0
 82 56  1  0
 82 87  1  0
 82 83  1  0
 83 86  1  1
 83 84  1  0
 85 83  1  0
 87 90  1  0
 88 92  1  0
 88 87  1  0
 89 88  2  0
 92 91  1  0
 94 92  1  0
 94 95  1  0
 94 93  1  0
M  ISO  4  16 100  24 100  54 101  55 101
M  END
>  <TORSDO>  (41) 
F 20

>  <SCORE>  (41) 
-11.854

>  <name>  (41) 
40

>  <ligand_id>  (41) 
40

>  <original_smiles>  (41) 
[H]c1sc(C([H])([H])N([H])C(=O)N2C([H])([H])C([H])([H])C([H])([H])C([H])(n3nc(-c4c([H])c([H])c(Oc5c([H])c([H])c(F)c([H])c5F)c([H])c4[H])c(C(=O)N([H])[H])c3N([H])[H])C2([H])[H])c(N2C([H])([H])C([H])([H])C(C([H])([H])[H])(C([H])([H])Oc3c([H])c([H])c4c(c3[H])C([H])([H])N(C(=O)C([H])(N([H])C(=O)C([H])(N([H])C([H])([H])[H])C([H])([H])[H])C(C([H])([H])[H])(C([H])([H])[H])C([H])([H])[H])C([H])(C(=O)N([H])C3([H])c5c([H])c([H])c([H])c([H])c5C([H])([H])C([H])([H])C3([H])[H])C4([H])[H])C2([H])[H])c1N([H])[H]

>  <smiles>  (41) 
[H]c1sc(C([H])([H])N([H])C(=O)N2C([H])([H])C([H])([H])C([H])([H])C([H])(n3nc(-c4c([H])c([H])c(Oc5c([H])c([H])c(F)c([H])c5F)c([H])c4[H])c(C(=O)N([H])[H])c3N([H])[H])C2([H])[H])c(N2C([H])([H])C([H])([H])C(C([H])([H])[H])(C([H])([H])Oc3c([H])c([H])c4c(c3[H])C([H])([H])N(C(=O)C([H])(N([H])C(=O)C([H])(N([H])C([H])([H])[H])C([H])([H])[H])C(C([H])([H])[H])(C([H])([H])[H])C([H])([H])[H])C([H])(C(=O)N([H])C3([H])c5c([H])c([H])c([H])c([H])c5C([H])([H])C([H])([H])C3([H])[H])C4([H])[H])C2([H])[H])c1N([H])[H]

$$$$
41:0:0
     RDKit          3D

 92100  0  0  1  0  0  0  0  0999 V2000
  -30.6250  -22.6260   19.1310 C   0  0  0  0  0  1  0  0  0  0  0  0
  -28.2540  -22.1330   18.4410 C   0  0  0  0  0  1  0  0  0  0  0  0
  -29.1830  -22.3970   19.6420 C   0  0  2  0  0  0  0  0  0  0  0  0
  -28.6950  -23.7700   20.3460 C   0  0  0  0  0  0  0  0  0  0  0  0
  -28.4850  -23.7700   21.5630 O   0  0  0  0  0  0  0  0  0  0  0  0
  -28.4650  -25.1150   19.5060 C   0  0  0  0  0  2  0  0  0  0  0  0
  -28.3460  -26.4140   20.2450 O   0  0  0  0  0  0  0  0  0  0  0  0
  -24.6060  -31.8450   23.2250 C   0  0  0  0  0  0  0  0  0  0  0  0
  -27.2160  -27.2560   20.1660 C   0  0  0  0  0  0  0  0  0  0  0  0
  -23.4050  -30.4500   21.5800 C   0  0  0  0  0  3  0  0  0  0  0  0
  -24.8560  -28.8950   20.1550 C   0  0  0  0  0  0  0  0  0  0  0  0
  -25.9500  -30.7530   21.4100 C   0  0  0  0  0  2  0  0  0  0  0  0
  -26.0250  -29.3740   20.7580 C   0  0  0  0  0  0  0  0  0  0  0  0
  -27.2030  -28.5650   20.7540 C   0  0  0  0  0  3  0  0  0  0  0  0
  -26.0140  -26.8320   19.5550 C   0  0  0  0  0  3  0  0  0  0  0  0
  -24.8540  -27.6300   19.5480 C   0  0  0  0  0  3  0  0  0  0  0  0
  -23.6210  -29.7740   20.2000 C   0  0  0  0  0  2  0  0  0  0  0  0
  -24.6730  -31.0340   22.1270 N   0  0  0  0  0  0  0  0  0  0  0  0
  -23.5210  -32.1250   23.7550 O   0  0  0  0  0  0  0  0  0  0  0  0
  -22.7350  -29.4350   22.5360 C   0  0  0  0  0  0  0  0  0  0  0  0
  -21.4080  -29.2660   22.4080 N   0  0  0  0  0  0  0  0  0  0  0  0
  -23.4100  -28.8020   23.3530 O   0  0  0  0  0  0  0  0  0  0  0  0
  -20.9240  -29.8310   21.7240 H   0  0  0  0  0  0  0  0  0  0  0  0
  -18.0220  -28.0910   22.9030 C   0  0  0  0  0  0  0  0  0  0  0  0
  -20.5830  -28.3310   23.1750 C   0  0  0  0  0  3  0  0  0  0  0  0
  -20.6740  -26.9010   22.5910 C   0  0  0  0  0  2  0  0  0  0  0  0
  -19.5700  -26.5910   21.5760 C   0  0  0  0  0  2  0  0  0  0  0  0
  -18.1890  -26.7420   22.2230 C   0  0  0  0  0  2  0  0  0  0  0  0
  -19.1470  -28.8430   23.3360 C   0  0  0  0  0  0  0  0  0  0  0  0
  -18.9370  -30.1050   23.9340 C   0  0  0  0  0  3  0  0  0  0  0  0
  -17.6370  -30.6140   24.1030 C   0  0  0  0  0  3  0  0  0  0  0  0
  -16.5260  -29.8580   23.6880 C   0  0  0  0  0  3  0  0  0  0  0  0
  -16.7210  -28.5990   23.0930 C   0  0  0  0  0  3  0  0  0  0  0  0
  -25.8880  -32.4730   23.8540 C   0  0  0  0  0  3  0  0  0  0  0  0
  -26.3940  -31.7010   25.1340 C   0  0  1  0  0  0  0  0  0  0  0  0
  -25.2930  -31.4660   26.1950 C   0  0  0  0  0  1  0  0  0  0  0  0
  -26.9770  -30.3230   24.7460 C   0  0  0  0  0  1  0  0  0  0  0  0
  -27.5440  -32.4920   25.8030 C   0  0  0  0  0  1  0  0  0  0  0  0
  -25.5800  -33.8720   24.1860 N   0  0  0  0  0  0  0  0  0  0  0  0
  -25.9080  -34.9260   23.4270 C   0  0  0  0  0  0  0  0  0  0  0  0
  -26.5720  -34.8230   22.3920 O   0  0  0  0  0  0  0  0  0  0  0  0
  -24.9980  -34.0260   24.9960 H   0  0  0  0  0  0  0  0  0  0  0  0
  -24.1760  -36.7180   23.0840 C   0  0  0  0  0  1  0  0  0  0  0  0
  -25.4220  -36.3150   23.8880 C   0  0  0  0  0  3  0  0  0  0  0  0
  -27.5590  -37.2020   24.7110 C   0  0  0  0  0  1  0  0  0  0  0  0
  -26.4540  -37.3680   23.7710 N   0  0  0  0  0  0  0  0  0  0  0  0
  -26.0480  -38.2890   23.9180 H   0  0  0  0  0  0  0  0  0  0  0  0
  -29.1470  -21.1610   20.5210 N   0  0  0  0  0  0  0  0  0  0  0  0
  -28.5410  -21.2940   21.3280 H   0  0  0  0  0  0  0  0  0  0  0  0
  -30.5610  -14.6810   19.9880 C   0  0  0  0  0  0  0  0  0  0  0  0
  -30.2910  -12.4410   18.9240 C   0  0  0  0  0  2  0  0  0  0  0  0
  -29.2720  -12.5790   17.7700 C   0  0  0  0  0  2  0  0  0  0  0  0
  -27.8290  -12.4120   18.2860 C   0  0  0  0  0  2  0  0  0  0  0  0
  -27.5520  -13.2500   19.5620 C   0  0  0  0  0  3  0  0  0  0  0  0
  -28.6800  -13.0860   20.6050 C   0  0  0  0  0  2  0  0  0  0  0  0
  -29.9470  -13.4490   19.9510 N   0  0  0  0  0  0  0  0  0  0  0  0
  -31.6950  -14.8190   19.5170 O   0  0  0  0  0  0  0  0  0  0  0  0
  -30.3830  -19.2490   19.2450 C   0  0  0  0  0  3  0  0  0  0  0  0
  -29.5350  -19.7920   20.2020 C   0  0  0  0  0  0  0  0  0  0  0  0
  -29.8750  -17.2060   20.2470 C   0  0  0  0  0  0  0  0  0  0  0  0
  -30.5680  -17.8330   19.2830 N   0  0  0  0  0  0  0  0  0  0  0  0
  -29.8120  -15.7440   20.4530 N   0  0  0  0  0  0  0  0  0  0  0  0
  -28.9300  -18.4240   21.1790 S   0  0  0  0  0  0  0  0  0  0  0  0
  -28.9930  -15.4480   20.9590 H   0  0  0  0  0  0  0  0  0  0  0  0
  -25.2180  -13.8470   20.4500 C   0  0  0  0  0  0  0  0  0  0  0  0
  -24.1710  -13.0730   20.8720 C   0  0  0  0  0  0  0  0  0  0  0  0
  -24.6170  -11.7190   20.7770 C   0  0  0  0  0  0  0  0  0  0  0  0
  -26.2360  -12.9640   20.1270 N   0  0  0  0  0  0  0  0  0  0  0  0
  -25.8840  -11.6770   20.3840 N   0  0  0  0  0  0  0  0  0  0  0  0
  -23.8920  -10.4590   20.9850 C   0  0  0  0  0  0  0  0  0  0  0  0
  -24.3600   -9.4780   21.8870 C   0  0  0  0  0  3  0  0  0  0  0  0
  -23.6360   -8.2820   22.0830 C   0  0  0  0  0  3  0  0  0  0  0  0
  -22.4290   -8.0600   21.3770 C   0  0  0  0  0  0  0  0  0  0  0  0
  -21.9810   -9.0290   20.4630 C   0  0  0  0  0  3  0  0  0  0  0  0
  -22.7050  -10.2160   20.2650 C   0  0  0  0  0  3  0  0  0  0  0  0
  -21.6730   -6.9180   21.4850 O   0  0  0  0  0  0  0  0  0  0  0  0
  -21.6540   -6.1720   22.6360 C   0  0  0  0  0  0  0  0  0  0  0  0
  -21.2540   -6.7200   23.8730 C   0  0  0  0  0  3  0  0  0  0  0  0
  -21.1840   -5.9000   25.0170 C   0  0  0  0  0  3  0  0  0  0  0  0
  -21.5050   -4.5320   24.9240 C   0  0  0  0  0  0  0  0  0  0  0  0
  -21.8990   -3.9830   23.6910 C   0  0  0  0  0  3  0  0  0  0  0  0
  -21.9700   -4.8010   22.5500 C   0  0  0  0  0  0  0  0  0  0  0  0
  -22.3300   -4.2620   21.3600 F   0  0  0  0  0  0  0  0  0  0  0  0
  -21.4300   -3.7420   26.0210 F   0  0  0  0  0  0  0  0  0  0  0  0
  -22.7990  -13.5550   21.2460 C   0  0  0  0  0  0  0  0  0  0  0  0
  -22.1240  -12.8450   22.1420 N   0  0  0  0  0  0  0  0  0  0  0  0
  -22.3360  -14.5940   20.7770 O   0  0  0  0  0  0  0  0  0  0  0  0
  -22.5120  -12.0040   22.5440 H   0  0  0  0  0  0  0  0  0  0  0  0
  -21.2050  -13.1480   22.4330 H   0  0  0  0  0  0  0  0  0  0  0  0
  -25.3820  -15.2210   20.2930 N   0  0  0  0  0  0  0  0  0  0  0  0
  -24.6240  -15.8730   20.4610 H   0  0  0  0  0  0  0  0  0  0  0  0
  -26.1880  -15.6550   19.8650 H   0  0  0  0  0  0  0  0  0  0  0  0
  3  1  1  6
  2  3  1  0
  3  4  1  0
  3 48  1  0
  4  5  2  0
  6  7  1  0
  6  4  1  0
  8 19  2  0
  9  7  1  0
  9 14  1  0
 10 18  1  0
 10 20  1  0
 11 17  1  0
 11 13  1  0
 12 18  1  0
 13 12  1  0
 14 13  2  0
 15  9  2  0
 16 15  1  0
 16 11  2  0
 17 10  1  0
 18  8  1  0
 20 22  2  0
 21 20  1  0
 23 21  1  0
 24 33  2  0
 24 29  1  0
 25 21  1  0
 25 29  1  0
 26 25  1  0
 27 28  1  0
 27 26  1  0
 28 24  1  0
 29 30  2  0
 30 31  1  0
 32 31  2  0
 33 32  1  0
 34  8  1  0
 34 39  1  0
 34 35  1  0
 35 38  1  1
 35 36  1  0
 37 35  1  0
 39 42  1  0
 40 44  1  0
 40 39  1  0
 41 40  2  0
 44 43  1  0
 46 44  1  0
 46 47  1  0
 46 45  1  0
 48 49  1  0
 50 62  1  0
 51 56  1  0
 52 53  1  0
 52 51  1  0
 54 53  1  0
 54 68  1  0
 54 55  1  0
 56 50  1  0
 56 55  1  0
 57 50  2  0
 58 61  1  0
 58 59  2  0
 59 48  1  0
 59 63  1  0
 60 62  1  0
 60 63  1  0
 61 60  2  0
 62 64  1  0
 65 66  2  0
 66 85  1  0
 67 66  1  0
 67 70  1  0
 68 69  1  0
 68 65  1  0
 69 67  2  0
 70 71  1  0
 71 72  2  0
 73 76  1  0
 73 72  1  0
 74 73  2  0
 75 74  1  0
 75 70  2  0
 76 77  1  0
 77 78  1  0
 78 79  2  0
 80 79  1  0
 80 84  1  0
 81 80  2  0
 82 77  2  0
 82 81  1  0
 83 82  1  0
 85 86  1  0
 86 89  1  0
 86 88  1  0
 87 85  2  0
 90 65  1  0
 90 91  1  0
 92 90  1  0
M  ISO  4   6 101   7 101  50 100  62 100
M  END
>  <TORSDO>  (42) 
F 19

>  <SCORE>  (42) 
-13.582

>  <name>  (42) 
41

>  <ligand_id>  (42) 
41

>  <original_smiles>  (42) 
[H]c1nc(N([H])C(=O)N2C([H])([H])C([H])([H])C([H])([H])C([H])(n3nc(-c4c([H])c([H])c(Oc5c([H])c([H])c(F)c([H])c5F)c([H])c4[H])c(C(=O)N([H])[H])c3N([H])[H])C2([H])[H])sc1N([H])C(C(=O)C([H])([H])Oc1c([H])c([H])c2c(c1[H])C([H])([H])N(C(=O)C([H])(N([H])C(=O)C([H])(N([H])C([H])([H])[H])C([H])([H])[H])C(C([H])([H])[H])(C([H])([H])[H])C([H])([H])[H])C([H])(C(=O)N([H])C1([H])c3c([H])c([H])c([H])c([H])c3C([H])([H])C([H])([H])C1([H])[H])C2([H])[H])(C([H])([H])[H])C([H])([H])[H]

>  <smiles>  (42) 
[H]c1nc(N([H])C(=O)N2C([H])([H])C([H])([H])C([H])([H])C([H])(n3nc(-c4c([H])c([H])c(Oc5c([H])c([H])c(F)c([H])c5F)c([H])c4[H])c(C(=O)N([H])[H])c3N([H])[H])C2([H])[H])sc1N([H])C(C(=O)C([H])([H])Oc1c([H])c([H])c2c(c1[H])C([H])([H])N(C(=O)C([H])(N([H])C(=O)C([H])(N([H])C([H])([H])[H])C([H])([H])[H])C(C([H])([H])[H])(C([H])([H])[H])C([H])([H])[H])C([H])(C(=O)N([H])C1([H])c3c([H])c([H])c([H])c([H])c3C([H])([H])C([H])([H])C1([H])[H])C2([H])[H])(C([H])([H])[H])C([H])([H])[H]

$$$$
42:0:0
     RDKit          3D

 97106  0  0  1  0  0  0  0  0999 V2000
  -30.5620  -18.4900   19.6700 C   0  0  0  0  0  3  0  0  0  0  0  0
  -29.6700  -19.6220   19.2400 C   0  0  0  0  0  0  0  0  0  0  0  0
  -28.4290  -19.1030   18.9360 C   0  0  0  0  0  0  0  0  0  0  0  0
  -29.9930  -17.1850   19.6470 C   0  0  0  0  0  0  0  0  0  0  0  0
  -28.3530  -17.3690   19.0880 S   0  0  0  0  0  0  0  0  0  0  0  0
  -31.1330  -14.7730   19.5810 C   0  0  0  0  0  0  0  0  0  0  0  0
  -31.0060  -12.3290   18.9870 C   0  0  0  0  0  2  0  0  0  0  0  0
  -30.0040  -12.1580   17.8190 C   0  0  0  0  0  2  0  0  0  0  0  0
  -28.5530  -12.0560   18.3340 C   0  0  0  0  0  2  0  0  0  0  0  0
  -28.2210  -13.1450   19.3860 C   0  0  0  0  0  3  0  0  0  0  0  0
  -29.3250  -13.2230   20.4650 C   0  0  0  0  0  2  0  0  0  0  0  0
  -30.5960  -13.5130   19.7760 N   0  0  0  0  0  0  0  0  0  0  0  0
  -32.2570  -14.9050   19.0860 O   0  0  0  0  0  0  0  0  0  0  0  0
  -30.2760  -15.8200   19.8930 N   0  0  0  0  0  0  0  0  0  0  0  0
  -29.5100  -15.4030   20.4010 H   0  0  0  0  0  0  0  0  0  0  0  0
  -25.9620  -13.9150   20.3360 C   0  0  0  0  0  0  0  0  0  0  0  0
  -24.8570  -13.2240   20.7520 C   0  0  0  0  0  0  0  0  0  0  0  0
  -25.1800  -11.8410   20.6040 C   0  0  0  0  0  0  0  0  0  0  0  0
  -26.8930  -12.9570   19.9660 N   0  0  0  0  0  0  0  0  0  0  0  0
  -26.4310  -11.7000   20.1860 N   0  0  0  0  0  0  0  0  0  0  0  0
  -24.3480  -10.6420   20.7800 C   0  0  0  0  0  0  0  0  0  0  0  0
  -24.7310   -9.5980   21.6500 C   0  0  0  0  0  3  0  0  0  0  0  0
  -23.9050   -8.4660   21.8180 C   0  0  0  0  0  3  0  0  0  0  0  0
  -22.6810   -8.3710   21.1150 C   0  0  0  0  0  0  0  0  0  0  0  0
  -22.3150   -9.4020   20.2310 C   0  0  0  0  0  3  0  0  0  0  0  0
  -23.1400  -10.5260   20.0620 C   0  0  0  0  0  3  0  0  0  0  0  0
  -21.8280   -7.2970   21.1940 O   0  0  0  0  0  0  0  0  0  0  0  0
  -21.7040   -6.5600   22.3460 C   0  0  0  0  0  0  0  0  0  0  0  0
  -21.3200   -7.1510   23.5690 C   0  0  0  0  0  3  0  0  0  0  0  0
  -21.1370   -6.3480   24.7130 C   0  0  0  0  0  3  0  0  0  0  0  0
  -21.3270   -4.9550   24.6320 C   0  0  0  0  0  0  0  0  0  0  0  0
  -21.7050   -4.3640   23.4150 C   0  0  0  0  0  3  0  0  0  0  0  0
  -21.8900   -5.1650   22.2740 C   0  0  0  0  0  0  0  0  0  0  0  0
  -22.2330   -4.5880   21.0970 F   0  0  0  0  0  0  0  0  0  0  0  0
  -21.1440   -4.1820   25.7270 F   0  0  0  0  0  0  0  0  0  0  0  0
  -23.5400  -13.8130   21.1690 C   0  0  0  0  0  0  0  0  0  0  0  0
  -22.8330  -13.1500   22.0780 N   0  0  0  0  0  0  0  0  0  0  0  0
  -23.1530  -14.8930   20.7250 O   0  0  0  0  0  0  0  0  0  0  0  0
  -23.1590  -12.2730   22.4570 H   0  0  0  0  0  0  0  0  0  0  0  0
  -21.9530  -13.5260   22.4010 H   0  0  0  0  0  0  0  0  0  0  0  0
  -26.2440  -15.2720   20.2140 N   0  0  0  0  0  0  0  0  0  0  0  0
  -25.5420  -15.9790   20.4020 H   0  0  0  0  0  0  0  0  0  0  0  0
  -27.0760  -15.6430   19.7750 H   0  0  0  0  0  0  0  0  0  0  0  0
  -27.1960  -19.7440   18.5420 C   0  0  0  0  0  0  0  0  0  0  0  0
  -26.5530  -19.3440   17.4410 N   0  0  0  0  0  4  0  0  0  0  0  0
  -26.6500  -20.6970   19.3100 N   0  0  0  0  0  0  0  0  0  0  0  0
  -26.9510  -18.6100   16.8720 H   0  0  0  0  0  0  0  0  0  0  0  0
  -25.6780  -19.7340   17.1310 H   0  0  0  0  0  0  0  0  0  0  0  0
  -27.1080  -20.9620   20.1690 H   0  0  0  0  0  0  0  0  0  0  0  0
  -25.7670  -21.1340   19.1030 H   0  0  0  0  0  0  0  0  0  0  0  0
  -30.9710  -23.2660   19.5580 C   0  0  0  0  0  2  0  0  0  0  0  0
  -31.2500  -21.7460   19.2820 C   0  0  0  0  0  2  0  0  0  0  0  0
  -28.9580  -22.1970   19.0270 C   0  0  0  0  0  2  0  0  0  0  0  0
  -29.6450  -23.6270   18.8550 C   0  0  0  0  0  3  0  0  0  0  0  0
  -29.9620  -21.0760   19.1010 N   0  0  0  0  0  0  0  0  0  0  0  0
  -28.8100  -24.9520   19.3460 C   0  0  0  0  0  2  0  0  0  0  0  0
  -28.8910  -26.3500   18.7710 O   0  0  0  0  0  0  0  0  0  0  0  0
  -25.2350  -30.9330   23.1180 C   0  0  0  0  0  0  0  0  0  0  0  0
  -27.8080  -27.2440   18.9830 C   0  0  0  0  0  0  0  0  0  0  0  0
  -24.0350  -30.0470   21.1530 C   0  0  0  0  0  3  0  0  0  0  0  0
  -25.4810  -28.8930   19.3790 C   0  0  0  0  0  0  0  0  0  0  0  0
  -26.5860  -30.3330   21.0870 C   0  0  0  0  0  2  0  0  0  0  0  0
  -26.6530  -29.1700   20.0960 C   0  0  0  0  0  0  0  0  0  0  0  0
  -27.8210  -28.3630   19.8870 C   0  0  0  0  0  3  0  0  0  0  0  0
  -26.6160  -27.0470   18.2530 C   0  0  0  0  0  3  0  0  0  0  0  0
  -25.4690  -27.8430   18.4490 C   0  0  0  0  0  3  0  0  0  0  0  0
  -24.2620  -29.7560   19.6460 C   0  0  0  0  0  2  0  0  0  0  0  0
  -25.3040  -30.4400   21.8460 N   0  0  0  0  0  0  0  0  0  0  0  0
  -24.1480  -31.0820   23.6960 O   0  0  0  0  0  0  0  0  0  0  0  0
  -23.3350  -28.8280   21.8040 C   0  0  0  0  0  0  0  0  0  0  0  0
  -22.0040  -28.7310   21.6380 N   0  0  0  0  0  0  0  0  0  0  0  0
  -23.9890  -27.9840   22.4200 O   0  0  0  0  0  0  0  0  0  0  0  0
  -21.5360  -29.4680   21.1270 H   0  0  0  0  0  0  0  0  0  0  0  0
  -18.5810  -27.5770   21.8710 C   0  0  0  0  0  0  0  0  0  0  0  0
  -21.1540  -27.6430   22.1260 C   0  0  0  0  0  3  0  0  0  0  0  0
  -21.1770  -26.4410   21.1550 C   0  0  0  0  0  2  0  0  0  0  0  0
  -20.0440  -26.4750   20.1250 C   0  0  0  0  0  2  0  0  0  0  0  0
  -18.6820  -26.4790   20.8250 C   0  0  0  0  0  2  0  0  0  0  0  0
  -19.7420  -28.1340   22.4700 C   0  0  0  0  0  0  0  0  0  0  0  0
  -19.5930  -29.1740   23.4130 C   0  0  0  0  0  3  0  0  0  0  0  0
  -18.3150  -29.6560   23.7590 C   0  0  0  0  0  3  0  0  0  0  0  0
  -17.1700  -29.0900   23.1750 C   0  0  0  0  0  3  0  0  0  0  0  0
  -17.3030  -28.0510   22.2360 C   0  0  0  0  0  3  0  0  0  0  0  0
  -26.5170  -31.3510   23.9010 C   0  0  0  0  0  3  0  0  0  0  0  0
  -27.0070  -30.2510   24.9220 C   0  0  1  0  0  0  0  0  0  0  0  0
  -25.9000  -29.7530   25.8800 C   0  0  0  0  0  1  0  0  0  0  0  0
  -27.5700  -29.0200   24.1740 C   0  0  0  0  0  1  0  0  0  0  0  0
  -28.1640  -30.8120   25.7810 C   0  0  0  0  0  1  0  0  0  0  0  0
  -26.2220  -32.6090   24.6030 N   0  0  0  0  0  0  0  0  0  0  0  0
  -26.6230  -33.8200   24.1960 C   0  0  0  0  0  0  0  0  0  0  0  0
  -27.3480  -33.9900   23.2130 O   0  0  0  0  0  0  0  0  0  0  0  0
  -25.5840  -32.5510   25.3840 H   0  0  0  0  0  0  0  0  0  0  0  0
  -24.9880  -35.7320   24.2740 C   0  0  0  0  0  1  0  0  0  0  0  0
  -26.1450  -35.0380   25.0120 C   0  0  0  0  0  3  0  0  0  0  0  0
  -28.2280  -35.5250   26.2170 C   0  0  0  0  0  1  0  0  0  0  0  0
  -27.2170  -36.0210   25.2870 N   0  0  0  0  0  0  0  0  0  0  0  0
  -26.8290  -36.8780   25.6700 H   0  0  0  0  0  0  0  0  0  0  0  0
  2  1  1  0
  3  5  1  0
  3  2  2  0
  4  1  2  0
  4 14  1  0
  5  4  1  0
  6 12  1  0
  6 14  1  0
  7 12  1  0
  8  9  1  0
  8  7  1  0
 10  9  1  0
 10 19  1  0
 10 11  1  0
 12 11  1  0
 13  6  2  0
 14 15  1  0
 16 17  2  0
 17 36  1  0
 18 17  1  0
 18 21  1  0
 19 20  1  0
 19 16  1  0
 20 18  2  0
 21 22  1  0
 22 23  2  0
 24 27  1  0
 24 23  1  0
 25 24  2  0
 26 25  1  0
 26 21  2  0
 27 28  1  0
 28 29  1  0
 29 30  2  0
 31 30  1  0
 31 35  1  0
 32 31  2  0
 33 28  2  0
 33 32  1  0
 34 33  1  0
 36 37  1  0
 37 40  1  0
 37 39  1  0
 38 36  2  0
 41 16  1  0
 41 42  1  0
 43 41  1  0
 44  3  1  0
 44 46  1  0
 45 44  2  0
 46 49  1  0
 47 45  1  0
 48 45  1  0
 50 46  1  0
 52 51  1  0
 53 55  1  0
 54 53  1  0
 54 56  1  0
 54 51  1  0
 55  2  1  0
 55 52  1  0
 57 59  1  0
 57 56  1  0
 58 69  2  0
 59 64  1  0
 60 70  1  0
 60 68  1  0
 61 67  1  0
 61 63  1  0
 62 68  1  0
 63 62  1  0
 64 63  2  0
 65 66  1  0
 65 59  2  0
 66 61  2  0
 67 60  1  0
 68 58  1  0
 70 72  2  0
 71 70  1  0
 73 71  1  0
 74 83  2  0
 74 79  1  0
 75 71  1  0
 75 79  1  0
 76 75  1  0
 77 78  1  0
 77 76  1  0
 78 74  1  0
 79 80  2  0
 80 81  1  0
 82 81  2  0
 83 82  1  0
 84 58  1  0
 84 89  1  0
 84 85  1  0
 85 88  1  1
 85 86  1  0
 87 85  1  0
 89 92  1  0
 90 89  1  0
 90 94  1  0
 91 90  2  0
 94 93  1  0
 94 96  1  0
 96 97  1  0
 96 95  1  0
M  ISO  4   6 100  14 100  56 101  57 101
M  END
>  <TORSDO>  (43) 
F 19

>  <SCORE>  (43) 
-10.657

>  <name>  (43) 
42

>  <ligand_id>  (43) 
42

>  <original_smiles>  (43) 
[H]c1c([H])c([H])c2c(c1[H])C([H])([H])C([H])([H])C([H])([H])C2([H])N([H])C(=O)C1([H])N(C(=O)C([H])(N([H])C(=O)C([H])(N([H])C([H])([H])[H])C([H])([H])[H])C(C([H])([H])[H])(C([H])([H])[H])C([H])([H])[H])C([H])([H])c2c([H])c(OC([H])([H])C3([H])C([H])([H])N(c4c(C(N([H])[H])=[N+]([H])[H])sc(N([H])C(=O)N5C([H])([H])C([H])([H])C([H])([H])C([H])(n6nc(-c7c([H])c([H])c(Oc8c([H])c([H])c(F)c([H])c8F)c([H])c7[H])c(C(=O)N([H])[H])c6N([H])[H])C5([H])[H])c4[H])C([H])([H])C3([H])[H])c([H])c([H])c2C1([H])[H]

>  <smiles>  (43) 
[H]c1c([H])c([H])c2c(c1[H])C([H])([H])C([H])([H])C([H])([H])C2([H])N([H])C(=O)C1([H])N(C(=O)C([H])(N([H])C(=O)C([H])(N([H])C([H])([H])[H])C([H])([H])[H])C(C([H])([H])[H])(C([H])([H])[H])C([H])([H])[H])C([H])([H])c2c([H])c(OC([H])([H])C3([H])C([H])([H])N(c4c(C(N([H])[H])=[N+]([H])[H])sc(N([H])C(=O)N5C([H])([H])C([H])([H])C([H])([H])C([H])(n6nc(-c7c([H])c([H])c(Oc8c([H])c([H])c(F)c([H])c8F)c([H])c7[H])c(C(=O)N([H])[H])c6N([H])[H])C5([H])[H])c4[H])C([H])([H])C3([H])[H])c([H])c([H])c2C1([H])[H]

$$$$
43:0:0
     RDKit          3D

100109  0  0  1  0  0  0  0  0999 V2000
  -30.0150  -21.7720   21.3610 C   0  0  0  0  0  0  0  0  0  0  0  0
  -30.6570  -20.6240   21.0400 N   0  0  0  0  0  0  0  0  0  0  0  0
  -28.8570  -21.7760   21.7900 O   0  0  0  0  0  0  0  0  0  0  0  0
  -31.6560  -20.6690   20.8750 H   0  0  0  0  0  0  0  0  0  0  0  0
  -29.5820  -25.2640   21.5160 C   0  0  0  0  0  0  0  0  0  0  0  0
  -28.9470  -26.4380   21.3100 C   0  0  0  0  0  3  0  0  0  0  0  0
  -30.0640  -24.8050   22.8670 C   0  0  0  0  0  2  0  0  0  0  0  0
  -29.9380  -24.2180   20.4750 C   0  0  0  0  0  2  0  0  0  0  0  0
  -31.1380  -23.7540   22.5610 C   0  0  0  0  0  2  0  0  0  0  0  0
  -30.7690  -23.1170   21.2070 C   0  0  0  0  0  3  0  0  0  0  0  0
  -28.4940  -26.8670   20.0890 O   0  0  0  0  0  0  0  0  0  0  0  0
  -24.5690  -31.9510   23.1990 C   0  0  0  0  0  0  0  0  0  0  0  0
  -27.3350  -27.6070   20.1020 C   0  0  0  0  0  0  0  0  0  0  0  0
  -23.3980  -30.5370   21.5350 C   0  0  0  0  0  3  0  0  0  0  0  0
  -24.8990  -29.0410   20.1080 C   0  0  0  0  0  0  0  0  0  0  0  0
  -25.9130  -30.9580   21.3550 C   0  0  0  0  0  2  0  0  0  0  0  0
  -26.0370  -29.5920   20.7120 C   0  0  0  0  0  0  0  0  0  0  0  0
  -27.2570  -28.8810   20.7110 C   0  0  0  0  0  3  0  0  0  0  0  0
  -26.1880  -27.0670   19.4880 C   0  0  0  0  0  3  0  0  0  0  0  0
  -24.9680  -27.7750   19.4960 C   0  0  0  0  0  3  0  0  0  0  0  0
  -23.6270  -29.8600   20.1560 C   0  0  0  0  0  2  0  0  0  0  0  0
  -24.6440  -31.1620   22.0890 N   0  0  0  0  0  0  0  0  0  0  0  0
  -23.4810  -32.2020   23.7330 O   0  0  0  0  0  0  0  0  0  0  0  0
  -22.7600  -29.5000   22.4870 C   0  0  0  0  0  0  0  0  0  0  0  0
  -21.4390  -29.2970   22.3450 N   0  0  0  0  0  0  0  0  0  0  0  0
  -23.4460  -28.8810   23.3020 O   0  0  0  0  0  0  0  0  0  0  0  0
  -20.9460  -29.8540   21.6620 H   0  0  0  0  0  0  0  0  0  0  0  0
  -18.0770  -28.0640   22.8140 C   0  0  0  0  0  0  0  0  0  0  0  0
  -20.6320  -28.3350   23.0960 C   0  0  0  0  0  3  0  0  0  0  0  0
  -20.7480  -26.9170   22.4900 C   0  0  0  0  0  2  0  0  0  0  0  0
  -19.6490  -26.6030   21.4720 C   0  0  0  0  0  2  0  0  0  0  0  0
  -18.2640  -26.7290   22.1140 C   0  0  0  0  0  2  0  0  0  0  0  0
  -19.1890  -28.8270   23.2580 C   0  0  0  0  0  0  0  0  0  0  0  0
  -18.9600  -30.0820   23.8640 C   0  0  0  0  0  3  0  0  0  0  0  0
  -17.6510  -30.5700   24.0370 C   0  0  0  0  0  3  0  0  0  0  0  0
  -16.5530  -29.8000   23.6160 C   0  0  0  0  0  3  0  0  0  0  0  0
  -16.7670  -28.5500   23.0080 C   0  0  0  0  0  3  0  0  0  0  0  0
  -25.8430  -32.5960   23.8330 C   0  0  0  0  0  3  0  0  0  0  0  0
  -26.3540  -31.8300   25.1170 C   0  0  1  0  0  0  0  0  0  0  0  0
  -25.2460  -31.5740   26.1640 C   0  0  0  0  0  1  0  0  0  0  0  0
  -26.9630  -30.4620   24.7330 C   0  0  0  0  0  1  0  0  0  0  0  0
  -27.4800  -32.6420   25.8010 C   0  0  0  0  0  1  0  0  0  0  0  0
  -25.5200  -33.9930   24.1550 N   0  0  0  0  0  0  0  0  0  0  0  0
  -25.8700  -35.0470   23.4020 C   0  0  0  0  0  0  0  0  0  0  0  0
  -26.5720  -34.9440   22.3950 O   0  0  0  0  0  0  0  0  0  0  0  0
  -24.9020  -34.1490   24.9360 H   0  0  0  0  0  0  0  0  0  0  0  0
  -24.1490  -36.8300   22.9820 C   0  0  0  0  0  1  0  0  0  0  0  0
  -25.3620  -36.4330   23.8410 C   0  0  0  0  0  3  0  0  0  0  0  0
  -27.4590  -37.3210   24.7580 C   0  0  0  0  0  1  0  0  0  0  0  0
  -26.3950  -37.4890   23.7700 N   0  0  0  0  0  0  0  0  0  0  0  0
  -25.9830  -38.4090   23.9040 H   0  0  0  0  0  0  0  0  0  0  0  0
  -29.0030  -19.5550   19.6290 C   0  0  0  0  0  3  0  0  0  0  0  0
  -28.5920  -17.1640   19.6910 C   0  0  0  0  0  3  0  0  0  0  0  0
  -30.3290  -18.1290   21.1130 C   0  0  0  0  0  3  0  0  0  0  0  0
  -28.2880  -18.4360   19.1830 C   0  0  0  0  0  0  0  0  0  0  0  0
  -29.9970  -19.4280   20.6240 C   0  0  0  0  0  0  0  0  0  0  0  0
  -29.6220  -16.9830   20.6400 C   0  0  0  0  0  0  0  0  0  0  0  0
  -30.5620  -14.7140   20.5160 C   0  0  0  0  0  0  0  0  0  0  0  0
  -30.3500  -12.5750   19.3010 C   0  0  0  0  0  2  0  0  0  0  0  0
  -29.3930  -12.8100   18.1150 C   0  0  0  0  0  2  0  0  0  0  0  0
  -27.9240  -12.5880   18.5420 C   0  0  0  0  0  2  0  0  0  0  0  0
  -27.5710  -13.3390   19.8570 C   0  0  0  0  0  3  0  0  0  0  0  0
  -28.6520  -13.1120   20.9360 C   0  0  0  0  0  2  0  0  0  0  0  0
  -29.9550  -13.5010   20.3730 N   0  0  0  0  0  0  0  0  0  0  0  0
  -31.6650  -14.9720   20.0230 O   0  0  0  0  0  0  0  0  0  0  0  0
  -29.8320  -15.6590   21.1430 N   0  0  0  0  0  0  0  0  0  0  0  0
  -29.0070  -15.2560   21.5580 H   0  0  0  0  0  0  0  0  0  0  0  0
  -25.1650  -13.8430   20.6130 C   0  0  0  0  0  0  0  0  0  0  0  0
  -24.1280  -13.0160   20.9500 C   0  0  0  0  0  0  0  0  0  0  0  0
  -24.6410  -11.6850   20.8760 C   0  0  0  0  0  0  0  0  0  0  0  0
  -26.2380  -13.0040   20.3380 N   0  0  0  0  0  0  0  0  0  0  0  0
  -25.9280  -11.7000   20.5580 N   0  0  0  0  0  0  0  0  0  0  0  0
  -23.9660  -10.3920   21.0450 C   0  0  0  0  0  0  0  0  0  0  0  0
  -24.4000   -9.4680   22.0210 C   0  0  0  0  0  3  0  0  0  0  0  0
  -23.7280   -8.2370   22.1820 C   0  0  0  0  0  3  0  0  0  0  0  0
  -22.6170   -7.9210   21.3650 C   0  0  0  0  0  0  0  0  0  0  0  0
  -22.2020   -8.8380   20.3840 C   0  0  0  0  0  3  0  0  0  0  0  0
  -22.8720  -10.0610   20.2210 C   0  0  0  0  0  3  0  0  0  0  0  0
  -21.9260   -6.7320   21.4260 O   0  0  0  0  0  0  0  0  0  0  0  0
  -21.7820   -6.0410   22.6020 C   0  0  0  0  0  0  0  0  0  0  0  0
  -21.1650   -6.6170   23.7350 C   0  0  0  0  0  3  0  0  0  0  0  0
  -20.9720   -5.8470   24.8990 C   0  0  0  0  0  3  0  0  0  0  0  0
  -21.3900   -4.5040   24.9340 C   0  0  0  0  0  0  0  0  0  0  0  0
  -22.0030   -3.9280   23.8080 C   0  0  0  0  0  3  0  0  0  0  0  0
  -22.1950   -4.6940   22.6430 C   0  0  0  0  0  0  0  0  0  0  0  0
  -22.7600   -4.1270   21.5490 F   0  0  0  0  0  0  0  0  0  0  0  0
  -21.2010   -3.7600   26.0510 F   0  0  0  0  0  0  0  0  0  0  0  0
  -22.7180  -13.4310   21.2510 C   0  0  0  0  0  0  0  0  0  0  0  0
  -22.0240  -12.6810   22.1010 N   0  0  0  0  0  0  0  0  0  0  0  0
  -22.2330  -14.4490   20.7630 O   0  0  0  0  0  0  0  0  0  0  0  0
  -22.4100  -11.8410   22.5020 H   0  0  0  0  0  0  0  0  0  0  0  0
  -21.0820  -12.9480   22.3410 H   0  0  0  0  0  0  0  0  0  0  0  0
  -25.2860  -15.2230   20.5110 N   0  0  0  0  0  0  0  0  0  0  0  0
  -24.5330  -15.8420   20.7860 H   0  0  0  0  0  0  0  0  0  0  0  0
  -26.1600  -15.7130   20.3620 H   0  0  0  0  0  0  0  0  0  0  0  0
  -27.2260  -18.5950   18.1070 C   0  0  0  0  0  2  0  0  0  0  0  0
  -24.9650  -19.4530   18.8740 C   0  0  0  0  0  1  0  0  0  0  0  0
  -26.8600  -21.0530   18.9750 C   0  0  0  0  0  1  0  0  0  0  0  0
  -25.9930  -20.3190   16.7560 C   0  0  0  0  0  1  0  0  0  0  0  0
  -26.2910  -19.8470   18.1910 C   0  0  1  0  0  0  0  0  0  0  0  0
  1  3  2  0
  2  1  1  0
  4  2  1  0
  5  7  1  0
  6  5  2  0
  8 10  1  0
  8  5  1  0
  9  7  1  0
 10  1  1  0
 10  9  1  0
 11 13  1  0
 11  6  1  0
 12 23  2  0
 13 18  1  0
 14 22  1  0
 14 24  1  0
 15 21  1  0
 15 17  1  0
 16 22  1  0
 17 16  1  0
 18 17  2  0
 19 20  1  0
 19 13  2  0
 20 15  2  0
 21 14  1  0
 22 12  1  0
 24 26  2  0
 25 24  1  0
 27 25  1  0
 28 37  2  0
 28 33  1  0
 29 25  1  0
 29 33  1  0
 30 29  1  0
 31 32  1  0
 31 30  1  0
 32 28  1  0
 33 34  2  0
 34 35  1  0
 36 35  2  0
 37 36  1  0
 38 12  1  0
 38 43  1  0
 38 39  1  0
 39 42  1  1
 39 40  1  0
 41 39  1  0
 43 46  1  0
 44 48  1  0
 44 43  1  0
 45 44  2  0
 48 47  1  0
 50 48  1  0
 50 51  1  0
 50 49  1  0
 52 56  1  0
 53 57  2  0
 55 52  2  0
 55 53  1  0
 56  2  1  0
 56 54  2  0
 57 54  1  0
 57 66  1  0
 58 66  1  0
 59 64  1  0
 60 61  1  0
 60 59  1  0
 62 61  1  0
 62 71  1  0
 62 63  1  0
 64 58  1  0
 64 63  1  0
 65 58  2  0
 66 67  1  0
 68 69  2  0
 69 88  1  0
 70 69  1  0
 70 73  1  0
 71 72  1  0
 71 68  1  0
 72 70  2  0
 73 74  1  0
 74 75  2  0
 76 79  1  0
 76 75  1  0
 77 76  2  0
 78 77  1  0
 78 73  2  0
 79 80  1  0
 80 85  2  0
 80 81  1  0
 81 82  2  0
 82 83  1  0
 83 87  1  0
 84 83  2  0
 85 84  1  0
 86 85  1  0
 88 89  1  0
 89 92  1  0
 89 91  1  0
 90 88  2  0
 93 68  1  0
 93 94  1  0
 95 93  1  0
 96100  1  0
 96 55  1  0
100 99  1  6
100 97  1  0
100 98  1  0
M  ISO  4   6 101  11 101  58 100  66 100
M  END
>  <TORSDO>  (44) 
F 20

>  <SCORE>  (44) 
-11.559

>  <name>  (44) 
43

>  <ligand_id>  (44) 
43

>  <original_smiles>  (44) 
[H]C(Oc1c([H])c([H])c2c(c1[H])C([H])([H])N(C(=O)C([H])(N([H])C(=O)C([H])(N([H])C([H])([H])[H])C([H])([H])[H])C(C([H])([H])[H])(C([H])([H])[H])C([H])([H])[H])C([H])(C(=O)N([H])C1([H])c3c([H])c([H])c([H])c([H])c3C([H])([H])C([H])([H])C1([H])[H])C2([H])[H])=C1C([H])([H])C([H])([H])C([H])(C(=O)N([H])c2c([H])c(N([H])C(=O)N3C([H])([H])C([H])([H])C([H])([H])C([H])(n4nc(-c5c([H])c([H])c(Oc6c([H])c([H])c(F)c([H])c6F)c([H])c5[H])c(C(=O)N([H])[H])c4N([H])[H])C3([H])[H])c([H])c(C([H])([H])C(C([H])([H])[H])(C([H])([H])[H])C([H])([H])[H])c2[H])C1([H])[H]

>  <smiles>  (44) 
[H]C(Oc1c([H])c([H])c2c(c1[H])C([H])([H])N(C(=O)C([H])(N([H])C(=O)C([H])(N([H])C([H])([H])[H])C([H])([H])[H])C(C([H])([H])[H])(C([H])([H])[H])C([H])([H])[H])C([H])(C(=O)N([H])C1([H])c3c([H])c([H])c([H])c([H])c3C([H])([H])C([H])([H])C1([H])[H])C2([H])[H])=C1C([H])([H])C([H])([H])C([H])(C(=O)N([H])c2c([H])c(N([H])C(=O)N3C([H])([H])C([H])([H])C([H])([H])C([H])(n4nc(-c5c([H])c([H])c(Oc6c([H])c([H])c(F)c([H])c6F)c([H])c5[H])c(C(=O)N([H])[H])c4N([H])[H])C3([H])[H])c([H])c(C([H])([H])C(C([H])([H])[H])(C([H])([H])[H])C([H])([H])[H])c2[H])C1([H])[H]

$$$$
44:0:0
     RDKit          3D

 96104  0  0  1  0  0  0  0  0999 V2000
  -28.4410  -22.8080   20.9650 C   0  0  0  0  0  0  0  0  0  0  0  0
  -28.5400  -21.6440   20.2820 N   0  0  0  0  0  0  0  0  0  0  0  0
  -28.8900  -22.9420   22.1080 O   0  0  0  0  0  0  0  0  0  0  0  0
  -28.1140  -21.6500   19.3650 H   0  0  0  0  0  0  0  0  0  0  0  0
  -29.9260  -20.1910   21.7510 C   0  0  0  0  0  3  0  0  0  0  0  0
  -30.5780  -18.9210   21.6950 C   0  0  0  0  0  0  0  0  0  0  0  0
  -30.3160  -18.2220   20.5440 C   0  0  0  0  0  0  0  0  0  0  0  0
  -29.1950  -20.4970   20.6250 C   0  0  0  0  0  0  0  0  0  0  0  0
  -29.1910  -19.1180   19.5450 S   0  0  0  0  0  0  0  0  0  0  0  0
  -31.4530  -18.5240   22.7130 N   0  0  0  0  0  0  0  0  0  0  0  0
  -31.4010  -18.9800   23.6200 H   0  0  0  0  0  0  0  0  0  0  0  0
  -31.7700  -17.5610   22.7590 H   0  0  0  0  0  0  0  0  0  0  0  0
  -30.9960  -16.9900   20.0080 C   0  0  0  0  0  2  0  0  0  0  0  0
  -31.0380  -14.5540   19.9270 C   0  0  0  0  0  0  0  0  0  0  0  0
  -30.6510  -12.3320   18.9580 C   0  0  0  0  0  2  0  0  0  0  0  0
  -29.6720  -12.4670   17.7730 C   0  0  0  0  0  2  0  0  0  0  0  0
  -28.2160  -12.3680   18.2660 C   0  0  0  0  0  2  0  0  0  0  0  0
  -27.9260  -13.2870   19.4830 C   0  0  0  0  0  3  0  0  0  0  0  0
  -29.0260  -13.1630   20.5640 C   0  0  0  0  0  2  0  0  0  0  0  0
  -30.3250  -13.3980   19.9180 N   0  0  0  0  0  0  0  0  0  0  0  0
  -32.1670  -14.6350   19.4360 O   0  0  0  0  0  0  0  0  0  0  0  0
  -30.3960  -15.6760   20.2980 N   0  0  0  0  0  0  0  0  0  0  0  0
  -29.4500  -15.6190   20.6410 H   0  0  0  0  0  0  0  0  0  0  0  0
  -25.5860  -13.9390   20.3280 C   0  0  0  0  0  0  0  0  0  0  0  0
  -24.5180  -13.1870   20.7370 C   0  0  0  0  0  0  0  0  0  0  0  0
  -24.9430  -11.8250   20.6610 C   0  0  0  0  0  0  0  0  0  0  0  0
  -26.5950  -13.0370   20.0300 N   0  0  0  0  0  0  0  0  0  0  0  0
  -26.2140  -11.7600   20.2880 N   0  0  0  0  0  0  0  0  0  0  0  0
  -24.1950  -10.5780   20.8670 C   0  0  0  0  0  0  0  0  0  0  0  0
  -24.6000   -9.6210   21.8240 C   0  0  0  0  0  3  0  0  0  0  0  0
  -23.8530   -8.4380   22.0160 C   0  0  0  0  0  3  0  0  0  0  0  0
  -22.6880   -8.2020   21.2490 C   0  0  0  0  0  0  0  0  0  0  0  0
  -22.3010   -9.1460   20.2820 C   0  0  0  0  0  3  0  0  0  0  0  0
  -23.0490  -10.3200   20.0880 C   0  0  0  0  0  3  0  0  0  0  0  0
  -21.9130   -7.0700   21.3490 O   0  0  0  0  0  0  0  0  0  0  0  0
  -21.7720   -6.3970   22.5350 C   0  0  0  0  0  0  0  0  0  0  0  0
  -21.2490   -7.0230   23.6880 C   0  0  0  0  0  3  0  0  0  0  0  0
  -21.0560   -6.2770   24.8680 C   0  0  0  0  0  3  0  0  0  0  0  0
  -21.3750   -4.9060   24.8950 C   0  0  0  0  0  0  0  0  0  0  0  0
  -21.8900   -4.2800   23.7470 C   0  0  0  0  0  3  0  0  0  0  0  0
  -22.0850   -5.0230   22.5690 C   0  0  0  0  0  0  0  0  0  0  0  0
  -22.5630   -4.4110   21.4590 F   0  0  0  0  0  0  0  0  0  0  0  0
  -21.1810   -4.1870   26.0250 F   0  0  0  0  0  0  0  0  0  0  0  0
  -23.1480  -13.6920   21.0890 C   0  0  0  0  0  0  0  0  0  0  0  0
  -22.4530  -13.0010   21.9850 N   0  0  0  0  0  0  0  0  0  0  0  0
  -22.7090  -14.7340   20.6060 O   0  0  0  0  0  0  0  0  0  0  0  0
  -22.8230  -12.1570   22.3940 H   0  0  0  0  0  0  0  0  0  0  0  0
  -21.5380  -13.3210   22.2670 H   0  0  0  0  0  0  0  0  0  0  0  0
  -25.7760  -15.3080   20.1640 N   0  0  0  0  0  0  0  0  0  0  0  0
  -25.0320  -15.9790   20.3240 H   0  0  0  0  0  0  0  0  0  0  0  0
  -26.6210  -15.7340   19.8050 H   0  0  0  0  0  0  0  0  0  0  0  0
  -26.1550  -23.5620   20.5210 C   0  0  0  0  0  1  0  0  0  0  0  0
  -27.9550  -24.0500   18.7860 C   0  0  0  0  0  1  0  0  0  0  0  0
  -27.6410  -23.9750   20.3010 C   0  0  2  0  0  0  0  0  0  0  0  0
  -28.0110  -25.3680   20.9700 C   0  0  0  0  0  2  0  0  0  0  0  0
  -28.2310  -26.5490   20.1410 O   0  0  0  0  0  0  0  0  0  0  0  0
  -24.5860  -31.8720   23.2070 C   0  0  0  0  0  0  0  0  0  0  0  0
  -27.1530  -27.4000   20.0920 C   0  0  0  0  0  0  0  0  0  0  0  0
  -23.3660  -30.4830   21.5690 C   0  0  0  0  0  3  0  0  0  0  0  0
  -24.8020  -28.9610   20.1130 C   0  0  0  0  0  0  0  0  0  0  0  0
  -25.8960  -30.8210   21.3650 C   0  0  0  0  0  2  0  0  0  0  0  0
  -25.9700  -29.4520   20.7160 C   0  0  0  0  0  0  0  0  0  0  0  0
  -27.1530  -28.6720   20.7160 C   0  0  0  0  0  3  0  0  0  0  0  0
  -25.9970  -26.9740   19.4200 C   0  0  0  0  0  3  0  0  0  0  0  0
  -24.8120  -27.7210   19.4590 C   0  0  0  0  0  3  0  0  0  0  0  0
  -23.5620  -29.8220   20.1810 C   0  0  0  0  0  2  0  0  0  0  0  0
  -24.6350  -31.0720   22.1030 N   0  0  0  0  0  0  0  0  0  0  0  0
  -23.5100  -32.1490   23.7510 O   0  0  0  0  0  0  0  0  0  0  0  0
  -22.7180  -29.4550   22.5240 C   0  0  0  0  0  0  0  0  0  0  0  0
  -21.3960  -29.2630   22.3860 N   0  0  0  0  0  0  0  0  0  0  0  0
  -23.4010  -28.8350   23.3440 O   0  0  0  0  0  0  0  0  0  0  0  0
  -20.9080  -29.8160   21.6980 H   0  0  0  0  0  0  0  0  0  0  0  0
  -18.0290  -28.0300   22.8440 C   0  0  0  0  0  0  0  0  0  0  0  0
  -20.5790  -28.3220   23.1510 C   0  0  0  0  0  3  0  0  0  0  0  0
  -20.7080  -26.8890   22.5890 C   0  0  0  0  0  2  0  0  0  0  0  0
  -19.6260  -26.5430   21.5610 C   0  0  0  0  0  2  0  0  0  0  0  0
  -18.2300  -26.6780   22.1820 C   0  0  0  0  0  2  0  0  0  0  0  0
  -19.1320  -28.8090   23.2830 C   0  0  0  0  0  0  0  0  0  0  0  0
  -18.8900  -30.0760   23.8580 C   0  0  0  0  0  3  0  0  0  0  0  0
  -17.5770  -30.5650   23.9990 C   0  0  0  0  0  3  0  0  0  0  0  0
  -16.4880  -29.7820   23.5760 C   0  0  0  0  0  3  0  0  0  0  0  0
  -16.7150  -28.5170   23.0050 C   0  0  0  0  0  3  0  0  0  0  0  0
  -25.8800  -32.4930   23.8210 C   0  0  0  0  0  3  0  0  0  0  0  0
  -25.5790  -33.8890   24.1650 N   0  0  0  0  0  0  0  0  0  0  0  0
  -25.9040  -34.9450   23.4090 C   0  0  0  0  0  0  0  0  0  0  0  0
  -26.5660  -34.8480   22.3720 O   0  0  0  0  0  0  0  0  0  0  0  0
  -24.9930  -34.0380   24.9730 H   0  0  0  0  0  0  0  0  0  0  0  0
  -24.1760  -36.7400   23.0730 C   0  0  0  0  0  1  0  0  0  0  0  0
  -25.4210  -36.3300   23.8780 C   0  0  0  0  0  3  0  0  0  0  0  0
  -27.5570  -37.2020   24.7140 C   0  0  0  0  0  1  0  0  0  0  0  0
  -26.4550  -37.3810   23.7720 N   0  0  0  0  0  0  0  0  0  0  0  0
  -26.0510  -38.3000   23.9300 H   0  0  0  0  0  0  0  0  0  0  0  0
  -26.4060  -31.7100   25.0850 C   0  0  1  0  0  0  0  0  0  0  0  0
  -25.3170  -31.4610   26.1550 C   0  0  0  0  0  1  0  0  0  0  0  0
  -26.9900  -30.3380   24.6760 C   0  0  0  0  0  1  0  0  0  0  0  0
  -27.5600  -32.4980   25.7460 C   0  0  0  0  0  1  0  0  0  0  0  0
  1  3  2  0
  2  8  1  0
  2  1  1  0
  4  2  1  0
  6  5  1  0
  6 10  1  0
  7  6  2  0
  8  5  2  0
  9  7  1  0
  9  8  1  0
 10 12  1  0
 10 11  1  0
 13 22  1  0
 13  7  1  0
 14 22  1  0
 15 20  1  0
 16 17  1  0
 16 15  1  0
 18 17  1  0
 18 27  1  0
 18 19  1  0
 20 14  1  0
 20 19  1  0
 21 14  2  0
 22 23  1  0
 24 25  2  0
 25 44  1  0
 26 25  1  0
 26 29  1  0
 27 28  1  0
 27 24  1  0
 28 26  2  0
 29 30  1  0
 30 31  2  0
 32 35  1  0
 32 31  1  0
 33 32  2  0
 34 33  1  0
 34 29  2  0
 35 36  1  0
 36 41  2  0
 36 37  1  0
 37 38  2  0
 38 39  1  0
 39 43  1  0
 40 39  2  0
 41 40  1  0
 42 41  1  0
 44 45  1  0
 45 48  1  0
 45 47  1  0
 46 44  2  0
 49 50  1  0
 49 24  1  0
 51 49  1  0
 54 53  1  6
 54 52  1  0
 54  1  1  0
 54 55  1  0
 56 55  1  0
 57 68  2  0
 58 56  1  0
 58 63  1  0
 59 67  1  0
 59 69  1  0
 60 66  1  0
 60 62  1  0
 61 67  1  0
 62 63  2  0
 62 61  1  0
 64 65  1  0
 64 58  2  0
 65 60  2  0
 66 59  1  0
 67 57  1  0
 69 71  2  0
 70 69  1  0
 72 70  1  0
 73 82  2  0
 73 78  1  0
 74 70  1  0
 74 78  1  0
 75 74  1  0
 76 77  1  0
 76 75  1  0
 77 73  1  0
 78 79  2  0
 79 80  1  0
 81 80  2  0
 82 81  1  0
 83 57  1  0
 83 84  1  0
 83 93  1  0
 84 87  1  0
 85 89  1  0
 85 84  1  0
 86 85  2  0
 89 88  1  0
 91 89  1  0
 91 92  1  0
 91 90  1  0
 93 96  1  1
 93 94  1  0
 95 93  1  0
M  ISO  4  14 100  22 100  55 101  56 101
M  END
>  <TORSDO>  (45) 
F 21

>  <SCORE>  (45) 
-13.399

>  <name>  (45) 
44

>  <ligand_id>  (45) 
44

>  <original_smiles>  (45) 
[H]c1c([H])c([H])c2c(c1[H])C([H])([H])C([H])([H])C([H])([H])C2([H])N([H])C(=O)C1([H])N(C(=O)C([H])(N([H])C(=O)C([H])(N([H])C([H])([H])[H])C([H])([H])[H])C(C([H])([H])[H])(C([H])([H])[H])C([H])([H])[H])C([H])([H])c2c([H])c(OC([H])([H])C(C(=O)N([H])c3sc(C([H])([H])N([H])C(=O)N4C([H])([H])C([H])([H])C([H])([H])C([H])(n5nc(-c6c([H])c([H])c(Oc7c([H])c([H])c(F)c([H])c7F)c([H])c6[H])c(C(=O)N([H])[H])c5N([H])[H])C4([H])[H])c(N([H])[H])c3[H])(C([H])([H])[H])C([H])([H])[H])c([H])c([H])c2C1([H])[H]

>  <smiles>  (45) 
[H]c1c([H])c([H])c2c(c1[H])C([H])([H])C([H])([H])C([H])([H])C2([H])N([H])C(=O)C1([H])N(C(=O)C([H])(N([H])C(=O)C([H])(N([H])C([H])([H])[H])C([H])([H])[H])C(C([H])([H])[H])(C([H])([H])[H])C([H])([H])[H])C([H])([H])c2c([H])c(OC([H])([H])C(C(=O)N([H])c3sc(C([H])([H])N([H])C(=O)N4C([H])([H])C([H])([H])C([H])([H])C([H])(n5nc(-c6c([H])c([H])c(Oc7c([H])c([H])c(F)c([H])c7F)c([H])c6[H])c(C(=O)N([H])[H])c5N([H])[H])C4([H])[H])c(N([H])[H])c3[H])(C([H])([H])[H])C([H])([H])[H])c([H])c([H])c2C1([H])[H]

$$$$
45:0:0
     RDKit          3D

 92101  0  0  1  0  0  0  0  0999 V2000
  -29.4740  -22.4350   19.8260 C   0  0  0  0  0  0  0  0  0  0  0  0
  -27.9410  -23.1010   21.4880 C   0  0  0  0  0  2  0  0  0  0  0  0
  -28.2970  -21.5910   21.5980 C   0  0  0  0  0  2  0  0  0  0  0  0
  -28.9840  -23.7590   20.5640 C   0  0  1  0  0  0  0  0  0  0  0  0
  -30.1810  -24.2900   21.3790 C   0  0  0  0  0  1  0  0  0  0  0  0
  -29.1580  -21.2540   20.4640 N   0  0  0  0  0  0  0  0  0  0  0  0
  -30.1110  -22.4990   18.7700 O   0  0  0  0  0  0  0  0  0  0  0  0
  -30.6180  -19.4490   19.4370 C   0  0  0  0  0  3  0  0  0  0  0  0
  -30.8440  -18.0110   19.4480 C   0  0  0  0  0  3  0  0  0  0  0  0
  -29.5900  -19.9260   20.2310 C   0  0  0  0  0  0  0  0  0  0  0  0
  -29.9910  -17.2630   20.2360 C   0  0  0  0  0  0  0  0  0  0  0  0
  -28.8870  -18.4580   20.9910 S   0  0  0  0  0  0  0  0  0  0  0  0
  -30.6400  -14.7920   19.9880 C   0  0  0  0  0  0  0  0  0  0  0  0
  -30.3780  -12.5490   18.9160 C   0  0  0  0  0  2  0  0  0  0  0  0
  -29.3580  -12.6780   17.7620 C   0  0  0  0  0  2  0  0  0  0  0  0
  -27.9180  -12.5000   18.2800 C   0  0  0  0  0  2  0  0  0  0  0  0
  -27.6370  -13.3410   19.5540 C   0  0  0  0  0  3  0  0  0  0  0  0
  -28.7660  -13.1880   20.5980 C   0  0  0  0  0  2  0  0  0  0  0  0
  -30.0270  -13.5590   19.9420 N   0  0  0  0  0  0  0  0  0  0  0  0
  -31.7770  -14.9330   19.5250 O   0  0  0  0  0  0  0  0  0  0  0  0
  -29.8870  -15.8710   20.4290 N   0  0  0  0  0  0  0  0  0  0  0  0
  -29.0410  -15.5810   20.8960 H   0  0  0  0  0  0  0  0  0  0  0  0
  -25.3010  -13.9250   20.4470 C   0  0  0  0  0  0  0  0  0  0  0  0
  -24.2570  -13.1470   20.8650 C   0  0  0  0  0  0  0  0  0  0  0  0
  -24.7100  -11.7950   20.7700 C   0  0  0  0  0  0  0  0  0  0  0  0
  -26.3230  -13.0480   20.1200 N   0  0  0  0  0  0  0  0  0  0  0  0
  -25.9770  -11.7590   20.3770 N   0  0  0  0  0  0  0  0  0  0  0  0
  -23.9890  -10.5300   20.9740 C   0  0  0  0  0  0  0  0  0  0  0  0
  -24.4500   -9.5570   21.8880 C   0  0  0  0  0  3  0  0  0  0  0  0
  -23.7290   -8.3600   22.0810 C   0  0  0  0  0  3  0  0  0  0  0  0
  -22.5340   -8.1250   21.3610 C   0  0  0  0  0  0  0  0  0  0  0  0
  -22.0920   -9.0880   20.4370 C   0  0  0  0  0  3  0  0  0  0  0  0
  -22.8130  -10.2770   20.2410 C   0  0  0  0  0  3  0  0  0  0  0  0
  -21.7820   -6.9800   21.4650 O   0  0  0  0  0  0  0  0  0  0  0  0
  -21.7360   -6.2520   22.6270 C   0  0  0  0  0  0  0  0  0  0  0  0
  -21.2890   -6.8150   23.8420 C   0  0  0  0  0  3  0  0  0  0  0  0
  -21.1930   -6.0120   24.9960 C   0  0  0  0  0  3  0  0  0  0  0  0
  -21.5320   -4.6480   24.9370 C   0  0  0  0  0  0  0  0  0  0  0  0
  -21.9730   -4.0840   23.7260 C   0  0  0  0  0  3  0  0  0  0  0  0
  -22.0710   -4.8830   22.5740 C   0  0  0  0  0  0  0  0  0  0  0  0
  -22.4760   -4.3310   21.4050 F   0  0  0  0  0  0  0  0  0  0  0  0
  -21.4330   -3.8740   26.0430 F   0  0  0  0  0  0  0  0  0  0  0  0
  -22.8840  -13.6230   21.2390 C   0  0  0  0  0  0  0  0  0  0  0  0
  -22.2080  -12.9060   22.1300 N   0  0  0  0  0  0  0  0  0  0  0  0
  -22.4200  -14.6640   20.7770 O   0  0  0  0  0  0  0  0  0  0  0  0
  -22.5970  -12.0630   22.5250 H   0  0  0  0  0  0  0  0  0  0  0  0
  -21.2890  -13.2060   22.4230 H   0  0  0  0  0  0  0  0  0  0  0  0
  -25.4620  -15.2990   20.2930 N   0  0  0  0  0  0  0  0  0  0  0  0
  -24.7040  -15.9510   20.4640 H   0  0  0  0  0  0  0  0  0  0  0  0
  -26.2800  -15.7430   19.8960 H   0  0  0  0  0  0  0  0  0  0  0  0
  -28.3980  -25.0080   19.6950 C   0  0  0  0  0  2  0  0  0  0  0  0
  -28.3740  -26.4280   20.2180 O   0  0  0  0  0  0  0  0  0  0  0  0
  -24.6380  -31.8810   23.2110 C   0  0  0  0  0  0  0  0  0  0  0  0
  -27.2510  -27.2910   20.1350 C   0  0  0  0  0  0  0  0  0  0  0  0
  -23.4350  -30.4810   21.5740 C   0  0  0  0  0  3  0  0  0  0  0  0
  -24.8860  -28.9380   20.1360 C   0  0  0  0  0  0  0  0  0  0  0  0
  -25.9780  -30.7940   21.3890 C   0  0  0  0  0  2  0  0  0  0  0  0
  -26.0570  -29.4130   20.7370 C   0  0  0  0  0  0  0  0  0  0  0  0
  -27.2370  -28.6010   20.7300 C   0  0  0  0  0  3  0  0  0  0  0  0
  -26.0550  -26.8930   19.4930 C   0  0  0  0  0  3  0  0  0  0  0  0
  -24.8910  -27.6870   19.5050 C   0  0  0  0  0  3  0  0  0  0  0  0
  -23.6480  -29.8120   20.1910 C   0  0  0  0  0  2  0  0  0  0  0  0
  -24.7030  -31.0710   22.1140 N   0  0  0  0  0  0  0  0  0  0  0  0
  -23.5540  -32.1540   23.7490 O   0  0  0  0  0  0  0  0  0  0  0  0
  -22.7780  -29.4600   22.5350 C   0  0  0  0  0  0  0  0  0  0  0  0
  -21.4510  -29.2830   22.4170 N   0  0  0  0  0  0  0  0  0  0  0  0
  -23.4620  -28.8310   23.3470 O   0  0  0  0  0  0  0  0  0  0  0  0
  -20.9580  -29.8410   21.7350 H   0  0  0  0  0  0  0  0  0  0  0  0
  -18.0770  -28.0840   22.9450 C   0  0  0  0  0  0  0  0  0  0  0  0
  -20.6390  -28.3410   23.1900 C   0  0  0  0  0  3  0  0  0  0  0  0
  -20.7330  -26.9130   22.6050 C   0  0  0  0  0  2  0  0  0  0  0  0
  -19.6210  -26.5960   21.6000 C   0  0  0  0  0  2  0  0  0  0  0  0
  -18.2470  -26.7390   22.2580 C   0  0  0  0  0  2  0  0  0  0  0  0
  -19.2010  -28.8430   23.3670 C   0  0  0  0  0  0  0  0  0  0  0  0
  -18.9880  -30.1020   23.9700 C   0  0  0  0  0  3  0  0  0  0  0  0
  -17.6860  -30.6030   24.1530 C   0  0  0  0  0  3  0  0  0  0  0  0
  -16.5770  -29.8410   23.7450 C   0  0  0  0  0  3  0  0  0  0  0  0
  -16.7740  -28.5830   23.1460 C   0  0  0  0  0  3  0  0  0  0  0  0
  -25.9180  -32.5200   23.8310 C   0  0  0  0  0  3  0  0  0  0  0  0
  -25.6010  -33.9150   24.1680 N   0  0  0  0  0  0  0  0  0  0  0  0
  -25.9140  -34.9730   23.4080 C   0  0  0  0  0  0  0  0  0  0  0  0
  -26.5690  -34.8770   22.3670 O   0  0  0  0  0  0  0  0  0  0  0  0
  -25.0170  -34.0630   24.9780 H   0  0  0  0  0  0  0  0  0  0  0  0
  -24.1660  -36.7540   23.0870 C   0  0  0  0  0  1  0  0  0  0  0  0
  -25.4240  -36.3560   23.8770 C   0  0  0  0  0  3  0  0  0  0  0  0
  -27.5610  -37.2610   24.6800 C   0  0  0  0  0  1  0  0  0  0  0  0
  -26.4460  -37.4190   23.7500 N   0  0  0  0  0  0  0  0  0  0  0  0
  -26.0340  -38.3360   23.9000 H   0  0  0  0  0  0  0  0  0  0  0  0
  -26.4430  -31.7480   25.1050 C   0  0  1  0  0  0  0  0  0  0  0  0
  -25.3540  -31.5030   26.1750 C   0  0  0  0  0  1  0  0  0  0  0  0
  -27.0330  -30.3740   24.7110 C   0  0  0  0  0  1  0  0  0  0  0  0
  -27.5900  -32.5480   25.7650 C   0  0  0  0  0  1  0  0  0  0  0  0
  1  6  1  0
  1  4  1  0
  2  3  1  0
  4  5  1  1
  4  2  1  0
  6  3  1  0
  7  1  2  0
  8  9  1  0
  8 10  2  0
  9 11  2  0
 10  6  1  0
 10 12  1  0
 11 21  1  0
 11 12  1  0
 13 21  1  0
 14 19  1  0
 15 16  1  0
 15 14  1  0
 17 16  1  0
 17 26  1  0
 17 18  1  0
 19 13  1  0
 19 18  1  0
 20 13  2  0
 21 22  1  0
 23 24  2  0
 24 43  1  0
 25 24  1  0
 25 28  1  0
 26 27  1  0
 26 23  1  0
 27 25  2  0
 28 29  1  0
 29 30  2  0
 31 34  1  0
 31 30  1  0
 32 31  2  0
 33 32  1  0
 33 28  2  0
 34 35  1  0
 35 36  1  0
 36 37  2  0
 38 37  1  0
 38 42  1  0
 39 38  2  0
 40 35  2  0
 40 39  1  0
 41 40  1  0
 43 44  1  0
 44 47  1  0
 44 46  1  0
 45 43  2  0
 48 23  1  0
 48 49  1  0
 50 48  1  0
 51 52  1  0
 51  4  1  0
 53 64  2  0
 54 52  1  0
 54 59  1  0
 55 63  1  0
 55 65  1  0
 56 62  1  0
 56 58  1  0
 57 63  1  0
 58 57  1  0
 59 58  2  0
 60 61  1  0
 60 54  2  0
 61 56  2  0
 62 55  1  0
 63 53  1  0
 65 67  2  0
 66 65  1  0
 68 66  1  0
 69 78  2  0
 69 74  1  0
 70 66  1  0
 70 74  1  0
 71 70  1  0
 72 73  1  0
 72 71  1  0
 73 69  1  0
 74 75  2  0
 75 76  1  0
 77 76  2  0
 78 77  1  0
 79 53  1  0
 79 80  1  0
 79 89  1  0
 80 83  1  0
 81 85  1  0
 81 80  1  0
 82 81  2  0
 85 84  1  0
 87 85  1  0
 87 88  1  0
 87 86  1  0
 89 92  1  1
 89 90  1  0
 91 89  1  0
M  ISO  4  13 100  21 100  51 101  52 101
M  END
>  <TORSDO>  (46) 
F 18

>  <SCORE>  (46) 
-14.313

>  <name>  (46) 
45

>  <ligand_id>  (46) 
45

>  <original_smiles>  (46) 
[H]c1c(N([H])C(=O)N2C([H])([H])C([H])([H])C([H])([H])C([H])(n3nc(-c4c([H])c([H])c(Oc5c([H])c([H])c(F)c([H])c5F)c([H])c4[H])c(C(=O)N([H])[H])c3N([H])[H])C2([H])[H])sc(N2C(=O)C(C([H])([H])[H])(C([H])([H])Oc3c([H])c([H])c4c(c3[H])C([H])([H])N(C(=O)C([H])(N([H])C(=O)C([H])(N([H])C([H])([H])[H])C([H])([H])[H])C(C([H])([H])[H])(C([H])([H])[H])C([H])([H])[H])C([H])(C(=O)N([H])C3([H])c5c([H])c([H])c([H])c([H])c5C([H])([H])C([H])([H])C3([H])[H])C4([H])[H])C([H])([H])C2([H])[H])c1[H]

>  <smiles>  (46) 
[H]c1c(N([H])C(=O)N2C([H])([H])C([H])([H])C([H])([H])C([H])(n3nc(-c4c([H])c([H])c(Oc5c([H])c([H])c(F)c([H])c5F)c([H])c4[H])c(C(=O)N([H])[H])c3N([H])[H])C2([H])[H])sc(N2C(=O)C(C([H])([H])[H])(C([H])([H])Oc3c([H])c([H])c4c(c3[H])C([H])([H])N(C(=O)C([H])(N([H])C(=O)C([H])(N([H])C([H])([H])[H])C([H])([H])[H])C(C([H])([H])[H])(C([H])([H])[H])C([H])([H])[H])C([H])(C(=O)N([H])C3([H])c5c([H])c([H])c([H])c([H])c5C([H])([H])C([H])([H])C3([H])[H])C4([H])[H])C([H])([H])C2([H])[H])c1[H]

$$$$
46:0:0
     RDKit          3D

 96105  0  0  1  0  0  0  0  0999 V2000
  -31.1340  -18.0330   20.2450 C   0  0  0  0  0  3  0  0  0  0  0  0
  -31.0250  -19.4810   20.2310 C   0  0  0  0  0  0  0  0  0  0  0  0
  -29.7780  -20.0500   20.4750 C   0  0  0  0  0  0  0  0  0  0  0  0
  -29.9700  -17.3320   20.4940 C   0  0  0  0  0  0  0  0  0  0  0  0
  -28.7110  -18.6170   20.7260 S   0  0  0  0  0  0  0  0  0  0  0  0
  -30.5400  -14.8210   20.2940 C   0  0  0  0  0  0  0  0  0  0  0  0
  -30.3450  -12.5520   19.2440 C   0  0  0  0  0  2  0  0  0  0  0  0
  -29.3940  -12.6400   18.0270 C   0  0  0  0  0  2  0  0  0  0  0  0
  -27.9260  -12.4600   18.4630 C   0  0  0  0  0  2  0  0  0  0  0  0
  -27.5660  -13.3260   19.6990 C   0  0  0  0  0  3  0  0  0  0  0  0
  -28.6330  -13.2170   20.8120 C   0  0  0  0  0  2  0  0  0  0  0  0
  -29.9230  -13.5890   20.2160 N   0  0  0  0  0  0  0  0  0  0  0  0
  -31.7210  -14.9290   19.9500 O   0  0  0  0  0  0  0  0  0  0  0  0
  -29.7460  -15.9370   20.5710 N   0  0  0  0  0  0  0  0  0  0  0  0
  -28.8000  -15.6830   20.8160 H   0  0  0  0  0  0  0  0  0  0  0  0
  -25.1810  -13.9170   20.4290 C   0  0  0  0  0  0  0  0  0  0  0  0
  -24.1180  -13.1450   20.8050 C   0  0  0  0  0  0  0  0  0  0  0  0
  -24.5830  -11.7930   20.7810 C   0  0  0  0  0  0  0  0  0  0  0  0
  -26.2240  -13.0380   20.1950 N   0  0  0  0  0  0  0  0  0  0  0  0
  -25.8730  -11.7550   20.4700 N   0  0  0  0  0  0  0  0  0  0  0  0
  -23.8580  -10.5310   20.9770 C   0  0  0  0  0  0  0  0  0  0  0  0
  -24.2890   -9.5710   21.9190 C   0  0  0  0  0  3  0  0  0  0  0  0
  -23.5640   -8.3740   22.1050 C   0  0  0  0  0  3  0  0  0  0  0  0
  -22.3940   -8.1290   21.3480 C   0  0  0  0  0  0  0  0  0  0  0  0
  -21.9810   -9.0770   20.3960 C   0  0  0  0  0  3  0  0  0  0  0  0
  -22.7060  -10.2660   20.2090 C   0  0  0  0  0  3  0  0  0  0  0  0
  -21.6410   -6.9830   21.4410 O   0  0  0  0  0  0  0  0  0  0  0  0
  -21.5840   -6.2520   22.6010 C   0  0  0  0  0  0  0  0  0  0  0  0
  -21.1430   -6.8170   23.8170 C   0  0  0  0  0  3  0  0  0  0  0  0
  -21.0350   -6.0110   24.9680 C   0  0  0  0  0  3  0  0  0  0  0  0
  -21.3560   -4.6420   24.9040 C   0  0  0  0  0  0  0  0  0  0  0  0
  -21.7890   -4.0770   23.6910 C   0  0  0  0  0  3  0  0  0  0  0  0
  -21.8990   -4.8790   22.5430 C   0  0  0  0  0  0  0  0  0  0  0  0
  -22.2960   -4.3250   21.3710 F   0  0  0  0  0  0  0  0  0  0  0  0
  -21.2430   -3.8660   26.0080 F   0  0  0  0  0  0  0  0  0  0  0  0
  -22.7200  -13.6210   21.0750 C   0  0  0  0  0  0  0  0  0  0  0  0
  -21.9930  -12.9270   21.9430 N   0  0  0  0  0  0  0  0  0  0  0  0
  -22.2830  -14.6440   20.5520 O   0  0  0  0  0  0  0  0  0  0  0  0
  -22.3610  -12.0990   22.3850 H   0  0  0  0  0  0  0  0  0  0  0  0
  -21.0560  -13.2310   22.1690 H   0  0  0  0  0  0  0  0  0  0  0  0
  -25.3400  -15.2880   20.2410 N   0  0  0  0  0  0  0  0  0  0  0  0
  -24.5600  -15.9290   20.3280 H   0  0  0  0  0  0  0  0  0  0  0  0
  -26.1680  -15.7250   19.8560 H   0  0  0  0  0  0  0  0  0  0  0  0
  -32.2530  -20.2440   19.9990 C   0  0  0  0  0  0  0  0  0  0  0  0
  -33.2910  -20.1140   20.8330 N   0  0  0  0  0  0  0  0  0  0  0  0
  -32.3770  -21.0300   18.9270 N   0  0  0  0  0  4  0  0  0  0  0  0
  -33.1990  -19.5390   21.6560 H   0  0  0  0  0  0  0  0  0  0  0  0
  -34.1660  -20.5960   20.7090 H   0  0  0  0  0  0  0  0  0  0  0  0
  -31.6270  -21.0510   18.2520 H   0  0  0  0  0  0  0  0  0  0  0  0
  -33.2130  -21.5490   18.7160 H   0  0  0  0  0  0  0  0  0  0  0  0
  -29.8860  -22.6740   19.9320 C   0  0  0  0  0  2  0  0  0  0  0  0
  -28.0700  -22.1150   20.7300 C   0  0  0  0  0  2  0  0  0  0  0  0
  -28.7630  -23.5460   20.6150 C   0  0  0  0  0  3  0  0  0  0  0  0
  -29.4070  -21.4960   20.6950 N   0  0  0  0  0  0  0  0  0  0  0  0
  -28.0040  -24.8400   19.9700 C   0  0  0  0  0  2  0  0  0  0  0  0
  -28.2680  -26.3140   20.2540 O   0  0  0  0  0  0  0  0  0  0  0  0
  -24.6110  -31.8760   23.2360 C   0  0  0  0  0  0  0  0  0  0  0  0
  -27.2000  -27.2550   20.1650 C   0  0  0  0  0  0  0  0  0  0  0  0
  -23.4110  -30.4860   21.5900 C   0  0  0  0  0  3  0  0  0  0  0  0
  -24.8610  -28.9450   20.1460 C   0  0  0  0  0  0  0  0  0  0  0  0
  -25.9570  -30.7800   21.4190 C   0  0  0  0  0  2  0  0  0  0  0  0
  -26.0350  -29.4000   20.7610 C   0  0  0  0  0  0  0  0  0  0  0  0
  -27.2030  -28.5660   20.7640 C   0  0  0  0  0  3  0  0  0  0  0  0
  -26.0080  -26.8960   19.4930 C   0  0  0  0  0  3  0  0  0  0  0  0
  -24.8570  -27.7040   19.4950 C   0  0  0  0  0  3  0  0  0  0  0  0
  -23.6280  -29.8270   20.2030 C   0  0  0  0  0  2  0  0  0  0  0  0
  -24.6790  -31.0680   22.1370 N   0  0  0  0  0  0  0  0  0  0  0  0
  -23.5270  -32.1540   23.7690 O   0  0  0  0  0  0  0  0  0  0  0  0
  -22.7450  -29.4650   22.5460 C   0  0  0  0  0  0  0  0  0  0  0  0
  -21.4170  -29.2930   22.4260 N   0  0  0  0  0  0  0  0  0  0  0  0
  -23.4240  -28.8310   23.3590 O   0  0  0  0  0  0  0  0  0  0  0  0
  -20.9290  -29.8580   21.7440 H   0  0  0  0  0  0  0  0  0  0  0  0
  -18.0370  -28.1010   22.9330 C   0  0  0  0  0  0  0  0  0  0  0  0
  -20.5970  -28.3530   23.1940 C   0  0  0  0  0  3  0  0  0  0  0  0
  -20.6930  -26.9260   22.6080 C   0  0  0  0  0  2  0  0  0  0  0  0
  -19.5870  -26.6130   21.5960 C   0  0  0  0  0  2  0  0  0  0  0  0
  -18.2070  -26.7580   22.2450 C   0  0  0  0  0  2  0  0  0  0  0  0
  -19.1590  -28.8590   23.3630 C   0  0  0  0  0  0  0  0  0  0  0  0
  -18.9440  -30.1160   23.9670 C   0  0  0  0  0  3  0  0  0  0  0  0
  -17.6410  -30.6170   24.1440 C   0  0  0  0  0  3  0  0  0  0  0  0
  -16.5330  -29.8570   23.7290 C   0  0  0  0  0  3  0  0  0  0  0  0
  -16.7320  -28.6010   23.1290 C   0  0  0  0  0  3  0  0  0  0  0  0
  -25.8920  -32.5090   23.8610 C   0  0  0  0  0  3  0  0  0  0  0  0
  -26.4050  -31.7380   25.1390 C   0  0  1  0  0  0  0  0  0  0  0  0
  -25.3090  -31.5000   26.2050 C   0  0  0  0  0  1  0  0  0  0  0  0
  -26.9880  -30.3600   24.7510 C   0  0  0  0  0  1  0  0  0  0  0  0
  -27.5560  -32.5320   25.8030 C   0  0  0  0  0  1  0  0  0  0  0  0
  -25.5820  -33.9080   24.1940 N   0  0  0  0  0  0  0  0  0  0  0  0
  -25.9080  -34.9630   23.4350 C   0  0  0  0  0  0  0  0  0  0  0  0
  -26.5690  -34.8610   22.3980 O   0  0  0  0  0  0  0  0  0  0  0  0
  -24.9990  -34.0610   25.0040 H   0  0  0  0  0  0  0  0  0  0  0  0
  -24.1760  -36.7560   23.0970 C   0  0  0  0  0  1  0  0  0  0  0  0
  -25.4240  -36.3500   23.8990 C   0  0  0  0  0  3  0  0  0  0  0  0
  -27.5620  -37.2380   24.7180 C   0  0  0  0  0  1  0  0  0  0  0  0
  -26.4550  -37.4040   23.7810 N   0  0  0  0  0  0  0  0  0  0  0  0
  -26.0490  -38.3230   23.9290 H   0  0  0  0  0  0  0  0  0  0  0  0
  1  4  2  0
  2  1  1  0
  2  3  2  0
  3 54  1  0
  3  5  1  0
  4 14  1  0
  4  5  1  0
  6 14  1  0
  7 12  1  0
  8  9  1  0
  8  7  1  0
 10  9  1  0
 10 19  1  0
 10 11  1  0
 12  6  1  0
 12 11  1  0
 13  6  2  0
 14 15  1  0
 16 17  2  0
 17 36  1  0
 18 17  1  0
 18 21  1  0
 19 16  1  0
 19 20  1  0
 20 18  2  0
 21 22  1  0
 22 23  2  0
 24 27  1  0
 24 23  1  0
 25 24  2  0
 26 25  1  0
 26 21  2  0
 27 28  1  0
 28 29  1  0
 29 30  2  0
 31 30  1  0
 31 35  1  0
 32 31  2  0
 33 28  2  0
 33 32  1  0
 34 33  1  0
 36 37  1  0
 37 40  1  0
 37 39  1  0
 38 36  2  0
 41 42  1  0
 41 16  1  0
 43 41  1  0
 44  2  1  0
 44 45  1  0
 45 47  1  0
 46 44  2  0
 48 45  1  0
 49 46  1  0
 50 46  1  0
 51 53  1  0
 51 54  1  0
 53 55  1  0
 53 52  1  0
 54 52  1  0
 55 56  1  0
 57 68  2  0
 58 56  1  0
 58 63  1  0
 59 67  1  0
 59 69  1  0
 60 66  1  0
 60 62  1  0
 61 67  1  0
 62 63  2  0
 62 61  1  0
 64 65  1  0
 64 58  2  0
 65 60  2  0
 66 59  1  0
 67 57  1  0
 69 71  2  0
 70 69  1  0
 72 70  1  0
 73 82  2  0
 73 78  1  0
 74 70  1  0
 74 78  1  0
 75 74  1  0
 76 77  1  0
 76 75  1  0
 77 73  1  0
 78 79  2  0
 79 80  1  0
 81 80  2  0
 82 81  1  0
 83 57  1  0
 83 88  1  0
 83 84  1  0
 84 87  1  1
 84 85  1  0
 86 84  1  0
 88 91  1  0
 89 93  1  0
 89 88  1  0
 90 89  2  0
 93 92  1  0
 95 93  1  0
 95 96  1  0
 95 94  1  0
M  ISO  4   6 100  14 100  55 101  56 101
M  END
>  <TORSDO>  (47) 
F 19

>  <SCORE>  (47) 
-14.214

>  <name>  (47) 
46

>  <ligand_id>  (47) 
46

>  <original_smiles>  (47) 
[H]c1c([H])c([H])c2c(c1[H])C([H])([H])C([H])([H])C([H])([H])C2([H])N([H])C(=O)C1([H])N(C(=O)C([H])(N([H])C(=O)C([H])(N([H])C([H])([H])[H])C([H])([H])[H])C(C([H])([H])[H])(C([H])([H])[H])C([H])([H])[H])C([H])([H])c2c([H])c(OC([H])([H])C3([H])C([H])([H])N(c4sc(N([H])C(=O)N5C([H])([H])C([H])([H])C([H])([H])C([H])(n6nc(-c7c([H])c([H])c(Oc8c([H])c([H])c(F)c([H])c8F)c([H])c7[H])c(C(=O)N([H])[H])c6N([H])[H])C5([H])[H])c([H])c4C(N([H])[H])=[N+]([H])[H])C3([H])[H])c([H])c([H])c2C1([H])[H]

>  <smiles>  (47) 
[H]c1c([H])c([H])c2c(c1[H])C([H])([H])C([H])([H])C([H])([H])C2([H])N([H])C(=O)C1([H])N(C(=O)C([H])(N([H])C(=O)C([H])(N([H])C([H])([H])[H])C([H])([H])[H])C(C([H])([H])[H])(C([H])([H])[H])C([H])([H])[H])C([H])([H])c2c([H])c(OC([H])([H])C3([H])C([H])([H])N(c4sc(N([H])C(=O)N5C([H])([H])C([H])([H])C([H])([H])C([H])(n6nc(-c7c([H])c([H])c(Oc8c([H])c([H])c(F)c([H])c8F)c([H])c7[H])c(C(=O)N([H])[H])c6N([H])[H])C5([H])[H])c([H])c4C(N([H])[H])=[N+]([H])[H])C3([H])[H])c([H])c([H])c2C1([H])[H]

$$$$
47:0:0
     RDKit          3D

 98107  0  0  1  0  0  0  0  0999 V2000
  -29.8440  -20.8640   21.3210 C   0  0  0  0  0  3  0  0  0  0  0  0
  -29.2860  -23.6900   18.9330 C   0  0  0  0  0  2  0  0  0  0  0  0
  -29.9660  -22.3550   19.3030 C   0  0  0  0  0  2  0  0  0  0  0  0
  -29.1960  -24.4430   20.2620 C   0  0  1  0  0  0  0  0  0  0  0  0
  -28.8680  -23.2640   21.2620 C   0  0  2  0  0  0  0  0  0  0  0  0
  -27.3530  -22.9320   21.2920 C   0  0  0  0  0  1  0  0  0  0  0  0
  -29.3370  -23.6390   22.6910 C   0  0  0  0  0  1  0  0  0  0  0  0
  -29.6140  -22.0780   20.7170 N   0  0  0  0  0  0  0  0  0  0  0  0
  -29.3230  -20.6360   22.5240 N   0  0  0  0  0  0  0  0  0  0  0  0
  -30.4220  -24.9060   20.5320 F   0  0  0  0  0  0  0  0  0  0  0  0
  -29.5460  -19.7740   22.9980 H   0  0  0  0  0  0  0  0  0  0  0  0
  -28.7960  -21.3370   23.0120 H   0  0  0  0  0  0  0  0  0  0  0  0
  -32.8600  -18.9940   20.0240 C   0  0  0  0  0  3  0  0  0  0  0  0
  -32.0000  -20.0410   20.3920 C   0  0  0  0  0  3  0  0  0  0  0  0
  -32.4100  -17.6610   20.0380 C   0  0  0  0  0  3  0  0  0  0  0  0
  -30.2130  -18.4120   20.7610 C   0  0  0  0  0  3  0  0  0  0  0  0
  -30.6710  -19.7660   20.7710 C   0  0  0  0  0  0  0  0  0  0  0  0
  -31.0710  -17.3350   20.3880 C   0  0  0  0  0  0  0  0  0  0  0  0
  -31.1730  -14.8610   19.8970 C   0  0  0  0  0  0  0  0  0  0  0  0
  -30.7790  -12.6100   18.9640 C   0  0  0  0  0  2  0  0  0  0  0  0
  -29.8040  -12.7070   17.7740 C   0  0  0  0  0  2  0  0  0  0  0  0
  -28.3490  -12.6060   18.2680 C   0  0  0  0  0  2  0  0  0  0  0  0
  -28.0540  -13.5560   19.4610 C   0  0  0  0  0  3  0  0  0  0  0  0
  -29.1530  -13.4680   20.5460 C   0  0  0  0  0  2  0  0  0  0  0  0
  -30.4530  -13.7010   19.9020 N   0  0  0  0  0  0  0  0  0  0  0  0
  -32.2630  -14.9230   19.3300 O   0  0  0  0  0  0  0  0  0  0  0  0
  -30.5840  -15.9700   20.4140 N   0  0  0  0  0  0  0  0  0  0  0  0
  -29.6550  -15.8280   20.7790 H   0  0  0  0  0  0  0  0  0  0  0  0
  -25.7250  -14.2300   20.3170 C   0  0  0  0  0  0  0  0  0  0  0  0
  -24.6520  -13.4890   20.7320 C   0  0  0  0  0  0  0  0  0  0  0  0
  -25.0590  -12.1220   20.6510 C   0  0  0  0  0  0  0  0  0  0  0  0
  -26.7220  -13.3170   20.0130 N   0  0  0  0  0  0  0  0  0  0  0  0
  -26.3280  -12.0420   20.2710 N   0  0  0  0  0  0  0  0  0  0  0  0
  -24.2970  -10.8840   20.8590 C   0  0  0  0  0  0  0  0  0  0  0  0
  -24.6940   -9.9230   21.8140 C   0  0  0  0  0  3  0  0  0  0  0  0
  -23.9340   -8.7500   22.0080 C   0  0  0  0  0  3  0  0  0  0  0  0
  -22.7620   -8.5280   21.2460 C   0  0  0  0  0  0  0  0  0  0  0  0
  -22.3830   -9.4780   20.2810 C   0  0  0  0  0  3  0  0  0  0  0  0
  -23.1440  -10.6420   20.0840 C   0  0  0  0  0  3  0  0  0  0  0  0
  -21.9750   -7.4070   21.3490 O   0  0  0  0  0  0  0  0  0  0  0  0
  -21.8520   -6.7190   22.5300 C   0  0  0  0  0  0  0  0  0  0  0  0
  -21.3430   -7.3270   23.6980 C   0  0  0  0  0  3  0  0  0  0  0  0
  -21.1700   -6.5640   24.8700 C   0  0  0  0  0  3  0  0  0  0  0  0
  -21.4950   -5.1950   24.8740 C   0  0  0  0  0  0  0  0  0  0  0  0
  -21.9980   -4.5860   23.7110 C   0  0  0  0  0  3  0  0  0  0  0  0
  -22.1730   -5.3460   22.5410 C   0  0  0  0  0  0  0  0  0  0  0  0
  -22.6370   -4.7500   21.4170 F   0  0  0  0  0  0  0  0  0  0  0  0
  -21.3220   -4.4600   25.9990 F   0  0  0  0  0  0  0  0  0  0  0  0
  -23.2910  -14.0120   21.0920 C   0  0  0  0  0  0  0  0  0  0  0  0
  -22.5910  -13.3310   21.9920 N   0  0  0  0  0  0  0  0  0  0  0  0
  -22.8600  -15.0580   20.6090 O   0  0  0  0  0  0  0  0  0  0  0  0
  -22.9520  -12.4830   22.4030 H   0  0  0  0  0  0  0  0  0  0  0  0
  -21.6800  -13.6630   22.2760 H   0  0  0  0  0  0  0  0  0  0  0  0
  -25.9310  -15.5960   20.1540 N   0  0  0  0  0  0  0  0  0  0  0  0
  -25.1940  -16.2750   20.3080 H   0  0  0  0  0  0  0  0  0  0  0  0
  -26.7710  -16.0070   19.7650 H   0  0  0  0  0  0  0  0  0  0  0  0
  -28.1880  -25.6440   20.3190 C   0  0  0  0  0  2  0  0  0  0  0  0
  -28.4250  -26.8910   19.5990 O   0  0  0  0  0  0  0  0  0  0  0  0
  -24.5060  -31.7270   23.0950 C   0  0  0  0  0  0  0  0  0  0  0  0
  -27.2850  -27.6810   19.5940 C   0  0  0  0  0  0  0  0  0  0  0  0
  -23.3320  -30.3920   21.3810 C   0  0  0  0  0  3  0  0  0  0  0  0
  -24.8240  -29.0770   19.7820 C   0  0  0  0  0  0  0  0  0  0  0  0
  -25.8300  -30.9070   21.1470 C   0  0  0  0  0  2  0  0  0  0  0  0
  -25.9740  -29.6020   20.3870 C   0  0  0  0  0  0  0  0  0  0  0  0
  -27.2110  -28.9120   20.2950 C   0  0  0  0  0  3  0  0  0  0  0  0
  -26.1240  -27.2120   18.9390 C   0  0  0  0  0  3  0  0  0  0  0  0
  -24.8960  -27.8840   19.0500 C   0  0  0  0  0  3  0  0  0  0  0  0
  -23.5340  -29.8500   19.9410 C   0  0  0  0  0  2  0  0  0  0  0  0
  -24.5750  -31.0210   21.9320 N   0  0  0  0  0  0  0  0  0  0  0  0
  -23.4280  -31.8910   23.6840 O   0  0  0  0  0  0  0  0  0  0  0  0
  -22.7720  -29.2580   22.2690 C   0  0  0  0  0  0  0  0  0  0  0  0
  -21.4650  -28.9770   22.1330 N   0  0  0  0  0  0  0  0  0  0  0  0
  -23.5100  -28.6360   23.0390 O   0  0  0  0  0  0  0  0  0  0  0  0
  -20.9260  -29.5370   21.4870 H   0  0  0  0  0  0  0  0  0  0  0  0
  -18.2050  -27.4700   22.5460 C   0  0  0  0  0  0  0  0  0  0  0  0
  -20.7320  -27.9270   22.8420 C   0  0  0  0  0  3  0  0  0  0  0  0
  -20.9550  -26.5480   22.1800 C   0  0  0  0  0  2  0  0  0  0  0  0
  -19.8830  -26.1960   21.1440 C   0  0  0  0  0  2  0  0  0  0  0  0
  -18.4950  -26.1850   21.7900 C   0  0  0  0  0  2  0  0  0  0  0  0
  -19.2560  -28.2960   23.0270 C   0  0  0  0  0  0  0  0  0  0  0  0
  -18.9320  -29.4990   23.6920 C   0  0  0  0  0  3  0  0  0  0  0  0
  -17.5890  -29.8770   23.8820 C   0  0  0  0  0  3  0  0  0  0  0  0
  -16.5530  -29.0480   23.4190 C   0  0  0  0  0  3  0  0  0  0  0  0
  -16.8620  -27.8460   22.7560 C   0  0  0  0  0  3  0  0  0  0  0  0
  -25.7720  -32.3850   23.7270 C   0  0  0  0  0  3  0  0  0  0  0  0
  -25.4140  -33.7580   24.1070 N   0  0  0  0  0  0  0  0  0  0  0  0
  -25.7010  -34.8460   23.3820 C   0  0  0  0  0  0  0  0  0  0  0  0
  -26.3650  -34.8030   22.3430 O   0  0  0  0  0  0  0  0  0  0  0  0
  -24.8230  -33.8620   24.9190 H   0  0  0  0  0  0  0  0  0  0  0  0
  -23.8980  -36.5780   23.1060 C   0  0  0  0  0  1  0  0  0  0  0  0
  -25.1650  -36.1990   23.8900 C   0  0  0  0  0  3  0  0  0  0  0  0
  -27.2660  -37.1470   24.7340 C   0  0  0  0  0  1  0  0  0  0  0  0
  -26.1540  -37.2950   23.7990 N   0  0  0  0  0  0  0  0  0  0  0  0
  -25.7120  -38.1940   23.9720 H   0  0  0  0  0  0  0  0  0  0  0  0
  -26.3320  -31.5880   24.9690 C   0  0  1  0  0  0  0  0  0  0  0  0
  -25.2580  -31.2660   26.0350 C   0  0  0  0  0  1  0  0  0  0  0  0
  -26.9670  -30.2510   24.5200 C   0  0  0  0  0  1  0  0  0  0  0  0
  -27.4540  -32.4040   25.6520 C   0  0  0  0  0  1  0  0  0  0  0  0
  1  9  1  0
  2  3  1  0
  2  4  1  0
  3  8  1  0
  4 57  1  0
  4 10  1  1
  4  5  1  0
  5  6  1  1
  5  7  1  0
  8  5  1  0
  8  1  1  0
  9 11  1  0
  9 12  1  0
 13 15  2  0
 13 14  1  0
 14 17  2  0
 15 18  1  0
 16 17  1  0
 17  1  1  0
 18 27  1  0
 18 16  2  0
 19 25  1  0
 19 27  1  0
 20 25  1  0
 21 22  1  0
 21 20  1  0
 23 22  1  0
 23 32  1  0
 23 24  1  0
 25 24  1  0
 26 19  2  0
 27 28  1  0
 29 30  2  0
 30 49  1  0
 31 30  1  0
 31 34  1  0
 32 33  1  0
 32 29  1  0
 33 31  2  0
 34 35  1  0
 35 36  2  0
 37 40  1  0
 37 36  1  0
 38 37  2  0
 39 38  1  0
 39 34  2  0
 40 41  1  0
 41 46  2  0
 41 42  1  0
 42 43  2  0
 43 44  1  0
 44 48  1  0
 45 44  2  0
 46 45  1  0
 47 46  1  0
 49 50  1  0
 50 53  1  0
 50 52  1  0
 51 49  2  0
 54 55  1  0
 54 29  1  0
 56 54  1  0
 58 57  1  0
 59 70  2  0
 60 58  1  0
 60 65  1  0
 61 69  1  0
 61 71  1  0
 62 68  1  0
 62 64  1  0
 63 69  1  0
 64 63  1  0
 65 64  2  0
 66 67  1  0
 66 60  2  0
 67 62  2  0
 68 61  1  0
 69 59  1  0
 71 73  2  0
 72 71  1  0
 74 72  1  0
 75 84  2  0
 75 80  1  0
 76 72  1  0
 76 80  1  0
 77 76  1  0
 78 79  1  0
 78 77  1  0
 79 75  1  0
 80 81  2  0
 81 82  1  0
 83 82  2  0
 84 83  1  0
 85 59  1  0
 85 86  1  0
 85 95  1  0
 86 89  1  0
 87 91  1  0
 87 86  1  0
 88 87  2  0
 91 90  1  0
 93 91  1  0
 93 94  1  0
 93 92  1  0
 95 98  1  1
 95 96  1  0
 97 95  1  0
M  ISO  4  19 100  27 100  57 101  58 101
M  END
>  <TORSDO>  (48) 
F 18

>  <SCORE>  (48) 
-13.612

>  <name>  (48) 
47

>  <ligand_id>  (48) 
47

>  <original_smiles>  (48) 
[H]c1c([H])c(C(N2C([H])([H])C([H])([H])C(F)(C([H])([H])Oc3c([H])c([H])c4c(c3[H])C([H])([H])N(C(=O)C([H])(N([H])C(=O)C([H])(N([H])C([H])([H])[H])C([H])([H])[H])C(C([H])([H])[H])(C([H])([H])[H])C([H])([H])[H])C([H])(C(=O)N([H])C3([H])c5c([H])c([H])c([H])c([H])c5C([H])([H])C([H])([H])C3([H])[H])C4([H])[H])C2(C([H])([H])[H])C([H])([H])[H])=[N+]([H])[H])c([H])c(N([H])C(=O)N2C([H])([H])C([H])([H])C([H])([H])C([H])(n3nc(-c4c([H])c([H])c(Oc5c([H])c([H])c(F)c([H])c5F)c([H])c4[H])c(C(=O)N([H])[H])c3N([H])[H])C2([H])[H])c1[H]

>  <smiles>  (48) 
[H]c1c([H])c(C(N2C([H])([H])C([H])([H])C(F)(C([H])([H])Oc3c([H])c([H])c4c(c3[H])C([H])([H])N(C(=O)C([H])(N([H])C(=O)C([H])(N([H])C([H])([H])[H])C([H])([H])[H])C(C([H])([H])[H])(C([H])([H])[H])C([H])([H])[H])C([H])(C(=O)N([H])C3([H])c5c([H])c([H])c([H])c([H])c5C([H])([H])C([H])([H])C3([H])[H])C4([H])[H])C2(C([H])([H])[H])C([H])([H])[H])=[N+]([H])[H])c([H])c(N([H])C(=O)N2C([H])([H])C([H])([H])C([H])([H])C([H])(n3nc(-c4c([H])c([H])c(Oc5c([H])c([H])c(F)c([H])c5F)c([H])c4[H])c(C(=O)N([H])[H])c3N([H])[H])C2([H])[H])c1[H]

$$$$
48:0:0
     RDKit          3D

 93102  0  0  1  0  0  0  0  0999 V2000
  -29.9530  -23.8680   18.7640 C   0  0  0  0  0  3  0  0  0  0  0  0
  -29.1370  -23.7060   19.8220 C   0  0  0  0  0  0  0  0  0  0  0  0
  -30.7320  -22.7440   18.2010 C   0  0  0  0  0  0  0  0  0  0  0  0
  -30.8230  -21.4040   18.9640 C   0  0  0  0  0  2  0  0  0  0  0  0
  -28.9900  -22.2480   20.4640 C   0  0  0  0  0  3  0  0  0  0  0  0
  -29.4900  -22.2900   21.9200 C   0  0  0  0  0  1  0  0  0  0  0  0
  -29.6390  -21.0580   19.7570 N   0  0  0  0  0  0  0  0  0  0  0  0
  -31.3330  -22.8520   17.1300 O   0  0  0  0  0  0  0  0  0  0  0  0
  -30.1960  -18.4090   19.7800 C   0  0  0  0  0  3  0  0  0  0  0  0
  -28.2070  -19.2420   20.6570 C   0  0  0  0  0  3  0  0  0  0  0  0
  -29.3710  -19.6300   20.0540 C   0  0  0  0  0  0  0  0  0  0  0  0
  -29.6320  -17.1640   20.1640 C   0  0  0  0  0  0  0  0  0  0  0  0
  -28.0800  -17.5210   20.8880 S   0  0  0  0  0  0  0  0  0  0  0  0
  -30.7420  -14.8220   19.5830 C   0  0  0  0  0  0  0  0  0  0  0  0
  -30.6060  -12.5250   18.5730 C   0  0  0  0  0  2  0  0  0  0  0  0
  -29.5000  -12.5370   17.4910 C   0  0  0  0  0  2  0  0  0  0  0  0
  -28.1070  -12.2950   18.1080 C   0  0  0  0  0  2  0  0  0  0  0  0
  -27.8570  -13.1630   19.3680 C   0  0  0  0  0  3  0  0  0  0  0  0
  -29.0570  -13.0840   20.3380 C   0  0  0  0  0  2  0  0  0  0  0  0
  -30.2510  -13.5330   19.5970 N   0  0  0  0  0  0  0  0  0  0  0  0
  -31.8250  -15.0760   19.0440 O   0  0  0  0  0  0  0  0  0  0  0  0
  -29.8720  -15.7740   20.0910 N   0  0  0  0  0  0  0  0  0  0  0  0
  -29.1300  -15.2690   20.5530 H   0  0  0  0  0  0  0  0  0  0  0  0
  -25.6020  -13.6790   20.4850 C   0  0  0  0  0  0  0  0  0  0  0  0
  -24.5980  -12.8700   20.9420 C   0  0  0  0  0  0  0  0  0  0  0  0
  -25.0440  -11.5290   20.7280 C   0  0  0  0  0  0  0  0  0  0  0  0
  -26.5950  -12.8290   20.0230 N   0  0  0  0  0  0  0  0  0  0  0  0
  -26.2730  -11.5270   20.2280 N   0  0  0  0  0  0  0  0  0  0  0  0
  -24.3480  -10.2500   20.9180 C   0  0  0  0  0  0  0  0  0  0  0  0
  -24.8130   -9.2870   21.8410 C   0  0  0  0  0  3  0  0  0  0  0  0
  -24.1170   -8.0710   22.0190 C   0  0  0  0  0  3  0  0  0  0  0  0
  -22.9420   -7.8110   21.2740 C   0  0  0  0  0  0  0  0  0  0  0  0
  -22.4970   -8.7640   20.3400 C   0  0  0  0  0  3  0  0  0  0  0  0
  -23.1930   -9.9700   20.1610 C   0  0  0  0  0  3  0  0  0  0  0  0
  -22.2170   -6.6480   21.3610 O   0  0  0  0  0  0  0  0  0  0  0  0
  -22.0720   -5.9770   22.5480 C   0  0  0  0  0  0  0  0  0  0  0  0
  -21.4680   -6.5770   23.6730 C   0  0  0  0  0  3  0  0  0  0  0  0
  -21.2750   -5.8300   24.8530 C   0  0  0  0  0  3  0  0  0  0  0  0
  -21.6790   -4.4820   24.9050 C   0  0  0  0  0  0  0  0  0  0  0  0
  -22.2760   -3.8810   23.7840 C   0  0  0  0  0  3  0  0  0  0  0  0
  -22.4690   -4.6250   22.6080 C   0  0  0  0  0  0  0  0  0  0  0  0
  -23.0270   -4.0360   21.5220 F   0  0  0  0  0  0  0  0  0  0  0  0
  -21.4860   -3.7610   26.0340 F   0  0  0  0  0  0  0  0  0  0  0  0
  -23.2590  -13.3120   21.4580 C   0  0  0  0  0  0  0  0  0  0  0  0
  -22.6690  -12.5470   22.3700 N   0  0  0  0  0  0  0  0  0  0  0  0
  -22.7490  -14.3690   21.0870 O   0  0  0  0  0  0  0  0  0  0  0  0
  -23.0970  -11.6910   22.6890 H   0  0  0  0  0  0  0  0  0  0  0  0
  -21.7780  -12.8250   22.7560 H   0  0  0  0  0  0  0  0  0  0  0  0
  -25.7460  -15.0610   20.4020 N   0  0  0  0  0  0  0  0  0  0  0  0
  -25.0100  -15.6980   20.6870 H   0  0  0  0  0  0  0  0  0  0  0  0
  -26.5320  -15.5350   19.9750 H   0  0  0  0  0  0  0  0  0  0  0  0
  -28.2730  -24.9370   20.3830 C   0  0  0  0  0  2  0  0  0  0  0  0
  -28.5610  -26.3790   20.0200 O   0  0  0  0  0  0  0  0  0  0  0  0
  -24.8820  -31.8110   23.2210 C   0  0  0  0  0  0  0  0  0  0  0  0
  -27.4800  -27.2970   20.0260 C   0  0  0  0  0  0  0  0  0  0  0  0
  -23.6870  -30.4920   21.5120 C   0  0  0  0  0  3  0  0  0  0  0  0
  -25.1420  -28.9770   20.0440 C   0  0  0  0  0  0  0  0  0  0  0  0
  -26.2370  -30.7750   21.3780 C   0  0  0  0  0  2  0  0  0  0  0  0
  -26.3120  -29.4170   20.6780 C   0  0  0  0  0  0  0  0  0  0  0  0
  -27.4860  -28.5910   20.6550 C   0  0  0  0  0  3  0  0  0  0  0  0
  -26.2890  -26.9350   19.3600 C   0  0  0  0  0  3  0  0  0  0  0  0
  -25.1370  -27.7440   19.3750 C   0  0  0  0  0  3  0  0  0  0  0  0
  -23.9170  -29.8700   20.1090 C   0  0  0  0  0  2  0  0  0  0  0  0
  -24.9540  -31.0420   22.0940 N   0  0  0  0  0  0  0  0  0  0  0  0
  -23.7930  -32.0800   23.7520 O   0  0  0  0  0  0  0  0  0  0  0  0
  -22.9970  -29.4470   22.4240 C   0  0  0  0  0  0  0  0  0  0  0  0
  -21.6690  -29.2970   22.2800 N   0  0  0  0  0  0  0  0  0  0  0  0
  -23.6580  -28.7770   23.2200 O   0  0  0  0  0  0  0  0  0  0  0  0
  -21.1940  -29.8910   21.6150 H   0  0  0  0  0  0  0  0  0  0  0  0
  -18.2670  -28.1410   22.7210 C   0  0  0  0  0  0  0  0  0  0  0  0
  -20.8300  -28.3390   23.0050 C   0  0  0  0  0  3  0  0  0  0  0  0
  -20.9050  -26.9350   22.3620 C   0  0  0  0  0  2  0  0  0  0  0  0
  -19.7990  -26.6820   21.3330 C   0  0  0  0  0  2  0  0  0  0  0  0
  -18.4200  -26.8230   21.9810 C   0  0  0  0  0  2  0  0  0  0  0  0
  -19.4000  -28.8620   23.1880 C   0  0  0  0  0  0  0  0  0  0  0  0
  -19.2030  -30.0970   23.8400 C   0  0  0  0  0  3  0  0  0  0  0  0
  -17.9070  -30.6140   24.0300 C   0  0  0  0  0  3  0  0  0  0  0  0
  -16.7900  -29.8910   23.5780 C   0  0  0  0  0  3  0  0  0  0  0  0
  -16.9700  -28.6550   22.9300 C   0  0  0  0  0  3  0  0  0  0  0  0
  -26.1610  -32.4070   23.8840 C   0  0  0  0  0  3  0  0  0  0  0  0
  -25.8550  -33.7900   24.2790 N   0  0  0  0  0  0  0  0  0  0  0  0
  -26.2040  -34.8790   23.5800 C   0  0  0  0  0  0  0  0  0  0  0  0
  -26.8870  -34.8220   22.5530 O   0  0  0  0  0  0  0  0  0  0  0  0
  -25.2510  -33.9070   25.0790 H   0  0  0  0  0  0  0  0  0  0  0  0
  -24.5040  -36.7090   23.2880 C   0  0  0  0  0  1  0  0  0  0  0  0
  -25.7220  -36.2450   24.1020 C   0  0  0  0  0  3  0  0  0  0  0  0
  -27.8420  -37.0670   25.0330 C   0  0  0  0  0  1  0  0  0  0  0  0
  -26.7690  -37.2920   24.0680 N   0  0  0  0  0  0  0  0  0  0  0  0
  -26.3680  -38.2080   24.2480 H   0  0  0  0  0  0  0  0  0  0  0  0
  -26.6590  -31.5750   25.1300 C   0  0  1  0  0  0  0  0  0  0  0  0
  -25.5540  -31.2940   26.1740 C   0  0  0  0  0  1  0  0  0  0  0  0
  -27.2410  -30.2130   24.6830 C   0  0  0  0  0  1  0  0  0  0  0  0
  -27.8060  -32.3310   25.8400 C   0  0  0  0  0  1  0  0  0  0  0  0
  1  2  2  0
  2 52  1  0
  2  5  1  0
  3  1  1  0
  3  4  1  0
  4  7  1  0
  5  6  1  0
  7 11  1  0
  7  5  1  0
  8  3  2  0
  9 11  1  0
  9 12  2  0
 10 13  1  0
 11 10  2  0
 12 13  1  0
 14 20  1  0
 14 22  1  0
 15 20  1  0
 16 17  1  0
 16 15  1  0
 18 17  1  0
 18 27  1  0
 18 19  1  0
 20 19  1  0
 21 14  2  0
 22 12  1  0
 22 23  1  0
 24 25  2  0
 25 44  1  0
 26 29  1  0
 26 25  1  0
 27 28  1  0
 27 24  1  0
 28 26  2  0
 29 30  1  0
 30 31  2  0
 32 35  1  0
 32 31  1  0
 33 32  2  0
 34 33  1  0
 34 29  2  0
 35 36  1  0
 36 41  2  0
 36 37  1  0
 37 38  2  0
 38 39  1  0
 39 43  1  0
 40 39  2  0
 41 40  1  0
 42 41  1  0
 44 45  1  0
 45 47  1  0
 45 48  1  0
 46 44  2  0
 49 24  1  0
 49 50  1  0
 51 49  1  0
 53 55  1  0
 53 52  1  0
 54 65  2  0
 55 60  1  0
 56 64  1  0
 56 66  1  0
 57 63  1  0
 57 59  1  0
 58 64  1  0
 59 58  1  0
 60 59  2  0
 61 62  1  0
 61 55  2  0
 62 57  2  0
 63 56  1  0
 64 54  1  0
 66 68  2  0
 67 66  1  0
 69 67  1  0
 70 79  2  0
 70 75  1  0
 71 67  1  0
 71 75  1  0
 72 71  1  0
 73 74  1  0
 73 72  1  0
 74 70  1  0
 75 76  2  0
 76 77  1  0
 78 77  2  0
 79 78  1  0
 80 54  1  0
 80 81  1  0
 80 90  1  0
 81 84  1  0
 82 86  1  0
 82 81  1  0
 83 82  2  0
 86 85  1  0
 88 86  1  0
 88 89  1  0
 88 87  1  0
 90 93  1  1
 90 91  1  0
 92 90  1  0
M  ISO  4  14 100  22 100  52 101  53 101
M  END
>  <TORSDO>  (49) 
F 18

>  <SCORE>  (49) 
-12.368

>  <name>  (49) 
48

>  <ligand_id>  (49) 
48

>  <original_smiles>  (49) 
[H]C1=C(C([H])([H])Oc2c([H])c([H])c3c(c2[H])C([H])([H])N(C(=O)C([H])(N([H])C(=O)C([H])(N([H])C([H])([H])[H])C([H])([H])[H])C(C([H])([H])[H])(C([H])([H])[H])C([H])([H])[H])C([H])(C(=O)N([H])C2([H])c4c([H])c([H])c([H])c([H])c4C([H])([H])C([H])([H])C2([H])[H])C3([H])[H])C([H])(C([H])([H])[H])N(c2c([H])sc(N([H])C(=O)N3C([H])([H])C([H])([H])C([H])([H])C([H])(n4nc(-c5c([H])c([H])c(Oc6c([H])c([H])c(F)c([H])c6F)c([H])c5[H])c(C(=O)N([H])[H])c4N([H])[H])C3([H])[H])c2[H])C([H])([H])C1=O

>  <smiles>  (49) 
[H]C1=C(C([H])([H])Oc2c([H])c([H])c3c(c2[H])C([H])([H])N(C(=O)C([H])(N([H])C(=O)C([H])(N([H])C([H])([H])[H])C([H])([H])[H])C(C([H])([H])[H])(C([H])([H])[H])C([H])([H])[H])C([H])(C(=O)N([H])C2([H])c4c([H])c([H])c([H])c([H])c4C([H])([H])C([H])([H])C2([H])[H])C3([H])[H])C([H])(C([H])([H])[H])N(c2c([H])sc(N([H])C(=O)N3C([H])([H])C([H])([H])C([H])([H])C([H])(n4nc(-c5c([H])c([H])c(Oc6c([H])c([H])c(F)c([H])c6F)c([H])c5[H])c(C(=O)N([H])[H])c4N([H])[H])C3([H])[H])c2[H])C([H])([H])C1=O

$$$$
49:0:0
     RDKit          3D

 93102  0  0  1  0  0  0  0  0999 V2000
  -29.7370  -20.7100   18.7130 C   0  0  0  0  0  3  0  0  0  0  0  0
  -30.1990  -19.3340   18.6660 C   0  0  0  0  0  0  0  0  0  0  0  0
  -30.1190  -18.6430   19.8630 C   0  0  0  0  0  0  0  0  0  0  0  0
  -29.2340  -21.1580   19.9170 C   0  0  0  0  0  0  0  0  0  0  0  0
  -30.7840  -18.7520   17.4140 C   0  0  0  0  0  1  0  0  0  0  0  0
  -29.2930  -19.7480   21.0130 S   0  0  0  0  0  0  0  0  0  0  0  0
  -30.7660  -14.7290   19.8320 C   0  0  0  0  0  0  0  0  0  0  0  0
  -30.3610  -12.5180   18.7150 C   0  0  0  0  0  2  0  0  0  0  0  0
  -29.3120  -12.6470   17.5890 C   0  0  0  0  0  2  0  0  0  0  0  0
  -27.8890  -12.4660   18.1480 C   0  0  0  0  0  2  0  0  0  0  0  0
  -27.6500  -13.3050   19.4310 C   0  0  0  0  0  3  0  0  0  0  0  0
  -28.8080  -13.1460   20.4350 C   0  0  0  0  0  2  0  0  0  0  0  0
  -30.0500  -13.5420   19.7490 N   0  0  0  0  0  0  0  0  0  0  0  0
  -31.8510  -14.7880   19.2460 O   0  0  0  0  0  0  0  0  0  0  0  0
  -30.5580  -16.9650   22.5660 C   0  0  0  0  0  2  0  0  0  0  0  0
  -31.5880  -17.4690   21.5710 C   0  0  0  0  0  2  0  0  0  0  0  0
  -29.8290  -15.8440   21.8140 C   0  0  0  0  0  2  0  0  0  0  0  0
  -30.8710  -17.2900   20.2350 C   0  0  0  0  0  3  0  0  0  0  0  0
  -30.2210  -15.9010   20.3920 N   0  0  0  0  0  0  0  0  0  0  0  0
  -25.3630  -13.8880   20.4350 C   0  0  0  0  0  0  0  0  0  0  0  0
  -24.3260  -13.1100   20.8730 C   0  0  0  0  0  0  0  0  0  0  0  0
  -24.7600  -11.7550   20.7250 C   0  0  0  0  0  0  0  0  0  0  0  0
  -26.3580  -13.0090   20.0430 N   0  0  0  0  0  0  0  0  0  0  0  0
  -26.0090  -11.7180   20.2790 N   0  0  0  0  0  0  0  0  0  0  0  0
  -24.0330  -10.4950   20.9270 C   0  0  0  0  0  0  0  0  0  0  0  0
  -24.4990   -9.5080   21.8230 C   0  0  0  0  0  3  0  0  0  0  0  0
  -23.7730   -8.3140   22.0140 C   0  0  0  0  0  3  0  0  0  0  0  0
  -22.5650   -8.0960   21.3080 C   0  0  0  0  0  0  0  0  0  0  0  0
  -22.1190   -9.0710   20.3990 C   0  0  0  0  0  3  0  0  0  0  0  0
  -22.8460  -10.2580   20.2060 C   0  0  0  0  0  3  0  0  0  0  0  0
  -21.8070   -6.9550   21.4100 O   0  0  0  0  0  0  0  0  0  0  0  0
  -21.7330   -6.2400   22.5790 C   0  0  0  0  0  0  0  0  0  0  0  0
  -21.2830   -6.8260   23.7830 C   0  0  0  0  0  3  0  0  0  0  0  0
  -21.1570   -6.0390   24.9450 C   0  0  0  0  0  3  0  0  0  0  0  0
  -21.4720   -4.6680   24.9040 C   0  0  0  0  0  0  0  0  0  0  0  0
  -21.9150   -4.0810   23.7060 C   0  0  0  0  0  3  0  0  0  0  0  0
  -22.0430   -4.8660   22.5460 C   0  0  0  0  0  0  0  0  0  0  0  0
  -22.4500   -4.2910   21.3880 F   0  0  0  0  0  0  0  0  0  0  0  0
  -21.3450   -3.9090   26.0180 F   0  0  0  0  0  0  0  0  0  0  0  0
  -22.9740  -13.5900   21.3140 C   0  0  0  0  0  0  0  0  0  0  0  0
  -22.3380  -12.8710   22.2330 N   0  0  0  0  0  0  0  0  0  0  0  0
  -22.4950  -14.6360   20.8800 O   0  0  0  0  0  0  0  0  0  0  0  0
  -22.7420  -12.0240   22.6050 H   0  0  0  0  0  0  0  0  0  0  0  0
  -21.4340  -13.1730   22.5710 H   0  0  0  0  0  0  0  0  0  0  0  0
  -25.5370  -15.2650   20.3150 N   0  0  0  0  0  0  0  0  0  0  0  0
  -24.8100  -15.9270   20.5600 H   0  0  0  0  0  0  0  0  0  0  0  0
  -26.3710  -15.7090   19.9510 H   0  0  0  0  0  0  0  0  0  0  0  0
  -29.0210  -23.7000   20.0330 C   0  0  0  0  0  0  0  0  0  0  0  0
  -28.6220  -22.3850   20.2080 N   0  0  0  0  0  0  0  0  0  0  0  0
  -30.2020  -23.9940   19.8310 O   0  0  0  0  0  0  0  0  0  0  0  0
  -27.6660  -22.2990   20.5300 H   0  0  0  0  0  0  0  0  0  0  0  0
  -27.9160  -24.8550   20.0750 C   0  0  0  0  0  2  0  0  0  0  0  0
  -28.2770  -26.3070   20.2840 O   0  0  0  0  0  0  0  0  0  0  0  0
  -24.6180  -31.8860   23.2480 C   0  0  0  0  0  0  0  0  0  0  0  0
  -27.2020  -27.2360   20.2290 C   0  0  0  0  0  0  0  0  0  0  0  0
  -23.4170  -30.4810   21.6190 C   0  0  0  0  0  3  0  0  0  0  0  0
  -24.8640  -28.9160   20.2080 C   0  0  0  0  0  0  0  0  0  0  0  0
  -25.9680  -30.7630   21.4530 C   0  0  0  0  0  2  0  0  0  0  0  0
  -26.0400  -29.3780   20.8110 C   0  0  0  0  0  0  0  0  0  0  0  0
  -27.2140  -28.5510   20.8110 C   0  0  0  0  0  3  0  0  0  0  0  0
  -25.9930  -26.8550   19.5960 C   0  0  0  0  0  3  0  0  0  0  0  0
  -24.8460  -27.6620   19.5910 C   0  0  0  0  0  3  0  0  0  0  0  0
  -23.6360  -29.8040   20.2440 C   0  0  0  0  0  2  0  0  0  0  0  0
  -24.6880  -31.0610   22.1620 N   0  0  0  0  0  0  0  0  0  0  0  0
  -23.5320  -32.1740   23.7710 O   0  0  0  0  0  0  0  0  0  0  0  0
  -22.7420  -29.4720   22.5800 C   0  0  0  0  0  0  0  0  0  0  0  0
  -21.4210  -29.2770   22.4270 N   0  0  0  0  0  0  0  0  0  0  0  0
  -23.4070  -28.8700   23.4260 O   0  0  0  0  0  0  0  0  0  0  0  0
  -20.9420  -29.8160   21.7190 H   0  0  0  0  0  0  0  0  0  0  0  0
  -18.0500  -28.0290   22.8580 C   0  0  0  0  0  0  0  0  0  0  0  0
  -20.5950  -28.3460   23.1980 C   0  0  0  0  0  3  0  0  0  0  0  0
  -20.7400  -26.9000   22.6690 C   0  0  0  0  0  2  0  0  0  0  0  0
  -19.6760  -26.5270   21.6300 C   0  0  0  0  0  2  0  0  0  0  0  0
  -18.2730  -26.6640   22.2290 C   0  0  0  0  0  2  0  0  0  0  0  0
  -19.1420  -28.8250   23.2990 C   0  0  0  0  0  0  0  0  0  0  0  0
  -18.8810  -30.0980   23.8490 C   0  0  0  0  0  3  0  0  0  0  0  0
  -17.5620  -30.5790   23.9610 C   0  0  0  0  0  3  0  0  0  0  0  0
  -16.4860  -29.7810   23.5350 C   0  0  0  0  0  3  0  0  0  0  0  0
  -16.7310  -28.5080   22.9900 C   0  0  0  0  0  3  0  0  0  0  0  0
  -25.8980  -32.5180   23.8720 C   0  0  0  0  0  3  0  0  0  0  0  0
  -25.5910  -33.9200   24.1890 N   0  0  0  0  0  0  0  0  0  0  0  0
  -25.9090  -34.9650   23.4130 C   0  0  0  0  0  0  0  0  0  0  0  0
  -26.5620  -34.8510   22.3720 O   0  0  0  0  0  0  0  0  0  0  0  0
  -25.0090  -34.0830   24.9980 H   0  0  0  0  0  0  0  0  0  0  0  0
  -24.1640  -36.7480   23.0750 C   0  0  0  0  0  1  0  0  0  0  0  0
  -25.4260  -36.3580   23.8610 C   0  0  0  0  0  3  0  0  0  0  0  0
  -27.5780  -37.2630   24.6250 C   0  0  0  0  0  1  0  0  0  0  0  0
  -26.4510  -37.4150   23.7080 N   0  0  0  0  0  0  0  0  0  0  0  0
  -26.0450  -38.3350   23.8590 H   0  0  0  0  0  0  0  0  0  0  0  0
  -26.4030  -31.7570   25.1590 C   0  0  1  0  0  0  0  0  0  0  0  0
  -25.3010  -31.5290   26.2200 C   0  0  0  0  0  1  0  0  0  0  0  0
  -26.9870  -30.3750   24.7860 C   0  0  0  0  0  1  0  0  0  0  0  0
  -27.5470  -32.5560   25.8240 C   0  0  0  0  0  1  0  0  0  0  0  0
  1  4  2  0
  2  1  1  0
  2  3  2  0
  3  6  1  0
  4 49  1  0
  4  6  1  0
  5  2  1  0
  7 19  1  0
  8 13  1  0
  9 10  1  0
  9  8  1  0
 11 10  1  0
 11 23  1  0
 11 12  1  0
 13  7  1  0
 13 12  1  0
 14  7  2  0
 16 15  1  0
 17 15  1  0
 18  3  1  0
 18 19  1  0
 18 16  1  0
 19 17  1  0
 20 21  2  0
 21 40  1  0
 22 21  1  0
 22 25  1  0
 23 24  1  0
 23 20  1  0
 24 22  2  0
 25 26  1  0
 26 27  2  0
 28 31  1  0
 28 27  1  0
 29 28  2  0
 30 29  1  0
 30 25  2  0
 31 32  1  0
 32 33  1  0
 33 34  2  0
 35 34  1  0
 35 39  1  0
 36 35  2  0
 37 32  2  0
 37 36  1  0
 38 37  1  0
 40 41  1  0
 41 44  1  0
 41 43  1  0
 42 40  2  0
 45 20  1  0
 45 46  1  0
 47 45  1  0
 48 52  1  0
 48 49  1  0
 49 51  1  0
 50 48  2  0
 52 53  1  0
 54 65  2  0
 55 53  1  0
 55 60  1  0
 56 64  1  0
 56 66  1  0
 57 63  1  0
 57 59  1  0
 58 64  1  0
 59 58  1  0
 60 59  2  0
 61 55  2  0
 62 61  1  0
 62 57  2  0
 63 56  1  0
 64 54  1  0
 66 68  2  0
 67 66  1  0
 69 67  1  0
 70 79  2  0
 70 75  1  0
 71 67  1  0
 71 75  1  0
 72 71  1  0
 73 74  1  0
 73 72  1  0
 74 70  1  0
 75 76  2  0
 76 77  1  0
 78 77  2  0
 79 78  1  0
 80 54  1  0
 80 81  1  0
 80 90  1  0
 81 84  1  0
 82 86  1  0
 82 81  1  0
 83 82  2  0
 86 85  1  0
 88 89  1  0
 88 86  1  0
 88 87  1  0
 90 93  1  1
 90 91  1  0
 92 90  1  0
M  ISO  4   7 100  19 100  52 101  53 101
M  END
>  <TORSDO>  (50) 
F 18

>  <SCORE>  (50) 
-13.780

>  <name>  (50) 
49

>  <ligand_id>  (50) 
49

>  <original_smiles>  (50) 
[H]c1c([H])c([H])c2c(c1[H])C([H])([H])C([H])([H])C([H])([H])C2([H])N([H])C(=O)C1([H])N(C(=O)C([H])(N([H])C(=O)C([H])(N([H])C([H])([H])[H])C([H])([H])[H])C(C([H])([H])[H])(C([H])([H])[H])C([H])([H])[H])C([H])([H])c2c([H])c(OC([H])([H])C(=O)N([H])c3sc(C4([H])N(C(=O)N5C([H])([H])C([H])([H])C([H])([H])C([H])(n6nc(-c7c([H])c([H])c(Oc8c([H])c([H])c(F)c([H])c8F)c([H])c7[H])c(C(=O)N([H])[H])c6N([H])[H])C5([H])[H])C([H])([H])C([H])([H])C4([H])[H])c(C([H])([H])[H])c3[H])c([H])c([H])c2C1([H])[H]

>  <smiles>  (50) 
[H]c1c([H])c([H])c2c(c1[H])C([H])([H])C([H])([H])C([H])([H])C2([H])N([H])C(=O)C1([H])N(C(=O)C([H])(N([H])C(=O)C([H])(N([H])C([H])([H])[H])C([H])([H])[H])C(C([H])([H])[H])(C([H])([H])[H])C([H])([H])[H])C([H])([H])c2c([H])c(OC([H])([H])C(=O)N([H])c3sc(C4([H])N(C(=O)N5C([H])([H])C([H])([H])C([H])([H])C([H])(n6nc(-c7c([H])c([H])c(Oc8c([H])c([H])c(F)c([H])c8F)c([H])c7[H])c(C(=O)N([H])[H])c6N([H])[H])C5([H])[H])C([H])([H])C([H])([H])C4([H])[H])c(C([H])([H])[H])c3[H])c([H])c([H])c2C1([H])[H]

$$$$
50:0:0
     RDKit          3D

 92101  0  0  1  0  0  0  0  0999 V2000
  -30.4430  -23.5300   20.7760 C   0  0  0  0  0  2  0  0  0  0  0  0
  -31.0230  -22.0930   20.5910 C   0  0  0  0  0  2  0  0  0  0  0  0
  -28.7430  -22.0620   20.0810 C   0  0  0  0  0  2  0  0  0  0  0  0
  -29.1880  -23.5930   19.9000 C   0  0  2  0  0  0  0  0  0  0  0  0
  -29.9690  -21.1930   20.0830 N   0  0  0  0  0  0  0  0  0  0  0  0
  -29.8700  -18.5790   19.7100 C   0  0  0  0  0  3  0  0  0  0  0  0
  -30.5410  -17.6000   21.7330 C   0  0  0  0  0  3  0  0  0  0  0  0
  -30.1980  -17.3280   20.4330 C   0  0  0  0  0  0  0  0  0  0  0  0
  -30.0210  -19.7750   20.4460 C   0  0  0  0  0  0  0  0  0  0  0  0
  -30.4960  -19.3250   22.0830 S   0  0  0  0  0  0  0  0  0  0  0  0
  -30.8290  -14.8000   19.9700 C   0  0  0  0  0  0  0  0  0  0  0  0
  -30.5730  -12.5400   18.9180 C   0  0  0  0  0  2  0  0  0  0  0  0
  -29.5430  -12.5990   17.7690 C   0  0  0  0  0  2  0  0  0  0  0  0
  -28.1120  -12.4080   18.3110 C   0  0  0  0  0  2  0  0  0  0  0  0
  -27.8160  -13.3040   19.5420 C   0  0  0  0  0  3  0  0  0  0  0  0
  -28.9510  -13.2180   20.5850 C   0  0  0  0  0  2  0  0  0  0  0  0
  -30.1970  -13.5810   19.8960 N   0  0  0  0  0  0  0  0  0  0  0  0
  -32.0300  -14.8910   19.7020 O   0  0  0  0  0  0  0  0  0  0  0  0
  -30.0100  -15.9250   19.9790 N   0  0  0  0  0  0  0  0  0  0  0  0
  -29.0500  -15.6970   19.7710 H   0  0  0  0  0  0  0  0  0  0  0  0
  -25.4920  -13.9070   20.4460 C   0  0  0  0  0  0  0  0  0  0  0  0
  -24.4400  -13.1330   20.8630 C   0  0  0  0  0  0  0  0  0  0  0  0
  -24.8820  -11.7790   20.7630 C   0  0  0  0  0  0  0  0  0  0  0  0
  -26.5060  -13.0200   20.1200 N   0  0  0  0  0  0  0  0  0  0  0  0
  -26.1510  -11.7360   20.3750 N   0  0  0  0  0  0  0  0  0  0  0  0
  -24.1540  -10.5190   20.9580 C   0  0  0  0  0  0  0  0  0  0  0  0
  -24.5910   -9.5480   21.8850 C   0  0  0  0  0  3  0  0  0  0  0  0
  -23.8610   -8.3530   22.0690 C   0  0  0  0  0  3  0  0  0  0  0  0
  -22.6820   -8.1200   21.3220 C   0  0  0  0  0  0  0  0  0  0  0  0
  -22.2640   -9.0790   20.3830 C   0  0  0  0  0  3  0  0  0  0  0  0
  -22.9940  -10.2650   20.1980 C   0  0  0  0  0  3  0  0  0  0  0  0
  -21.9250   -6.9760   21.4150 O   0  0  0  0  0  0  0  0  0  0  0  0
  -21.8370   -6.2660   22.5850 C   0  0  0  0  0  0  0  0  0  0  0  0
  -21.3320   -6.8410   23.7710 C   0  0  0  0  0  3  0  0  0  0  0  0
  -21.1960   -6.0560   24.9330 C   0  0  0  0  0  3  0  0  0  0  0  0
  -21.5550   -4.6950   24.9090 C   0  0  0  0  0  0  0  0  0  0  0  0
  -22.0510   -4.1180   23.7270 C   0  0  0  0  0  3  0  0  0  0  0  0
  -22.1890   -4.9010   22.5680 C   0  0  0  0  0  0  0  0  0  0  0  0
  -22.6490   -4.3350   21.4260 F   0  0  0  0  0  0  0  0  0  0  0  0
  -21.4150   -3.9370   26.0220 F   0  0  0  0  0  0  0  0  0  0  0  0
  -23.0680  -13.6170   21.2290 C   0  0  0  0  0  0  0  0  0  0  0  0
  -22.3860  -12.9030   22.1170 N   0  0  0  0  0  0  0  0  0  0  0  0
  -22.6130  -14.6580   20.7610 O   0  0  0  0  0  0  0  0  0  0  0  0
  -22.7700  -12.0590   22.5130 H   0  0  0  0  0  0  0  0  0  0  0  0
  -21.4660  -13.2080   22.4060 H   0  0  0  0  0  0  0  0  0  0  0  0
  -25.6590  -15.2780   20.2890 N   0  0  0  0  0  0  0  0  0  0  0  0
  -24.9020  -15.9310   20.4600 H   0  0  0  0  0  0  0  0  0  0  0  0
  -26.4620  -15.7110   19.8510 H   0  0  0  0  0  0  0  0  0  0  0  0
  -29.5740  -23.6370   18.5370 O   0  0  0  0  0  0  0  0  0  0  0  0
  -29.9220  -22.7670   18.3550 H   0  0  0  0  0  0  0  0  0  0  0  0
  -28.1100  -24.8010   20.1300 C   0  0  0  0  0  2  0  0  0  0  0  0
  -28.3860  -26.2930   20.2240 O   0  0  0  0  0  0  0  0  0  0  0  0
  -24.5740  -31.8340   23.1400 C   0  0  0  0  0  0  0  0  0  0  0  0
  -27.2840  -27.1950   20.1760 C   0  0  0  0  0  0  0  0  0  0  0  0
  -23.4170  -30.3920   21.5080 C   0  0  0  0  0  3  0  0  0  0  0  0
  -24.9120  -28.8400   20.1310 C   0  0  0  0  0  0  0  0  0  0  0  0
  -25.9630  -30.7220   21.3650 C   0  0  0  0  0  2  0  0  0  0  0  0
  -26.0750  -29.3270   20.7390 C   0  0  0  0  0  0  0  0  0  0  0  0
  -27.2670  -28.5190   20.7540 C   0  0  0  0  0  3  0  0  0  0  0  0
  -26.0840  -26.7930   19.5360 C   0  0  0  0  0  3  0  0  0  0  0  0
  -24.9220  -27.5780   19.5290 C   0  0  0  0  0  3  0  0  0  0  0  0
  -23.6690  -29.7080   20.1430 C   0  0  0  0  0  2  0  0  0  0  0  0
  -24.6720  -31.0000   22.0610 N   0  0  0  0  0  0  0  0  0  0  0  0
  -23.4760  -32.1080   23.6470 O   0  0  0  0  0  0  0  0  0  0  0  0
  -22.7500  -29.3790   22.4690 C   0  0  0  0  0  0  0  0  0  0  0  0
  -21.4280  -29.1840   22.3300 N   0  0  0  0  0  0  0  0  0  0  0  0
  -23.4250  -28.7710   23.3050 O   0  0  0  0  0  0  0  0  0  0  0  0
  -20.9350  -29.7310   21.6390 H   0  0  0  0  0  0  0  0  0  0  0  0
  -18.0630  -27.9440   22.8170 C   0  0  0  0  0  0  0  0  0  0  0  0
  -20.6130  -28.2470   23.1090 C   0  0  0  0  0  3  0  0  0  0  0  0
  -20.7420  -26.8090   22.5610 C   0  0  0  0  0  2  0  0  0  0  0  0
  -19.6590  -26.4520   21.5380 C   0  0  0  0  0  2  0  0  0  0  0  0
  -18.2680  -26.5870   22.1650 C   0  0  0  0  0  2  0  0  0  0  0  0
  -19.1660  -28.7310   23.2460 C   0  0  0  0  0  0  0  0  0  0  0  0
  -18.9240  -30.0010   23.8150 C   0  0  0  0  0  3  0  0  0  0  0  0
  -17.6110  -30.4850   23.9570 C   0  0  0  0  0  3  0  0  0  0  0  0
  -16.5230  -29.6980   23.5420 C   0  0  0  0  0  3  0  0  0  0  0  0
  -16.7480  -28.4290   22.9790 C   0  0  0  0  0  3  0  0  0  0  0  0
  -25.8350  -32.5020   23.7680 C   0  0  0  0  0  3  0  0  0  0  0  0
  -26.3630  -31.7490   25.0490 C   0  0  1  0  0  0  0  0  0  0  0  0
  -25.2670  -31.4780   26.1050 C   0  0  0  0  0  1  0  0  0  0  0  0
  -26.9930  -30.3900   24.6670 C   0  0  0  0  0  1  0  0  0  0  0  0
  -27.4840  -32.5800   25.7200 C   0  0  0  0  0  1  0  0  0  0  0  0
  -25.4850  -33.8930   24.0950 N   0  0  0  0  0  0  0  0  0  0  0  0
  -25.8220  -34.9550   23.3520 C   0  0  0  0  0  0  0  0  0  0  0  0
  -26.5250  -34.8690   22.3410 O   0  0  0  0  0  0  0  0  0  0  0  0
  -24.8540  -34.0330   24.8700 H   0  0  0  0  0  0  0  0  0  0  0  0
  -24.0960  -36.7400   22.9300 C   0  0  0  0  0  1  0  0  0  0  0  0
  -25.2950  -36.3320   23.8010 C   0  0  0  0  0  3  0  0  0  0  0  0
  -27.3660  -37.2250   24.7750 C   0  0  0  0  0  1  0  0  0  0  0  0
  -26.3190  -37.3990   23.7710 N   0  0  0  0  0  0  0  0  0  0  0  0
  -25.8880  -38.3070   23.9210 H   0  0  0  0  0  0  0  0  0  0  0  0
  2  1  1  0
  3  5  1  0
  4  3  1  0
  4 51  1  1
  4  1  1  0
  5  9  1  0
  5  2  1  0
  6  8  1  0
  6  9  2  0
  7 10  1  0
  8  7  2  0
  9 10  1  0
 11 19  1  0
 12 17  1  0
 13 14  1  0
 13 12  1  0
 15 14  1  0
 15 24  1  0
 15 16  1  0
 17 11  1  0
 17 16  1  0
 18 11  2  0
 19  8  1  0
 20 19  1  0
 21 22  2  0
 22 41  1  0
 23 22  1  0
 23 26  1  0
 24 25  1  0
 24 21  1  0
 25 23  2  0
 26 27  1  0
 27 28  2  0
 29 32  1  0
 29 28  1  0
 30 29  2  0
 31 30  1  0
 31 26  2  0
 32 33  1  0
 33 34  1  0
 34 35  2  0
 36 35  1  0
 36 40  1  0
 37 36  2  0
 38 33  2  0
 38 37  1  0
 39 38  1  0
 41 42  1  0
 42 45  1  0
 42 44  1  0
 43 41  2  0
 46 21  1  0
 46 47  1  0
 48 46  1  0
 49  4  1  0
 50 49  1  0
 51 52  1  0
 53 64  2  0
 54 52  1  0
 54 59  1  0
 55 63  1  0
 55 65  1  0
 56 62  1  0
 56 58  1  0
 57 63  1  0
 58 59  2  0
 58 57  1  0
 60 54  2  0
 61 60  1  0
 61 56  2  0
 62 55  1  0
 63 53  1  0
 65 67  2  0
 66 65  1  0
 68 66  1  0
 69 78  2  0
 69 74  1  0
 70 66  1  0
 70 74  1  0
 71 70  1  0
 72 73  1  0
 72 71  1  0
 73 69  1  0
 74 75  2  0
 75 76  1  0
 77 76  2  0
 78 77  1  0
 79 53  1  0
 79 84  1  0
 79 80  1  0
 80 83  1  1
 80 81  1  0
 82 80  1  0
 84 87  1  0
 85 89  1  0
 85 84  1  0
 86 85  2  0
 89 88  1  0
 91 89  1  0
 91 92  1  0
 91 90  1  0
M  ISO  4  11 100  19 100  51 101  52 101
M  END
>  <TORSDO>  (51) 
F 19

>  <SCORE>  (51) 
-13.954

>  <name>  (51) 
50

>  <ligand_id>  (51) 
50

>  <original_smiles>  (51) 
[H]OC1(C([H])([H])Oc2c([H])c([H])c3c(c2[H])C([H])([H])N(C(=O)C([H])(N([H])C(=O)C([H])(N([H])C([H])([H])[H])C([H])([H])[H])C(C([H])([H])[H])(C([H])([H])[H])C([H])([H])[H])C([H])(C(=O)N([H])C2([H])c4c([H])c([H])c([H])c([H])c4C([H])([H])C([H])([H])C2([H])[H])C3([H])[H])C([H])([H])N(c2sc([H])c(N([H])C(=O)N3C([H])([H])C([H])([H])C([H])([H])C([H])(n4nc(-c5c([H])c([H])c(Oc6c([H])c([H])c(F)c([H])c6F)c([H])c5[H])c(C(=O)N([H])[H])c4N([H])[H])C3([H])[H])c2[H])C([H])([H])C1([H])[H]

>  <smiles>  (51) 
[H]OC1(C([H])([H])Oc2c([H])c([H])c3c(c2[H])C([H])([H])N(C(=O)C([H])(N([H])C(=O)C([H])(N([H])C([H])([H])[H])C([H])([H])[H])C(C([H])([H])[H])(C([H])([H])[H])C([H])([H])[H])C([H])(C(=O)N([H])C2([H])c4c([H])c([H])c([H])c([H])c4C([H])([H])C([H])([H])C2([H])[H])C3([H])[H])C([H])([H])N(c2sc([H])c(N([H])C(=O)N3C([H])([H])C([H])([H])C([H])([H])C([H])(n4nc(-c5c([H])c([H])c(Oc6c([H])c([H])c(F)c([H])c6F)c([H])c5[H])c(C(=O)N([H])[H])c4N([H])[H])C3([H])[H])c2[H])C([H])([H])C1([H])[H]

$$$$
51:0:0
     RDKit          3D

 92101  0  0  1  0  0  0  0  0999 V2000
  -30.1030  -22.8950   20.8150 C   0  0  0  0  0  2  0  0  0  0  0  0
  -30.2600  -21.3530   21.1350 C   0  0  0  0  0  2  0  0  0  0  0  0
  -28.4270  -21.7010   19.8270 C   0  0  0  0  0  2  0  0  0  0  0  0
  -28.6160  -23.1850   20.5390 C   0  0  1  0  0  0  0  0  0  0  0  0
  -27.8310  -23.1840   21.8650 C   0  0  0  0  0  1  0  0  0  0  0  0
  -29.2650  -20.5330   20.4100 N   0  0  0  0  0  0  0  0  0  0  0  0
  -30.8470  -18.9940   17.5970 C   0  0  0  0  0  3  0  0  0  0  0  0
  -30.0910  -17.8840   19.7140 C   0  0  0  0  0  0  0  0  0  0  0  0
  -29.8220  -19.3510   19.6390 C   0  0  0  0  0  0  0  0  0  0  0  0
  -30.2970  -19.8670   18.4240 N   0  0  0  0  0  0  0  0  0  0  0  0
  -30.8310  -17.3750   18.1910 S   0  0  0  0  0  0  0  0  0  0  0  0
  -29.8740  -16.5610   20.5750 C   0  0  0  0  0  0  0  0  0  0  0  0
  -29.0410  -16.6060   21.5280 N   0  0  0  0  0  0  0  0  0  0  0  0
  -28.6230  -17.5250   21.6170 H   0  0  0  0  0  0  0  0  0  0  0  0
  -30.6830  -15.0890   20.2890 C   0  0  0  0  0  0  0  0  0  0  0  0
  -30.5540  -12.7230   19.3810 C   0  0  0  0  0  2  0  0  0  0  0  0
  -29.6380  -12.6840   18.1320 C   0  0  0  0  0  2  0  0  0  0  0  0
  -28.1730  -12.4620   18.5470 C   0  0  0  0  0  2  0  0  0  0  0  0
  -27.7510  -13.3860   19.7180 C   0  0  0  0  0  3  0  0  0  0  0  0
  -28.7920  -13.3950   20.8550 C   0  0  0  0  0  2  0  0  0  0  0  0
  -30.0740  -13.8240   20.2770 N   0  0  0  0  0  0  0  0  0  0  0  0
  -31.8810  -15.1060   19.9790 O   0  0  0  0  0  0  0  0  0  0  0  0
  -25.3640  -13.9560   20.4310 C   0  0  0  0  0  0  0  0  0  0  0  0
  -24.2980  -13.1780   20.7900 C   0  0  0  0  0  0  0  0  0  0  0  0
  -24.7700  -11.8290   20.7740 C   0  0  0  0  0  0  0  0  0  0  0  0
  -26.4120  -13.0800   20.2050 N   0  0  0  0  0  0  0  0  0  0  0  0
  -26.0640  -11.7970   20.4800 N   0  0  0  0  0  0  0  0  0  0  0  0
  -24.0460  -10.5640   20.9650 C   0  0  0  0  0  0  0  0  0  0  0  0
  -24.4520   -9.6180   21.9320 C   0  0  0  0  0  3  0  0  0  0  0  0
  -23.7260   -8.4210   22.1100 C   0  0  0  0  0  3  0  0  0  0  0  0
  -22.5810   -8.1600   21.3210 C   0  0  0  0  0  0  0  0  0  0  0  0
  -22.1940   -9.0940   20.3440 C   0  0  0  0  0  3  0  0  0  0  0  0
  -22.9200  -10.2850   20.1640 C   0  0  0  0  0  3  0  0  0  0  0  0
  -21.8290   -7.0130   21.4060 O   0  0  0  0  0  0  0  0  0  0  0  0
  -21.7190   -6.3100   22.5790 C   0  0  0  0  0  0  0  0  0  0  0  0
  -21.2050   -6.8980   23.7550 C   0  0  0  0  0  3  0  0  0  0  0  0
  -21.0440   -6.1200   24.9180 C   0  0  0  0  0  3  0  0  0  0  0  0
  -21.3870   -4.7550   24.9080 C   0  0  0  0  0  0  0  0  0  0  0  0
  -21.8950   -4.1670   23.7360 C   0  0  0  0  0  3  0  0  0  0  0  0
  -22.0570   -4.9410   22.5740 C   0  0  0  0  0  0  0  0  0  0  0  0
  -22.5260   -4.3640   21.4410 F   0  0  0  0  0  0  0  0  0  0  0  0
  -21.2260   -4.0050   26.0230 F   0  0  0  0  0  0  0  0  0  0  0  0
  -22.8970  -13.6520   21.0420 C   0  0  0  0  0  0  0  0  0  0  0  0
  -22.1600  -12.9570   21.9030 N   0  0  0  0  0  0  0  0  0  0  0  0
  -22.4610  -14.6710   20.5090 O   0  0  0  0  0  0  0  0  0  0  0  0
  -22.5240  -12.1300   22.3540 H   0  0  0  0  0  0  0  0  0  0  0  0
  -21.2180  -13.2550   22.1150 H   0  0  0  0  0  0  0  0  0  0  0  0
  -25.5290  -15.3260   20.2560 N   0  0  0  0  0  0  0  0  0  0  0  0
  -24.7790  -15.9930   20.4050 H   0  0  0  0  0  0  0  0  0  0  0  0
  -26.4200  -15.7670   20.0660 H   0  0  0  0  0  0  0  0  0  0  0  0
  -28.1930  -24.6540   19.7670 C   0  0  0  0  0  2  0  0  0  0  0  0
  -28.2760  -26.1610   20.2270 O   0  0  0  0  0  0  0  0  0  0  0  0
  -24.6200  -31.8690   23.1690 C   0  0  0  0  0  0  0  0  0  0  0  0
  -27.2200  -27.1530   20.1180 C   0  0  0  0  0  0  0  0  0  0  0  0
  -23.4290  -30.4700   21.5270 C   0  0  0  0  0  3  0  0  0  0  0  0
  -24.8860  -28.9110   20.0890 C   0  0  0  0  0  0  0  0  0  0  0  0
  -25.9820  -30.7420   21.3660 C   0  0  0  0  0  2  0  0  0  0  0  0
  -26.0610  -29.3500   20.7100 C   0  0  0  0  0  0  0  0  0  0  0  0
  -27.2230  -28.4840   20.7130 C   0  0  0  0  0  3  0  0  0  0  0  0
  -26.0230  -26.8410   19.4320 C   0  0  0  0  0  3  0  0  0  0  0  0
  -24.8820  -27.6730   19.4340 C   0  0  0  0  0  3  0  0  0  0  0  0
  -23.6540  -29.8030   20.1440 C   0  0  0  0  0  2  0  0  0  0  0  0
  -24.6970  -31.0510   22.0750 N   0  0  0  0  0  0  0  0  0  0  0  0
  -23.5320  -32.1450   23.6990 O   0  0  0  0  0  0  0  0  0  0  0  0
  -22.7580  -29.4540   22.4850 C   0  0  0  0  0  0  0  0  0  0  0  0
  -21.4270  -29.2890   22.3740 N   0  0  0  0  0  0  0  0  0  0  0  0
  -23.4360  -28.8180   23.2960 O   0  0  0  0  0  0  0  0  0  0  0  0
  -20.9370  -29.8540   21.6940 H   0  0  0  0  0  0  0  0  0  0  0  0
  -18.0450  -28.1070   22.9170 C   0  0  0  0  0  0  0  0  0  0  0  0
  -20.6100  -28.3460   23.1430 C   0  0  0  0  0  3  0  0  0  0  0  0
  -20.6910  -26.9230   22.5440 C   0  0  0  0  0  2  0  0  0  0  0  0
  -19.5690  -26.6260   21.5440 C   0  0  0  0  0  2  0  0  0  0  0  0
  -18.2000  -26.7690   22.2150 C   0  0  0  0  0  2  0  0  0  0  0  0
  -19.1770  -28.8550   23.3380 C   0  0  0  0  0  0  0  0  0  0  0  0
  -18.9770  -30.1070   23.9570 C   0  0  0  0  0  3  0  0  0  0  0  0
  -17.6790  -30.6130   24.1580 C   0  0  0  0  0  3  0  0  0  0  0  0
  -16.5620  -29.8630   23.7520 C   0  0  0  0  0  3  0  0  0  0  0  0
  -16.7450  -28.6120   23.1380 C   0  0  0  0  0  3  0  0  0  0  0  0
  -25.8920  -32.5140   23.7960 C   0  0  0  0  0  3  0  0  0  0  0  0
  -26.4120  -31.7430   25.0710 C   0  0  1  0  0  0  0  0  0  0  0  0
  -25.3190  -31.4930   26.1360 C   0  0  0  0  0  1  0  0  0  0  0  0
  -27.0070  -30.3710   24.6790 C   0  0  0  0  0  1  0  0  0  0  0  0
  -27.5560  -32.5430   25.7360 C   0  0  0  0  0  1  0  0  0  0  0  0
  -25.5680  -33.9080   24.1380 N   0  0  0  0  0  0  0  0  0  0  0  0
  -25.8970  -34.9750   23.3980 C   0  0  0  0  0  0  0  0  0  0  0  0
  -26.5720  -34.8900   22.3690 O   0  0  0  0  0  0  0  0  0  0  0  0
  -24.9700  -34.0460   24.9400 H   0  0  0  0  0  0  0  0  0  0  0  0
  -24.1700  -36.7740   23.0490 C   0  0  0  0  0  1  0  0  0  0  0  0
  -25.4000  -36.3560   23.8720 C   0  0  0  0  0  3  0  0  0  0  0  0
  -27.5170  -37.2350   24.7520 C   0  0  0  0  0  1  0  0  0  0  0  0
  -26.4320  -37.4140   23.7930 N   0  0  0  0  0  0  0  0  0  0  0  0
  -26.0210  -38.3310   23.9470 H   0  0  0  0  0  0  0  0  0  0  0  0
  1  2  1  0
  3  6  1  0
  3  4  1  0
  4  1  1  0
  4  5  1  1
  6  2  1  0
  7 11  1  0
  7 10  2  0
  8 12  1  0
  9  8  2  0
  9  6  1  0
 10  9  1  0
 11  8  1  0
 12 13  2  0
 13 14  1  0
 15 12  1  0
 16 21  1  0
 17 18  1  0
 17 16  1  0
 19 18  1  0
 19 26  1  0
 19 20  1  0
 21 15  1  0
 21 20  1  0
 22 15  2  0
 23 24  2  0
 24 43  1  0
 25 24  1  0
 25 28  1  0
 26 23  1  0
 26 27  1  0
 27 25  2  0
 28 29  1  0
 29 30  2  0
 31 34  1  0
 31 30  1  0
 32 31  2  0
 33 32  1  0
 33 28  2  0
 34 35  1  0
 35 36  1  0
 36 37  2  0
 38 37  1  0
 38 42  1  0
 39 38  2  0
 40 35  2  0
 40 39  1  0
 41 40  1  0
 43 44  1  0
 44 47  1  0
 44 46  1  0
 45 43  2  0
 48 49  1  0
 48 23  1  0
 50 48  1  0
 51 52  1  0
 51  4  1  0
 53 64  2  0
 54 52  1  0
 54 59  1  0
 55 63  1  0
 55 65  1  0
 56 62  1  0
 56 58  1  0
 57 63  1  0
 58 59  2  0
 58 57  1  0
 60 61  1  0
 60 54  2  0
 61 56  2  0
 62 55  1  0
 63 53  1  0
 65 67  2  0
 66 65  1  0
 68 66  1  0
 69 78  2  0
 69 74  1  0
 70 66  1  0
 70 74  1  0
 71 70  1  0
 72 73  1  0
 72 71  1  0
 73 69  1  0
 74 75  2  0
 75 76  1  0
 77 76  2  0
 78 77  1  0
 79 53  1  0
 79 84  1  0
 79 80  1  0
 80 83  1  1
 80 81  1  0
 82 80  1  0
 84 87  1  0
 85 89  1  0
 85 84  1  0
 86 85  2  0
 89 88  1  0
 91 89  1  0
 91 92  1  0
 91 90  1  0
M  ISO  4  12 100  15 100  51 101  52 101
M  END
>  <TORSDO>  (52) 
F 19

>  <SCORE>  (52) 
-15.335

>  <name>  (52) 
51

>  <ligand_id>  (52) 
51

>  <original_smiles>  (52) 
[H]N=C(C(=O)N1C([H])([H])C([H])([H])C([H])([H])C([H])(n2nc(-c3c([H])c([H])c(Oc4c([H])c([H])c(F)c([H])c4F)c([H])c3[H])c(C(=O)N([H])[H])c2N([H])[H])C1([H])[H])c1sc([H])nc1N1C([H])([H])C([H])([H])C(C([H])([H])[H])(C([H])([H])Oc2c([H])c([H])c3c(c2[H])C([H])([H])N(C(=O)C([H])(N([H])C(=O)C([H])(N([H])C([H])([H])[H])C([H])([H])[H])C(C([H])([H])[H])(C([H])([H])[H])C([H])([H])[H])C([H])(C(=O)N([H])C2([H])c4c([H])c([H])c([H])c([H])c4C([H])([H])C([H])([H])C2([H])[H])C3([H])[H])C1([H])[H]

>  <smiles>  (52) 
[H]N=C(C(=O)N1C([H])([H])C([H])([H])C([H])([H])C([H])(n2nc(-c3c([H])c([H])c(Oc4c([H])c([H])c(F)c([H])c4F)c([H])c3[H])c(C(=O)N([H])[H])c2N([H])[H])C1([H])[H])c1sc([H])nc1N1C([H])([H])C([H])([H])C(C([H])([H])[H])(C([H])([H])Oc2c([H])c([H])c3c(c2[H])C([H])([H])N(C(=O)C([H])(N([H])C(=O)C([H])(N([H])C([H])([H])[H])C([H])([H])[H])C(C([H])([H])[H])(C([H])([H])[H])C([H])([H])[H])C([H])(C(=O)N([H])C2([H])c4c([H])c([H])c([H])c([H])c4C([H])([H])C([H])([H])C2([H])[H])C3([H])[H])C1([H])[H]

$$$$
52:0:0
     RDKit          3D

 93101  0  0  1  0  0  0  0  0999 V2000
  -28.6550  -20.2810   19.3920 C   0  0  0  0  0  3  0  0  0  0  0  0
  -28.8910  -18.7990   19.4390 C   0  0  0  0  0  0  0  0  0  0  0  0
  -29.1610  -21.1100   20.3970 C   0  0  0  0  0  0  0  0  0  0  0  0
  -29.6440  -18.1820   20.4570 C   0  0  0  0  0  0  0  0  0  0  0  0
  -30.0150  -19.7630   21.4120 S   0  0  0  0  0  0  0  0  0  0  0  0
  -30.5950  -15.5230   20.5950 C   0  0  0  0  0  0  0  0  0  0  0  0
  -30.6780  -13.0720   19.7650 C   0  0  0  0  0  2  0  0  0  0  0  0
  -29.8220  -12.8600   18.4890 C   0  0  0  0  0  2  0  0  0  0  0  0
  -28.3570  -12.5680   18.8540 C   0  0  0  0  0  2  0  0  0  0  0  0
  -27.8340  -13.5310   19.9490 C   0  0  0  0  0  3  0  0  0  0  0  0
  -28.8200  -13.6870   21.1280 C   0  0  0  0  0  2  0  0  0  0  0  0
  -30.0830  -14.1980   20.5700 N   0  0  0  0  0  0  0  0  0  0  0  0
  -31.8070  -15.5900   20.3470 O   0  0  0  0  0  0  0  0  0  0  0  0
  -29.7540  -16.7190   20.7900 N   0  0  0  0  0  0  0  0  0  0  0  0
  -28.8470  -16.3710   21.0680 H   0  0  0  0  0  0  0  0  0  0  0  0
  -25.4180  -14.0510   20.5790 C   0  0  0  0  0  0  0  0  0  0  0  0
  -24.3530  -13.2600   20.9070 C   0  0  0  0  0  0  0  0  0  0  0  0
  -24.8440  -11.9180   20.9040 C   0  0  0  0  0  0  0  0  0  0  0  0
  -26.4860  -13.1950   20.3890 N   0  0  0  0  0  0  0  0  0  0  0  0
  -26.1500  -11.9050   20.6540 N   0  0  0  0  0  0  0  0  0  0  0  0
  -24.1300  -10.6440   21.0630 C   0  0  0  0  0  0  0  0  0  0  0  0
  -24.5090   -9.7020   22.0450 C   0  0  0  0  0  3  0  0  0  0  0  0
  -23.7930   -8.4950   22.1950 C   0  0  0  0  0  3  0  0  0  0  0  0
  -22.6820   -8.2210   21.3610 C   0  0  0  0  0  0  0  0  0  0  0  0
  -22.3230   -9.1510   20.3710 C   0  0  0  0  0  3  0  0  0  0  0  0
  -23.0400  -10.3500   20.2200 C   0  0  0  0  0  3  0  0  0  0  0  0
  -21.9430   -7.0640   21.4160 O   0  0  0  0  0  0  0  0  0  0  0  0
  -21.7850   -6.3660   22.5870 C   0  0  0  0  0  0  0  0  0  0  0  0
  -21.1900   -6.9480   23.7270 C   0  0  0  0  0  3  0  0  0  0  0  0
  -20.9830   -6.1750   24.8860 C   0  0  0  0  0  3  0  0  0  0  0  0
  -21.3610   -4.8190   24.9060 C   0  0  0  0  0  0  0  0  0  0  0  0
  -21.9500   -4.2360   23.7690 C   0  0  0  0  0  3  0  0  0  0  0  0
  -22.1580   -5.0070   22.6130 C   0  0  0  0  0  0  0  0  0  0  0  0
  -22.7040   -4.4350   21.5140 F   0  0  0  0  0  0  0  0  0  0  0  0
  -21.1560   -4.0730   26.0160 F   0  0  0  0  0  0  0  0  0  0  0  0
  -22.9370  -13.7150   21.0990 C   0  0  0  0  0  0  0  0  0  0  0  0
  -22.1810  -13.0240   21.9440 N   0  0  0  0  0  0  0  0  0  0  0  0
  -22.5090  -14.7230   20.5370 O   0  0  0  0  0  0  0  0  0  0  0  0
  -22.5420  -12.2100   22.4190 H   0  0  0  0  0  0  0  0  0  0  0  0
  -21.2300  -13.3130   22.1180 H   0  0  0  0  0  0  0  0  0  0  0  0
  -25.5580  -15.4220   20.3900 N   0  0  0  0  0  0  0  0  0  0  0  0
  -24.7140  -15.9820   20.3500 H   0  0  0  0  0  0  0  0  0  0  0  0
  -26.2750  -15.7650   19.7590 H   0  0  0  0  0  0  0  0  0  0  0  0
  -28.2550  -17.9780   18.3920 C   0  0  0  0  0  0  0  0  0  0  0  0
  -28.8030  -18.1200   16.9910 C   0  0  0  0  0  1  0  0  0  0  0  0
  -27.3000  -17.1870   18.6390 N   0  0  0  0  0  0  0  0  0  0  0  0
  -27.0390  -17.2420   19.6170 H   0  0  0  0  0  0  0  0  0  0  0  0
  -29.1080  -22.6600   20.6300 N   0  0  0  0  0  0  0  0  0  0  0  0
  -29.7560  -22.9630   21.3450 H   0  0  0  0  0  0  0  0  0  0  0  0
  -27.9370  -24.1120   18.6360 O   0  0  0  0  0  1  0  0  0  0  0  0
  -26.7270  -23.9710   20.8330 O   0  0  0  0  0  1  0  0  0  0  0  0
  -27.9770  -24.2630   20.1040 S   0  0  1  0  0  0  0  0  0  0  0  0
  -28.2670  -26.1230   20.3810 O   0  0  0  0  0  0  0  0  0  0  0  0
  -24.6310  -32.0290   23.3470 C   0  0  0  0  0  0  0  0  0  0  0  0
  -27.2500  -27.2110   20.3080 C   0  0  0  0  0  0  0  0  0  0  0  0
  -23.4560  -30.6310   21.6940 C   0  0  0  0  0  3  0  0  0  0  0  0
  -24.9290  -29.0570   20.2650 C   0  0  0  0  0  0  0  0  0  0  0  0
  -26.0190  -30.8720   21.5630 C   0  0  0  0  0  2  0  0  0  0  0  0
  -26.1050  -29.4670   20.9020 C   0  0  0  0  0  0  0  0  0  0  0  0
  -27.2570  -28.5620   20.9100 C   0  0  0  0  0  3  0  0  0  0  0  0
  -26.0480  -26.9600   19.6050 C   0  0  0  0  0  3  0  0  0  0  0  0
  -24.9230  -27.8220   19.5980 C   0  0  0  0  0  3  0  0  0  0  0  0
  -23.6980  -29.9610   20.3140 C   0  0  0  0  0  2  0  0  0  0  0  0
  -24.7230  -31.2030   22.2550 N   0  0  0  0  0  0  0  0  0  0  0  0
  -23.5370  -32.3050   23.8650 O   0  0  0  0  0  0  0  0  0  0  0  0
  -22.7690  -29.6220   22.6510 C   0  0  0  0  0  0  0  0  0  0  0  0
  -21.4490  -29.4150   22.4950 N   0  0  0  0  0  0  0  0  0  0  0  0
  -23.4330  -29.0240   23.5020 O   0  0  0  0  0  0  0  0  0  0  0  0
  -20.9650  -29.9500   21.7880 H   0  0  0  0  0  0  0  0  0  0  0  0
  -18.0980  -28.0920   22.9170 C   0  0  0  0  0  0  0  0  0  0  0  0
  -20.6360  -28.4600   23.2550 C   0  0  0  0  0  3  0  0  0  0  0  0
  -20.8080  -27.0230   22.7090 C   0  0  0  0  0  2  0  0  0  0  0  0
  -19.7520  -26.6420   21.6650 C   0  0  0  0  0  2  0  0  0  0  0  0
  -18.3470  -26.7430   22.2650 C   0  0  0  0  0  2  0  0  0  0  0  0
  -19.1730  -28.9050   23.3680 C   0  0  0  0  0  0  0  0  0  0  0  0
  -18.8840  -30.1620   23.9410 C   0  0  0  0  0  3  0  0  0  0  0  0
  -17.5560  -30.6110   24.0630 C   0  0  0  0  0  3  0  0  0  0  0  0
  -16.4960  -29.7980   23.6260 C   0  0  0  0  0  3  0  0  0  0  0  0
  -16.7680  -28.5400   23.0600 C   0  0  0  0  0  3  0  0  0  0  0  0
  -25.8940  -32.6790   23.9880 C   0  0  0  0  0  3  0  0  0  0  0  0
  -26.3780  -31.9360   25.2940 C   0  0  1  0  0  0  0  0  0  0  0  0
  -25.2570  -31.7140   26.3370 C   0  0  0  0  0  1  0  0  0  0  0  0
  -26.9800  -30.5540   24.9540 C   0  0  0  0  0  1  0  0  0  0  0  0
  -27.5070  -32.7490   25.9700 C   0  0  0  0  0  1  0  0  0  0  0  0
  -25.5740  -34.0860   24.2930 N   0  0  0  0  0  0  0  0  0  0  0  0
  -25.9150  -35.1340   23.5310 C   0  0  0  0  0  0  0  0  0  0  0  0
  -26.5930  -35.0190   22.5070 O   0  0  0  0  0  0  0  0  0  0  0  0
  -24.9710  -34.2480   25.0860 H   0  0  0  0  0  0  0  0  0  0  0  0
  -24.1940  -36.9320   23.1490 C   0  0  0  0  0  1  0  0  0  0  0  0
  -25.4280  -36.5300   23.9720 C   0  0  0  0  0  3  0  0  0  0  0  0
  -27.5560  -37.4270   24.8100 C   0  0  0  0  0  1  0  0  0  0  0  0
  -26.4630  -37.5800   23.8530 N   0  0  0  0  0  0  0  0  0  0  0  0
  -26.0580  -38.5030   23.9790 H   0  0  0  0  0  0  0  0  0  0  0  0
  1  2  1  0
  1  3  2  0
  2  4  2  0
  3 48  1  0
  3  5  1  0
  4 14  1  0
  4  5  1  0
  6 14  1  0
  7 12  1  0
  8  9  1  0
  8  7  1  0
 10  9  1  0
 10 19  1  0
 10 11  1  0
 12  6  1  0
 12 11  1  0
 13  6  2  0
 14 15  1  0
 16 17  2  0
 17 36  1  0
 18 17  1  0
 18 21  1  0
 19 16  1  0
 19 20  1  0
 20 18  2  0
 21 22  1  0
 22 23  2  0
 24 27  1  0
 24 23  1  0
 25 24  2  0
 26 25  1  0
 26 21  2  0
 27 28  1  0
 28 33  2  0
 28 29  1  0
 29 30  2  0
 30 31  1  0
 31 35  1  0
 32 31  2  0
 33 32  1  0
 34 33  1  0
 36 37  1  0
 37 40  1  0
 37 39  1  0
 38 36  2  0
 41 16  1  0
 42 41  1  0
 43 41  1  0
 44 46  2  0
 44  2  1  0
 45 44  1  0
 46 47  1  0
 48 49  1  0
 52 50  1  6
 52 53  1  0
 52 48  1  0
 52 51  1  0
 54 65  2  0
 55 53  1  0
 55 60  1  0
 56 64  1  0
 56 66  1  0
 57 63  1  0
 57 59  1  0
 58 64  1  0
 59 60  2  0
 59 58  1  0
 61 55  2  0
 62 61  1  0
 62 57  2  0
 63 56  1  0
 64 54  1  0
 66 68  2  0
 67 66  1  0
 69 67  1  0
 70 79  2  0
 70 75  1  0
 71 67  1  0
 71 75  1  0
 72 71  1  0
 73 74  1  0
 73 72  1  0
 74 70  1  0
 75 76  2  0
 76 77  1  0
 78 77  2  0
 79 78  1  0
 80 54  1  0
 80 85  1  0
 80 81  1  0
 81 84  1  1
 81 82  1  0
 83 81  1  0
 85 88  1  0
 86 90  1  0
 86 85  1  0
 87 86  2  0
 90 89  1  0
 92 90  1  0
 92 93  1  0
 92 91  1  0
M  ISO  4   6 100  14 100  52 101  53 101
M  END
>  <TORSDO>  (53) 
F 19

>  <SCORE>  (53) 
-14.290

>  <name>  (53) 
52

>  <ligand_id>  (53) 
52

>  <original_smiles>  (53) 
[H]N=C(c1c(N([H])C(=O)N2C([H])([H])C([H])([H])C([H])([H])C([H])(n3nc(-c4c([H])c([H])c(Oc5c([H])c([H])c(F)c([H])c5F)c([H])c4[H])c(C(=O)N([H])[H])c3N([H])[H])C2([H])[H])sc(N([H])S(=O)(=O)Oc2c([H])c([H])c3c(c2[H])C([H])([H])N(C(=O)C([H])(N([H])C(=O)C([H])(N([H])C([H])([H])[H])C([H])([H])[H])C(C([H])([H])[H])(C([H])([H])[H])C([H])([H])[H])C([H])(C(=O)N([H])C2([H])c4c([H])c([H])c([H])c([H])c4C([H])([H])C([H])([H])C2([H])[H])C3([H])[H])c1[H])C([H])([H])[H]

>  <smiles>  (53) 
[H]N=C(c1c(N([H])C(=O)N2C([H])([H])C([H])([H])C([H])([H])C([H])(n3nc(-c4c([H])c([H])c(Oc5c([H])c([H])c(F)c([H])c5F)c([H])c4[H])c(C(=O)N([H])[H])c3N([H])[H])C2([H])[H])sc(N([H])S(=O)(=O)Oc2c([H])c([H])c3c(c2[H])C([H])([H])N(C(=O)C([H])(N([H])C(=O)C([H])(N([H])C([H])([H])[H])C([H])([H])[H])C(C([H])([H])[H])(C([H])([H])[H])C([H])([H])[H])C([H])(C(=O)N([H])C2([H])c4c([H])c([H])c([H])c([H])c4C([H])([H])C([H])([H])C2([H])[H])C3([H])[H])c1[H])C([H])([H])[H]

$$$$
53:0:0
     RDKit          3D

 90 98  0  0  1  0  0  0  0  0999 V2000
  -28.8870  -22.3940   20.8040 N   0  0  0  0  0  0  0  0  0  0  0  0
  -28.9420  -22.4440   21.8190 H   0  0  0  0  0  0  0  0  0  0  0  0
  -29.5420  -19.8890   21.0830 C   0  0  0  0  0  3  0  0  0  0  0  0
  -28.9780  -20.6470   18.9720 C   0  0  0  0  0  3  0  0  0  0  0  0
  -29.1280  -21.0470   20.2760 C   0  0  0  0  0  0  0  0  0  0  0  0
  -29.7210  -18.6630   20.4140 C   0  0  0  0  0  0  0  0  0  0  0  0
  -29.3190  -18.9270   18.7320 S   0  0  0  0  0  0  0  0  0  0  0  0
  -30.3660  -17.3160   20.9280 C   0  0  0  0  0  2  0  0  0  0  0  0
  -30.5950  -14.7790   20.2980 C   0  0  0  0  0  0  0  0  0  0  0  0
  -30.3620  -12.5240   19.2350 C   0  0  0  0  0  2  0  0  0  0  0  0
  -29.3970  -12.5880   18.0330 C   0  0  0  0  0  2  0  0  0  0  0  0
  -27.9350  -12.4160   18.4910 C   0  0  0  0  0  2  0  0  0  0  0  0
  -27.5840  -13.2990   19.7180 C   0  0  0  0  0  3  0  0  0  0  0  0
  -28.6640  -13.2080   20.8160 C   0  0  0  0  0  2  0  0  0  0  0  0
  -29.9460  -13.5690   20.1960 N   0  0  0  0  0  0  0  0  0  0  0  0
  -31.7840  -14.8630   19.9780 O   0  0  0  0  0  0  0  0  0  0  0  0
  -29.8570  -15.9170   20.5840 N   0  0  0  0  0  0  0  0  0  0  0  0
  -28.8710  -15.7640   20.7330 H   0  0  0  0  0  0  0  0  0  0  0  0
  -25.2080  -13.8840   20.4880 C   0  0  0  0  0  0  0  0  0  0  0  0
  -24.1500  -13.1050   20.8690 C   0  0  0  0  0  0  0  0  0  0  0  0
  -24.6140  -11.7550   20.8280 C   0  0  0  0  0  0  0  0  0  0  0  0
  -26.2500  -13.0070   20.2320 N   0  0  0  0  0  0  0  0  0  0  0  0
  -25.9010  -11.7220   20.5030 N   0  0  0  0  0  0  0  0  0  0  0  0
  -23.8940  -10.4890   21.0250 C   0  0  0  0  0  0  0  0  0  0  0  0
  -24.3420   -9.5180   21.9460 C   0  0  0  0  0  3  0  0  0  0  0  0
  -23.6200   -8.3190   22.1320 C   0  0  0  0  0  3  0  0  0  0  0  0
  -22.4360   -8.0820   21.3950 C   0  0  0  0  0  0  0  0  0  0  0  0
  -22.0070   -9.0420   20.4620 C   0  0  0  0  0  3  0  0  0  0  0  0
  -22.7300  -10.2330   20.2760 C   0  0  0  0  0  3  0  0  0  0  0  0
  -21.6860   -6.9350   21.4890 O   0  0  0  0  0  0  0  0  0  0  0  0
  -21.6640   -6.1810   22.6360 C   0  0  0  0  0  0  0  0  0  0  0  0
  -21.2560   -6.7230   23.8730 C   0  0  0  0  0  3  0  0  0  0  0  0
  -21.1790   -5.8970   25.0120 C   0  0  0  0  0  3  0  0  0  0  0  0
  -21.5020   -4.5300   24.9150 C   0  0  0  0  0  0  0  0  0  0  0  0
  -21.9050   -3.9880   23.6810 C   0  0  0  0  0  3  0  0  0  0  0  0
  -21.9800   -4.8110   22.5440 C   0  0  0  0  0  0  0  0  0  0  0  0
  -22.3480   -4.2800   21.3530 F   0  0  0  0  0  0  0  0  0  0  0  0
  -21.4230   -3.7340   26.0060 F   0  0  0  0  0  0  0  0  0  0  0  0
  -22.7550  -13.5770   21.1600 C   0  0  0  0  0  0  0  0  0  0  0  0
  -22.0400  -12.8730   22.0310 N   0  0  0  0  0  0  0  0  0  0  0  0
  -22.3060  -14.6010   20.6460 O   0  0  0  0  0  0  0  0  0  0  0  0
  -22.4170  -12.0420   22.4640 H   0  0  0  0  0  0  0  0  0  0  0  0
  -21.1050  -13.1690   22.2720 H   0  0  0  0  0  0  0  0  0  0  0  0
  -25.3690  -15.2560   20.3150 N   0  0  0  0  0  0  0  0  0  0  0  0
  -24.6100  -15.9130   20.4610 H   0  0  0  0  0  0  0  0  0  0  0  0
  -26.2120  -15.6960   19.9660 H   0  0  0  0  0  0  0  0  0  0  0  0
  -29.0300  -23.7620   20.1540 C   0  0  0  0  0  2  0  0  0  0  0  0
  -27.9790  -25.0090   22.1710 C   0  0  0  0  0  1  0  0  0  0  0  0
  -28.0570  -24.9740   20.6350 C   0  0  0  0  0  3  0  0  0  0  0  0
  -28.3030  -26.4030   20.2140 O   0  0  0  0  0  0  0  0  0  0  0  0
  -24.6210  -31.8960   23.2420 C   0  0  0  0  0  0  0  0  0  0  0  0
  -27.2070  -27.3000   20.1810 C   0  0  0  0  0  0  0  0  0  0  0  0
  -23.4100  -30.4940   21.6150 C   0  0  0  0  0  3  0  0  0  0  0  0
  -24.8530  -28.9440   20.1760 C   0  0  0  0  0  0  0  0  0  0  0  0
  -25.9530  -30.8050   21.4170 C   0  0  0  0  0  2  0  0  0  0  0  0
  -26.0280  -29.4230   20.7690 C   0  0  0  0  0  0  0  0  0  0  0  0
  -27.2090  -28.6130   20.7600 C   0  0  0  0  0  3  0  0  0  0  0  0
  -26.0130  -26.8950   19.5450 C   0  0  0  0  0  3  0  0  0  0  0  0
  -24.8500  -27.6870   19.5520 C   0  0  0  0  0  3  0  0  0  0  0  0
  -23.6160  -29.8220   20.2320 C   0  0  0  0  0  2  0  0  0  0  0  0
  -24.6810  -31.0820   22.1480 N   0  0  0  0  0  0  0  0  0  0  0  0
  -23.5410  -32.1730   23.7840 O   0  0  0  0  0  0  0  0  0  0  0  0
  -22.7540  -29.4770   22.5800 C   0  0  0  0  0  0  0  0  0  0  0  0
  -21.4290  -29.2870   22.4570 N   0  0  0  0  0  0  0  0  0  0  0  0
  -23.4380  -28.8600   23.4020 O   0  0  0  0  0  0  0  0  0  0  0  0
  -20.9350  -29.8360   21.7670 H   0  0  0  0  0  0  0  0  0  0  0  0
  -18.0630  -28.0570   22.9620 C   0  0  0  0  0  0  0  0  0  0  0  0
  -20.6190  -28.3480   23.2350 C   0  0  0  0  0  3  0  0  0  0  0  0
  -20.7370  -26.9130   22.6750 C   0  0  0  0  0  2  0  0  0  0  0  0
  -19.6430  -26.5670   21.6620 C   0  0  0  0  0  2  0  0  0  0  0  0
  -18.2560  -26.7030   22.2990 C   0  0  0  0  0  2  0  0  0  0  0  0
  -19.1720  -28.8360   23.3860 C   0  0  0  0  0  0  0  0  0  0  0  0
  -18.9380  -30.1000   23.9680 C   0  0  0  0  0  3  0  0  0  0  0  0
  -17.6290  -30.5880   24.1270 C   0  0  0  0  0  3  0  0  0  0  0  0
  -16.5330  -29.8080   23.7190 C   0  0  0  0  0  3  0  0  0  0  0  0
  -16.7510  -28.5450   23.1420 C   0  0  0  0  0  3  0  0  0  0  0  0
  -25.9050  -32.5350   23.8520 C   0  0  0  0  0  3  0  0  0  0  0  0
  -26.4300  -31.7750   25.1310 C   0  0  1  0  0  0  0  0  0  0  0  0
  -25.3380  -31.5340   26.1990 C   0  0  0  0  0  1  0  0  0  0  0  0
  -27.0270  -30.4020   24.7440 C   0  0  0  0  0  1  0  0  0  0  0  0
  -27.5700  -32.5830   25.7920 C   0  0  0  0  0  1  0  0  0  0  0  0
  -25.5930  -33.9330   24.1800 N   0  0  0  0  0  0  0  0  0  0  0  0
  -25.9210  -34.9880   23.4230 C   0  0  0  0  0  0  0  0  0  0  0  0
  -26.5830  -34.8860   22.3870 O   0  0  0  0  0  0  0  0  0  0  0  0
  -25.0020  -34.0850   24.9840 H   0  0  0  0  0  0  0  0  0  0  0  0
  -24.1850  -36.7760   23.0840 C   0  0  0  0  0  1  0  0  0  0  0  0
  -25.4340  -36.3750   23.8860 C   0  0  0  0  0  3  0  0  0  0  0  0
  -27.5730  -37.2630   24.7010 C   0  0  0  0  0  1  0  0  0  0  0  0
  -26.4630  -37.4320   23.7660 N   0  0  0  0  0  0  0  0  0  0  0  0
  -26.0570  -38.3500   23.9210 H   0  0  0  0  0  0  0  0  0  0  0  0
  1  2  1  0
  4  5  2  0
  5  1  1  0
  5  3  1  0
  6  8  1  0
  6  3  2  0
  7  4  1  0
  7  6  1  0
  9 17  1  0
 10 15  1  0
 11 12  1  0
 11 10  1  0
 13 12  1  0
 13 22  1  0
 13 14  1  0
 15  9  1  0
 15 14  1  0
 16  9  2  0
 17 18  1  0
 17  8  1  0
 19 20  2  0
 20 39  1  0
 21 20  1  0
 21 24  1  0
 22 19  1  0
 22 23  1  0
 23 21  2  0
 24 25  1  0
 25 26  2  0
 27 30  1  0
 27 26  1  0
 28 27  2  0
 29 28  1  0
 29 24  2  0
 30 31  1  0
 31 32  1  0
 32 33  2  0
 34 33  1  0
 34 38  1  0
 35 34  2  0
 36 31  2  0
 36 35  1  0
 37 36  1  0
 39 40  1  0
 40 43  1  0
 40 42  1  0
 41 39  2  0
 44 45  1  0
 44 19  1  0
 46 44  1  0
 47 49  1  0
 47  1  1  0
 49 48  1  0
 50 49  1  0
 51 62  2  0
 52 50  1  0
 52 57  1  0
 53 61  1  0
 53 63  1  0
 54 60  1  0
 54 56  1  0
 55 61  1  0
 56 55  1  0
 57 56  2  0
 58 59  1  0
 58 52  2  0
 59 54  2  0
 60 53  1  0
 61 51  1  0
 63 65  2  0
 64 63  1  0
 66 64  1  0
 67 76  2  0
 67 72  1  0
 68 64  1  0
 68 72  1  0
 69 68  1  0
 70 71  1  0
 70 69  1  0
 71 67  1  0
 72 73  2  0
 73 74  1  0
 75 74  2  0
 76 75  1  0
 77 51  1  0
 77 82  1  0
 77 78  1  0
 78 81  1  1
 78 79  1  0
 80 78  1  0
 82 85  1  0
 83 87  1  0
 83 82  1  0
 84 83  2  0
 87 86  1  0
 89 87  1  0
 89 90  1  0
 89 88  1  0
M  ISO  4   9 100  17 100  49 101  50 101
M  END
>  <TORSDO>  (54) 
F 20

>  <SCORE>  (54) 
-13.752

>  <name>  (54) 
53

>  <ligand_id>  (54) 
53

>  <original_smiles>  (54) 
[H]c1sc(C([H])([H])N([H])C(=O)N2C([H])([H])C([H])([H])C([H])([H])C([H])(n3nc(-c4c([H])c([H])c(Oc5c([H])c([H])c(F)c([H])c5F)c([H])c4[H])c(C(=O)N([H])[H])c3N([H])[H])C2([H])[H])c([H])c1N([H])C([H])([H])C([H])(Oc1c([H])c([H])c2c(c1[H])C([H])([H])N(C(=O)C([H])(N([H])C(=O)C([H])(N([H])C([H])([H])[H])C([H])([H])[H])C(C([H])([H])[H])(C([H])([H])[H])C([H])([H])[H])C([H])(C(=O)N([H])C1([H])c3c([H])c([H])c([H])c([H])c3C([H])([H])C([H])([H])C1([H])[H])C2([H])[H])C([H])([H])[H]

>  <smiles>  (54) 
[H]c1sc(C([H])([H])N([H])C(=O)N2C([H])([H])C([H])([H])C([H])([H])C([H])(n3nc(-c4c([H])c([H])c(Oc5c([H])c([H])c(F)c([H])c5F)c([H])c4[H])c(C(=O)N([H])[H])c3N([H])[H])C2([H])[H])c([H])c1N([H])C([H])([H])C([H])(Oc1c([H])c([H])c2c(c1[H])C([H])([H])N(C(=O)C([H])(N([H])C(=O)C([H])(N([H])C([H])([H])[H])C([H])([H])[H])C(C([H])([H])[H])(C([H])([H])[H])C([H])([H])[H])C([H])(C(=O)N([H])C1([H])c3c([H])c([H])c([H])c([H])c3C([H])([H])C([H])([H])C1([H])[H])C2([H])[H])C([H])([H])[H]

$$$$
54:0:0
     RDKit          3D

 92100  0  0  1  0  0  0  0  0999 V2000
  -28.8810  -22.4820   20.4670 C   0  0  0  0  0  2  0  0  0  0  0  0
  -30.4640  -24.3890   19.8500 C   0  0  0  0  0  1  0  0  0  0  0  0
  -28.5020  -23.8840   18.3530 C   0  0  0  0  0  1  0  0  0  0  0  0
  -28.9880  -23.9520   19.8190 C   0  0  1  0  0  0  0  0  0  0  0  0
  -28.1370  -25.0820   20.5650 C   0  0  0  0  0  2  0  0  0  0  0  0
  -28.3330  -26.5010   20.1820 O   0  0  0  0  0  0  0  0  0  0  0  0
  -24.5970  -31.8760   23.2400 C   0  0  0  0  0  0  0  0  0  0  0  0
  -27.2130  -27.3380   20.1740 C   0  0  0  0  0  0  0  0  0  0  0  0
  -23.3940  -30.4770   21.5980 C   0  0  0  0  0  3  0  0  0  0  0  0
  -24.8470  -28.9340   20.1690 C   0  0  0  0  0  0  0  0  0  0  0  0
  -25.9320  -30.8030   21.4150 C   0  0  0  0  0  2  0  0  0  0  0  0
  -26.0140  -29.4260   20.7680 C   0  0  0  0  0  0  0  0  0  0  0  0
  -27.2030  -28.6390   20.7600 C   0  0  0  0  0  3  0  0  0  0  0  0
  -26.0310  -26.9030   19.5360 C   0  0  0  0  0  3  0  0  0  0  0  0
  -24.8570  -27.6790   19.5400 C   0  0  0  0  0  3  0  0  0  0  0  0
  -23.6090  -29.8060   20.2160 C   0  0  0  0  0  2  0  0  0  0  0  0
  -24.6590  -31.0690   22.1410 N   0  0  0  0  0  0  0  0  0  0  0  0
  -23.5130  -32.1480   23.7770 O   0  0  0  0  0  0  0  0  0  0  0  0
  -22.7370  -29.4540   22.5560 C   0  0  0  0  0  0  0  0  0  0  0  0
  -21.4100  -29.2770   22.4320 N   0  0  0  0  0  0  0  0  0  0  0  0
  -23.4200  -28.8240   23.3680 O   0  0  0  0  0  0  0  0  0  0  0  0
  -20.9180  -29.8370   21.7510 H   0  0  0  0  0  0  0  0  0  0  0  0
  -18.0330  -28.0870   22.9410 C   0  0  0  0  0  0  0  0  0  0  0  0
  -20.5930  -28.3380   23.2030 C   0  0  0  0  0  3  0  0  0  0  0  0
  -20.6900  -26.9080   22.6220 C   0  0  0  0  0  2  0  0  0  0  0  0
  -19.5820  -26.5920   21.6120 C   0  0  0  0  0  2  0  0  0  0  0  0
  -18.2030  -26.7390   22.2610 C   0  0  0  0  0  2  0  0  0  0  0  0
  -19.1560  -28.8440   23.3700 C   0  0  0  0  0  0  0  0  0  0  0  0
  -18.9430  -30.1070   23.9680 C   0  0  0  0  0  3  0  0  0  0  0  0
  -17.6410  -30.6120   24.1390 C   0  0  0  0  0  3  0  0  0  0  0  0
  -16.5320  -29.8510   23.7270 C   0  0  0  0  0  3  0  0  0  0  0  0
  -16.7300  -28.5910   23.1340 C   0  0  0  0  0  3  0  0  0  0  0  0
  -25.8800  -32.5100   23.8600 C   0  0  0  0  0  3  0  0  0  0  0  0
  -26.3940  -31.7440   25.1390 C   0  0  1  0  0  0  0  0  0  0  0  0
  -25.2980  -31.5140   26.2060 C   0  0  0  0  0  1  0  0  0  0  0  0
  -26.9730  -30.3630   24.7540 C   0  0  0  0  0  1  0  0  0  0  0  0
  -27.5420  -32.5400   25.8020 C   0  0  0  0  0  1  0  0  0  0  0  0
  -25.5700  -33.9100   24.1840 N   0  0  0  0  0  0  0  0  0  0  0  0
  -25.9060  -34.9600   23.4230 C   0  0  0  0  0  0  0  0  0  0  0  0
  -26.5790  -34.8540   22.3940 O   0  0  0  0  0  0  0  0  0  0  0  0
  -24.9800  -34.0680   24.9870 H   0  0  0  0  0  0  0  0  0  0  0  0
  -24.1830  -36.7550   23.0530 C   0  0  0  0  0  1  0  0  0  0  0  0
  -25.4170  -36.3500   23.8750 C   0  0  0  0  0  3  0  0  0  0  0  0
  -27.5500  -37.2310   24.7180 C   0  0  0  0  0  1  0  0  0  0  0  0
  -26.4530  -37.4030   23.7690 N   0  0  0  0  0  0  0  0  0  0  0  0
  -26.0470  -38.3220   23.9180 H   0  0  0  0  0  0  0  0  0  0  0  0
  -29.6560  -21.4110   19.7710 N   0  0  0  0  0  0  0  0  0  0  0  0
  -29.6490  -21.5680   18.7660 H   0  0  0  0  0  0  0  0  0  0  0  0
  -30.4670  -18.0260   21.3550 C   0  0  0  0  0  3  0  0  0  0  0  0
  -29.0860  -17.6840   19.4110 C   0  0  0  0  0  3  0  0  0  0  0  0
  -30.3660  -19.4420   21.1770 C   0  0  0  0  0  3  0  0  0  0  0  0
  -29.0090  -19.0950   19.2210 C   0  0  0  0  0  3  0  0  0  0  0  0
  -29.8430  -17.1080   20.4670 C   0  0  0  0  0  0  0  0  0  0  0  0
  -29.6440  -20.0150   20.0920 C   0  0  0  0  0  0  0  0  0  0  0  0
  -30.5920  -14.6420   20.3130 C   0  0  0  0  0  0  0  0  0  0  0  0
  -30.3780  -12.4180   19.2230 C   0  0  0  0  0  2  0  0  0  0  0  0
  -29.4140  -12.5750   18.0280 C   0  0  0  0  0  2  0  0  0  0  0  0
  -27.9430  -12.4250   18.4690 C   0  0  0  0  0  2  0  0  0  0  0  0
  -27.6130  -13.2480   19.7430 C   0  0  0  0  0  3  0  0  0  0  0  0
  -28.6900  -13.0560   20.8360 C   0  0  0  0  0  2  0  0  0  0  0  0
  -29.9900  -13.4140   20.2430 N   0  0  0  0  0  0  0  0  0  0  0  0
  -31.7430  -14.8280   19.8990 O   0  0  0  0  0  0  0  0  0  0  0  0
  -29.7870  -15.6710   20.7240 N   0  0  0  0  0  0  0  0  0  0  0  0
  -28.8790  -15.3360   21.0100 H   0  0  0  0  0  0  0  0  0  0  0  0
  -25.2290  -13.8480   20.4810 C   0  0  0  0  0  0  0  0  0  0  0  0
  -24.1670  -13.0750   20.8640 C   0  0  0  0  0  0  0  0  0  0  0  0
  -24.6300  -11.7240   20.8290 C   0  0  0  0  0  0  0  0  0  0  0  0
  -26.2700  -12.9660   20.2400 N   0  0  0  0  0  0  0  0  0  0  0  0
  -25.9170  -11.6850   20.5080 N   0  0  0  0  0  0  0  0  0  0  0  0
  -23.9070  -10.4620   21.0290 C   0  0  0  0  0  0  0  0  0  0  0  0
  -24.3570   -9.4930   21.9530 C   0  0  0  0  0  3  0  0  0  0  0  0
  -23.6360   -8.2940   22.1400 C   0  0  0  0  0  3  0  0  0  0  0  0
  -22.4530   -8.0540   21.4030 C   0  0  0  0  0  0  0  0  0  0  0  0
  -22.0210   -9.0120   20.4700 C   0  0  0  0  0  3  0  0  0  0  0  0
  -22.7400  -10.2030   20.2800 C   0  0  0  0  0  3  0  0  0  0  0  0
  -21.7010   -6.9080   21.5010 O   0  0  0  0  0  0  0  0  0  0  0  0
  -21.6770   -6.1590   22.6500 C   0  0  0  0  0  0  0  0  0  0  0  0
  -21.2730   -6.7050   23.8880 C   0  0  0  0  0  3  0  0  0  0  0  0
  -21.2000   -5.8820   25.0300 C   0  0  0  0  0  3  0  0  0  0  0  0
  -21.5150   -4.5120   24.9360 C   0  0  0  0  0  0  0  0  0  0  0  0
  -21.9110   -3.9670   23.7010 C   0  0  0  0  0  3  0  0  0  0  0  0
  -21.9900   -4.7870   22.5630 C   0  0  0  0  0  0  0  0  0  0  0  0
  -22.3490   -4.2500   21.3710 F   0  0  0  0  0  0  0  0  0  0  0  0
  -21.4340   -3.7200   26.0290 F   0  0  0  0  0  0  0  0  0  0  0  0
  -22.7720  -13.5520   21.1540 C   0  0  0  0  0  0  0  0  0  0  0  0
  -22.0550  -12.8550   22.0280 N   0  0  0  0  0  0  0  0  0  0  0  0
  -22.3270  -14.5790   20.6420 O   0  0  0  0  0  0  0  0  0  0  0  0
  -22.4310  -12.0270   22.4680 H   0  0  0  0  0  0  0  0  0  0  0  0
  -21.1200  -13.1530   22.2660 H   0  0  0  0  0  0  0  0  0  0  0  0
  -25.3890  -15.2190   20.2960 N   0  0  0  0  0  0  0  0  0  0  0  0
  -24.6200  -15.8690   20.4120 H   0  0  0  0  0  0  0  0  0  0  0  0
  -26.2300  -15.6580   19.9470 H   0  0  0  0  0  0  0  0  0  0  0  0
  4  3  1  6
  4  2  1  0
  4  1  1  0
  4  5  1  0
  6  5  1  0
  7 18  2  0
  8  6  1  0
  8 13  1  0
  9 17  1  0
  9 19  1  0
 10 16  1  0
 10 12  1  0
 11 17  1  0
 12 11  1  0
 13 12  2  0
 14 15  1  0
 14  8  2  0
 15 10  2  0
 16  9  1  0
 17  7  1  0
 19 21  2  0
 20 19  1  0
 22 20  1  0
 23 32  2  0
 23 28  1  0
 24 20  1  0
 24 28  1  0
 25 24  1  0
 26 27  1  0
 26 25  1  0
 27 23  1  0
 28 29  2  0
 29 30  1  0
 31 30  2  0
 32 31  1  0
 33  7  1  0
 33 38  1  0
 33 34  1  0
 34 37  1  1
 34 35  1  0
 36 34  1  0
 38 41  1  0
 39 43  1  0
 39 38  1  0
 40 39  2  0
 43 42  1  0
 45 43  1  0
 45 46  1  0
 45 44  1  0
 47 54  1  0
 47  1  1  0
 48 47  1  0
 50 53  1  0
 51 49  1  0
 52 50  2  0
 52 54  1  0
 53 63  1  0
 53 49  2  0
 54 51  2  0
 55 63  1  0
 56 61  1  0
 57 58  1  0
 57 56  1  0
 59 58  1  0
 59 68  1  0
 59 60  1  0
 61 55  1  0
 61 60  1  0
 62 55  2  0
 63 64  1  0
 65 66  2  0
 66 85  1  0
 67 66  1  0
 67 70  1  0
 68 65  1  0
 68 69  1  0
 69 67  2  0
 70 71  1  0
 71 72  2  0
 73 76  1  0
 73 72  1  0
 74 73  2  0
 75 74  1  0
 75 70  2  0
 76 77  1  0
 77 78  1  0
 78 79  2  0
 80 79  1  0
 80 84  1  0
 81 80  2  0
 82 77  2  0
 82 81  1  0
 83 82  1  0
 85 86  1  0
 86 89  1  0
 86 88  1  0
 87 85  2  0
 90 91  1  0
 90 65  1  0
 92 90  1  0
M  ISO  4   5 101   6 101  55 100  63 100
M  END
>  <TORSDO>  (55) 
F 20

>  <SCORE>  (55) 
-13.928

>  <name>  (55) 
54

>  <ligand_id>  (55) 
54

>  <original_smiles>  (55) 
[H]c1c([H])c([H])c2c(c1[H])C([H])([H])C([H])([H])C([H])([H])C2([H])N([H])C(=O)C1([H])N(C(=O)C([H])(N([H])C(=O)C([H])(N([H])C([H])([H])[H])C([H])([H])[H])C(C([H])([H])[H])(C([H])([H])[H])C([H])([H])[H])C([H])([H])c2c([H])c(OC([H])([H])C(C([H])([H])[H])(C([H])([H])[H])C([H])([H])N([H])c3c([H])c([H])c(N([H])C(=O)N4C([H])([H])C([H])([H])C([H])([H])C([H])(n5nc(-c6c([H])c([H])c(Oc7c([H])c([H])c(F)c([H])c7F)c([H])c6[H])c(C(=O)N([H])[H])c5N([H])[H])C4([H])[H])c([H])c3[H])c([H])c([H])c2C1([H])[H]

>  <smiles>  (55) 
[H]c1c([H])c([H])c2c(c1[H])C([H])([H])C([H])([H])C([H])([H])C2([H])N([H])C(=O)C1([H])N(C(=O)C([H])(N([H])C(=O)C([H])(N([H])C([H])([H])[H])C([H])([H])[H])C(C([H])([H])[H])(C([H])([H])[H])C([H])([H])[H])C([H])([H])c2c([H])c(OC([H])([H])C(C([H])([H])[H])(C([H])([H])[H])C([H])([H])N([H])c3c([H])c([H])c(N([H])C(=O)N4C([H])([H])C([H])([H])C([H])([H])C([H])(n5nc(-c6c([H])c([H])c(Oc7c([H])c([H])c(F)c([H])c7F)c([H])c6[H])c(C(=O)N([H])[H])c5N([H])[H])C4([H])[H])c([H])c3[H])c([H])c([H])c2C1([H])[H]

$$$$
55:0:0
     RDKit          3D

 91 99  0  0  1  0  0  0  0  0999 V2000
  -29.3840  -22.3760   20.6610 C   0  0  0  0  0  2  0  0  0  0  0  0
  -27.4580  -23.4730   19.3370 C   0  0  0  0  0  1  0  0  0  0  0  0
  -27.2700  -23.2220   21.8070 C   0  0  0  0  0  1  0  0  0  0  0  0
  -28.2400  -23.5770   20.6520 C   0  0  1  0  0  0  0  0  0  0  0  0
  -28.6680  -25.1630   20.9100 C   0  0  0  0  0  2  0  0  0  0  0  0
  -28.3800  -26.4270   20.1100 O   0  0  0  0  0  0  0  0  0  0  0  0
  -24.6220  -31.9000   23.2320 C   0  0  0  0  0  0  0  0  0  0  0  0
  -27.2480  -27.2770   20.2300 C   0  0  0  0  0  0  0  0  0  0  0  0
  -23.4160  -30.5100   21.5920 C   0  0  0  0  0  3  0  0  0  0  0  0
  -24.8760  -28.9360   20.1780 C   0  0  0  0  0  0  0  0  0  0  0  0
  -25.9600  -30.8040   21.4150 C   0  0  0  0  0  2  0  0  0  0  0  0
  -26.0460  -29.4150   20.7800 C   0  0  0  0  0  0  0  0  0  0  0  0
  -27.2330  -28.6030   20.7920 C   0  0  0  0  0  3  0  0  0  0  0  0
  -26.0550  -26.8750   19.5960 C   0  0  0  0  0  3  0  0  0  0  0  0
  -24.8860  -27.6690   19.5730 C   0  0  0  0  0  3  0  0  0  0  0  0
  -23.6350  -29.8130   20.2210 C   0  0  0  0  0  2  0  0  0  0  0  0
  -24.6860  -31.0920   22.1350 N   0  0  0  0  0  0  0  0  0  0  0  0
  -23.5380  -32.1780   23.7670 O   0  0  0  0  0  0  0  0  0  0  0  0
  -22.7510  -29.4950   22.5600 C   0  0  0  0  0  0  0  0  0  0  0  0
  -21.4250  -29.3050   22.4310 N   0  0  0  0  0  0  0  0  0  0  0  0
  -23.4300  -28.8680   23.3800 O   0  0  0  0  0  0  0  0  0  0  0  0
  -20.9280  -29.8490   21.7420 H   0  0  0  0  0  0  0  0  0  0  0  0
  -18.0540  -28.0960   22.9240 C   0  0  0  0  0  0  0  0  0  0  0  0
  -20.6130  -28.3540   23.1930 C   0  0  0  0  0  3  0  0  0  0  0  0
  -20.7230  -26.9400   22.5810 C   0  0  0  0  0  2  0  0  0  0  0  0
  -19.6110  -26.6090   21.5840 C   0  0  0  0  0  2  0  0  0  0  0  0
  -18.2260  -26.7600   22.2180 C   0  0  0  0  0  2  0  0  0  0  0  0
  -19.1740  -28.8510   23.3640 C   0  0  0  0  0  0  0  0  0  0  0  0
  -18.9560  -30.1110   23.9620 C   0  0  0  0  0  3  0  0  0  0  0  0
  -17.6480  -30.6090   24.1350 C   0  0  0  0  0  3  0  0  0  0  0  0
  -16.5440  -29.8490   23.7090 C   0  0  0  0  0  3  0  0  0  0  0  0
  -16.7460  -28.5950   23.1100 C   0  0  0  0  0  3  0  0  0  0  0  0
  -25.9040  -32.5360   23.8520 C   0  0  0  0  0  3  0  0  0  0  0  0
  -26.4120  -31.7700   25.1350 C   0  0  1  0  0  0  0  0  0  0  0  0
  -25.3150  -31.5410   26.1990 C   0  0  0  0  0  1  0  0  0  0  0  0
  -26.9970  -30.3880   24.7590 C   0  0  0  0  0  1  0  0  0  0  0  0
  -27.5590  -32.5670   25.8000 C   0  0  0  0  0  1  0  0  0  0  0  0
  -25.5890  -33.9320   24.1810 N   0  0  0  0  0  0  0  0  0  0  0  0
  -25.9150  -34.9880   23.4220 C   0  0  0  0  0  0  0  0  0  0  0  0
  -26.5780  -34.8850   22.3870 O   0  0  0  0  0  0  0  0  0  0  0  0
  -24.9890  -34.0830   24.9770 H   0  0  0  0  0  0  0  0  0  0  0  0
  -24.1790  -36.7800   23.0800 C   0  0  0  0  0  1  0  0  0  0  0  0
  -25.4270  -36.3760   23.8830 C   0  0  0  0  0  3  0  0  0  0  0  0
  -27.5630  -37.2700   24.6980 C   0  0  0  0  0  1  0  0  0  0  0  0
  -26.4550  -37.4320   23.7610 N   0  0  0  0  0  0  0  0  0  0  0  0
  -26.0470  -38.3540   23.9010 H   0  0  0  0  0  0  0  0  0  0  0  0
  -28.9310  -20.9110   20.5980 N   0  0  0  0  0  0  0  0  0  0  0  0
  -27.9520  -20.7760   20.8310 H   0  0  0  0  0  0  0  0  0  0  0  0
  -31.2780  -18.0490   20.0810 C   0  0  0  0  0  3  0  0  0  0  0  0
  -31.0200  -19.4830   20.0890 C   0  0  0  0  0  3  0  0  0  0  0  0
  -30.1210  -17.3950   20.4640 C   0  0  0  0  0  0  0  0  0  0  0  0
  -29.7120  -19.6780   20.4710 C   0  0  0  0  0  0  0  0  0  0  0  0
  -29.1500  -18.4000   20.6930 O   0  0  0  0  0  0  0  0  0  0  0  0
  -30.6310  -14.8500   20.3250 C   0  0  0  0  0  0  0  0  0  0  0  0
  -30.4190  -12.5520   19.3370 C   0  0  0  0  0  2  0  0  0  0  0  0
  -29.4830  -12.6010   18.1060 C   0  0  0  0  0  2  0  0  0  0  0  0
  -28.0120  -12.4250   18.5300 C   0  0  0  0  0  2  0  0  0  0  0  0
  -27.6300  -13.3140   19.7430 C   0  0  0  0  0  3  0  0  0  0  0  0
  -28.6910  -13.2640   20.8670 C   0  0  0  0  0  2  0  0  0  0  0  0
  -29.9900  -13.6230   20.2690 N   0  0  0  0  0  0  0  0  0  0  0  0
  -31.8190  -14.9160   19.9900 O   0  0  0  0  0  0  0  0  0  0  0  0
  -29.8770  -16.0010   20.5670 N   0  0  0  0  0  0  0  0  0  0  0  0
  -28.9260  -15.7780   20.8120 H   0  0  0  0  0  0  0  0  0  0  0  0
  -25.2260  -13.8830   20.4390 C   0  0  0  0  0  0  0  0  0  0  0  0
  -24.1620  -13.1050   20.7980 C   0  0  0  0  0  0  0  0  0  0  0  0
  -24.6390  -11.7560   20.7870 C   0  0  0  0  0  0  0  0  0  0  0  0
  -26.2830  -13.0140   20.2260 N   0  0  0  0  0  0  0  0  0  0  0  0
  -25.9340  -11.7290   20.5010 N   0  0  0  0  0  0  0  0  0  0  0  0
  -23.9220  -10.4880   20.9840 C   0  0  0  0  0  0  0  0  0  0  0  0
  -24.3430   -9.5370   21.9410 C   0  0  0  0  0  3  0  0  0  0  0  0
  -23.6230   -8.3370   22.1220 C   0  0  0  0  0  3  0  0  0  0  0  0
  -22.4650   -8.0790   21.3500 C   0  0  0  0  0  0  0  0  0  0  0  0
  -22.0630   -9.0190   20.3850 C   0  0  0  0  0  3  0  0  0  0  0  0
  -22.7840  -10.2100   20.2020 C   0  0  0  0  0  3  0  0  0  0  0  0
  -21.7160   -6.9300   21.4440 O   0  0  0  0  0  0  0  0  0  0  0  0
  -21.6460   -6.2050   22.6070 C   0  0  0  0  0  0  0  0  0  0  0  0
  -21.1830   -6.7760   23.8130 C   0  0  0  0  0  3  0  0  0  0  0  0
  -21.0640   -5.9780   24.9690 C   0  0  0  0  0  3  0  0  0  0  0  0
  -21.3980   -4.6110   24.9200 C   0  0  0  0  0  0  0  0  0  0  0  0
  -21.8550   -4.0410   23.7190 C   0  0  0  0  0  3  0  0  0  0  0  0
  -21.9770   -4.8360   22.5660 C   0  0  0  0  0  0  0  0  0  0  0  0
  -22.3970   -4.2760   21.4050 F   0  0  0  0  0  0  0  0  0  0  0  0
  -21.2760   -3.8430   26.0270 F   0  0  0  0  0  0  0  0  0  0  0  0
  -22.7570  -13.5680   21.0470 C   0  0  0  0  0  0  0  0  0  0  0  0
  -22.0250  -12.8720   21.9080 N   0  0  0  0  0  0  0  0  0  0  0  0
  -22.3150  -14.5840   20.5100 O   0  0  0  0  0  0  0  0  0  0  0  0
  -22.3940  -12.0500   22.3610 H   0  0  0  0  0  0  0  0  0  0  0  0
  -21.0810  -13.1640   22.1200 H   0  0  0  0  0  0  0  0  0  0  0  0
  -25.3830  -15.2550   20.2460 N   0  0  0  0  0  0  0  0  0  0  0  0
  -24.6220  -15.9150   20.3650 H   0  0  0  0  0  0  0  0  0  0  0  0
  -26.2330  -15.6970   19.9240 H   0  0  0  0  0  0  0  0  0  0  0  0
  4  2  1  6
  4  1  1  0
  4  5  1  0
  4  3  1  0
  6  8  1  0
  6  5  1  0
  7 18  2  0
  8 13  1  0
  9 17  1  0
  9 19  1  0
 10 16  1  0
 10 12  1  0
 11 17  1  0
 12 13  2  0
 12 11  1  0
 14  8  2  0
 15 14  1  0
 15 10  2  0
 16  9  1  0
 17  7  1  0
 19 21  2  0
 20 19  1  0
 22 20  1  0
 23 32  2  0
 23 28  1  0
 24 20  1  0
 24 28  1  0
 25 24  1  0
 26 27  1  0
 26 25  1  0
 27 23  1  0
 28 29  2  0
 29 30  1  0
 31 30  2  0
 32 31  1  0
 33  7  1  0
 33 38  1  0
 33 34  1  0
 34 37  1  1
 34 35  1  0
 36 34  1  0
 38 41  1  0
 39 43  1  0
 39 38  1  0
 40 39  2  0
 43 42  1  0
 45 43  1  0
 45 46  1  0
 45 44  1  0
 47  1  1  0
 47 48  1  0
 49 50  1  0
 49 51  2  0
 50 52  2  0
 51 62  1  0
 51 53  1  0
 52 47  1  0
 52 53  1  0
 54 62  1  0
 55 60  1  0
 56 57  1  0
 56 55  1  0
 58 57  1  0
 58 67  1  0
 58 59  1  0
 60 54  1  0
 60 59  1  0
 61 54  2  0
 62 63  1  0
 64 65  2  0
 65 84  1  0
 66 65  1  0
 66 69  1  0
 67 64  1  0
 67 68  1  0
 68 66  2  0
 69 70  1  0
 70 71  2  0
 72 75  1  0
 72 71  1  0
 73 72  2  0
 74 73  1  0
 74 69  2  0
 75 76  1  0
 76 77  1  0
 77 78  2  0
 79 78  1  0
 79 83  1  0
 80 79  2  0
 81 76  2  0
 81 80  1  0
 82 81  1  0
 84 85  1  0
 85 88  1  0
 85 87  1  0
 86 84  2  0
 89 90  1  0
 89 64  1  0
 91 89  1  0
M  ISO  4   5 101   6 101  54 100  62 100
M  END
>  <TORSDO>  (56) 
F 20

>  <SCORE>  (56) 
-13.824

>  <name>  (56) 
55

>  <ligand_id>  (56) 
55

>  <original_smiles>  (56) 
[H]c1c(N([H])C(=O)N2C([H])([H])C([H])([H])C([H])([H])C([H])(n3nc(-c4c([H])c([H])c(Oc5c([H])c([H])c(F)c([H])c5F)c([H])c4[H])c(C(=O)N([H])[H])c3N([H])[H])C2([H])[H])oc(N([H])C([H])([H])C(C([H])([H])[H])(C([H])([H])[H])C([H])([H])Oc2c([H])c([H])c3c(c2[H])C([H])([H])N(C(=O)C([H])(N([H])C(=O)C([H])(N([H])C([H])([H])[H])C([H])([H])[H])C(C([H])([H])[H])(C([H])([H])[H])C([H])([H])[H])C([H])(C(=O)N([H])C2([H])c4c([H])c([H])c([H])c([H])c4C([H])([H])C([H])([H])C2([H])[H])C3([H])[H])c1[H]

>  <smiles>  (56) 
[H]c1c(N([H])C(=O)N2C([H])([H])C([H])([H])C([H])([H])C([H])(n3nc(-c4c([H])c([H])c(Oc5c([H])c([H])c(F)c([H])c5F)c([H])c4[H])c(C(=O)N([H])[H])c3N([H])[H])C2([H])[H])oc(N([H])C([H])([H])C(C([H])([H])[H])(C([H])([H])[H])C([H])([H])Oc2c([H])c([H])c3c(c2[H])C([H])([H])N(C(=O)C([H])(N([H])C(=O)C([H])(N([H])C([H])([H])[H])C([H])([H])[H])C(C([H])([H])[H])(C([H])([H])[H])C([H])([H])[H])C([H])(C(=O)N([H])C2([H])c4c([H])c([H])c([H])c([H])c4C([H])([H])C([H])([H])C2([H])[H])C3([H])[H])c1[H]

$$$$
56:0:0
     RDKit          3D

 93101  0  0  1  0  0  0  0  0999 V2000
  -29.7540  -20.8840   19.7670 N   0  0  0  0  0  0  0  0  0  0  0  0
  -30.6630  -21.1480   19.3910 H   0  0  0  0  0  0  0  0  0  0  0  0
  -30.2360  -18.3380   20.1460 C   0  0  0  0  0  3  0  0  0  0  0  0
  -29.3560  -17.1680   20.2220 C   0  0  0  0  0  0  0  0  0  0  0  0
  -28.0870  -17.7060   20.0700 C   0  0  0  0  0  0  0  0  0  0  0  0
  -29.4300  -19.4720   19.9330 C   0  0  0  0  0  0  0  0  0  0  0  0
  -28.1360  -19.0770   19.8940 O   0  0  0  0  0  0  0  0  0  0  0  0
  -30.4390  -14.6750   19.9590 C   0  0  0  0  0  0  0  0  0  0  0  0
  -30.4020  -12.2970   19.1390 C   0  0  0  0  0  2  0  0  0  0  0  0
  -29.4170  -12.2060   17.9490 C   0  0  0  0  0  2  0  0  0  0  0  0
  -27.9690  -11.9990   18.4370 C   0  0  0  0  0  2  0  0  0  0  0  0
  -27.5870  -12.9690   19.5870 C   0  0  0  0  0  3  0  0  0  0  0  0
  -28.6780  -12.9910   20.6790 C   0  0  0  0  0  2  0  0  0  0  0  0
  -29.9400  -13.3870   20.0310 N   0  0  0  0  0  0  0  0  0  0  0  0
  -31.5680  -14.8800   19.5000 O   0  0  0  0  0  0  0  0  0  0  0  0
  -29.5520  -15.6800   20.3200 N   0  0  0  0  0  0  0  0  0  0  0  0
  -28.7760  -15.2440   20.7990 H   0  0  0  0  0  0  0  0  0  0  0  0
  -25.2160  -13.5430   20.3910 C   0  0  0  0  0  0  0  0  0  0  0  0
  -24.1800  -12.7630   20.8280 C   0  0  0  0  0  0  0  0  0  0  0  0
  -24.6640  -11.4200   20.8080 C   0  0  0  0  0  0  0  0  0  0  0  0
  -26.2660  -12.6750   20.1340 N   0  0  0  0  0  0  0  0  0  0  0  0
  -25.9400  -11.3940   20.4440 N   0  0  0  0  0  0  0  0  0  0  0  0
  -23.9660  -10.1500   21.0540 C   0  0  0  0  0  0  0  0  0  0  0  0
  -24.4210   -9.2340   22.0280 C   0  0  0  0  0  3  0  0  0  0  0  0
  -23.7220   -8.0290   22.2590 C   0  0  0  0  0  3  0  0  0  0  0  0
  -22.5540   -7.7330   21.5180 C   0  0  0  0  0  0  0  0  0  0  0  0
  -22.1180   -8.6380   20.5340 C   0  0  0  0  0  3  0  0  0  0  0  0
  -22.8190   -9.8340   20.3010 C   0  0  0  0  0  3  0  0  0  0  0  0
  -21.8240   -6.5770   21.6580 O   0  0  0  0  0  0  0  0  0  0  0  0
  -21.7440   -5.9180   22.8580 C   0  0  0  0  0  0  0  0  0  0  0  0
  -21.2870   -6.5570   24.0320 C   0  0  0  0  0  3  0  0  0  0  0  0
  -21.1550   -5.8240   25.2270 C   0  0  0  0  0  3  0  0  0  0  0  0
  -21.4710   -4.4520   25.2500 C   0  0  0  0  0  0  0  0  0  0  0  0
  -21.9200   -3.8120   24.0820 C   0  0  0  0  0  3  0  0  0  0  0  0
  -22.0540   -4.5430   22.8890 C   0  0  0  0  0  0  0  0  0  0  0  0
  -22.4680   -3.9180   21.7610 F   0  0  0  0  0  0  0  0  0  0  0  0
  -21.3360   -3.7450   26.3960 F   0  0  0  0  0  0  0  0  0  0  0  0
  -22.7890  -13.2250   21.1500 C   0  0  0  0  0  0  0  0  0  0  0  0
  -22.1140  -12.5460   22.0700 N   0  0  0  0  0  0  0  0  0  0  0  0
  -22.3080  -14.2250   20.6180 O   0  0  0  0  0  0  0  0  0  0  0  0
  -22.5170  -11.7380   22.5210 H   0  0  0  0  0  0  0  0  0  0  0  0
  -21.1820  -12.8400   22.3280 H   0  0  0  0  0  0  0  0  0  0  0  0
  -25.3430  -14.9100   20.1610 N   0  0  0  0  0  2  0  0  0  0  0  0
  -24.5490  -15.5350   20.2490 H   0  0  0  0  0  0  0  0  0  0  0  0
  -26.1340  -15.3380   19.6980 H   0  0  0  0  0  0  0  0  0  0  0  0
  -26.7580  -17.0880   20.0590 C   0  0  0  0  0  3  0  0  0  0  0  0
  -25.5620  -17.9500   19.6750 C   0  0  0  0  0  1  0  0  0  0  0  0
  -26.5780  -15.9040   20.3620 O   0  0  0  0  0  0  0  0  0  0  0  0
  -28.7620  -22.0450   19.8680 C   0  0  0  0  0  2  0  0  0  0  0  0
  -29.2180  -23.5900   19.6780 C   0  0  0  0  0  0  0  0  0  0  0  0
  -30.4260  -23.8490   19.6530 O   0  0  0  0  0  0  0  0  0  0  0  0
  -28.1400  -24.7760   19.4910 C   0  0  0  0  0  2  0  0  0  0  0  0
  -28.5250  -26.2430   19.6370 O   0  0  0  0  0  0  0  0  0  0  0  0
  -25.0820  -31.5970   23.2210 C   0  0  0  0  0  0  0  0  0  0  0  0
  -27.4730  -27.2020   19.6940 C   0  0  0  0  0  0  0  0  0  0  0  0
  -23.8060  -30.3990   21.4850 C   0  0  0  0  0  3  0  0  0  0  0  0
  -25.1770  -28.9430   19.8870 C   0  0  0  0  0  0  0  0  0  0  0  0
  -26.3580  -30.6320   21.2840 C   0  0  0  0  0  2  0  0  0  0  0  0
  -26.3790  -29.3150   20.5030 C   0  0  0  0  0  0  0  0  0  0  0  0
  -27.5310  -28.4620   20.3920 C   0  0  0  0  0  3  0  0  0  0  0  0
  -26.2440  -26.9140   19.0550 C   0  0  0  0  0  3  0  0  0  0  0  0
  -25.1180  -27.7520   19.1530 C   0  0  0  0  0  3  0  0  0  0  0  0
  -23.9750  -29.8540   20.0430 C   0  0  0  0  0  2  0  0  0  0  0  0
  -25.1030  -30.8890   22.0530 N   0  0  0  0  0  0  0  0  0  0  0  0
  -24.0170  -31.8590   23.8010 O   0  0  0  0  0  0  0  0  0  0  0  0
  -23.1240  -29.3180   22.3610 C   0  0  0  0  0  0  0  0  0  0  0  0
  -21.7900  -29.1900   22.2410 N   0  0  0  0  0  0  0  0  0  0  0  0
  -23.7950  -28.6020   23.1080 O   0  0  0  0  0  0  0  0  0  0  0  0
  -21.3080  -29.8190   21.6150 H   0  0  0  0  0  0  0  0  0  0  0  0
  -18.3860  -28.0520   22.7080 C   0  0  0  0  0  0  0  0  0  0  0  0
  -20.9560  -28.2080   22.9390 C   0  0  0  0  0  3  0  0  0  0  0  0
  -20.9990  -26.8350   22.2280 C   0  0  0  0  0  2  0  0  0  0  0  0
  -19.8670  -26.6460   21.2150 C   0  0  0  0  0  2  0  0  0  0  0  0
  -18.5040  -26.7700   21.9020 C   0  0  0  0  0  2  0  0  0  0  0  0
  -19.5370  -28.7360   23.1810 C   0  0  0  0  0  0  0  0  0  0  0  0
  -19.3710  -29.9420   23.8970 C   0  0  0  0  0  3  0  0  0  0  0  0
  -18.0870  -30.4620   24.1430 C   0  0  0  0  0  3  0  0  0  0  0  0
  -16.9500  -29.7740   23.6850 C   0  0  0  0  0  3  0  0  0  0  0  0
  -17.1010  -28.5700   22.9740 C   0  0  0  0  0  3  0  0  0  0  0  0
  -26.3950  -32.1320   23.8720 C   0  0  0  0  0  3  0  0  0  0  0  0
  -26.1200  -33.4860   24.3790 N   0  0  0  0  0  0  0  0  0  0  0  0
  -26.4260  -34.6190   23.7330 C   0  0  0  0  0  0  0  0  0  0  0  0
  -27.0390  -34.6330   22.6620 O   0  0  0  0  0  0  0  0  0  0  0  0
  -25.5740  -33.5500   25.2250 H   0  0  0  0  0  0  0  0  0  0  0  0
  -24.7010  -36.4510   23.6950 C   0  0  0  0  0  1  0  0  0  0  0  0
  -25.9840  -35.9480   24.3770 C   0  0  0  0  0  3  0  0  0  0  0  0
  -28.1770  -36.7200   25.1720 C   0  0  0  0  0  1  0  0  0  0  0  0
  -27.0210  -37.0030   24.3260 N   0  0  0  0  0  0  0  0  0  0  0  0
  -26.6340  -37.8990   24.6070 H   0  0  0  0  0  0  0  0  0  0  0  0
  -26.9330  -31.2070   25.0320 C   0  0  1  0  0  0  0  0  0  0  0  0
  -25.8650  -30.8550   26.0940 C   0  0  0  0  0  1  0  0  0  0  0  0
  -27.4840  -29.8780   24.4640 C   0  0  0  0  0  1  0  0  0  0  0  0
  -28.1130  -31.9020   25.7520 C   0  0  0  0  0  1  0  0  0  0  0  0
  1 49  1  0
  1  6  1  0
  2  1  1  0
  3  4  1  0
  4 16  1  0
  5  4  2  0
  6  3  2  0
  7  6  1  0
  7  5  1  0
  8 14  1  0
  8 16  1  0
  9 14  1  0
 10 11  1  0
 10  9  1  0
 12 11  1  0
 12 21  1  0
 12 13  1  0
 14 13  1  0
 15  8  2  0
 16 17  1  0
 18 19  2  0
 19 38  1  0
 20 19  1  0
 20 23  1  0
 21 18  1  0
 21 22  1  0
 22 20  2  0
 23 24  1  0
 24 25  2  0
 26 29  1  0
 26 25  1  0
 27 26  2  0
 28 27  1  0
 28 23  2  0
 29 30  1  0
 30 35  2  0
 30 31  1  0
 31 32  2  0
 32 33  1  0
 33 37  1  0
 34 33  2  0
 35 34  1  0
 36 35  1  0
 38 39  1  0
 39 42  1  0
 39 41  1  0
 40 38  2  0
 43 44  1  0
 43 18  1  0
 45 48  1  0
 46 47  1  0
 46  5  1  0
 46 48  1  0
 50 49  1  0
 51 50  2  0
 52 53  1  0
 52 50  1  0
 53 55  1  0
 54 65  2  0
 55 60  1  0
 56 64  1  0
 56 66  1  0
 57 63  1  0
 57 59  1  0
 58 64  1  0
 59 58  1  0
 60 59  2  0
 61 62  1  0
 61 55  2  0
 62 57  2  0
 63 56  1  0
 64 54  1  0
 66 68  2  0
 67 66  1  0
 69 67  1  0
 70 79  2  0
 70 75  1  0
 71 67  1  0
 71 75  1  0
 72 71  1  0
 73 74  1  0
 73 72  1  0
 74 70  1  0
 75 76  2  0
 76 77  1  0
 78 77  2  0
 79 78  1  0
 80 54  1  0
 80 81  1  0
 80 90  1  0
 81 84  1  0
 82 86  1  0
 82 81  1  0
 83 82  2  0
 86 85  1  0
 88 86  1  0
 88 89  1  0
 88 87  1  0
 90 93  1  1
 90 91  1  0
 92 90  1  0
M  ISO  4   8 100  16 100  52 101  53 101
M  END
>  <TORSDO>  (57) 
F 21

>  <SCORE>  (57) 
-11.988

>  <name>  (57) 
56

>  <ligand_id>  (57) 
56

>  <original_smiles>  (57) 
[H]c1c([H])c([H])c2c(c1[H])C([H])([H])C([H])([H])C([H])([H])C2([H])N([H])C(=O)C1([H])N(C(=O)C([H])(N([H])C(=O)C([H])(N([H])C([H])([H])[H])C([H])([H])[H])C(C([H])([H])[H])(C([H])([H])[H])C([H])([H])[H])C([H])([H])c2c([H])c(OC([H])([H])C(=O)C([H])([H])N([H])c3oc(C(=O)C([H])([H])[H])c(N([H])C(=O)N4C([H])([H])C([H])([H])C([H])([H])C([H])(n5nc(-c6c([H])c([H])c(Oc7c([H])c([H])c(F)c([H])c7F)c([H])c6[H])c(C(=O)N([H])[H])c5N([H])[H])C4([H])[H])c3[H])c([H])c([H])c2C1([H])[H]

>  <smiles>  (57) 
[H]c1c([H])c([H])c2c(c1[H])C([H])([H])C([H])([H])C([H])([H])C2([H])N([H])C(=O)C1([H])N(C(=O)C([H])(N([H])C(=O)C([H])(N([H])C([H])([H])[H])C([H])([H])[H])C(C([H])([H])[H])(C([H])([H])[H])C([H])([H])[H])C([H])([H])c2c([H])c(OC([H])([H])C(=O)C([H])([H])N([H])c3oc(C(=O)C([H])([H])[H])c(N([H])C(=O)N4C([H])([H])C([H])([H])C([H])([H])C([H])(n5nc(-c6c([H])c([H])c(Oc7c([H])c([H])c(F)c([H])c7F)c([H])c6[H])c(C(=O)N([H])[H])c5N([H])[H])C4([H])[H])c3[H])c([H])c([H])c2C1([H])[H]

$$$$
57:0:0
     RDKit          3D

 94103  0  0  1  0  0  0  0  0999 V2000
  -28.6600  -21.1430   19.9920 C   0  0  0  0  0  3  0  0  0  0  0  0
  -29.9400  -24.6440   20.9010 C   0  0  0  0  0  2  0  0  0  0  0  0
  -30.0670  -23.0830   20.9740 C   0  0  0  0  0  2  0  0  0  0  0  0
  -28.0600  -23.7230   19.8550 C   0  0  0  0  0  2  0  0  0  0  0  0
  -28.4460  -25.0210   20.7150 C   0  0  1  0  0  0  0  0  0  0  0  0
  -27.7190  -25.0050   22.0750 C   0  0  0  0  0  1  0  0  0  0  0  0
  -28.9000  -22.5100   20.2800 N   0  0  0  0  0  0  0  0  0  0  0  0
  -27.5160  -20.9200   19.3330 N   0  0  0  0  0  0  0  0  0  0  0  0
  -27.2670  -19.9910   19.0340 H   0  0  0  0  0  0  0  0  0  0  0  0
  -26.8950  -21.6730   19.0820 H   0  0  0  0  0  0  0  0  0  0  0  0
  -28.9770  -18.4450   20.2990 C   0  0  0  0  0  3  0  0  0  0  0  0
  -30.8610  -19.8050   20.3480 C   0  0  0  0  0  3  0  0  0  0  0  0
  -29.4920  -19.8420   20.2530 C   0  0  0  0  0  0  0  0  0  0  0  0
  -29.9130  -17.3840   20.4050 C   0  0  0  0  0  0  0  0  0  0  0  0
  -31.4930  -18.1550   20.4700 S   0  0  0  0  0  0  0  0  0  0  0  0
  -30.5360  -14.8490   20.3350 C   0  0  0  0  0  0  0  0  0  0  0  0
  -30.3820  -12.5330   19.3690 C   0  0  0  0  0  2  0  0  0  0  0  0
  -29.4320  -12.5580   18.1480 C   0  0  0  0  0  2  0  0  0  0  0  0
  -27.9610  -12.3840   18.5830 C   0  0  0  0  0  2  0  0  0  0  0  0
  -27.5880  -13.2730   19.7980 C   0  0  0  0  0  3  0  0  0  0  0  0
  -28.6570  -13.2300   20.9110 C   0  0  0  0  0  2  0  0  0  0  0  0
  -29.9380  -13.6050   20.2970 N   0  0  0  0  0  0  0  0  0  0  0  0
  -31.7340  -14.9430   20.0440 O   0  0  0  0  0  0  0  0  0  0  0  0
  -29.7090  -15.9770   20.4550 N   0  0  0  0  0  0  0  0  0  0  0  0
  -28.7390  -15.7110   20.5500 H   0  0  0  0  0  0  0  0  0  0  0  0
  -25.2150  -13.8570   20.5710 C   0  0  0  0  0  0  0  0  0  0  0  0
  -24.1540  -13.0800   20.9500 C   0  0  0  0  0  0  0  0  0  0  0  0
  -24.6190  -11.7290   20.9040 C   0  0  0  0  0  0  0  0  0  0  0  0
  -26.2550  -12.9790   20.3110 N   0  0  0  0  0  0  0  0  0  0  0  0
  -25.9040  -11.6950   20.5740 N   0  0  0  0  0  0  0  0  0  0  0  0
  -23.8930  -10.4650   21.0900 C   0  0  0  0  0  0  0  0  0  0  0  0
  -24.3420   -9.4800   21.9980 C   0  0  0  0  0  3  0  0  0  0  0  0
  -23.6160   -8.2810   22.1720 C   0  0  0  0  0  3  0  0  0  0  0  0
  -22.4250   -8.0620   21.4400 C   0  0  0  0  0  0  0  0  0  0  0  0
  -21.9910   -9.0350   20.5230 C   0  0  0  0  0  3  0  0  0  0  0  0
  -22.7170  -10.2270   20.3460 C   0  0  0  0  0  3  0  0  0  0  0  0
  -21.6640   -6.9210   21.5300 O   0  0  0  0  0  0  0  0  0  0  0  0
  -21.6500   -6.1550   22.6670 C   0  0  0  0  0  0  0  0  0  0  0  0
  -21.2600   -6.6830   23.9180 C   0  0  0  0  0  3  0  0  0  0  0  0
  -21.1920   -5.8410   25.0450 C   0  0  0  0  0  3  0  0  0  0  0  0
  -21.5040   -4.4720   24.9240 C   0  0  0  0  0  0  0  0  0  0  0  0
  -21.8820   -3.9450   23.6770 C   0  0  0  0  0  3  0  0  0  0  0  0
  -21.9510   -4.7830   22.5520 C   0  0  0  0  0  0  0  0  0  0  0  0
  -22.2990   -4.2650   21.3470 F   0  0  0  0  0  0  0  0  0  0  0  0
  -21.4330   -3.6610   26.0050 F   0  0  0  0  0  0  0  0  0  0  0  0
  -22.7610  -13.5590   21.2380 C   0  0  0  0  0  0  0  0  0  0  0  0
  -22.0400  -12.8610   22.1100 N   0  0  0  0  0  0  0  0  0  0  0  0
  -22.3160  -14.5850   20.7260 O   0  0  0  0  0  0  0  0  0  0  0  0
  -22.4050  -12.0290   22.5480 H   0  0  0  0  0  0  0  0  0  0  0  0
  -21.1080  -13.1770   22.3480 H   0  0  0  0  0  0  0  0  0  0  0  0
  -25.3660  -15.2290   20.4000 N   0  0  0  0  0  0  0  0  0  0  0  0
  -24.5680  -15.8480   20.5000 H   0  0  0  0  0  0  0  0  0  0  0  0
  -26.1760  -15.6900   20.0050 H   0  0  0  0  0  0  0  0  0  0  0  0
  -28.3930  -26.4520   20.2100 O   0  0  0  0  0  0  0  0  0  0  0  0
  -24.6050  -31.8850   23.2430 C   0  0  0  0  0  0  0  0  0  0  0  0
  -27.2430  -27.2820   20.2210 C   0  0  0  0  0  0  0  0  0  0  0  0
  -23.4050  -30.4800   21.6030 C   0  0  0  0  0  3  0  0  0  0  0  0
  -24.8660  -28.9030   20.1970 C   0  0  0  0  0  0  0  0  0  0  0  0
  -25.9430  -30.7910   21.4200 C   0  0  0  0  0  2  0  0  0  0  0  0
  -26.0320  -29.4020   20.7860 C   0  0  0  0  0  0  0  0  0  0  0  0
  -27.2230  -28.6050   20.7810 C   0  0  0  0  0  3  0  0  0  0  0  0
  -26.0490  -26.8390   19.6160 C   0  0  0  0  0  3  0  0  0  0  0  0
  -24.8760  -27.6270   19.6040 C   0  0  0  0  0  3  0  0  0  0  0  0
  -23.6270  -29.7810   20.2320 C   0  0  0  0  0  2  0  0  0  0  0  0
  -24.6710  -31.0700   22.1480 N   0  0  0  0  0  0  0  0  0  0  0  0
  -23.5220  -32.1650   23.7780 O   0  0  0  0  0  0  0  0  0  0  0  0
  -22.7360  -29.4760   22.5710 C   0  0  0  0  0  0  0  0  0  0  0  0
  -21.4080  -29.3050   22.4480 N   0  0  0  0  0  0  0  0  0  0  0  0
  -23.4100  -28.8460   23.3910 O   0  0  0  0  0  0  0  0  0  0  0  0
  -20.9170  -29.8670   21.7650 H   0  0  0  0  0  0  0  0  0  0  0  0
  -18.0320  -28.1140   22.9520 C   0  0  0  0  0  0  0  0  0  0  0  0
  -20.5900  -28.3670   23.2170 C   0  0  0  0  0  3  0  0  0  0  0  0
  -20.6860  -26.9370   22.6370 C   0  0  0  0  0  2  0  0  0  0  0  0
  -19.5820  -26.6190   21.6220 C   0  0  0  0  0  2  0  0  0  0  0  0
  -18.2020  -26.7650   22.2710 C   0  0  0  0  0  2  0  0  0  0  0  0
  -19.1510  -28.8730   23.3800 C   0  0  0  0  0  0  0  0  0  0  0  0
  -18.9370  -30.1360   23.9760 C   0  0  0  0  0  3  0  0  0  0  0  0
  -17.6340  -30.6410   24.1430 C   0  0  0  0  0  3  0  0  0  0  0  0
  -16.5280  -29.8800   23.7280 C   0  0  0  0  0  3  0  0  0  0  0  0
  -16.7270  -28.6170   23.1400 C   0  0  0  0  0  3  0  0  0  0  0  0
  -25.8860  -32.5220   23.8670 C   0  0  0  0  0  3  0  0  0  0  0  0
  -25.5750  -33.9210   24.1950 N   0  0  0  0  0  0  0  0  0  0  0  0
  -25.9010  -34.9760   23.4340 C   0  0  0  0  0  0  0  0  0  0  0  0
  -26.5640  -34.8730   22.3990 O   0  0  0  0  0  0  0  0  0  0  0  0
  -24.9950  -34.0720   25.0060 H   0  0  0  0  0  0  0  0  0  0  0  0
  -24.1640  -36.7670   23.0920 C   0  0  0  0  0  1  0  0  0  0  0  0
  -25.4130  -36.3650   23.8930 C   0  0  0  0  0  3  0  0  0  0  0  0
  -27.5530  -37.2600   24.7040 C   0  0  0  0  0  1  0  0  0  0  0  0
  -26.4400  -37.4230   23.7710 N   0  0  0  0  0  0  0  0  0  0  0  0
  -26.0320  -38.3400   23.9230 H   0  0  0  0  0  0  0  0  0  0  0  0
  -26.4000  -31.7540   25.1470 C   0  0  1  0  0  0  0  0  0  0  0  0
  -25.3040  -31.5200   26.2120 C   0  0  0  0  0  1  0  0  0  0  0  0
  -26.9860  -30.3760   24.7600 C   0  0  0  0  0  1  0  0  0  0  0  0
  -27.5460  -32.5500   25.8150 C   0  0  0  0  0  1  0  0  0  0  0  0
  1  8  1  0
  1 13  1  0
  1  7  1  0
  2  3  1  0
  4  7  1  0
  4  5  1  0
  5  2  1  0
  5  6  1  1
  7  3  1  0
  9  8  1  0
 10  8  1  0
 11 14  2  0
 12 15  1  0
 13 11  1  0
 13 12  2  0
 14 24  1  0
 14 15  1  0
 16 24  1  0
 17 22  1  0
 18 19  1  0
 18 17  1  0
 20 19  1  0
 20 29  1  0
 20 21  1  0
 22 16  1  0
 22 21  1  0
 23 16  2  0
 24 25  1  0
 26 27  2  0
 27 46  1  0
 28 27  1  0
 28 31  1  0
 29 26  1  0
 29 30  1  0
 30 28  2  0
 31 32  1  0
 32 33  2  0
 34 37  1  0
 34 33  1  0
 35 34  2  0
 36 35  1  0
 36 31  2  0
 37 38  1  0
 38 39  1  0
 39 40  2  0
 41 40  1  0
 41 45  1  0
 42 41  2  0
 43 38  2  0
 43 42  1  0
 44 43  1  0
 46 47  1  0
 47 50  1  0
 47 49  1  0
 48 46  2  0
 51 52  1  0
 51 26  1  0
 53 51  1  0
 54 56  1  0
 54  5  1  0
 55 66  2  0
 56 61  1  0
 57 65  1  0
 57 67  1  0
 58 64  1  0
 58 60  1  0
 59 65  1  0
 60 59  1  0
 61 60  2  0
 62 56  2  0
 63 62  1  0
 63 58  2  0
 64 57  1  0
 65 55  1  0
 67 69  2  0
 68 67  1  0
 70 68  1  0
 71 80  2  0
 71 76  1  0
 72 68  1  0
 72 76  1  0
 73 72  1  0
 74 75  1  0
 74 73  1  0
 75 71  1  0
 76 77  2  0
 77 78  1  0
 79 78  2  0
 80 79  1  0
 81 55  1  0
 81 82  1  0
 81 91  1  0
 82 85  1  0
 83 87  1  0
 83 82  1  0
 84 83  2  0
 87 86  1  0
 89 87  1  0
 89 90  1  0
 89 88  1  0
 91 94  1  1
 91 92  1  0
 93 91  1  0
M  ISO  4   5 101  16 100  24 100  54 101
M  END
>  <TORSDO>  (58) 
F 17

>  <SCORE>  (58) 
-15.407

>  <name>  (58) 
57

>  <ligand_id>  (58) 
57

>  <original_smiles>  (58) 
[H]c1sc(N([H])C(=O)N2C([H])([H])C([H])([H])C([H])([H])C([H])(n3nc(-c4c([H])c([H])c(Oc5c([H])c([H])c(F)c([H])c5F)c([H])c4[H])c(C(=O)N([H])[H])c3N([H])[H])C2([H])[H])c([H])c1C(N1C([H])([H])C([H])([H])C(Oc2c([H])c([H])c3c(c2[H])C([H])([H])N(C(=O)C([H])(N([H])C(=O)C([H])(N([H])C([H])([H])[H])C([H])([H])[H])C(C([H])([H])[H])(C([H])([H])[H])C([H])([H])[H])C([H])(C(=O)N([H])C2([H])c4c([H])c([H])c([H])c([H])c4C([H])([H])C([H])([H])C2([H])[H])C3([H])[H])(C([H])([H])[H])C1([H])[H])=[N+]([H])[H]

>  <smiles>  (58) 
[H]c1sc(N([H])C(=O)N2C([H])([H])C([H])([H])C([H])([H])C([H])(n3nc(-c4c([H])c([H])c(Oc5c([H])c([H])c(F)c([H])c5F)c([H])c4[H])c(C(=O)N([H])[H])c3N([H])[H])C2([H])[H])c([H])c1C(N1C([H])([H])C([H])([H])C(Oc2c([H])c([H])c3c(c2[H])C([H])([H])N(C(=O)C([H])(N([H])C(=O)C([H])(N([H])C([H])([H])[H])C([H])([H])[H])C(C([H])([H])[H])(C([H])([H])[H])C([H])([H])[H])C([H])(C(=O)N([H])C2([H])c4c([H])c([H])c([H])c([H])c4C([H])([H])C([H])([H])C2([H])[H])C3([H])[H])(C([H])([H])[H])C1([H])[H])=[N+]([H])[H]

$$$$
58:0:0
     RDKit          3D

 94103  0  0  1  0  0  0  0  0999 V2000
  -28.4470  -23.2780   21.8870 C   0  0  0  0  0  2  0  0  0  0  0  0
  -29.6600  -23.5920   19.7430 C   0  0  0  0  0  2  0  0  0  0  0  0
  -28.3490  -21.7630   21.5890 C   0  0  0  0  0  2  0  0  0  0  0  0
  -29.5640  -22.0490   19.5000 C   0  0  0  0  0  2  0  0  0  0  0  0
  -28.5110  -24.1630   20.6170 C   0  0  1  0  0  0  0  0  0  0  0  0
  -29.4550  -21.2820   20.7510 N   0  0  0  0  0  0  0  0  0  0  0  0
  -27.3550  -24.0110   19.9650 F   0  0  0  0  0  0  0  0  0  0  0  0
  -28.5420  -18.9770   20.7880 C   0  0  0  0  0  3  0  0  0  0  0  0
  -28.7050  -17.5740   20.8020 C   0  0  0  0  0  3  0  0  0  0  0  0
  -31.0920  -17.8420   20.5550 C   0  0  0  0  0  3  0  0  0  0  0  0
  -30.9340  -19.2610   20.5630 C   0  0  0  0  0  0  0  0  0  0  0  0
  -29.6440  -19.8630   20.6820 C   0  0  0  0  0  0  0  0  0  0  0  0
  -29.9780  -16.9750   20.6870 C   0  0  0  0  0  0  0  0  0  0  0  0
  -32.1940  -20.1110   20.4910 C   0  0  0  0  0  1  0  0  0  0  0  0
  -30.7590  -14.6040   20.1100 C   0  0  0  0  0  0  0  0  0  0  0  0
  -30.4570  -12.4550   18.9110 C   0  0  0  0  0  2  0  0  0  0  0  0
  -29.4370  -12.6760   17.7720 C   0  0  0  0  0  2  0  0  0  0  0  0
  -27.9880  -12.5230   18.2810 C   0  0  0  0  0  2  0  0  0  0  0  0
  -27.7260  -13.3230   19.5840 C   0  0  0  0  0  3  0  0  0  0  0  0
  -28.8410  -13.0450   20.6180 C   0  0  0  0  0  2  0  0  0  0  0  0
  -30.1320  -13.3960   19.9960 N   0  0  0  0  0  0  0  0  0  0  0  0
  -31.8510  -14.8380   19.5810 O   0  0  0  0  0  0  0  0  0  0  0  0
  -30.0280  -15.5380   20.7660 N   0  0  0  0  0  0  0  0  0  0  0  0
  -29.2120  -15.1240   21.1930 H   0  0  0  0  0  0  0  0  0  0  0  0
  -25.3750  -13.9360   20.4370 C   0  0  0  0  0  0  0  0  0  0  0  0
  -24.3220  -13.1640   20.8480 C   0  0  0  0  0  0  0  0  0  0  0  0
  -24.7660  -11.8090   20.7560 C   0  0  0  0  0  0  0  0  0  0  0  0
  -26.3970  -13.0500   20.1270 N   0  0  0  0  0  0  0  0  0  0  0  0
  -26.0360  -11.7650   20.3740 N   0  0  0  0  0  0  0  0  0  0  0  0
  -24.0380  -10.5500   20.9540 C   0  0  0  0  0  0  0  0  0  0  0  0
  -24.4660   -9.5900   21.8970 C   0  0  0  0  0  3  0  0  0  0  0  0
  -23.7410   -8.3940   22.0810 C   0  0  0  0  0  3  0  0  0  0  0  0
  -22.5720   -8.1490   21.3220 C   0  0  0  0  0  0  0  0  0  0  0  0
  -22.1630   -9.0970   20.3690 C   0  0  0  0  0  3  0  0  0  0  0  0
  -22.8900  -10.2850   20.1830 C   0  0  0  0  0  3  0  0  0  0  0  0
  -21.8180   -7.0050   21.4160 O   0  0  0  0  0  0  0  0  0  0  0  0
  -21.7030   -6.3130   22.5960 C   0  0  0  0  0  0  0  0  0  0  0  0
  -21.1950   -6.9150   23.7680 C   0  0  0  0  0  3  0  0  0  0  0  0
  -21.0290   -6.1490   24.9380 C   0  0  0  0  0  3  0  0  0  0  0  0
  -21.3610   -4.7810   24.9380 C   0  0  0  0  0  0  0  0  0  0  0  0
  -21.8620   -4.1780   23.7710 C   0  0  0  0  0  3  0  0  0  0  0  0
  -22.0300   -4.9420   22.6020 C   0  0  0  0  0  0  0  0  0  0  0  0
  -22.4940   -4.3510   21.4750 F   0  0  0  0  0  0  0  0  0  0  0  0
  -21.1950   -4.0430   26.0600 F   0  0  0  0  0  0  0  0  0  0  0  0
  -22.9470  -13.6470   21.2120 C   0  0  0  0  0  0  0  0  0  0  0  0
  -22.2620  -12.9350   22.0990 N   0  0  0  0  0  0  0  0  0  0  0  0
  -22.4910  -14.6890   20.7440 O   0  0  0  0  0  0  0  0  0  0  0  0
  -22.6450  -12.0910   22.4990 H   0  0  0  0  0  0  0  0  0  0  0  0
  -21.3420  -13.2390   22.3850 H   0  0  0  0  0  0  0  0  0  0  0  0
  -25.5440  -15.3080   20.2820 N   0  0  0  0  0  0  0  0  0  0  0  0
  -24.7830  -15.9620   20.4340 H   0  0  0  0  0  0  0  0  0  0  0  0
  -26.3580  -15.7410   19.8650 H   0  0  0  0  0  0  0  0  0  0  0  0
  -28.6410  -25.6810   21.0200 C   0  0  0  0  0  2  0  0  0  0  0  0
  -28.4860  -26.6940   19.9970 O   0  0  0  0  0  0  0  0  0  0  0  0
  -24.5120  -31.7340   23.2060 C   0  0  0  0  0  0  0  0  0  0  0  0
  -27.3130  -27.4260   20.0460 C   0  0  0  0  0  0  0  0  0  0  0  0
  -23.3590  -30.3270   21.5310 C   0  0  0  0  0  3  0  0  0  0  0  0
  -24.8700  -28.8670   20.0790 C   0  0  0  0  0  0  0  0  0  0  0  0
  -25.8750  -30.7700   21.3500 C   0  0  0  0  0  2  0  0  0  0  0  0
  -26.0110  -29.4130   20.6840 C   0  0  0  0  0  0  0  0  0  0  0  0
  -27.2360  -28.7010   20.6650 C   0  0  0  0  0  3  0  0  0  0  0  0
  -26.1580  -26.9020   19.4330 C   0  0  0  0  0  3  0  0  0  0  0  0
  -24.9410  -27.6110   19.4490 C   0  0  0  0  0  3  0  0  0  0  0  0
  -23.5980  -29.6840   20.1380 C   0  0  0  0  0  2  0  0  0  0  0  0
  -24.6000  -30.9590   22.0880 N   0  0  0  0  0  0  0  0  0  0  0  0
  -23.4210  -31.9570   23.7500 O   0  0  0  0  0  0  0  0  0  0  0  0
  -22.7390  -29.2660   22.4680 C   0  0  0  0  0  0  0  0  0  0  0  0
  -21.4250  -29.0300   22.3220 N   0  0  0  0  0  0  0  0  0  0  0  0
  -23.4380  -28.6570   23.2830 O   0  0  0  0  0  0  0  0  0  0  0  0
  -20.9190  -29.5760   21.6370 H   0  0  0  0  0  0  0  0  0  0  0  0
  -18.0980  -27.6860   22.7610 C   0  0  0  0  0  0  0  0  0  0  0  0
  -20.6400  -28.0450   23.0660 C   0  0  0  0  0  3  0  0  0  0  0  0
  -20.8080  -26.6300   22.4650 C   0  0  0  0  0  2  0  0  0  0  0  0
  -19.7310  -26.2810   21.4320 C   0  0  0  0  0  2  0  0  0  0  0  0
  -18.3380  -26.3580   22.0640 C   0  0  0  0  0  2  0  0  0  0  0  0
  -19.1790  -28.4850   23.2180 C   0  0  0  0  0  0  0  0  0  0  0  0
  -18.9030  -29.7280   23.8270 C   0  0  0  0  0  3  0  0  0  0  0  0
  -17.5760  -30.1720   23.9870 C   0  0  0  0  0  3  0  0  0  0  0  0
  -16.5100  -29.3690   23.5490 C   0  0  0  0  0  3  0  0  0  0  0  0
  -16.7710  -28.1280   22.9410 C   0  0  0  0  0  3  0  0  0  0  0  0
  -25.7740  -32.3950   23.8440 C   0  0  0  0  0  3  0  0  0  0  0  0
  -25.4260  -33.7830   24.1780 N   0  0  0  0  0  0  0  0  0  0  0  0
  -25.7390  -34.8480   23.4270 C   0  0  0  0  0  0  0  0  0  0  0  0
  -26.4210  -34.7660   22.4030 O   0  0  0  0  0  0  0  0  0  0  0  0
  -24.8200  -33.9180   24.9750 H   0  0  0  0  0  0  0  0  0  0  0  0
  -23.9640  -36.5940   23.0670 C   0  0  0  0  0  1  0  0  0  0  0  0
  -25.2100  -36.2200   23.8870 C   0  0  0  0  0  3  0  0  0  0  0  0
  -27.3120  -37.1600   24.7400 C   0  0  0  0  0  1  0  0  0  0  0  0
  -26.2140  -37.3010   23.7860 N   0  0  0  0  0  0  0  0  0  0  0  0
  -25.7820  -38.2100   23.9320 H   0  0  0  0  0  0  0  0  0  0  0  0
  -26.3010  -31.6290   25.1190 C   0  0  1  0  0  0  0  0  0  0  0  0
  -25.2040  -31.3500   26.1740 C   0  0  0  0  0  1  0  0  0  0  0  0
  -26.9290  -30.2730   24.7220 C   0  0  0  0  0  1  0  0  0  0  0  0
  -27.4200  -32.4520   25.8000 C   0  0  0  0  0  1  0  0  0  0  0  0
  2  5  1  0
  3  1  1  0
  4  2  1  0
  4  6  1  0
  5  7  1  6
  5 53  1  0
  5  1  1  0
  6  3  1  0
  8  9  1  0
 10 11  2  0
 10 13  1  0
 11 12  1  0
 12  6  1  0
 12  8  2  0
 13 23  1  0
 13  9  2  0
 14 11  1  0
 15 23  1  0
 16 21  1  0
 17 18  1  0
 17 16  1  0
 19 18  1  0
 19 28  1  0
 19 20  1  0
 21 15  1  0
 21 20  1  0
 22 15  2  0
 23 24  1  0
 25 26  2  0
 26 45  1  0
 27 26  1  0
 27 30  1  0
 28 29  1  0
 28 25  1  0
 29 27  2  0
 30 31  1  0
 31 32  2  0
 33 36  1  0
 33 32  1  0
 34 33  2  0
 35 34  1  0
 35 30  2  0
 36 37  1  0
 37 42  2  0
 37 38  1  0
 38 39  2  0
 39 40  1  0
 40 44  1  0
 41 40  2  0
 42 41  1  0
 43 42  1  0
 45 46  1  0
 46 49  1  0
 46 48  1  0
 47 45  2  0
 50 51  1  0
 50 25  1  0
 52 50  1  0
 54 56  1  0
 54 53  1  0
 55 66  2  0
 56 61  1  0
 57 65  1  0
 57 67  1  0
 58 64  1  0
 58 60  1  0
 59 65  1  0
 60 59  1  0
 61 60  2  0
 62 63  1  0
 62 56  2  0
 63 58  2  0
 64 57  1  0
 65 55  1  0
 67 69  2  0
 68 67  1  0
 70 68  1  0
 71 80  2  0
 71 76  1  0
 72 68  1  0
 72 76  1  0
 73 72  1  0
 74 75  1  0
 74 73  1  0
 75 71  1  0
 76 77  2  0
 77 78  1  0
 79 78  2  0
 80 79  1  0
 81 55  1  0
 81 82  1  0
 81 91  1  0
 82 85  1  0
 83 87  1  0
 83 82  1  0
 84 83  2  0
 87 86  1  0
 89 87  1  0
 89 90  1  0
 89 88  1  0
 91 94  1  1
 91 92  1  0
 93 91  1  0
M  ISO  4  15 100  23 100  53 101  54 101
M  END
>  <TORSDO>  (59) 
F 18

>  <SCORE>  (59) 
-14.415

>  <name>  (59) 
58

>  <ligand_id>  (59) 
58

>  <original_smiles>  (59) 
[H]c1c([H])c([H])c2c(c1[H])C([H])([H])C([H])([H])C([H])([H])C2([H])N([H])C(=O)C1([H])N(C(=O)C([H])(N([H])C(=O)C([H])(N([H])C([H])([H])[H])C([H])([H])[H])C(C([H])([H])[H])(C([H])([H])[H])C([H])([H])[H])C([H])([H])c2c([H])c(OC([H])([H])C3(F)C([H])([H])C([H])([H])N(c4c([H])c([H])c(N([H])C(=O)N5C([H])([H])C([H])([H])C([H])([H])C([H])(n6nc(-c7c([H])c([H])c(Oc8c([H])c([H])c(F)c([H])c8F)c([H])c7[H])c(C(=O)N([H])[H])c6N([H])[H])C5([H])[H])c([H])c4C([H])([H])[H])C([H])([H])C3([H])[H])c([H])c([H])c2C1([H])[H]

>  <smiles>  (59) 
[H]c1c([H])c([H])c2c(c1[H])C([H])([H])C([H])([H])C([H])([H])C2([H])N([H])C(=O)C1([H])N(C(=O)C([H])(N([H])C(=O)C([H])(N([H])C([H])([H])[H])C([H])([H])[H])C(C([H])([H])[H])(C([H])([H])[H])C([H])([H])[H])C([H])([H])c2c([H])c(OC([H])([H])C3(F)C([H])([H])C([H])([H])N(c4c([H])c([H])c(N([H])C(=O)N5C([H])([H])C([H])([H])C([H])([H])C([H])(n6nc(-c7c([H])c([H])c(Oc8c([H])c([H])c(F)c([H])c8F)c([H])c7[H])c(C(=O)N([H])[H])c6N([H])[H])C5([H])[H])c([H])c4C([H])([H])[H])C([H])([H])C3([H])[H])c([H])c([H])c2C1([H])[H]

$$$$
59:0:0
     RDKit          3D

 89 97  0  0  1  0  0  0  0  0999 V2000
  -28.8970  -22.8790   20.0710 C   0  0  0  0  0  0  0  0  0  0  0  0
  -30.0270  -23.1280   19.6550 O   0  0  0  0  0  0  0  0  0  0  0  0
  -30.4830  -15.4030   19.8870 C   0  0  0  0  0  0  0  0  0  0  0  0
  -30.3470  -12.9850   18.9510 C   0  0  0  0  0  2  0  0  0  0  0  0
  -29.3590  -12.7760   17.7790 C   0  0  0  0  0  2  0  0  0  0  0  0
  -27.9460  -12.4880   18.3110 C   0  0  0  0  0  2  0  0  0  0  0  0
  -27.5600  -13.4340   19.4750 C   0  0  0  0  0  3  0  0  0  0  0  0
  -28.6770  -13.5960   20.5280 C   0  0  0  0  0  2  0  0  0  0  0  0
  -29.8470  -14.1270   19.8080 N   0  0  0  0  0  0  0  0  0  0  0  0
  -31.6970  -15.3110   19.6460 O   0  0  0  0  0  0  0  0  0  0  0  0
  -28.9710  -20.0920   20.2310 C   0  0  0  0  0  0  0  0  0  0  0  0
  -28.2080  -18.8010   20.7740 C   0  0  0  0  0  3  0  0  0  0  0  0
  -28.4690  -17.2830   20.1730 C   0  0  0  0  0  3  0  0  0  0  0  0
  -30.6980  -18.0930   19.9990 C   0  0  0  0  0  2  0  0  0  0  0  0
  -28.4840  -21.4220   20.3710 N   0  0  0  0  0  0  0  0  0  0  0  0
  -29.8770  -16.7740   20.0040 N   0  0  0  0  0  0  0  0  0  0  0  0
  -30.1140  -19.4730   19.6210 O   0  0  0  0  0  0  0  0  0  0  0  0
  -25.2450  -13.9560   20.4000 C   0  0  0  0  0  0  0  0  0  0  0  0
  -24.2110  -13.1640   20.8130 C   0  0  0  0  0  0  0  0  0  0  0  0
  -24.6800  -11.8170   20.7130 C   0  0  0  0  0  0  0  0  0  0  0  0
  -26.2730  -13.0940   20.0660 N   0  0  0  0  0  0  0  0  0  0  0  0
  -25.9500  -11.7990   20.3230 N   0  0  0  0  0  0  0  0  0  0  0  0
  -23.9680  -10.5460   20.9080 C   0  0  0  0  0  0  0  0  0  0  0  0
  -24.4050   -9.5920   21.8530 C   0  0  0  0  0  3  0  0  0  0  0  0
  -23.6890   -8.3890   22.0370 C   0  0  0  0  0  3  0  0  0  0  0  0
  -22.5220   -8.1330   21.2780 C   0  0  0  0  0  0  0  0  0  0  0  0
  -22.1050   -9.0770   20.3240 C   0  0  0  0  0  3  0  0  0  0  0  0
  -22.8210  -10.2700   20.1370 C   0  0  0  0  0  3  0  0  0  0  0  0
  -21.7770   -6.9810   21.3720 O   0  0  0  0  0  0  0  0  0  0  0  0
  -21.6630   -6.2930   22.5540 C   0  0  0  0  0  0  0  0  0  0  0  0
  -21.1330   -6.8920   23.7170 C   0  0  0  0  0  3  0  0  0  0  0  0
  -20.9700   -6.1280   24.8900 C   0  0  0  0  0  3  0  0  0  0  0  0
  -21.3250   -4.7660   24.8990 C   0  0  0  0  0  0  0  0  0  0  0  0
  -21.8470   -4.1660   23.7390 C   0  0  0  0  0  3  0  0  0  0  0  0
  -22.0120   -4.9280   22.5690 C   0  0  0  0  0  0  0  0  0  0  0  0
  -22.4960   -4.3390   21.4480 F   0  0  0  0  0  0  0  0  0  0  0  0
  -21.1600   -4.0290   26.0230 F   0  0  0  0  0  0  0  0  0  0  0  0
  -22.8320  -13.6270   21.1760 C   0  0  0  0  0  0  0  0  0  0  0  0
  -22.1560  -12.9030   22.0600 N   0  0  0  0  0  0  0  0  0  0  0  0
  -22.3660  -14.6670   20.7110 O   0  0  0  0  0  0  0  0  0  0  0  0
  -22.5490  -12.0620   22.4550 H   0  0  0  0  0  0  0  0  0  0  0  0
  -21.2310  -13.1950   22.3460 H   0  0  0  0  0  0  0  0  0  0  0  0
  -25.3880  -15.3320   20.2480 N   0  0  0  0  0  0  0  0  0  0  0  0
  -24.6200  -15.9720   20.4190 H   0  0  0  0  0  0  0  0  0  0  0  0
  -26.2000  -15.7800   19.8480 H   0  0  0  0  0  0  0  0  0  0  0  0
  -27.8490  -24.2910   20.2530 C   0  0  0  0  0  3  0  0  0  0  0  0
  -25.7070  -23.4100   21.4180 C   0  0  0  0  0  1  0  0  0  0  0  0
  -27.0540  -24.1330   21.5720 C   0  0  0  0  0  2  0  0  0  0  0  0
  -28.1970  -25.9090   20.1540 O   0  0  0  0  0  0  0  0  0  0  0  0
  -24.6460  -31.8840   23.1740 C   0  0  0  0  0  0  0  0  0  0  0  0
  -27.1970  -27.0250   20.1140 C   0  0  0  0  0  0  0  0  0  0  0  0
  -23.4460  -30.4890   21.5420 C   0  0  0  0  0  3  0  0  0  0  0  0
  -24.8910  -28.9000   20.0990 C   0  0  0  0  0  0  0  0  0  0  0  0
  -26.0110  -30.7140   21.3730 C   0  0  0  0  0  2  0  0  0  0  0  0
  -26.0840  -29.3070   20.7110 C   0  0  0  0  0  0  0  0  0  0  0  0
  -27.2330  -28.3910   20.6920 C   0  0  0  0  0  3  0  0  0  0  0  0
  -25.9730  -26.7790   19.4540 C   0  0  0  0  0  3  0  0  0  0  0  0
  -24.8600  -27.6580   19.4490 C   0  0  0  0  0  3  0  0  0  0  0  0
  -23.6670  -29.8140   20.1610 C   0  0  0  0  0  2  0  0  0  0  0  0
  -24.7230  -31.0560   22.0830 N   0  0  0  0  0  0  0  0  0  0  0  0
  -23.5590  -32.1640   23.7070 O   0  0  0  0  0  0  0  0  0  0  0  0
  -22.7670  -29.4830   22.5100 C   0  0  0  0  0  0  0  0  0  0  0  0
  -21.4370  -29.3090   22.3960 N   0  0  0  0  0  0  0  0  0  0  0  0
  -23.4440  -28.8600   23.3320 O   0  0  0  0  0  0  0  0  0  0  0  0
  -20.9430  -29.8620   21.7100 H   0  0  0  0  0  0  0  0  0  0  0  0
  -18.0660  -28.0750   22.9340 C   0  0  0  0  0  0  0  0  0  0  0  0
  -20.6270  -28.3620   23.1720 C   0  0  0  0  0  3  0  0  0  0  0  0
  -20.7340  -26.9330   22.5900 C   0  0  0  0  0  2  0  0  0  0  0  0
  -19.6250  -26.6050   21.5860 C   0  0  0  0  0  2  0  0  0  0  0  0
  -18.2490  -26.7320   22.2450 C   0  0  0  0  0  2  0  0  0  0  0  0
  -19.1830  -28.8470   23.3540 C   0  0  0  0  0  0  0  0  0  0  0  0
  -18.9560  -30.1010   23.9620 C   0  0  0  0  0  3  0  0  0  0  0  0
  -17.6480  -30.5850   24.1500 C   0  0  0  0  0  3  0  0  0  0  0  0
  -16.5470  -29.8100   23.7430 C   0  0  0  0  0  3  0  0  0  0  0  0
  -16.7570  -28.5570   23.1410 C   0  0  0  0  0  3  0  0  0  0  0  0
  -25.9170  -32.5350   23.7990 C   0  0  0  0  0  3  0  0  0  0  0  0
  -25.5890  -33.9270   24.1520 N   0  0  0  0  0  0  0  0  0  0  0  0
  -25.8870  -34.9990   23.4060 C   0  0  0  0  0  0  0  0  0  0  0  0
  -26.5300  -34.9210   22.3560 O   0  0  0  0  0  0  0  0  0  0  0  0
  -25.0130  -34.0600   24.9700 H   0  0  0  0  0  0  0  0  0  0  0  0
  -24.1230  -36.7790   23.1410 C   0  0  0  0  0  1  0  0  0  0  0  0
  -25.3980  -36.3760   23.9010 C   0  0  0  0  0  3  0  0  0  0  0  0
  -27.5450  -37.2880   24.6720 C   0  0  0  0  0  1  0  0  0  0  0  0
  -26.4120  -37.4460   23.7650 N   0  0  0  0  0  0  0  0  0  0  0  0
  -25.9960  -38.3590   23.9330 H   0  0  0  0  0  0  0  0  0  0  0  0
  -26.4440  -31.7620   25.0720 C   0  0  1  0  0  0  0  0  0  0  0  0
  -25.3570  -31.5120   26.1440 C   0  0  0  0  0  1  0  0  0  0  0  0
  -27.0370  -30.3900   24.6810 C   0  0  0  0  0  1  0  0  0  0  0  0
  -27.5910  -32.5640   25.7320 C   0  0  0  0  0  1  0  0  0  0  0  0
  1 46  1  0
  1 15  1  0
  2  1  2  0
  3 16  1  0
  4  9  1  0
  5  6  1  0
  5  4  1  0
  7  6  1  0
  7 21  1  0
  7  8  1  0
  9  3  1  0
  9  8  1  0
 10  3  2  0
 11 15  2  0
 11 12  1  0
 13 12  2  0
 14 16  1  0
 16 13  1  0
 17 14  1  0
 17 11  1  0
 18 19  2  0
 19 38  1  0
 20 19  1  0
 20 23  1  0
 21 22  1  0
 21 18  1  0
 22 20  2  0
 23 24  1  0
 24 25  2  0
 26 29  1  0
 26 25  1  0
 27 26  2  0
 28 27  1  0
 28 23  2  0
 29 30  1  0
 30 35  2  0
 30 31  1  0
 31 32  2  0
 32 33  1  0
 33 37  1  0
 34 33  2  0
 35 34  1  0
 36 35  1  0
 38 39  1  0
 39 42  1  0
 39 41  1  0
 40 38  2  0
 43 18  1  0
 43 44  1  0
 45 43  1  0
 46 48  1  0
 47 48  1  0
 49 46  1  0
 50 61  2  0
 51 49  1  0
 51 56  1  0
 52 60  1  0
 52 62  1  0
 53 59  1  0
 53 55  1  0
 54 60  1  0
 55 54  1  0
 56 55  2  0
 57 51  2  0
 58 57  1  0
 58 53  2  0
 59 52  1  0
 60 50  1  0
 62 64  2  0
 63 62  1  0
 65 63  1  0
 66 75  2  0
 66 71  1  0
 67 63  1  0
 67 71  1  0
 68 67  1  0
 69 70  1  0
 69 68  1  0
 70 66  1  0
 71 72  2  0
 72 73  1  0
 74 73  2  0
 75 74  1  0
 76 50  1  0
 76 77  1  0
 76 86  1  0
 77 80  1  0
 78 82  1  0
 78 77  1  0
 79 78  2  0
 82 81  1  0
 84 82  1  0
 84 85  1  0
 84 83  1  0
 86 89  1  1
 86 87  1  0
 88 86  1  0
M  ISO  4   3 100  16 100  46 101  49 101
M  END
>  <TORSDO>  (60) 
F 18

>  <SCORE>  (60) 
-15.793

>  <name>  (60) 
59

>  <ligand_id>  (60) 
59

>  <original_smiles>  (60) 
[H]c1c([H])c([H])c2c(c1[H])C([H])([H])C([H])([H])C([H])([H])C2([H])N([H])C(=O)C1([H])N(C(=O)C([H])(N([H])C(=O)C([H])(N([H])C([H])([H])[H])C([H])([H])[H])C(C([H])([H])[H])(C([H])([H])[H])C([H])([H])[H])C([H])([H])c2c([H])c(OC([H])(C(=O)N=C3OC([H])([H])N(C(=O)N4C([H])([H])C([H])([H])C([H])([H])C([H])(n5nc(-c6c([H])c([H])c(Oc7c([H])c([H])c(F)c([H])c7F)c([H])c6[H])c(C(=O)N([H])[H])c5N([H])[H])C4([H])[H])C([H])([H])C3([H])[H])C([H])([H])C([H])([H])[H])c([H])c([H])c2C1([H])[H]

>  <smiles>  (60) 
[H]c1c([H])c([H])c2c(c1[H])C([H])([H])C([H])([H])C([H])([H])C2([H])N([H])C(=O)C1([H])N(C(=O)C([H])(N([H])C(=O)C([H])(N([H])C([H])([H])[H])C([H])([H])[H])C(C([H])([H])[H])(C([H])([H])[H])C([H])([H])[H])C([H])([H])c2c([H])c(OC([H])(C(=O)N=C3OC([H])([H])N(C(=O)N4C([H])([H])C([H])([H])C([H])([H])C([H])(n5nc(-c6c([H])c([H])c(Oc7c([H])c([H])c(F)c([H])c7F)c([H])c6[H])c(C(=O)N([H])[H])c5N([H])[H])C4([H])[H])C([H])([H])C3([H])[H])C([H])([H])C([H])([H])[H])c([H])c([H])c2C1([H])[H]

$$$$
60:0:0
     RDKit          3D

 98106  0  0  1  0  0  0  0  0999 V2000
  -30.4370  -20.5660   20.4690 C   0  0  0  0  0  0  0  0  0  0  0  0
  -31.7040  -20.7370   20.8730 N   0  0  0  0  0  4  0  0  0  0  0  0
  -29.7080  -21.7060   20.2500 N   0  0  0  0  0  0  0  0  0  0  0  0
  -32.2790  -19.9320   21.0610 H   0  0  0  0  0  0  0  0  0  0  0  0
  -32.1250  -21.6410   20.9990 H   0  0  0  0  0  0  0  0  0  0  0  0
  -28.7270  -21.5490   20.0040 H   0  0  0  0  0  0  0  0  0  0  0  0
  -30.7440  -17.9990   20.7220 C   0  0  0  0  0  3  0  0  0  0  0  0
  -28.7320  -17.2660   20.0460 C   0  0  0  0  0  3  0  0  0  0  0  0
  -29.9210  -16.8410   20.5530 C   0  0  0  0  0  0  0  0  0  0  0  0
  -30.0270  -19.1370   20.3460 C   0  0  0  0  0  0  0  0  0  0  0  0
  -27.6460  -19.3550   19.2970 C   0  0  0  0  0  0  0  0  0  0  0  0
  -26.3850  -18.5900   18.9020 C   0  0  0  0  0  1  0  0  0  0  0  0
  -28.7830  -18.6510   19.8710 N   0  0  0  0  0  0  0  0  0  0  0  0
  -27.6960  -20.5710   19.1060 O   0  0  0  0  0  0  0  0  0  0  0  0
  -30.9000  -14.4690   20.4190 C   0  0  0  0  0  0  0  0  0  0  0  0
  -30.7000  -12.1880   19.4550 C   0  0  0  0  0  2  0  0  0  0  0  0
  -29.7890  -12.2730   18.2090 C   0  0  0  0  0  2  0  0  0  0  0  0
  -28.2980  -12.1820   18.5940 C   0  0  0  0  0  2  0  0  0  0  0  0
  -27.9280  -13.1250   19.7680 C   0  0  0  0  0  3  0  0  0  0  0  0
  -28.9390  -12.9630   20.9260 C   0  0  0  0  0  2  0  0  0  0  0  0
  -30.2850  -13.2470   20.3910 N   0  0  0  0  0  0  0  0  0  0  0  0
  -32.0320  -14.6550   19.9600 O   0  0  0  0  0  0  0  0  0  0  0  0
  -30.1200  -15.4600   20.9270 N   0  0  0  0  0  0  0  0  0  0  0  0
  -29.3080  -15.0510   21.3640 H   0  0  0  0  0  0  0  0  0  0  0  0
  -25.5390  -13.8530   20.3910 C   0  0  0  0  0  0  0  0  0  0  0  0
  -24.4310  -13.1400   20.7600 C   0  0  0  0  0  0  0  0  0  0  0  0
  -24.8340  -11.7690   20.7740 C   0  0  0  0  0  0  0  0  0  0  0  0
  -26.5520  -12.9230   20.2130 N   0  0  0  0  0  0  0  0  0  0  0  0
  -26.1270  -11.6650   20.4980 N   0  0  0  0  0  0  0  0  0  0  0  0
  -24.0490  -10.5450   20.9760 C   0  0  0  0  0  0  0  0  0  0  0  0
  -24.4400   -9.5650   21.9130 C   0  0  0  0  0  3  0  0  0  0  0  0
  -23.6590   -8.4040   22.1020 C   0  0  0  0  0  3  0  0  0  0  0  0
  -22.4740   -8.2170   21.3530 C   0  0  0  0  0  0  0  0  0  0  0  0
  -22.1010   -9.1860   20.4050 C   0  0  0  0  0  3  0  0  0  0  0  0
  -22.8820  -10.3380   20.2140 C   0  0  0  0  0  3  0  0  0  0  0  0
  -21.6660   -7.1100   21.4510 O   0  0  0  0  0  0  0  0  0  0  0  0
  -21.6060   -6.3630   22.6010 C   0  0  0  0  0  0  0  0  0  0  0  0
  -21.2370   -6.9320   23.8390 C   0  0  0  0  0  3  0  0  0  0  0  0
  -21.1200   -6.1150   24.9820 C   0  0  0  0  0  3  0  0  0  0  0  0
  -21.3600   -4.7310   24.8860 C   0  0  0  0  0  0  0  0  0  0  0  0
  -21.7220   -4.1620   23.6530 C   0  0  0  0  0  3  0  0  0  0  0  0
  -21.8410   -4.9760   22.5130 C   0  0  0  0  0  0  0  0  0  0  0  0
  -22.1690   -4.4200   21.3220 F   0  0  0  0  0  0  0  0  0  0  0  0
  -21.2400   -3.9440   25.9810 F   0  0  0  0  0  0  0  0  0  0  0  0
  -23.0500  -13.6850   20.9820 C   0  0  0  0  0  0  0  0  0  0  0  0
  -22.2770  -13.0570   21.8620 N   0  0  0  0  0  0  0  0  0  0  0  0
  -22.6650  -14.7040   20.4110 O   0  0  0  0  0  0  0  0  0  0  0  0
  -22.6000  -12.2340   22.3470 H   0  0  0  0  0  0  0  0  0  0  0  0
  -21.3490  -13.4060   22.0540 H   0  0  0  0  0  0  0  0  0  0  0  0
  -25.7630  -15.2070   20.1660 N   0  0  0  0  0  0  0  0  0  0  0  0
  -24.9810  -15.8510   20.1450 H   0  0  0  0  0  0  0  0  0  0  0  0
  -26.5600  -15.5300   19.6350 H   0  0  0  0  0  0  0  0  0  0  0  0
  -30.1280  -23.1230   20.5280 C   0  0  0  0  0  2  0  0  0  0  0  0
  -30.7070  -25.3190   19.5090 C   0  0  0  0  0  1  0  0  0  0  0  0
  -29.1030  -23.8520   18.2870 C   0  0  0  0  0  1  0  0  0  0  0  0
  -29.5270  -24.3330   19.6880 C   0  0  1  0  0  0  0  0  0  0  0  0
  -28.3500  -25.1500   20.3650 C   0  0  0  0  0  2  0  0  0  0  0  0
  -28.3730  -26.5850   20.0750 O   0  0  0  0  0  0  0  0  0  0  0  0
  -24.5390  -31.8140   23.1460 C   0  0  0  0  0  0  0  0  0  0  0  0
  -27.1980  -27.3270   20.0920 C   0  0  0  0  0  0  0  0  0  0  0  0
  -23.3500  -30.4300   21.4780 C   0  0  0  0  0  3  0  0  0  0  0  0
  -24.8160  -28.8820   20.0680 C   0  0  0  0  0  0  0  0  0  0  0  0
  -25.8840  -30.7630   21.3220 C   0  0  0  0  0  2  0  0  0  0  0  0
  -25.9720  -29.3890   20.6760 C   0  0  0  0  0  0  0  0  0  0  0  0
  -27.1660  -28.6230   20.6760 C   0  0  0  0  0  3  0  0  0  0  0  0
  -26.0240  -26.8470   19.4740 C   0  0  0  0  0  3  0  0  0  0  0  0
  -24.8400  -27.6130   19.4610 C   0  0  0  0  0  3  0  0  0  0  0  0
  -23.5780  -29.7540   20.0980 C   0  0  0  0  0  2  0  0  0  0  0  0
  -24.6090  -31.0180   22.0400 N   0  0  0  0  0  0  0  0  0  0  0  0
  -23.4510  -32.0890   23.6720 O   0  0  0  0  0  0  0  0  0  0  0  0
  -22.6760  -29.4090   22.4240 C   0  0  0  0  0  0  0  0  0  0  0  0
  -21.3460  -29.2640   22.3020 N   0  0  0  0  0  0  0  0  0  0  0  0
  -23.3460  -28.7510   23.2240 O   0  0  0  0  0  0  0  0  0  0  0  0
  -20.8670  -29.8460   21.6290 H   0  0  0  0  0  0  0  0  0  0  0  0
  -17.9410  -28.1690   22.8260 C   0  0  0  0  0  0  0  0  0  0  0  0
  -20.5100  -28.3310   23.0580 C   0  0  0  0  0  3  0  0  0  0  0  0
  -20.5530  -26.9160   22.4350 C   0  0  0  0  0  2  0  0  0  0  0  0
  -19.4230  -26.6640   21.4310 C   0  0  0  0  0  2  0  0  0  0  0  0
  -18.0580  -26.8370   22.1050 C   0  0  0  0  0  2  0  0  0  0  0  0
  -19.0930  -28.8770   23.2580 C   0  0  0  0  0  0  0  0  0  0  0  0
  -18.9290  -30.1290   23.8920 C   0  0  0  0  0  3  0  0  0  0  0  0
  -17.6460  -30.6700   24.0980 C   0  0  0  0  0  3  0  0  0  0  0  0
  -16.5090  -29.9570   23.6810 C   0  0  0  0  0  3  0  0  0  0  0  0
  -16.6570  -28.7090   23.0500 C   0  0  0  0  0  3  0  0  0  0  0  0
  -25.8180  -32.4350   23.7900 C   0  0  0  0  0  3  0  0  0  0  0  0
  -26.3220  -31.6440   25.0600 C   0  0  1  0  0  0  0  0  0  0  0  0
  -25.2190  -31.3960   26.1140 C   0  0  0  0  0  1  0  0  0  0  0  0
  -26.9040  -30.2710   24.6520 C   0  0  0  0  0  1  0  0  0  0  0  0
  -27.4690  -32.4270   25.7440 C   0  0  0  0  0  1  0  0  0  0  0  0
  -25.5090  -33.8280   24.1360 N   0  0  0  0  0  0  0  0  0  0  0  0
  -25.8510  -34.8910   23.3960 C   0  0  0  0  0  0  0  0  0  0  0  0
  -26.5320  -34.8000   22.3690 O   0  0  0  0  0  0  0  0  0  0  0  0
  -24.9080  -33.9740   24.9340 H   0  0  0  0  0  0  0  0  0  0  0  0
  -24.1260  -36.6880   23.0530 C   0  0  0  0  0  1  0  0  0  0  0  0
  -25.3620  -36.2740   23.8660 C   0  0  0  0  0  3  0  0  0  0  0  0
  -27.4910  -37.1500   24.7210 C   0  0  0  0  0  1  0  0  0  0  0  0
  -26.3950  -37.3280   23.7720 N   0  0  0  0  0  0  0  0  0  0  0  0
  -25.9890  -38.2460   23.9250 H   0  0  0  0  0  0  0  0  0  0  0  0
  1  2  2  0
  2  5  1  0
  2  4  1  0
  3  1  1  0
  3 53  1  0
  6  3  1  0
  8  9  2  0
  9  7  1  0
  9 23  1  0
 10  1  1  0
 10  7  2  0
 11 13  1  0
 12 11  1  0
 13  8  1  0
 13 10  1  0
 14 11  2  0
 15 23  1  0
 16 21  1  0
 17 18  1  0
 17 16  1  0
 19 18  1  0
 19 28  1  0
 19 20  1  0
 21 15  1  0
 21 20  1  0
 22 15  2  0
 23 24  1  0
 25 26  2  0
 26 27  1  0
 26 45  1  0
 27 30  1  0
 28 25  1  0
 28 29  1  0
 29 27  2  0
 30 31  1  0
 31 32  2  0
 33 36  1  0
 33 32  1  0
 34 33  2  0
 35 34  1  0
 35 30  2  0
 36 37  1  0
 37 38  1  0
 38 39  2  0
 40 39  1  0
 40 44  1  0
 41 40  2  0
 42 37  2  0
 42 41  1  0
 43 42  1  0
 45 46  1  0
 46 49  1  0
 46 48  1  0
 47 45  2  0
 50 25  1  0
 51 50  1  0
 52 50  1  0
 56 54  1  6
 55 56  1  0
 56 57  1  0
 56 53  1  0
 58 60  1  0
 58 57  1  0
 59 70  2  0
 60 65  1  0
 61 69  1  0
 61 71  1  0
 62 68  1  0
 62 64  1  0
 63 69  1  0
 64 65  2  0
 64 63  1  0
 66 60  2  0
 67 66  1  0
 67 62  2  0
 68 61  1  0
 69 59  1  0
 71 73  2  0
 72 71  1  0
 74 72  1  0
 75 84  2  0
 75 80  1  0
 76 72  1  0
 76 80  1  0
 77 76  1  0
 78 79  1  0
 78 77  1  0
 79 75  1  0
 80 81  2  0
 81 82  1  0
 83 82  2  0
 84 83  1  0
 85 59  1  0
 85 90  1  0
 85 86  1  0
 86 89  1  1
 86 87  1  0
 88 86  1  0
 90 93  1  0
 91 95  1  0
 91 90  1  0
 92 91  2  0
 95 94  1  0
 97 95  1  0
 97 98  1  0
 97 96  1  0
M  ISO  4  15 100  23 100  57 101  58 101
M  END
>  <TORSDO>  (61) 
F 20

>  <SCORE>  (61) 
-13.768

>  <name>  (61) 
60

>  <ligand_id>  (61) 
60

>  <original_smiles>  (61) 
[H]c1c([H])c([H])c2c(c1[H])C([H])([H])C([H])([H])C([H])([H])C2([H])N([H])C(=O)C1([H])N(C(=O)C([H])(N([H])C(=O)C([H])(N([H])C([H])([H])[H])C([H])([H])[H])C(C([H])([H])[H])(C([H])([H])[H])C([H])([H])[H])C([H])([H])c2c([H])c(OC([H])([H])C(C([H])([H])[H])(C([H])([H])[H])C([H])([H])[N+]([H])=C(c3c([H])c(N([H])C(=O)N4C([H])([H])C([H])([H])C([H])([H])C([H])(n5nc(-c6c([H])c([H])c(Oc7c([H])c([H])c(F)c([H])c7F)c([H])c6[H])c(C(=O)N([H])[H])c5N([H])[H])C4([H])[H])c([H])n3C(=O)C([H])([H])[H])N([H])[H])c([H])c([H])c2C1([H])[H]

>  <smiles>  (61) 
[H]c1c([H])c([H])c2c(c1[H])C([H])([H])C([H])([H])C([H])([H])C2([H])N([H])C(=O)C1([H])N(C(=O)C([H])(N([H])C(=O)C([H])(N([H])C([H])([H])[H])C([H])([H])[H])C(C([H])([H])[H])(C([H])([H])[H])C([H])([H])[H])C([H])([H])c2c([H])c(OC([H])([H])C(C([H])([H])[H])(C([H])([H])[H])C([H])([H])[N+]([H])=C(c3c([H])c(N([H])C(=O)N4C([H])([H])C([H])([H])C([H])([H])C([H])(n5nc(-c6c([H])c([H])c(Oc7c([H])c([H])c(F)c([H])c7F)c([H])c6[H])c(C(=O)N([H])[H])c5N([H])[H])C4([H])[H])c([H])n3C(=O)C([H])([H])[H])N([H])[H])c([H])c([H])c2C1([H])[H]

$$$$
61:0:0
     RDKit          3D

 93102  0  0  1  0  0  0  0  0999 V2000
  -29.3130  -23.2180   18.7520 C   0  0  0  0  0  2  0  0  0  0  0  0
  -29.9060  -21.7770   18.7460 C   0  0  0  0  0  2  0  0  0  0  0  0
  -29.1240  -23.6260   20.2290 C   0  0  1  0  0  0  0  0  0  0  0  0
  -28.7510  -22.1220   20.7910 C   0  0  2  0  0  0  0  0  0  0  0  0
  -30.4900  -24.1000   20.7730 C   0  0  0  0  0  1  0  0  0  0  0  0
  -27.2340  -21.8820   20.6370 C   0  0  0  0  0  1  0  0  0  0  0  0
  -29.1020  -21.9580   22.2820 C   0  0  0  0  0  1  0  0  0  0  0  0
  -29.4500  -21.0800   19.9490 N   0  0  0  0  0  0  0  0  0  0  0  0
  -31.3080  -19.4160   20.2950 C   0  0  0  0  0  3  0  0  0  0  0  0
  -31.4410  -17.9830   20.3960 C   0  0  0  0  0  3  0  0  0  0  0  0
  -29.9720  -19.7390   20.2820 C   0  0  0  0  0  0  0  0  0  0  0  0
  -30.1820  -17.4300   20.4220 C   0  0  0  0  0  0  0  0  0  0  0  0
  -29.2480  -18.5150   20.3610 O   0  0  0  0  0  0  0  0  0  0  0  0
  -30.6580  -14.8840   20.3340 C   0  0  0  0  0  0  0  0  0  0  0  0
  -30.4710  -12.5700   19.3720 C   0  0  0  0  0  2  0  0  0  0  0  0
  -29.5400  -12.6200   18.1430 C   0  0  0  0  0  2  0  0  0  0  0  0
  -28.0650  -12.4530   18.5600 C   0  0  0  0  0  2  0  0  0  0  0  0
  -27.6870  -13.3310   19.7860 C   0  0  0  0  0  3  0  0  0  0  0  0
  -28.7520  -13.2750   20.9030 C   0  0  0  0  0  2  0  0  0  0  0  0
  -30.0370  -13.6460   20.2970 N   0  0  0  0  0  0  0  0  0  0  0  0
  -31.8520  -14.9510   20.0230 O   0  0  0  0  0  0  0  0  0  0  0  0
  -29.8780  -16.0410   20.4960 N   0  0  0  0  0  0  0  0  0  0  0  0
  -28.9020  -15.8370   20.6440 H   0  0  0  0  0  0  0  0  0  0  0  0
  -25.3100  -13.9030   20.5520 C   0  0  0  0  0  0  0  0  0  0  0  0
  -24.2490  -13.1240   20.9240 C   0  0  0  0  0  0  0  0  0  0  0  0
  -24.7130  -11.7730   20.8690 C   0  0  0  0  0  0  0  0  0  0  0  0
  -26.3520  -13.0270   20.2900 N   0  0  0  0  0  0  0  0  0  0  0  0
  -26.0020  -11.7400   20.5460 N   0  0  0  0  0  0  0  0  0  0  0  0
  -23.9880  -10.5090   21.0490 C   0  0  0  0  0  0  0  0  0  0  0  0
  -24.4150   -9.5350   21.9770 C   0  0  0  0  0  3  0  0  0  0  0  0
  -23.6860   -8.3380   22.1460 C   0  0  0  0  0  3  0  0  0  0  0  0
  -22.5160   -8.1070   21.3850 C   0  0  0  0  0  0  0  0  0  0  0  0
  -22.1100   -9.0690   20.4430 C   0  0  0  0  0  3  0  0  0  0  0  0
  -22.8390  -10.2570   20.2730 C   0  0  0  0  0  3  0  0  0  0  0  0
  -21.7570   -6.9650   21.4630 O   0  0  0  0  0  0  0  0  0  0  0  0
  -21.6850   -6.2250   22.6180 C   0  0  0  0  0  0  0  0  0  0  0  0
  -21.2070   -6.7770   23.8270 C   0  0  0  0  0  3  0  0  0  0  0  0
  -21.0840   -5.9650   24.9720 C   0  0  0  0  0  3  0  0  0  0  0  0
  -21.4290   -4.6020   24.9070 C   0  0  0  0  0  0  0  0  0  0  0  0
  -21.8990   -4.0480   23.7030 C   0  0  0  0  0  3  0  0  0  0  0  0
  -22.0240   -4.8570   22.5600 C   0  0  0  0  0  0  0  0  0  0  0  0
  -22.4580   -4.3160   21.3960 F   0  0  0  0  0  0  0  0  0  0  0  0
  -21.3040   -3.8200   26.0040 F   0  0  0  0  0  0  0  0  0  0  0  0
  -22.8540  -13.5980   21.2140 C   0  0  0  0  0  0  0  0  0  0  0  0
  -22.1350  -12.8930   22.0790 N   0  0  0  0  0  0  0  0  0  0  0  0
  -22.4140  -14.6300   20.7090 O   0  0  0  0  0  0  0  0  0  0  0  0
  -22.5070  -12.0610   22.5080 H   0  0  0  0  0  0  0  0  0  0  0  0
  -21.2000  -13.1960   22.3180 H   0  0  0  0  0  0  0  0  0  0  0  0
  -25.4650  -15.2760   20.3880 N   0  0  0  0  0  0  0  0  0  0  0  0
  -24.6750  -15.9080   20.4770 H   0  0  0  0  0  0  0  0  0  0  0  0
  -26.2750  -15.7250   19.9800 H   0  0  0  0  0  0  0  0  0  0  0  0
  -28.0770  -24.8830   20.4450 C   0  0  0  0  0  2  0  0  0  0  0  0
  -28.3540  -26.3660   20.2040 O   0  0  0  0  0  0  0  0  0  0  0  0
  -24.6430  -31.8970   23.2490 C   0  0  0  0  0  0  0  0  0  0  0  0
  -27.2640  -27.2860   20.1800 C   0  0  0  0  0  0  0  0  0  0  0  0
  -23.4480  -30.5050   21.5990 C   0  0  0  0  0  3  0  0  0  0  0  0
  -24.9070  -28.9570   20.1700 C   0  0  0  0  0  0  0  0  0  0  0  0
  -25.9970  -30.8060   21.4320 C   0  0  0  0  0  2  0  0  0  0  0  0
  -26.0810  -29.4250   20.7770 C   0  0  0  0  0  0  0  0  0  0  0  0
  -27.2610  -28.6050   20.7660 C   0  0  0  0  0  3  0  0  0  0  0  0
  -26.0650  -26.9070   19.5350 C   0  0  0  0  0  3  0  0  0  0  0  0
  -24.9070  -27.7070   19.5360 C   0  0  0  0  0  3  0  0  0  0  0  0
  -23.6710  -29.8350   20.2170 C   0  0  0  0  0  2  0  0  0  0  0  0
  -24.7140  -31.0880   22.1490 N   0  0  0  0  0  0  0  0  0  0  0  0
  -23.5550  -32.1740   23.7780 O   0  0  0  0  0  0  0  0  0  0  0  0
  -22.7770  -29.4850   22.5520 C   0  0  0  0  0  0  0  0  0  0  0  0
  -21.4540  -29.3000   22.4120 N   0  0  0  0  0  0  0  0  0  0  0  0
  -23.4500  -28.8640   23.3780 O   0  0  0  0  0  0  0  0  0  0  0  0
  -20.9710  -29.8520   21.7200 H   0  0  0  0  0  0  0  0  0  0  0  0
  -18.0780  -28.0800   22.8860 C   0  0  0  0  0  0  0  0  0  0  0  0
  -20.6330  -28.3560   23.1750 C   0  0  0  0  0  3  0  0  0  0  0  0
  -20.7480  -26.9270   22.5960 C   0  0  0  0  0  2  0  0  0  0  0  0
  -19.6560  -26.5990   21.5730 C   0  0  0  0  0  2  0  0  0  0  0  0
  -18.2670  -26.7350   22.2060 C   0  0  0  0  0  2  0  0  0  0  0  0
  -19.1880  -28.8480   23.3240 C   0  0  0  0  0  0  0  0  0  0  0  0
  -18.9580  -30.1070   23.9200 C   0  0  0  0  0  3  0  0  0  0  0  0
  -17.6470  -30.5970   24.0820 C   0  0  0  0  0  3  0  0  0  0  0  0
  -16.5510  -29.8250   23.6600 C   0  0  0  0  0  3  0  0  0  0  0  0
  -16.7680  -28.5690   23.0670 C   0  0  0  0  0  3  0  0  0  0  0  0
  -25.9190  -32.5320   23.8810 C   0  0  0  0  0  3  0  0  0  0  0  0
  -25.6020  -33.9290   24.2170 N   0  0  0  0  0  0  0  0  0  0  0  0
  -25.8990  -34.9860   23.4470 C   0  0  0  0  0  0  0  0  0  0  0  0
  -26.5380  -34.8880   22.3960 O   0  0  0  0  0  0  0  0  0  0  0  0
  -25.0360  -34.0770   25.0380 H   0  0  0  0  0  0  0  0  0  0  0  0
  -24.1300  -36.7510   23.1600 C   0  0  0  0  0  1  0  0  0  0  0  0
  -25.4120  -36.3700   23.9190 C   0  0  0  0  0  3  0  0  0  0  0  0
  -27.5660  -37.2930   24.6530 C   0  0  0  0  0  1  0  0  0  0  0  0
  -26.4220  -37.4380   23.7570 N   0  0  0  0  0  0  0  0  0  0  0  0
  -26.0080  -38.3520   23.9190 H   0  0  0  0  0  0  0  0  0  0  0  0
  -26.4290  -31.7580   25.1570 C   0  0  1  0  0  0  0  0  0  0  0  0
  -25.3300  -31.5110   26.2160 C   0  0  0  0  0  1  0  0  0  0  0  0
  -27.0220  -30.3850   24.7670 C   0  0  0  0  0  1  0  0  0  0  0  0
  -27.5710  -32.5550   25.8290 C   0  0  0  0  0  1  0  0  0  0  0  0
  1  3  1  0
  2  1  1  0
  2  8  1  0
  3 52  1  0
  3  5  1  1
  3  4  1  0
  4  7  1  1
  6  4  1  0
  8 11  1  0
  8  4  1  0
  9 10  1  0
 10 12  2  0
 11  9  2  0
 11 13  1  0
 12 22  1  0
 13 12  1  0
 14 22  1  0
 15 20  1  0
 16 17  1  0
 16 15  1  0
 18 17  1  0
 18 27  1  0
 18 19  1  0
 20 14  1  0
 20 19  1  0
 21 14  2  0
 22 23  1  0
 24 25  2  0
 25 44  1  0
 26 25  1  0
 26 29  1  0
 27 28  1  0
 27 24  1  0
 28 26  2  0
 29 30  1  0
 30 31  2  0
 32 35  1  0
 32 31  1  0
 33 32  2  0
 34 33  1  0
 34 29  2  0
 35 36  1  0
 36 37  1  0
 37 38  2  0
 39 38  1  0
 39 43  1  0
 40 39  2  0
 41 36  2  0
 41 40  1  0
 42 41  1  0
 44 45  1  0
 45 48  1  0
 45 47  1  0
 46 44  2  0
 49 50  1  0
 49 24  1  0
 51 49  1  0
 53 52  1  0
 54 65  2  0
 55 53  1  0
 55 60  1  0
 56 64  1  0
 56 66  1  0
 57 63  1  0
 57 59  1  0
 58 64  1  0
 59 58  1  0
 60 59  2  0
 61 62  1  0
 61 55  2  0
 62 57  2  0
 63 56  1  0
 64 54  1  0
 66 68  2  0
 67 66  1  0
 69 67  1  0
 70 79  2  0
 70 75  1  0
 71 67  1  0
 71 75  1  0
 72 71  1  0
 73 74  1  0
 73 72  1  0
 74 70  1  0
 75 76  2  0
 76 77  1  0
 78 77  2  0
 79 78  1  0
 80 54  1  0
 80 81  1  0
 80 90  1  0
 81 84  1  0
 82 86  1  0
 82 81  1  0
 83 82  2  0
 86 85  1  0
 88 89  1  0
 88 86  1  0
 88 87  1  0
 90 93  1  1
 90 91  1  0
 92 90  1  0
M  ISO  4  14 100  22 100  52 101  53 101
M  END
>  <TORSDO>  (62) 
F 18

>  <SCORE>  (62) 
-14.786

>  <name>  (62) 
61

>  <ligand_id>  (62) 
61

>  <original_smiles>  (62) 
[H]c1c(N([H])C(=O)N2C([H])([H])C([H])([H])C([H])([H])C([H])(n3nc(-c4c([H])c([H])c(Oc5c([H])c([H])c(F)c([H])c5F)c([H])c4[H])c(C(=O)N([H])[H])c3N([H])[H])C2([H])[H])oc(N2C([H])([H])C([H])([H])C(C([H])([H])[H])(C([H])([H])Oc3c([H])c([H])c4c(c3[H])C([H])([H])N(C(=O)C([H])(N([H])C(=O)C([H])(N([H])C([H])([H])[H])C([H])([H])[H])C(C([H])([H])[H])(C([H])([H])[H])C([H])([H])[H])C([H])(C(=O)N([H])C3([H])c5c([H])c([H])c([H])c([H])c5C([H])([H])C([H])([H])C3([H])[H])C4([H])[H])C2(C([H])([H])[H])C([H])([H])[H])c1[H]

>  <smiles>  (62) 
[H]c1c(N([H])C(=O)N2C([H])([H])C([H])([H])C([H])([H])C([H])(n3nc(-c4c([H])c([H])c(Oc5c([H])c([H])c(F)c([H])c5F)c([H])c4[H])c(C(=O)N([H])[H])c3N([H])[H])C2([H])[H])oc(N2C([H])([H])C([H])([H])C(C([H])([H])[H])(C([H])([H])Oc3c([H])c([H])c4c(c3[H])C([H])([H])N(C(=O)C([H])(N([H])C(=O)C([H])(N([H])C([H])([H])[H])C([H])([H])[H])C(C([H])([H])[H])(C([H])([H])[H])C([H])([H])[H])C([H])(C(=O)N([H])C3([H])c5c([H])c([H])c([H])c([H])c5C([H])([H])C([H])([H])C3([H])[H])C4([H])[H])C2(C([H])([H])[H])C([H])([H])[H])c1[H]

$$$$
62:0:0
     RDKit          3D

 92100  0  0  1  0  0  0  0  0999 V2000
  -31.6070  -17.7630   20.2190 C   0  0  0  0  0  3  0  0  0  0  0  0
  -29.3240  -18.5060   20.2900 C   0  0  0  0  0  3  0  0  0  0  0  0
  -31.9630  -19.1070   20.0450 C   0  0  0  0  0  3  0  0  0  0  0  0
  -30.2520  -17.3800   20.3410 C   0  0  0  0  0  0  0  0  0  0  0  0
  -29.7490  -19.8970   20.1280 C   0  0  0  0  0  0  0  0  0  0  0  0
  -29.0750  -22.3740   20.4240 C   0  0  0  0  0  0  0  0  0  0  0  0
  -27.5760  -20.8220   19.2480 C   0  0  0  0  0  1  0  0  0  0  0  0
  -31.0770  -20.1230   19.9950 N   0  0  0  0  0  0  0  0  0  0  0  0
  -28.8190  -21.0610   19.9890 N   0  0  0  0  0  0  0  0  0  0  0  0
  -29.9590  -22.5780   21.2600 O   0  0  0  0  0  0  0  0  0  0  0  0
  -30.6050  -14.7620   20.3630 C   0  0  0  0  0  0  0  0  0  0  0  0
  -30.3490  -12.4880   19.3700 C   0  0  0  0  0  2  0  0  0  0  0  0
  -29.4160  -12.5710   18.1420 C   0  0  0  0  0  2  0  0  0  0  0  0
  -27.9460  -12.4150   18.5700 C   0  0  0  0  0  2  0  0  0  0  0  0
  -27.5800  -13.3070   19.7870 C   0  0  0  0  0  3  0  0  0  0  0  0
  -28.6390  -13.2260   20.9090 C   0  0  0  0  0  2  0  0  0  0  0  0
  -29.9360  -13.5580   20.3090 N   0  0  0  0  0  0  0  0  0  0  0  0
  -31.8060  -14.7770   20.0800 O   0  0  0  0  0  0  0  0  0  0  0  0
  -29.8720  -15.9410   20.5080 N   0  0  0  0  0  0  0  0  0  0  0  0
  -28.8930  -15.7800   20.6810 H   0  0  0  0  0  0  0  0  0  0  0  0
  -25.1930  -13.9030   20.5040 C   0  0  0  0  0  0  0  0  0  0  0  0
  -24.1240  -13.1320   20.8720 C   0  0  0  0  0  0  0  0  0  0  0  0
  -24.5860  -11.7790   20.8500 C   0  0  0  0  0  0  0  0  0  0  0  0
  -26.2360  -13.0220   20.2780 N   0  0  0  0  0  0  0  0  0  0  0  0
  -25.8790  -11.7400   20.5530 N   0  0  0  0  0  0  0  0  0  0  0  0
  -23.8570  -10.5180   21.0420 C   0  0  0  0  0  0  0  0  0  0  0  0
  -24.2900   -9.5500   21.9740 C   0  0  0  0  0  3  0  0  0  0  0  0
  -23.5620   -8.3540   22.1550 C   0  0  0  0  0  3  0  0  0  0  0  0
  -22.3860   -8.1180   21.4030 C   0  0  0  0  0  0  0  0  0  0  0  0
  -21.9740   -9.0740   20.4570 C   0  0  0  0  0  3  0  0  0  0  0  0
  -22.7020  -10.2620   20.2760 C   0  0  0  0  0  3  0  0  0  0  0  0
  -21.6300   -6.9740   21.4940 O   0  0  0  0  0  0  0  0  0  0  0  0
  -21.5870   -6.2280   22.6440 C   0  0  0  0  0  0  0  0  0  0  0  0
  -21.1790   -6.7840   23.8760 C   0  0  0  0  0  3  0  0  0  0  0  0
  -21.0820   -5.9660   25.0190 C   0  0  0  0  0  3  0  0  0  0  0  0
  -21.3810   -4.5930   24.9310 C   0  0  0  0  0  0  0  0  0  0  0  0
  -21.7810   -4.0370   23.7040 C   0  0  0  0  0  3  0  0  0  0  0  0
  -21.8800   -4.8520   22.5630 C   0  0  0  0  0  0  0  0  0  0  0  0
  -22.2470   -4.3070   21.3770 F   0  0  0  0  0  0  0  0  0  0  0  0
  -21.2800   -3.8050   26.0270 F   0  0  0  0  0  0  0  0  0  0  0  0
  -22.7250  -13.6100   21.1300 C   0  0  0  0  0  0  0  0  0  0  0  0
  -21.9900  -12.9160   21.9930 N   0  0  0  0  0  0  0  0  0  0  0  0
  -22.2910  -14.6320   20.6010 O   0  0  0  0  0  0  0  0  0  0  0  0
  -22.3570  -12.0900   22.4430 H   0  0  0  0  0  0  0  0  0  0  0  0
  -21.0490  -13.2140   22.2070 H   0  0  0  0  0  0  0  0  0  0  0  0
  -25.3620  -15.2720   20.3180 N   0  0  0  0  0  0  0  0  0  0  0  0
  -24.6010  -15.9330   20.4170 H   0  0  0  0  0  0  0  0  0  0  0  0
  -26.2080  -15.6980   19.9640 H   0  0  0  0  0  0  0  0  0  0  0  0
  -28.2670  -23.6900   19.9350 C   0  0  0  0  0  2  0  0  0  0  0  0
  -27.4960  -25.0470   22.0470 C   0  0  0  0  0  1  0  0  0  0  0  0
  -28.3780  -25.0800   20.7830 C   0  0  0  0  0  3  0  0  0  0  0  0
  -28.3810  -26.4650   20.1880 O   0  0  0  0  0  0  0  0  0  0  0  0
  -24.6270  -31.8910   23.2440 C   0  0  0  0  0  0  0  0  0  0  0  0
  -27.2560  -27.3090   20.1990 C   0  0  0  0  0  0  0  0  0  0  0  0
  -23.4380  -30.4820   21.6000 C   0  0  0  0  0  3  0  0  0  0  0  0
  -24.8940  -28.9300   20.1810 C   0  0  0  0  0  0  0  0  0  0  0  0
  -25.9770  -30.8070   21.4260 C   0  0  0  0  0  2  0  0  0  0  0  0
  -26.0630  -29.4240   20.7770 C   0  0  0  0  0  0  0  0  0  0  0  0
  -27.2490  -28.6260   20.7690 C   0  0  0  0  0  3  0  0  0  0  0  0
  -26.0690  -26.8700   19.5840 C   0  0  0  0  0  3  0  0  0  0  0  0
  -24.9010  -27.6610   19.5740 C   0  0  0  0  0  3  0  0  0  0  0  0
  -23.6580  -29.8060   20.2220 C   0  0  0  0  0  2  0  0  0  0  0  0
  -24.7000  -31.0800   22.1460 N   0  0  0  0  0  0  0  0  0  0  0  0
  -23.5400  -32.1670   23.7710 O   0  0  0  0  0  0  0  0  0  0  0  0
  -22.7730  -29.4670   22.5620 C   0  0  0  0  0  0  0  0  0  0  0  0
  -21.4450  -29.2980   22.4420 N   0  0  0  0  0  0  0  0  0  0  0  0
  -23.4520  -28.8350   23.3750 O   0  0  0  0  0  0  0  0  0  0  0  0
  -20.9570  -29.8640   21.7620 H   0  0  0  0  0  0  0  0  0  0  0  0
  -18.0640  -28.1100   22.9460 C   0  0  0  0  0  0  0  0  0  0  0  0
  -20.6240  -28.3560   23.2050 C   0  0  0  0  0  3  0  0  0  0  0  0
  -20.7160  -26.9290   22.6190 C   0  0  0  0  0  2  0  0  0  0  0  0
  -19.6080  -26.6200   21.6070 C   0  0  0  0  0  2  0  0  0  0  0  0
  -18.2300  -26.7660   22.2590 C   0  0  0  0  0  2  0  0  0  0  0  0
  -19.1880  -28.8650   23.3760 C   0  0  0  0  0  0  0  0  0  0  0  0
  -18.9790  -30.1240   23.9780 C   0  0  0  0  0  3  0  0  0  0  0  0
  -17.6780  -30.6330   24.1520 C   0  0  0  0  0  3  0  0  0  0  0  0
  -16.5680  -29.8750   23.7380 C   0  0  0  0  0  3  0  0  0  0  0  0
  -16.7610  -28.6160   23.1450 C   0  0  0  0  0  3  0  0  0  0  0  0
  -25.9050  -32.5280   23.8730 C   0  0  0  0  0  3  0  0  0  0  0  0
  -25.5910  -33.9250   24.2030 N   0  0  0  0  0  0  0  0  0  0  0  0
  -25.9190  -34.9800   23.4450 C   0  0  0  0  0  0  0  0  0  0  0  0
  -26.5900  -34.8820   22.4140 O   0  0  0  0  0  0  0  0  0  0  0  0
  -25.0020  -34.0760   25.0070 H   0  0  0  0  0  0  0  0  0  0  0  0
  -24.1810  -36.7640   23.0930 C   0  0  0  0  0  1  0  0  0  0  0  0
  -25.4260  -36.3660   23.9030 C   0  0  0  0  0  3  0  0  0  0  0  0
  -27.5600  -37.2590   24.7290 C   0  0  0  0  0  1  0  0  0  0  0  0
  -26.4510  -37.4250   23.7910 N   0  0  0  0  0  0  0  0  0  0  0  0
  -26.0410  -38.3420   23.9500 H   0  0  0  0  0  0  0  0  0  0  0  0
  -26.4160  -31.7610   25.1550 C   0  0  1  0  0  0  0  0  0  0  0  0
  -25.3180  -31.5240   26.2180 C   0  0  0  0  0  1  0  0  0  0  0  0
  -27.0050  -30.3850   24.7650 C   0  0  0  0  0  1  0  0  0  0  0  0
  -27.5630  -32.5580   25.8200 C   0  0  0  0  0  1  0  0  0  0  0  0
  1  4  1  0
  2  4  2  0
  3  1  2  0
  4 19  1  0
  5  2  1  0
  6 10  2  0
  7  9  1  0
  8  3  1  0
  8  5  2  0
  9  5  1  0
  9  6  1  0
 11 19  1  0
 12 17  1  0
 13 14  1  0
 13 12  1  0
 15 14  1  0
 15 24  1  0
 15 16  1  0
 17 11  1  0
 17 16  1  0
 18 11  2  0
 19 20  1  0
 21 22  2  0
 22 41  1  0
 23 22  1  0
 23 26  1  0
 24 21  1  0
 24 25  1  0
 25 23  2  0
 26 27  1  0
 27 28  2  0
 29 32  1  0
 29 28  1  0
 30 29  2  0
 31 30  1  0
 31 26  2  0
 32 33  1  0
 33 34  1  0
 34 35  2  0
 36 35  1  0
 36 40  1  0
 37 36  2  0
 38 33  2  0
 38 37  1  0
 39 38  1  0
 41 42  1  0
 42 45  1  0
 42 44  1  0
 43 41  2  0
 46 47  1  0
 46 21  1  0
 48 46  1  0
 49  6  1  0
 49 51  1  0
 51 50  1  0
 52 54  1  0
 52 51  1  0
 53 64  2  0
 54 59  1  0
 55 63  1  0
 55 65  1  0
 56 62  1  0
 56 58  1  0
 57 63  1  0
 58 57  1  0
 59 58  2  0
 60 54  2  0
 61 60  1  0
 61 56  2  0
 62 55  1  0
 63 53  1  0
 65 67  2  0
 66 65  1  0
 68 66  1  0
 69 78  2  0
 69 74  1  0
 70 66  1  0
 70 74  1  0
 71 70  1  0
 72 73  1  0
 72 71  1  0
 73 69  1  0
 74 75  2  0
 75 76  1  0
 77 76  2  0
 78 77  1  0
 79 53  1  0
 79 80  1  0
 79 89  1  0
 80 83  1  0
 81 85  1  0
 81 80  1  0
 82 81  2  0
 85 84  1  0
 87 85  1  0
 87 88  1  0
 87 86  1  0
 89 92  1  1
 89 90  1  0
 91 89  1  0
M  ISO  4  11 100  19 100  51 101  52 101
M  END
>  <TORSDO>  (63) 
F 18

>  <SCORE>  (63) 
-14.810

>  <name>  (63) 
62

>  <ligand_id>  (63) 
62

>  <original_smiles>  (63) 
[H]c1nc(N(C(=O)C([H])([H])C([H])(Oc2c([H])c([H])c3c(c2[H])C([H])([H])N(C(=O)C([H])(N([H])C(=O)C([H])(N([H])C([H])([H])[H])C([H])([H])[H])C(C([H])([H])[H])(C([H])([H])[H])C([H])([H])[H])C([H])(C(=O)N([H])C2([H])c4c([H])c([H])c([H])c([H])c4C([H])([H])C([H])([H])C2([H])[H])C3([H])[H])C([H])([H])[H])C([H])([H])[H])c([H])c(N([H])C(=O)N2C([H])([H])C([H])([H])C([H])([H])C([H])(n3nc(-c4c([H])c([H])c(Oc5c([H])c([H])c(F)c([H])c5F)c([H])c4[H])c(C(=O)N([H])[H])c3N([H])[H])C2([H])[H])c1[H]

>  <smiles>  (63) 
[H]c1nc(N(C(=O)C([H])([H])C([H])(Oc2c([H])c([H])c3c(c2[H])C([H])([H])N(C(=O)C([H])(N([H])C(=O)C([H])(N([H])C([H])([H])[H])C([H])([H])[H])C(C([H])([H])[H])(C([H])([H])[H])C([H])([H])[H])C([H])(C(=O)N([H])C2([H])c4c([H])c([H])c([H])c([H])c4C([H])([H])C([H])([H])C2([H])[H])C3([H])[H])C([H])([H])[H])C([H])([H])[H])c([H])c(N([H])C(=O)N2C([H])([H])C([H])([H])C([H])([H])C([H])(n3nc(-c4c([H])c([H])c(Oc5c([H])c([H])c(F)c([H])c5F)c([H])c4[H])c(C(=O)N([H])[H])c3N([H])[H])C2([H])[H])c1[H]

$$$$
63:0:0
     RDKit          3D

 95103  0  0  1  0  0  0  0  0999 V2000
  -30.5520  -14.8580   20.4350 C   0  0  0  0  0  0  0  0  0  0  0  0
  -30.3730  -12.5690   19.4330 C   0  0  0  0  0  2  0  0  0  0  0  0
  -29.4390  -12.6020   18.2040 C   0  0  0  0  0  2  0  0  0  0  0  0
  -27.9720  -12.4130   18.6330 C   0  0  0  0  0  2  0  0  0  0  0  0
  -27.5770  -13.3180   19.8300 C   0  0  0  0  0  3  0  0  0  0  0  0
  -28.6300  -13.2720   20.9570 C   0  0  0  0  0  2  0  0  0  0  0  0
  -29.9200  -13.6340   20.3580 N   0  0  0  0  0  0  0  0  0  0  0  0
  -31.7520  -14.9340   20.1560 O   0  0  0  0  0  0  0  0  0  0  0  0
  -31.3470  -17.7390   21.4660 C   0  0  0  0  0  3  0  0  0  0  0  0
  -30.8960  -20.1380   21.3550 C   0  0  0  0  0  3  0  0  0  0  0  0
  -31.7220  -19.0680   21.7530 C   0  0  0  0  0  0  0  0  0  0  0  0
  -30.1500  -17.4400   20.7750 C   0  0  0  0  0  3  0  0  0  0  0  0
  -29.6910  -19.9080   20.6560 C   0  0  0  0  0  0  0  0  0  0  0  0
  -29.3800  -18.5590   20.4070 N   0  0  0  0  0  0  0  0  0  0  0  0
  -29.7720  -16.0100   20.5590 N   0  0  0  0  0  0  0  0  0  0  0  0
  -28.5070  -18.3800   19.9020 H   0  0  0  0  0  0  0  0  0  0  0  0
  -28.7820  -15.8210   20.5390 H   0  0  0  0  0  0  0  0  0  0  0  0
  -25.1870  -13.8930   20.5600 C   0  0  0  0  0  0  0  0  0  0  0  0
  -24.1240  -13.1130   20.9230 C   0  0  0  0  0  0  0  0  0  0  0  0
  -24.5930  -11.7640   20.8890 C   0  0  0  0  0  0  0  0  0  0  0  0
  -26.2340  -13.0200   20.3200 N   0  0  0  0  0  0  0  0  0  0  0  0
  -25.8860  -11.7340   20.5820 N   0  0  0  0  0  0  0  0  0  0  0  0
  -23.8730  -10.4980   21.0690 C   0  0  0  0  0  0  0  0  0  0  0  0
  -24.3020   -9.5290   22.0020 C   0  0  0  0  0  3  0  0  0  0  0  0
  -23.5810   -8.3270   22.1720 C   0  0  0  0  0  3  0  0  0  0  0  0
  -22.4150   -8.0860   21.4080 C   0  0  0  0  0  0  0  0  0  0  0  0
  -22.0050   -9.0440   20.4630 C   0  0  0  0  0  3  0  0  0  0  0  0
  -22.7280  -10.2360   20.2920 C   0  0  0  0  0  3  0  0  0  0  0  0
  -21.6660   -6.9380   21.4860 O   0  0  0  0  0  0  0  0  0  0  0  0
  -21.6020   -6.1980   22.6390 C   0  0  0  0  0  0  0  0  0  0  0  0
  -21.1380   -6.7490   23.8540 C   0  0  0  0  0  3  0  0  0  0  0  0
  -21.0230   -5.9340   24.9970 C   0  0  0  0  0  3  0  0  0  0  0  0
  -21.3610   -4.5690   24.9280 C   0  0  0  0  0  0  0  0  0  0  0  0
  -21.8180   -4.0170   23.7180 C   0  0  0  0  0  3  0  0  0  0  0  0
  -21.9340   -4.8290   22.5760 C   0  0  0  0  0  0  0  0  0  0  0  0
  -22.3540   -4.2880   21.4080 F   0  0  0  0  0  0  0  0  0  0  0  0
  -21.2440   -3.7840   26.0250 F   0  0  0  0  0  0  0  0  0  0  0  0
  -22.7230  -13.5830   21.1880 C   0  0  0  0  0  0  0  0  0  0  0  0
  -21.9930  -12.8800   22.0470 N   0  0  0  0  0  0  0  0  0  0  0  0
  -22.2840  -14.6080   20.6700 O   0  0  0  0  0  0  0  0  0  0  0  0
  -22.3600  -12.0510   22.4910 H   0  0  0  0  0  0  0  0  0  0  0  0
  -21.0520  -13.1770   22.2660 H   0  0  0  0  0  0  0  0  0  0  0  0
  -25.3440  -15.2660   20.3880 N   0  0  0  0  0  0  0  0  0  0  0  0
  -24.5700  -15.9110   20.5010 H   0  0  0  0  0  0  0  0  0  0  0  0
  -26.1720  -15.7070   20.0100 H   0  0  0  0  0  0  0  0  0  0  0  0
  -32.9120  -19.3240   22.4410 N   0  0  0  0  0  0  0  0  0  0  0  0
  -33.6260  -18.6040   22.4250 H   0  0  0  0  0  0  0  0  0  0  0  0
  -33.3080  -20.2550   22.3650 H   0  0  0  0  0  0  0  0  0  0  0  0
  -28.8890  -21.0360   20.2060 N   0  0  0  0  0  0  0  0  0  0  0  0
  -28.1060  -20.8270   19.6050 H   0  0  0  0  0  0  0  0  0  0  0  0
  -28.7850  -22.3910   20.8990 C   0  0  0  0  0  2  0  0  0  0  0  0
  -28.6100  -23.7640   20.0800 C   0  0  0  0  0  0  0  0  0  0  0  0
  -28.9600  -23.8100   18.8950 O   0  0  0  0  0  0  0  0  0  0  0  0
  -27.9830  -25.0700   20.7810 C   0  0  0  0  0  2  0  0  0  0  0  0
  -28.2110  -26.4410   20.1930 O   0  0  0  0  0  0  0  0  0  0  0  0
  -24.5670  -31.9590   23.2460 C   0  0  0  0  0  0  0  0  0  0  0  0
  -27.1230  -27.3430   20.1890 C   0  0  0  0  0  0  0  0  0  0  0  0
  -23.3440  -30.5610   21.6220 C   0  0  0  0  0  3  0  0  0  0  0  0
  -24.7750  -28.9950   20.1860 C   0  0  0  0  0  0  0  0  0  0  0  0
  -25.8850  -30.8590   21.4130 C   0  0  0  0  0  2  0  0  0  0  0  0
  -25.9550  -29.4740   20.7710 C   0  0  0  0  0  0  0  0  0  0  0  0
  -27.1350  -28.6630   20.7550 C   0  0  0  0  0  3  0  0  0  0  0  0
  -25.9230  -26.9280   19.5780 C   0  0  0  0  0  3  0  0  0  0  0  0
  -24.7640  -27.7290   19.5770 C   0  0  0  0  0  3  0  0  0  0  0  0
  -23.5430  -29.8800   20.2410 C   0  0  0  0  0  2  0  0  0  0  0  0
  -24.6190  -31.1450   22.1500 N   0  0  0  0  0  0  0  0  0  0  0  0
  -23.4900  -32.2420   23.7910 O   0  0  0  0  0  0  0  0  0  0  0  0
  -22.6840  -29.5510   22.5930 C   0  0  0  0  0  0  0  0  0  0  0  0
  -21.3580  -29.3700   22.4730 N   0  0  0  0  0  0  0  0  0  0  0  0
  -23.3670  -28.9330   23.4140 O   0  0  0  0  0  0  0  0  0  0  0  0
  -20.8660  -29.9190   21.7810 H   0  0  0  0  0  0  0  0  0  0  0  0
  -17.9860  -28.1620   22.9900 C   0  0  0  0  0  0  0  0  0  0  0  0
  -20.5430  -28.4360   23.2530 C   0  0  0  0  0  3  0  0  0  0  0  0
  -20.6510  -27.0000   22.6890 C   0  0  0  0  0  2  0  0  0  0  0  0
  -19.5480  -26.6640   21.6790 C   0  0  0  0  0  2  0  0  0  0  0  0
  -18.1670  -26.8080   22.3250 C   0  0  0  0  0  2  0  0  0  0  0  0
  -19.1020  -28.9330   23.4110 C   0  0  0  0  0  0  0  0  0  0  0  0
  -18.8770  -30.1990   23.9940 C   0  0  0  0  0  3  0  0  0  0  0  0
  -17.5710  -30.6950   24.1590 C   0  0  0  0  0  3  0  0  0  0  0  0
  -16.4690  -29.9210   23.7530 C   0  0  0  0  0  3  0  0  0  0  0  0
  -16.6780  -28.6560   23.1740 C   0  0  0  0  0  3  0  0  0  0  0  0
  -25.8570  -32.5890   23.8550 C   0  0  0  0  0  3  0  0  0  0  0  0
  -26.3780  -31.8240   25.1330 C   0  0  1  0  0  0  0  0  0  0  0  0
  -25.2910  -31.6010   26.2110 C   0  0  0  0  0  1  0  0  0  0  0  0
  -26.9510  -30.4410   24.7480 C   0  0  0  0  0  1  0  0  0  0  0  0
  -27.5370  -32.6170   25.7820 C   0  0  0  0  0  1  0  0  0  0  0  0
  -25.5560  -33.9920   24.1800 N   0  0  0  0  0  0  0  0  0  0  0  0
  -25.8910  -35.0400   23.4170 C   0  0  0  0  0  0  0  0  0  0  0  0
  -26.5550  -34.9290   22.3830 O   0  0  0  0  0  0  0  0  0  0  0  0
  -24.9660  -34.1520   24.9840 H   0  0  0  0  0  0  0  0  0  0  0  0
  -24.1790  -36.8500   23.0600 C   0  0  0  0  0  1  0  0  0  0  0  0
  -25.4150  -36.4340   23.8730 C   0  0  0  0  0  3  0  0  0  0  0  0
  -27.5570  -37.3020   24.7050 C   0  0  0  0  0  1  0  0  0  0  0  0
  -26.4570  -37.4780   23.7610 N   0  0  0  0  0  0  0  0  0  0  0  0
  -26.0590  -38.4020   23.9080 H   0  0  0  0  0  0  0  0  0  0  0  0
  1 15  1  0
  2  7  1  0
  3  4  1  0
  3  2  1  0
  5  4  1  0
  5 21  1  0
  5  6  1  0
  7  1  1  0
  7  6  1  0
  8  1  2  0
  9 11  2  0
 10 11  1  0
 11 46  1  0
 12 15  1  0
 12  9  1  0
 13 10  2  0
 14 13  1  0
 14 12  1  0
 16 14  1  0
 17 15  1  0
 18 19  2  0
 19 38  1  0
 20 19  1  0
 20 23  1  0
 21 18  1  0
 21 22  1  0
 22 20  2  0
 23 24  1  0
 24 25  2  0
 26 29  1  0
 26 25  1  0
 27 26  2  0
 28 27  1  0
 28 23  2  0
 29 30  1  0
 30 31  1  0
 31 32  2  0
 33 32  1  0
 33 37  1  0
 34 33  2  0
 35 30  2  0
 35 34  1  0
 36 35  1  0
 38 39  1  0
 39 42  1  0
 39 41  1  0
 40 38  2  0
 43 44  1  0
 43 18  1  0
 45 43  1  0
 47 46  1  0
 48 46  1  0
 49 13  1  0
 49 51  1  0
 50 49  1  0
 52 54  1  0
 52 51  1  0
 53 52  2  0
 55 54  1  0
 56 67  2  0
 57 55  1  0
 57 62  1  0
 58 66  1  0
 58 68  1  0
 59 65  1  0
 59 61  1  0
 60 66  1  0
 61 60  1  0
 62 61  2  0
 63 57  2  0
 64 63  1  0
 64 59  2  0
 65 58  1  0
 66 56  1  0
 68 70  2  0
 69 68  1  0
 71 69  1  0
 72 81  2  0
 72 77  1  0
 73 69  1  0
 73 77  1  0
 74 73  1  0
 75 76  1  0
 75 74  1  0
 76 72  1  0
 77 78  2  0
 78 79  1  0
 80 79  2  0
 81 80  1  0
 82 56  1  0
 82 87  1  0
 82 83  1  0
 83 86  1  1
 83 84  1  0
 85 83  1  0
 87 90  1  0
 88 92  1  0
 88 87  1  0
 89 88  2  0
 92 91  1  0
 94 92  1  0
 94 95  1  0
 94 93  1  0
M  ISO  4   1 100  15 100  54 101  55 101
M  END
>  <TORSDO>  (64) 
F 20

>  <SCORE>  (64) 
-14.028

>  <name>  (64) 
63

>  <ligand_id>  (64) 
63

>  <original_smiles>  (64) 
[H]c1c([H])c([H])c2c(c1[H])C([H])([H])C([H])([H])C([H])([H])C2([H])N([H])C(=O)C1([H])N(C(=O)C([H])(N([H])C(=O)C([H])(N([H])C([H])([H])[H])C([H])([H])[H])C(C([H])([H])[H])(C([H])([H])[H])C([H])([H])[H])C([H])([H])c2c([H])c(OC([H])([H])C(=O)C([H])([H])N([H])c3c([H])c(N([H])[H])c([H])c(N([H])C(=O)N4C([H])([H])C([H])([H])C([H])([H])C([H])(n5nc(-c6c([H])c([H])c(Oc7c([H])c([H])c(F)c([H])c7F)c([H])c6[H])c(C(=O)N([H])[H])c5N([H])[H])C4([H])[H])[n+]3[H])c([H])c([H])c2C1([H])[H]

>  <smiles>  (64) 
[H]c1c([H])c([H])c2c(c1[H])C([H])([H])C([H])([H])C([H])([H])C2([H])N([H])C(=O)C1([H])N(C(=O)C([H])(N([H])C(=O)C([H])(N([H])C([H])([H])[H])C([H])([H])[H])C(C([H])([H])[H])(C([H])([H])[H])C([H])([H])[H])C([H])([H])c2c([H])c(OC([H])([H])C(=O)C([H])([H])N([H])c3c([H])c(N([H])[H])c([H])c(N([H])C(=O)N4C([H])([H])C([H])([H])C([H])([H])C([H])(n5nc(-c6c([H])c([H])c(Oc7c([H])c([H])c(F)c([H])c7F)c([H])c6[H])c(C(=O)N([H])[H])c5N([H])[H])C4([H])[H])[n+]3[H])c([H])c([H])c2C1([H])[H]

$$$$
64:0:0
     RDKit          3D

 97106  0  0  1  0  0  0  0  0999 V2000
  -29.9140  -21.1180   19.3340 C   0  0  0  0  0  3  0  0  0  0  0  0
  -28.8150  -23.3210   22.0800 C   0  0  0  0  0  2  0  0  0  0  0  0
  -29.4940  -22.0400   21.6030 C   0  0  0  0  0  2  0  0  0  0  0  0
  -29.1530  -23.5580   19.7440 C   0  0  0  0  0  3  0  0  0  0  0  0
  -29.2060  -24.3970   21.0530 C   0  0  2  0  0  0  0  0  0  0  0  0
  -29.9230  -24.2070   18.5700 C   0  0  0  0  0  1  0  0  0  0  0  0
  -30.6240  -24.9160   21.3850 C   0  0  0  0  0  1  0  0  0  0  0  0
  -29.5930  -22.1770   20.1350 N   0  0  0  0  0  0  0  0  0  0  0  0
  -30.1490  -21.3330   18.0440 N   0  0  0  0  0  0  0  0  0  0  0  0
  -30.3510  -20.5520   17.4410 H   0  0  0  0  0  0  0  0  0  0  0  0
  -30.2240  -22.2690   17.6820 H   0  0  0  0  0  0  0  0  0  0  0  0
  -28.8920  -19.0780   20.4010 C   0  0  0  0  0  3  0  0  0  0  0  0
  -31.1550  -18.9410   19.5390 C   0  0  0  0  0  3  0  0  0  0  0  0
  -28.9370  -17.7060   20.7390 C   0  0  0  0  0  3  0  0  0  0  0  0
  -31.1970  -17.5670   19.8710 C   0  0  0  0  0  3  0  0  0  0  0  0
  -29.9990  -19.7140   19.7970 C   0  0  0  0  0  0  0  0  0  0  0  0
  -30.0790  -16.9200   20.4620 C   0  0  0  0  0  0  0  0  0  0  0  0
  -30.7200  -14.4970   20.2510 C   0  0  0  0  0  0  0  0  0  0  0  0
  -30.3750  -12.3470   19.1080 C   0  0  0  0  0  2  0  0  0  0  0  0
  -29.3880  -12.5710   17.9410 C   0  0  0  0  0  2  0  0  0  0  0  0
  -27.9300  -12.4280   18.4240 C   0  0  0  0  0  2  0  0  0  0  0  0
  -27.6400  -13.2520   19.7070 C   0  0  0  0  0  3  0  0  0  0  0  0
  -28.7370  -13.0180   20.7720 C   0  0  0  0  0  2  0  0  0  0  0  0
  -30.0440  -13.3190   20.1610 N   0  0  0  0  0  0  0  0  0  0  0  0
  -31.8460  -14.6500   19.7760 O   0  0  0  0  0  0  0  0  0  0  0  0
  -30.0110  -15.5200   20.7700 N   0  0  0  0  0  0  0  0  0  0  0  0
  -29.1560  -15.2220   21.2110 H   0  0  0  0  0  0  0  0  0  0  0  0
  -25.2710  -13.8540   20.5180 C   0  0  0  0  0  0  0  0  0  0  0  0
  -24.2140  -13.0780   20.9120 C   0  0  0  0  0  0  0  0  0  0  0  0
  -24.6690  -11.7260   20.8370 C   0  0  0  0  0  0  0  0  0  0  0  0
  -26.3030  -12.9740   20.2320 N   0  0  0  0  0  0  0  0  0  0  0  0
  -25.9470  -11.6880   20.4810 N   0  0  0  0  0  0  0  0  0  0  0  0
  -23.9460  -10.4620   21.0250 C   0  0  0  0  0  0  0  0  0  0  0  0
  -24.3920   -9.4880   21.9460 C   0  0  0  0  0  3  0  0  0  0  0  0
  -23.6710   -8.2870   22.1230 C   0  0  0  0  0  3  0  0  0  0  0  0
  -22.4880   -8.0530   21.3820 C   0  0  0  0  0  0  0  0  0  0  0  0
  -22.0620   -9.0150   20.4490 C   0  0  0  0  0  3  0  0  0  0  0  0
  -22.7840  -10.2070   20.2700 C   0  0  0  0  0  3  0  0  0  0  0  0
  -21.7370   -6.9060   21.4710 O   0  0  0  0  0  0  0  0  0  0  0  0
  -21.6820   -6.1700   22.6270 C   0  0  0  0  0  0  0  0  0  0  0  0
  -21.2080   -6.7190   23.8380 C   0  0  0  0  0  3  0  0  0  0  0  0
  -21.1030   -5.9060   24.9860 C   0  0  0  0  0  3  0  0  0  0  0  0
  -21.4590   -4.5450   24.9210 C   0  0  0  0  0  0  0  0  0  0  0  0
  -21.9240   -3.9960   23.7130 C   0  0  0  0  0  3  0  0  0  0  0  0
  -22.0310   -4.8060   22.5690 C   0  0  0  0  0  0  0  0  0  0  0  0
  -22.4590   -4.2650   21.4020 F   0  0  0  0  0  0  0  0  0  0  0  0
  -21.3510   -3.7630   26.0210 F   0  0  0  0  0  0  0  0  0  0  0  0
  -22.8290  -13.5520   21.2450 C   0  0  0  0  0  0  0  0  0  0  0  0
  -22.1260  -12.8340   22.1150 N   0  0  0  0  0  0  0  0  0  0  0  0
  -22.3770  -14.5930   20.7690 O   0  0  0  0  0  0  0  0  0  0  0  0
  -22.5040  -11.9920   22.5220 H   0  0  0  0  0  0  0  0  0  0  0  0
  -21.1980  -13.1320   22.3780 H   0  0  0  0  0  0  0  0  0  0  0  0
  -25.4360  -15.2270   20.3610 N   0  0  0  0  0  0  0  0  0  0  0  0
  -24.6730  -15.8800   20.4990 H   0  0  0  0  0  0  0  0  0  0  0  0
  -26.2590  -15.6620   19.9630 H   0  0  0  0  0  0  0  0  0  0  0  0
  -28.1670  -25.5560   21.1130 C   0  0  0  0  0  2  0  0  0  0  0  0
  -28.3540  -26.6660   20.2160 O   0  0  0  0  0  0  0  0  0  0  0  0
  -24.5680  -31.8690   23.2340 C   0  0  0  0  0  0  0  0  0  0  0  0
  -27.2260  -27.4530   20.1510 C   0  0  0  0  0  0  0  0  0  0  0  0
  -23.3660  -30.4750   21.5820 C   0  0  0  0  0  3  0  0  0  0  0  0
  -24.8270  -28.9490   20.1470 C   0  0  0  0  0  0  0  0  0  0  0  0
  -25.8900  -30.8460   21.3840 C   0  0  0  0  0  2  0  0  0  0  0  0
  -25.9830  -29.4780   20.7400 C   0  0  0  0  0  0  0  0  0  0  0  0
  -27.1880  -28.7380   20.7380 C   0  0  0  0  0  3  0  0  0  0  0  0
  -26.0610  -26.9460   19.5360 C   0  0  0  0  0  3  0  0  0  0  0  0
  -24.8620  -27.6830   19.5390 C   0  0  0  0  0  3  0  0  0  0  0  0
  -23.5760  -29.8020   20.1990 C   0  0  0  0  0  2  0  0  0  0  0  0
  -24.6260  -31.0780   22.1260 N   0  0  0  0  0  0  0  0  0  0  0  0
  -23.4870  -32.1360   23.7760 O   0  0  0  0  0  0  0  0  0  0  0  0
  -22.7160  -29.4470   22.5370 C   0  0  0  0  0  0  0  0  0  0  0  0
  -21.3910  -29.2680   22.4110 N   0  0  0  0  0  0  0  0  0  0  0  0
  -23.4010  -28.8160   23.3440 O   0  0  0  0  0  0  0  0  0  0  0  0
  -20.8970  -29.8270   21.7300 H   0  0  0  0  0  0  0  0  0  0  0  0
  -18.0130  -28.0930   22.9240 C   0  0  0  0  0  0  0  0  0  0  0  0
  -20.5760  -28.3260   23.1790 C   0  0  0  0  0  3  0  0  0  0  0  0
  -20.6630  -26.9020   22.5850 C   0  0  0  0  0  2  0  0  0  0  0  0
  -19.5500  -26.6030   21.5760 C   0  0  0  0  0  2  0  0  0  0  0  0
  -18.1730  -26.7520   22.2300 C   0  0  0  0  0  2  0  0  0  0  0  0
  -19.1410  -28.8400   23.3550 C   0  0  0  0  0  0  0  0  0  0  0  0
  -18.9380  -30.1000   23.9580 C   0  0  0  0  0  3  0  0  0  0  0  0
  -17.6390  -30.6110   24.1410 C   0  0  0  0  0  3  0  0  0  0  0  0
  -16.5240  -29.8610   23.7250 C   0  0  0  0  0  3  0  0  0  0  0  0
  -16.7130  -28.6050   23.1210 C   0  0  0  0  0  3  0  0  0  0  0  0
  -25.8530  -32.4990   23.8560 C   0  0  0  0  0  3  0  0  0  0  0  0
  -25.5450  -33.8990   24.1800 N   0  0  0  0  0  0  0  0  0  0  0  0
  -25.8900  -34.9470   23.4230 C   0  0  0  0  0  0  0  0  0  0  0  0
  -26.5700  -34.8400   22.3990 O   0  0  0  0  0  0  0  0  0  0  0  0
  -24.9400  -34.0550   24.9740 H   0  0  0  0  0  0  0  0  0  0  0  0
  -24.1830  -36.7500   23.0300 C   0  0  0  0  0  1  0  0  0  0  0  0
  -25.4010  -36.3370   23.8710 C   0  0  0  0  0  3  0  0  0  0  0  0
  -27.5180  -37.2090   24.7580 C   0  0  0  0  0  1  0  0  0  0  0  0
  -26.4440  -37.3820   23.7840 N   0  0  0  0  0  0  0  0  0  0  0  0
  -26.0400  -38.3050   23.9180 H   0  0  0  0  0  0  0  0  0  0  0  0
  -26.3660  -31.7270   25.1330 C   0  0  1  0  0  0  0  0  0  0  0  0
  -25.2700  -31.4890   26.1950 C   0  0  0  0  0  1  0  0  0  0  0  0
  -26.9500  -30.3510   24.7390 C   0  0  0  0  0  1  0  0  0  0  0  0
  -27.5110  -32.5230   25.8010 C   0  0  0  0  0  1  0  0  0  0  0  0
  1  9  1  0
  1 16  1  0
  1  8  1  0
  3  2  1  0
  4  6  1  0
  4  8  1  0
  4  5  1  0
  5 56  1  0
  5  7  1  1
  5  2  1  0
  8  3  1  0
 10  9  1  0
 11  9  1  0
 12 14  1  0
 13 16  1  0
 13 15  2  0
 15 17  1  0
 16 12  2  0
 17 14  2  0
 17 26  1  0
 18 26  1  0
 19 24  1  0
 20 21  1  0
 20 19  1  0
 22 21  1  0
 22 31  1  0
 22 23  1  0
 24 18  1  0
 24 23  1  0
 25 18  2  0
 26 27  1  0
 28 29  2  0
 29 48  1  0
 30 29  1  0
 30 33  1  0
 31 32  1  0
 31 28  1  0
 32 30  2  0
 33 34  1  0
 34 35  2  0
 36 39  1  0
 36 35  1  0
 37 36  2  0
 38 37  1  0
 38 33  2  0
 39 40  1  0
 40 41  1  0
 41 42  2  0
 43 42  1  0
 43 47  1  0
 44 43  2  0
 45 40  2  0
 45 44  1  0
 46 45  1  0
 48 49  1  0
 49 52  1  0
 49 51  1  0
 50 48  2  0
 53 54  1  0
 53 28  1  0
 55 53  1  0
 57 56  1  0
 58 69  2  0
 59 57  1  0
 59 64  1  0
 60 68  1  0
 60 70  1  0
 61 67  1  0
 61 63  1  0
 62 68  1  0
 63 62  1  0
 64 63  2  0
 65 66  1  0
 65 59  2  0
 66 61  2  0
 67 60  1  0
 68 58  1  0
 70 72  2  0
 71 70  1  0
 73 71  1  0
 74 83  2  0
 74 79  1  0
 75 71  1  0
 75 79  1  0
 76 75  1  0
 77 78  1  0
 77 76  1  0
 78 74  1  0
 79 80  2  0
 80 81  1  0
 82 81  2  0
 83 82  1  0
 84 58  1  0
 84 85  1  0
 84 94  1  0
 85 88  1  0
 86 90  1  0
 86 85  1  0
 87 86  2  0
 90 89  1  0
 92 90  1  0
 92 93  1  0
 92 91  1  0
 94 97  1  1
 94 95  1  0
 96 94  1  0
M  ISO  4  18 100  26 100  56 101  57 101
M  END
>  <TORSDO>  (65) 
F 18

>  <SCORE>  (65) 
-14.982

>  <name>  (65) 
64

>  <ligand_id>  (65) 
64

>  <original_smiles>  (65) 
[H]c1c([H])c([H])c2c(c1[H])C([H])([H])C([H])([H])C([H])([H])C2([H])N([H])C(=O)C1([H])N(C(=O)C([H])(N([H])C(=O)C([H])(N([H])C([H])([H])[H])C([H])([H])[H])C(C([H])([H])[H])(C([H])([H])[H])C([H])([H])[H])C([H])([H])c2c([H])c(OC([H])([H])C3(C([H])([H])[H])C([H])([H])C([H])([H])N(C(c4c([H])c([H])c(N([H])C(=O)N5C([H])([H])C([H])([H])C([H])([H])C([H])(n6nc(-c7c([H])c([H])c(Oc8c([H])c([H])c(F)c([H])c8F)c([H])c7[H])c(C(=O)N([H])[H])c6N([H])[H])C5([H])[H])c([H])c4[H])=[N+]([H])[H])C3([H])C([H])([H])[H])c([H])c([H])c2C1([H])[H]

>  <smiles>  (65) 
[H]c1c([H])c([H])c2c(c1[H])C([H])([H])C([H])([H])C([H])([H])C2([H])N([H])C(=O)C1([H])N(C(=O)C([H])(N([H])C(=O)C([H])(N([H])C([H])([H])[H])C([H])([H])[H])C(C([H])([H])[H])(C([H])([H])[H])C([H])([H])[H])C([H])([H])c2c([H])c(OC([H])([H])C3(C([H])([H])[H])C([H])([H])C([H])([H])N(C(c4c([H])c([H])c(N([H])C(=O)N5C([H])([H])C([H])([H])C([H])([H])C([H])(n6nc(-c7c([H])c([H])c(Oc8c([H])c([H])c(F)c([H])c8F)c([H])c7[H])c(C(=O)N([H])[H])c6N([H])[H])C5([H])[H])c([H])c4[H])=[N+]([H])[H])C3([H])C([H])([H])[H])c([H])c([H])c2C1([H])[H]

$$$$
65:0:0
     RDKit          3D

 92101  0  0  1  0  0  0  0  0999 V2000
  -30.0440  -21.2020   19.7470 N   0  0  0  0  0  0  0  0  0  0  0  0
  -30.3140  -21.3680   18.7790 H   0  0  0  0  0  0  0  0  0  0  0  0
  -30.9880  -14.7820   19.6980 C   0  0  0  0  0  0  0  0  0  0  0  0
  -30.6490  -12.6130   18.4600 C   0  0  0  0  0  2  0  0  0  0  0  0
  -29.5210  -12.7640   17.4090 C   0  0  0  0  0  2  0  0  0  0  0  0
  -28.1200  -12.5750   18.0320 C   0  0  0  0  0  2  0  0  0  0  0  0
  -27.9610  -13.3290   19.3760 C   0  0  0  0  0  3  0  0  0  0  0  0
  -29.1720  -13.0380   20.2800 C   0  0  0  0  0  2  0  0  0  0  0  0
  -30.3690  -13.5430   19.5860 N   0  0  0  0  0  0  0  0  0  0  0  0
  -32.0090  -14.9980   19.0300 O   0  0  0  0  0  0  0  0  0  0  0  0
  -30.2080  -17.8660   21.5220 C   0  0  0  0  0  0  0  0  0  0  0  0
  -30.0470  -19.3030   21.4770 C   0  0  0  0  0  0  0  0  0  0  0  0
  -30.3730  -17.1900   20.3520 C   0  0  0  0  0  0  0  0  0  0  0  0
  -30.1040  -19.8190   20.1930 C   0  0  0  0  0  0  0  0  0  0  0  0
  -30.2200  -16.9040   22.6440 C   0  0  0  0  0  2  0  0  0  0  0  0
  -30.0920  -15.5540   21.9030 C   0  0  0  0  0  2  0  0  0  0  0  0
  -29.8630  -20.1160   22.7240 C   0  0  0  0  0  1  0  0  0  0  0  0
  -30.4080  -15.7930   20.4750 N   0  0  0  0  0  0  0  0  0  0  0  0
  -30.3820  -18.4240   19.0640 S   0  0  0  0  0  0  0  0  0  0  0  0
  -25.7310  -13.8850   20.5240 C   0  0  0  0  0  0  0  0  0  0  0  0
  -24.7110  -13.0940   20.9770 C   0  0  0  0  0  0  0  0  0  0  0  0
  -25.1190  -11.7460   20.7350 C   0  0  0  0  0  0  0  0  0  0  0  0
  -26.6960  -13.0170   20.0340 N   0  0  0  0  0  0  0  0  0  0  0  0
  -26.3400  -11.7190   20.2160 N   0  0  0  0  0  0  0  0  0  0  0  0
  -24.3910  -10.4820   20.9120 C   0  0  0  0  0  0  0  0  0  0  0  0
  -24.8400   -9.4940   21.8160 C   0  0  0  0  0  3  0  0  0  0  0  0
  -24.1130   -8.2950   21.9840 C   0  0  0  0  0  3  0  0  0  0  0  0
  -22.9240   -8.0770   21.2480 C   0  0  0  0  0  0  0  0  0  0  0  0
  -22.4940   -9.0550   20.3340 C   0  0  0  0  0  3  0  0  0  0  0  0
  -23.2210  -10.2450   20.1640 C   0  0  0  0  0  3  0  0  0  0  0  0
  -22.1680   -6.9310   21.3250 O   0  0  0  0  0  0  0  0  0  0  0  0
  -22.0160   -6.2490   22.5040 C   0  0  0  0  0  0  0  0  0  0  0  0
  -21.4830   -6.8640   23.6570 C   0  0  0  0  0  3  0  0  0  0  0  0
  -21.2760   -6.1080   24.8280 C   0  0  0  0  0  3  0  0  0  0  0  0
  -21.5930   -4.7360   24.8460 C   0  0  0  0  0  0  0  0  0  0  0  0
  -22.1190   -4.1200   23.6960 C   0  0  0  0  0  3  0  0  0  0  0  0
  -22.3280   -4.8740   22.5290 C   0  0  0  0  0  0  0  0  0  0  0  0
  -22.8140   -4.2710   21.4180 F   0  0  0  0  0  0  0  0  0  0  0  0
  -21.3870   -4.0070   25.9680 F   0  0  0  0  0  0  0  0  0  0  0  0
  -23.3930  -13.5620   21.5220 C   0  0  0  0  0  0  0  0  0  0  0  0
  -22.8140  -12.8140   22.4550 N   0  0  0  0  0  0  0  0  0  0  0  0
  -22.8910  -14.6240   21.1550 O   0  0  0  0  0  0  0  0  0  0  0  0
  -23.2370  -11.9550   22.7720 H   0  0  0  0  0  0  0  0  0  0  0  0
  -21.9370  -13.1100   22.8610 H   0  0  0  0  0  0  0  0  0  0  0  0
  -25.9100  -15.2640   20.4680 N   0  0  0  0  0  0  0  0  0  0  0  0
  -25.1940  -15.9130   20.7740 H   0  0  0  0  0  0  0  0  0  0  0  0
  -26.7240  -15.7250   20.0790 H   0  0  0  0  0  0  0  0  0  0  0  0
  -29.1460  -22.2980   20.3000 C   0  0  0  0  0  2  0  0  0  0  0  0
  -29.5340  -23.8470   20.1420 C   0  0  0  0  0  0  0  0  0  0  0  0
  -30.7160  -24.1680   19.9740 O   0  0  0  0  0  0  0  0  0  0  0  0
  -28.3920  -24.9610   20.1630 C   0  0  0  0  0  2  0  0  0  0  0  0
  -28.7360  -26.4200   20.3000 O   0  0  0  0  0  0  0  0  0  0  0  0
  -24.9880  -31.7940   23.4660 C   0  0  0  0  0  0  0  0  0  0  0  0
  -27.6510  -27.3290   20.2660 C   0  0  0  0  0  0  0  0  0  0  0  0
  -23.8270  -30.4890   21.7250 C   0  0  0  0  0  3  0  0  0  0  0  0
  -25.3100  -28.9990   20.2700 C   0  0  0  0  0  0  0  0  0  0  0  0
  -26.3810  -30.7760   21.6460 C   0  0  0  0  0  2  0  0  0  0  0  0
  -26.4680  -29.4310   20.9270 C   0  0  0  0  0  0  0  0  0  0  0  0
  -27.6430  -28.6100   20.9140 C   0  0  0  0  0  3  0  0  0  0  0  0
  -26.4630  -26.9700   19.5820 C   0  0  0  0  0  3  0  0  0  0  0  0
  -25.3130  -27.7760   19.5880 C   0  0  0  0  0  3  0  0  0  0  0  0
  -24.0820  -29.8850   20.3210 C   0  0  0  0  0  2  0  0  0  0  0  0
  -25.0820  -31.0350   22.3350 N   0  0  0  0  0  0  0  0  0  0  0  0
  -23.8900  -32.0590   23.9760 O   0  0  0  0  0  0  0  0  0  0  0  0
  -23.1220  -29.4340   22.6120 C   0  0  0  0  0  0  0  0  0  0  0  0
  -21.7970  -29.2860   22.4430 N   0  0  0  0  0  0  0  0  0  0  0  0
  -23.7680  -28.7540   23.4120 O   0  0  0  0  0  0  0  0  0  0  0  0
  -21.3340  -29.8850   21.7740 H   0  0  0  0  0  0  0  0  0  0  0  0
  -18.3860  -28.1300   22.8060 C   0  0  0  0  0  0  0  0  0  0  0  0
  -20.9430  -28.3250   23.1440 C   0  0  0  0  0  3  0  0  0  0  0  0
  -21.0300  -26.9240   22.4940 C   0  0  0  0  0  2  0  0  0  0  0  0
  -19.9450  -26.6790   21.4390 C   0  0  0  0  0  2  0  0  0  0  0  0
  -18.5530  -26.8160   22.0610 C   0  0  0  0  0  2  0  0  0  0  0  0
  -19.5090  -28.8450   23.3010 C   0  0  0  0  0  0  0  0  0  0  0  0
  -19.2990  -30.0780   23.9570 C   0  0  0  0  0  3  0  0  0  0  0  0
  -18.0000  -30.5940   24.1240 C   0  0  0  0  0  3  0  0  0  0  0  0
  -16.8910  -29.8750   23.6450 C   0  0  0  0  0  3  0  0  0  0  0  0
  -17.0850  -28.6440   22.9930 C   0  0  0  0  0  3  0  0  0  0  0  0
  -26.2540  -32.3840   24.1590 C   0  0  0  0  0  3  0  0  0  0  0  0
  -26.7870  -31.4880   25.3440 C   0  0  1  0  0  0  0  0  0  0  0  0
  -25.6940  -31.0920   26.3630 C   0  0  0  0  0  1  0  0  0  0  0  0
  -27.4250  -30.1850   24.8080 C   0  0  0  0  0  1  0  0  0  0  0  0
  -27.9010  -32.2430   26.1080 C   0  0  0  0  0  1  0  0  0  0  0  0
  -25.9110  -33.7290   24.6420 N   0  0  0  0  0  0  0  0  0  0  0  0
  -26.2260  -34.8680   24.0130 C   0  0  0  0  0  0  0  0  0  0  0  0
  -26.9030  -34.8980   22.9820 O   0  0  0  0  0  0  0  0  0  0  0  0
  -25.3090  -33.7770   25.4510 H   0  0  0  0  0  0  0  0  0  0  0  0
  -24.4670  -36.6600   23.8470 C   0  0  0  0  0  1  0  0  0  0  0  0
  -25.7070  -36.1850   24.6220 C   0  0  0  0  0  3  0  0  0  0  0  0
  -27.8140  -37.0030   25.5800 C   0  0  0  0  0  1  0  0  0  0  0  0
  -26.7200  -37.2620   24.6490 N   0  0  0  0  0  0  0  0  0  0  0  0
  -26.2950  -38.1510   24.8980 H   0  0  0  0  0  0  0  0  0  0  0  0
  1 14  1  0
  1 48  1  0
  2  1  1  0
  3 18  1  0
  4  9  1  0
  5  6  1  0
  5  4  1  0
  7  6  1  0
  7 23  1  0
  7  8  1  0
  9  3  1  0
  9  8  1  0
 10  3  2  0
 11 15  1  0
 12 11  1  0
 12 17  1  0
 13 18  1  0
 13 11  2  0
 14 12  2  0
 16 15  1  0
 18 16  1  0
 19 14  1  0
 19 13  1  0
 20 21  2  0
 21 40  1  0
 22 25  1  0
 22 21  1  0
 23 24  1  0
 23 20  1  0
 24 22  2  0
 25 26  1  0
 26 27  2  0
 28 31  1  0
 28 27  1  0
 29 28  2  0
 30 29  1  0
 30 25  2  0
 31 32  1  0
 32 37  2  0
 32 33  1  0
 33 34  2  0
 34 35  1  0
 35 39  1  0
 36 35  2  0
 37 36  1  0
 38 37  1  0
 40 41  1  0
 41 43  1  0
 41 44  1  0
 42 40  2  0
 45 20  1  0
 45 46  1  0
 47 45  1  0
 49 51  1  0
 49 48  1  0
 50 49  2  0
 51 52  1  0
 53 64  2  0
 54 52  1  0
 54 59  1  0
 55 63  1  0
 55 65  1  0
 56 62  1  0
 56 58  1  0
 57 63  1  0
 58 57  1  0
 59 58  2  0
 60 61  1  0
 60 54  2  0
 61 56  2  0
 62 55  1  0
 63 53  1  0
 65 67  2  0
 66 65  1  0
 68 66  1  0
 69 78  2  0
 69 74  1  0
 70 66  1  0
 70 74  1  0
 71 70  1  0
 72 73  1  0
 72 71  1  0
 73 69  1  0
 74 75  2  0
 75 76  1  0
 77 76  2  0
 78 77  1  0
 79 53  1  0
 79 84  1  0
 79 80  1  0
 80 83  1  1
 80 81  1  0
 82 80  1  0
 84 87  1  0
 85 89  1  0
 85 84  1  0
 86 85  2  0
 89 88  1  0
 89 91  1  0
 91 92  1  0
 91 90  1  0
M  ISO  4   3 100  18 100  51 101  52 101
M  END
>  <TORSDO>  (66) 
F 19

>  <SCORE>  (66) 
-10.625

>  <name>  (66) 
65

>  <ligand_id>  (66) 
65

>  <original_smiles>  (66) 
[H]c1c([H])c([H])c2c(c1[H])C([H])([H])C([H])([H])C([H])([H])C2([H])N([H])C(=O)C1([H])N(C(=O)C([H])(N([H])C(=O)C([H])(N([H])C([H])([H])[H])C([H])([H])[H])C(C([H])([H])[H])(C([H])([H])[H])C([H])([H])[H])C([H])([H])c2c([H])c(OC([H])([H])C(=O)C([H])([H])N([H])c3sc4c(c3C([H])([H])[H])C([H])([H])C([H])([H])N4C(=O)N3C([H])([H])C([H])([H])C([H])([H])C([H])(n4nc(-c5c([H])c([H])c(Oc6c([H])c([H])c(F)c([H])c6F)c([H])c5[H])c(C(=O)N([H])[H])c4N([H])[H])C3([H])[H])c([H])c([H])c2C1([H])[H]

>  <smiles>  (66) 
[H]c1c([H])c([H])c2c(c1[H])C([H])([H])C([H])([H])C([H])([H])C2([H])N([H])C(=O)C1([H])N(C(=O)C([H])(N([H])C(=O)C([H])(N([H])C([H])([H])[H])C([H])([H])[H])C(C([H])([H])[H])(C([H])([H])[H])C([H])([H])[H])C([H])([H])c2c([H])c(OC([H])([H])C(=O)C([H])([H])N([H])c3sc4c(c3C([H])([H])[H])C([H])([H])C([H])([H])N4C(=O)N3C([H])([H])C([H])([H])C([H])([H])C([H])(n4nc(-c5c([H])c([H])c(Oc6c([H])c([H])c(F)c([H])c6F)c([H])c5[H])c(C(=O)N([H])[H])c4N([H])[H])C3([H])[H])c([H])c([H])c2C1([H])[H]

$$$$
66:0:0
     RDKit          3D

 97106  0  0  1  0  0  0  0  0999 V2000
  -28.0870  -24.1110   21.4610 C   0  0  0  0  0  2  0  0  0  0  0  0
  -28.1450  -22.6160   21.8220 C   0  0  0  0  0  2  0  0  0  0  0  0
  -29.2020  -22.9680   19.7270 C   0  0  0  0  0  2  0  0  0  0  0  0
  -28.1910  -24.1450   19.9400 C   0  0  1  0  0  0  0  0  0  0  0  0
  -28.8570  -21.9050   20.7220 N   0  0  1  0  0  4  0  0  0  0  0  0
  -28.1570  -21.3110   20.3040 H   0  0  0  0  0  0  0  0  0  0  0  0
  -26.7480  -23.4090   18.0960 C   0  0  0  0  0  1  0  0  0  0  0  0
  -26.8850  -23.7800   19.4670 O   0  0  0  0  0  0  0  0  0  0  0  0
  -29.9650  -21.0000   21.1910 C   0  0  0  0  0  2  0  0  0  0  0  0
  -30.7560  -19.1940   19.4740 C   0  0  0  0  0  3  0  0  0  0  0  0
  -30.8620  -17.7660   19.3330 C   0  0  0  0  0  0  0  0  0  0  0  0
  -30.0830  -19.5970   20.5990 C   0  0  0  0  0  0  0  0  0  0  0  0
  -30.2690  -17.0380   20.3480 C   0  0  0  0  0  0  0  0  0  0  0  0
  -29.5060  -18.1750   21.4610 S   0  0  0  0  0  0  0  0  0  0  0  0
  -30.8720  -14.6380   20.0680 C   0  0  0  0  0  0  0  0  0  0  0  0
  -30.5830  -12.4250   19.0090 C   0  0  0  0  0  2  0  0  0  0  0  0
  -29.6020  -12.5820   17.8280 C   0  0  0  0  0  2  0  0  0  0  0  0
  -28.1440  -12.4340   18.3050 C   0  0  0  0  0  2  0  0  0  0  0  0
  -27.8360  -13.2940   19.5610 C   0  0  0  0  0  3  0  0  0  0  0  0
  -28.9290  -13.1210   20.6400 C   0  0  0  0  0  2  0  0  0  0  0  0
  -30.2280  -13.4350   20.0220 N   0  0  0  0  0  0  0  0  0  0  0  0
  -32.0040  -14.7880   19.5980 O   0  0  0  0  0  0  0  0  0  0  0  0
  -30.1450  -15.6800   20.5500 N   0  0  0  0  0  0  0  0  0  0  0  0
  -29.3260  -15.4010   21.0680 H   0  0  0  0  0  0  0  0  0  0  0  0
  -25.4700  -13.8990   20.3690 C   0  0  0  0  0  0  0  0  0  0  0  0
  -24.4120  -13.1260   20.7680 C   0  0  0  0  0  0  0  0  0  0  0  0
  -24.8660  -11.7730   20.7050 C   0  0  0  0  0  0  0  0  0  0  0  0
  -26.5020  -13.0170   20.0890 N   0  0  0  0  0  0  0  0  0  0  0  0
  -26.1440  -11.7330   20.3490 N   0  0  0  0  0  0  0  0  0  0  0  0
  -24.1400  -10.5120   20.9030 C   0  0  0  0  0  0  0  0  0  0  0  0
  -24.5530   -9.5680   21.8700 C   0  0  0  0  0  3  0  0  0  0  0  0
  -23.8290   -8.3710   22.0560 C   0  0  0  0  0  3  0  0  0  0  0  0
  -22.6790   -8.1090   21.2750 C   0  0  0  0  0  0  0  0  0  0  0  0
  -22.2860   -9.0400   20.2960 C   0  0  0  0  0  3  0  0  0  0  0  0
  -23.0100  -10.2300   20.1100 C   0  0  0  0  0  3  0  0  0  0  0  0
  -21.9270   -6.9640   21.3700 O   0  0  0  0  0  0  0  0  0  0  0  0
  -21.7830   -6.2900   22.5570 C   0  0  0  0  0  0  0  0  0  0  0  0
  -21.2340   -6.9090   23.7010 C   0  0  0  0  0  3  0  0  0  0  0  0
  -21.0440   -6.1620   24.8810 C   0  0  0  0  0  3  0  0  0  0  0  0
  -21.3870   -4.7970   24.9140 C   0  0  0  0  0  0  0  0  0  0  0  0
  -21.9260   -4.1790   23.7730 C   0  0  0  0  0  3  0  0  0  0  0  0
  -22.1200   -4.9220   22.5960 C   0  0  0  0  0  0  0  0  0  0  0  0
  -22.6200   -4.3170   21.4930 F   0  0  0  0  0  0  0  0  0  0  0  0
  -21.1940   -4.0770   26.0440 F   0  0  0  0  0  0  0  0  0  0  0  0
  -23.0290  -13.6070   21.0990 C   0  0  0  0  0  0  0  0  0  0  0  0
  -22.3250  -12.9010   21.9790 N   0  0  0  0  0  0  0  0  0  0  0  0
  -22.5800  -14.6420   20.6100 O   0  0  0  0  0  0  0  0  0  0  0  0
  -22.6960  -12.0620   22.3960 H   0  0  0  0  0  0  0  0  0  0  0  0
  -21.3970  -13.2080   22.2330 H   0  0  0  0  0  0  0  0  0  0  0  0
  -25.6340  -15.2690   20.2000 N   0  0  0  0  0  0  0  0  0  0  0  0
  -24.8650  -15.9190   20.3210 H   0  0  0  0  0  0  0  0  0  0  0  0
  -26.4650  -15.7080   19.8220 H   0  0  0  0  0  0  0  0  0  0  0  0
  -31.5240  -17.2290   18.2250 N   0  0  0  0  0  0  0  0  0  0  0  0
  -32.2210  -17.8200   17.7860 H   0  0  0  0  0  0  0  0  0  0  0  0
  -31.8860  -16.2880   18.3950 H   0  0  0  0  0  0  0  0  0  0  0  0
  -28.6060  -25.5610   19.3670 C   0  0  0  0  0  2  0  0  0  0  0  0
  -28.3580  -26.7550   20.1530 O   0  0  0  0  0  0  0  0  0  0  0  0
  -24.5530  -31.9110   23.2540 C   0  0  0  0  0  0  0  0  0  0  0  0
  -27.1680  -27.4690   20.1060 C   0  0  0  0  0  0  0  0  0  0  0  0
  -23.3290  -30.5240   21.6100 C   0  0  0  0  0  3  0  0  0  0  0  0
  -24.7660  -28.9960   20.1500 C   0  0  0  0  0  0  0  0  0  0  0  0
  -25.8550  -30.8730   21.3930 C   0  0  0  0  0  2  0  0  0  0  0  0
  -25.9280  -29.5060   20.7400 C   0  0  0  0  0  0  0  0  0  0  0  0
  -27.1240  -28.7490   20.7180 C   0  0  0  0  0  3  0  0  0  0  0  0
  -25.9880  -26.9830   19.5020 C   0  0  0  0  0  3  0  0  0  0  0  0
  -24.7930  -27.7340   19.5270 C   0  0  0  0  0  3  0  0  0  0  0  0
  -23.5220  -29.8560   20.2210 C   0  0  0  0  0  2  0  0  0  0  0  0
  -24.5980  -31.1210   22.1440 N   0  0  0  0  0  0  0  0  0  0  0  0
  -23.4780  -32.1760   23.8110 O   0  0  0  0  0  0  0  0  0  0  0  0
  -22.6870  -29.4970   22.5700 C   0  0  0  0  0  0  0  0  0  0  0  0
  -21.3640  -29.3020   22.4440 N   0  0  0  0  0  0  0  0  0  0  0  0
  -23.3770  -28.8790   23.3850 O   0  0  0  0  0  0  0  0  0  0  0  0
  -20.8670  -29.8540   21.7600 H   0  0  0  0  0  0  0  0  0  0  0  0
  -18.0080  -28.0470   22.9190 C   0  0  0  0  0  0  0  0  0  0  0  0
  -20.5590  -28.3520   23.2100 C   0  0  0  0  0  3  0  0  0  0  0  0
  -20.6900  -26.9200   22.6420 C   0  0  0  0  0  2  0  0  0  0  0  0
  -19.6030  -26.5740   21.6190 C   0  0  0  0  0  2  0  0  0  0  0  0
  -18.2140  -26.6980   22.2500 C   0  0  0  0  0  2  0  0  0  0  0  0
  -19.1100  -28.8300   23.3560 C   0  0  0  0  0  0  0  0  0  0  0  0
  -18.8640  -30.0920   23.9380 C   0  0  0  0  0  3  0  0  0  0  0  0
  -17.5490  -30.5720   24.0910 C   0  0  0  0  0  3  0  0  0  0  0  0
  -16.4620  -29.7850   23.6730 C   0  0  0  0  0  3  0  0  0  0  0  0
  -16.6920  -28.5250   23.0910 C   0  0  0  0  0  3  0  0  0  0  0  0
  -25.8450  -32.5380   23.8660 C   0  0  0  0  0  3  0  0  0  0  0  0
  -25.5470  -33.9410   24.1900 N   0  0  0  0  0  0  0  0  0  0  0  0
  -25.8930  -34.9880   23.4290 C   0  0  0  0  0  0  0  0  0  0  0  0
  -26.5690  -34.8760   22.4030 O   0  0  0  0  0  0  0  0  0  0  0  0
  -24.9480  -34.1050   24.9850 H   0  0  0  0  0  0  0  0  0  0  0  0
  -24.1890  -36.8000   23.0520 C   0  0  0  0  0  1  0  0  0  0  0  0
  -25.4140  -36.3820   23.8800 C   0  0  0  0  0  3  0  0  0  0  0  0
  -27.5480  -37.2490   24.7350 C   0  0  0  0  0  1  0  0  0  0  0  0
  -26.4590  -37.4240   23.7770 N   0  0  0  0  0  0  0  0  0  0  0  0
  -26.0610  -38.3490   23.9140 H   0  0  0  0  0  0  0  0  0  0  0  0
  -26.3650  -31.7690   25.1420 C   0  0  1  0  0  0  0  0  0  0  0  0
  -25.2780  -31.5390   26.2170 C   0  0  0  0  0  1  0  0  0  0  0  0
  -26.9430  -30.3880   24.7530 C   0  0  0  0  0  1  0  0  0  0  0  0
  -27.5210  -32.5620   25.7970 C   0  0  0  0  0  1  0  0  0  0  0  0
  1  2  1  0
  3  4  1  0
  3  5  1  0
  4 56  1  1
  4  1  1  0
  5  9  1  0
  5  2  1  0
  5  6  1  6
  7  8  1  0
  8  4  1  0
 10 12  2  0
 11 10  1  0
 11 13  2  0
 12  9  1  0
 12 14  1  0
 13 23  1  0
 13 14  1  0
 15 23  1  0
 16 21  1  0
 17 18  1  0
 17 16  1  0
 19 18  1  0
 19 28  1  0
 19 20  1  0
 21 15  1  0
 21 20  1  0
 22 15  2  0
 23 24  1  0
 25 26  2  0
 26 45  1  0
 27 26  1  0
 27 30  1  0
 28 29  1  0
 28 25  1  0
 29 27  2  0
 30 31  1  0
 31 32  2  0
 33 36  1  0
 33 32  1  0
 34 33  2  0
 35 34  1  0
 35 30  2  0
 36 37  1  0
 37 42  2  0
 37 38  1  0
 38 39  2  0
 39 40  1  0
 40 44  1  0
 41 40  2  0
 42 41  1  0
 43 42  1  0
 45 46  1  0
 46 49  1  0
 46 48  1  0
 47 45  2  0
 50 51  1  0
 50 25  1  0
 52 50  1  0
 53 55  1  0
 53 11  1  0
 54 53  1  0
 56 57  1  0
 58 69  2  0
 59 57  1  0
 59 64  1  0
 60 68  1  0
 60 70  1  0
 61 67  1  0
 61 63  1  0
 62 68  1  0
 63 62  1  0
 64 63  2  0
 65 66  1  0
 65 59  2  0
 66 61  2  0
 67 60  1  0
 68 58  1  0
 70 72  2  0
 71 70  1  0
 73 71  1  0
 74 83  2  0
 74 79  1  0
 75 71  1  0
 75 79  1  0
 76 75  1  0
 77 78  1  0
 77 76  1  0
 78 74  1  0
 79 80  2  0
 80 81  1  0
 82 81  2  0
 83 82  1  0
 84 58  1  0
 84 85  1  0
 84 94  1  0
 85 88  1  0
 86 90  1  0
 86 85  1  0
 87 86  2  0
 90 89  1  0
 92 90  1  0
 92 93  1  0
 92 91  1  0
 94 97  1  1
 94 95  1  0
 96 94  1  0
M  ISO  4  15 100  23 100  56 101  57 101
M  END
>  <TORSDO>  (67) 
F 21

>  <SCORE>  (67) 
-13.275

>  <name>  (67) 
66

>  <ligand_id>  (67) 
66

>  <original_smiles>  (67) 
[H]c1c([H])c([H])c2c(c1[H])C([H])([H])C([H])([H])C([H])([H])C2([H])N([H])C(=O)C1([H])N(C(=O)C([H])(N([H])C(=O)C([H])(N([H])C([H])([H])[H])C([H])([H])[H])C(C([H])([H])[H])(C([H])([H])[H])C([H])([H])[H])C([H])([H])c2c([H])c(OC([H])([H])C3(OC([H])([H])[H])C([H])([H])C([H])([H])[N+]([H])(C([H])([H])c4sc(N([H])C(=O)N5C([H])([H])C([H])([H])C([H])([H])C([H])(n6nc(-c7c([H])c([H])c(Oc8c([H])c([H])c(F)c([H])c8F)c([H])c7[H])c(C(=O)N([H])[H])c6N([H])[H])C5([H])[H])c(N([H])[H])c4[H])C3([H])[H])c([H])c([H])c2C1([H])[H]

>  <smiles>  (67) 
[H]c1c([H])c([H])c2c(c1[H])C([H])([H])C([H])([H])C([H])([H])C2([H])N([H])C(=O)C1([H])N(C(=O)C([H])(N([H])C(=O)C([H])(N([H])C([H])([H])[H])C([H])([H])[H])C(C([H])([H])[H])(C([H])([H])[H])C([H])([H])[H])C([H])([H])c2c([H])c(OC([H])([H])C3(OC([H])([H])[H])C([H])([H])C([H])([H])[N+]([H])(C([H])([H])c4sc(N([H])C(=O)N5C([H])([H])C([H])([H])C([H])([H])C([H])(n6nc(-c7c([H])c([H])c(Oc8c([H])c([H])c(F)c([H])c8F)c([H])c7[H])c(C(=O)N([H])[H])c6N([H])[H])C5([H])[H])c(N([H])[H])c4[H])C3([H])[H])c([H])c([H])c2C1([H])[H]

$$$$
67:0:0
     RDKit          3D

 90 98  0  0  1  0  0  0  0  0999 V2000
  -29.0110  -22.8890   20.4180 C   0  0  0  0  0  0  0  0  0  0  0  0
  -31.0460  -22.3710   21.6890 C   0  0  0  0  0  1  0  0  0  0  0  0
  -29.8270  -21.9500   20.9820 N   0  0  0  0  0  0  0  0  0  0  0  0
  -28.0020  -22.5750   19.7780 O   0  0  0  0  0  0  0  0  0  0  0  0
  -28.5990  -18.4770   20.5840 C   0  0  0  0  0  3  0  0  0  0  0  0
  -28.4410  -19.8940   20.7500 C   0  0  0  0  0  3  0  0  0  0  0  0
  -29.9120  -18.0890   20.5180 C   0  0  0  0  0  0  0  0  0  0  0  0
  -29.6260  -20.5990   20.8230 C   0  0  0  0  0  0  0  0  0  0  0  0
  -30.9660  -19.4730   20.6720 S   0  0  0  0  0  0  0  0  0  0  0  0
  -30.5200  -16.7760   20.3040 C   0  0  0  0  0  3  0  0  0  0  0  0
  -30.0050  -15.6130   20.5110 N   0  0  0  0  0  0  0  0  0  0  0  0
  -30.7480  -14.5100   20.0580 C   0  0  0  0  0  0  0  0  0  0  0  0
  -30.4110  -12.2810   19.0550 C   0  0  0  0  0  2  0  0  0  0  0  0
  -29.4230  -12.4270   17.8800 C   0  0  0  0  0  2  0  0  0  0  0  0
  -27.9710  -12.2870   18.3770 C   0  0  0  0  0  2  0  0  0  0  0  0
  -27.6740  -13.1770   19.6130 C   0  0  0  0  0  3  0  0  0  0  0  0
  -28.7820  -13.0450   20.6810 C   0  0  0  0  0  2  0  0  0  0  0  0
  -30.0770  -13.3230   20.0400 N   0  0  0  0  0  0  0  0  0  0  0  0
  -31.8740  -14.5820   19.5540 O   0  0  0  0  0  0  0  0  0  0  0  0
  -25.3360  -13.7800   20.5020 C   0  0  0  0  0  0  0  0  0  0  0  0
  -24.2820  -13.0050   20.9040 C   0  0  0  0  0  0  0  0  0  0  0  0
  -24.7200  -11.6510   20.7880 C   0  0  0  0  0  0  0  0  0  0  0  0
  -26.3510  -12.8970   20.1680 N   0  0  0  0  0  0  0  0  0  0  0  0
  -25.9860  -11.6080   20.3970 N   0  0  0  0  0  0  0  0  0  0  0  0
  -23.9870  -10.3900   20.9710 C   0  0  0  0  0  0  0  0  0  0  0  0
  -24.4160   -9.4120   21.8960 C   0  0  0  0  0  3  0  0  0  0  0  0
  -23.6830   -8.2170   22.0660 C   0  0  0  0  0  3  0  0  0  0  0  0
  -22.5080   -7.9910   21.3090 C   0  0  0  0  0  0  0  0  0  0  0  0
  -22.0980   -8.9570   20.3740 C   0  0  0  0  0  3  0  0  0  0  0  0
  -22.8310  -10.1440   20.2020 C   0  0  0  0  0  3  0  0  0  0  0  0
  -21.7480   -6.8490   21.3900 O   0  0  0  0  0  0  0  0  0  0  0  0
  -21.6280   -6.1440   22.5610 C   0  0  0  0  0  0  0  0  0  0  0  0
  -21.1040   -6.7320   23.7330 C   0  0  0  0  0  3  0  0  0  0  0  0
  -20.9320   -5.9530   24.8940 C   0  0  0  0  0  3  0  0  0  0  0  0
  -21.2760   -4.5880   24.8850 C   0  0  0  0  0  0  0  0  0  0  0  0
  -21.7930   -4.0000   23.7170 C   0  0  0  0  0  3  0  0  0  0  0  0
  -21.9660   -4.7760   22.5570 C   0  0  0  0  0  0  0  0  0  0  0  0
  -22.4440   -4.2000   21.4290 F   0  0  0  0  0  0  0  0  0  0  0  0
  -21.1040   -3.8360   25.9980 F   0  0  0  0  0  0  0  0  0  0  0  0
  -22.9120  -13.4880   21.2850 C   0  0  0  0  0  0  0  0  0  0  0  0
  -22.2330  -12.7680   22.1740 N   0  0  0  0  0  0  0  0  0  0  0  0
  -22.4530  -14.5360   20.8320 O   0  0  0  0  0  0  0  0  0  0  0  0
  -22.6150  -11.9180   22.5600 H   0  0  0  0  0  0  0  0  0  0  0  0
  -21.3180  -13.0730   22.4730 H   0  0  0  0  0  0  0  0  0  0  0  0
  -25.5110  -15.1540   20.3700 N   0  0  0  0  0  0  0  0  0  0  0  0
  -24.7710  -15.8210   20.5590 H   0  0  0  0  0  0  0  0  0  0  0  0
  -26.3620  -15.5850   20.0310 H   0  0  0  0  0  0  0  0  0  0  0  0
  -29.3410  -24.4040   20.5600 C   0  0  0  0  0  2  0  0  0  0  0  0
  -28.2390  -25.3240   19.9840 C   0  0  0  0  0  2  0  0  0  0  0  0
  -28.4180  -26.7340   20.2380 O   0  0  0  0  0  0  0  0  0  0  0  0
  -24.6010  -31.8960   23.3240 C   0  0  0  0  0  0  0  0  0  0  0  0
  -27.2660  -27.5040   20.1830 C   0  0  0  0  0  0  0  0  0  0  0  0
  -23.4130  -30.5370   21.6350 C   0  0  0  0  0  3  0  0  0  0  0  0
  -24.8810  -29.0380   20.1880 C   0  0  0  0  0  0  0  0  0  0  0  0
  -25.9430  -30.8920   21.4780 C   0  0  0  0  0  2  0  0  0  0  0  0
  -26.0350  -29.5370   20.8050 C   0  0  0  0  0  0  0  0  0  0  0  0
  -27.2310  -28.7780   20.7980 C   0  0  0  0  0  3  0  0  0  0  0  0
  -26.0920  -27.0360   19.5430 C   0  0  0  0  0  3  0  0  0  0  0  0
  -24.9060  -27.7880   19.5510 C   0  0  0  0  0  3  0  0  0  0  0  0
  -23.6390  -29.8970   20.2400 C   0  0  0  0  0  2  0  0  0  0  0  0
  -24.6690  -31.1210   22.2050 N   0  0  0  0  0  0  0  0  0  0  0  0
  -23.5130  -32.1580   23.8570 O   0  0  0  0  0  0  0  0  0  0  0  0
  -22.7480  -29.4910   22.5600 C   0  0  0  0  0  0  0  0  0  0  0  0
  -21.4290  -29.3020   22.3990 N   0  0  0  0  0  0  0  0  0  0  0  0
  -23.4180  -28.8560   23.3800 O   0  0  0  0  0  0  0  0  0  0  0  0
  -20.9500  -29.8700   21.7140 H   0  0  0  0  0  0  0  0  0  0  0  0
  -18.0490  -28.0910   22.8140 C   0  0  0  0  0  0  0  0  0  0  0  0
  -20.6000  -28.3470   23.1360 C   0  0  0  0  0  3  0  0  0  0  0  0
  -20.7150  -26.9280   22.5310 C   0  0  0  0  0  2  0  0  0  0  0  0
  -19.6320  -26.6270   21.4900 C   0  0  0  0  0  2  0  0  0  0  0  0
  -18.2390  -26.7570   22.1140 C   0  0  0  0  0  2  0  0  0  0  0  0
  -19.1580  -28.8450   23.2810 C   0  0  0  0  0  0  0  0  0  0  0  0
  -18.9280  -30.0960   23.8950 C   0  0  0  0  0  3  0  0  0  0  0  0
  -17.6200  -30.5930   24.0460 C   0  0  0  0  0  3  0  0  0  0  0  0
  -16.5240  -29.8370   23.5960 C   0  0  0  0  0  3  0  0  0  0  0  0
  -16.7390  -28.5870   22.9870 C   0  0  0  0  0  3  0  0  0  0  0  0
  -25.8790  -32.5100   23.9730 C   0  0  0  0  0  3  0  0  0  0  0  0
  -26.3430  -31.7470   25.2740 C   0  0  1  0  0  0  0  0  0  0  0  0
  -25.2130  -31.5360   26.3070 C   0  0  0  0  0  1  0  0  0  0  0  0
  -26.9180  -30.3570   24.9150 C   0  0  0  0  0  1  0  0  0  0  0  0
  -27.4830  -32.5320   25.9660 C   0  0  0  0  0  1  0  0  0  0  0  0
  -25.5910  -33.9180   24.2700 N   0  0  0  0  0  0  0  0  0  0  0  0
  -25.9330  -34.9470   23.4830 C   0  0  0  0  0  0  0  0  0  0  0  0
  -26.5970  -34.8090   22.4510 O   0  0  0  0  0  0  0  0  0  0  0  0
  -25.0040  -34.1000   25.0710 H   0  0  0  0  0  0  0  0  0  0  0  0
  -24.2100  -36.7400   23.1080 C   0  0  0  0  0  1  0  0  0  0  0  0
  -25.4650  -36.3510   23.9070 C   0  0  0  0  0  3  0  0  0  0  0  0
  -27.6160  -37.2510   24.6760 C   0  0  0  0  0  1  0  0  0  0  0  0
  -26.5030  -37.3930   23.7410 N   0  0  0  0  0  0  0  0  0  0  0  0
  -26.1040  -38.3200   23.8650 H   0  0  0  0  0  0  0  0  0  0  0  0
  1 48  1  0
  1  3  1  0
  3  2  1  0
  4  1  2  0
  5  6  1  0
  6  8  2  0
  7  5  2  0
  7  9  1  0
  8  3  1  0
  9  8  1  0
 10 11  2  0
 10  7  1  0
 12 11  1  0
 13 18  1  0
 14 15  1  0
 14 13  1  0
 16 15  1  0
 16 23  1  0
 16 17  1  0
 18 12  1  0
 18 17  1  0
 19 12  2  0
 20 21  2  0
 21 40  1  0
 22 21  1  0
 22 25  1  0
 23 24  1  0
 23 20  1  0
 24 22  2  0
 25 26  1  0
 26 27  2  0
 28 31  1  0
 28 27  1  0
 29 28  2  0
 30 29  1  0
 30 25  2  0
 31 32  1  0
 32 33  1  0
 33 34  2  0
 35 34  1  0
 35 39  1  0
 36 35  2  0
 37 32  2  0
 37 36  1  0
 38 37  1  0
 40 41  1  0
 41 44  1  0
 41 43  1  0
 42 40  2  0
 45 20  1  0
 45 46  1  0
 47 45  1  0
 49 50  1  0
 49 48  1  0
 51 62  2  0
 52 50  1  0
 52 57  1  0
 53 61  1  0
 53 63  1  0
 54 60  1  0
 54 56  1  0
 55 61  1  0
 56 55  1  0
 57 56  2  0
 58 59  1  0
 58 52  2  0
 59 54  2  0
 60 53  1  0
 61 51  1  0
 63 65  2  0
 64 63  1  0
 66 64  1  0
 67 76  2  0
 67 72  1  0
 68 64  1  0
 68 72  1  0
 69 68  1  0
 70 71  1  0
 70 69  1  0
 71 67  1  0
 72 73  2  0
 73 74  1  0
 75 74  2  0
 76 75  1  0
 77 51  1  0
 77 82  1  0
 77 78  1  0
 78 81  1  1
 78 79  1  0
 80 78  1  0
 82 85  1  0
 83 87  1  0
 83 82  1  0
 84 83  2  0
 87 86  1  0
 89 90  1  0
 89 87  1  0
 89 88  1  0
M  ISO  4  11 100  12 100  49 101  50 101
M  END
>  <TORSDO>  (68) 
F 20

>  <SCORE>  (68) 
-13.641

>  <name>  (68) 
67

>  <ligand_id>  (68) 
67

>  <original_smiles>  (68) 
[H]C(=NC(=O)N1C([H])([H])C([H])([H])C([H])([H])C([H])(n2nc(-c3c([H])c([H])c(Oc4c([H])c([H])c(F)c([H])c4F)c([H])c3[H])c(C(=O)N([H])[H])c2N([H])[H])C1([H])[H])c1sc(N(C(=O)C([H])([H])C([H])([H])Oc2c([H])c([H])c3c(c2[H])C([H])([H])N(C(=O)C([H])(N([H])C(=O)C([H])(N([H])C([H])([H])[H])C([H])([H])[H])C(C([H])([H])[H])(C([H])([H])[H])C([H])([H])[H])C([H])(C(=O)N([H])C2([H])c4c([H])c([H])c([H])c([H])c4C([H])([H])C([H])([H])C2([H])[H])C3([H])[H])C([H])([H])[H])c([H])c1[H]

>  <smiles>  (68) 
[H]C(=NC(=O)N1C([H])([H])C([H])([H])C([H])([H])C([H])(n2nc(-c3c([H])c([H])c(Oc4c([H])c([H])c(F)c([H])c4F)c([H])c3[H])c(C(=O)N([H])[H])c2N([H])[H])C1([H])[H])c1sc(N(C(=O)C([H])([H])C([H])([H])Oc2c([H])c([H])c3c(c2[H])C([H])([H])N(C(=O)C([H])(N([H])C(=O)C([H])(N([H])C([H])([H])[H])C([H])([H])[H])C(C([H])([H])[H])(C([H])([H])[H])C([H])([H])[H])C([H])(C(=O)N([H])C2([H])c4c([H])c([H])c([H])c([H])c4C([H])([H])C([H])([H])C2([H])[H])C3([H])[H])C([H])([H])[H])c([H])c1[H]

$$$$
68:0:0
     RDKit          3D

 93102  0  0  1  0  0  0  0  0999 V2000
  -30.3430  -24.0090   19.7920 C   0  0  0  0  0  2  0  0  0  0  0  0
  -30.7310  -22.5140   19.7130 C   0  0  0  0  0  2  0  0  0  0  0  0
  -28.7000  -22.7460   20.9290 C   0  0  0  0  0  2  0  0  0  0  0  0
  -28.8320  -24.0310   20.0720 C   0  0  2  0  0  0  0  0  0  0  0  0
  -28.0280  -23.8810   18.7620 C   0  0  0  0  0  1  0  0  0  0  0  0
  -29.6670  -21.7450   20.4050 N   0  0  2  0  0  4  0  0  0  0  0  0
  -29.1700  -21.2240   19.6960 H   0  0  0  0  0  0  0  0  0  0  0  0
  -30.1310  -20.7570   21.4250 C   0  0  0  0  0  2  0  0  0  0  0  0
  -31.0150  -14.4670   20.0730 C   0  0  0  0  0  0  0  0  0  0  0  0
  -30.6280  -12.3220   18.9110 C   0  0  0  0  0  2  0  0  0  0  0  0
  -29.6180  -12.5610   17.7690 C   0  0  0  0  0  2  0  0  0  0  0  0
  -28.1690  -12.4390   18.2830 C   0  0  0  0  0  2  0  0  0  0  0  0
  -27.9220  -13.2560   19.5790 C   0  0  0  0  0  3  0  0  0  0  0  0
  -29.0370  -12.9910   20.6160 C   0  0  0  0  0  2  0  0  0  0  0  0
  -30.3330  -13.2910   19.9790 N   0  0  0  0  0  0  0  0  0  0  0  0
  -32.1130  -14.6330   19.5320 O   0  0  0  0  0  0  0  0  0  0  0  0
  -31.4870  -18.9000   20.1840 C   0  0  0  0  0  3  0  0  0  0  0  0
  -30.4260  -19.3500   20.9380 C   0  0  0  0  0  0  0  0  0  0  0  0
  -30.5400  -16.8740   20.6670 C   0  0  0  0  0  0  0  0  0  0  0  0
  -31.5370  -17.5030   20.0310 N   0  0  0  0  0  0  0  0  0  0  0  0
  -30.3490  -15.4580   20.7030 N   0  0  0  0  0  0  0  0  0  0  0  0
  -29.4370  -17.9970   21.4630 S   0  0  0  0  0  0  0  0  0  0  0  0
  -29.5010  -15.1580   21.1580 H   0  0  0  0  0  0  0  0  0  0  0  0
  -25.5890  -13.8950   20.4590 C   0  0  0  0  0  0  0  0  0  0  0  0
  -24.5260  -13.1350   20.8670 C   0  0  0  0  0  0  0  0  0  0  0  0
  -24.9480  -11.7750   20.7590 C   0  0  0  0  0  0  0  0  0  0  0  0
  -26.5940  -12.9980   20.1310 N   0  0  0  0  0  0  0  0  0  0  0  0
  -26.2150  -11.7150   20.3670 N   0  0  0  0  0  0  0  0  0  0  0  0
  -24.2020  -10.5240   20.9480 C   0  0  0  0  0  0  0  0  0  0  0  0
  -24.6170   -9.5530   21.8870 C   0  0  0  0  0  3  0  0  0  0  0  0
  -23.8730   -8.3660   22.0640 C   0  0  0  0  0  3  0  0  0  0  0  0
  -22.7000   -8.1430   21.3030 C   0  0  0  0  0  0  0  0  0  0  0  0
  -22.3060   -9.1020   20.3540 C   0  0  0  0  0  3  0  0  0  0  0  0
  -23.0510  -10.2800   20.1740 C   0  0  0  0  0  3  0  0  0  0  0  0
  -21.9300   -7.0090   21.3900 O   0  0  0  0  0  0  0  0  0  0  0  0
  -21.7920   -6.3210   22.5680 C   0  0  0  0  0  0  0  0  0  0  0  0
  -21.2420   -6.9200   23.7220 C   0  0  0  0  0  3  0  0  0  0  0  0
  -21.0550   -6.1550   24.8920 C   0  0  0  0  0  3  0  0  0  0  0  0
  -21.4080   -4.7920   24.9060 C   0  0  0  0  0  0  0  0  0  0  0  0
  -21.9510   -4.1930   23.7560 C   0  0  0  0  0  3  0  0  0  0  0  0
  -22.1400   -4.9540   22.5900 C   0  0  0  0  0  0  0  0  0  0  0  0
  -22.6430   -4.3660   21.4780 F   0  0  0  0  0  0  0  0  0  0  0  0
  -21.2220   -4.0560   26.0260 F   0  0  0  0  0  0  0  0  0  0  0  0
  -23.1620  -13.6350   21.2450 C   0  0  0  0  0  0  0  0  0  0  0  0
  -22.4730  -12.9250   22.1330 N   0  0  0  0  0  0  0  0  0  0  0  0
  -22.7180  -14.6880   20.7890 O   0  0  0  0  0  0  0  0  0  0  0  0
  -22.8460  -12.0730   22.5220 H   0  0  0  0  0  0  0  0  0  0  0  0
  -21.5600  -13.2420   22.4290 H   0  0  0  0  0  0  0  0  0  0  0  0
  -25.7800  -15.2660   20.3190 N   0  0  0  0  0  0  0  0  0  0  0  0
  -25.0370  -15.9340   20.4930 H   0  0  0  0  0  0  0  0  0  0  0  0
  -26.6100  -15.6930   19.9290 H   0  0  0  0  0  0  0  0  0  0  0  0
  -28.3500  -25.2900   20.8690 C   0  0  0  0  0  2  0  0  0  0  0  0
  -28.5080  -26.5700   20.2160 O   0  0  0  0  0  0  0  0  0  0  0  0
  -24.6400  -31.7860   23.1910 C   0  0  0  0  0  0  0  0  0  0  0  0
  -27.3580  -27.3350   20.1820 C   0  0  0  0  0  0  0  0  0  0  0  0
  -23.4690  -30.3660   21.5380 C   0  0  0  0  0  3  0  0  0  0  0  0
  -24.9560  -28.8320   20.1450 C   0  0  0  0  0  0  0  0  0  0  0  0
  -25.9970  -30.7400   21.3780 C   0  0  0  0  0  2  0  0  0  0  0  0
  -26.1040  -29.3650   20.7470 C   0  0  0  0  0  0  0  0  0  0  0  0
  -27.3110  -28.6260   20.7600 C   0  0  0  0  0  3  0  0  0  0  0  0
  -26.1960  -26.8230   19.5690 C   0  0  0  0  0  3  0  0  0  0  0  0
  -24.9980  -27.5600   19.5510 C   0  0  0  0  0  3  0  0  0  0  0  0
  -23.7050  -29.6810   20.1660 C   0  0  0  0  0  2  0  0  0  0  0  0
  -24.7190  -30.9790   22.0940 N   0  0  0  0  0  0  0  0  0  0  0  0
  -23.5480  -32.0520   23.7120 O   0  0  0  0  0  0  0  0  0  0  0  0
  -22.8090  -29.3460   22.4940 C   0  0  0  0  0  0  0  0  0  0  0  0
  -21.4910  -29.1440   22.3390 N   0  0  0  0  0  0  0  0  0  0  0  0
  -23.4820  -28.7380   23.3310 O   0  0  0  0  0  0  0  0  0  0  0  0
  -21.0090  -29.6870   21.6350 H   0  0  0  0  0  0  0  0  0  0  0  0
  -18.1210  -27.9080   22.7670 C   0  0  0  0  0  0  0  0  0  0  0  0
  -20.6680  -28.2030   23.0990 C   0  0  0  0  0  3  0  0  0  0  0  0
  -20.8030  -26.7680   22.5410 C   0  0  0  0  0  2  0  0  0  0  0  0
  -19.7310  -26.4190   21.5030 C   0  0  0  0  0  2  0  0  0  0  0  0
  -18.3320  -26.5550   22.1110 C   0  0  0  0  0  2  0  0  0  0  0  0
  -19.2190  -28.6900   23.2160 C   0  0  0  0  0  0  0  0  0  0  0  0
  -18.9700  -29.9580   23.7850 C   0  0  0  0  0  3  0  0  0  0  0  0
  -17.6550  -30.4430   23.9130 C   0  0  0  0  0  3  0  0  0  0  0  0
  -16.5710  -29.6590   23.4820 C   0  0  0  0  0  3  0  0  0  0  0  0
  -16.8050  -28.3940   22.9150 C   0  0  0  0  0  3  0  0  0  0  0  0
  -25.9120  -32.4280   23.8270 C   0  0  0  0  0  3  0  0  0  0  0  0
  -25.5880  -33.8240   24.1500 N   0  0  0  0  0  0  0  0  0  0  0  0
  -25.9200  -34.8770   23.3920 C   0  0  0  0  0  0  0  0  0  0  0  0
  -26.6030  -34.7770   22.3690 O   0  0  0  0  0  0  0  0  0  0  0  0
  -24.9840  -33.9750   24.9460 H   0  0  0  0  0  0  0  0  0  0  0  0
  -24.1870  -36.6560   23.0020 C   0  0  0  0  0  1  0  0  0  0  0  0
  -25.4140  -36.2610   23.8390 C   0  0  0  0  0  3  0  0  0  0  0  0
  -27.5180  -37.1680   24.7220 C   0  0  0  0  0  1  0  0  0  0  0  0
  -26.4410  -37.3210   23.7470 N   0  0  0  0  0  0  0  0  0  0  0  0
  -26.0240  -38.2390   23.8780 H   0  0  0  0  0  0  0  0  0  0  0  0
  -26.4220  -31.6620   25.1080 C   0  0  1  0  0  0  0  0  0  0  0  0
  -25.3180  -31.4090   26.1610 C   0  0  0  0  0  1  0  0  0  0  0  0
  -27.0250  -30.2920   24.7200 C   0  0  0  0  0  1  0  0  0  0  0  0
  -27.5540  -32.4690   25.7860 C   0  0  0  0  0  1  0  0  0  0  0  0
  1  4  1  0
  2  1  1  0
  2  6  1  0
  4  5  1  6
  4 52  1  0
  4  3  1  0
  6  3  1  0
  6  8  1  0
  6  7  1  6
  9 21  1  0
 10 15  1  0
 11 12  1  0
 11 10  1  0
 13 12  1  0
 13 27  1  0
 13 14  1  0
 15  9  1  0
 15 14  1  0
 16  9  2  0
 17 18  2  0
 18  8  1  0
 18 22  1  0
 19 21  1  0
 19 22  1  0
 20 17  1  0
 20 19  2  0
 21 23  1  0
 24 25  2  0
 25 44  1  0
 26 25  1  0
 26 29  1  0
 27 28  1  0
 27 24  1  0
 28 26  2  0
 29 30  1  0
 30 31  2  0
 32 35  1  0
 32 31  1  0
 33 32  2  0
 34 33  1  0
 34 29  2  0
 35 36  1  0
 36 41  2  0
 36 37  1  0
 37 38  2  0
 38 39  1  0
 39 43  1  0
 40 39  2  0
 41 40  1  0
 42 41  1  0
 44 45  1  0
 45 48  1  0
 45 47  1  0
 46 44  2  0
 49 24  1  0
 49 50  1  0
 51 49  1  0
 53 52  1  0
 54 65  2  0
 55 53  1  0
 55 60  1  0
 56 64  1  0
 56 66  1  0
 57 63  1  0
 57 59  1  0
 58 64  1  0
 59 60  2  0
 59 58  1  0
 61 55  2  0
 62 61  1  0
 62 57  2  0
 63 56  1  0
 64 54  1  0
 66 68  2  0
 67 66  1  0
 69 67  1  0
 70 79  2  0
 70 75  1  0
 71 67  1  0
 71 75  1  0
 72 71  1  0
 73 74  1  0
 73 72  1  0
 74 70  1  0
 75 76  2  0
 76 77  1  0
 78 77  2  0
 79 78  1  0
 80 54  1  0
 80 81  1  0
 80 90  1  0
 81 84  1  0
 82 86  1  0
 82 81  1  0
 83 82  2  0
 86 85  1  0
 88 86  1  0
 88 89  1  0
 88 87  1  0
 90 93  1  1
 90 91  1  0
 92 90  1  0
M  ISO  4   9 100  21 100  52 101  53 101
M  END
>  <TORSDO>  (69) 
F 18

>  <SCORE>  (69) 
-13.917

>  <name>  (69) 
68

>  <ligand_id>  (69) 
68

>  <original_smiles>  (69) 
[H]c1nc(N([H])C(=O)N2C([H])([H])C([H])([H])C([H])([H])C([H])(n3nc(-c4c([H])c([H])c(Oc5c([H])c([H])c(F)c([H])c5F)c([H])c4[H])c(C(=O)N([H])[H])c3N([H])[H])C2([H])[H])sc1C([H])([H])[N+]1([H])C([H])([H])C([H])([H])C(C([H])([H])[H])(C([H])([H])Oc2c([H])c([H])c3c(c2[H])C([H])([H])N(C(=O)C([H])(N([H])C(=O)C([H])(N([H])C([H])([H])[H])C([H])([H])[H])C(C([H])([H])[H])(C([H])([H])[H])C([H])([H])[H])C([H])(C(=O)N([H])C2([H])c4c([H])c([H])c([H])c([H])c4C([H])([H])C([H])([H])C2([H])[H])C3([H])[H])C1([H])[H]

>  <smiles>  (69) 
[H]c1nc(N([H])C(=O)N2C([H])([H])C([H])([H])C([H])([H])C([H])(n3nc(-c4c([H])c([H])c(Oc5c([H])c([H])c(F)c([H])c5F)c([H])c4[H])c(C(=O)N([H])[H])c3N([H])[H])C2([H])[H])sc1C([H])([H])[N+]1([H])C([H])([H])C([H])([H])C(C([H])([H])[H])(C([H])([H])Oc2c([H])c([H])c3c(c2[H])C([H])([H])N(C(=O)C([H])(N([H])C(=O)C([H])(N([H])C([H])([H])[H])C([H])([H])[H])C(C([H])([H])[H])(C([H])([H])[H])C([H])([H])[H])C([H])(C(=O)N([H])C2([H])c4c([H])c([H])c([H])c([H])c4C([H])([H])C([H])([H])C2([H])[H])C3([H])[H])C1([H])[H]

$$$$
69:0:0
     RDKit          3D

 92100  0  0  1  0  0  0  0  0999 V2000
  -28.9330  -22.8290   19.8150 C   0  0  0  0  0  0  0  0  0  0  0  0
  -28.5670  -21.6420   20.3750 N   0  0  0  0  0  0  0  0  0  0  0  0
  -30.0070  -22.9570   19.2200 O   0  0  0  0  0  0  0  0  0  0  0  0
  -27.7560  -21.6700   20.9790 H   0  0  0  0  0  0  0  0  0  0  0  0
  -29.2750  -19.3420   21.0640 C   0  0  0  0  0  3  0  0  0  0  0  0
  -29.9150  -18.1680   20.4980 C   0  0  0  0  0  0  0  0  0  0  0  0
  -29.1350  -20.4010   20.1830 C   0  0  0  0  0  0  0  0  0  0  0  0
  -30.1990  -18.2810   19.2160 N   0  0  0  0  0  0  0  0  0  0  0  0
  -29.7690  -19.8200   18.6660 S   0  0  0  0  0  0  0  0  0  0  0  0
  -30.3830  -16.9320   21.2790 C   0  0  0  0  0  2  0  0  0  0  0  0
  -30.6330  -14.5610   20.3640 C   0  0  0  0  0  0  0  0  0  0  0  0
  -30.3590  -12.3750   19.2240 C   0  0  0  0  0  2  0  0  0  0  0  0
  -29.4050  -12.5440   18.0230 C   0  0  0  0  0  2  0  0  0  0  0  0
  -27.9330  -12.4030   18.4640 C   0  0  0  0  0  2  0  0  0  0  0  0
  -27.6000  -13.2540   19.7190 C   0  0  0  0  0  3  0  0  0  0  0  0
  -28.6620  -13.0500   20.8210 C   0  0  0  0  0  2  0  0  0  0  0  0
  -29.9730  -13.3730   20.2360 N   0  0  0  0  0  0  0  0  0  0  0  0
  -31.7860  -14.7200   19.9530 O   0  0  0  0  0  0  0  0  0  0  0  0
  -29.9030  -15.5920   20.8550 N   0  0  0  0  0  0  0  0  0  0  0  0
  -28.9450  -15.3820   21.0830 H   0  0  0  0  0  0  0  0  0  0  0  0
  -25.2130  -13.8770   20.4430 C   0  0  0  0  0  0  0  0  0  0  0  0
  -24.1420  -13.1130   20.8210 C   0  0  0  0  0  0  0  0  0  0  0  0
  -24.5950  -11.7580   20.7950 C   0  0  0  0  0  0  0  0  0  0  0  0
  -26.2510  -12.9870   20.2090 N   0  0  0  0  0  0  0  0  0  0  0  0
  -25.8840  -11.7090   20.4810 N   0  0  0  0  0  0  0  0  0  0  0  0
  -23.8620  -10.5020   20.9930 C   0  0  0  0  0  0  0  0  0  0  0  0
  -24.2920   -9.5370   21.9310 C   0  0  0  0  0  3  0  0  0  0  0  0
  -23.5600   -8.3440   22.1170 C   0  0  0  0  0  3  0  0  0  0  0  0
  -22.3850   -8.1080   21.3660 C   0  0  0  0  0  0  0  0  0  0  0  0
  -21.9740   -9.0620   20.4180 C   0  0  0  0  0  3  0  0  0  0  0  0
  -22.7070  -10.2460   20.2290 C   0  0  0  0  0  3  0  0  0  0  0  0
  -21.6230   -6.9680   21.4610 O   0  0  0  0  0  0  0  0  0  0  0  0
  -21.5700   -6.2340   22.6190 C   0  0  0  0  0  0  0  0  0  0  0  0
  -21.1400   -6.7980   23.8390 C   0  0  0  0  0  3  0  0  0  0  0  0
  -21.0340   -5.9900   24.9900 C   0  0  0  0  0  3  0  0  0  0  0  0
  -21.3460   -4.6190   24.9190 C   0  0  0  0  0  0  0  0  0  0  0  0
  -21.7700   -4.0540   23.7030 C   0  0  0  0  0  3  0  0  0  0  0  0
  -21.8780   -4.8600   22.5560 C   0  0  0  0  0  0  0  0  0  0  0  0
  -22.2660   -4.3060   21.3800 F   0  0  0  0  0  0  0  0  0  0  0  0
  -21.2370   -3.8410   26.0210 F   0  0  0  0  0  0  0  0  0  0  0  0
  -22.7500  -13.6000   21.0970 C   0  0  0  0  0  0  0  0  0  0  0  0
  -22.0200  -12.9130   21.9690 N   0  0  0  0  0  0  0  0  0  0  0  0
  -22.3160  -14.6260   20.5730 O   0  0  0  0  0  0  0  0  0  0  0  0
  -22.3840  -12.0830   22.4140 H   0  0  0  0  0  0  0  0  0  0  0  0
  -21.0850  -13.2200   22.1950 H   0  0  0  0  0  0  0  0  0  0  0  0
  -25.3850  -15.2460   20.2580 N   0  0  0  0  0  0  0  0  0  0  0  0
  -24.6200  -15.9020   20.3660 H   0  0  0  0  0  0  0  0  0  0  0  0
  -26.2290  -15.6780   19.9030 H   0  0  0  0  0  0  0  0  0  0  0  0
  -27.9900  -24.0760   19.9060 C   0  0  0  0  0  2  0  0  0  0  0  0
  -28.0250  -25.3250   22.1700 C   0  0  0  0  0  1  0  0  0  0  0  0
  -28.5160  -25.3220   20.7120 C   0  0  0  0  0  3  0  0  0  0  0  0
  -28.4140  -26.6560   20.1200 O   0  0  0  0  0  0  0  0  0  0  0  0
  -24.5960  -31.8700   23.2340 C   0  0  0  0  0  0  0  0  0  0  0  0
  -27.2360  -27.3860   20.1680 C   0  0  0  0  0  0  0  0  0  0  0  0
  -23.3930  -30.4700   21.5880 C   0  0  0  0  0  3  0  0  0  0  0  0
  -24.8480  -28.9230   20.1680 C   0  0  0  0  0  0  0  0  0  0  0  0
  -25.9220  -30.8180   21.3960 C   0  0  0  0  0  2  0  0  0  0  0  0
  -26.0080  -29.4420   20.7570 C   0  0  0  0  0  0  0  0  0  0  0  0
  -27.2060  -28.6840   20.7430 C   0  0  0  0  0  3  0  0  0  0  0  0
  -26.0570  -26.8870   19.5790 C   0  0  0  0  0  3  0  0  0  0  0  0
  -24.8690  -27.6480   19.5760 C   0  0  0  0  0  3  0  0  0  0  0  0
  -23.6060  -29.7890   20.2100 C   0  0  0  0  0  2  0  0  0  0  0  0
  -24.6560  -31.0700   22.1310 N   0  0  0  0  0  0  0  0  0  0  0  0
  -23.5130  -32.1420   23.7730 O   0  0  0  0  0  0  0  0  0  0  0  0
  -22.7370  -29.4500   22.5480 C   0  0  0  0  0  0  0  0  0  0  0  0
  -21.4110  -29.2740   22.4230 N   0  0  0  0  0  0  0  0  0  0  0  0
  -23.4190  -28.8200   23.3610 O   0  0  0  0  0  0  0  0  0  0  0  0
  -20.9220  -29.8340   21.7390 H   0  0  0  0  0  0  0  0  0  0  0  0
  -18.0330  -28.0930   22.9280 C   0  0  0  0  0  0  0  0  0  0  0  0
  -20.5940  -28.3350   23.1900 C   0  0  0  0  0  3  0  0  0  0  0  0
  -20.6850  -26.9080   22.6020 C   0  0  0  0  0  2  0  0  0  0  0  0
  -19.5760  -26.6000   21.5900 C   0  0  0  0  0  2  0  0  0  0  0  0
  -18.1980  -26.7490   22.2410 C   0  0  0  0  0  2  0  0  0  0  0  0
  -19.1580  -28.8450   23.3600 C   0  0  0  0  0  0  0  0  0  0  0  0
  -18.9490  -30.1060   23.9610 C   0  0  0  0  0  3  0  0  0  0  0  0
  -17.6490  -30.6140   24.1360 C   0  0  0  0  0  3  0  0  0  0  0  0
  -16.5390  -29.8590   23.7230 C   0  0  0  0  0  3  0  0  0  0  0  0
  -16.7310  -28.6010   23.1240 C   0  0  0  0  0  3  0  0  0  0  0  0
  -25.8790  -32.5010   23.8580 C   0  0  0  0  0  3  0  0  0  0  0  0
  -26.3950  -31.7290   25.1350 C   0  0  1  0  0  0  0  0  0  0  0  0
  -25.3000  -31.4940   26.2020 C   0  0  0  0  0  1  0  0  0  0  0  0
  -26.9760  -30.3510   24.7420 C   0  0  0  0  0  1  0  0  0  0  0  0
  -27.5460  -32.5220   25.7980 C   0  0  0  0  0  1  0  0  0  0  0  0
  -25.5730  -33.8990   24.1880 N   0  0  0  0  0  0  0  0  0  0  0  0
  -25.9050  -34.9510   23.4280 C   0  0  0  0  0  0  0  0  0  0  0  0
  -26.5740  -34.8450   22.3950 O   0  0  0  0  0  0  0  0  0  0  0  0
  -24.9800  -34.0550   24.9900 H   0  0  0  0  0  0  0  0  0  0  0  0
  -24.1780  -36.7430   23.0720 C   0  0  0  0  0  1  0  0  0  0  0  0
  -25.4190  -36.3400   23.8830 C   0  0  0  0  0  3  0  0  0  0  0  0
  -27.5540  -37.2260   24.7120 C   0  0  0  0  0  1  0  0  0  0  0  0
  -26.4510  -37.3930   23.7680 N   0  0  0  0  0  0  0  0  0  0  0  0
  -26.0460  -38.3130   23.9150 H   0  0  0  0  0  0  0  0  0  0  0  0
  1 49  1  0
  1  2  1  0
  2  4  1  0
  3  1  2  0
  6  5  1  0
  6 10  1  0
  7  2  1  0
  7  5  2  0
  8  6  2  0
  9  8  1  0
  9  7  1  0
 11 19  1  0
 12 17  1  0
 13 14  1  0
 13 12  1  0
 15 14  1  0
 15 24  1  0
 15 16  1  0
 17 11  1  0
 17 16  1  0
 18 11  2  0
 19 20  1  0
 19 10  1  0
 21 22  2  0
 22 41  1  0
 23 22  1  0
 23 26  1  0
 24 21  1  0
 24 25  1  0
 25 23  2  0
 26 27  1  0
 27 28  2  0
 29 32  1  0
 29 28  1  0
 30 29  2  0
 31 30  1  0
 31 26  2  0
 32 33  1  0
 33 34  1  0
 34 35  2  0
 36 35  1  0
 36 40  1  0
 37 36  2  0
 38 33  2  0
 38 37  1  0
 39 38  1  0
 41 42  1  0
 42 45  1  0
 42 44  1  0
 43 41  2  0
 46 47  1  0
 46 21  1  0
 48 46  1  0
 49 51  1  0
 51 50  1  0
 52 54  1  0
 52 51  1  0
 53 64  2  0
 54 59  1  0
 55 63  1  0
 55 65  1  0
 56 62  1  0
 56 58  1  0
 57 63  1  0
 58 57  1  0
 59 58  2  0
 60 54  2  0
 61 60  1  0
 61 56  2  0
 62 55  1  0
 63 53  1  0
 65 67  2  0
 66 65  1  0
 68 66  1  0
 69 78  2  0
 69 74  1  0
 70 66  1  0
 70 74  1  0
 71 70  1  0
 72 73  1  0
 72 71  1  0
 73 69  1  0
 74 75  2  0
 75 76  1  0
 77 76  2  0
 78 77  1  0
 79 53  1  0
 79 84  1  0
 79 80  1  0
 80 83  1  1
 80 81  1  0
 82 80  1  0
 84 87  1  0
 85 89  1  0
 85 84  1  0
 86 85  2  0
 89 88  1  0
 91 89  1  0
 91 92  1  0
 91 90  1  0
M  ISO  4  11 100  19 100  51 101  52 101
M  END
>  <TORSDO>  (70) 
F 20

>  <SCORE>  (70) 
-13.757

>  <name>  (70) 
69

>  <ligand_id>  (70) 
69

>  <original_smiles>  (70) 
[H]c1c(C([H])([H])N([H])C(=O)N2C([H])([H])C([H])([H])C([H])([H])C([H])(n3nc(-c4c([H])c([H])c(Oc5c([H])c([H])c(F)c([H])c5F)c([H])c4[H])c(C(=O)N([H])[H])c3N([H])[H])C2([H])[H])nsc1N([H])C(=O)C([H])([H])C([H])(Oc1c([H])c([H])c2c(c1[H])C([H])([H])N(C(=O)C([H])(N([H])C(=O)C([H])(N([H])C([H])([H])[H])C([H])([H])[H])C(C([H])([H])[H])(C([H])([H])[H])C([H])([H])[H])C([H])(C(=O)N([H])C1([H])c3c([H])c([H])c([H])c([H])c3C([H])([H])C([H])([H])C1([H])[H])C2([H])[H])C([H])([H])[H]

>  <smiles>  (70) 
[H]c1c(C([H])([H])N([H])C(=O)N2C([H])([H])C([H])([H])C([H])([H])C([H])(n3nc(-c4c([H])c([H])c(Oc5c([H])c([H])c(F)c([H])c5F)c([H])c4[H])c(C(=O)N([H])[H])c3N([H])[H])C2([H])[H])nsc1N([H])C(=O)C([H])([H])C([H])(Oc1c([H])c([H])c2c(c1[H])C([H])([H])N(C(=O)C([H])(N([H])C(=O)C([H])(N([H])C([H])([H])[H])C([H])([H])[H])C(C([H])([H])[H])(C([H])([H])[H])C([H])([H])[H])C([H])(C(=O)N([H])C1([H])c3c([H])c([H])c([H])c([H])c3C([H])([H])C([H])([H])C1([H])[H])C2([H])[H])C([H])([H])[H]

$$$$
70:0:0
     RDKit          3D

 92100  0  0  1  0  0  0  0  0999 V2000
  -29.0190  -19.5970   21.0460 C   0  0  0  0  0  3  0  0  0  0  0  0
  -29.2430  -20.9040   20.4240 C   0  0  0  0  0  0  0  0  0  0  0  0
  -29.9580  -18.6510   20.6270 C   0  0  0  0  0  0  0  0  0  0  0  0
  -30.3240  -20.6060   19.6370 C   0  0  0  0  0  0  0  0  0  0  0  0
  -30.7570  -19.3040   19.7280 O   0  0  0  0  0  0  0  0  0  0  0  0
  -32.2580  -21.1060   18.2200 C   0  0  0  0  0  1  0  0  0  0  0  0
  -30.9910  -21.5010   18.8140 N   0  0  0  0  0  0  0  0  0  0  0  0
  -30.8590  -22.4950   19.0050 H   0  0  0  0  0  0  0  0  0  0  0  0
  -28.4010  -22.2550   20.5820 C   0  0  0  0  0  2  0  0  0  0  0  0
  -28.9500  -23.7460   20.3830 C   0  0  0  0  0  0  0  0  0  0  0  0
  -30.1610  -23.9850   20.4210 O   0  0  0  0  0  0  0  0  0  0  0  0
  -27.8950  -24.9140   20.1110 C   0  0  0  0  0  2  0  0  0  0  0  0
  -28.2620  -26.3670   20.2520 O   0  0  0  0  0  0  0  0  0  0  0  0
  -24.6210  -31.9110   23.2300 C   0  0  0  0  0  0  0  0  0  0  0  0
  -27.1860  -27.2870   20.1850 C   0  0  0  0  0  0  0  0  0  0  0  0
  -23.4050  -30.5140   21.6030 C   0  0  0  0  0  3  0  0  0  0  0  0
  -24.8420  -28.9540   20.1740 C   0  0  0  0  0  0  0  0  0  0  0  0
  -25.9520  -30.8060   21.4140 C   0  0  0  0  0  2  0  0  0  0  0  0
  -26.0210  -29.4230   20.7670 C   0  0  0  0  0  0  0  0  0  0  0  0
  -27.1970  -28.6030   20.7630 C   0  0  0  0  0  3  0  0  0  0  0  0
  -25.9800  -26.8960   19.5540 C   0  0  0  0  0  3  0  0  0  0  0  0
  -24.8270  -27.6990   19.5560 C   0  0  0  0  0  3  0  0  0  0  0  0
  -23.6110  -29.8380   20.2230 C   0  0  0  0  0  2  0  0  0  0  0  0
  -24.6790  -31.0950   22.1370 N   0  0  0  0  0  0  0  0  0  0  0  0
  -23.5400  -32.1960   23.7670 O   0  0  0  0  0  0  0  0  0  0  0  0
  -22.7400  -29.5020   22.5680 C   0  0  0  0  0  0  0  0  0  0  0  0
  -21.4120  -29.3330   22.4490 N   0  0  0  0  0  0  0  0  0  0  0  0
  -23.4190  -28.8740   23.3840 O   0  0  0  0  0  0  0  0  0  0  0  0
  -20.9230  -29.8900   21.7630 H   0  0  0  0  0  0  0  0  0  0  0  0
  -18.0290  -28.1530   22.9700 C   0  0  0  0  0  0  0  0  0  0  0  0
  -20.5900  -28.4030   23.2270 C   0  0  0  0  0  3  0  0  0  0  0  0
  -20.6830  -26.9670   22.6610 C   0  0  0  0  0  2  0  0  0  0  0  0
  -19.5750  -26.6430   21.6530 C   0  0  0  0  0  2  0  0  0  0  0  0
  -18.1960  -26.7990   22.3000 C   0  0  0  0  0  2  0  0  0  0  0  0
  -19.1530  -28.9130   23.3900 C   0  0  0  0  0  0  0  0  0  0  0  0
  -18.9410  -30.1800   23.9760 C   0  0  0  0  0  3  0  0  0  0  0  0
  -17.6400  -30.6880   24.1440 C   0  0  0  0  0  3  0  0  0  0  0  0
  -16.5300  -29.9250   23.7400 C   0  0  0  0  0  3  0  0  0  0  0  0
  -16.7260  -28.6600   23.1580 C   0  0  0  0  0  3  0  0  0  0  0  0
  -25.9080  -32.5420   23.8440 C   0  0  0  0  0  3  0  0  0  0  0  0
  -25.6020  -33.9410   24.1760 N   0  0  0  0  0  0  0  0  0  0  0  0
  -25.9230  -34.9930   23.4110 C   0  0  0  0  0  0  0  0  0  0  0  0
  -26.5770  -34.8890   22.3710 O   0  0  0  0  0  0  0  0  0  0  0  0
  -25.0210  -34.0960   24.9870 H   0  0  0  0  0  0  0  0  0  0  0  0
  -24.1850  -36.7830   23.0880 C   0  0  0  0  0  1  0  0  0  0  0  0
  -25.4420  -36.3830   23.8760 C   0  0  0  0  0  3  0  0  0  0  0  0
  -27.5940  -37.2700   24.6590 C   0  0  0  0  0  1  0  0  0  0  0  0
  -26.4710  -37.4370   23.7390 N   0  0  0  0  0  0  0  0  0  0  0  0
  -26.0680  -38.3560   23.8970 H   0  0  0  0  0  0  0  0  0  0  0  0
  -26.4280  -31.7720   25.1200 C   0  0  1  0  0  0  0  0  0  0  0  0
  -25.3400  -31.5420   26.1950 C   0  0  0  0  0  1  0  0  0  0  0  0
  -27.0040  -30.3900   24.7300 C   0  0  0  0  0  1  0  0  0  0  0  0
  -27.5860  -32.5630   25.7720 C   0  0  0  0  0  1  0  0  0  0  0  0
  -30.4860  -17.2420   21.0980 C   0  0  0  0  0  2  0  0  0  0  0  0
  -30.6210  -14.7430   20.4030 C   0  0  0  0  0  0  0  0  0  0  0  0
  -30.3810  -12.4890   19.3490 C   0  0  0  0  0  2  0  0  0  0  0  0
  -29.4330  -12.5670   18.1350 C   0  0  0  0  0  2  0  0  0  0  0  0
  -27.9690  -12.3910   18.5800 C   0  0  0  0  0  2  0  0  0  0  0  0
  -27.6050  -13.2740   19.8030 C   0  0  0  0  0  3  0  0  0  0  0  0
  -28.6730  -13.1860   20.9140 C   0  0  0  0  0  2  0  0  0  0  0  0
  -29.9620  -13.5400   20.3040 N   0  0  0  0  0  0  0  0  0  0  0  0
  -31.8070  -14.8190   20.0730 O   0  0  0  0  0  0  0  0  0  0  0  0
  -29.9080  -15.8890   20.7080 N   0  0  0  0  0  0  0  0  0  0  0  0
  -28.9200  -15.7700   20.8670 H   0  0  0  0  0  0  0  0  0  0  0  0
  -25.2230  -13.8530   20.5620 C   0  0  0  0  0  0  0  0  0  0  0  0
  -24.1610  -13.0730   20.9290 C   0  0  0  0  0  0  0  0  0  0  0  0
  -24.6240  -11.7230   20.8760 C   0  0  0  0  0  0  0  0  0  0  0  0
  -26.2650  -12.9780   20.3040 N   0  0  0  0  0  0  0  0  0  0  0  0
  -25.9120  -11.6910   20.5560 N   0  0  0  0  0  0  0  0  0  0  0  0
  -23.9000  -10.4580   21.0530 C   0  0  0  0  0  0  0  0  0  0  0  0
  -24.3560   -9.4630   21.9460 C   0  0  0  0  0  3  0  0  0  0  0  0
  -23.6310   -8.2650   22.1140 C   0  0  0  0  0  3  0  0  0  0  0  0
  -22.4350   -8.0500   21.3880 C   0  0  0  0  0  0  0  0  0  0  0  0
  -21.9970   -9.0330   20.4830 C   0  0  0  0  0  3  0  0  0  0  0  0
  -22.7230  -10.2240   20.3140 C   0  0  0  0  0  3  0  0  0  0  0  0
  -21.6780   -6.9060   21.4670 O   0  0  0  0  0  0  0  0  0  0  0  0
  -21.6790   -6.1190   22.5910 C   0  0  0  0  0  0  0  0  0  0  0  0
  -21.3300   -6.6310   23.8590 C   0  0  0  0  0  3  0  0  0  0  0  0
  -21.2780   -5.7720   24.9760 C   0  0  0  0  0  3  0  0  0  0  0  0
  -21.5630   -4.4020   24.8240 C   0  0  0  0  0  0  0  0  0  0  0  0
  -21.9060   -3.8890   23.5600 C   0  0  0  0  0  3  0  0  0  0  0  0
  -21.9610   -4.7460   22.4460 C   0  0  0  0  0  0  0  0  0  0  0  0
  -22.2710   -4.2430   21.2270 F   0  0  0  0  0  0  0  0  0  0  0  0
  -21.5060   -3.5740   25.8930 F   0  0  0  0  0  0  0  0  0  0  0  0
  -22.7650  -13.5460   21.2170 C   0  0  0  0  0  0  0  0  0  0  0  0
  -22.0460  -12.8410   22.0830 N   0  0  0  0  0  0  0  0  0  0  0  0
  -22.3230  -14.5760   20.7110 O   0  0  0  0  0  0  0  0  0  0  0  0
  -22.4170  -12.0070   22.5130 H   0  0  0  0  0  0  0  0  0  0  0  0
  -21.1100  -13.1390   22.3180 H   0  0  0  0  0  0  0  0  0  0  0  0
  -25.3840  -15.2260   20.4010 N   0  0  0  0  0  0  0  0  0  0  0  0
  -24.6140  -15.8750   20.5210 H   0  0  0  0  0  0  0  0  0  0  0  0
  -26.2220  -15.6700   20.0490 H   0  0  0  0  0  0  0  0  0  0  0  0
  2  9  1  0
  2  1  1  0
  3  1  2  0
  3 54  1  0
  4  5  1  0
  4  2  2  0
  5  3  1  0
  6  7  1  0
  7  8  1  0
  7  4  1  0
 10 11  2  0
 10  9  1  0
 12 13  1  0
 12 10  1  0
 14 25  2  0
 15 13  1  0
 15 20  1  0
 16 24  1  0
 16 26  1  0
 17 23  1  0
 17 19  1  0
 18 24  1  0
 19 18  1  0
 20 19  2  0
 21 22  1  0
 21 15  2  0
 22 17  2  0
 23 16  1  0
 24 14  1  0
 26 28  2  0
 27 26  1  0
 29 27  1  0
 30 39  2  0
 30 35  1  0
 31 27  1  0
 31 35  1  0
 32 31  1  0
 33 34  1  0
 33 32  1  0
 34 30  1  0
 35 36  2  0
 36 37  1  0
 38 37  2  0
 39 38  1  0
 40 14  1  0
 40 41  1  0
 40 50  1  0
 41 44  1  0
 42 46  1  0
 42 41  1  0
 43 42  2  0
 46 45  1  0
 48 46  1  0
 48 49  1  0
 48 47  1  0
 50 53  1  1
 50 51  1  0
 52 50  1  0
 55 63  1  0
 56 61  1  0
 57 58  1  0
 57 56  1  0
 59 58  1  0
 59 68  1  0
 59 60  1  0
 61 55  1  0
 61 60  1  0
 62 55  2  0
 63 64  1  0
 63 54  1  0
 65 66  2  0
 66 85  1  0
 67 66  1  0
 67 70  1  0
 68 69  1  0
 68 65  1  0
 69 67  2  0
 70 71  1  0
 71 72  2  0
 73 76  1  0
 73 72  1  0
 74 73  2  0
 75 74  1  0
 75 70  2  0
 76 77  1  0
 77 78  1  0
 78 79  2  0
 80 79  1  0
 80 84  1  0
 81 80  2  0
 82 77  2  0
 82 81  1  0
 83 82  1  0
 85 86  1  0
 86 89  1  0
 86 88  1  0
 87 85  2  0
 90 91  1  0
 90 65  1  0
 92 90  1  0
M  ISO  4  12 101  13 101  55 100  63 100
M  END
>  <TORSDO>  (71) 
F 21

>  <SCORE>  (71) 
-13.273

>  <name>  (71) 
70

>  <ligand_id>  (71) 
70

>  <original_smiles>  (71) 
[H]c1c([H])c([H])c2c(c1[H])C([H])([H])C([H])([H])C([H])([H])C2([H])N([H])C(=O)C1([H])N(C(=O)C([H])(N([H])C(=O)C([H])(N([H])C([H])([H])[H])C([H])([H])[H])C(C([H])([H])[H])(C([H])([H])[H])C([H])([H])[H])C([H])([H])c2c([H])c(OC([H])([H])C(=O)C([H])([H])c3c(N([H])C([H])([H])[H])oc(C([H])([H])N([H])C(=O)N4C([H])([H])C([H])([H])C([H])([H])C([H])(n5nc(-c6c([H])c([H])c(Oc7c([H])c([H])c(F)c([H])c7F)c([H])c6[H])c(C(=O)N([H])[H])c5N([H])[H])C4([H])[H])c3[H])c([H])c([H])c2C1([H])[H]

>  <smiles>  (71) 
[H]c1c([H])c([H])c2c(c1[H])C([H])([H])C([H])([H])C([H])([H])C2([H])N([H])C(=O)C1([H])N(C(=O)C([H])(N([H])C(=O)C([H])(N([H])C([H])([H])[H])C([H])([H])[H])C(C([H])([H])[H])(C([H])([H])[H])C([H])([H])[H])C([H])([H])c2c([H])c(OC([H])([H])C(=O)C([H])([H])c3c(N([H])C([H])([H])[H])oc(C([H])([H])N([H])C(=O)N4C([H])([H])C([H])([H])C([H])([H])C([H])(n5nc(-c6c([H])c([H])c(Oc7c([H])c([H])c(F)c([H])c7F)c([H])c6[H])c(C(=O)N([H])[H])c5N([H])[H])C4([H])[H])c3[H])c([H])c([H])c2C1([H])[H]

$$$$
71:0:0
     RDKit          3D

 92101  0  0  1  0  0  0  0  0999 V2000
  -30.5390  -21.4450   20.4340 C   0  0  0  0  0  3  0  0  0  0  0  0
  -29.2320  -21.8160   20.6770 C   0  0  0  0  0  0  0  0  0  0  0  0
  -29.6900  -19.3430   20.7920 C   0  0  0  0  0  0  0  0  0  0  0  0
  -30.7870  -20.0610   20.5250 N   0  0  0  0  0  0  0  0  0  0  0  0
  -28.2670  -20.3780   20.9740 S   0  0  0  0  0  0  0  0  0  0  0  0
  -30.9410  -14.5830   19.7710 C   0  0  0  0  0  0  0  0  0  0  0  0
  -30.4930  -12.4740   18.5500 C   0  0  0  0  0  2  0  0  0  0  0  0
  -29.3890  -12.7090   17.4970 C   0  0  0  0  0  2  0  0  0  0  0  0
  -27.9890  -12.5340   18.1200 C   0  0  0  0  0  2  0  0  0  0  0  0
  -27.8280  -13.3150   19.4510 C   0  0  0  0  0  3  0  0  0  0  0  0
  -29.0240  -13.0500   20.3900 C   0  0  0  0  0  2  0  0  0  0  0  0
  -30.2570  -13.4050   19.6680 N   0  0  0  0  0  0  0  0  0  0  0  0
  -31.9510  -14.8140   19.0980 O   0  0  0  0  0  0  0  0  0  0  0  0
  -30.4770  -17.2960   22.1710 C   0  0  0  0  0  2  0  0  0  0  0  0
  -30.5370  -15.7810   21.8960 C   0  0  0  0  0  2  0  0  0  0  0  0
  -30.0720  -16.9130   19.8520 C   0  0  0  0  0  2  0  0  0  0  0  0
  -29.6570  -17.8370   21.0110 C   0  0  0  0  0  3  0  0  0  0  0  0
  -30.3170  -15.5830   20.4530 N   0  0  0  0  0  0  0  0  0  0  0  0
  -25.5730  -13.8770   20.5560 C   0  0  0  0  0  0  0  0  0  0  0  0
  -24.5550  -13.0840   21.0150 C   0  0  0  0  0  0  0  0  0  0  0  0
  -24.9800  -11.7370   20.8050 C   0  0  0  0  0  0  0  0  0  0  0  0
  -26.5550  -13.0110   20.1010 N   0  0  0  0  0  0  0  0  0  0  0  0
  -26.2090  -11.7140   20.3060 N   0  0  0  0  0  0  0  0  0  0  0  0
  -24.2650  -10.4680   20.9960 C   0  0  0  0  0  0  0  0  0  0  0  0
  -24.7390   -9.4810   21.8890 C   0  0  0  0  0  3  0  0  0  0  0  0
  -24.0240   -8.2770   22.0700 C   0  0  0  0  0  3  0  0  0  0  0  0
  -22.8230   -8.0520   21.3570 C   0  0  0  0  0  0  0  0  0  0  0  0
  -22.3670   -9.0270   20.4530 C   0  0  0  0  0  3  0  0  0  0  0  0
  -23.0820  -10.2240   20.2710 C   0  0  0  0  0  3  0  0  0  0  0  0
  -22.0750   -6.9010   21.4490 O   0  0  0  0  0  0  0  0  0  0  0  0
  -21.9740   -6.2020   22.6240 C   0  0  0  0  0  0  0  0  0  0  0  0
  -21.4610   -6.7910   23.8010 C   0  0  0  0  0  3  0  0  0  0  0  0
  -21.3090   -6.0160   24.9680 C   0  0  0  0  0  3  0  0  0  0  0  0
  -21.6600   -4.6520   24.9590 C   0  0  0  0  0  0  0  0  0  0  0  0
  -22.1680   -4.0630   23.7880 C   0  0  0  0  0  3  0  0  0  0  0  0
  -22.3210   -4.8350   22.6220 C   0  0  0  0  0  0  0  0  0  0  0  0
  -22.7900   -4.2580   21.4900 F   0  0  0  0  0  0  0  0  0  0  0  0
  -21.5070   -3.9050   26.0770 F   0  0  0  0  0  0  0  0  0  0  0  0
  -23.2240  -13.5480   21.5330 C   0  0  0  0  0  0  0  0  0  0  0  0
  -22.6350  -12.8020   22.4610 N   0  0  0  0  0  0  0  0  0  0  0  0
  -22.7190  -14.6010   21.1470 O   0  0  0  0  0  0  0  0  0  0  0  0
  -23.0600  -11.9500   22.7920 H   0  0  0  0  0  0  0  0  0  0  0  0
  -21.7480  -13.0910   22.8490 H   0  0  0  0  0  0  0  0  0  0  0  0
  -25.7370  -15.2570   20.4690 N   0  0  0  0  0  0  0  0  0  0  0  0
  -25.0090  -15.9050   20.7490 H   0  0  0  0  0  0  0  0  0  0  0  0
  -26.5460  -15.7130   20.0710 H   0  0  0  0  0  0  0  0  0  0  0  0
  -29.1370  -24.2660   20.3780 C   0  0  0  0  0  0  0  0  0  0  0  0
  -28.6580  -23.0580   20.7590 N   0  0  0  0  0  0  0  0  0  0  0  0
  -30.1790  -24.4090   19.7320 O   0  0  0  0  0  0  0  0  0  0  0  0
  -27.7490  -23.0860   21.2030 H   0  0  0  0  0  0  0  0  0  0  0  0
  -28.2950  -25.4980   20.8020 C   0  0  0  0  0  2  0  0  0  0  0  0
  -28.4530  -26.6500   19.9360 O   0  0  0  0  0  0  0  0  0  0  0  0
  -24.6870  -31.8230   23.0900 C   0  0  0  0  0  0  0  0  0  0  0  0
  -27.3260  -27.4440   19.9140 C   0  0  0  0  0  0  0  0  0  0  0  0
  -23.4780  -30.4430   21.4340 C   0  0  0  0  0  3  0  0  0  0  0  0
  -24.9300  -28.9460   19.9620 C   0  0  0  0  0  0  0  0  0  0  0  0
  -26.0000  -30.8230   21.2190 C   0  0  0  0  0  2  0  0  0  0  0  0
  -26.0910  -29.4640   20.5520 C   0  0  0  0  0  0  0  0  0  0  0  0
  -27.2960  -28.7200   20.5240 C   0  0  0  0  0  3  0  0  0  0  0  0
  -26.1530  -26.9510   19.3030 C   0  0  0  0  0  3  0  0  0  0  0  0
  -24.9570  -27.6900   19.3320 C   0  0  0  0  0  3  0  0  0  0  0  0
  -23.6800  -29.7950   20.0380 C   0  0  0  0  0  2  0  0  0  0  0  0
  -24.7410  -31.0420   21.9730 N   0  0  0  0  0  0  0  0  0  0  0  0
  -23.6090  -32.0760   23.6440 O   0  0  0  0  0  0  0  0  0  0  0  0
  -22.8410  -29.3990   22.3800 C   0  0  0  0  0  0  0  0  0  0  0  0
  -21.5130  -29.2300   22.2810 N   0  0  0  0  0  0  0  0  0  0  0  0
  -23.5390  -28.7460   23.1600 O   0  0  0  0  0  0  0  0  0  0  0  0
  -21.0110  -29.8100   21.6220 H   0  0  0  0  0  0  0  0  0  0  0  0
  -18.1400  -28.0660   22.8480 C   0  0  0  0  0  0  0  0  0  0  0  0
  -20.7080  -28.2770   23.0450 C   0  0  0  0  0  3  0  0  0  0  0  0
  -20.7700  -26.8660   22.4140 C   0  0  0  0  0  2  0  0  0  0  0  0
  -19.6300  -26.5970   21.4270 C   0  0  0  0  0  2  0  0  0  0  0  0
  -18.2730  -26.7380   22.1220 C   0  0  0  0  0  2  0  0  0  0  0  0
  -19.2820  -28.7970   23.2680 C   0  0  0  0  0  0  0  0  0  0  0  0
  -19.1030  -30.0410   23.9090 C   0  0  0  0  0  3  0  0  0  0  0  0
  -17.8110  -30.5550   24.1350 C   0  0  0  0  0  3  0  0  0  0  0  0
  -16.6830  -29.8220   23.7290 C   0  0  0  0  0  3  0  0  0  0  0  0
  -16.8470  -28.5790   23.0930 C   0  0  0  0  0  3  0  0  0  0  0  0
  -25.9740  -32.4500   23.7100 C   0  0  0  0  0  3  0  0  0  0  0  0
  -25.6480  -33.8280   24.1020 N   0  0  0  0  0  0  0  0  0  0  0  0
  -25.9430  -34.9150   23.3750 C   0  0  0  0  0  0  0  0  0  0  0  0
  -26.5880  -34.8630   22.3240 O   0  0  0  0  0  0  0  0  0  0  0  0
  -25.0700  -33.9420   24.9220 H   0  0  0  0  0  0  0  0  0  0  0  0
  -24.1790  -36.6910   23.1250 C   0  0  0  0  0  1  0  0  0  0  0  0
  -25.4420  -36.2760   23.8970 C   0  0  0  0  0  3  0  0  0  0  0  0
  -27.5730  -37.1680   24.7270 C   0  0  0  0  0  1  0  0  0  0  0  0
  -26.4560  -37.3490   23.8040 N   0  0  0  0  0  0  0  0  0  0  0  0
  -26.0380  -38.2570   23.9830 H   0  0  0  0  0  0  0  0  0  0  0  0
  -26.5330  -31.6370   24.9400 C   0  0  1  0  0  0  0  0  0  0  0  0
  -25.4670  -31.3290   26.0170 C   0  0  0  0  0  1  0  0  0  0  0  0
  -27.1380  -30.2910   24.4730 C   0  0  0  0  0  1  0  0  0  0  0  0
  -27.6800  -32.4280   25.6130 C   0  0  0  0  0  1  0  0  0  0  0  0
  1  4  1  0
  1  2  2  0
  2 48  1  0
  2  5  1  0
  3  5  1  0
  4  3  2  0
  6 18  1  0
  7 12  1  0
  8  9  1  0
  8  7  1  0
 10  9  1  0
 10 22  1  0
 10 11  1  0
 12  6  1  0
 12 11  1  0
 13  6  2  0
 15 14  1  0
 16 18  1  0
 16 17  1  0
 17  3  1  0
 17 14  1  0
 18 15  1  0
 19 20  2  0
 20 39  1  0
 21 24  1  0
 21 20  1  0
 22 23  1  0
 22 19  1  0
 23 21  2  0
 24 25  1  0
 25 26  2  0
 27 30  1  0
 27 26  1  0
 28 27  2  0
 29 28  1  0
 29 24  2  0
 30 31  1  0
 31 32  1  0
 32 33  2  0
 34 33  1  0
 34 38  1  0
 35 34  2  0
 36 31  2  0
 36 35  1  0
 37 36  1  0
 39 40  1  0
 40 42  1  0
 40 43  1  0
 41 39  2  0
 44 19  1  0
 44 45  1  0
 46 44  1  0
 47 48  1  0
 47 51  1  0
 48 50  1  0
 49 47  2  0
 52 51  1  0
 53 64  2  0
 54 52  1  0
 54 59  1  0
 55 63  1  0
 55 65  1  0
 56 62  1  0
 56 58  1  0
 57 63  1  0
 58 57  1  0
 59 58  2  0
 60 61  1  0
 60 54  2  0
 61 56  2  0
 62 55  1  0
 63 53  1  0
 65 67  2  0
 66 65  1  0
 68 66  1  0
 69 78  2  0
 69 74  1  0
 70 66  1  0
 70 74  1  0
 71 70  1  0
 72 73  1  0
 72 71  1  0
 73 69  1  0
 74 75  2  0
 75 76  1  0
 77 76  2  0
 78 77  1  0
 79 53  1  0
 79 80  1  0
 79 89  1  0
 80 83  1  0
 81 85  1  0
 81 80  1  0
 82 81  2  0
 85 84  1  0
 87 85  1  0
 87 88  1  0
 87 86  1  0
 89 92  1  1
 89 90  1  0
 91 89  1  0
M  ISO  4   6 100  18 100  51 101  52 101
M  END
>  <TORSDO>  (72) 
F 18

>  <SCORE>  (72) 
-13.102

>  <name>  (72) 
71

>  <ligand_id>  (72) 
71

>  <original_smiles>  (72) 
[H]c1nc(C2([H])C([H])([H])N(C(=O)N3C([H])([H])C([H])([H])C([H])([H])C([H])(n4nc(-c5c([H])c([H])c(Oc6c([H])c([H])c(F)c([H])c6F)c([H])c5[H])c(C(=O)N([H])[H])c4N([H])[H])C3([H])[H])C([H])([H])C2([H])[H])sc1N([H])C(=O)C([H])([H])Oc1c([H])c([H])c2c(c1[H])C([H])([H])N(C(=O)C([H])(N([H])C(=O)C([H])(N([H])C([H])([H])[H])C([H])([H])[H])C(C([H])([H])[H])(C([H])([H])[H])C([H])([H])[H])C([H])(C(=O)N([H])C1([H])c3c([H])c([H])c([H])c([H])c3C([H])([H])C([H])([H])C1([H])[H])C2([H])[H]

>  <smiles>  (72) 
[H]c1nc(C2([H])C([H])([H])N(C(=O)N3C([H])([H])C([H])([H])C([H])([H])C([H])(n4nc(-c5c([H])c([H])c(Oc6c([H])c([H])c(F)c([H])c6F)c([H])c5[H])c(C(=O)N([H])[H])c4N([H])[H])C3([H])[H])C([H])([H])C2([H])[H])sc1N([H])C(=O)C([H])([H])Oc1c([H])c([H])c2c(c1[H])C([H])([H])N(C(=O)C([H])(N([H])C(=O)C([H])(N([H])C([H])([H])[H])C([H])([H])[H])C(C([H])([H])[H])(C([H])([H])[H])C([H])([H])[H])C([H])(C(=O)N([H])C1([H])c3c([H])c([H])c([H])c([H])c3C([H])([H])C([H])([H])C1([H])[H])C2([H])[H]

$$$$
72:0:0
     RDKit          3D

 93101  0  0  1  0  0  0  0  0999 V2000
  -29.5420  -21.6490   20.0810 C   0  0  0  0  0  0  0  0  0  0  0  0
  -30.1060  -20.4680   19.6650 N   0  0  0  0  0  0  0  0  0  0  0  0
  -28.9340  -21.7550   21.1490 O   0  0  0  0  0  0  0  0  0  0  0  0
  -30.4690  -20.4750   18.7200 H   0  0  0  0  0  0  0  0  0  0  0  0
  -30.4200  -17.9030   19.7640 C   0  0  0  0  0  3  0  0  0  0  0  0
  -30.2710  -19.1360   21.7520 C   0  0  0  0  0  3  0  0  0  0  0  0
  -30.2550  -19.2110   20.3810 C   0  0  0  0  0  0  0  0  0  0  0  0
  -30.4880  -16.8510   20.6820 C   0  0  0  0  0  0  0  0  0  0  0  0
  -30.4140  -17.4990   22.3060 S   0  0  0  0  0  0  0  0  0  0  0  0
  -31.1420  -14.5530   19.8620 C   0  0  0  0  0  0  0  0  0  0  0  0
  -30.7810  -12.4000   18.6840 C   0  0  0  0  0  2  0  0  0  0  0  0
  -29.7470  -12.6330   17.5570 C   0  0  0  0  0  2  0  0  0  0  0  0
  -28.3000  -12.5270   18.0840 C   0  0  0  0  0  2  0  0  0  0  0  0
  -28.0770  -13.3270   19.3930 C   0  0  0  0  0  3  0  0  0  0  0  0
  -29.2030  -13.0280   20.4110 C   0  0  0  0  0  2  0  0  0  0  0  0
  -30.4910  -13.3530   19.7700 N   0  0  0  0  0  0  0  0  0  0  0  0
  -32.2100  -14.7810   19.2860 O   0  0  0  0  0  0  0  0  0  0  0  0
  -30.4740  -15.4810   20.5920 N   0  0  0  0  0  0  0  0  0  0  0  0
  -29.7630  -15.0500   21.1650 H   0  0  0  0  0  0  0  0  0  0  0  0
  -25.7600  -14.0100   20.2820 C   0  0  0  0  0  0  0  0  0  0  0  0
  -24.6850  -13.2710   20.7020 C   0  0  0  0  0  0  0  0  0  0  0  0
  -25.0880  -11.9030   20.6130 C   0  0  0  0  0  0  0  0  0  0  0  0
  -26.7470  -13.0930   19.9540 N   0  0  0  0  0  0  0  0  0  0  0  0
  -26.3520  -11.8200   20.2120 N   0  0  0  0  0  0  0  0  0  0  0  0
  -24.3280  -10.6660   20.8300 C   0  0  0  0  0  0  0  0  0  0  0  0
  -24.7290   -9.7140   21.7950 C   0  0  0  0  0  3  0  0  0  0  0  0
  -23.9700   -8.5410   21.9980 C   0  0  0  0  0  3  0  0  0  0  0  0
  -22.8010   -8.3090   21.2380 C   0  0  0  0  0  0  0  0  0  0  0  0
  -22.4210   -9.2490   20.2630 C   0  0  0  0  0  3  0  0  0  0  0  0
  -23.1780  -10.4140   20.0580 C   0  0  0  0  0  3  0  0  0  0  0  0
  -22.0240   -7.1820   21.3450 O   0  0  0  0  0  0  0  0  0  0  0  0
  -21.8630   -6.5280   22.5400 C   0  0  0  0  0  0  0  0  0  0  0  0
  -21.3350   -7.1750   23.6790 C   0  0  0  0  0  3  0  0  0  0  0  0
  -21.1230   -6.4480   24.8670 C   0  0  0  0  0  3  0  0  0  0  0  0
  -21.4310   -5.0750   24.9180 C   0  0  0  0  0  0  0  0  0  0  0  0
  -21.9510   -4.4270   23.7830 C   0  0  0  0  0  3  0  0  0  0  0  0
  -22.1640   -5.1510   22.5980 C   0  0  0  0  0  0  0  0  0  0  0  0
  -22.6480   -4.5180   21.5010 F   0  0  0  0  0  0  0  0  0  0  0  0
  -21.2200   -4.3740   26.0560 F   0  0  0  0  0  0  0  0  0  0  0  0
  -23.3300  -13.7980   21.0760 C   0  0  0  0  0  0  0  0  0  0  0  0
  -22.6460  -13.1310   21.9990 N   0  0  0  0  0  0  0  0  0  0  0  0
  -22.8900  -14.8380   20.5850 O   0  0  0  0  0  0  0  0  0  0  0  0
  -23.0160  -12.2920   22.4210 H   0  0  0  0  0  0  0  0  0  0  0  0
  -21.7390  -13.4670   22.2880 H   0  0  0  0  0  0  0  0  0  0  0  0
  -25.9760  -15.3760   20.1330 N   0  0  0  0  0  0  0  0  0  0  0  0
  -25.2740  -16.0750   20.3420 H   0  0  0  0  0  0  0  0  0  0  0  0
  -26.8400  -15.7700   19.7860 H   0  0  0  0  0  0  0  0  0  0  0  0
  -29.6230  -22.8990   19.1470 C   0  0  0  0  0  2  0  0  0  0  0  0
  -30.3450  -24.4150   21.1430 C   0  0  0  0  0  1  0  0  0  0  0  0
  -30.6720  -25.1810   18.8160 C   0  0  0  0  0  1  0  0  0  0  0  0
  -29.7150  -24.3860   19.7330 C   0  0  1  0  0  0  0  0  0  0  0  0
  -28.3370  -25.1590   19.7340 C   0  0  0  0  0  2  0  0  0  0  0  0
  -28.4120  -26.5780   20.0730 O   0  0  0  0  0  0  0  0  0  0  0  0
  -24.6420  -31.8240   23.2050 C   0  0  0  0  0  0  0  0  0  0  0  0
  -27.2450  -27.3440   20.0650 C   0  0  0  0  0  0  0  0  0  0  0  0
  -23.4190  -30.4470   21.5540 C   0  0  0  0  0  3  0  0  0  0  0  0
  -24.8600  -28.9100   20.1050 C   0  0  0  0  0  0  0  0  0  0  0  0
  -25.9530  -30.7680   21.3600 C   0  0  0  0  0  2  0  0  0  0  0  0
  -26.0260  -29.4000   20.7060 C   0  0  0  0  0  0  0  0  0  0  0  0
  -27.2150  -28.6230   20.6860 C   0  0  0  0  0  3  0  0  0  0  0  0
  -26.0520  -26.8890   19.4520 C   0  0  0  0  0  3  0  0  0  0  0  0
  -24.8730  -27.6550   19.4730 C   0  0  0  0  0  3  0  0  0  0  0  0
  -23.6220  -29.7780   20.1670 C   0  0  0  0  0  2  0  0  0  0  0  0
  -24.6890  -31.0290   22.0970 N   0  0  0  0  0  0  0  0  0  0  0  0
  -23.5640  -32.1020   23.7510 O   0  0  0  0  0  0  0  0  0  0  0  0
  -22.7600  -29.4230   22.5090 C   0  0  0  0  0  0  0  0  0  0  0  0
  -21.4420  -29.2150   22.3520 N   0  0  0  0  0  0  0  0  0  0  0  0
  -23.4340  -28.8200   23.3470 O   0  0  0  0  0  0  0  0  0  0  0  0
  -20.9560  -29.7540   21.6490 H   0  0  0  0  0  0  0  0  0  0  0  0
  -18.0950  -27.9130   22.7430 C   0  0  0  0  0  0  0  0  0  0  0  0
  -20.6280  -28.2670   23.1150 C   0  0  0  0  0  3  0  0  0  0  0  0
  -20.8050  -26.8270   22.5800 C   0  0  0  0  0  2  0  0  0  0  0  0
  -19.7590  -26.4420   21.5280 C   0  0  0  0  0  2  0  0  0  0  0  0
  -18.3470  -26.5540   22.1100 C   0  0  0  0  0  2  0  0  0  0  0  0
  -19.1680  -28.7220   23.2020 C   0  0  0  0  0  0  0  0  0  0  0  0
  -18.8830  -29.9910   23.7530 C   0  0  0  0  0  3  0  0  0  0  0  0
  -17.5560  -30.4510   23.8510 C   0  0  0  0  0  3  0  0  0  0  0  0
  -16.4960  -29.6390   23.4110 C   0  0  0  0  0  3  0  0  0  0  0  0
  -16.7660  -28.3720   22.8610 C   0  0  0  0  0  3  0  0  0  0  0  0
  -25.9340  -32.4400   23.8250 C   0  0  0  0  0  3  0  0  0  0  0  0
  -26.4800  -31.6270   25.0630 C   0  0  1  0  0  0  0  0  0  0  0  0
  -25.4050  -31.3310   26.1320 C   0  0  0  0  0  1  0  0  0  0  0  0
  -27.0840  -30.2770   24.6120 C   0  0  0  0  0  1  0  0  0  0  0  0
  -27.6230  -32.4160   25.7440 C   0  0  0  0  0  1  0  0  0  0  0  0
  -25.6250  -33.8240   24.2080 N   0  0  0  0  0  0  0  0  0  0  0  0
  -25.9450  -34.9050   23.4820 C   0  0  0  0  0  0  0  0  0  0  0  0
  -26.6040  -34.8400   22.4410 O   0  0  0  0  0  0  0  0  0  0  0  0
  -25.0340  -33.9470   25.0160 H   0  0  0  0  0  0  0  0  0  0  0  0
  -24.2100  -36.7060   23.2110 C   0  0  0  0  0  1  0  0  0  0  0  0
  -25.4590  -36.2740   23.9950 C   0  0  0  0  0  3  0  0  0  0  0  0
  -27.5990  -37.1370   24.8370 C   0  0  0  0  0  1  0  0  0  0  0  0
  -26.4870  -37.3330   23.9110 N   0  0  0  0  0  0  0  0  0  0  0  0
  -26.0780  -38.2460   24.0980 H   0  0  0  0  0  0  0  0  0  0  0  0
  1  3  2  0
  2  1  1  0
  2  7  1  0
  4  2  1  0
  5  7  1  0
  5  8  2  0
  6  9  1  0
  7  6  2  0
  8  9  1  0
 10 18  1  0
 11 16  1  0
 12 13  1  0
 12 11  1  0
 14 13  1  0
 14 23  1  0
 14 15  1  0
 16 10  1  0
 16 15  1  0
 17 10  2  0
 18  8  1  0
 18 19  1  0
 20 21  2  0
 21 40  1  0
 22 21  1  0
 22 25  1  0
 23 24  1  0
 23 20  1  0
 24 22  2  0
 25 26  1  0
 26 27  2  0
 28 31  1  0
 28 27  1  0
 29 28  2  0
 30 29  1  0
 30 25  2  0
 31 32  1  0
 32 37  2  0
 32 33  1  0
 33 34  2  0
 34 35  1  0
 35 39  1  0
 36 35  2  0
 37 36  1  0
 38 37  1  0
 40 41  1  0
 41 44  1  0
 41 43  1  0
 42 40  2  0
 45 20  1  0
 45 46  1  0
 47 45  1  0
 48 51  1  0
 48  1  1  0
 51 50  1  6
 51 52  1  0
 51 49  1  0
 52 53  1  0
 54 65  2  0
 55 53  1  0
 55 60  1  0
 56 64  1  0
 56 66  1  0
 57 63  1  0
 57 59  1  0
 58 64  1  0
 59 58  1  0
 60 59  2  0
 61 62  1  0
 61 55  2  0
 62 57  2  0
 63 56  1  0
 64 54  1  0
 66 68  2  0
 67 66  1  0
 69 67  1  0
 70 79  2  0
 70 75  1  0
 71 67  1  0
 71 75  1  0
 72 71  1  0
 73 74  1  0
 73 72  1  0
 74 70  1  0
 75 76  2  0
 76 77  1  0
 78 77  2  0
 79 78  1  0
 80 54  1  0
 80 85  1  0
 80 81  1  0
 81 84  1  1
 81 82  1  0
 83 81  1  0
 85 88  1  0
 86 90  1  0
 86 85  1  0
 87 86  2  0
 90 89  1  0
 92 90  1  0
 92 93  1  0
 92 91  1  0
M  ISO  4  10 100  18 100  52 101  53 101
M  END
>  <TORSDO>  (73) 
F 20

>  <SCORE>  (73) 
-12.870

>  <name>  (73) 
72

>  <ligand_id>  (73) 
72

>  <original_smiles>  (73) 
[H]c1sc(N([H])C(=O)N2C([H])([H])C([H])([H])C([H])([H])C([H])(n3nc(-c4c([H])c([H])c(Oc5c([H])c([H])c(F)c([H])c5F)c([H])c4[H])c(C(=O)N([H])[H])c3N([H])[H])C2([H])[H])c([H])c1N([H])C(=O)C([H])([H])C(C([H])([H])[H])(C([H])([H])[H])C([H])([H])Oc1c([H])c([H])c2c(c1[H])C([H])([H])N(C(=O)C([H])(N([H])C(=O)C([H])(N([H])C([H])([H])[H])C([H])([H])[H])C(C([H])([H])[H])(C([H])([H])[H])C([H])([H])[H])C([H])(C(=O)N([H])C1([H])c3c([H])c([H])c([H])c([H])c3C([H])([H])C([H])([H])C1([H])[H])C2([H])[H]

>  <smiles>  (73) 
[H]c1sc(N([H])C(=O)N2C([H])([H])C([H])([H])C([H])([H])C([H])(n3nc(-c4c([H])c([H])c(Oc5c([H])c([H])c(F)c([H])c5F)c([H])c4[H])c(C(=O)N([H])[H])c3N([H])[H])C2([H])[H])c([H])c1N([H])C(=O)C([H])([H])C(C([H])([H])[H])(C([H])([H])[H])C([H])([H])Oc1c([H])c([H])c2c(c1[H])C([H])([H])N(C(=O)C([H])(N([H])C(=O)C([H])(N([H])C([H])([H])[H])C([H])([H])[H])C(C([H])([H])[H])(C([H])([H])[H])C([H])([H])[H])C([H])(C(=O)N([H])C1([H])c3c([H])c([H])c([H])c([H])c3C([H])([H])C([H])([H])C1([H])[H])C2([H])[H]

$$$$
73:0:0
     RDKit          3D

 93102  0  0  1  0  0  0  0  0999 V2000
  -30.3240  -23.0150   22.1910 C   0  0  0  0  0  0  0  0  0  0  0  0
  -30.3820  -21.5470   21.6940 C   0  0  0  0  0  2  0  0  0  0  0  0
  -28.5600  -22.2100   20.0620 C   0  0  0  0  0  2  0  0  0  0  0  0
  -29.0100  -23.7510   20.2080 C   0  0  0  0  0  3  0  0  0  0  0  0
  -29.6530  -23.9480   21.5020 N   0  0  0  0  0  0  0  0  0  0  0  0
  -29.5290  -21.1630   20.5560 N   0  0  0  0  0  0  0  0  0  0  0  0
  -30.8890  -23.3130   23.2420 O   0  0  0  0  0  0  0  0  0  0  0  0
  -29.6350  -24.8880   21.8720 H   0  0  0  0  0  0  0  0  0  0  0  0
  -28.3170  -19.1020   19.6680 C   0  0  0  0  0  3  0  0  0  0  0  0
  -28.3860  -17.6570   19.6540 C   0  0  0  0  0  3  0  0  0  0  0  0
  -29.3560  -19.7390   20.3080 C   0  0  0  0  0  0  0  0  0  0  0  0
  -29.4870  -17.0740   20.2540 C   0  0  0  0  0  0  0  0  0  0  0  0
  -30.4860  -18.4390   20.8440 S   0  0  0  0  0  0  0  0  0  0  0  0
  -30.4460  -14.6890   20.0680 C   0  0  0  0  0  0  0  0  0  0  0  0
  -30.2440  -12.4370   18.9950 C   0  0  0  0  0  2  0  0  0  0  0  0
  -29.2290  -12.5430   17.8320 C   0  0  0  0  0  2  0  0  0  0  0  0
  -27.7820  -12.3640   18.3380 C   0  0  0  0  0  2  0  0  0  0  0  0
  -27.4820  -13.2130   19.6010 C   0  0  0  0  0  3  0  0  0  0  0  0
  -28.6010  -13.0560   20.6540 C   0  0  0  0  0  2  0  0  0  0  0  0
  -29.8700  -13.4400   20.0150 N   0  0  0  0  0  0  0  0  0  0  0  0
  -31.5840  -14.8840   19.6280 O   0  0  0  0  0  0  0  0  0  0  0  0
  -29.6130  -15.7010   20.5050 N   0  0  0  0  0  0  0  0  0  0  0  0
  -28.7520  -15.2890   20.8280 H   0  0  0  0  0  0  0  0  0  0  0  0
  -25.1390  -13.7990   20.4760 C   0  0  0  0  0  0  0  0  0  0  0  0
  -24.0930  -13.0200   20.8860 C   0  0  0  0  0  0  0  0  0  0  0  0
  -24.5460  -11.6680   20.7910 C   0  0  0  0  0  0  0  0  0  0  0  0
  -26.1630  -12.9220   20.1570 N   0  0  0  0  0  0  0  0  0  0  0  0
  -25.8170  -11.6340   20.4080 N   0  0  0  0  0  0  0  0  0  0  0  0
  -23.8270  -10.4040   20.9870 C   0  0  0  0  0  0  0  0  0  0  0  0
  -24.2830   -9.4300   21.9030 C   0  0  0  0  0  3  0  0  0  0  0  0
  -23.5610   -8.2300   22.0880 C   0  0  0  0  0  3  0  0  0  0  0  0
  -22.3720   -7.9960   21.3580 C   0  0  0  0  0  0  0  0  0  0  0  0
  -21.9350   -8.9610   20.4330 C   0  0  0  0  0  3  0  0  0  0  0  0
  -22.6550  -10.1520   20.2460 C   0  0  0  0  0  3  0  0  0  0  0  0
  -21.6210   -6.8500   21.4540 O   0  0  0  0  0  0  0  0  0  0  0  0
  -21.5780   -6.1120   22.6110 C   0  0  0  0  0  0  0  0  0  0  0  0
  -21.0980   -6.6550   23.8210 C   0  0  0  0  0  3  0  0  0  0  0  0
  -21.0030   -5.8420   24.9690 C   0  0  0  0  0  3  0  0  0  0  0  0
  -21.3810   -4.4880   24.9050 C   0  0  0  0  0  0  0  0  0  0  0  0
  -21.8560   -3.9440   23.6980 C   0  0  0  0  0  3  0  0  0  0  0  0
  -21.9500   -4.7530   22.5540 C   0  0  0  0  0  0  0  0  0  0  0  0
  -22.3880   -4.2190   21.3880 F   0  0  0  0  0  0  0  0  0  0  0  0
  -21.2840   -3.7040   26.0040 F   0  0  0  0  0  0  0  0  0  0  0  0
  -22.7160  -13.4950   21.2480 C   0  0  0  0  0  0  0  0  0  0  0  0
  -22.0340  -12.7800   22.1370 N   0  0  0  0  0  0  0  0  0  0  0  0
  -22.2530  -14.5350   20.7820 O   0  0  0  0  0  0  0  0  0  0  0  0
  -22.4220  -11.9370   22.5370 H   0  0  0  0  0  0  0  0  0  0  0  0
  -21.1150  -13.0810   22.4250 H   0  0  0  0  0  0  0  0  0  0  0  0
  -25.2980  -15.1730   20.3240 N   0  0  0  0  0  0  0  0  0  0  0  0
  -24.5360  -15.8240   20.4870 H   0  0  0  0  0  0  0  0  0  0  0  0
  -26.1120  -15.6130   19.9200 H   0  0  0  0  0  0  0  0  0  0  0  0
  -27.9090  -24.8940   19.9370 C   0  0  0  0  0  2  0  0  0  0  0  0
  -28.1740  -26.3610   20.1040 O   0  0  0  0  0  0  0  0  0  0  0  0
  -24.5280  -31.8290   23.1840 C   0  0  0  0  0  0  0  0  0  0  0  0
  -27.0690  -27.2430   20.0740 C   0  0  0  0  0  0  0  0  0  0  0  0
  -23.2910  -30.4360   21.5670 C   0  0  0  0  0  3  0  0  0  0  0  0
  -24.7110  -28.8840   20.1120 C   0  0  0  0  0  0  0  0  0  0  0  0
  -25.8310  -30.7400   21.3400 C   0  0  0  0  0  2  0  0  0  0  0  0
  -25.8970  -29.3620   20.6860 C   0  0  0  0  0  0  0  0  0  0  0  0
  -27.0780  -28.5550   20.6550 C   0  0  0  0  0  3  0  0  0  0  0  0
  -25.8540  -26.8320   19.4750 C   0  0  0  0  0  3  0  0  0  0  0  0
  -24.6930  -27.6250   19.4980 C   0  0  0  0  0  3  0  0  0  0  0  0
  -23.4790  -29.7640   20.1820 C   0  0  0  0  0  2  0  0  0  0  0  0
  -24.5700  -31.0190   22.0850 N   0  0  0  0  0  0  0  0  0  0  0  0
  -23.4550  -32.1080   23.7390 O   0  0  0  0  0  0  0  0  0  0  0  0
  -22.6450  -29.4180   22.5380 C   0  0  0  0  0  0  0  0  0  0  0  0
  -21.3240  -29.2070   22.4060 N   0  0  0  0  0  0  0  0  0  0  0  0
  -23.3320  -28.8210   23.3710 O   0  0  0  0  0  0  0  0  0  0  0  0
  -20.8260  -29.7420   21.7080 H   0  0  0  0  0  0  0  0  0  0  0  0
  -17.9750  -27.9270   22.8950 C   0  0  0  0  0  0  0  0  0  0  0  0
  -20.5220  -28.2640   23.1880 C   0  0  0  0  0  3  0  0  0  0  0  0
  -20.6710  -26.8230   22.6480 C   0  0  0  0  0  2  0  0  0  0  0  0
  -19.5910  -26.4470   21.6290 C   0  0  0  0  0  2  0  0  0  0  0  0
  -18.1990  -26.5670   22.2540 C   0  0  0  0  0  2  0  0  0  0  0  0
  -19.0670  -28.7300   23.3200 C   0  0  0  0  0  0  0  0  0  0  0  0
  -18.8050  -29.9990   23.8810 C   0  0  0  0  0  3  0  0  0  0  0  0
  -17.4860  -30.4650   24.0210 C   0  0  0  0  0  3  0  0  0  0  0  0
  -16.4080  -29.6610   23.6120 C   0  0  0  0  0  3  0  0  0  0  0  0
  -16.6540  -28.3940   23.0550 C   0  0  0  0  0  3  0  0  0  0  0  0
  -25.8240  -32.4610   23.7790 C   0  0  0  0  0  3  0  0  0  0  0  0
  -25.5230  -33.8600   24.1140 N   0  0  0  0  0  0  0  0  0  0  0  0
  -25.8310  -34.9120   23.3430 C   0  0  0  0  0  0  0  0  0  0  0  0
  -26.4700  -34.8060   22.2930 O   0  0  0  0  0  0  0  0  0  0  0  0
  -24.9490  -34.0170   24.9300 H   0  0  0  0  0  0  0  0  0  0  0  0
  -24.0980  -36.7090   23.0310 C   0  0  0  0  0  1  0  0  0  0  0  0
  -25.3560  -36.3010   23.8130 C   0  0  0  0  0  3  0  0  0  0  0  0
  -27.5060  -37.1890   24.6040 C   0  0  0  0  0  1  0  0  0  0  0  0
  -26.3870  -37.3540   23.6790 N   0  0  0  0  0  0  0  0  0  0  0  0
  -25.9830  -38.2730   23.8330 H   0  0  0  0  0  0  0  0  0  0  0  0
  -26.3640  -31.6920   25.0480 C   0  0  1  0  0  0  0  0  0  0  0  0
  -25.2910  -31.4570   26.1350 C   0  0  0  0  0  1  0  0  0  0  0  0
  -26.9430  -30.3140   24.6510 C   0  0  0  0  0  1  0  0  0  0  0  0
  -27.5240  -32.4900   25.6880 C   0  0  0  0  0  1  0  0  0  0  0  0
  1  7  2  0
  2  1  1  0
  3  4  1  0
  3  6  1  0
  4 52  1  0
  4  5  1  0
  5  8  1  0
  5  1  1  0
  6  2  1  0
  9 11  2  0
 10  9  1  0
 10 12  2  0
 11  6  1  0
 11 13  1  0
 12 22  1  0
 12 13  1  0
 14 22  1  0
 15 20  1  0
 16 17  1  0
 16 15  1  0
 18 17  1  0
 18 27  1  0
 18 19  1  0
 20 14  1  0
 20 19  1  0
 21 14  2  0
 22 23  1  0
 24 25  2  0
 25 44  1  0
 26 25  1  0
 26 29  1  0
 27 28  1  0
 27 24  1  0
 28 26  2  0
 29 30  1  0
 30 31  2  0
 32 35  1  0
 32 31  1  0
 33 32  2  0
 34 33  1  0
 34 29  2  0
 35 36  1  0
 36 37  1  0
 37 38  2  0
 39 38  1  0
 39 43  1  0
 40 39  2  0
 41 36  2  0
 41 40  1  0
 42 41  1  0
 44 45  1  0
 45 48  1  0
 45 47  1  0
 46 44  2  0
 49 24  1  0
 49 50  1  0
 51 49  1  0
 52 53  1  0
 54 65  2  0
 55 53  1  0
 55 60  1  0
 56 64  1  0
 56 66  1  0
 57 63  1  0
 57 59  1  0
 58 64  1  0
 59 58  1  0
 60 59  2  0
 61 62  1  0
 61 55  2  0
 62 57  2  0
 63 56  1  0
 64 54  1  0
 66 68  2  0
 67 66  1  0
 69 67  1  0
 70 79  2  0
 70 75  1  0
 71 67  1  0
 71 75  1  0
 72 71  1  0
 73 74  1  0
 73 72  1  0
 74 70  1  0
 75 76  2  0
 76 77  1  0
 78 77  2  0
 79 78  1  0
 80 54  1  0
 80 81  1  0
 80 90  1  0
 81 84  1  0
 82 86  1  0
 82 81  1  0
 83 82  2  0
 86 85  1  0
 88 86  1  0
 88 89  1  0
 88 87  1  0
 90 93  1  1
 90 91  1  0
 92 90  1  0
M  ISO  4  14 100  22 100  52 101  53 101
M  END
>  <TORSDO>  (74) 
F 18

>  <SCORE>  (74) 
-14.112

>  <name>  (74) 
73

>  <ligand_id>  (74) 
73

>  <original_smiles>  (74) 
[H]c1c(N([H])C(=O)N2C([H])([H])C([H])([H])C([H])([H])C([H])(n3nc(-c4c([H])c([H])c(Oc5c([H])c([H])c(F)c([H])c5F)c([H])c4[H])c(C(=O)N([H])[H])c3N([H])[H])C2([H])[H])sc(N2C([H])([H])C(=O)N([H])C([H])(C([H])([H])Oc3c([H])c([H])c4c(c3[H])C([H])([H])N(C(=O)C([H])(N([H])C(=O)C([H])(N([H])C([H])([H])[H])C([H])([H])[H])C(C([H])([H])[H])(C([H])([H])[H])C([H])([H])[H])C([H])(C(=O)N([H])C3([H])c5c([H])c([H])c([H])c([H])c5C([H])([H])C([H])([H])C3([H])[H])C4([H])[H])C2([H])[H])c1[H]

>  <smiles>  (74) 
[H]c1c(N([H])C(=O)N2C([H])([H])C([H])([H])C([H])([H])C([H])(n3nc(-c4c([H])c([H])c(Oc5c([H])c([H])c(F)c([H])c5F)c([H])c4[H])c(C(=O)N([H])[H])c3N([H])[H])C2([H])[H])sc(N2C([H])([H])C(=O)N([H])C([H])(C([H])([H])Oc3c([H])c([H])c4c(c3[H])C([H])([H])N(C(=O)C([H])(N([H])C(=O)C([H])(N([H])C([H])([H])[H])C([H])([H])[H])C(C([H])([H])[H])(C([H])([H])[H])C([H])([H])[H])C([H])(C(=O)N([H])C3([H])c5c([H])c([H])c([H])c([H])c5C([H])([H])C([H])([H])C3([H])[H])C4([H])[H])C2([H])[H])c1[H]

$$$$
74:0:0
     RDKit          3D

 96105  0  0  1  0  0  0  0  0999 V2000
  -29.1480  -21.2820   20.1200 C   0  0  0  0  0  3  0  0  0  0  0  0
  -30.1640  -23.8450   22.5950 C   0  0  0  0  0  2  0  0  0  0  0  0
  -30.4000  -24.4620   21.2050 C   0  0  0  0  0  2  0  0  0  0  0  0
  -29.5680  -22.4550   22.2860 C   0  0  0  0  0  2  0  0  0  0  0  0
  -29.2370  -23.9370   20.3400 C   0  0  0  0  0  3  0  0  0  0  0  0
  -29.1640  -22.4730   20.8560 N   0  0  0  0  0  0  0  0  0  0  0  0
  -28.4660  -21.3270   18.9780 N   0  0  0  0  0  0  0  0  0  0  0  0
  -28.4200  -20.5110   18.3890 H   0  0  0  0  0  0  0  0  0  0  0  0
  -27.9690  -22.1540   18.6990 H   0  0  0  0  0  0  0  0  0  0  0  0
  -31.6860  -17.7090   20.4970 C   0  0  0  0  0  3  0  0  0  0  0  0
  -32.1880  -19.0150   20.4030 C   0  0  0  0  0  3  0  0  0  0  0  0
  -29.4280  -18.6050   20.4880 C   0  0  0  0  0  3  0  0  0  0  0  0
  -29.9300  -19.9820   20.4020 C   0  0  0  0  0  0  0  0  0  0  0  0
  -30.2970  -17.4200   20.5510 C   0  0  0  0  0  0  0  0  0  0  0  0
  -31.3360  -20.1300   20.3680 C   0  0  0  0  0  0  0  0  0  0  0  0
  -31.9060  -21.3540   20.2330 F   0  0  0  0  0  0  0  0  0  0  0  0
  -30.5410  -14.7970   20.4260 C   0  0  0  0  0  0  0  0  0  0  0  0
  -30.2870  -12.5370   19.3970 C   0  0  0  0  0  2  0  0  0  0  0  0
  -29.3600  -12.6200   18.1670 C   0  0  0  0  0  2  0  0  0  0  0  0
  -27.8950  -12.4410   18.5960 C   0  0  0  0  0  2  0  0  0  0  0  0
  -27.5170  -13.3170   19.8210 C   0  0  0  0  0  3  0  0  0  0  0  0
  -28.5740  -13.2430   20.9450 C   0  0  0  0  0  2  0  0  0  0  0  0
  -29.8670  -13.5970   20.3480 N   0  0  0  0  0  0  0  0  0  0  0  0
  -31.7300  -14.8040   20.1060 O   0  0  0  0  0  0  0  0  0  0  0  0
  -29.8440  -15.9900   20.6460 N   0  0  0  0  0  0  0  0  0  0  0  0
  -28.8650  -15.8530   20.8510 H   0  0  0  0  0  0  0  0  0  0  0  0
  -25.1280  -13.8800   20.5520 C   0  0  0  0  0  0  0  0  0  0  0  0
  -24.0640  -13.0970   20.9020 C   0  0  0  0  0  0  0  0  0  0  0  0
  -24.5340  -11.7490   20.8490 C   0  0  0  0  0  0  0  0  0  0  0  0
  -26.1760  -13.0110   20.3040 N   0  0  0  0  0  0  0  0  0  0  0  0
  -25.8260  -11.7220   20.5440 N   0  0  0  0  0  0  0  0  0  0  0  0
  -23.8120  -10.4800   21.0080 C   0  0  0  0  0  0  0  0  0  0  0  0
  -24.2260   -9.5080   21.9460 C   0  0  0  0  0  3  0  0  0  0  0  0
  -23.5050   -8.3040   22.0950 C   0  0  0  0  0  3  0  0  0  0  0  0
  -22.3560   -8.0630   21.3060 C   0  0  0  0  0  0  0  0  0  0  0  0
  -21.9610   -9.0230   20.3570 C   0  0  0  0  0  3  0  0  0  0  0  0
  -22.6840  -10.2200   20.2070 C   0  0  0  0  0  3  0  0  0  0  0  0
  -21.6070   -6.9150   21.3640 O   0  0  0  0  0  0  0  0  0  0  0  0
  -21.5070   -6.1780   22.5180 C   0  0  0  0  0  0  0  0  0  0  0  0
  -20.9220   -6.7050   23.6900 C   0  0  0  0  0  3  0  0  0  0  0  0
  -20.7790   -5.8900   24.8310 C   0  0  0  0  0  3  0  0  0  0  0  0
  -21.2070   -4.5500   24.8020 C   0  0  0  0  0  0  0  0  0  0  0  0
  -21.7840   -4.0240   23.6330 C   0  0  0  0  0  3  0  0  0  0  0  0
  -21.9300   -4.8330   22.4930 C   0  0  0  0  0  0  0  0  0  0  0  0
  -22.4680   -4.3120   21.3630 F   0  0  0  0  0  0  0  0  0  0  0  0
  -21.0610   -3.7670   25.8960 F   0  0  0  0  0  0  0  0  0  0  0  0
  -22.6640  -13.5630   21.1800 C   0  0  0  0  0  0  0  0  0  0  0  0
  -21.9360  -12.8400   22.0190 N   0  0  0  0  0  0  0  0  0  0  0  0
  -22.2280  -14.6010   20.6850 O   0  0  0  0  0  0  0  0  0  0  0  0
  -22.3080  -12.0010   22.4400 H   0  0  0  0  0  0  0  0  0  0  0  0
  -20.9930  -13.1250   22.2480 H   0  0  0  0  0  0  0  0  0  0  0  0
  -25.2890  -15.2550   20.4000 N   0  0  0  0  0  0  0  0  0  0  0  0
  -24.5180  -15.9060   20.5190 H   0  0  0  0  0  0  0  0  0  0  0  0
  -26.1260  -15.6970   20.0420 H   0  0  0  0  0  0  0  0  0  0  0  0
  -27.9750  -24.9560   20.4510 C   0  0  0  0  0  2  0  0  0  0  0  0
  -28.1450  -26.4310   20.1680 O   0  0  0  0  0  0  0  0  0  0  0  0
  -24.4660  -31.9210   23.1890 C   0  0  0  0  0  0  0  0  0  0  0  0
  -27.0230  -27.2970   20.1380 C   0  0  0  0  0  0  0  0  0  0  0  0
  -23.2390  -30.5360   21.5560 C   0  0  0  0  0  3  0  0  0  0  0  0
  -24.6680  -28.9540   20.1300 C   0  0  0  0  0  0  0  0  0  0  0  0
  -25.7830  -30.8150   21.3600 C   0  0  0  0  0  2  0  0  0  0  0  0
  -25.8490  -29.4300   20.7150 C   0  0  0  0  0  0  0  0  0  0  0  0
  -27.0260  -28.6160   20.7020 C   0  0  0  0  0  3  0  0  0  0  0  0
  -25.8170  -26.8840   19.5240 C   0  0  0  0  0  3  0  0  0  0  0  0
  -24.6570  -27.6870   19.5250 C   0  0  0  0  0  3  0  0  0  0  0  0
  -23.4400  -29.8450   20.1820 C   0  0  0  0  0  2  0  0  0  0  0  0
  -24.5160  -31.1090   22.0900 N   0  0  0  0  0  0  0  0  0  0  0  0
  -23.3900  -32.2100   23.7300 O   0  0  0  0  0  0  0  0  0  0  0  0
  -22.5680  -29.5300   22.5240 C   0  0  0  0  0  0  0  0  0  0  0  0
  -21.2450  -29.3470   22.3830 N   0  0  0  0  0  0  0  0  0  0  0  0
  -23.2400  -28.9190   23.3580 O   0  0  0  0  0  0  0  0  0  0  0  0
  -20.7700  -29.8870   21.6750 H   0  0  0  0  0  0  0  0  0  0  0  0
  -17.8660  -28.1440   22.8690 C   0  0  0  0  0  0  0  0  0  0  0  0
  -20.4210  -28.4140   23.1520 C   0  0  0  0  0  3  0  0  0  0  0  0
  -20.5300  -26.9780   22.5870 C   0  0  0  0  0  2  0  0  0  0  0  0
  -19.4340  -26.6470   21.5700 C   0  0  0  0  0  2  0  0  0  0  0  0
  -18.0480  -26.7920   22.2030 C   0  0  0  0  0  2  0  0  0  0  0  0
  -18.9810  -28.9140   23.2980 C   0  0  0  0  0  0  0  0  0  0  0  0
  -18.7540  -30.1790   23.8830 C   0  0  0  0  0  3  0  0  0  0  0  0
  -17.4470  -30.6750   24.0470 C   0  0  0  0  0  3  0  0  0  0  0  0
  -16.3470  -29.9070   23.6250 C   0  0  0  0  0  3  0  0  0  0  0  0
  -16.5600  -28.6440   23.0430 C   0  0  0  0  0  3  0  0  0  0  0  0
  -25.7600  -32.5360   23.8020 C   0  0  0  0  0  3  0  0  0  0  0  0
  -25.4680  -33.9400   24.1240 N   0  0  0  0  0  0  0  0  0  0  0  0
  -25.8400  -34.9880   23.3760 C   0  0  0  0  0  0  0  0  0  0  0  0
  -26.5370  -34.8710   22.3630 O   0  0  0  0  0  0  0  0  0  0  0  0
  -24.8480  -34.1000   24.9030 H   0  0  0  0  0  0  0  0  0  0  0  0
  -24.1950  -36.8430   22.9520 C   0  0  0  0  0  1  0  0  0  0  0  0
  -25.3750  -36.3880   23.8240 C   0  0  0  0  0  3  0  0  0  0  0  0
  -27.4810  -37.1990   24.7950 C   0  0  0  0  0  1  0  0  0  0  0  0
  -26.4490  -37.4060   23.7810 N   0  0  0  0  0  0  0  0  0  0  0  0
  -26.0660  -38.3400   23.9060 H   0  0  0  0  0  0  0  0  0  0  0  0
  -26.2590  -31.7710   25.0890 C   0  0  1  0  0  0  0  0  0  0  0  0
  -25.1530  -31.5430   26.1490 C   0  0  0  0  0  1  0  0  0  0  0  0
  -26.8460  -30.3900   24.7120 C   0  0  0  0  0  1  0  0  0  0  0  0
  -27.4020  -32.5690   25.7590 C   0  0  0  0  0  1  0  0  0  0  0  0
  1  7  1  0
  1 13  1  0
  1  6  1  0
  3  2  1  0
  4  2  1  0
  5 55  1  0
  5  6  1  0
  5  3  1  0
  6  4  1  0
  8  7  1  0
  9  7  1  0
 10 14  1  0
 11 10  2  0
 12 14  2  0
 13 12  1  0
 14 25  1  0
 15 13  2  0
 15 11  1  0
 16 15  1  0
 17 25  1  0
 18 23  1  0
 19 20  1  0
 19 18  1  0
 21 20  1  0
 21 30  1  0
 21 22  1  0
 23 17  1  0
 23 22  1  0
 24 17  2  0
 25 26  1  0
 27 28  2  0
 28 47  1  0
 29 28  1  0
 29 32  1  0
 30 31  1  0
 30 27  1  0
 31 29  2  0
 32 33  1  0
 33 34  2  0
 35 38  1  0
 35 34  1  0
 36 35  2  0
 37 36  1  0
 37 32  2  0
 38 39  1  0
 39 40  1  0
 40 41  2  0
 42 41  1  0
 42 46  1  0
 43 42  2  0
 44 39  2  0
 44 43  1  0
 45 44  1  0
 47 48  1  0
 48 51  1  0
 48 50  1  0
 49 47  2  0
 52 53  1  0
 52 27  1  0
 54 52  1  0
 56 55  1  0
 57 68  2  0
 58 56  1  0
 58 63  1  0
 59 67  1  0
 59 69  1  0
 60 66  1  0
 60 62  1  0
 61 67  1  0
 62 61  1  0
 63 62  2  0
 64 65  1  0
 64 58  2  0
 65 60  2  0
 66 59  1  0
 67 57  1  0
 69 71  2  0
 70 69  1  0
 72 70  1  0
 73 82  2  0
 73 78  1  0
 74 70  1  0
 74 78  1  0
 75 74  1  0
 76 77  1  0
 76 75  1  0
 77 73  1  0
 78 79  2  0
 79 80  1  0
 81 80  2  0
 82 81  1  0
 83 57  1  0
 83 84  1  0
 83 93  1  0
 84 87  1  0
 85 89  1  0
 85 84  1  0
 86 85  2  0
 89 88  1  0
 91 89  1  0
 91 92  1  0
 91 90  1  0
 93 96  1  1
 93 94  1  0
 95 93  1  0
M  ISO  4  17 100  25 100  55 101  56 101
M  END
>  <TORSDO>  (75) 
F 18

>  <SCORE>  (75) 
-14.844

>  <name>  (75) 
74

>  <ligand_id>  (75) 
74

>  <original_smiles>  (75) 
[H]c1c([H])c([H])c2c(c1[H])C([H])([H])C([H])([H])C([H])([H])C2([H])N([H])C(=O)C1([H])N(C(=O)C([H])(N([H])C(=O)C([H])(N([H])C([H])([H])[H])C([H])([H])[H])C(C([H])([H])[H])(C([H])([H])[H])C([H])([H])[H])C([H])([H])c2c([H])c(OC([H])([H])C3([H])N(C(c4c([H])c(N([H])C(=O)N5C([H])([H])C([H])([H])C([H])([H])C([H])(n6nc(-c7c([H])c([H])c(Oc8c([H])c([H])c(F)c([H])c8F)c([H])c7[H])c(C(=O)N([H])[H])c6N([H])[H])C5([H])[H])c([H])c([H])c4F)=[N+]([H])[H])C([H])([H])C([H])([H])C3([H])[H])c([H])c([H])c2C1([H])[H]

>  <smiles>  (75) 
[H]c1c([H])c([H])c2c(c1[H])C([H])([H])C([H])([H])C([H])([H])C2([H])N([H])C(=O)C1([H])N(C(=O)C([H])(N([H])C(=O)C([H])(N([H])C([H])([H])[H])C([H])([H])[H])C(C([H])([H])[H])(C([H])([H])[H])C([H])([H])[H])C([H])([H])c2c([H])c(OC([H])([H])C3([H])N(C(c4c([H])c(N([H])C(=O)N5C([H])([H])C([H])([H])C([H])([H])C([H])(n6nc(-c7c([H])c([H])c(Oc8c([H])c([H])c(F)c([H])c8F)c([H])c7[H])c(C(=O)N([H])[H])c6N([H])[H])C5([H])[H])c([H])c([H])c4F)=[N+]([H])[H])C([H])([H])C([H])([H])C3([H])[H])c([H])c([H])c2C1([H])[H]

$$$$
75:0:0
     RDKit          3D

 92101  0  0  1  0  0  0  0  0999 V2000
  -28.4510  -22.9750   21.6340 C   0  0  0  0  0  2  0  0  0  0  0  0
  -28.8950  -21.4790   21.6320 C   0  0  0  0  0  2  0  0  0  0  0  0
  -28.9870  -22.3280   19.4420 C   0  0  0  0  0  2  0  0  0  0  0  0
  -28.9880  -23.6520   20.3490 C   0  0  2  0  0  0  0  0  0  0  0  0
  -30.4380  -24.1240   20.5660 C   0  0  0  0  0  1  0  0  0  0  0  0
  -29.1900  -21.0810   20.2590 N   0  0  0  0  0  0  0  0  0  0  0  0
  -29.4970  -18.4930   20.7090 C   0  0  0  0  0  3  0  0  0  0  0  0
  -29.5340  -19.6980   19.8450 C   0  0  0  0  0  0  0  0  0  0  0  0
  -29.9220  -19.3050   18.5770 C   0  0  0  0  0  0  0  0  0  0  0  0
  -29.9050  -17.2600   20.1510 C   0  0  0  0  0  0  0  0  0  0  0  0
  -30.0140  -20.1030   17.3120 C   0  0  0  0  0  1  0  0  0  0  0  0
  -30.3540  -17.5960   18.4950 S   0  0  0  0  0  0  0  0  0  0  0  0
  -30.6710  -14.8360   20.3530 C   0  0  0  0  0  0  0  0  0  0  0  0
  -30.5140  -12.5570   19.3570 C   0  0  0  0  0  2  0  0  0  0  0  0
  -29.5780  -12.6360   18.1290 C   0  0  0  0  0  2  0  0  0  0  0  0
  -28.1060  -12.4680   18.5470 C   0  0  0  0  0  2  0  0  0  0  0  0
  -27.7260  -13.3460   19.7690 C   0  0  0  0  0  3  0  0  0  0  0  0
  -28.7740  -13.2230   20.8950 C   0  0  0  0  0  2  0  0  0  0  0  0
  -30.0760  -13.5930   20.3230 N   0  0  0  0  0  0  0  0  0  0  0  0
  -31.8500  -14.9590   20.0010 O   0  0  0  0  0  0  0  0  0  0  0  0
  -29.8840  -15.9440   20.6550 N   0  0  0  0  0  0  0  0  0  0  0  0
  -29.0260  -15.6960   21.1270 H   0  0  0  0  0  0  0  0  0  0  0  0
  -25.3240  -13.9300   20.4600 C   0  0  0  0  0  0  0  0  0  0  0  0
  -24.2600  -13.1520   20.8220 C   0  0  0  0  0  0  0  0  0  0  0  0
  -24.7310  -11.8050   20.8110 C   0  0  0  0  0  0  0  0  0  0  0  0
  -26.3790  -13.0560   20.2470 N   0  0  0  0  0  0  0  0  0  0  0  0
  -26.0260  -11.7730   20.5210 N   0  0  0  0  0  0  0  0  0  0  0  0
  -24.0080  -10.5410   21.0050 C   0  0  0  0  0  0  0  0  0  0  0  0
  -24.4370   -9.5840   21.9480 C   0  0  0  0  0  3  0  0  0  0  0  0
  -23.7150   -8.3850   22.1310 C   0  0  0  0  0  3  0  0  0  0  0  0
  -22.5490   -8.1370   21.3680 C   0  0  0  0  0  0  0  0  0  0  0  0
  -22.1390   -9.0830   20.4110 C   0  0  0  0  0  3  0  0  0  0  0  0
  -22.8640  -10.2730   20.2260 C   0  0  0  0  0  3  0  0  0  0  0  0
  -21.7970   -6.9910   21.4600 O   0  0  0  0  0  0  0  0  0  0  0  0
  -21.7410   -6.2540   22.6170 C   0  0  0  0  0  0  0  0  0  0  0  0
  -21.3000   -6.8160   23.8360 C   0  0  0  0  0  3  0  0  0  0  0  0
  -21.1900   -6.0070   24.9830 C   0  0  0  0  0  3  0  0  0  0  0  0
  -21.5140   -4.6380   24.9160 C   0  0  0  0  0  0  0  0  0  0  0  0
  -21.9460   -4.0770   23.7010 C   0  0  0  0  0  3  0  0  0  0  0  0
  -22.0580   -4.8820   22.5560 C   0  0  0  0  0  0  0  0  0  0  0  0
  -22.4560   -4.3310   21.3840 F   0  0  0  0  0  0  0  0  0  0  0  0
  -21.4020   -3.8590   26.0170 F   0  0  0  0  0  0  0  0  0  0  0  0
  -22.8550  -13.6240   21.0710 C   0  0  0  0  0  0  0  0  0  0  0  0
  -22.1210  -12.9310   21.9320 N   0  0  0  0  0  0  0  0  0  0  0  0
  -22.4190  -14.6380   20.5300 O   0  0  0  0  0  0  0  0  0  0  0  0
  -22.4890  -12.1110   22.3900 H   0  0  0  0  0  0  0  0  0  0  0  0
  -21.1770  -13.2260   22.1400 H   0  0  0  0  0  0  0  0  0  0  0  0
  -25.4830  -15.3010   20.2770 N   0  0  0  0  0  0  0  0  0  0  0  0
  -24.7120  -15.9500   20.3950 H   0  0  0  0  0  0  0  0  0  0  0  0
  -26.3290  -15.7460   19.9470 H   0  0  0  0  0  0  0  0  0  0  0  0
  -28.1000  -24.9290   19.8280 C   0  0  0  0  0  2  0  0  0  0  0  0
  -28.2900  -26.3820   20.2270 O   0  0  0  0  0  0  0  0  0  0  0  0
  -24.5910  -31.8990   23.2270 C   0  0  0  0  0  0  0  0  0  0  0  0
  -27.2000  -27.2930   20.1510 C   0  0  0  0  0  0  0  0  0  0  0  0
  -23.3930  -30.4960   21.5930 C   0  0  0  0  0  3  0  0  0  0  0  0
  -24.8460  -28.9570   20.1510 C   0  0  0  0  0  0  0  0  0  0  0  0
  -25.9390  -30.8020   21.4130 C   0  0  0  0  0  2  0  0  0  0  0  0
  -26.0200  -29.4260   20.7530 C   0  0  0  0  0  0  0  0  0  0  0  0
  -27.1970  -28.6060   20.7450 C   0  0  0  0  0  3  0  0  0  0  0  0
  -26.0010  -26.9110   19.5030 C   0  0  0  0  0  3  0  0  0  0  0  0
  -24.8420  -27.7090   19.5160 C   0  0  0  0  0  3  0  0  0  0  0  0
  -23.6090  -29.8340   20.2090 C   0  0  0  0  0  2  0  0  0  0  0  0
  -24.6610  -31.0850   22.1320 N   0  0  0  0  0  0  0  0  0  0  0  0
  -23.5060  -32.1730   23.7610 O   0  0  0  0  0  0  0  0  0  0  0  0
  -22.7370  -29.4730   22.5520 C   0  0  0  0  0  0  0  0  0  0  0  0
  -21.4110  -29.2910   22.4300 N   0  0  0  0  0  0  0  0  0  0  0  0
  -23.4190  -28.8490   23.3700 O   0  0  0  0  0  0  0  0  0  0  0  0
  -20.9170  -29.8430   21.7430 H   0  0  0  0  0  0  0  0  0  0  0  0
  -18.0380  -28.0800   22.9470 C   0  0  0  0  0  0  0  0  0  0  0  0
  -20.5970  -28.3500   23.2040 C   0  0  0  0  0  3  0  0  0  0  0  0
  -20.7020  -26.9190   22.6250 C   0  0  0  0  0  2  0  0  0  0  0  0
  -19.5950  -26.5940   21.6170 C   0  0  0  0  0  2  0  0  0  0  0  0
  -18.2170  -26.7330   22.2670 C   0  0  0  0  0  2  0  0  0  0  0  0
  -19.1560  -28.8470   23.3710 C   0  0  0  0  0  0  0  0  0  0  0  0
  -18.9340  -30.1080   23.9660 C   0  0  0  0  0  3  0  0  0  0  0  0
  -17.6280  -30.6020   24.1440 C   0  0  0  0  0  3  0  0  0  0  0  0
  -16.5260  -29.8310   23.7360 C   0  0  0  0  0  3  0  0  0  0  0  0
  -16.7310  -28.5740   23.1430 C   0  0  0  0  0  3  0  0  0  0  0  0
  -25.8700  -32.5420   23.8460 C   0  0  0  0  0  3  0  0  0  0  0  0
  -25.5510  -33.9410   24.1740 N   0  0  0  0  0  0  0  0  0  0  0  0
  -25.8770  -34.9970   23.4170 C   0  0  0  0  0  0  0  0  0  0  0  0
  -26.5490  -34.8980   22.3870 O   0  0  0  0  0  0  0  0  0  0  0  0
  -24.9580  -34.0920   24.9770 H   0  0  0  0  0  0  0  0  0  0  0  0
  -24.1440  -36.7860   23.0630 C   0  0  0  0  0  1  0  0  0  0  0  0
  -25.3830  -36.3820   23.8780 C   0  0  0  0  0  3  0  0  0  0  0  0
  -27.5090  -37.2730   24.7230 C   0  0  0  0  0  1  0  0  0  0  0  0
  -26.4120  -37.4390   23.7720 N   0  0  0  0  0  0  0  0  0  0  0  0
  -26.0020  -38.3570   23.9260 H   0  0  0  0  0  0  0  0  0  0  0  0
  -26.3910  -31.7810   25.1270 C   0  0  1  0  0  0  0  0  0  0  0  0
  -25.2990  -31.5370   26.1960 C   0  0  0  0  0  1  0  0  0  0  0  0
  -26.9870  -30.4060   24.7440 C   0  0  0  0  0  1  0  0  0  0  0  0
  -27.5360  -32.5860   25.7880 C   0  0  0  0  0  1  0  0  0  0  0  0
  2  1  1  0
  3  6  1  0
  3  4  1  0
  4  5  1  1
  4  1  1  0
  6  2  1  0
  8  6  1  0
  8  7  1  0
  9  8  2  0
 10 21  1  0
 10  7  2  0
 11  9  1  0
 12  9  1  0
 12 10  1  0
 13 21  1  0
 14 19  1  0
 15 16  1  0
 15 14  1  0
 17 16  1  0
 17 26  1  0
 17 18  1  0
 19 13  1  0
 19 18  1  0
 20 13  2  0
 21 22  1  0
 23 24  2  0
 24 43  1  0
 25 24  1  0
 25 28  1  0
 26 23  1  0
 26 27  1  0
 27 25  2  0
 28 29  1  0
 29 30  2  0
 31 34  1  0
 31 30  1  0
 32 31  2  0
 33 32  1  0
 33 28  2  0
 34 35  1  0
 35 36  1  0
 36 37  2  0
 38 37  1  0
 38 42  1  0
 39 38  2  0
 40 35  2  0
 40 39  1  0
 41 40  1  0
 43 44  1  0
 44 47  1  0
 44 46  1  0
 45 43  2  0
 48 49  1  0
 48 23  1  0
 50 48  1  0
 51 52  1  0
 51  4  1  0
 53 64  2  0
 54 52  1  0
 54 59  1  0
 55 63  1  0
 55 65  1  0
 56 62  1  0
 56 58  1  0
 57 63  1  0
 58 57  1  0
 59 58  2  0
 60 61  1  0
 60 54  2  0
 61 56  2  0
 62 55  1  0
 63 53  1  0
 65 67  2  0
 66 65  1  0
 68 66  1  0
 69 78  2  0
 69 74  1  0
 70 66  1  0
 70 74  1  0
 71 70  1  0
 72 73  1  0
 72 71  1  0
 73 69  1  0
 74 75  2  0
 75 76  1  0
 77 76  2  0
 78 77  1  0
 79 53  1  0
 79 80  1  0
 79 89  1  0
 80 83  1  0
 81 85  1  0
 81 80  1  0
 82 81  2  0
 85 84  1  0
 87 85  1  0
 87 88  1  0
 87 86  1  0
 89 92  1  1
 89 90  1  0
 91 89  1  0
M  ISO  4  13 100  21 100  51 101  52 101
M  END
>  <TORSDO>  (76) 
F 18

>  <SCORE>  (76) 
-14.811

>  <name>  (76) 
75

>  <ligand_id>  (76) 
75

>  <original_smiles>  (76) 
[H]c1c([H])c([H])c2c(c1[H])C([H])([H])C([H])([H])C([H])([H])C2([H])N([H])C(=O)C1([H])N(C(=O)C([H])(N([H])C(=O)C([H])(N([H])C([H])([H])[H])C([H])([H])[H])C(C([H])([H])[H])(C([H])([H])[H])C([H])([H])[H])C([H])([H])c2c([H])c(OC([H])([H])C3(C([H])([H])[H])C([H])([H])N(c4c(C([H])([H])[H])sc(N([H])C(=O)N5C([H])([H])C([H])([H])C([H])([H])C([H])(n6nc(-c7c([H])c([H])c(Oc8c([H])c([H])c(F)c([H])c8F)c([H])c7[H])c(C(=O)N([H])[H])c6N([H])[H])C5([H])[H])c4[H])C([H])([H])C3([H])[H])c([H])c([H])c2C1([H])[H]

>  <smiles>  (76) 
[H]c1c([H])c([H])c2c(c1[H])C([H])([H])C([H])([H])C([H])([H])C2([H])N([H])C(=O)C1([H])N(C(=O)C([H])(N([H])C(=O)C([H])(N([H])C([H])([H])[H])C([H])([H])[H])C(C([H])([H])[H])(C([H])([H])[H])C([H])([H])[H])C([H])([H])c2c([H])c(OC([H])([H])C3(C([H])([H])[H])C([H])([H])N(c4c(C([H])([H])[H])sc(N([H])C(=O)N5C([H])([H])C([H])([H])C([H])([H])C([H])(n6nc(-c7c([H])c([H])c(Oc8c([H])c([H])c(F)c([H])c8F)c([H])c7[H])c(C(=O)N([H])[H])c6N([H])[H])C5([H])[H])c4[H])C([H])([H])C3([H])[H])c([H])c([H])c2C1([H])[H]

$$$$
76:0:0
     RDKit          3D

 92101  0  0  1  0  0  0  0  0999 V2000
  -29.6630  -19.3850   20.6390 C   0  0  0  0  0  0  0  0  0  0  0  0
  -29.2010  -21.7790   20.5210 C   0  0  0  0  0  0  0  0  0  0  0  0
  -29.0990  -24.2930   20.1460 C   0  0  0  0  0  0  0  0  0  0  0  0
  -30.6320  -20.0750   20.0100 N   0  0  0  0  0  0  0  0  0  0  0  0
  -30.3620  -21.4510   19.9250 N   0  0  0  0  0  0  0  0  0  0  0  0
  -28.7300  -23.1190   20.7070 N   0  0  0  0  0  0  0  0  0  0  0  0
  -29.8890  -24.3890   19.2010 O   0  0  0  0  0  0  0  0  0  0  0  0
  -28.3190  -20.4000   21.1790 S   0  0  0  0  0  0  0  0  0  0  0  0
  -28.0090  -23.2040   21.4080 H   0  0  0  0  0  0  0  0  0  0  0  0
  -30.9580  -14.6060   19.8720 C   0  0  0  0  0  0  0  0  0  0  0  0
  -30.5380  -12.4770   18.6920 C   0  0  0  0  0  2  0  0  0  0  0  0
  -29.4880  -12.7130   17.5850 C   0  0  0  0  0  2  0  0  0  0  0  0
  -28.0590  -12.5650   18.1500 C   0  0  0  0  0  2  0  0  0  0  0  0
  -27.8450  -13.3690   19.4610 C   0  0  0  0  0  3  0  0  0  0  0  0
  -28.9990  -13.1210   20.4570 C   0  0  0  0  0  2  0  0  0  0  0  0
  -30.2650  -13.4360   19.7740 N   0  0  0  0  0  0  0  0  0  0  0  0
  -32.0100  -14.8110   19.2580 O   0  0  0  0  0  0  0  0  0  0  0  0
  -30.7670  -17.4900   22.0140 C   0  0  0  0  0  2  0  0  0  0  0  0
  -30.7960  -15.9570   21.8960 C   0  0  0  0  0  2  0  0  0  0  0  0
  -29.9350  -16.8660   19.8650 C   0  0  0  0  0  2  0  0  0  0  0  0
  -29.7270  -17.9030   20.9850 C   0  0  0  0  0  3  0  0  0  0  0  0
  -30.3400  -15.6120   20.5410 N   0  0  0  0  0  0  0  0  0  0  0  0
  -25.5400  -13.9570   20.4440 C   0  0  0  0  0  0  0  0  0  0  0  0
  -24.4990  -13.1760   20.8700 C   0  0  0  0  0  0  0  0  0  0  0  0
  -24.9310  -11.8230   20.7140 C   0  0  0  0  0  0  0  0  0  0  0  0
  -26.5410  -13.0800   20.0580 N   0  0  0  0  0  0  0  0  0  0  0  0
  -26.1840  -11.7870   20.2760 N   0  0  0  0  0  0  0  0  0  0  0  0
  -24.2060  -10.5610   20.9040 C   0  0  0  0  0  0  0  0  0  0  0  0
  -24.6530   -9.5810   21.8180 C   0  0  0  0  0  3  0  0  0  0  0  0
  -23.9280   -8.3840   21.9960 C   0  0  0  0  0  3  0  0  0  0  0  0
  -22.7410   -8.1580   21.2590 C   0  0  0  0  0  0  0  0  0  0  0  0
  -22.3130   -9.1260   20.3340 C   0  0  0  0  0  3  0  0  0  0  0  0
  -23.0390  -10.3150   20.1540 C   0  0  0  0  0  3  0  0  0  0  0  0
  -21.9870   -7.0140   21.3460 O   0  0  0  0  0  0  0  0  0  0  0  0
  -21.8790   -6.3100   22.5200 C   0  0  0  0  0  0  0  0  0  0  0  0
  -21.3420   -6.8900   23.6900 C   0  0  0  0  0  3  0  0  0  0  0  0
  -21.1820   -6.1120   24.8540 C   0  0  0  0  0  3  0  0  0  0  0  0
  -21.5530   -4.7520   24.8470 C   0  0  0  0  0  0  0  0  0  0  0  0
  -22.0860   -4.1730   23.6830 C   0  0  0  0  0  3  0  0  0  0  0  0
  -22.2460   -4.9480   22.5230 C   0  0  0  0  0  0  0  0  0  0  0  0
  -22.7390   -4.3790   21.3960 F   0  0  0  0  0  0  0  0  0  0  0  0
  -21.3940   -4.0010   25.9630 F   0  0  0  0  0  0  0  0  0  0  0  0
  -23.1440  -13.6550   21.3080 C   0  0  0  0  0  0  0  0  0  0  0  0
  -22.4950  -12.9200   22.2050 N   0  0  0  0  0  0  0  0  0  0  0  0
  -22.6740  -14.7140   20.8910 O   0  0  0  0  0  0  0  0  0  0  0  0
  -22.8920  -12.0670   22.5680 H   0  0  0  0  0  0  0  0  0  0  0  0
  -21.5890  -13.2200   22.5370 H   0  0  0  0  0  0  0  0  0  0  0  0
  -25.7090  -15.3330   20.3330 N   0  0  0  0  0  0  0  0  0  0  0  0
  -24.9620  -15.9830   20.5500 H   0  0  0  0  0  0  0  0  0  0  0  0
  -26.5340  -15.7870   19.9610 H   0  0  0  0  0  0  0  0  0  0  0  0
  -28.4450  -25.5600   20.7630 C   0  0  0  0  0  2  0  0  0  0  0  0
  -28.5270  -26.7420   19.9290 O   0  0  0  0  0  0  0  0  0  0  0  0
  -24.6720  -31.8480   23.1230 C   0  0  0  0  0  0  0  0  0  0  0  0
  -27.3770  -27.5070   19.9390 C   0  0  0  0  0  0  0  0  0  0  0  0
  -23.4850  -30.4650   21.4520 C   0  0  0  0  0  3  0  0  0  0  0  0
  -24.9620  -28.9840   19.9870 C   0  0  0  0  0  0  0  0  0  0  0  0
  -26.0060  -30.8660   21.2580 C   0  0  0  0  0  2  0  0  0  0  0  0
  -26.1140  -29.5110   20.5840 C   0  0  0  0  0  0  0  0  0  0  0  0
  -27.3280  -28.7810   20.5550 C   0  0  0  0  0  3  0  0  0  0  0  0
  -26.2110  -26.9990   19.3300 C   0  0  0  0  0  3  0  0  0  0  0  0
  -25.0050  -27.7280   19.3560 C   0  0  0  0  0  3  0  0  0  0  0  0
  -23.7030  -29.8210   20.0570 C   0  0  0  0  0  2  0  0  0  0  0  0
  -24.7390  -31.0730   22.0030 N   0  0  0  0  0  0  0  0  0  0  0  0
  -23.5880  -32.0900   23.6710 O   0  0  0  0  0  0  0  0  0  0  0  0
  -22.8500  -29.4130   22.3900 C   0  0  0  0  0  0  0  0  0  0  0  0
  -21.5250  -29.2310   22.2800 N   0  0  0  0  0  0  0  0  0  0  0  0
  -23.5490  -28.7610   23.1720 O   0  0  0  0  0  0  0  0  0  0  0  0
  -21.0210  -29.8080   21.6200 H   0  0  0  0  0  0  0  0  0  0  0  0
  -18.1550  -28.0470   22.8290 C   0  0  0  0  0  0  0  0  0  0  0  0
  -20.7230  -28.2660   23.0320 C   0  0  0  0  0  3  0  0  0  0  0  0
  -20.7910  -26.8620   22.3860 C   0  0  0  0  0  2  0  0  0  0  0  0
  -19.6540  -26.5980   21.3930 C   0  0  0  0  0  2  0  0  0  0  0  0
  -18.2950  -26.7270   22.0870 C   0  0  0  0  0  2  0  0  0  0  0  0
  -19.2950  -28.7760   23.2590 C   0  0  0  0  0  0  0  0  0  0  0  0
  -19.1100  -30.0130   23.9120 C   0  0  0  0  0  3  0  0  0  0  0  0
  -17.8160  -30.5210   24.1430 C   0  0  0  0  0  3  0  0  0  0  0  0
  -16.6920  -29.7850   23.7290 C   0  0  0  0  0  3  0  0  0  0  0  0
  -16.8620  -28.5510   23.0800 C   0  0  0  0  0  3  0  0  0  0  0  0
  -25.9480  -32.4850   23.7550 C   0  0  0  0  0  3  0  0  0  0  0  0
  -25.6180  -33.8700   24.1180 N   0  0  0  0  0  0  0  0  0  0  0  0
  -25.9310  -34.9440   23.3800 C   0  0  0  0  0  0  0  0  0  0  0  0
  -26.5980  -34.8720   22.3440 O   0  0  0  0  0  0  0  0  0  0  0  0
  -25.0250  -33.9980   24.9240 H   0  0  0  0  0  0  0  0  0  0  0  0
  -24.1760  -36.7170   23.0650 C   0  0  0  0  0  1  0  0  0  0  0  0
  -25.4230  -36.3140   23.8680 C   0  0  0  0  0  3  0  0  0  0  0  0
  -27.5390  -37.2170   24.7260 C   0  0  0  0  0  1  0  0  0  0  0  0
  -26.4390  -37.3840   23.7790 N   0  0  0  0  0  0  0  0  0  0  0  0
  -26.0180  -38.2950   23.9400 H   0  0  0  0  0  0  0  0  0  0  0  0
  -26.4820  -31.6920   25.0110 C   0  0  1  0  0  0  0  0  0  0  0  0
  -25.3950  -31.4070   26.0730 C   0  0  0  0  0  1  0  0  0  0  0  0
  -27.0910  -30.3360   24.5810 C   0  0  0  0  0  1  0  0  0  0  0  0
  -27.6180  -32.4910   25.6930 C   0  0  0  0  0  1  0  0  0  0  0  0
  1  8  1  0
  2  6  1  0
  2  8  1  0
  3  6  1  0
  3 51  1  0
  4  1  2  0
  5  4  1  0
  5  2  2  0
  6  9  1  0
  7  3  2  0
 10 22  1  0
 11 16  1  0
 12 13  1  0
 12 11  1  0
 14 13  1  0
 14 26  1  0
 14 15  1  0
 16 10  1  0
 16 15  1  0
 17 10  2  0
 19 18  1  0
 20 22  1  0
 20 21  1  0
 21  1  1  0
 21 18  1  0
 22 19  1  0
 23 24  2  0
 24 43  1  0
 25 24  1  0
 25 28  1  0
 26 27  1  0
 26 23  1  0
 27 25  2  0
 28 29  1  0
 29 30  2  0
 31 34  1  0
 31 30  1  0
 32 31  2  0
 33 32  1  0
 33 28  2  0
 34 35  1  0
 35 40  2  0
 35 36  1  0
 36 37  2  0
 38 37  1  0
 38 42  1  0
 39 38  2  0
 40 39  1  0
 41 40  1  0
 43 44  1  0
 44 47  1  0
 44 46  1  0
 45 43  2  0
 48 23  1  0
 48 49  1  0
 50 48  1  0
 52 54  1  0
 52 51  1  0
 53 64  2  0
 54 59  1  0
 55 63  1  0
 55 65  1  0
 56 62  1  0
 56 58  1  0
 57 63  1  0
 58 57  1  0
 59 58  2  0
 60 61  1  0
 60 54  2  0
 61 56  2  0
 62 55  1  0
 63 53  1  0
 65 67  2  0
 66 65  1  0
 68 66  1  0
 69 78  2  0
 69 74  1  0
 70 66  1  0
 70 74  1  0
 71 70  1  0
 72 73  1  0
 72 71  1  0
 73 69  1  0
 74 75  2  0
 75 76  1  0
 77 76  2  0
 78 77  1  0
 79 53  1  0
 79 80  1  0
 79 89  1  0
 80 83  1  0
 81 85  1  0
 81 80  1  0
 82 81  2  0
 85 84  1  0
 87 85  1  0
 87 88  1  0
 87 86  1  0
 89 92  1  1
 89 90  1  0
 91 89  1  0
M  ISO  4  10 100  22 100  51 101  52 101
M  END
>  <TORSDO>  (77) 
F 17

>  <SCORE>  (77) 
-13.979

>  <name>  (77) 
76

>  <ligand_id>  (77) 
76

>  <original_smiles>  (77) 
[H]c1c([H])c([H])c2c(c1[H])C([H])([H])C([H])([H])C([H])([H])C2([H])N([H])C(=O)C1([H])N(C(=O)C([H])(N([H])C(=O)C([H])(N([H])C([H])([H])[H])C([H])([H])[H])C(C([H])([H])[H])(C([H])([H])[H])C([H])([H])[H])C([H])([H])c2c([H])c(OC([H])([H])C(=O)N([H])c3nnc(C4([H])C([H])([H])N(C(=O)N5C([H])([H])C([H])([H])C([H])([H])C([H])(n6nc(-c7c([H])c([H])c(Oc8c([H])c([H])c(F)c([H])c8F)c([H])c7[H])c(C(=O)N([H])[H])c6N([H])[H])C5([H])[H])C([H])([H])C4([H])[H])s3)c([H])c([H])c2C1([H])[H]

>  <smiles>  (77) 
[H]c1c([H])c([H])c2c(c1[H])C([H])([H])C([H])([H])C([H])([H])C2([H])N([H])C(=O)C1([H])N(C(=O)C([H])(N([H])C(=O)C([H])(N([H])C([H])([H])[H])C([H])([H])[H])C(C([H])([H])[H])(C([H])([H])[H])C([H])([H])[H])C([H])([H])c2c([H])c(OC([H])([H])C(=O)N([H])c3nnc(C4([H])C([H])([H])N(C(=O)N5C([H])([H])C([H])([H])C([H])([H])C([H])(n6nc(-c7c([H])c([H])c(Oc8c([H])c([H])c(F)c([H])c8F)c([H])c7[H])c(C(=O)N([H])[H])c6N([H])[H])C5([H])[H])C([H])([H])C4([H])[H])s3)c([H])c([H])c2C1([H])[H]

$$$$
77:0:0
     RDKit          3D

 92101  0  0  1  0  0  0  0  0999 V2000
  -29.3510  -22.7460   20.2020 C   0  0  0  0  0  0  0  0  0  0  0  0
  -29.9860  -21.9280   21.0790 N   0  0  0  0  0  0  0  0  0  0  0  0
  -28.6460  -22.3180   19.2850 O   0  0  0  0  0  0  0  0  0  0  0  0
  -30.4750  -22.4300   21.8080 H   0  0  0  0  0  0  0  0  0  0  0  0
  -30.9080  -14.6350   20.0090 C   0  0  0  0  0  0  0  0  0  0  0  0
  -30.5390  -12.4570   18.8870 C   0  0  0  0  0  2  0  0  0  0  0  0
  -29.4850  -12.6360   17.7730 C   0  0  0  0  0  2  0  0  0  0  0  0
  -28.0630  -12.4640   18.3410 C   0  0  0  0  0  2  0  0  0  0  0  0
  -27.8290  -13.2910   19.6340 C   0  0  0  0  0  3  0  0  0  0  0  0
  -28.9900  -13.1060   20.6370 C   0  0  0  0  0  2  0  0  0  0  0  0
  -30.2410  -13.4440   19.9420 N   0  0  0  0  0  0  0  0  0  0  0  0
  -32.0010  -14.7930   19.4560 O   0  0  0  0  0  0  0  0  0  0  0  0
  -30.3440  -18.6270   22.8330 C   0  0  0  0  0  3  0  0  0  0  0  0
  -30.2390  -20.0090   22.5480 C   0  0  0  0  0  3  0  0  0  0  0  0
  -29.8920  -19.5310   20.1750 C   0  0  0  0  0  3  0  0  0  0  0  0
  -30.2330  -17.7090   21.7750 C   0  0  0  0  0  0  0  0  0  0  0  0
  -30.0240  -18.1430   20.4810 C   0  0  0  0  0  0  0  0  0  0  0  0
  -30.0030  -20.4900   21.2320 C   0  0  0  0  0  0  0  0  0  0  0  0
  -30.3320  -16.1970   21.8310 C   0  0  0  0  0  3  0  0  0  0  0  0
  -30.0010  -16.9240   19.5710 C   0  0  0  0  0  3  0  0  0  0  0  0
  -30.1920  -15.7170   20.4370 N   0  0  0  0  0  0  0  0  0  0  0  0
  -25.5380  -13.8580   20.6490 C   0  0  0  0  0  0  0  0  0  0  0  0
  -24.5020  -13.0690   21.0690 C   0  0  0  0  0  0  0  0  0  0  0  0
  -24.9320  -11.7200   20.8850 C   0  0  0  0  0  0  0  0  0  0  0  0
  -26.5350  -12.9880   20.2380 N   0  0  0  0  0  0  0  0  0  0  0  0
  -26.1820  -11.6930   20.4380 N   0  0  0  0  0  0  0  0  0  0  0  0
  -24.2080  -10.4540   21.0530 C   0  0  0  0  0  0  0  0  0  0  0  0
  -24.6430   -9.4690   21.9680 C   0  0  0  0  0  3  0  0  0  0  0  0
  -23.9180   -8.2690   22.1270 C   0  0  0  0  0  3  0  0  0  0  0  0
  -22.7440   -8.0440   21.3690 C   0  0  0  0  0  0  0  0  0  0  0  0
  -22.3280   -9.0160   20.4440 C   0  0  0  0  0  3  0  0  0  0  0  0
  -23.0530  -10.2090   20.2830 C   0  0  0  0  0  3  0  0  0  0  0  0
  -21.9910   -6.8970   21.4380 O   0  0  0  0  0  0  0  0  0  0  0  0
  -21.8320   -6.2090   22.6150 C   0  0  0  0  0  0  0  0  0  0  0  0
  -21.2780   -6.8150   23.7640 C   0  0  0  0  0  3  0  0  0  0  0  0
  -21.0690   -6.0540   24.9300 C   0  0  0  0  0  3  0  0  0  0  0  0
  -21.4010   -4.6860   24.9480 C   0  0  0  0  0  0  0  0  0  0  0  0
  -21.9470   -4.0780   23.8040 C   0  0  0  0  0  3  0  0  0  0  0  0
  -22.1590   -4.8380   22.6400 C   0  0  0  0  0  0  0  0  0  0  0  0
  -22.6650   -4.2440   21.5320 F   0  0  0  0  0  0  0  0  0  0  0  0
  -21.1930   -3.9510   26.0660 F   0  0  0  0  0  0  0  0  0  0  0  0
  -23.1500  -13.5380   21.5270 C   0  0  0  0  0  0  0  0  0  0  0  0
  -22.5230  -12.7990   22.4370 N   0  0  0  0  0  0  0  0  0  0  0  0
  -22.6660  -14.5900   21.1160 O   0  0  0  0  0  0  0  0  0  0  0  0
  -22.9310  -11.9450   22.7880 H   0  0  0  0  0  0  0  0  0  0  0  0
  -21.6220  -13.0940   22.7860 H   0  0  0  0  0  0  0  0  0  0  0  0
  -25.7090  -15.2360   20.5630 N   0  0  0  0  0  0  0  0  0  0  0  0
  -24.9740  -15.8900   20.8110 H   0  0  0  0  0  0  0  0  0  0  0  0
  -26.5420  -15.6910   20.2100 H   0  0  0  0  0  0  0  0  0  0  0  0
  -29.5580  -24.2900   20.3720 C   0  0  0  0  0  3  0  0  0  0  0  0
  -28.3490  -25.2050   19.9720 C   0  0  0  0  0  3  0  0  0  0  0  0
  -28.5160  -26.6400   20.2010 O   0  0  0  0  0  0  0  0  0  0  0  0
  -24.7330  -31.8590   23.3360 C   0  0  0  0  0  0  0  0  0  0  0  0
  -27.3710  -27.4370   20.1630 C   0  0  0  0  0  0  0  0  0  0  0  0
  -23.5350  -30.5110   21.6470 C   0  0  0  0  0  3  0  0  0  0  0  0
  -24.9940  -29.0070   20.1870 C   0  0  0  0  0  0  0  0  0  0  0  0
  -26.0710  -30.8490   21.4830 C   0  0  0  0  0  2  0  0  0  0  0  0
  -26.1550  -29.4930   20.8020 C   0  0  0  0  0  0  0  0  0  0  0  0
  -27.3460  -28.7170   20.7820 C   0  0  0  0  0  3  0  0  0  0  0  0
  -26.1870  -26.9920   19.5290 C   0  0  0  0  0  3  0  0  0  0  0  0
  -25.0090  -27.7590   19.5440 C   0  0  0  0  0  3  0  0  0  0  0  0
  -23.7540  -29.8740   20.2500 C   0  0  0  0  0  2  0  0  0  0  0  0
  -24.7980  -31.0860   22.2140 N   0  0  0  0  0  0  0  0  0  0  0  0
  -23.6480  -32.1230   23.8730 O   0  0  0  0  0  0  0  0  0  0  0  0
  -22.8680  -29.4670   22.5740 C   0  0  0  0  0  0  0  0  0  0  0  0
  -21.5440  -29.2900   22.4270 N   0  0  0  0  0  0  0  0  0  0  0  0
  -23.5400  -28.8200   23.3820 O   0  0  0  0  0  0  0  0  0  0  0  0
  -21.0630  -29.8650   21.7490 H   0  0  0  0  0  0  0  0  0  0  0  0
  -18.1610  -28.0950   22.8670 C   0  0  0  0  0  0  0  0  0  0  0  0
  -20.7180  -28.3330   23.1640 C   0  0  0  0  0  3  0  0  0  0  0  0
  -20.8180  -26.9190   22.5460 C   0  0  0  0  0  2  0  0  0  0  0  0
  -19.7220  -26.6320   21.5150 C   0  0  0  0  0  2  0  0  0  0  0  0
  -18.3360  -26.7650   22.1530 C   0  0  0  0  0  2  0  0  0  0  0  0
  -19.2800  -28.8390   23.3270 C   0  0  0  0  0  0  0  0  0  0  0  0
  -19.0630  -30.0850   23.9540 C   0  0  0  0  0  3  0  0  0  0  0  0
  -17.7590  -30.5890   24.1240 C   0  0  0  0  0  3  0  0  0  0  0  0
  -16.6550  -29.8410   23.6800 C   0  0  0  0  0  3  0  0  0  0  0  0
  -16.8560  -28.5960   23.0580 C   0  0  0  0  0  3  0  0  0  0  0  0
  -26.0150  -32.4680   23.9830 C   0  0  0  0  0  3  0  0  0  0  0  0
  -25.7190  -33.8670   24.3220 N   0  0  0  0  0  0  0  0  0  0  0  0
  -26.0610  -34.9220   23.5710 C   0  0  0  0  0  0  0  0  0  0  0  0
  -26.7310  -34.8190   22.5380 O   0  0  0  0  0  0  0  0  0  0  0  0
  -25.1250  -34.0210   25.1240 H   0  0  0  0  0  0  0  0  0  0  0  0
  -24.3380  -36.7240   23.2400 C   0  0  0  0  0  1  0  0  0  0  0  0
  -25.5860  -36.3110   24.0360 C   0  0  0  0  0  3  0  0  0  0  0  0
  -27.7320  -37.1860   24.8470 C   0  0  0  0  0  1  0  0  0  0  0  0
  -26.6220  -37.3590   23.9140 N   0  0  0  0  0  0  0  0  0  0  0  0
  -26.2220  -38.2810   24.0660 H   0  0  0  0  0  0  0  0  0  0  0  0
  -26.5040  -31.6770   25.2580 C   0  0  1  0  0  0  0  0  0  0  0  0
  -25.3920  -31.4380   26.3040 C   0  0  0  0  0  1  0  0  0  0  0  0
  -27.0780  -30.2970   24.8580 C   0  0  0  0  0  1  0  0  0  0  0  0
  -27.6520  -32.4500   25.9480 C   0  0  0  0  0  1  0  0  0  0  0  0
  1 50  1  0
  1  2  1  0
  2 18  1  0
  2  4  1  0
  3  1  2  0
  5 21  1  0
  6 11  1  0
  7  8  1  0
  7  6  1  0
  9  8  1  0
  9 25  1  0
  9 10  1  0
 11  5  1  0
 11 10  1  0
 12  5  2  0
 14 13  2  0
 15 17  1  0
 15 18  2  0
 16 19  2  0
 16 13  1  0
 17 16  1  0
 18 14  1  0
 20 21  1  0
 20 17  2  0
 21 19  1  0
 22 23  2  0
 23 42  1  0
 24 27  1  0
 24 23  1  0
 25 26  1  0
 25 22  1  0
 26 24  2  0
 27 28  1  0
 28 29  2  0
 30 33  1  0
 30 29  1  0
 31 30  2  0
 32 31  1  0
 32 27  2  0
 33 34  1  0
 34 39  2  0
 34 35  1  0
 35 36  2  0
 36 37  1  0
 37 41  1  0
 38 37  2  0
 39 38  1  0
 40 39  1  0
 42 43  1  0
 43 46  1  0
 43 45  1  0
 44 42  2  0
 47 22  1  0
 47 48  1  0
 49 47  1  0
 51 52  1  0
 51 50  2  0
 53 64  2  0
 54 52  1  0
 54 59  1  0
 55 63  1  0
 55 65  1  0
 56 62  1  0
 56 58  1  0
 57 63  1  0
 58 57  1  0
 59 58  2  0
 60 61  1  0
 60 54  2  0
 61 56  2  0
 62 55  1  0
 63 53  1  0
 65 67  2  0
 66 65  1  0
 68 66  1  0
 69 78  2  0
 69 74  1  0
 70 66  1  0
 70 74  1  0
 71 70  1  0
 72 73  1  0
 72 71  1  0
 73 69  1  0
 74 75  2  0
 75 76  1  0
 77 76  2  0
 78 77  1  0
 79 53  1  0
 79 80  1  0
 79 89  1  0
 80 83  1  0
 81 85  1  0
 81 80  1  0
 82 81  2  0
 85 84  1  0
 87 85  1  0
 87 88  1  0
 87 86  1  0
 89 92  1  1
 89 90  1  0
 91 89  1  0
M  ISO  4   5 100  21 100  51 101  52 101
M  END
>  <TORSDO>  (78) 
F 18

>  <SCORE>  (78) 
-12.977

>  <name>  (78) 
77

>  <ligand_id>  (78) 
77

>  <original_smiles>  (78) 
[H]c1c([H])c([H])c2c(c1[H])C([H])([H])C([H])([H])C([H])([H])C2([H])N([H])C(=O)C1([H])N(C(=O)C([H])(N([H])C(=O)C([H])(N([H])C([H])([H])[H])C([H])([H])[H])C(C([H])([H])[H])(C([H])([H])[H])C([H])([H])[H])C([H])([H])c2c([H])c(OC([H])([H])C([H])([H])C(=O)N([H])c3c([H])c([H])c4c(c3[H])C([H])([H])N(C(=O)N3C([H])([H])C([H])([H])C([H])([H])C([H])(n5nc(-c6c([H])c([H])c(Oc7c([H])c([H])c(F)c([H])c7F)c([H])c6[H])c(C(=O)N([H])[H])c5N([H])[H])C3([H])[H])C4([H])[H])c([H])c([H])c2C1([H])[H]

>  <smiles>  (78) 
[H]c1c([H])c([H])c2c(c1[H])C([H])([H])C([H])([H])C([H])([H])C2([H])N([H])C(=O)C1([H])N(C(=O)C([H])(N([H])C(=O)C([H])(N([H])C([H])([H])[H])C([H])([H])[H])C(C([H])([H])[H])(C([H])([H])[H])C([H])([H])[H])C([H])([H])c2c([H])c(OC([H])([H])C([H])([H])C(=O)N([H])c3c([H])c([H])c4c(c3[H])C([H])([H])N(C(=O)N3C([H])([H])C([H])([H])C([H])([H])C([H])(n5nc(-c6c([H])c([H])c(Oc7c([H])c([H])c(F)c([H])c7F)c([H])c6[H])c(C(=O)N([H])[H])c5N([H])[H])C3([H])[H])C4([H])[H])c([H])c([H])c2C1([H])[H]

$$$$
78:0:0
     RDKit          3D

 96104  0  0  1  0  0  0  0  0999 V2000
  -28.6730  -21.6300   20.4660 C   0  0  0  0  0  2  0  0  0  0  0  0
  -30.5990  -23.3020   20.7640 C   0  0  0  0  0  1  0  0  0  0  0  0
  -29.6310  -22.8360   18.4760 C   0  0  0  0  0  1  0  0  0  0  0  0
  -29.3010  -22.9950   19.9760 C   0  0  1  0  0  0  0  0  0  0  0  0
  -28.3360  -24.2220   20.1760 C   0  0  0  0  0  0  0  0  0  0  0  0
  -27.3660  -24.1520   20.9360 O   0  0  0  0  0  0  0  0  0  0  0  0
  -28.6240  -25.5450   19.4050 C   0  0  0  0  0  2  0  0  0  0  0  0
  -28.4170  -26.7390   20.1920 O   0  0  0  0  0  0  0  0  0  0  0  0
  -24.5840  -31.9010   23.2500 C   0  0  0  0  0  0  0  0  0  0  0  0
  -27.2260  -27.4460   20.1530 C   0  0  0  0  0  0  0  0  0  0  0  0
  -23.3730  -30.4980   21.6120 C   0  0  0  0  0  3  0  0  0  0  0  0
  -24.8240  -28.9600   20.1760 C   0  0  0  0  0  0  0  0  0  0  0  0
  -25.8970  -30.8550   21.4060 C   0  0  0  0  0  2  0  0  0  0  0  0
  -25.9820  -29.4810   20.7640 C   0  0  0  0  0  0  0  0  0  0  0  0
  -27.1790  -28.7290   20.7530 C   0  0  0  0  0  3  0  0  0  0  0  0
  -26.0460  -26.9410   19.5620 C   0  0  0  0  0  3  0  0  0  0  0  0
  -24.8510  -27.6900   19.5750 C   0  0  0  0  0  3  0  0  0  0  0  0
  -23.5770  -29.8160   20.2310 C   0  0  0  0  0  2  0  0  0  0  0  0
  -24.6360  -31.1000   22.1480 N   0  0  0  0  0  0  0  0  0  0  0  0
  -23.5040  -32.1730   23.7930 O   0  0  0  0  0  0  0  0  0  0  0  0
  -22.7240  -29.4790   22.5760 C   0  0  0  0  0  0  0  0  0  0  0  0
  -21.4000  -29.2940   22.4490 N   0  0  0  0  0  0  0  0  0  0  0  0
  -23.4090  -28.8560   23.3910 O   0  0  0  0  0  0  0  0  0  0  0  0
  -20.9080  -29.8450   21.7600 H   0  0  0  0  0  0  0  0  0  0  0  0
  -18.0290  -28.0900   22.9450 C   0  0  0  0  0  0  0  0  0  0  0  0
  -20.5860  -28.3570   23.2220 C   0  0  0  0  0  3  0  0  0  0  0  0
  -20.6940  -26.9250   22.6480 C   0  0  0  0  0  2  0  0  0  0  0  0
  -19.5940  -26.5970   21.6330 C   0  0  0  0  0  2  0  0  0  0  0  0
  -18.2110  -26.7400   22.2730 C   0  0  0  0  0  2  0  0  0  0  0  0
  -19.1450  -28.8560   23.3770 C   0  0  0  0  0  0  0  0  0  0  0  0
  -18.9210  -30.1200   23.9640 C   0  0  0  0  0  3  0  0  0  0  0  0
  -17.6150  -30.6200   24.1240 C   0  0  0  0  0  3  0  0  0  0  0  0
  -16.5140  -29.8500   23.7090 C   0  0  0  0  0  3  0  0  0  0  0  0
  -16.7220  -28.5880   23.1260 C   0  0  0  0  0  3  0  0  0  0  0  0
  -25.8720  -32.5310   23.8670 C   0  0  0  0  0  3  0  0  0  0  0  0
  -25.5660  -33.9310   24.1910 N   0  0  0  0  0  0  0  0  0  0  0  0
  -25.9030  -34.9790   23.4280 C   0  0  0  0  0  0  0  0  0  0  0  0
  -26.5710  -34.8700   22.3960 O   0  0  0  0  0  0  0  0  0  0  0  0
  -24.9710  -34.0910   24.9900 H   0  0  0  0  0  0  0  0  0  0  0  0
  -24.1770  -36.7730   23.0670 C   0  0  0  0  0  1  0  0  0  0  0  0
  -25.4190  -36.3710   23.8800 C   0  0  0  0  0  3  0  0  0  0  0  0
  -27.5580  -37.2510   24.7030 C   0  0  0  0  0  1  0  0  0  0  0  0
  -26.4550  -37.4210   23.7610 N   0  0  0  0  0  0  0  0  0  0  0  0
  -26.0510  -38.3420   23.9080 H   0  0  0  0  0  0  0  0  0  0  0  0
  -26.3910  -31.7630   25.1430 C   0  0  1  0  0  0  0  0  0  0  0  0
  -25.2990  -31.5320   26.2140 C   0  0  0  0  0  1  0  0  0  0  0  0
  -26.9680  -30.3830   24.7510 C   0  0  0  0  0  1  0  0  0  0  0  0
  -27.5480  -32.5550   25.7950 C   0  0  0  0  0  1  0  0  0  0  0  0
  -29.6450  -20.6150   20.9360 N   0  0  0  0  0  0  0  0  0  0  0  0
  -30.1830  -20.8890   21.7520 H   0  0  0  0  0  0  0  0  0  0  0  0
  -29.8560  -18.1410   21.3400 C   0  0  0  0  0  3  0  0  0  0  0  0
  -29.7440  -16.8970   20.6210 C   0  0  0  0  0  0  0  0  0  0  0  0
  -29.5900  -19.2540   20.5620 C   0  0  0  0  0  0  0  0  0  0  0  0
  -29.3890  -17.0690   19.3040 C   0  0  0  0  0  0  0  0  0  0  0  0
  -29.1970  -18.7680   18.9250 S   0  0  0  0  0  0  0  0  0  0  0  0
  -30.6410  -14.5870   20.8440 C   0  0  0  0  0  0  0  0  0  0  0  0
  -30.5050  -12.3320   19.8400 C   0  0  0  0  0  2  0  0  0  0  0  0
  -29.6490  -12.4290   18.5580 C   0  0  0  0  0  2  0  0  0  0  0  0
  -28.1450  -12.3110   18.8870 C   0  0  0  0  0  2  0  0  0  0  0  0
  -27.7070  -13.2080   20.0770 C   0  0  0  0  0  3  0  0  0  0  0  0
  -28.6850  -13.0540   21.2650 C   0  0  0  0  0  2  0  0  0  0  0  0
  -30.0370  -13.3660   20.7770 N   0  0  0  0  0  0  0  0  0  0  0  0
  -31.8040  -14.7770   20.4710 O   0  0  0  0  0  0  0  0  0  0  0  0
  -29.8410  -15.6020   21.2360 N   0  0  0  0  0  0  0  0  0  0  0  0
  -28.9900  -15.2930   21.6800 H   0  0  0  0  0  0  0  0  0  0  0  0
  -25.2690  -13.8280   20.6170 C   0  0  0  0  0  0  0  0  0  0  0  0
  -24.1800  -13.0610   20.9330 C   0  0  0  0  0  0  0  0  0  0  0  0
  -24.6450  -11.7110   20.9620 C   0  0  0  0  0  0  0  0  0  0  0  0
  -26.3280  -12.9440   20.4740 N   0  0  0  0  0  0  0  0  0  0  0  0
  -25.9530  -11.6680   20.7410 N   0  0  0  0  0  0  0  0  0  0  0  0
  -23.9130  -10.4490   21.1290 C   0  0  0  0  0  0  0  0  0  0  0  0
  -24.3060   -9.4880   22.0860 C   0  0  0  0  0  3  0  0  0  0  0  0
  -23.5760   -8.2920   22.2420 C   0  0  0  0  0  3  0  0  0  0  0  0
  -22.4380   -8.0460   21.4380 C   0  0  0  0  0  0  0  0  0  0  0  0
  -22.0630   -8.9950   20.4700 C   0  0  0  0  0  3  0  0  0  0  0  0
  -22.7950  -10.1840   20.3120 C   0  0  0  0  0  3  0  0  0  0  0  0
  -21.6800   -6.9020   21.5020 O   0  0  0  0  0  0  0  0  0  0  0  0
  -21.5970   -6.1560   22.6500 C   0  0  0  0  0  0  0  0  0  0  0  0
  -21.1380   -6.7100   23.8650 C   0  0  0  0  0  3  0  0  0  0  0  0
  -21.0030   -5.8930   25.0040 C   0  0  0  0  0  3  0  0  0  0  0  0
  -21.3140   -4.5220   24.9290 C   0  0  0  0  0  0  0  0  0  0  0  0
  -21.7680   -3.9680   23.7190 C   0  0  0  0  0  3  0  0  0  0  0  0
  -21.9050   -4.7840   22.5820 C   0  0  0  0  0  0  0  0  0  0  0  0
  -22.3200   -4.2390   21.4120 F   0  0  0  0  0  0  0  0  0  0  0  0
  -21.1780   -3.7340   26.0210 F   0  0  0  0  0  0  0  0  0  0  0  0
  -22.7680  -13.5380   21.1040 C   0  0  0  0  0  0  0  0  0  0  0  0
  -21.9880  -12.8570   21.9370 N   0  0  0  0  0  0  0  0  0  0  0  0
  -22.3600  -14.5490   20.5340 O   0  0  0  0  0  0  0  0  0  0  0  0
  -22.3280  -12.0390   22.4200 H   0  0  0  0  0  0  0  0  0  0  0  0
  -21.0370  -13.1590   22.0940 H   0  0  0  0  0  0  0  0  0  0  0  0
  -25.4460  -15.1960   20.4210 N   0  0  0  0  0  0  0  0  0  0  0  0
  -24.6750  -15.8530   20.4650 H   0  0  0  0  0  0  0  0  0  0  0  0
  -26.3100  -15.6180   20.1080 H   0  0  0  0  0  0  0  0  0  0  0  0
  -29.1380  -16.1130   18.3260 N   0  0  0  0  0  0  0  0  0  0  0  0
  -29.1980  -15.1120   18.4590 H   0  0  0  0  0  0  0  0  0  0  0  0
  -28.9430  -16.3650   17.3610 H   0  0  0  0  0  0  0  0  0  0  0  0
  1 49  1  0
  4  3  1  6
  4  5  1  0
  4  1  1  0
  4  2  1  0
  5  6  2  0
  7  5  1  0
  7  8  1  0
  9 20  2  0
 10  8  1  0
 10 15  1  0
 11 19  1  0
 11 21  1  0
 12 18  1  0
 12 14  1  0
 13 19  1  0
 14 13  1  0
 15 14  2  0
 16 17  1  0
 16 10  2  0
 17 12  2  0
 18 11  1  0
 19  9  1  0
 21 23  2  0
 22 21  1  0
 24 22  1  0
 25 34  2  0
 25 30  1  0
 26 22  1  0
 26 30  1  0
 27 26  1  0
 28 29  1  0
 28 27  1  0
 29 25  1  0
 30 31  2  0
 31 32  1  0
 33 32  2  0
 34 33  1  0
 35  9  1  0
 35 36  1  0
 35 45  1  0
 36 39  1  0
 37 41  1  0
 37 36  1  0
 38 37  2  0
 41 40  1  0
 43 41  1  0
 43 44  1  0
 43 42  1  0
 45 48  1  1
 45 46  1  0
 47 45  1  0
 49 50  1  0
 52 64  1  0
 52 51  1  0
 53 49  1  0
 53 51  2  0
 54 52  2  0
 55 54  1  0
 55 53  1  0
 56 64  1  0
 57 62  1  0
 58 59  1  0
 58 57  1  0
 60 59  1  0
 60 69  1  0
 60 61  1  0
 62 56  1  0
 62 61  1  0
 63 56  2  0
 64 65  1  0
 66 67  2  0
 67 68  1  0
 67 86  1  0
 68 71  1  0
 69 66  1  0
 69 70  1  0
 70 68  2  0
 71 72  1  0
 72 73  2  0
 74 77  1  0
 74 73  1  0
 75 74  2  0
 76 75  1  0
 76 71  2  0
 77 78  1  0
 78 79  1  0
 79 80  2  0
 81 80  1  0
 81 85  1  0
 82 81  2  0
 83 78  2  0
 83 82  1  0
 84 83  1  0
 86 87  1  0
 87 90  1  0
 87 89  1  0
 88 86  2  0
 91 92  1  0
 91 66  1  0
 93 91  1  0
 94 95  1  0
 94 54  1  0
 96 94  1  0
M  ISO  4   7 101   8 101  56 100  64 100
M  END
>  <TORSDO>  (79) 
F 22

>  <SCORE>  (79) 
-12.992

>  <name>  (79) 
78

>  <ligand_id>  (79) 
78

>  <original_smiles>  (79) 
[H]c1c([H])c([H])c2c(c1[H])C([H])([H])C([H])([H])C([H])([H])C2([H])N([H])C(=O)C1([H])N(C(=O)C([H])(N([H])C(=O)C([H])(N([H])C([H])([H])[H])C([H])([H])[H])C(C([H])([H])[H])(C([H])([H])[H])C([H])([H])[H])C([H])([H])c2c([H])c(OC([H])([H])C(=O)C(C([H])([H])[H])(C([H])([H])[H])C([H])([H])N([H])c3sc(N([H])[H])c(N([H])C(=O)N4C([H])([H])C([H])([H])C([H])([H])C([H])(n5nc(-c6c([H])c([H])c(Oc7c([H])c([H])c(F)c([H])c7F)c([H])c6[H])c(C(=O)N([H])[H])c5N([H])[H])C4([H])[H])c3[H])c([H])c([H])c2C1([H])[H]

>  <smiles>  (79) 
[H]c1c([H])c([H])c2c(c1[H])C([H])([H])C([H])([H])C([H])([H])C2([H])N([H])C(=O)C1([H])N(C(=O)C([H])(N([H])C(=O)C([H])(N([H])C([H])([H])[H])C([H])([H])[H])C(C([H])([H])[H])(C([H])([H])[H])C([H])([H])[H])C([H])([H])c2c([H])c(OC([H])([H])C(=O)C(C([H])([H])[H])(C([H])([H])[H])C([H])([H])N([H])c3sc(N([H])[H])c(N([H])C(=O)N4C([H])([H])C([H])([H])C([H])([H])C([H])(n5nc(-c6c([H])c([H])c(Oc7c([H])c([H])c(F)c([H])c7F)c([H])c6[H])c(C(=O)N([H])[H])c5N([H])[H])C4([H])[H])c3[H])c([H])c([H])c2C1([H])[H]

$$$$
79:0:0
     RDKit          3D

 97106  0  0  1  0  0  0  0  0999 V2000
  -30.1580  -20.1420   19.6780 C   0  0  0  0  0  3  0  0  0  0  0  0
  -29.1690  -23.7810   19.3330 C   0  0  0  0  0  2  0  0  0  0  0  0
  -28.8140  -23.0570   21.6660 C   0  0  0  0  0  2  0  0  0  0  0  0
  -30.1130  -22.5720   19.1050 C   0  0  0  0  0  2  0  0  0  0  0  0
  -29.7560  -21.8440   21.4760 C   0  0  0  0  0  2  0  0  0  0  0  0
  -29.1720  -24.2800   20.7880 C   0  0  1  0  0  0  0  0  0  0  0  0
  -29.9180  -21.4410   20.0600 N   0  0  0  0  0  0  0  0  0  0  0  0
  -30.2980  -19.8580   18.3710 N   0  0  0  0  0  0  0  0  0  0  0  0
  -30.5200  -18.9180   18.0790 H   0  0  0  0  0  0  0  0  0  0  0  0
  -30.2090  -20.5620   17.6560 H   0  0  0  0  0  0  0  0  0  0  0  0
  -29.8600  -17.7030   20.3490 C   0  0  0  0  0  3  0  0  0  0  0  0
  -31.1110  -17.3370   22.3010 C   0  0  0  0  0  3  0  0  0  0  0  0
  -30.3540  -16.7660   21.3120 C   0  0  0  0  0  0  0  0  0  0  0  0
  -30.3110  -18.9890   20.5660 C   0  0  0  0  0  0  0  0  0  0  0  0
  -31.3070  -19.0490   22.0120 S   0  0  0  0  0  0  0  0  0  0  0  0
  -30.6330  -14.4680   20.4700 C   0  0  0  0  0  0  0  0  0  0  0  0
  -30.3030  -12.3590   19.2250 C   0  0  0  0  0  2  0  0  0  0  0  0
  -29.3500  -12.5930   18.0360 C   0  0  0  0  0  2  0  0  0  0  0  0
  -27.8800  -12.4460   18.4750 C   0  0  0  0  0  2  0  0  0  0  0  0
  -27.5560  -13.2550   19.7590 C   0  0  0  0  0  3  0  0  0  0  0  0
  -28.6160  -12.9970   20.8540 C   0  0  0  0  0  2  0  0  0  0  0  0
  -29.9440  -13.3050   20.2940 N   0  0  0  0  0  0  0  0  0  0  0  0
  -31.7040  -14.7010   19.9030 O   0  0  0  0  0  0  0  0  0  0  0  0
  -30.0490  -15.3770   21.2760 N   0  0  0  0  0  0  0  0  0  0  0  0
  -29.2010  -15.0790   21.7330 H   0  0  0  0  0  0  0  0  0  0  0  0
  -25.1550  -13.8610   20.4720 C   0  0  0  0  0  0  0  0  0  0  0  0
  -24.0910  -13.0870   20.8490 C   0  0  0  0  0  0  0  0  0  0  0  0
  -24.5550  -11.7360   20.8190 C   0  0  0  0  0  0  0  0  0  0  0  0
  -26.2020  -12.9810   20.2390 N   0  0  0  0  0  0  0  0  0  0  0  0
  -25.8430  -11.6990   20.5040 N   0  0  0  0  0  0  0  0  0  0  0  0
  -23.8330  -10.4720   21.0180 C   0  0  0  0  0  0  0  0  0  0  0  0
  -24.2710   -9.5120   21.9560 C   0  0  0  0  0  3  0  0  0  0  0  0
  -23.5490   -8.3120   22.1390 C   0  0  0  0  0  3  0  0  0  0  0  0
  -22.3770   -8.0650   21.3850 C   0  0  0  0  0  0  0  0  0  0  0  0
  -21.9580   -9.0170   20.4370 C   0  0  0  0  0  3  0  0  0  0  0  0
  -22.6800  -10.2070   20.2520 C   0  0  0  0  0  3  0  0  0  0  0  0
  -21.6290   -6.9170   21.4770 O   0  0  0  0  0  0  0  0  0  0  0  0
  -21.5850   -6.1770   22.6320 C   0  0  0  0  0  0  0  0  0  0  0  0
  -21.1560   -6.7310   23.8570 C   0  0  0  0  0  3  0  0  0  0  0  0
  -21.0600   -5.9170   25.0030 C   0  0  0  0  0  3  0  0  0  0  0  0
  -21.3830   -4.5500   24.9260 C   0  0  0  0  0  0  0  0  0  0  0  0
  -21.8060   -3.9940   23.7040 C   0  0  0  0  0  3  0  0  0  0  0  0
  -21.9020   -4.8050   22.5600 C   0  0  0  0  0  0  0  0  0  0  0  0
  -22.2900   -4.2610   21.3820 F   0  0  0  0  0  0  0  0  0  0  0  0
  -21.2820   -3.7660   26.0240 F   0  0  0  0  0  0  0  0  0  0  0  0
  -22.6940  -13.5620   21.1260 C   0  0  0  0  0  0  0  0  0  0  0  0
  -21.9690  -12.8650   21.9950 N   0  0  0  0  0  0  0  0  0  0  0  0
  -22.2530  -14.5890   20.6100 O   0  0  0  0  0  0  0  0  0  0  0  0
  -22.3380  -12.0360   22.4350 H   0  0  0  0  0  0  0  0  0  0  0  0
  -21.0310  -13.1670   22.2210 H   0  0  0  0  0  0  0  0  0  0  0  0
  -25.3180  -15.2310   20.2930 N   0  0  0  0  0  0  0  0  0  0  0  0
  -24.5490  -15.8840   20.3930 H   0  0  0  0  0  0  0  0  0  0  0  0
  -26.1660  -15.6690   19.9540 H   0  0  0  0  0  0  0  0  0  0  0  0
  -30.4610  -24.7310   21.1640 O   0  0  0  0  0  0  0  0  0  0  0  0
  -30.5700  -25.6030   20.7960 H   0  0  0  0  0  0  0  0  0  0  0  0
  -28.1880  -25.4590   21.0560 C   0  0  0  0  0  2  0  0  0  0  0  0
  -28.3700  -26.6380   20.2390 O   0  0  0  0  0  0  0  0  0  0  0  0
  -24.5940  -31.9010   23.2420 C   0  0  0  0  0  0  0  0  0  0  0  0
  -27.2430  -27.4340   20.1960 C   0  0  0  0  0  0  0  0  0  0  0  0
  -23.3950  -30.4940   21.5990 C   0  0  0  0  0  3  0  0  0  0  0  0
  -24.8570  -28.9540   20.1820 C   0  0  0  0  0  0  0  0  0  0  0  0
  -25.9230  -30.8480   21.4110 C   0  0  0  0  0  2  0  0  0  0  0  0
  -26.0140  -29.4760   20.7750 C   0  0  0  0  0  0  0  0  0  0  0  0
  -27.2140  -28.7240   20.7770 C   0  0  0  0  0  3  0  0  0  0  0  0
  -26.0720  -26.9380   19.5820 C   0  0  0  0  0  3  0  0  0  0  0  0
  -24.8810  -27.6850   19.5780 C   0  0  0  0  0  3  0  0  0  0  0  0
  -23.6100  -29.8110   20.2220 C   0  0  0  0  0  2  0  0  0  0  0  0
  -24.6560  -31.0960   22.1430 N   0  0  0  0  0  0  0  0  0  0  0  0
  -23.5090  -32.1750   23.7770 O   0  0  0  0  0  0  0  0  0  0  0  0
  -22.7390  -29.4770   22.5610 C   0  0  0  0  0  0  0  0  0  0  0  0
  -21.4130  -29.2990   22.4310 N   0  0  0  0  0  0  0  0  0  0  0  0
  -23.4190  -28.8510   23.3780 O   0  0  0  0  0  0  0  0  0  0  0  0
  -20.9260  -29.8520   21.7400 H   0  0  0  0  0  0  0  0  0  0  0  0
  -18.0330  -28.1240   22.9350 C   0  0  0  0  0  0  0  0  0  0  0  0
  -20.5930  -28.3650   23.2020 C   0  0  0  0  0  3  0  0  0  0  0  0
  -20.6860  -26.9360   22.6230 C   0  0  0  0  0  2  0  0  0  0  0  0
  -19.5810  -26.6210   21.6100 C   0  0  0  0  0  2  0  0  0  0  0  0
  -18.2010  -26.7740   22.2570 C   0  0  0  0  0  2  0  0  0  0  0  0
  -19.1580  -28.8780   23.3650 C   0  0  0  0  0  0  0  0  0  0  0  0
  -18.9490  -30.1420   23.9590 C   0  0  0  0  0  3  0  0  0  0  0  0
  -17.6490  -30.6510   24.1280 C   0  0  0  0  0  3  0  0  0  0  0  0
  -16.5380  -29.8950   23.7150 C   0  0  0  0  0  3  0  0  0  0  0  0
  -16.7310  -28.6340   23.1230 C   0  0  0  0  0  3  0  0  0  0  0  0
  -25.8770  -32.5340   23.8650 C   0  0  0  0  0  3  0  0  0  0  0  0
  -26.3910  -31.7680   25.1460 C   0  0  1  0  0  0  0  0  0  0  0  0
  -25.2950  -31.5360   26.2120 C   0  0  0  0  0  1  0  0  0  0  0  0
  -26.9740  -30.3880   24.7600 C   0  0  0  0  0  1  0  0  0  0  0  0
  -27.5380  -32.5660   25.8080 C   0  0  0  0  0  1  0  0  0  0  0  0
  -25.5680  -33.9330   24.1860 N   0  0  0  0  0  0  0  0  0  0  0  0
  -25.9080  -34.9820   23.4240 C   0  0  0  0  0  0  0  0  0  0  0  0
  -26.5850  -34.8730   22.3980 O   0  0  0  0  0  0  0  0  0  0  0  0
  -24.9670  -34.0920   24.9800 H   0  0  0  0  0  0  0  0  0  0  0  0
  -24.1880  -36.7780   23.0430 C   0  0  0  0  0  1  0  0  0  0  0  0
  -25.4180  -36.3720   23.8700 C   0  0  0  0  0  3  0  0  0  0  0  0
  -27.5440  -37.2550   24.7260 C   0  0  0  0  0  1  0  0  0  0  0  0
  -26.4540  -37.4230   23.7680 N   0  0  0  0  0  0  0  0  0  0  0  0
  -26.0470  -38.3430   23.9100 H   0  0  0  0  0  0  0  0  0  0  0  0
  1  8  1  0
  1  7  1  0
  1 14  1  0
  2  6  1  0
  4  2  1  0
  4  7  1  0
  5  3  1  0
  6 56  1  6
  6 54  1  0
  6  3  1  0
  7  5  1  0
  9  8  1  0
 10  8  1  0
 11 14  2  0
 11 13  1  0
 13 12  2  0
 14 15  1  0
 15 12  1  0
 16 24  1  0
 17 22  1  0
 18 19  1  0
 18 17  1  0
 20 19  1  0
 20 29  1  0
 20 21  1  0
 22 16  1  0
 22 21  1  0
 23 16  2  0
 24 13  1  0
 24 25  1  0
 26 27  2  0
 27 46  1  0
 28 27  1  0
 28 31  1  0
 29 26  1  0
 29 30  1  0
 30 28  2  0
 31 32  1  0
 32 33  2  0
 34 37  1  0
 34 33  1  0
 35 34  2  0
 36 35  1  0
 36 31  2  0
 37 38  1  0
 38 39  1  0
 39 40  2  0
 41 40  1  0
 41 45  1  0
 42 41  2  0
 43 38  2  0
 43 42  1  0
 44 43  1  0
 46 47  1  0
 47 50  1  0
 47 49  1  0
 48 46  2  0
 51 52  1  0
 51 26  1  0
 53 51  1  0
 55 54  1  0
 57 56  1  0
 58 69  2  0
 59 57  1  0
 59 64  1  0
 60 68  1  0
 60 70  1  0
 61 67  1  0
 61 63  1  0
 62 68  1  0
 63 64  2  0
 63 62  1  0
 65 59  2  0
 66 65  1  0
 66 61  2  0
 67 60  1  0
 68 58  1  0
 70 72  2  0
 71 70  1  0
 73 71  1  0
 74 83  2  0
 74 79  1  0
 75 71  1  0
 75 79  1  0
 76 75  1  0
 77 78  1  0
 77 76  1  0
 78 74  1  0
 79 80  2  0
 80 81  1  0
 82 81  2  0
 83 82  1  0
 84 58  1  0
 84 89  1  0
 84 85  1  0
 85 88  1  1
 85 86  1  0
 87 85  1  0
 89 92  1  0
 90 94  1  0
 90 89  1  0
 91 90  2  0
 94 93  1  0
 96 94  1  0
 96 97  1  0
 96 95  1  0
M  ISO  4  16 100  24 100  56 101  57 101
M  END
>  <TORSDO>  (80) 
F 19

>  <SCORE>  (80) 
-14.719

>  <name>  (80) 
79

>  <ligand_id>  (80) 
79

>  <original_smiles>  (80) 
[H]OC1(C([H])([H])Oc2c([H])c([H])c3c(c2[H])C([H])([H])N(C(=O)C([H])(N([H])C(=O)C([H])(N([H])C([H])([H])[H])C([H])([H])[H])C(C([H])([H])[H])(C([H])([H])[H])C([H])([H])[H])C([H])(C(=O)N([H])C2([H])c4c([H])c([H])c([H])c([H])c4C([H])([H])C([H])([H])C2([H])[H])C3([H])[H])C([H])([H])C([H])([H])N(C(c2sc([H])c(N([H])C(=O)N3C([H])([H])C([H])([H])C([H])([H])C([H])(n4nc(-c5c([H])c([H])c(Oc6c([H])c([H])c(F)c([H])c6F)c([H])c5[H])c(C(=O)N([H])[H])c4N([H])[H])C3([H])[H])c2[H])=[N+]([H])[H])C([H])([H])C1([H])[H]

>  <smiles>  (80) 
[H]OC1(C([H])([H])Oc2c([H])c([H])c3c(c2[H])C([H])([H])N(C(=O)C([H])(N([H])C(=O)C([H])(N([H])C([H])([H])[H])C([H])([H])[H])C(C([H])([H])[H])(C([H])([H])[H])C([H])([H])[H])C([H])(C(=O)N([H])C2([H])c4c([H])c([H])c([H])c([H])c4C([H])([H])C([H])([H])C2([H])[H])C3([H])[H])C([H])([H])C([H])([H])N(C(c2sc([H])c(N([H])C(=O)N3C([H])([H])C([H])([H])C([H])([H])C([H])(n4nc(-c5c([H])c([H])c(Oc6c([H])c([H])c(F)c([H])c6F)c([H])c5[H])c(C(=O)N([H])[H])c4N([H])[H])C3([H])[H])c2[H])=[N+]([H])[H])C([H])([H])C1([H])[H]

$$$$
80:0:0
     RDKit          3D

 93102  0  0  1  0  0  0  0  0999 V2000
  -30.1330  -20.9080   19.3850 C   0  0  0  0  0  3  0  0  0  0  0  0
  -30.5860  -19.5300   19.4470 C   0  0  0  0  0  0  0  0  0  0  0  0
  -29.9640  -18.7360   20.3920 C   0  0  0  0  0  0  0  0  0  0  0  0
  -29.2020  -21.2870   20.3300 C   0  0  0  0  0  0  0  0  0  0  0  0
  -31.7680  -19.0330   18.6590 C   0  0  0  0  0  2  0  0  0  0  0  0
  -32.4940  -17.8250   19.3020 C   0  0  0  0  0  2  0  0  0  0  0  0
  -32.0820  -17.5200   20.7650 C   0  0  0  0  0  2  0  0  0  0  0  0
  -30.5460  -17.3650   20.9110 C   0  0  0  0  0  3  0  0  0  0  0  0
  -28.8130  -19.7970   21.2530 S   0  0  0  0  0  0  0  0  0  0  0  0
  -30.6660  -14.7840   20.1960 C   0  0  0  0  0  0  0  0  0  0  0  0
  -30.3480  -12.5420   19.1400 C   0  0  0  0  0  2  0  0  0  0  0  0
  -29.3850  -12.6410   17.9390 C   0  0  0  0  0  2  0  0  0  0  0  0
  -27.9300  -12.4650   18.4110 C   0  0  0  0  0  2  0  0  0  0  0  0
  -27.5920  -13.3400   19.6480 C   0  0  0  0  0  3  0  0  0  0  0  0
  -28.6850  -13.2640   20.7380 C   0  0  0  0  0  2  0  0  0  0  0  0
  -29.9620  -13.6050   20.1010 N   0  0  0  0  0  0  0  0  0  0  0  0
  -31.8460  -14.7810   19.8480 O   0  0  0  0  0  0  0  0  0  0  0  0
  -30.0120  -15.9740   20.5070 N   0  0  0  0  0  0  0  0  0  0  0  0
  -29.0200  -15.8620   20.6510 H   0  0  0  0  0  0  0  0  0  0  0  0
  -25.2200  -13.9090   20.4380 C   0  0  0  0  0  0  0  0  0  0  0  0
  -24.1680  -13.1250   20.8290 C   0  0  0  0  0  0  0  0  0  0  0  0
  -24.6410  -11.7780   20.7870 C   0  0  0  0  0  0  0  0  0  0  0  0
  -26.2650  -13.0390   20.1760 N   0  0  0  0  0  0  0  0  0  0  0  0
  -25.9260  -11.7520   20.4500 N   0  0  0  0  0  0  0  0  0  0  0  0
  -23.9270  -10.5110   20.9900 C   0  0  0  0  0  0  0  0  0  0  0  0
  -24.3790   -9.5480   21.9210 C   0  0  0  0  0  3  0  0  0  0  0  0
  -23.6630   -8.3470   22.1120 C   0  0  0  0  0  3  0  0  0  0  0  0
  -22.4830   -8.0980   21.3740 C   0  0  0  0  0  0  0  0  0  0  0  0
  -22.0500   -9.0480   20.4320 C   0  0  0  0  0  3  0  0  0  0  0  0
  -22.7660  -10.2410   20.2370 C   0  0  0  0  0  3  0  0  0  0  0  0
  -21.7370   -6.9490   21.4750 O   0  0  0  0  0  0  0  0  0  0  0  0
  -21.7030   -6.2130   22.6320 C   0  0  0  0  0  0  0  0  0  0  0  0
  -21.2710   -6.7670   23.8560 C   0  0  0  0  0  3  0  0  0  0  0  0
  -21.1860   -5.9560   25.0060 C   0  0  0  0  0  3  0  0  0  0  0  0
  -21.5230   -4.5910   24.9320 C   0  0  0  0  0  0  0  0  0  0  0  0
  -21.9470   -4.0360   23.7120 C   0  0  0  0  0  3  0  0  0  0  0  0
  -22.0330   -4.8430   22.5640 C   0  0  0  0  0  0  0  0  0  0  0  0
  -22.4220   -4.2980   21.3870 F   0  0  0  0  0  0  0  0  0  0  0  0
  -21.4340   -3.8100   26.0340 F   0  0  0  0  0  0  0  0  0  0  0  0
  -22.7740  -13.5920   21.1300 C   0  0  0  0  0  0  0  0  0  0  0  0
  -22.0690  -12.8890   22.0090 N   0  0  0  0  0  0  0  0  0  0  0  0
  -22.3210  -14.6160   20.6210 O   0  0  0  0  0  0  0  0  0  0  0  0
  -22.4490  -12.0600   22.4410 H   0  0  0  0  0  0  0  0  0  0  0  0
  -21.1350  -13.1850   22.2540 H   0  0  0  0  0  0  0  0  0  0  0  0
  -25.3690  -15.2810   20.2590 N   0  0  0  0  0  0  0  0  0  0  0  0
  -24.6000  -15.9280   20.3880 H   0  0  0  0  0  0  0  0  0  0  0  0
  -26.1990  -15.7250   19.8890 H   0  0  0  0  0  0  0  0  0  0  0  0
  -28.9150  -23.8280   20.1540 C   0  0  0  0  0  0  0  0  0  0  0  0
  -28.6450  -22.5450   20.6110 N   0  0  0  0  0  0  0  0  0  0  0  0
  -29.7770  -24.0420   19.2980 O   0  0  0  0  0  0  0  0  0  0  0  0
  -27.9210  -22.5260   21.3190 H   0  0  0  0  0  0  0  0  0  0  0  0
  -28.0930  -25.0670   20.7450 C   0  0  0  0  0  2  0  0  0  0  0  0
  -28.3760  -26.4560   20.2400 O   0  0  0  0  0  0  0  0  0  0  0  0
  -24.6120  -31.9050   23.2190 C   0  0  0  0  0  0  0  0  0  0  0  0
  -27.2860  -27.3480   20.1920 C   0  0  0  0  0  0  0  0  0  0  0  0
  -23.4410  -30.5080   21.5550 C   0  0  0  0  0  3  0  0  0  0  0  0
  -24.9220  -28.9710   20.1420 C   0  0  0  0  0  0  0  0  0  0  0  0
  -25.9840  -30.8350   21.4130 C   0  0  0  0  0  2  0  0  0  0  0  0
  -26.0810  -29.4580   20.7620 C   0  0  0  0  0  0  0  0  0  0  0  0
  -27.2700  -28.6590   20.7740 C   0  0  0  0  0  3  0  0  0  0  0  0
  -26.1100  -26.9320   19.5320 C   0  0  0  0  0  3  0  0  0  0  0  0
  -24.9410  -27.7170   19.5160 C   0  0  0  0  0  3  0  0  0  0  0  0
  -23.6810  -29.8410   20.1750 C   0  0  0  0  0  2  0  0  0  0  0  0
  -24.6970  -31.1010   22.1190 N   0  0  0  0  0  0  0  0  0  0  0  0
  -23.5190  -32.1750   23.7380 O   0  0  0  0  0  0  0  0  0  0  0  0
  -22.7680  -29.4840   22.5000 C   0  0  0  0  0  0  0  0  0  0  0  0
  -21.4460  -29.2980   22.3500 N   0  0  0  0  0  0  0  0  0  0  0  0
  -23.4370  -28.8610   23.3290 O   0  0  0  0  0  0  0  0  0  0  0  0
  -20.9660  -29.8510   21.6540 H   0  0  0  0  0  0  0  0  0  0  0  0
  -18.0680  -28.0780   22.7940 C   0  0  0  0  0  0  0  0  0  0  0  0
  -20.6200  -28.3520   23.1050 C   0  0  0  0  0  3  0  0  0  0  0  0
  -20.7400  -26.9240   22.5250 C   0  0  0  0  0  2  0  0  0  0  0  0
  -19.6550  -26.5990   21.4930 C   0  0  0  0  0  2  0  0  0  0  0  0
  -18.2630  -26.7330   22.1150 C   0  0  0  0  0  2  0  0  0  0  0  0
  -19.1760  -28.8450   23.2450 C   0  0  0  0  0  0  0  0  0  0  0  0
  -18.9400  -30.1040   23.8400 C   0  0  0  0  0  3  0  0  0  0  0  0
  -17.6290  -30.5960   23.9870 C   0  0  0  0  0  3  0  0  0  0  0  0
  -16.5360  -29.8260   23.5540 C   0  0  0  0  0  3  0  0  0  0  0  0
  -16.7570  -28.5680   22.9640 C   0  0  0  0  0  3  0  0  0  0  0  0
  -25.8810  -32.5420   23.8640 C   0  0  0  0  0  3  0  0  0  0  0  0
  -25.5610  -33.9400   24.1900 N   0  0  0  0  0  0  0  0  0  0  0  0
  -25.8990  -34.9950   23.4370 C   0  0  0  0  0  0  0  0  0  0  0  0
  -26.5830  -34.8950   22.4150 O   0  0  0  0  0  0  0  0  0  0  0  0
  -24.9560  -34.0920   24.9840 H   0  0  0  0  0  0  0  0  0  0  0  0
  -24.1710  -36.7840   23.0590 C   0  0  0  0  0  1  0  0  0  0  0  0
  -25.4010  -36.3810   23.8900 C   0  0  0  0  0  3  0  0  0  0  0  0
  -27.5180  -37.2720   24.7600 C   0  0  0  0  0  1  0  0  0  0  0  0
  -26.4320  -37.4370   23.7950 N   0  0  0  0  0  0  0  0  0  0  0  0
  -26.0200  -38.3560   23.9380 H   0  0  0  0  0  0  0  0  0  0  0  0
  -26.3770  -31.7730   25.1490 C   0  0  1  0  0  0  0  0  0  0  0  0
  -25.2660  -31.5320   26.1970 C   0  0  0  0  0  1  0  0  0  0  0  0
  -26.9700  -30.3960   24.7700 C   0  0  0  0  0  1  0  0  0  0  0  0
  -27.5130  -32.5710   25.8320 C   0  0  0  0  0  1  0  0  0  0  0  0
  1  2  1  0
  1  4  2  0
  2  3  2  0
  3  8  1  0
  3  9  1  0
  4 49  1  0
  4  9  1  0
  5  6  1  0
  5  2  1  0
  6  7  1  0
  7  8  1  0
  8 18  1  0
 10 18  1  0
 11 16  1  0
 12 13  1  0
 12 11  1  0
 14 13  1  0
 14 23  1  0
 14 15  1  0
 16 10  1  0
 16 15  1  0
 17 10  2  0
 18 19  1  0
 20 21  2  0
 21 40  1  0
 22 21  1  0
 22 25  1  0
 23 20  1  0
 23 24  1  0
 24 22  2  0
 25 26  1  0
 26 27  2  0
 28 31  1  0
 28 27  1  0
 29 28  2  0
 30 29  1  0
 30 25  2  0
 31 32  1  0
 32 33  1  0
 33 34  2  0
 35 34  1  0
 35 39  1  0
 36 35  2  0
 37 32  2  0
 37 36  1  0
 38 37  1  0
 40 41  1  0
 41 44  1  0
 41 43  1  0
 42 40  2  0
 45 46  1  0
 45 20  1  0
 47 45  1  0
 48 49  1  0
 48 52  1  0
 49 51  1  0
 50 48  2  0
 53 52  1  0
 54 65  2  0
 55 53  1  0
 55 60  1  0
 56 64  1  0
 56 66  1  0
 57 63  1  0
 57 59  1  0
 58 64  1  0
 59 60  2  0
 59 58  1  0
 61 55  2  0
 62 61  1  0
 62 57  2  0
 63 56  1  0
 64 54  1  0
 66 68  2  0
 67 66  1  0
 69 67  1  0
 70 79  2  0
 70 75  1  0
 71 67  1  0
 71 75  1  0
 72 71  1  0
 73 74  1  0
 73 72  1  0
 74 70  1  0
 75 76  2  0
 76 77  1  0
 78 77  2  0
 79 78  1  0
 80 54  1  0
 80 81  1  0
 80 90  1  0
 81 84  1  0
 82 86  1  0
 82 81  1  0
 83 82  2  0
 86 85  1  0
 88 86  1  0
 88 89  1  0
 88 87  1  0
 90 93  1  1
 90 91  1  0
 92 90  1  0
M  ISO  4  10 100  18 100  52 101  53 101
M  END
>  <TORSDO>  (81) 
F 18

>  <SCORE>  (81) 
-14.232

>  <name>  (81) 
80

>  <ligand_id>  (81) 
80

>  <original_smiles>  (81) 
[H]c1c([H])c([H])c2c(c1[H])C([H])([H])C([H])([H])C([H])([H])C2([H])N([H])C(=O)C1([H])N(C(=O)C([H])(N([H])C(=O)C([H])(N([H])C([H])([H])[H])C([H])([H])[H])C(C([H])([H])[H])(C([H])([H])[H])C([H])([H])[H])C([H])([H])c2c([H])c(OC([H])([H])C(=O)N([H])c3sc4c(c3[H])C([H])([H])C([H])([H])C([H])([H])C4([H])N([H])C(=O)N3C([H])([H])C([H])([H])C([H])([H])C([H])(n4nc(-c5c([H])c([H])c(Oc6c([H])c([H])c(F)c([H])c6F)c([H])c5[H])c(C(=O)N([H])[H])c4N([H])[H])C3([H])[H])c([H])c([H])c2C1([H])[H]

>  <smiles>  (81) 
[H]c1c([H])c([H])c2c(c1[H])C([H])([H])C([H])([H])C([H])([H])C2([H])N([H])C(=O)C1([H])N(C(=O)C([H])(N([H])C(=O)C([H])(N([H])C([H])([H])[H])C([H])([H])[H])C(C([H])([H])[H])(C([H])([H])[H])C([H])([H])[H])C([H])([H])c2c([H])c(OC([H])([H])C(=O)N([H])c3sc4c(c3[H])C([H])([H])C([H])([H])C([H])([H])C4([H])N([H])C(=O)N3C([H])([H])C([H])([H])C([H])([H])C([H])(n4nc(-c5c([H])c([H])c(Oc6c([H])c([H])c(F)c([H])c6F)c([H])c5[H])c(C(=O)N([H])[H])c4N([H])[H])C3([H])[H])c([H])c([H])c2C1([H])[H]

$$$$
81:0:0
     RDKit          3D

 95103  0  0  1  0  0  0  0  0999 V2000
  -28.8540  -19.3160   20.7440 C   0  0  0  0  0  3  0  0  0  0  0  0
  -31.0710  -17.8730   19.7940 C   0  0  0  0  0  3  0  0  0  0  0  0
  -28.9150  -17.8930   20.8730 C   0  0  0  0  0  0  0  0  0  0  0  0
  -29.9040  -20.0560   20.1400 C   0  0  0  0  0  0  0  0  0  0  0  0
  -30.0220  -17.1350   20.3990 C   0  0  0  0  0  0  0  0  0  0  0  0
  -31.0090  -19.2930   19.6700 C   0  0  0  0  0  0  0  0  0  0  0  0
  -32.0410  -19.9410   19.0750 F   0  0  0  0  0  0  0  0  0  0  0  0
  -30.7290  -14.6540   20.0580 C   0  0  0  0  0  0  0  0  0  0  0  0
  -30.4600  -12.4640   18.9170 C   0  0  0  0  0  2  0  0  0  0  0  0
  -29.4650  -12.6550   17.7500 C   0  0  0  0  0  2  0  0  0  0  0  0
  -28.0100  -12.4880   18.2370 C   0  0  0  0  0  2  0  0  0  0  0  0
  -27.7140  -13.3020   19.5250 C   0  0  0  0  0  3  0  0  0  0  0  0
  -28.8180  -13.0830   20.5850 C   0  0  0  0  0  2  0  0  0  0  0  0
  -30.1070  -13.4370   19.9690 N   0  0  0  0  0  0  0  0  0  0  0  0
  -31.8680  -14.8280   19.6150 O   0  0  0  0  0  0  0  0  0  0  0  0
  -29.9550  -15.6800   20.5250 N   0  0  0  0  0  0  0  0  0  0  0  0
  -29.0740  -15.3720   20.9080 H   0  0  0  0  0  0  0  0  0  0  0  0
  -25.3440  -13.8880   20.3300 C   0  0  0  0  0  0  0  0  0  0  0  0
  -24.2910  -13.1060   20.7230 C   0  0  0  0  0  0  0  0  0  0  0  0
  -24.7580  -11.7570   20.6660 C   0  0  0  0  0  0  0  0  0  0  0  0
  -26.3840  -13.0130   20.0540 N   0  0  0  0  0  0  0  0  0  0  0  0
  -26.0380  -11.7260   20.3160 N   0  0  0  0  0  0  0  0  0  0  0  0
  -24.0440  -10.4910   20.8690 C   0  0  0  0  0  0  0  0  0  0  0  0
  -24.4860   -9.5360   21.8110 C   0  0  0  0  0  3  0  0  0  0  0  0
  -23.7720   -8.3340   22.0030 C   0  0  0  0  0  3  0  0  0  0  0  0
  -22.6000   -8.0780   21.2520 C   0  0  0  0  0  0  0  0  0  0  0  0
  -22.1770   -9.0210   20.2990 C   0  0  0  0  0  3  0  0  0  0  0  0
  -22.8920  -10.2150   20.1060 C   0  0  0  0  0  3  0  0  0  0  0  0
  -21.8570   -6.9260   21.3510 O   0  0  0  0  0  0  0  0  0  0  0  0
  -21.7810   -6.2180   22.5230 C   0  0  0  0  0  0  0  0  0  0  0  0
  -21.3090   -6.8030   23.7190 C   0  0  0  0  0  3  0  0  0  0  0  0
  -21.1820   -6.0190   24.8840 C   0  0  0  0  0  3  0  0  0  0  0  0
  -21.5160   -4.6520   24.8530 C   0  0  0  0  0  0  0  0  0  0  0  0
  -21.9810   -4.0670   23.6610 C   0  0  0  0  0  3  0  0  0  0  0  0
  -22.1110   -4.8470   22.5000 C   0  0  0  0  0  0  0  0  0  0  0  0
  -22.5380   -4.2740   21.3490 F   0  0  0  0  0  0  0  0  0  0  0  0
  -21.3870   -3.8960   25.9690 F   0  0  0  0  0  0  0  0  0  0  0  0
  -22.9030  -13.5750   21.0490 C   0  0  0  0  0  0  0  0  0  0  0  0
  -22.2110  -12.8690   21.9370 N   0  0  0  0  0  0  0  0  0  0  0  0
  -22.4430  -14.6030   20.5550 O   0  0  0  0  0  0  0  0  0  0  0  0
  -22.5980  -12.0370   22.3580 H   0  0  0  0  0  0  0  0  0  0  0  0
  -21.2820  -13.1640   22.2000 H   0  0  0  0  0  0  0  0  0  0  0  0
  -25.4970  -15.2610   20.1720 N   0  0  0  0  0  0  0  0  0  0  0  0
  -24.7450  -15.9070   20.3820 H   0  0  0  0  0  0  0  0  0  0  0  0
  -26.3850  -15.7340   20.0380 H   0  0  0  0  0  0  0  0  0  0  0  0
  -27.8560  -17.2120   21.4780 N   0  0  0  0  0  0  0  0  0  0  0  0
  -27.1400  -17.7920   21.9020 H   0  0  0  0  0  0  0  0  0  0  0  0
  -28.1170  -16.4640   22.1100 H   0  0  0  0  0  0  0  0  0  0  0  0
  -29.9140  -21.4830   19.9690 N   0  0  0  0  0  0  0  0  0  0  0  0
  -30.7240  -21.8800   19.4940 H   0  0  0  0  0  0  0  0  0  0  0  0
  -28.9250  -22.4860   20.4720 C   0  0  0  0  0  2  0  0  0  0  0  0
  -29.1900  -23.9990   20.0840 C   0  0  0  0  0  0  0  0  0  0  0  0
  -30.1650  -24.2870   19.3790 O   0  0  0  0  0  0  0  0  0  0  0  0
  -28.2080  -25.1170   20.6000 C   0  0  0  0  0  2  0  0  0  0  0  0
  -28.4770  -26.5080   20.1660 O   0  0  0  0  0  0  0  0  0  0  0  0
  -24.7100  -31.8750   23.1710 C   0  0  0  0  0  0  0  0  0  0  0  0
  -27.3630  -27.3520   20.1280 C   0  0  0  0  0  0  0  0  0  0  0  0
  -23.5220  -30.4770   21.5170 C   0  0  0  0  0  3  0  0  0  0  0  0
  -24.9910  -28.9380   20.1010 C   0  0  0  0  0  0  0  0  0  0  0  0
  -26.0600  -30.8110   21.3540 C   0  0  0  0  0  2  0  0  0  0  0  0
  -26.1510  -29.4350   20.7060 C   0  0  0  0  0  0  0  0  0  0  0  0
  -27.3430  -28.6550   20.7100 C   0  0  0  0  0  3  0  0  0  0  0  0
  -26.1850  -26.9070   19.4900 C   0  0  0  0  0  3  0  0  0  0  0  0
  -25.0080  -27.6770   19.4820 C   0  0  0  0  0  3  0  0  0  0  0  0
  -23.7490  -29.8030   20.1390 C   0  0  0  0  0  2  0  0  0  0  0  0
  -24.7830  -31.0710   22.0710 N   0  0  0  0  0  0  0  0  0  0  0  0
  -23.6210  -32.1470   23.6990 O   0  0  0  0  0  0  0  0  0  0  0  0
  -22.8560  -29.4560   22.4690 C   0  0  0  0  0  0  0  0  0  0  0  0
  -21.5300  -29.2800   22.3360 N   0  0  0  0  0  0  0  0  0  0  0  0
  -23.5320  -28.8250   23.2880 O   0  0  0  0  0  0  0  0  0  0  0  0
  -21.0460  -29.8420   21.6500 H   0  0  0  0  0  0  0  0  0  0  0  0
  -18.1480  -28.0920   22.8140 C   0  0  0  0  0  0  0  0  0  0  0  0
  -20.7060  -28.3410   23.0980 C   0  0  0  0  0  3  0  0  0  0  0  0
  -20.8060  -26.9120   22.5150 C   0  0  0  0  0  2  0  0  0  0  0  0
  -19.7070  -26.5980   21.4950 C   0  0  0  0  0  2  0  0  0  0  0  0
  -18.3230  -26.7450   22.1330 C   0  0  0  0  0  2  0  0  0  0  0  0
  -19.2680  -28.8490   23.2530 C   0  0  0  0  0  0  0  0  0  0  0  0
  -19.0490  -30.1100   23.8480 C   0  0  0  0  0  3  0  0  0  0  0  0
  -17.7450  -30.6150   24.0110 C   0  0  0  0  0  3  0  0  0  0  0  0
  -16.6400  -29.8550   23.5890 C   0  0  0  0  0  3  0  0  0  0  0  0
  -16.8430  -28.5950   22.9960 C   0  0  0  0  0  3  0  0  0  0  0  0
  -25.9860  -32.5090   23.8050 C   0  0  0  0  0  3  0  0  0  0  0  0
  -25.6670  -33.9020   24.1480 N   0  0  0  0  0  0  0  0  0  0  0  0
  -25.9950  -34.9650   23.3990 C   0  0  0  0  0  0  0  0  0  0  0  0
  -26.6690  -34.8750   22.3690 O   0  0  0  0  0  0  0  0  0  0  0  0
  -25.0720  -34.0470   24.9500 H   0  0  0  0  0  0  0  0  0  0  0  0
  -24.2550  -36.7470   23.0600 C   0  0  0  0  0  1  0  0  0  0  0  0
  -25.4980  -36.3450   23.8690 C   0  0  0  0  0  3  0  0  0  0  0  0
  -27.6270  -37.2360   24.7070 C   0  0  0  0  0  1  0  0  0  0  0  0
  -26.5240  -37.4080   23.7670 N   0  0  0  0  0  0  0  0  0  0  0  0
  -26.1100  -38.3230   23.9280 H   0  0  0  0  0  0  0  0  0  0  0  0
  -26.5020  -31.7290   25.0770 C   0  0  1  0  0  0  0  0  0  0  0  0
  -25.4040  -31.4740   26.1360 C   0  0  0  0  0  1  0  0  0  0  0  0
  -27.0940  -30.3600   24.6740 C   0  0  0  0  0  1  0  0  0  0  0  0
  -27.6440  -32.5230   25.7520 C   0  0  0  0  0  1  0  0  0  0  0  0
  1  3  1  0
  2  5  1  0
  3 46  1  0
  4  1  2  0
  5 16  1  0
  5  3  2  0
  6  2  2  0
  6  4  1  0
  7  6  1  0
  8 16  1  0
  9 14  1  0
 10 11  1  0
 10  9  1  0
 12 11  1  0
 12 21  1  0
 12 13  1  0
 14  8  1  0
 14 13  1  0
 15  8  2  0
 16 17  1  0
 18 19  2  0
 19 38  1  0
 20 19  1  0
 20 23  1  0
 21 22  1  0
 21 18  1  0
 22 20  2  0
 23 24  1  0
 24 25  2  0
 26 29  1  0
 26 25  1  0
 27 26  2  0
 28 27  1  0
 28 23  2  0
 29 30  1  0
 30 31  1  0
 31 32  2  0
 33 32  1  0
 33 37  1  0
 34 33  2  0
 35 30  2  0
 35 34  1  0
 36 35  1  0
 38 39  1  0
 39 42  1  0
 39 41  1  0
 40 38  2  0
 43 18  1  0
 43 44  1  0
 45 43  1  0
 46 47  1  0
 46 48  1  0
 49  4  1  0
 49 51  1  0
 50 49  1  0
 52 51  1  0
 52 54  1  0
 53 52  2  0
 55 54  1  0
 56 67  2  0
 57 55  1  0
 57 62  1  0
 58 66  1  0
 58 68  1  0
 59 65  1  0
 59 61  1  0
 60 66  1  0
 61 62  2  0
 61 60  1  0
 63 57  2  0
 64 63  1  0
 64 59  2  0
 65 58  1  0
 66 56  1  0
 68 70  2  0
 69 68  1  0
 71 69  1  0
 72 81  2  0
 72 77  1  0
 73 69  1  0
 73 77  1  0
 74 73  1  0
 75 76  1  0
 75 74  1  0
 76 72  1  0
 77 78  2  0
 78 79  1  0
 80 79  2  0
 81 80  1  0
 82 56  1  0
 82 83  1  0
 82 92  1  0
 83 86  1  0
 84 88  1  0
 84 83  1  0
 85 84  2  0
 88 87  1  0
 90 88  1  0
 90 91  1  0
 90 89  1  0
 92 95  1  1
 92 93  1  0
 94 92  1  0
M  ISO  4   8 100  16 100  54 101  55 101
M  END
>  <TORSDO>  (82) 
F 21

>  <SCORE>  (82) 
-12.229

>  <name>  (82) 
81

>  <ligand_id>  (82) 
81

>  <original_smiles>  (82) 
[H]c1c([H])c([H])c2c(c1[H])C([H])([H])C([H])([H])C([H])([H])C2([H])N([H])C(=O)C1([H])N(C(=O)C([H])(N([H])C(=O)C([H])(N([H])C([H])([H])[H])C([H])([H])[H])C(C([H])([H])[H])(C([H])([H])[H])C([H])([H])[H])C([H])([H])c2c([H])c(OC([H])([H])C(=O)C([H])([H])N([H])c3c([H])c(N([H])[H])c(N([H])C(=O)N4C([H])([H])C([H])([H])C([H])([H])C([H])(n5nc(-c6c([H])c([H])c(Oc7c([H])c([H])c(F)c([H])c7F)c([H])c6[H])c(C(=O)N([H])[H])c5N([H])[H])C4([H])[H])c([H])c3F)c([H])c([H])c2C1([H])[H]

>  <smiles>  (82) 
[H]c1c([H])c([H])c2c(c1[H])C([H])([H])C([H])([H])C([H])([H])C2([H])N([H])C(=O)C1([H])N(C(=O)C([H])(N([H])C(=O)C([H])(N([H])C([H])([H])[H])C([H])([H])[H])C(C([H])([H])[H])(C([H])([H])[H])C([H])([H])[H])C([H])([H])c2c([H])c(OC([H])([H])C(=O)C([H])([H])N([H])c3c([H])c(N([H])[H])c(N([H])C(=O)N4C([H])([H])C([H])([H])C([H])([H])C([H])(n5nc(-c6c([H])c([H])c(Oc7c([H])c([H])c(F)c([H])c7F)c([H])c6[H])c(C(=O)N([H])[H])c5N([H])[H])C4([H])[H])c([H])c3F)c([H])c([H])c2C1([H])[H]

$$$$
82:0:0
     RDKit          3D

 96104  0  0  1  0  0  0  0  0999 V2000
  -29.1380  -23.3880   19.7860 C   0  0  0  0  0  0  0  0  0  0  0  0
  -29.1010  -22.0000   20.2270 N   0  0  0  0  0  0  0  0  0  0  0  0
  -29.6810  -23.7130   18.7340 O   0  0  0  0  0  0  0  0  0  0  0  0
  -28.6230  -21.9970   21.1180 H   0  0  0  0  0  0  0  0  0  0  0  0
  -30.2900  -18.4960   18.8190 C   0  0  0  0  0  3  0  0  0  0  0  0
  -30.0490  -19.9730   18.7130 C   0  0  0  0  0  0  0  0  0  0  0  0
  -29.9500  -17.7930   19.9720 C   0  0  0  0  0  0  0  0  0  0  0  0
  -29.5190  -20.6280   19.8600 C   0  0  0  0  0  0  0  0  0  0  0  0
  -29.3160  -19.1810   20.9960 S   0  0  0  0  0  0  0  0  0  0  0  0
  -30.7040  -15.1830   19.9210 C   0  0  0  0  0  0  0  0  0  0  0  0
  -30.6020  -12.7930   19.0370 C   0  0  0  0  0  2  0  0  0  0  0  0
  -29.6220  -12.7360   17.8420 C   0  0  0  0  0  2  0  0  0  0  0  0
  -28.1750  -12.5160   18.3170 C   0  0  0  0  0  2  0  0  0  0  0  0
  -27.8150  -13.4080   19.5340 C   0  0  0  0  0  3  0  0  0  0  0  0
  -28.9210  -13.4400   20.6120 C   0  0  0  0  0  2  0  0  0  0  0  0
  -30.1520  -13.8900   19.9510 N   0  0  0  0  0  0  0  0  0  0  0  0
  -31.8630  -15.2590   19.4970 O   0  0  0  0  0  0  0  0  0  0  0  0
  -29.9420  -16.3600   20.2730 N   0  0  0  0  0  0  0  0  0  0  0  0
  -29.1520  -16.0960   20.8460 H   0  0  0  0  0  0  0  0  0  0  0  0
  -25.4750  -13.9560   20.4090 C   0  0  0  0  0  0  0  0  0  0  0  0
  -24.4310  -13.1730   20.8150 C   0  0  0  0  0  0  0  0  0  0  0  0
  -24.8910  -11.8220   20.7250 C   0  0  0  0  0  0  0  0  0  0  0  0
  -26.5030  -13.0850   20.0890 N   0  0  0  0  0  0  0  0  0  0  0  0
  -26.1660  -11.7940   20.3440 N   0  0  0  0  0  0  0  0  0  0  0  0
  -24.1700  -10.5550   20.9180 C   0  0  0  0  0  0  0  0  0  0  0  0
  -24.5900   -9.6070   21.8780 C   0  0  0  0  0  3  0  0  0  0  0  0
  -23.8690   -8.4080   22.0670 C   0  0  0  0  0  3  0  0  0  0  0  0
  -22.7100   -8.1470   21.2970 C   0  0  0  0  0  0  0  0  0  0  0  0
  -22.3080   -9.0820   20.3270 C   0  0  0  0  0  3  0  0  0  0  0  0
  -23.0310  -10.2710   20.1370 C   0  0  0  0  0  3  0  0  0  0  0  0
  -21.9620   -6.9990   21.3930 O   0  0  0  0  0  0  0  0  0  0  0  0
  -21.8400   -6.3130   22.5740 C   0  0  0  0  0  0  0  0  0  0  0  0
  -21.2630   -6.9000   23.7220 C   0  0  0  0  0  3  0  0  0  0  0  0
  -21.0940   -6.1370   24.8960 C   0  0  0  0  0  3  0  0  0  0  0  0
  -21.4910   -4.7880   24.9210 C   0  0  0  0  0  0  0  0  0  0  0  0
  -22.0590   -4.1980   23.7790 C   0  0  0  0  0  3  0  0  0  0  0  0
  -22.2310   -4.9590   22.6090 C   0  0  0  0  0  0  0  0  0  0  0  0
  -22.7590   -4.3810   21.5040 F   0  0  0  0  0  0  0  0  0  0  0  0
  -21.3220   -4.0540   26.0440 F   0  0  0  0  0  0  0  0  0  0  0  0
  -23.0490  -13.6410   21.1680 C   0  0  0  0  0  0  0  0  0  0  0  0
  -22.3590  -12.9180   22.0440 N   0  0  0  0  0  0  0  0  0  0  0  0
  -22.5950  -14.6860   20.7080 O   0  0  0  0  0  0  0  0  0  0  0  0
  -22.7370  -12.0720   22.4380 H   0  0  0  0  0  0  0  0  0  0  0  0
  -21.4340  -13.2130   22.3200 H   0  0  0  0  0  0  0  0  0  0  0  0
  -25.6330  -15.3300   20.2550 N   0  0  0  0  0  0  0  0  0  0  0  0
  -24.8650  -15.9820   20.3850 H   0  0  0  0  0  0  0  0  0  0  0  0
  -26.4580  -15.7610   19.8550 H   0  0  0  0  0  0  0  0  0  0  0  0
  -30.8240  -19.7440   16.2470 C   0  0  0  0  0  1  0  0  0  0  0  0
  -31.4920  -21.6860   17.5370 C   0  0  0  0  0  1  0  0  0  0  0  0
  -29.0240  -21.2850   16.8210 C   0  0  0  0  0  1  0  0  0  0  0  0
  -30.3330  -20.6770   17.3770 C   0  0  2  0  0  0  0  0  0  0  0  0
  -26.9770  -24.2910   20.8270 C   0  0  0  0  0  1  0  0  0  0  0  0
  -28.4430  -24.7010   20.5840 C   0  0  1  0  0  0  0  0  0  0  0  0
  -29.2880  -23.7020   22.8850 C   0  0  0  0  0  1  0  0  0  0  0  0
  -29.1680  -24.9180   21.9430 C   0  0  0  0  0  2  0  0  0  0  0  0
  -28.5190  -26.1860   19.9950 O   0  0  0  0  0  0  0  0  0  0  0  0
  -24.6800  -31.7300   23.1840 C   0  0  0  0  0  0  0  0  0  0  0  0
  -27.4450  -27.1770   20.0290 C   0  0  0  0  0  0  0  0  0  0  0  0
  -23.5490  -30.3560   21.4780 C   0  0  0  0  0  3  0  0  0  0  0  0
  -25.0750  -28.8900   20.0040 C   0  0  0  0  0  0  0  0  0  0  0  0
  -26.0970  -30.6950   21.3720 C   0  0  0  0  0  2  0  0  0  0  0  0
  -26.2240  -29.3230   20.6800 C   0  0  0  0  0  0  0  0  0  0  0  0
  -27.4050  -28.4770   20.6920 C   0  0  0  0  0  3  0  0  0  0  0  0
  -26.2980  -26.9080   19.2530 C   0  0  0  0  0  3  0  0  0  0  0  0
  -25.1340  -27.7030   19.2610 C   0  0  0  0  0  3  0  0  0  0  0  0
  -23.8120  -29.7360   20.0760 C   0  0  0  0  0  2  0  0  0  0  0  0
  -24.7930  -30.9490   22.0670 N   0  0  0  0  0  0  0  0  0  0  0  0
  -23.5810  -31.9580   23.7150 O   0  0  0  0  0  0  0  0  0  0  0  0
  -22.9000  -29.2880   22.3950 C   0  0  0  0  0  0  0  0  0  0  0  0
  -21.5810  -29.0720   22.2500 N   0  0  0  0  0  0  0  0  0  0  0  0
  -23.5860  -28.6590   23.2040 O   0  0  0  0  0  0  0  0  0  0  0  0
  -21.0820  -29.6320   21.5770 H   0  0  0  0  0  0  0  0  0  0  0  0
  -18.2490  -27.7040   22.6530 C   0  0  0  0  0  0  0  0  0  0  0  0
  -20.7880  -28.0780   22.9810 C   0  0  0  0  0  3  0  0  0  0  0  0
  -20.9660  -26.6680   22.3720 C   0  0  0  0  0  2  0  0  0  0  0  0
  -19.9000  -26.3220   21.3270 C   0  0  0  0  0  2  0  0  0  0  0  0
  -18.5010  -26.3840   21.9450 C   0  0  0  0  0  2  0  0  0  0  0  0
  -19.3220  -28.5080   23.1260 C   0  0  0  0  0  0  0  0  0  0  0  0
  -19.0300  -29.7410   23.7480 C   0  0  0  0  0  3  0  0  0  0  0  0
  -17.6990  -30.1740   23.9010 C   0  0  0  0  0  3  0  0  0  0  0  0
  -16.6410  -29.3690   23.4440 C   0  0  0  0  0  3  0  0  0  0  0  0
  -16.9160  -28.1360   22.8260 C   0  0  0  0  0  3  0  0  0  0  0  0
  -25.9310  -32.3890   23.8410 C   0  0  0  0  0  3  0  0  0  0  0  0
  -26.4270  -31.6250   25.1300 C   0  0  1  0  0  0  0  0  0  0  0  0
  -25.3070  -31.3570   26.1630 C   0  0  0  0  0  1  0  0  0  0  0  0
  -27.0530  -30.2630   24.7560 C   0  0  0  0  0  1  0  0  0  0  0  0
  -27.5400  -32.4410   25.8290 C   0  0  0  0  0  1  0  0  0  0  0  0
  -25.5830  -33.7790   24.1740 N   0  0  0  0  0  0  0  0  0  0  0  0
  -25.9310  -34.8520   23.4480 C   0  0  0  0  0  0  0  0  0  0  0  0
  -26.6450  -34.7730   22.4430 O   0  0  0  0  0  0  0  0  0  0  0  0
  -24.9530  -33.9080   24.9530 H   0  0  0  0  0  0  0  0  0  0  0  0
  -24.2080  -36.6390   23.0390 C   0  0  0  0  0  1  0  0  0  0  0  0
  -25.4090  -36.2280   23.9070 C   0  0  0  0  0  3  0  0  0  0  0  0
  -27.4800  -37.1260   24.8750 C   0  0  0  0  0  1  0  0  0  0  0  0
  -26.4370  -37.2920   23.8660 N   0  0  0  0  0  0  0  0  0  0  0  0
  -26.0160  -38.2080   23.9980 H   0  0  0  0  0  0  0  0  0  0  0  0
  1  2  1  0
  1 53  1  0
  2  4  1  0
  3  1  2  0
  5  7  2  0
  6  5  1  0
  6  8  2  0
  7 18  1  0
  7  9  1  0
  8  2  1  0
  8  9  1  0
 10 16  1  0
 10 18  1  0
 11 16  1  0
 12 13  1  0
 12 11  1  0
 14 13  1  0
 14 23  1  0
 14 15  1  0
 16 15  1  0
 17 10  2  0
 18 19  1  0
 20 21  2  0
 21 40  1  0
 22 21  1  0
 22 25  1  0
 23 24  1  0
 23 20  1  0
 24 22  2  0
 25 26  1  0
 26 27  2  0
 28 31  1  0
 28 27  1  0
 29 28  2  0
 30 29  1  0
 30 25  2  0
 31 32  1  0
 32 37  2  0
 32 33  1  0
 33 34  2  0
 34 35  1  0
 35 39  1  0
 36 35  2  0
 37 36  1  0
 38 37  1  0
 40 41  1  0
 41 44  1  0
 41 43  1  0
 42 40  2  0
 45 46  1  0
 45 20  1  0
 47 45  1  0
 51 48  1  6
 50 51  1  0
 51 49  1  0
 51  6  1  0
 53 52  1  1
 53 55  1  0
 55 54  1  0
 56 58  1  0
 56 53  1  0
 57 68  2  0
 58 63  1  0
 59 67  1  0
 59 69  1  0
 60 66  1  0
 60 62  1  0
 61 67  1  0
 62 63  2  0
 62 61  1  0
 64 65  1  0
 64 58  2  0
 65 60  2  0
 66 59  1  0
 67 57  1  0
 69 71  2  0
 70 69  1  0
 72 70  1  0
 73 82  2  0
 73 78  1  0
 74 70  1  0
 74 78  1  0
 75 74  1  0
 76 77  1  0
 76 75  1  0
 77 73  1  0
 78 79  2  0
 79 80  1  0
 81 80  2  0
 82 81  1  0
 83 57  1  0
 83 88  1  0
 83 84  1  0
 84 87  1  1
 84 85  1  0
 86 84  1  0
 88 91  1  0
 89 93  1  0
 89 88  1  0
 90 89  2  0
 93 92  1  0
 95 93  1  0
 95 96  1  0
 95 94  1  0
M  ISO  4  10 100  18 100  53 101  56 101
M  END
>  <TORSDO>  (83) 
F 20

>  <SCORE>  (83) 
-13.257

>  <name>  (83) 
82

>  <ligand_id>  (83) 
82

>  <original_smiles>  (83) 
[H]c1c([H])c([H])c2c(c1[H])C([H])([H])C([H])([H])C([H])([H])C2([H])N([H])C(=O)C1([H])N(C(=O)C([H])(N([H])C(=O)C([H])(N([H])C([H])([H])[H])C([H])([H])[H])C(C([H])([H])[H])(C([H])([H])[H])C([H])([H])[H])C([H])([H])c2c([H])c(OC(C(=O)N([H])c3sc(N([H])C(=O)N4C([H])([H])C([H])([H])C([H])([H])C([H])(n5nc(-c6c([H])c([H])c(Oc7c([H])c([H])c(F)c([H])c7F)c([H])c6[H])c(C(=O)N([H])[H])c5N([H])[H])C4([H])[H])c([H])c3C(C([H])([H])[H])(C([H])([H])[H])C([H])([H])[H])(C([H])([H])[H])C([H])([H])C([H])([H])[H])c([H])c([H])c2C1([H])[H]

>  <smiles>  (83) 
[H]c1c([H])c([H])c2c(c1[H])C([H])([H])C([H])([H])C([H])([H])C2([H])N([H])C(=O)C1([H])N(C(=O)C([H])(N([H])C(=O)C([H])(N([H])C([H])([H])[H])C([H])([H])[H])C(C([H])([H])[H])(C([H])([H])[H])C([H])([H])[H])C([H])([H])c2c([H])c(OC(C(=O)N([H])c3sc(N([H])C(=O)N4C([H])([H])C([H])([H])C([H])([H])C([H])(n5nc(-c6c([H])c([H])c(Oc7c([H])c([H])c(F)c([H])c7F)c([H])c6[H])c(C(=O)N([H])[H])c5N([H])[H])C4([H])[H])c([H])c3C(C([H])([H])[H])(C([H])([H])[H])C([H])([H])[H])(C([H])([H])[H])C([H])([H])C([H])([H])[H])c([H])c([H])c2C1([H])[H]

$$$$
83:0:0
     RDKit          3D

100109  0  0  1  0  0  0  0  0999 V2000
  -30.6670  -19.1380   19.8100 C   0  0  0  0  0  3  0  0  0  0  0  0
  -30.9020  -17.7350   19.5620 C   0  0  0  0  0  0  0  0  0  0  0  0
  -29.6900  -19.4020   20.7300 C   0  0  0  0  0  0  0  0  0  0  0  0
  -30.1330  -16.9140   20.3880 C   0  0  0  0  0  0  0  0  0  0  0  0
  -29.0790  -17.9080   21.3830 S   0  0  0  0  0  0  0  0  0  0  0  0
  -30.7570  -14.5130   20.0890 C   0  0  0  0  0  0  0  0  0  0  0  0
  -30.4190  -12.3740   18.9230 C   0  0  0  0  0  2  0  0  0  0  0  0
  -29.4120  -12.6180   17.7790 C   0  0  0  0  0  2  0  0  0  0  0  0
  -27.9570  -12.4870   18.2790 C   0  0  0  0  0  2  0  0  0  0  0  0
  -27.6970  -13.2810   19.5880 C   0  0  0  0  0  3  0  0  0  0  0  0
  -28.8080  -13.0120   20.6260 C   0  0  0  0  0  2  0  0  0  0  0  0
  -30.1010  -13.3280   19.9960 N   0  0  0  0  0  0  0  0  0  0  0  0
  -31.9010  -14.6740   19.6530 O   0  0  0  0  0  0  0  0  0  0  0  0
  -29.9970  -15.5490   20.5120 N   0  0  0  0  0  0  0  0  0  0  0  0
  -29.1330  -15.2500   20.9410 H   0  0  0  0  0  0  0  0  0  0  0  0
  -25.3470  -13.8890   20.4450 C   0  0  0  0  0  0  0  0  0  0  0  0
  -24.2970  -13.1150   20.8590 C   0  0  0  0  0  0  0  0  0  0  0  0
  -24.7440  -11.7610   20.7740 C   0  0  0  0  0  0  0  0  0  0  0  0
  -26.3700  -13.0060   20.1340 N   0  0  0  0  0  0  0  0  0  0  0  0
  -26.0140  -11.7210   20.3890 N   0  0  0  0  0  0  0  0  0  0  0  0
  -24.0200  -10.5010   20.9770 C   0  0  0  0  0  0  0  0  0  0  0  0
  -24.4760   -9.5260   21.8900 C   0  0  0  0  0  3  0  0  0  0  0  0
  -23.7520   -8.3290   22.0810 C   0  0  0  0  0  3  0  0  0  0  0  0
  -22.5570   -8.0990   21.3590 C   0  0  0  0  0  0  0  0  0  0  0  0
  -22.1200   -9.0620   20.4310 C   0  0  0  0  0  3  0  0  0  0  0  0
  -22.8460  -10.2500   20.2390 C   0  0  0  0  0  3  0  0  0  0  0  0
  -21.8020   -6.9570   21.4600 O   0  0  0  0  0  0  0  0  0  0  0  0
  -21.7580   -6.2220   22.6190 C   0  0  0  0  0  0  0  0  0  0  0  0
  -21.3120   -6.7790   23.8380 C   0  0  0  0  0  3  0  0  0  0  0  0
  -21.2180   -5.9720   24.9890 C   0  0  0  0  0  3  0  0  0  0  0  0
  -21.5590   -4.6070   24.9210 C   0  0  0  0  0  0  0  0  0  0  0  0
  -21.9990   -4.0490   23.7090 C   0  0  0  0  0  3  0  0  0  0  0  0
  -22.0960   -4.8550   22.5610 C   0  0  0  0  0  0  0  0  0  0  0  0
  -22.5000   -4.3070   21.3880 F   0  0  0  0  0  0  0  0  0  0  0  0
  -21.4630   -3.8290   26.0250 F   0  0  0  0  0  0  0  0  0  0  0  0
  -22.9200  -13.5950   21.2200 C   0  0  0  0  0  0  0  0  0  0  0  0
  -22.2340  -12.8850   22.1100 N   0  0  0  0  0  0  0  0  0  0  0  0
  -22.4640  -14.6370   20.7490 O   0  0  0  0  0  0  0  0  0  0  0  0
  -22.6150  -12.0440   22.5170 H   0  0  0  0  0  0  0  0  0  0  0  0
  -21.3110  -13.1880   22.3870 H   0  0  0  0  0  0  0  0  0  0  0  0
  -25.5130  -15.2630   20.2900 N   0  0  0  0  0  0  0  0  0  0  0  0
  -24.7530  -15.9150   20.4580 H   0  0  0  0  0  0  0  0  0  0  0  0
  -26.3390  -15.7090   19.9120 H   0  0  0  0  0  0  0  0  0  0  0  0
  -33.4250  -17.7870   16.7040 C   0  0  0  0  0  2  0  0  0  0  0  0
  -32.0300  -18.1350   17.2390 C   0  0  0  0  0  2  0  0  0  0  0  0
  -34.1760  -17.1480   17.8860 C   0  0  0  0  0  2  0  0  0  0  0  0
  -31.8720  -17.2620   18.4920 C   0  0  0  0  0  3  0  0  0  0  0  0
  -33.2320  -17.0830   19.0150 N   0  0  0  0  0  4  0  0  0  0  0  0
  -33.4460  -17.8030   19.6840 H   0  0  0  0  0  0  0  0  0  0  0  0
  -33.2570  -16.1770   19.4740 H   0  0  0  0  0  0  0  0  0  0  0  0
  -29.1630  -20.6260   21.1740 N   0  0  0  0  0  0  0  0  0  0  0  0
  -28.4320  -20.6510   21.8780 H   0  0  0  0  0  0  0  0  0  0  0  0
  -29.4900  -21.9290   20.5630 C   0  0  0  0  0  2  0  0  0  0  0  0
  -27.4280  -23.0410   21.6300 C   0  0  0  0  0  1  0  0  0  0  0  0
  -28.9530  -23.1340   21.4000 C   0  0  1  0  0  0  0  0  0  0  0  0
  -29.4960  -22.9940   22.6140 F   0  0  0  0  0  0  0  0  0  0  0  0
  -29.3860  -24.5280   20.8480 C   0  0  0  0  0  0  0  0  0  0  0  0
  -30.4780  -25.0190   21.1650 O   0  0  0  0  0  0  0  0  0  0  0  0
  -28.4460  -25.2950   19.8920 C   0  0  0  0  0  2  0  0  0  0  0  0
  -28.5630  -26.7240   20.0620 O   0  0  0  0  0  0  0  0  0  0  0  0
  -24.6320  -31.7760   23.1870 C   0  0  0  0  0  0  0  0  0  0  0  0
  -27.3850  -27.4500   20.0250 C   0  0  0  0  0  0  0  0  0  0  0  0
  -23.4730  -30.4040   21.4890 C   0  0  0  0  0  3  0  0  0  0  0  0
  -24.9680  -28.9320   20.0400 C   0  0  0  0  0  0  0  0  0  0  0  0
  -26.0000  -30.8000   21.3430 C   0  0  0  0  0  2  0  0  0  0  0  0
  -26.1120  -29.4500   20.6620 C   0  0  0  0  0  0  0  0  0  0  0  0
  -27.3240  -28.7180   20.6490 C   0  0  0  0  0  3  0  0  0  0  0  0
  -26.2240  -26.9580   19.3840 C   0  0  0  0  0  3  0  0  0  0  0  0
  -25.0210  -27.6860   19.3950 C   0  0  0  0  0  3  0  0  0  0  0  0
  -23.7100  -29.7690   20.0940 C   0  0  0  0  0  2  0  0  0  0  0  0
  -24.7180  -31.0070   22.0640 N   0  0  0  0  0  0  0  0  0  0  0  0
  -23.5390  -32.0190   23.7140 O   0  0  0  0  0  0  0  0  0  0  0  0
  -22.8210  -29.3460   22.4080 C   0  0  0  0  0  0  0  0  0  0  0  0
  -21.4980  -29.1640   22.2690 N   0  0  0  0  0  0  0  0  0  0  0  0
  -23.5020  -28.6940   23.2030 O   0  0  0  0  0  0  0  0  0  0  0  0
  -21.0080  -29.7440   21.6030 H   0  0  0  0  0  0  0  0  0  0  0  0
  -18.1190  -27.9710   22.7350 C   0  0  0  0  0  0  0  0  0  0  0  0
  -20.6800  -28.1970   23.0020 C   0  0  0  0  0  3  0  0  0  0  0  0
  -20.7690  -26.7940   22.3610 C   0  0  0  0  0  2  0  0  0  0  0  0
  -19.6570  -26.5240   21.3410 C   0  0  0  0  0  2  0  0  0  0  0  0
  -18.2810  -26.6510   21.9990 C   0  0  0  0  0  2  0  0  0  0  0  0
  -19.2460  -28.7030   23.1930 C   0  0  0  0  0  0  0  0  0  0  0  0
  -19.0420  -29.9400   23.8400 C   0  0  0  0  0  3  0  0  0  0  0  0
  -17.7420  -30.4440   24.0390 C   0  0  0  0  0  3  0  0  0  0  0  0
  -16.6290  -29.7070   23.5980 C   0  0  0  0  0  3  0  0  0  0  0  0
  -16.8180  -28.4720   22.9510 C   0  0  0  0  0  3  0  0  0  0  0  0
  -25.8990  -32.4050   23.8460 C   0  0  0  0  0  3  0  0  0  0  0  0
  -25.5810  -33.8000   24.1710 N   0  0  0  0  0  0  0  0  0  0  0  0
  -25.9250  -34.8540   23.4200 C   0  0  0  0  0  0  0  0  0  0  0  0
  -26.6170  -34.7540   22.4030 O   0  0  0  0  0  0  0  0  0  0  0  0
  -24.9650  -33.9550   24.9570 H   0  0  0  0  0  0  0  0  0  0  0  0
  -24.1940  -36.6360   23.0380 C   0  0  0  0  0  1  0  0  0  0  0  0
  -25.4240  -36.2400   23.8690 C   0  0  0  0  0  3  0  0  0  0  0  0
  -27.5330  -37.1390   24.7430 C   0  0  0  0  0  1  0  0  0  0  0  0
  -26.4520  -37.2980   23.7730 N   0  0  0  0  0  0  0  0  0  0  0  0
  -26.0370  -38.2170   23.9070 H   0  0  0  0  0  0  0  0  0  0  0  0
  -26.3830  -31.6290   25.1320 C   0  0  1  0  0  0  0  0  0  0  0  0
  -25.2610  -31.3890   26.1680 C   0  0  0  0  0  1  0  0  0  0  0  0
  -26.9800  -30.2550   24.7500 C   0  0  0  0  0  1  0  0  0  0  0  0
  -27.5130  -32.4250   25.8290 C   0  0  0  0  0  1  0  0  0  0  0  0
  1  3  2  0
  2  1  1  0
  2  4  2  0
  3 51  1  0
  3  5  1  0
  4 14  1  0
  4  5  1  0
  6 14  1  0
  7 12  1  0
  8  9  1  0
  8  7  1  0
 10  9  1  0
 10 19  1  0
 10 11  1  0
 12  6  1  0
 12 11  1  0
 13  6  2  0
 14 15  1  0
 16 17  2  0
 17 36  1  0
 18 17  1  0
 18 21  1  0
 19 20  1  0
 19 16  1  0
 20 18  2  0
 21 22  1  0
 22 23  2  0
 24 27  1  0
 24 23  1  0
 25 24  2  0
 26 25  1  0
 26 21  2  0
 27 28  1  0
 28 29  1  0
 29 30  2  0
 31 30  1  0
 31 35  1  0
 32 31  2  0
 33 28  2  0
 33 32  1  0
 34 33  1  0
 36 37  1  0
 37 40  1  0
 37 39  1  0
 38 36  2  0
 41 16  1  0
 41 42  1  0
 43 41  1  0
 44 45  1  0
 44 46  1  0
 45 47  1  0
 46 48  1  0
 47 48  1  0
 47  2  1  0
 48 50  1  0
 48 49  1  0
 51 52  1  0
 53 51  1  0
 53 55  1  0
 55 54  1  1
 55 56  1  0
 57 58  2  0
 57 55  1  0
 59 60  1  0
 59 57  1  0
 61 72  2  0
 62 60  1  0
 62 67  1  0
 63 71  1  0
 63 73  1  0
 64 70  1  0
 64 66  1  0
 65 71  1  0
 66 65  1  0
 67 66  2  0
 68 69  1  0
 68 62  2  0
 69 64  2  0
 70 63  1  0
 71 61  1  0
 73 75  2  0
 74 73  1  0
 76 74  1  0
 77 86  2  0
 77 82  1  0
 78 74  1  0
 78 82  1  0
 79 78  1  0
 80 81  1  0
 80 79  1  0
 81 77  1  0
 82 83  2  0
 83 84  1  0
 85 84  2  0
 86 85  1  0
 87 61  1  0
 87 88  1  0
 87 97  1  0
 88 91  1  0
 89 93  1  0
 89 88  1  0
 90 89  2  0
 93 92  1  0
 95 93  1  0
 95 96  1  0
 95 94  1  0
 97100  1  1
 97 98  1  0
 99 97  1  0
M  ISO  4   6 100  14 100  59 101  60 101
M  END
>  <TORSDO>  (84) 
F 22

>  <SCORE>  (84) 
-12.876

>  <name>  (84) 
83

>  <ligand_id>  (84) 
83

>  <original_smiles>  (84) 
[H]c1c([H])c([H])c2c(c1[H])C([H])([H])C([H])([H])C([H])([H])C2([H])N([H])C(=O)C1([H])N(C(=O)C([H])(N([H])C(=O)C([H])(N([H])C([H])([H])[H])C([H])([H])[H])C(C([H])([H])[H])(C([H])([H])[H])C([H])([H])[H])C([H])([H])c2c([H])c(OC([H])([H])C(=O)C(F)(C([H])([H])[H])C([H])([H])N([H])c3sc(N([H])C(=O)N4C([H])([H])C([H])([H])C([H])([H])C([H])(n5nc(-c6c([H])c([H])c(Oc7c([H])c([H])c(F)c([H])c7F)c([H])c6[H])c(C(=O)N([H])[H])c5N([H])[H])C4([H])[H])c(C4([H])C([H])([H])C([H])([H])C([H])([H])[N+]4([H])[H])c3[H])c([H])c([H])c2C1([H])[H]

>  <smiles>  (84) 
[H]c1c([H])c([H])c2c(c1[H])C([H])([H])C([H])([H])C([H])([H])C2([H])N([H])C(=O)C1([H])N(C(=O)C([H])(N([H])C(=O)C([H])(N([H])C([H])([H])[H])C([H])([H])[H])C(C([H])([H])[H])(C([H])([H])[H])C([H])([H])[H])C([H])([H])c2c([H])c(OC([H])([H])C(=O)C(F)(C([H])([H])[H])C([H])([H])N([H])c3sc(N([H])C(=O)N4C([H])([H])C([H])([H])C([H])([H])C([H])(n5nc(-c6c([H])c([H])c(Oc7c([H])c([H])c(F)c([H])c7F)c([H])c6[H])c(C(=O)N([H])[H])c5N([H])[H])C4([H])[H])c(C4([H])C([H])([H])C([H])([H])C([H])([H])[N+]4([H])[H])c3[H])c([H])c([H])c2C1([H])[H]

$$$$
84:0:0
     RDKit          3D

 92100  0  0  1  0  0  0  0  0999 V2000
  -28.9120  -21.0880   19.6050 C   0  0  0  0  0  0  0  0  0  0  0  0
  -28.1430  -21.0260   18.5090 N   0  0  0  0  0  4  0  0  0  0  0  0
  -29.0760  -22.3540   20.1730 N   0  0  0  0  0  0  0  0  0  0  0  0
  -28.0490  -20.1600   18.0030 H   0  0  0  0  0  0  0  0  0  0  0  0
  -27.6730  -21.8290   18.1250 H   0  0  0  0  0  0  0  0  0  0  0  0
  -29.6520  -22.3770   21.0050 H   0  0  0  0  0  0  0  0  0  0  0  0
  -29.0490  -18.4420   20.0400 C   0  0  0  0  0  3  0  0  0  0  0  0
  -31.2560  -17.9450   20.6060 C   0  0  0  0  0  3  0  0  0  0  0  0
  -30.0260  -17.3820   20.3630 C   0  0  0  0  0  0  0  0  0  0  0  0
  -29.5320  -19.7690   20.0330 C   0  0  0  0  0  0  0  0  0  0  0  0
  -31.2300  -19.7080   20.4670 S   0  0  0  0  0  0  0  0  0  0  0  0
  -30.5600  -14.7890   20.3270 C   0  0  0  0  0  0  0  0  0  0  0  0
  -30.3780  -12.4980   19.3440 C   0  0  0  0  0  2  0  0  0  0  0  0
  -29.4370  -12.5660   18.1200 C   0  0  0  0  0  2  0  0  0  0  0  0
  -27.9670  -12.3900   18.5510 C   0  0  0  0  0  2  0  0  0  0  0  0
  -27.5930  -13.2750   19.7720 C   0  0  0  0  0  3  0  0  0  0  0  0
  -28.6570  -13.1940   20.8870 C   0  0  0  0  0  2  0  0  0  0  0  0
  -29.9470  -13.5550   20.2850 N   0  0  0  0  0  0  0  0  0  0  0  0
  -31.7580  -14.8810   20.0370 O   0  0  0  0  0  0  0  0  0  0  0  0
  -29.7510  -15.9170   20.4570 N   0  0  0  0  0  0  0  0  0  0  0  0
  -28.7780  -15.6830   20.5820 H   0  0  0  0  0  0  0  0  0  0  0  0
  -25.2070  -13.8580   20.5120 C   0  0  0  0  0  0  0  0  0  0  0  0
  -24.1440  -13.0790   20.8840 C   0  0  0  0  0  0  0  0  0  0  0  0
  -24.6140  -11.7310   20.8540 C   0  0  0  0  0  0  0  0  0  0  0  0
  -26.2520  -12.9830   20.2710 N   0  0  0  0  0  0  0  0  0  0  0  0
  -25.9030  -11.6980   20.5410 N   0  0  0  0  0  0  0  0  0  0  0  0
  -23.8910  -10.4660   21.0460 C   0  0  0  0  0  0  0  0  0  0  0  0
  -24.3320   -9.4960   21.9730 C   0  0  0  0  0  3  0  0  0  0  0  0
  -23.6090   -8.2970   22.1530 C   0  0  0  0  0  3  0  0  0  0  0  0
  -22.4310   -8.0580   21.4040 C   0  0  0  0  0  0  0  0  0  0  0  0
  -22.0100   -9.0150   20.4640 C   0  0  0  0  0  3  0  0  0  0  0  0
  -22.7340  -10.2070   20.2830 C   0  0  0  0  0  3  0  0  0  0  0  0
  -21.6800   -6.9120   21.4940 O   0  0  0  0  0  0  0  0  0  0  0  0
  -21.6420   -6.1640   22.6430 C   0  0  0  0  0  0  0  0  0  0  0  0
  -21.2260   -6.7110   23.8760 C   0  0  0  0  0  3  0  0  0  0  0  0
  -21.1360   -5.8890   25.0160 C   0  0  0  0  0  3  0  0  0  0  0  0
  -21.4530   -4.5210   24.9260 C   0  0  0  0  0  0  0  0  0  0  0  0
  -21.8630   -3.9720   23.6980 C   0  0  0  0  0  3  0  0  0  0  0  0
  -21.9540   -4.7910   22.5590 C   0  0  0  0  0  0  0  0  0  0  0  0
  -22.3290   -4.2550   21.3740 F   0  0  0  0  0  0  0  0  0  0  0  0
  -21.3590   -3.7280   26.0200 F   0  0  0  0  0  0  0  0  0  0  0  0
  -22.7450  -13.5530   21.1560 C   0  0  0  0  0  0  0  0  0  0  0  0
  -22.0180  -12.8560   22.0210 N   0  0  0  0  0  0  0  0  0  0  0  0
  -22.3060  -14.5760   20.6330 O   0  0  0  0  0  0  0  0  0  0  0  0
  -22.3860  -12.0310   22.4720 H   0  0  0  0  0  0  0  0  0  0  0  0
  -21.0770  -13.1540   22.2400 H   0  0  0  0  0  0  0  0  0  0  0  0
  -25.3620  -15.2300   20.3350 N   0  0  0  0  0  0  0  0  0  0  0  0
  -24.5860  -15.8730   20.4510 H   0  0  0  0  0  0  0  0  0  0  0  0
  -26.1930  -15.6750   19.9700 H   0  0  0  0  0  0  0  0  0  0  0  0
  -28.7260  -23.7580   19.6090 C   0  0  0  0  0  2  0  0  0  0  0  0
  -28.2320  -24.9690   20.5710 C   0  0  0  0  0  2  0  0  0  0  0  0
  -28.3530  -26.4240   20.1820 O   0  0  0  0  0  0  0  0  0  0  0  0
  -24.6100  -31.8860   23.2270 C   0  0  0  0  0  0  0  0  0  0  0  0
  -27.2300  -27.2810   20.1920 C   0  0  0  0  0  0  0  0  0  0  0  0
  -23.4100  -30.4800   21.5910 C   0  0  0  0  0  3  0  0  0  0  0  0
  -24.8640  -28.9140   20.1760 C   0  0  0  0  0  0  0  0  0  0  0  0
  -25.9530  -30.7900   21.4080 C   0  0  0  0  0  2  0  0  0  0  0  0
  -26.0350  -29.4040   20.7690 C   0  0  0  0  0  0  0  0  0  0  0  0
  -27.2220  -28.6030   20.7570 C   0  0  0  0  0  3  0  0  0  0  0  0
  -26.0350  -26.8500   19.5810 C   0  0  0  0  0  3  0  0  0  0  0  0
  -24.8690  -27.6450   19.5730 C   0  0  0  0  0  3  0  0  0  0  0  0
  -23.6280  -29.7930   20.2150 C   0  0  0  0  0  2  0  0  0  0  0  0
  -24.6770  -31.0710   22.1330 N   0  0  0  0  0  0  0  0  0  0  0  0
  -23.5260  -32.1650   23.7580 O   0  0  0  0  0  0  0  0  0  0  0  0
  -22.7450  -29.4690   22.5560 C   0  0  0  0  0  0  0  0  0  0  0  0
  -21.4180  -29.2930   22.4340 N   0  0  0  0  0  0  0  0  0  0  0  0
  -23.4230  -28.8430   23.3760 O   0  0  0  0  0  0  0  0  0  0  0  0
  -20.9290  -29.8510   21.7470 H   0  0  0  0  0  0  0  0  0  0  0  0
  -18.0380  -28.1060   22.9480 C   0  0  0  0  0  0  0  0  0  0  0  0
  -20.5980  -28.3580   23.2070 C   0  0  0  0  0  3  0  0  0  0  0  0
  -20.6940  -26.9260   22.6300 C   0  0  0  0  0  2  0  0  0  0  0  0
  -19.5870  -26.6080   21.6210 C   0  0  0  0  0  2  0  0  0  0  0  0
  -18.2080  -26.7570   22.2700 C   0  0  0  0  0  2  0  0  0  0  0  0
  -19.1610  -28.8650   23.3740 C   0  0  0  0  0  0  0  0  0  0  0  0
  -18.9470  -30.1270   23.9670 C   0  0  0  0  0  3  0  0  0  0  0  0
  -17.6450  -30.6330   24.1390 C   0  0  0  0  0  3  0  0  0  0  0  0
  -16.5370  -29.8720   23.7270 C   0  0  0  0  0  3  0  0  0  0  0  0
  -16.7350  -28.6100   23.1390 C   0  0  0  0  0  3  0  0  0  0  0  0
  -25.8910  -32.5230   23.8500 C   0  0  0  0  0  3  0  0  0  0  0  0
  -26.4050  -31.7550   25.1300 C   0  0  1  0  0  0  0  0  0  0  0  0
  -25.3100  -31.5230   26.1980 C   0  0  0  0  0  1  0  0  0  0  0  0
  -26.9870  -30.3750   24.7440 C   0  0  0  0  0  1  0  0  0  0  0  0
  -27.5530  -32.5520   25.7920 C   0  0  0  0  0  1  0  0  0  0  0  0
  -25.5760  -33.9200   24.1810 N   0  0  0  0  0  0  0  0  0  0  0  0
  -25.9080  -34.9740   23.4240 C   0  0  0  0  0  0  0  0  0  0  0  0
  -26.5800  -34.8710   22.3940 O   0  0  0  0  0  0  0  0  0  0  0  0
  -24.9730  -34.0740   24.9760 H   0  0  0  0  0  0  0  0  0  0  0  0
  -24.1810  -36.7710   23.0660 C   0  0  0  0  0  1  0  0  0  0  0  0
  -25.4200  -36.3630   23.8810 C   0  0  0  0  0  3  0  0  0  0  0  0
  -27.5520  -37.2500   24.7160 C   0  0  0  0  0  1  0  0  0  0  0  0
  -26.4530  -37.4150   23.7700 N   0  0  0  0  0  0  0  0  0  0  0  0
  -26.0460  -38.3360   23.9140 H   0  0  0  0  0  0  0  0  0  0  0  0
  1 10  1  0
  1  3  1  0
  2  1  2  0
  3  6  1  0
  4  2  1  0
  5  2  1  0
  7  9  1  0
  9 20  1  0
  9  8  2  0
 10  7  2  0
 10 11  1  0
 11  8  1  0
 12 20  1  0
 13 18  1  0
 14 15  1  0
 14 13  1  0
 16 15  1  0
 16 25  1  0
 16 17  1  0
 18 12  1  0
 18 17  1  0
 19 12  2  0
 20 21  1  0
 22 23  2  0
 23 42  1  0
 24 23  1  0
 24 27  1  0
 25 22  1  0
 25 26  1  0
 26 24  2  0
 27 28  1  0
 28 29  2  0
 30 33  1  0
 30 29  1  0
 31 30  2  0
 32 31  1  0
 32 27  2  0
 33 34  1  0
 34 35  1  0
 35 36  2  0
 37 36  1  0
 37 41  1  0
 38 37  2  0
 39 34  2  0
 39 38  1  0
 40 39  1  0
 42 43  1  0
 43 46  1  0
 43 45  1  0
 44 42  2  0
 47 48  1  0
 47 22  1  0
 49 47  1  0
 50  3  1  0
 50 51  1  0
 52 54  1  0
 52 51  1  0
 53 64  2  0
 54 59  1  0
 55 63  1  0
 55 65  1  0
 56 62  1  0
 56 58  1  0
 57 63  1  0
 58 57  1  0
 59 58  2  0
 60 54  2  0
 61 60  1  0
 61 56  2  0
 62 55  1  0
 63 53  1  0
 65 67  2  0
 66 65  1  0
 68 66  1  0
 69 78  2  0
 69 74  1  0
 70 66  1  0
 70 74  1  0
 71 70  1  0
 72 73  1  0
 72 71  1  0
 73 69  1  0
 74 75  2  0
 75 76  1  0
 77 76  2  0
 78 77  1  0
 79 53  1  0
 79 84  1  0
 79 80  1  0
 80 83  1  1
 80 81  1  0
 82 80  1  0
 84 87  1  0
 85 89  1  0
 85 84  1  0
 86 85  2  0
 89 88  1  0
 91 89  1  0
 91 92  1  0
 91 90  1  0
M  ISO  4  12 100  20 100  51 101  52 101
M  END
>  <TORSDO>  (85) 
F 19

>  <SCORE>  (85) 
-14.227

>  <name>  (85) 
84

>  <ligand_id>  (85) 
84

>  <original_smiles>  (85) 
[H]c1sc(C(N([H])[H])=[N+]([H])C([H])([H])C([H])([H])Oc2c([H])c([H])c3c(c2[H])C([H])([H])N(C(=O)C([H])(N([H])C(=O)C([H])(N([H])C([H])([H])[H])C([H])([H])[H])C(C([H])([H])[H])(C([H])([H])[H])C([H])([H])[H])C([H])(C(=O)N([H])C2([H])c4c([H])c([H])c([H])c([H])c4C([H])([H])C([H])([H])C2([H])[H])C3([H])[H])c([H])c1N([H])C(=O)N1C([H])([H])C([H])([H])C([H])([H])C([H])(n2nc(-c3c([H])c([H])c(Oc4c([H])c([H])c(F)c([H])c4F)c([H])c3[H])c(C(=O)N([H])[H])c2N([H])[H])C1([H])[H]

>  <smiles>  (85) 
[H]c1sc(C(N([H])[H])=[N+]([H])C([H])([H])C([H])([H])Oc2c([H])c([H])c3c(c2[H])C([H])([H])N(C(=O)C([H])(N([H])C(=O)C([H])(N([H])C([H])([H])[H])C([H])([H])[H])C(C([H])([H])[H])(C([H])([H])[H])C([H])([H])[H])C([H])(C(=O)N([H])C2([H])c4c([H])c([H])c([H])c([H])c4C([H])([H])C([H])([H])C2([H])[H])C3([H])[H])c([H])c1N([H])C(=O)N1C([H])([H])C([H])([H])C([H])([H])C([H])(n2nc(-c3c([H])c([H])c(Oc4c([H])c([H])c(F)c([H])c4F)c([H])c3[H])c(C(=O)N([H])[H])c2N([H])[H])C1([H])[H]

$$$$
85:0:0
     RDKit          3D

 92101  0  0  1  0  0  0  0  0999 V2000
  -28.1780  -21.2420   20.3140 C   0  0  0  0  0  2  0  0  0  0  0  0
  -30.4010  -22.0810   21.1130 C   0  0  0  0  0  2  0  0  0  0  0  0
  -27.7530  -22.6860   20.7680 C   0  0  0  0  0  2  0  0  0  0  0  0
  -30.1100  -23.5470   20.6410 C   0  0  0  0  0  2  0  0  0  0  0  0
  -29.7070  -20.9690   20.2710 C   0  0  0  0  0  3  0  0  0  0  0  0
  -28.6290  -23.8850   20.2660 C   0  0  1  0  0  0  0  0  0  0  0  0
  -28.4810  -23.9910   18.7350 C   0  0  0  0  0  1  0  0  0  0  0  0
  -29.5050  -18.2850   20.4630 C   0  0  0  0  0  3  0  0  0  0  0  0
  -31.6230  -17.4970   21.0740 C   0  0  0  0  0  3  0  0  0  0  0  0
  -30.3500  -17.1290   20.7260 C   0  0  0  0  0  0  0  0  0  0  0  0
  -30.1610  -19.5150   20.5660 C   0  0  0  0  0  0  0  0  0  0  0  0
  -31.8270  -19.2270   21.0360 S   0  0  0  0  0  0  0  0  0  0  0  0
  -30.6460  -14.6260   20.3520 C   0  0  0  0  0  0  0  0  0  0  0  0
  -30.3480  -12.4350   19.2370 C   0  0  0  0  0  2  0  0  0  0  0  0
  -29.3960  -12.6120   18.0360 C   0  0  0  0  0  2  0  0  0  0  0  0
  -27.9280  -12.4610   18.4810 C   0  0  0  0  0  2  0  0  0  0  0  0
  -27.5940  -13.2980   19.7460 C   0  0  0  0  0  3  0  0  0  0  0  0
  -28.6680  -13.1230   20.8440 C   0  0  0  0  0  2  0  0  0  0  0  0
  -29.9710  -13.4430   20.2460 N   0  0  0  0  0  0  0  0  0  0  0  0
  -31.8170  -14.7200   19.9740 O   0  0  0  0  0  0  0  0  0  0  0  0
  -29.9160  -15.7390   20.6670 N   0  0  0  0  0  0  0  0  0  0  0  0
  -28.9300  -15.5750   20.8030 H   0  0  0  0  0  0  0  0  0  0  0  0
  -25.2080  -13.8830   20.4970 C   0  0  0  0  0  0  0  0  0  0  0  0
  -24.1480  -13.1030   20.8720 C   0  0  0  0  0  0  0  0  0  0  0  0
  -24.6140  -11.7550   20.8270 C   0  0  0  0  0  0  0  0  0  0  0  0
  -26.2520  -13.0070   20.2450 N   0  0  0  0  0  0  0  0  0  0  0  0
  -25.9000  -11.7220   20.5050 N   0  0  0  0  0  0  0  0  0  0  0  0
  -23.8910  -10.4880   21.0140 C   0  0  0  0  0  0  0  0  0  0  0  0
  -24.3150   -9.5300   21.9600 C   0  0  0  0  0  3  0  0  0  0  0  0
  -23.5940   -8.3290   22.1360 C   0  0  0  0  0  3  0  0  0  0  0  0
  -22.4340   -8.0780   21.3630 C   0  0  0  0  0  0  0  0  0  0  0  0
  -22.0310   -9.0250   20.4060 C   0  0  0  0  0  3  0  0  0  0  0  0
  -22.7530  -10.2170   20.2290 C   0  0  0  0  0  3  0  0  0  0  0  0
  -21.6860   -6.9280   21.4460 O   0  0  0  0  0  0  0  0  0  0  0  0
  -21.6020   -6.2070   22.6110 C   0  0  0  0  0  0  0  0  0  0  0  0
  -21.0910   -6.7710   23.8000 C   0  0  0  0  0  3  0  0  0  0  0  0
  -20.9550   -5.9750   24.9550 C   0  0  0  0  0  3  0  0  0  0  0  0
  -21.3230   -4.6160   24.9220 C   0  0  0  0  0  0  0  0  0  0  0  0
  -21.8270   -4.0530   23.7370 C   0  0  0  0  0  3  0  0  0  0  0  0
  -21.9630   -4.8460   22.5840 C   0  0  0  0  0  0  0  0  0  0  0  0
  -22.4310   -4.2920   21.4390 F   0  0  0  0  0  0  0  0  0  0  0  0
  -21.1870   -3.8500   26.0290 F   0  0  0  0  0  0  0  0  0  0  0  0
  -22.7510  -13.5750   21.1610 C   0  0  0  0  0  0  0  0  0  0  0  0
  -22.0300  -12.8650   22.0220 N   0  0  0  0  0  0  0  0  0  0  0  0
  -22.3090  -14.6070   20.6570 O   0  0  0  0  0  0  0  0  0  0  0  0
  -22.4000  -12.0310   22.4530 H   0  0  0  0  0  0  0  0  0  0  0  0
  -21.0920  -13.1600   22.2540 H   0  0  0  0  0  0  0  0  0  0  0  0
  -25.3660  -15.2550   20.3270 N   0  0  0  0  0  0  0  0  0  0  0  0
  -24.5950  -15.9040   20.4450 H   0  0  0  0  0  0  0  0  0  0  0  0
  -26.1980  -15.6980   19.9580 H   0  0  0  0  0  0  0  0  0  0  0  0
  -28.1100  -25.2410   20.9240 C   0  0  0  0  0  2  0  0  0  0  0  0
  -28.3680  -26.5510   20.3000 O   0  0  0  0  0  0  0  0  0  0  0  0
  -24.6020  -31.9210   23.2390 C   0  0  0  0  0  0  0  0  0  0  0  0
  -27.2610  -27.3930   20.2330 C   0  0  0  0  0  0  0  0  0  0  0  0
  -23.4130  -30.5010   21.6040 C   0  0  0  0  0  3  0  0  0  0  0  0
  -24.8830  -28.9580   20.1920 C   0  0  0  0  0  0  0  0  0  0  0  0
  -25.9470  -30.8490   21.4240 C   0  0  0  0  0  2  0  0  0  0  0  0
  -26.0410  -29.4690   20.7910 C   0  0  0  0  0  0  0  0  0  0  0  0
  -27.2370  -28.6970   20.8030 C   0  0  0  0  0  3  0  0  0  0  0  0
  -26.0880  -26.9300   19.5970 C   0  0  0  0  0  3  0  0  0  0  0  0
  -24.9070  -27.6930   19.5820 C   0  0  0  0  0  3  0  0  0  0  0  0
  -23.6350  -29.8150   20.2290 C   0  0  0  0  0  2  0  0  0  0  0  0
  -24.6720  -31.1070   22.1460 N   0  0  0  0  0  0  0  0  0  0  0  0
  -23.5160  -32.1930   23.7690 O   0  0  0  0  0  0  0  0  0  0  0  0
  -22.7540  -29.4870   22.5670 C   0  0  0  0  0  0  0  0  0  0  0  0
  -21.4290  -29.3040   22.4390 N   0  0  0  0  0  0  0  0  0  0  0  0
  -23.4340  -28.8670   23.3900 O   0  0  0  0  0  0  0  0  0  0  0  0
  -20.9390  -29.8540   21.7470 H   0  0  0  0  0  0  0  0  0  0  0  0
  -18.0510  -28.1290   22.9550 C   0  0  0  0  0  0  0  0  0  0  0  0
  -20.6120  -28.3700   23.2140 C   0  0  0  0  0  3  0  0  0  0  0  0
  -20.7020  -26.9390   22.6350 C   0  0  0  0  0  2  0  0  0  0  0  0
  -19.5950  -26.6250   21.6250 C   0  0  0  0  0  2  0  0  0  0  0  0
  -18.2160  -26.7790   22.2770 C   0  0  0  0  0  2  0  0  0  0  0  0
  -19.1770  -28.8820   23.3810 C   0  0  0  0  0  0  0  0  0  0  0  0
  -18.9690  -30.1460   23.9750 C   0  0  0  0  0  3  0  0  0  0  0  0
  -17.6690  -30.6580   24.1440 C   0  0  0  0  0  3  0  0  0  0  0  0
  -16.5570  -29.8990   23.7380 C   0  0  0  0  0  3  0  0  0  0  0  0
  -16.7500  -28.6360   23.1500 C   0  0  0  0  0  3  0  0  0  0  0  0
  -25.8800  -32.5660   23.8600 C   0  0  0  0  0  3  0  0  0  0  0  0
  -25.5620  -33.9650   24.1800 N   0  0  0  0  0  0  0  0  0  0  0  0
  -25.8980  -35.0150   23.4190 C   0  0  0  0  0  0  0  0  0  0  0  0
  -26.5780  -34.9070   22.3950 O   0  0  0  0  0  0  0  0  0  0  0  0
  -24.9600  -34.1200   24.9760 H   0  0  0  0  0  0  0  0  0  0  0  0
  -24.1800  -36.8060   23.0190 C   0  0  0  0  0  1  0  0  0  0  0  0
  -25.4000  -36.4040   23.8630 C   0  0  0  0  0  3  0  0  0  0  0  0
  -27.5100  -37.2900   24.7520 C   0  0  0  0  0  1  0  0  0  0  0  0
  -26.4360  -37.4560   23.7760 N   0  0  0  0  0  0  0  0  0  0  0  0
  -26.0260  -38.3770   23.9080 H   0  0  0  0  0  0  0  0  0  0  0  0
  -26.3960  -31.8080   25.1440 C   0  0  1  0  0  0  0  0  0  0  0  0
  -25.2980  -31.5660   26.2060 C   0  0  0  0  0  1  0  0  0  0  0  0
  -26.9920  -30.4340   24.7610 C   0  0  0  0  0  1  0  0  0  0  0  0
  -27.5370  -32.6110   25.8090 C   0  0  0  0  0  1  0  0  0  0  0  0
  1  3  1  0
  4  2  1  0
  5  1  1  0
  5 11  1  0
  5  2  1  0
  6  7  1  6
  6  4  1  0
  6  3  1  0
  6 51  1  0
  8 11  2  0
  8 10  1  0
 10  9  2  0
 11 12  1  0
 12  9  1  0
 13 21  1  0
 14 19  1  0
 15 16  1  0
 15 14  1  0
 17 16  1  0
 17 26  1  0
 17 18  1  0
 19 13  1  0
 19 18  1  0
 20 13  2  0
 21 10  1  0
 21 22  1  0
 23 24  2  0
 24 43  1  0
 25 24  1  0
 25 28  1  0
 26 23  1  0
 26 27  1  0
 27 25  2  0
 28 29  1  0
 29 30  2  0
 31 34  1  0
 31 30  1  0
 32 31  2  0
 33 32  1  0
 33 28  2  0
 34 35  1  0
 35 36  1  0
 36 37  2  0
 38 37  1  0
 38 42  1  0
 39 38  2  0
 40 35  2  0
 40 39  1  0
 41 40  1  0
 43 44  1  0
 44 47  1  0
 44 46  1  0
 45 43  2  0
 48 49  1  0
 48 23  1  0
 50 48  1  0
 52 51  1  0
 53 64  2  0
 54 52  1  0
 54 59  1  0
 55 63  1  0
 55 65  1  0
 56 62  1  0
 56 58  1  0
 57 63  1  0
 58 59  2  0
 58 57  1  0
 60 54  2  0
 61 60  1  0
 61 56  2  0
 62 55  1  0
 63 53  1  0
 65 67  2  0
 66 65  1  0
 68 66  1  0
 69 78  2  0
 69 74  1  0
 70 66  1  0
 70 74  1  0
 71 70  1  0
 72 73  1  0
 72 71  1  0
 73 69  1  0
 74 75  2  0
 75 76  1  0
 77 76  2  0
 78 77  1  0
 79 53  1  0
 79 80  1  0
 79 89  1  0
 80 83  1  0
 81 85  1  0
 81 80  1  0
 82 81  2  0
 85 84  1  0
 87 85  1  0
 87 88  1  0
 87 86  1  0
 89 92  1  1
 89 90  1  0
 91 89  1  0
M  ISO  4  13 100  21 100  51 101  52 101
M  END
>  <TORSDO>  (86) 
F 18

>  <SCORE>  (86) 
-14.968

>  <name>  (86) 
85

>  <ligand_id>  (86) 
85

>  <original_smiles>  (86) 
[H]c1sc(C2([H])C([H])([H])C([H])([H])C(C([H])([H])[H])(C([H])([H])Oc3c([H])c([H])c4c(c3[H])C([H])([H])N(C(=O)C([H])(N([H])C(=O)C([H])(N([H])C([H])([H])[H])C([H])([H])[H])C(C([H])([H])[H])(C([H])([H])[H])C([H])([H])[H])C([H])(C(=O)N([H])C3([H])c5c([H])c([H])c([H])c([H])c5C([H])([H])C([H])([H])C3([H])[H])C4([H])[H])C([H])([H])C2([H])[H])c([H])c1N([H])C(=O)N1C([H])([H])C([H])([H])C([H])([H])C([H])(n2nc(-c3c([H])c([H])c(Oc4c([H])c([H])c(F)c([H])c4F)c([H])c3[H])c(C(=O)N([H])[H])c2N([H])[H])C1([H])[H]

>  <smiles>  (86) 
[H]c1sc(C2([H])C([H])([H])C([H])([H])C(C([H])([H])[H])(C([H])([H])Oc3c([H])c([H])c4c(c3[H])C([H])([H])N(C(=O)C([H])(N([H])C(=O)C([H])(N([H])C([H])([H])[H])C([H])([H])[H])C(C([H])([H])[H])(C([H])([H])[H])C([H])([H])[H])C([H])(C(=O)N([H])C3([H])c5c([H])c([H])c([H])c([H])c5C([H])([H])C([H])([H])C3([H])[H])C4([H])[H])C([H])([H])C2([H])[H])c([H])c1N([H])C(=O)N1C([H])([H])C([H])([H])C([H])([H])C([H])(n2nc(-c3c([H])c([H])c(Oc4c([H])c([H])c(F)c([H])c4F)c([H])c3[H])c(C(=O)N([H])[H])c2N([H])[H])C1([H])[H]

$$$$
86:0:0
     RDKit          3D

 94103  0  0  1  0  0  0  0  0999 V2000
  -29.7190  -19.9470   19.6870 C   0  0  0  0  0  3  0  0  0  0  0  0
  -30.3160  -18.8480   20.4680 C   0  0  0  0  0  0  0  0  0  0  0  0
  -30.5760  -19.3100   21.7500 C   0  0  0  0  0  0  0  0  0  0  0  0
  -29.5740  -21.1990   20.3000 C   0  0  0  0  0  0  0  0  0  0  0  0
  -30.1780  -21.0400   21.9250 S   0  0  0  0  0  0  0  0  0  0  0  0
  -30.9700  -17.8520   24.7160 C   0  0  0  0  0  2  0  0  0  0  0  0
  -31.1960  -19.2440   24.1390 C   0  0  0  0  0  2  0  0  0  0  0  0
  -30.4820  -17.4370   23.3290 C   0  0  0  0  0  2  0  0  0  0  0  0
  -31.2020  -18.6010   22.8230 N   0  0  0  0  0  0  0  0  0  0  0  0
  -29.0250  -22.4380   19.7790 N   0  0  0  0  0  0  0  0  0  0  0  0
  -28.7130  -22.4290   18.8110 H   0  0  0  0  0  0  0  0  0  0  0  0
  -29.1420  -23.8370   20.3570 C   0  0  0  0  0  2  0  0  0  0  0  0
  -28.3170  -24.9680   18.1690 C   0  0  0  0  0  1  0  0  0  0  0  0
  -28.2050  -24.9910   19.7030 C   0  0  0  0  0  3  0  0  0  0  0  0
  -28.3430  -26.4460   20.0660 O   0  0  0  0  0  0  0  0  0  0  0  0
  -24.7190  -31.9010   23.1760 C   0  0  0  0  0  0  0  0  0  0  0  0
  -27.2390  -27.3360   20.0060 C   0  0  0  0  0  0  0  0  0  0  0  0
  -23.4730  -30.5180   21.5580 C   0  0  0  0  0  3  0  0  0  0  0  0
  -24.8840  -28.9890   20.0680 C   0  0  0  0  0  0  0  0  0  0  0  0
  -26.0080  -30.8300   21.3100 C   0  0  0  0  0  2  0  0  0  0  0  0
  -26.0700  -29.4550   20.6480 C   0  0  0  0  0  0  0  0  0  0  0  0
  -27.2470  -28.6380   20.6130 C   0  0  0  0  0  3  0  0  0  0  0  0
  -26.0300  -26.9550   19.3760 C   0  0  0  0  0  3  0  0  0  0  0  0
  -24.8690  -27.7470   19.4200 C   0  0  0  0  0  3  0  0  0  0  0  0
  -23.6480  -29.8630   20.1640 C   0  0  0  0  0  2  0  0  0  0  0  0
  -24.7550  -31.1000   22.0710 N   0  0  0  0  0  0  0  0  0  0  0  0
  -23.6500  -32.1720   23.7440 O   0  0  0  0  0  0  0  0  0  0  0  0
  -22.8390  -29.4870   22.5250 C   0  0  0  0  0  0  0  0  0  0  0  0
  -21.5130  -29.2970   22.4250 N   0  0  0  0  0  0  0  0  0  0  0  0
  -23.5410  -28.8650   23.3260 O   0  0  0  0  0  0  0  0  0  0  0  0
  -21.0030  -29.8540   21.7530 H   0  0  0  0  0  0  0  0  0  0  0  0
  -18.1650  -28.0280   22.9590 C   0  0  0  0  0  0  0  0  0  0  0  0
  -20.7200  -28.3470   23.2100 C   0  0  0  0  0  3  0  0  0  0  0  0
  -20.8490  -26.9140   22.6450 C   0  0  0  0  0  2  0  0  0  0  0  0
  -19.7480  -26.5580   21.6420 C   0  0  0  0  0  2  0  0  0  0  0  0
  -18.3670  -26.6770   22.2920 C   0  0  0  0  0  2  0  0  0  0  0  0
  -19.2700  -28.8180   23.3750 C   0  0  0  0  0  0  0  0  0  0  0  0
  -19.0250  -30.0800   23.9590 C   0  0  0  0  0  3  0  0  0  0  0  0
  -17.7110  -30.5520   24.1310 C   0  0  0  0  0  3  0  0  0  0  0  0
  -16.6210  -29.7580   23.7320 C   0  0  0  0  0  3  0  0  0  0  0  0
  -16.8500  -28.4990   23.1490 C   0  0  0  0  0  3  0  0  0  0  0  0
  -26.0190  -32.5310   23.7660 C   0  0  0  0  0  3  0  0  0  0  0  0
  -25.7040  -33.9140   24.1560 N   0  0  0  0  0  0  0  0  0  0  0  0
  -25.9990  -34.9970   23.4260 C   0  0  0  0  0  0  0  0  0  0  0  0
  -26.6370  -34.9390   22.3700 O   0  0  0  0  0  0  0  0  0  0  0  0
  -25.1330  -34.0300   24.9800 H   0  0  0  0  0  0  0  0  0  0  0  0
  -24.2430  -36.7860   23.1950 C   0  0  0  0  0  1  0  0  0  0  0  0
  -25.5130  -36.3630   23.9500 C   0  0  0  0  0  3  0  0  0  0  0  0
  -27.6670  -37.2420   24.7400 C   0  0  0  0  0  1  0  0  0  0  0  0
  -26.5300  -37.4320   23.8420 N   0  0  0  0  0  0  0  0  0  0  0  0
  -26.1210  -38.3410   24.0430 H   0  0  0  0  0  0  0  0  0  0  0  0
  -26.5940  -31.7270   24.9960 C   0  0  1  0  0  0  0  0  0  0  0  0
  -25.5480  -31.4460   26.1010 C   0  0  0  0  0  1  0  0  0  0  0  0
  -27.1750  -30.3680   24.5410 C   0  0  0  0  0  1  0  0  0  0  0  0
  -27.7630  -32.5140   25.6330 C   0  0  0  0  0  1  0  0  0  0  0  0
  -30.7270  -17.4530   19.8290 C   0  0  0  0  0  2  0  0  0  0  0  0
  -30.9870  -14.8950   20.1340 C   0  0  0  0  0  0  0  0  0  0  0  0
  -30.7290  -12.5880   19.2290 C   0  0  0  0  0  2  0  0  0  0  0  0
  -29.8120  -12.6330   17.9880 C   0  0  0  0  0  2  0  0  0  0  0  0
  -28.3370  -12.4990   18.4100 C   0  0  0  0  0  2  0  0  0  0  0  0
  -27.9630  -13.4490   19.5800 C   0  0  0  0  0  3  0  0  0  0  0  0
  -29.0070  -13.4030   20.7180 C   0  0  0  0  0  2  0  0  0  0  0  0
  -30.3180  -13.6930   20.1250 N   0  0  0  0  0  0  0  0  0  0  0  0
  -32.1700  -14.9380   19.7920 O   0  0  0  0  0  0  0  0  0  0  0  0
  -30.2680  -16.0700   20.2790 N   0  0  0  0  0  0  0  0  0  0  0  0
  -29.2920  -15.9730   20.5070 H   0  0  0  0  0  0  0  0  0  0  0  0
  -25.5840  -14.1080   20.2700 C   0  0  0  0  0  0  0  0  0  0  0  0
  -24.5010  -13.3660   20.6540 C   0  0  0  0  0  0  0  0  0  0  0  0
  -24.9360  -12.0050   20.6650 C   0  0  0  0  0  0  0  0  0  0  0  0
  -26.6110  -13.2020   20.0670 N   0  0  0  0  0  0  0  0  0  0  0  0
  -26.2290  -11.9340   20.3680 N   0  0  0  0  0  0  0  0  0  0  0  0
  -24.1840  -10.7630   20.8840 C   0  0  0  0  0  0  0  0  0  0  0  0
  -24.5770   -9.8240   21.8630 C   0  0  0  0  0  3  0  0  0  0  0  0
  -23.8240   -8.6480   22.0680 C   0  0  0  0  0  3  0  0  0  0  0  0
  -22.6670   -8.4000   21.2920 C   0  0  0  0  0  0  0  0  0  0  0  0
  -22.2940   -9.3270   20.3040 C   0  0  0  0  0  3  0  0  0  0  0  0
  -23.0450  -10.4970   20.0980 C   0  0  0  0  0  3  0  0  0  0  0  0
  -21.8910   -7.2730   21.4050 O   0  0  0  0  0  0  0  0  0  0  0  0
  -21.7700   -6.5970   22.5920 C   0  0  0  0  0  0  0  0  0  0  0  0
  -21.3120   -7.2320   23.7670 C   0  0  0  0  0  3  0  0  0  0  0  0
  -21.1370   -6.4830   24.9490 C   0  0  0  0  0  3  0  0  0  0  0  0
  -21.4080   -5.1020   24.9550 C   0  0  0  0  0  0  0  0  0  0  0  0
  -21.8580   -4.4680   23.7840 C   0  0  0  0  0  3  0  0  0  0  0  0
  -22.0350   -5.2130   22.6050 C   0  0  0  0  0  0  0  0  0  0  0  0
  -22.4480   -4.5920   21.4740 F   0  0  0  0  0  0  0  0  0  0  0  0
  -21.2320   -4.3810   26.0870 F   0  0  0  0  0  0  0  0  0  0  0  0
  -23.1110  -13.8780   20.8980 C   0  0  0  0  0  0  0  0  0  0  0  0
  -22.3670  -13.2320   21.7880 N   0  0  0  0  0  0  0  0  0  0  0  0
  -22.6940  -14.8890   20.3340 O   0  0  0  0  0  0  0  0  0  0  0  0
  -22.7170  -12.4130   22.2660 H   0  0  0  0  0  0  0  0  0  0  0  0
  -21.4340  -13.5600   21.9970 H   0  0  0  0  0  0  0  0  0  0  0  0
  -25.7750  -15.4690   20.0540 N   0  0  0  0  0  0  0  0  0  0  0  0
  -25.0110  -16.1330   20.1250 H   0  0  0  0  0  0  0  0  0  0  0  0
  -26.6190  -15.8780   19.6730 H   0  0  0  0  0  0  0  0  0  0  0  0
  1  4  2  0
  1  2  1  0
  2  3  2  0
  3  5  1  0
  3  9  1  0
  4  5  1  0
  7  6  1  0
  8  6  1  0
  9  8  1  0
  9  7  1  0
 10  4  1  0
 10 12  1  0
 11 10  1  0
 14 13  1  0
 14 15  1  0
 14 12  1  0
 16 27  2  0
 17 15  1  0
 17 22  1  0
 18 26  1  0
 18 28  1  0
 19 25  1  0
 19 21  1  0
 20 26  1  0
 21 20  1  0
 22 21  2  0
 23 24  1  0
 23 17  2  0
 24 19  2  0
 25 18  1  0
 26 16  1  0
 28 30  2  0
 29 28  1  0
 31 29  1  0
 32 41  2  0
 32 37  1  0
 33 29  1  0
 33 37  1  0
 34 33  1  0
 35 36  1  0
 35 34  1  0
 36 32  1  0
 37 38  2  0
 38 39  1  0
 40 39  2  0
 41 40  1  0
 42 16  1  0
 42 43  1  0
 42 52  1  0
 43 46  1  0
 44 48  1  0
 44 43  1  0
 45 44  2  0
 48 47  1  0
 50 48  1  0
 50 51  1  0
 50 49  1  0
 52 55  1  1
 52 53  1  0
 54 52  1  0
 56 65  1  0
 56  2  1  0
 57 65  1  0
 58 63  1  0
 59 60  1  0
 59 58  1  0
 61 60  1  0
 61 70  1  0
 61 62  1  0
 63 57  1  0
 63 62  1  0
 64 57  2  0
 65 66  1  0
 67 68  2  0
 68 69  1  0
 68 87  1  0
 69 72  1  0
 70 67  1  0
 70 71  1  0
 71 69  2  0
 72 73  1  0
 73 74  2  0
 75 78  1  0
 75 74  1  0
 76 75  2  0
 77 76  1  0
 77 72  2  0
 78 79  1  0
 79 84  2  0
 79 80  1  0
 80 81  2  0
 81 82  1  0
 82 86  1  0
 83 82  2  0
 84 83  1  0
 85 84  1  0
 87 88  1  0
 88 91  1  0
 88 90  1  0
 89 87  2  0
 92 93  1  0
 92 67  1  0
 94 92  1  0
M  ISO  4  14 101  15 101  57 100  65 100
M  END
>  <TORSDO>  (87) 
F 21

>  <SCORE>  (87) 
-10.288

>  <name>  (87) 
86

>  <ligand_id>  (87) 
86

>  <original_smiles>  (87) 
[H]c1c([H])c([H])c2c(c1[H])C([H])([H])C([H])([H])C([H])([H])C2([H])N([H])C(=O)C1([H])N(C(=O)C([H])(N([H])C(=O)C([H])(N([H])C([H])([H])[H])C([H])([H])[H])C(C([H])([H])[H])(C([H])([H])[H])C([H])([H])[H])C([H])([H])c2c([H])c(OC([H])(C([H])([H])[H])C([H])([H])N([H])c3sc(N4C([H])([H])C([H])([H])C4([H])[H])c(C([H])([H])N([H])C(=O)N4C([H])([H])C([H])([H])C([H])([H])C([H])(n5nc(-c6c([H])c([H])c(Oc7c([H])c([H])c(F)c([H])c7F)c([H])c6[H])c(C(=O)N([H])[H])c5N([H])[H])C4([H])[H])c3[H])c([H])c([H])c2C1([H])[H]

>  <smiles>  (87) 
[H]c1c([H])c([H])c2c(c1[H])C([H])([H])C([H])([H])C([H])([H])C2([H])N([H])C(=O)C1([H])N(C(=O)C([H])(N([H])C(=O)C([H])(N([H])C([H])([H])[H])C([H])([H])[H])C(C([H])([H])[H])(C([H])([H])[H])C([H])([H])[H])C([H])([H])c2c([H])c(OC([H])(C([H])([H])[H])C([H])([H])N([H])c3sc(N4C([H])([H])C([H])([H])C4([H])[H])c(C([H])([H])N([H])C(=O)N4C([H])([H])C([H])([H])C([H])([H])C([H])(n5nc(-c6c([H])c([H])c(Oc7c([H])c([H])c(F)c([H])c7F)c([H])c6[H])c(C(=O)N([H])[H])c5N([H])[H])C4([H])[H])c3[H])c([H])c([H])c2C1([H])[H]

$$$$
87:0:0
     RDKit          3D

 98106  0  0  1  0  0  0  0  0999 V2000
  -29.4200  -20.9980   20.0430 C   0  0  0  0  0  0  0  0  0  0  0  0
  -28.9040  -23.5080   20.2430 C   0  0  0  0  0  0  0  0  0  0  0  0
  -29.2360  -22.1640   20.7430 N   0  0  0  0  0  0  0  0  0  0  0  0
  -29.1590  -20.9470   18.7350 N   0  0  0  0  0  4  0  0  0  0  0  0
  -28.8860  -23.7450   19.0300 O   0  0  0  0  0  0  0  0  0  0  0  0
  -29.2920  -22.0020   21.7350 H   0  0  0  0  0  0  0  0  0  0  0  0
  -29.3730  -20.1170   18.2060 H   0  0  0  0  0  0  0  0  0  0  0  0
  -28.8970  -21.7980   18.2540 H   0  0  0  0  0  0  0  0  0  0  0  0
  -29.5810  -18.4240   20.2660 C   0  0  0  0  0  3  0  0  0  0  0  0
  -31.0220  -19.8780   21.5960 C   0  0  0  0  0  3  0  0  0  0  0  0
  -31.2960  -17.4460   21.6990 C   0  0  0  0  0  3  0  0  0  0  0  0
  -29.9750  -19.7490   20.6570 C   0  0  0  0  0  0  0  0  0  0  0  0
  -30.2450  -17.2570   20.7720 C   0  0  0  0  0  0  0  0  0  0  0  0
  -31.6750  -18.7400   22.1090 C   0  0  0  0  0  0  0  0  0  0  0  0
  -32.6820  -18.8960   23.0020 F   0  0  0  0  0  0  0  0  0  0  0  0
  -30.5990  -14.8480   20.0610 C   0  0  0  0  0  0  0  0  0  0  0  0
  -30.3140  -12.6610   18.9210 C   0  0  0  0  0  2  0  0  0  0  0  0
  -29.2890  -12.8090   17.7770 C   0  0  0  0  0  2  0  0  0  0  0  0
  -27.8510  -12.6170   18.3030 C   0  0  0  0  0  2  0  0  0  0  0  0
  -27.5640  -13.4440   19.5850 C   0  0  0  0  0  3  0  0  0  0  0  0
  -28.6980  -13.2810   20.6190 C   0  0  0  0  0  2  0  0  0  0  0  0
  -29.9590  -13.6460   19.9570 N   0  0  0  0  0  0  0  0  0  0  0  0
  -31.7420  -15.0150   19.6280 O   0  0  0  0  0  0  0  0  0  0  0  0
  -29.8260  -15.9120   20.4280 N   0  0  0  0  0  0  0  0  0  0  0  0
  -28.8410  -15.7170   20.5120 H   0  0  0  0  0  0  0  0  0  0  0  0
  -25.2210  -13.9810   20.4950 C   0  0  0  0  0  0  0  0  0  0  0  0
  -24.1920  -13.1790   20.9080 C   0  0  0  0  0  0  0  0  0  0  0  0
  -24.6660  -11.8370   20.7890 C   0  0  0  0  0  0  0  0  0  0  0  0
  -26.2560  -13.1260   20.1530 N   0  0  0  0  0  0  0  0  0  0  0  0
  -25.9310  -11.8290   20.3880 N   0  0  0  0  0  0  0  0  0  0  0  0
  -23.9690  -10.5580   20.9770 C   0  0  0  0  0  0  0  0  0  0  0  0
  -24.4340   -9.5940   21.8990 C   0  0  0  0  0  3  0  0  0  0  0  0
  -23.7400   -8.3780   22.0760 C   0  0  0  0  0  3  0  0  0  0  0  0
  -22.5660   -8.1160   21.3310 C   0  0  0  0  0  0  0  0  0  0  0  0
  -22.1190   -9.0690   20.3980 C   0  0  0  0  0  3  0  0  0  0  0  0
  -22.8140  -10.2760   20.2200 C   0  0  0  0  0  3  0  0  0  0  0  0
  -21.8400   -6.9520   21.4180 O   0  0  0  0  0  0  0  0  0  0  0  0
  -21.7780   -6.2280   22.5810 C   0  0  0  0  0  0  0  0  0  0  0  0
  -21.2490   -6.7750   23.7710 C   0  0  0  0  0  3  0  0  0  0  0  0
  -21.1410   -5.9730   24.9260 C   0  0  0  0  0  3  0  0  0  0  0  0
  -21.5480   -4.6260   24.8900 C   0  0  0  0  0  0  0  0  0  0  0  0
  -22.0680   -4.0790   23.7040 C   0  0  0  0  0  3  0  0  0  0  0  0
  -22.1810   -4.8770   22.5520 C   0  0  0  0  0  0  0  0  0  0  0  0
  -22.6630   -4.3400   21.4060 F   0  0  0  0  0  0  0  0  0  0  0  0
  -21.4360   -3.8530   25.9960 F   0  0  0  0  0  0  0  0  0  0  0  0
  -22.8110  -13.6250   21.2950 C   0  0  0  0  0  0  0  0  0  0  0  0
  -22.1460  -12.8780   22.1690 N   0  0  0  0  0  0  0  0  0  0  0  0
  -22.3300  -14.6690   20.8560 O   0  0  0  0  0  0  0  0  0  0  0  0
  -22.5480  -12.0350   22.5490 H   0  0  0  0  0  0  0  0  0  0  0  0
  -21.2200  -13.1540   22.4640 H   0  0  0  0  0  0  0  0  0  0  0  0
  -25.3540  -15.3600   20.3600 N   0  0  0  0  0  0  0  0  0  0  0  0
  -24.5740  -15.9880   20.5270 H   0  0  0  0  0  0  0  0  0  0  0  0
  -26.1460  -15.8220   19.9320 H   0  0  0  0  0  0  0  0  0  0  0  0
  -29.1990  -24.3000   22.6460 C   0  0  0  0  0  1  0  0  0  0  0  0
  -26.9790  -24.5160   21.5040 C   0  0  0  0  0  1  0  0  0  0  0  0
  -28.5010  -24.6110   21.2960 C   0  0  2  0  0  0  0  0  0  0  0  0
  -28.8840  -26.1170   20.9350 C   0  0  0  0  0  2  0  0  0  0  0  0
  -28.3060  -26.8000   19.7940 O   0  0  0  0  0  0  0  0  0  0  0  0
  -24.5570  -31.9540   23.2010 C   0  0  0  0  0  0  0  0  0  0  0  0
  -27.1690  -27.5770   19.9540 C   0  0  0  0  0  0  0  0  0  0  0  0
  -23.3310  -30.5850   21.5490 C   0  0  0  0  0  3  0  0  0  0  0  0
  -24.7700  -29.0970   20.0540 C   0  0  0  0  0  0  0  0  0  0  0  0
  -25.8530  -30.9590   21.3120 C   0  0  0  0  0  2  0  0  0  0  0  0
  -25.9390  -29.5990   20.6440 C   0  0  0  0  0  0  0  0  0  0  0  0
  -27.1410  -28.8420   20.6040 C   0  0  0  0  0  3  0  0  0  0  0  0
  -25.9880  -27.1170   19.3390 C   0  0  0  0  0  3  0  0  0  0  0  0
  -24.7910  -27.8540   19.4020 C   0  0  0  0  0  3  0  0  0  0  0  0
  -23.5200  -29.9450   20.1470 C   0  0  0  0  0  2  0  0  0  0  0  0
  -24.5990  -31.1830   22.0780 N   0  0  0  0  0  0  0  0  0  0  0  0
  -23.4860  -32.2010   23.7730 O   0  0  0  0  0  0  0  0  0  0  0  0
  -22.7100  -29.5330   22.4970 C   0  0  0  0  0  0  0  0  0  0  0  0
  -21.3940  -29.3000   22.3590 N   0  0  0  0  0  0  0  0  0  0  0  0
  -23.4110  -28.9270   23.3120 O   0  0  0  0  0  0  0  0  0  0  0  0
  -20.8840  -29.8420   21.6750 H   0  0  0  0  0  0  0  0  0  0  0  0
  -18.0780  -27.9230   22.7990 C   0  0  0  0  0  0  0  0  0  0  0  0
  -20.6150  -28.3160   23.1100 C   0  0  0  0  0  3  0  0  0  0  0  0
  -20.8060  -26.8960   22.5270 C   0  0  0  0  0  2  0  0  0  0  0  0
  -19.7280  -26.5080   21.5110 C   0  0  0  0  0  2  0  0  0  0  0  0
  -18.3380  -26.5770   22.1470 C   0  0  0  0  0  2  0  0  0  0  0  0
  -19.1470  -28.7440   23.2430 C   0  0  0  0  0  0  0  0  0  0  0  0
  -18.8530  -29.9980   23.8230 C   0  0  0  0  0  3  0  0  0  0  0  0
  -17.5220  -30.4300   23.9630 C   0  0  0  0  0  3  0  0  0  0  0  0
  -16.4650  -29.6070   23.5340 C   0  0  0  0  0  3  0  0  0  0  0  0
  -16.7440  -28.3560   22.9570 C   0  0  0  0  0  3  0  0  0  0  0  0
  -25.8500  -32.5830   23.8060 C   0  0  0  0  0  3  0  0  0  0  0  0
  -26.3770  -31.8140   25.0790 C   0  0  1  0  0  0  0  0  0  0  0  0
  -25.2950  -31.5770   26.1570 C   0  0  0  0  0  1  0  0  0  0  0  0
  -26.9570  -30.4360   24.6840 C   0  0  0  0  0  1  0  0  0  0  0  0
  -27.5340  -32.6080   25.7300 C   0  0  0  0  0  1  0  0  0  0  0  0
  -25.5480  -33.9820   24.1350 N   0  0  0  0  0  0  0  0  0  0  0  0
  -25.8890  -35.0330   23.3760 C   0  0  0  0  0  0  0  0  0  0  0  0
  -26.5630  -34.9250   22.3470 O   0  0  0  0  0  0  0  0  0  0  0  0
  -24.9500  -34.1400   24.9330 H   0  0  0  0  0  0  0  0  0  0  0  0
  -24.1880  -36.8460   22.9970 C   0  0  0  0  0  1  0  0  0  0  0  0
  -25.4090  -36.4240   23.8310 C   0  0  0  0  0  3  0  0  0  0  0  0
  -27.5300  -37.2900   24.7130 C   0  0  0  0  0  1  0  0  0  0  0  0
  -26.4540  -37.4660   23.7410 N   0  0  0  0  0  0  0  0  0  0  0  0
  -26.0540  -38.3910   23.8760 H   0  0  0  0  0  0  0  0  0  0  0  0
  1 12  1  0
  1  3  1  0
  2  3  1  0
  2 56  1  0
  3  6  1  0
  4  1  2  0
  5  2  2  0
  7  4  1  0
  8  4  1  0
  9 12  2  0
  9 13  1  0
 10 14  2  0
 11 14  1  0
 12 10  1  0
 13 11  2  0
 14 15  1  0
 16 24  1  0
 17 22  1  0
 18 19  1  0
 18 17  1  0
 20 19  1  0
 20 29  1  0
 20 21  1  0
 22 16  1  0
 22 21  1  0
 23 16  2  0
 24 25  1  0
 24 13  1  0
 26 27  2  0
 27 46  1  0
 28 27  1  0
 28 31  1  0
 29 30  1  0
 29 26  1  0
 30 28  2  0
 31 32  1  0
 32 33  2  0
 34 37  1  0
 34 33  1  0
 35 34  2  0
 36 35  1  0
 36 31  2  0
 37 38  1  0
 38 39  1  0
 39 40  2  0
 41 40  1  0
 41 45  1  0
 42 41  2  0
 43 38  2  0
 43 42  1  0
 44 43  1  0
 46 47  1  0
 47 50  1  0
 47 49  1  0
 48 46  2  0
 51 26  1  0
 51 52  1  0
 53 51  1  0
 56 55  1  1
 56 54  1  0
 57 56  1  0
 58 60  1  0
 58 57  1  0
 59 70  2  0
 60 65  1  0
 61 69  1  0
 61 71  1  0
 62 68  1  0
 62 64  1  0
 63 69  1  0
 64 63  1  0
 65 64  2  0
 66 67  1  0
 66 60  2  0
 67 62  2  0
 68 61  1  0
 69 59  1  0
 71 73  2  0
 72 71  1  0
 74 72  1  0
 75 84  2  0
 75 80  1  0
 76 72  1  0
 76 80  1  0
 77 76  1  0
 78 79  1  0
 78 77  1  0
 79 75  1  0
 80 81  2  0
 81 82  1  0
 83 82  2  0
 84 83  1  0
 85 59  1  0
 85 90  1  0
 85 86  1  0
 86 89  1  1
 86 87  1  0
 88 86  1  0
 90 93  1  0
 91 95  1  0
 91 90  1  0
 92 91  2  0
 95 94  1  0
 97 95  1  0
 97 98  1  0
 97 96  1  0
M  ISO  4  16 100  24 100  57 101  58 101
M  END
>  <TORSDO>  (88) 
F 19

>  <SCORE>  (88) 
-13.961

>  <name>  (88) 
87

>  <ligand_id>  (88) 
87

>  <original_smiles>  (88) 
[H]c1c([H])c([H])c2c(c1[H])C([H])([H])C([H])([H])C([H])([H])C2([H])N([H])C(=O)C1([H])N(C(=O)C([H])(N([H])C(=O)C([H])(N([H])C([H])([H])[H])C([H])([H])[H])C(C([H])([H])[H])(C([H])([H])[H])C([H])([H])[H])C([H])([H])c2c([H])c(OC([H])([H])C(C(=O)N([H])C(c3c([H])c(F)c([H])c(N([H])C(=O)N4C([H])([H])C([H])([H])C([H])([H])C([H])(n5nc(-c6c([H])c([H])c(Oc7c([H])c([H])c(F)c([H])c7F)c([H])c6[H])c(C(=O)N([H])[H])c5N([H])[H])C4([H])[H])c3[H])=[N+]([H])[H])(C([H])([H])[H])C([H])([H])[H])c([H])c([H])c2C1([H])[H]

>  <smiles>  (88) 
[H]c1c([H])c([H])c2c(c1[H])C([H])([H])C([H])([H])C([H])([H])C2([H])N([H])C(=O)C1([H])N(C(=O)C([H])(N([H])C(=O)C([H])(N([H])C([H])([H])[H])C([H])([H])[H])C(C([H])([H])[H])(C([H])([H])[H])C([H])([H])[H])C([H])([H])c2c([H])c(OC([H])([H])C(C(=O)N([H])C(c3c([H])c(F)c([H])c(N([H])C(=O)N4C([H])([H])C([H])([H])C([H])([H])C([H])(n5nc(-c6c([H])c([H])c(Oc7c([H])c([H])c(F)c([H])c7F)c([H])c6[H])c(C(=O)N([H])[H])c5N([H])[H])C4([H])[H])c3[H])=[N+]([H])[H])(C([H])([H])[H])C([H])([H])[H])c([H])c([H])c2C1([H])[H]

$$$$
88:0:0
     RDKit          3D

 97106  0  0  1  0  0  0  0  0999 V2000
  -28.8540  -17.5670   19.5350 C   0  0  0  0  0  3  0  0  0  0  0  0
  -28.6280  -18.9940   19.4850 C   0  0  0  0  0  0  0  0  0  0  0  0
  -29.3050  -19.7800   20.4080 C   0  0  0  0  0  0  0  0  0  0  0  0
  -29.6850  -17.1190   20.5380 C   0  0  0  0  0  0  0  0  0  0  0  0
  -30.2400  -18.5990   21.3990 S   0  0  0  0  0  0  0  0  0  0  0  0
  -30.5870  -14.7430   20.4380 C   0  0  0  0  0  0  0  0  0  0  0  0
  -30.4060  -12.4870   19.3750 C   0  0  0  0  0  2  0  0  0  0  0  0
  -29.4690  -12.5890   18.1490 C   0  0  0  0  0  2  0  0  0  0  0  0
  -27.9940  -12.4220   18.5670 C   0  0  0  0  0  2  0  0  0  0  0  0
  -27.6240  -13.2900   19.7980 C   0  0  0  0  0  3  0  0  0  0  0  0
  -28.6730  -13.1480   20.9250 C   0  0  0  0  0  2  0  0  0  0  0  0
  -29.9840  -13.5080   20.3630 N   0  0  0  0  0  0  0  0  0  0  0  0
  -31.7290  -14.9100   19.9980 O   0  0  0  0  0  0  0  0  0  0  0  0
  -29.8330  -15.7830   20.9420 N   0  0  0  0  0  0  0  0  0  0  0  0
  -29.0070  -15.4190   21.3910 H   0  0  0  0  0  0  0  0  0  0  0  0
  -25.2240  -13.8940   20.4860 C   0  0  0  0  0  0  0  0  0  0  0  0
  -24.1520  -13.1260   20.8490 C   0  0  0  0  0  0  0  0  0  0  0  0
  -24.6110  -11.7740   20.8320 C   0  0  0  0  0  0  0  0  0  0  0  0
  -26.2700  -13.0120   20.2690 N   0  0  0  0  0  0  0  0  0  0  0  0
  -25.9040  -11.7310   20.5360 N   0  0  0  0  0  0  0  0  0  0  0  0
  -23.8790  -10.5150   21.0230 C   0  0  0  0  0  0  0  0  0  0  0  0
  -24.2970   -9.5520   21.9680 C   0  0  0  0  0  3  0  0  0  0  0  0
  -23.5640   -8.3590   22.1480 C   0  0  0  0  0  3  0  0  0  0  0  0
  -22.3990   -8.1200   21.3800 C   0  0  0  0  0  0  0  0  0  0  0  0
  -22.0000   -9.0710   20.4250 C   0  0  0  0  0  3  0  0  0  0  0  0
  -22.7330  -10.2560   20.2450 C   0  0  0  0  0  3  0  0  0  0  0  0
  -21.6420   -6.9770   21.4660 O   0  0  0  0  0  0  0  0  0  0  0  0
  -21.5710   -6.2460   22.6260 C   0  0  0  0  0  0  0  0  0  0  0  0
  -21.1120   -6.8120   23.8350 C   0  0  0  0  0  3  0  0  0  0  0  0
  -20.9870   -6.0070   24.9850 C   0  0  0  0  0  3  0  0  0  0  0  0
  -21.3130   -4.6400   24.9280 C   0  0  0  0  0  0  0  0  0  0  0  0
  -21.7660   -4.0740   23.7220 C   0  0  0  0  0  3  0  0  0  0  0  0
  -21.8910   -4.8750   22.5740 C   0  0  0  0  0  0  0  0  0  0  0  0
  -22.3070   -4.3200   21.4100 F   0  0  0  0  0  0  0  0  0  0  0  0
  -21.1870   -3.8640   26.0290 F   0  0  0  0  0  0  0  0  0  0  0  0
  -22.7540  -13.6100   21.1060 C   0  0  0  0  0  0  0  0  0  0  0  0
  -22.0150  -12.9210   21.9680 N   0  0  0  0  0  0  0  0  0  0  0  0
  -22.3260  -14.6360   20.5790 O   0  0  0  0  0  0  0  0  0  0  0  0
  -22.3730  -12.0920   22.4180 H   0  0  0  0  0  0  0  0  0  0  0  0
  -21.0780  -13.2310   22.1830 H   0  0  0  0  0  0  0  0  0  0  0  0
  -25.3910  -15.2640   20.3050 N   0  0  0  0  0  0  0  0  0  0  0  0
  -24.6230  -15.9160   20.4150 H   0  0  0  0  0  0  0  0  0  0  0  0
  -26.2430  -15.7060   19.9850 H   0  0  0  0  0  0  0  0  0  0  0  0
  -27.6520  -19.4880   18.5150 C   0  0  0  0  0  0  0  0  0  0  0  0
  -27.8630  -19.3070   17.2060 N   0  0  0  0  0  4  0  0  0  0  0  0
  -26.5090  -20.0530   18.9220 N   0  0  0  0  0  0  0  0  0  0  0  0
  -27.2240  -19.6070   16.4890 H   0  0  0  0  0  0  0  0  0  0  0  0
  -28.7210  -18.8740   16.9010 H   0  0  0  0  0  0  0  0  0  0  0  0
  -26.3260  -20.1170   19.9130 H   0  0  0  0  0  0  0  0  0  0  0  0
  -25.7920  -20.3760   18.2940 H   0  0  0  0  0  0  0  0  0  0  0  0
  -29.3800  -23.3580   21.7940 C   0  0  0  0  0  2  0  0  0  0  0  0
  -29.9180  -21.8930   21.7780 C   0  0  0  0  0  2  0  0  0  0  0  0
  -28.6320  -22.2900   19.8220 C   0  0  0  0  0  2  0  0  0  0  0  0
  -29.0690  -23.7320   20.3310 C   0  0  0  0  0  3  0  0  0  0  0  0
  -29.3150  -21.2300   20.6240 N   0  0  0  0  0  0  0  0  0  0  0  0
  -28.0420  -24.9550   20.0610 C   0  0  0  0  0  2  0  0  0  0  0  0
  -28.3200  -26.4160   20.2690 O   0  0  0  0  0  0  0  0  0  0  0  0
  -24.6360  -31.8990   23.2700 C   0  0  0  0  0  0  0  0  0  0  0  0
  -27.2260  -27.3130   20.2000 C   0  0  0  0  0  0  0  0  0  0  0  0
  -23.4290  -30.5160   21.6220 C   0  0  0  0  0  3  0  0  0  0  0  0
  -24.8750  -28.9700   20.1860 C   0  0  0  0  0  0  0  0  0  0  0  0
  -25.9730  -30.8160   21.4480 C   0  0  0  0  0  2  0  0  0  0  0  0
  -26.0480  -29.4380   20.7920 C   0  0  0  0  0  0  0  0  0  0  0  0
  -27.2250  -28.6230   20.7880 C   0  0  0  0  0  3  0  0  0  0  0  0
  -26.0250  -26.9190   19.5600 C   0  0  0  0  0  3  0  0  0  0  0  0
  -24.8680  -27.7170   19.5610 C   0  0  0  0  0  3  0  0  0  0  0  0
  -23.6450  -29.8540   20.2370 C   0  0  0  0  0  2  0  0  0  0  0  0
  -24.6990  -31.0940   22.1700 N   0  0  0  0  0  0  0  0  0  0  0  0
  -23.5530  -32.1800   23.8040 O   0  0  0  0  0  0  0  0  0  0  0  0
  -22.7580  -29.4970   22.5750 C   0  0  0  0  0  0  0  0  0  0  0  0
  -21.4320  -29.3220   22.4410 N   0  0  0  0  0  0  0  0  0  0  0  0
  -23.4310  -28.8680   23.3960 O   0  0  0  0  0  0  0  0  0  0  0  0
  -20.9490  -29.8790   21.7500 H   0  0  0  0  0  0  0  0  0  0  0  0
  -18.0500  -28.1300   22.9270 C   0  0  0  0  0  0  0  0  0  0  0  0
  -20.6070  -28.3850   23.2050 C   0  0  0  0  0  3  0  0  0  0  0  0
  -20.7100  -26.9540   22.6270 C   0  0  0  0  0  2  0  0  0  0  0  0
  -19.6110  -26.6360   21.6090 C   0  0  0  0  0  2  0  0  0  0  0  0
  -18.2270  -26.7830   22.2470 C   0  0  0  0  0  2  0  0  0  0  0  0
  -19.1680  -28.8890   23.3620 C   0  0  0  0  0  0  0  0  0  0  0  0
  -18.9490  -30.1500   23.9590 C   0  0  0  0  0  3  0  0  0  0  0  0
  -17.6440  -30.6530   24.1210 C   0  0  0  0  0  3  0  0  0  0  0  0
  -16.5400  -29.8920   23.7010 C   0  0  0  0  0  3  0  0  0  0  0  0
  -16.7430  -28.6310   23.1090 C   0  0  0  0  0  3  0  0  0  0  0  0
  -25.9200  -32.5230   23.8980 C   0  0  0  0  0  3  0  0  0  0  0  0
  -26.4210  -31.7520   25.1810 C   0  0  1  0  0  0  0  0  0  0  0  0
  -25.3180  -31.5280   26.2420 C   0  0  0  0  0  1  0  0  0  0  0  0
  -26.9960  -30.3670   24.8000 C   0  0  0  0  0  1  0  0  0  0  0  0
  -27.5750  -32.5380   25.8460 C   0  0  0  0  0  1  0  0  0  0  0  0
  -25.6200  -33.9270   24.2210 N   0  0  0  0  0  0  0  0  0  0  0  0
  -25.9560  -34.9720   23.4550 C   0  0  0  0  0  0  0  0  0  0  0  0
  -26.6190  -34.8570   22.4200 O   0  0  0  0  0  0  0  0  0  0  0  0
  -25.0320  -34.0890   25.0250 H   0  0  0  0  0  0  0  0  0  0  0  0
  -24.2410  -36.7770   23.0970 C   0  0  0  0  0  1  0  0  0  0  0  0
  -25.4820  -36.3680   23.9060 C   0  0  0  0  0  3  0  0  0  0  0  0
  -27.6250  -37.2440   24.7240 C   0  0  0  0  0  1  0  0  0  0  0  0
  -26.5240  -37.4120   23.7800 N   0  0  0  0  0  0  0  0  0  0  0  0
  -26.1260  -38.3360   23.9200 H   0  0  0  0  0  0  0  0  0  0  0  0
  1  4  2  0
  2  1  1  0
  2  3  2  0
  3 55  1  0
  3  5  1  0
  4 14  1  0
  4  5  1  0
  6 14  1  0
  7 12  1  0
  8  9  1  0
  8  7  1  0
 10  9  1  0
 10 19  1  0
 10 11  1  0
 12  6  1  0
 12 11  1  0
 13  6  2  0
 14 15  1  0
 16 17  2  0
 17 36  1  0
 18 17  1  0
 18 21  1  0
 19 16  1  0
 19 20  1  0
 20 18  2  0
 21 22  1  0
 22 23  2  0
 24 27  1  0
 24 23  1  0
 25 24  2  0
 26 25  1  0
 26 21  2  0
 27 28  1  0
 28 29  1  0
 29 30  2  0
 31 30  1  0
 31 35  1  0
 32 31  2  0
 33 28  2  0
 33 32  1  0
 34 33  1  0
 36 37  1  0
 37 40  1  0
 37 39  1  0
 38 36  2  0
 41 42  1  0
 41 16  1  0
 43 41  1  0
 44 46  1  0
 44  2  1  0
 45 44  2  0
 46 49  1  0
 47 45  1  0
 48 45  1  0
 50 46  1  0
 52 51  1  0
 53 54  1  0
 53 55  1  0
 54 56  1  0
 54 51  1  0
 55 52  1  0
 56 57  1  0
 58 69  2  0
 59 57  1  0
 59 64  1  0
 60 68  1  0
 60 70  1  0
 61 67  1  0
 61 63  1  0
 62 68  1  0
 63 62  1  0
 64 63  2  0
 65 66  1  0
 65 59  2  0
 66 61  2  0
 67 60  1  0
 68 58  1  0
 70 72  2  0
 71 70  1  0
 73 71  1  0
 74 83  2  0
 74 79  1  0
 75 71  1  0
 75 79  1  0
 76 75  1  0
 77 78  1  0
 77 76  1  0
 78 74  1  0
 79 80  2  0
 80 81  1  0
 82 81  2  0
 83 82  1  0
 84 58  1  0
 84 89  1  0
 84 85  1  0
 85 88  1  1
 85 86  1  0
 87 85  1  0
 89 92  1  0
 90 94  1  0
 90 89  1  0
 91 90  2  0
 94 93  1  0
 96 94  1  0
 96 97  1  0
 96 95  1  0
M  ISO  4   6 100  14 100  56 101  57 101
M  END
>  <TORSDO>  (89) 
F 19

>  <SCORE>  (89) 
-14.669

>  <name>  (89) 
88

>  <ligand_id>  (89) 
88

>  <original_smiles>  (89) 
[H]c1c([H])c([H])c2c(c1[H])C([H])([H])C([H])([H])C([H])([H])C2([H])N([H])C(=O)C1([H])N(C(=O)C([H])(N([H])C(=O)C([H])(N([H])C([H])([H])[H])C([H])([H])[H])C(C([H])([H])[H])(C([H])([H])[H])C([H])([H])[H])C([H])([H])c2c([H])c(OC([H])([H])C3([H])C([H])([H])N(c4sc(N([H])C(=O)N5C([H])([H])C([H])([H])C([H])([H])C([H])(n6nc(-c7c([H])c([H])c(Oc8c([H])c([H])c(F)c([H])c8F)c([H])c7[H])c(C(=O)N([H])[H])c6N([H])[H])C5([H])[H])c([H])c4C(N([H])[H])=[N+]([H])[H])C([H])([H])C3([H])[H])c([H])c([H])c2C1([H])[H]

>  <smiles>  (89) 
[H]c1c([H])c([H])c2c(c1[H])C([H])([H])C([H])([H])C([H])([H])C2([H])N([H])C(=O)C1([H])N(C(=O)C([H])(N([H])C(=O)C([H])(N([H])C([H])([H])[H])C([H])([H])[H])C(C([H])([H])[H])(C([H])([H])[H])C([H])([H])[H])C([H])([H])c2c([H])c(OC([H])([H])C3([H])C([H])([H])N(c4sc(N([H])C(=O)N5C([H])([H])C([H])([H])C([H])([H])C([H])(n6nc(-c7c([H])c([H])c(Oc8c([H])c([H])c(F)c([H])c8F)c([H])c7[H])c(C(=O)N([H])[H])c6N([H])[H])C5([H])[H])c([H])c4C(N([H])[H])=[N+]([H])[H])C([H])([H])C3([H])[H])c([H])c([H])c2C1([H])[H]

$$$$
89:0:0
     RDKit          3D

 95103  0  0  1  0  0  0  0  0999 V2000
  -29.1560  -22.8430   20.3040 C   0  0  0  0  0  0  0  0  0  0  0  0
  -28.7470  -21.5410   20.3440 N   0  0  0  0  0  0  0  0  0  0  0  0
  -30.3330  -23.1490   20.5140 O   0  0  0  0  0  0  0  0  0  0  0  0
  -27.7490  -21.4050   20.4210 H   0  0  0  0  0  0  0  0  0  0  0  0
  -29.2810  -19.0820   20.3250 C   0  0  0  0  0  3  0  0  0  0  0  0
  -30.1780  -18.1690   19.6460 C   0  0  0  0  0  0  0  0  0  0  0  0
  -29.4800  -20.4250   19.9980 C   0  0  0  0  0  0  0  0  0  0  0  0
  -31.0560  -18.8350   18.8130 C   0  0  0  0  0  0  0  0  0  0  0  0
  -30.8110  -20.5520   18.8650 S   0  0  0  0  0  0  0  0  0  0  0  0
  -32.0690  -18.3620   17.9770 N   0  0  0  0  0  0  0  0  0  0  0  0
  -32.3480  -17.3920   17.8690 H   0  0  0  0  0  0  0  0  0  0  0  0
  -32.6320  -18.9850   17.4040 H   0  0  0  0  0  0  0  0  0  0  0  0
  -30.2560  -16.6570   19.7150 C   0  0  0  0  0  2  0  0  0  0  0  0
  -29.9960  -15.7740   20.6310 N   0  0  0  0  0  2  0  0  0  0  0  0
  -30.6930  -14.5620   20.4110 C   0  0  0  0  0  0  0  0  0  0  0  0
  -30.3510  -12.3540   19.3680 C   0  0  0  0  0  2  0  0  0  0  0  0
  -29.4360  -12.5290   18.1400 C   0  0  0  0  0  2  0  0  0  0  0  0
  -27.9590  -12.3950   18.5580 C   0  0  0  0  0  2  0  0  0  0  0  0
  -27.6040  -13.2650   19.7930 C   0  0  0  0  0  3  0  0  0  0  0  0
  -28.6550  -13.1370   20.9150 C   0  0  0  0  0  2  0  0  0  0  0  0
  -29.9790  -13.4000   20.3400 N   0  0  0  0  0  0  0  0  0  0  0  0
  -31.8810  -14.5530   20.0770 O   0  0  0  0  0  0  0  0  0  0  0  0
  -25.2100  -13.8570   20.5110 C   0  0  0  0  0  0  0  0  0  0  0  0
  -24.1440  -13.0830   20.8780 C   0  0  0  0  0  0  0  0  0  0  0  0
  -24.6090  -11.7320   20.8580 C   0  0  0  0  0  0  0  0  0  0  0  0
  -26.2570  -12.9790   20.2820 N   0  0  0  0  0  0  0  0  0  0  0  0
  -25.9010  -11.6960   20.5540 N   0  0  0  0  0  0  0  0  0  0  0  0
  -23.8840  -10.4690   21.0510 C   0  0  0  0  0  0  0  0  0  0  0  0
  -24.3230   -9.4990   21.9800 C   0  0  0  0  0  3  0  0  0  0  0  0
  -23.5970   -8.3020   22.1610 C   0  0  0  0  0  3  0  0  0  0  0  0
  -22.4190   -8.0660   21.4140 C   0  0  0  0  0  0  0  0  0  0  0  0
  -22.0000   -9.0240   20.4740 C   0  0  0  0  0  3  0  0  0  0  0  0
  -22.7250  -10.2130   20.2910 C   0  0  0  0  0  3  0  0  0  0  0  0
  -21.6640   -6.9220   21.5050 O   0  0  0  0  0  0  0  0  0  0  0  0
  -21.6330   -6.1680   22.6510 C   0  0  0  0  0  0  0  0  0  0  0  0
  -21.2380   -6.7140   23.8920 C   0  0  0  0  0  3  0  0  0  0  0  0
  -21.1540   -5.8880   25.0300 C   0  0  0  0  0  3  0  0  0  0  0  0
  -21.4560   -4.5170   24.9290 C   0  0  0  0  0  0  0  0  0  0  0  0
  -21.8440   -3.9700   23.6940 C   0  0  0  0  0  3  0  0  0  0  0  0
  -21.9300   -4.7940   22.5580 C   0  0  0  0  0  0  0  0  0  0  0  0
  -22.2840   -4.2580   21.3650 F   0  0  0  0  0  0  0  0  0  0  0  0
  -21.3680   -3.7200   26.0210 F   0  0  0  0  0  0  0  0  0  0  0  0
  -22.7440  -13.5580   21.1420 C   0  0  0  0  0  0  0  0  0  0  0  0
  -22.0150  -12.8650   22.0090 N   0  0  0  0  0  0  0  0  0  0  0  0
  -22.3080  -14.5810   20.6150 O   0  0  0  0  0  0  0  0  0  0  0  0
  -22.3820  -12.0390   22.4590 H   0  0  0  0  0  0  0  0  0  0  0  0
  -21.0760  -13.1660   22.2280 H   0  0  0  0  0  0  0  0  0  0  0  0
  -25.3760  -15.2270   20.3290 N   0  0  0  0  0  0  0  0  0  0  0  0
  -24.6180  -15.8910   20.4450 H   0  0  0  0  0  0  0  0  0  0  0  0
  -26.2450  -15.6610   20.0460 H   0  0  0  0  0  0  0  0  0  0  0  0
  -26.6830  -23.4480   20.2120 C   0  0  0  0  0  1  0  0  0  0  0  0
  -28.3350  -24.2930   18.4800 C   0  0  0  0  0  1  0  0  0  0  0  0
  -28.1180  -23.9860   19.9800 C   0  0  2  0  0  0  0  0  0  0  0  0
  -28.3220  -25.3240   20.8200 C   0  0  0  0  0  2  0  0  0  0  0  0
  -28.3650  -26.6140   20.1340 O   0  0  0  0  0  0  0  0  0  0  0  0
  -24.6170  -31.8860   23.2430 C   0  0  0  0  0  0  0  0  0  0  0  0
  -27.2200  -27.3950   20.1600 C   0  0  0  0  0  0  0  0  0  0  0  0
  -23.4010  -30.4890   21.6070 C   0  0  0  0  0  3  0  0  0  0  0  0
  -24.8420  -28.9470   20.1760 C   0  0  0  0  0  0  0  0  0  0  0  0
  -25.9320  -30.8310   21.4000 C   0  0  0  0  0  2  0  0  0  0  0  0
  -26.0090  -29.4540   20.7620 C   0  0  0  0  0  0  0  0  0  0  0  0
  -27.2050  -28.6880   20.7470 C   0  0  0  0  0  3  0  0  0  0  0  0
  -26.0370  -26.9260   19.5540 C   0  0  0  0  0  3  0  0  0  0  0  0
  -24.8540  -27.6840   19.5660 C   0  0  0  0  0  3  0  0  0  0  0  0
  -23.6030  -29.8130   20.2260 C   0  0  0  0  0  2  0  0  0  0  0  0
  -24.6690  -31.0850   22.1410 N   0  0  0  0  0  0  0  0  0  0  0  0
  -23.5380  -32.1590   23.7880 O   0  0  0  0  0  0  0  0  0  0  0  0
  -22.7520  -29.4670   22.5690 C   0  0  0  0  0  0  0  0  0  0  0  0
  -21.4260  -29.2840   22.4480 N   0  0  0  0  0  0  0  0  0  0  0  0
  -23.4370  -28.8400   23.3810 O   0  0  0  0  0  0  0  0  0  0  0  0
  -20.9330  -29.8430   21.7660 H   0  0  0  0  0  0  0  0  0  0  0  0
  -18.0560  -28.0850   22.9580 C   0  0  0  0  0  0  0  0  0  0  0  0
  -20.6140  -28.3460   23.2220 C   0  0  0  0  0  3  0  0  0  0  0  0
  -20.7160  -26.9140   22.6480 C   0  0  0  0  0  2  0  0  0  0  0  0
  -19.6110  -26.5890   21.6380 C   0  0  0  0  0  2  0  0  0  0  0  0
  -18.2310  -26.7350   22.2850 C   0  0  0  0  0  2  0  0  0  0  0  0
  -19.1750  -28.8490   23.3850 C   0  0  0  0  0  0  0  0  0  0  0  0
  -18.9560  -30.1130   23.9740 C   0  0  0  0  0  3  0  0  0  0  0  0
  -17.6520  -30.6130   24.1430 C   0  0  0  0  0  3  0  0  0  0  0  0
  -16.5470  -29.8470   23.7320 C   0  0  0  0  0  3  0  0  0  0  0  0
  -16.7510  -28.5850   23.1460 C   0  0  0  0  0  3  0  0  0  0  0  0
  -25.9060  -32.5170   23.8560 C   0  0  0  0  0  3  0  0  0  0  0  0
  -25.6000  -33.9130   24.1950 N   0  0  0  0  0  0  0  0  0  0  0  0
  -25.9190  -34.9680   23.4330 C   0  0  0  0  0  0  0  0  0  0  0  0
  -26.5760  -34.8690   22.3940 O   0  0  0  0  0  0  0  0  0  0  0  0
  -25.0170  -34.0640   25.0060 H   0  0  0  0  0  0  0  0  0  0  0  0
  -24.1800  -36.7560   23.1040 C   0  0  0  0  0  1  0  0  0  0  0  0
  -25.4330  -36.3550   23.8990 C   0  0  0  0  0  3  0  0  0  0  0  0
  -27.5770  -37.2420   24.7040 C   0  0  0  0  0  1  0  0  0  0  0  0
  -26.4600  -37.4110   23.7760 N   0  0  0  0  0  0  0  0  0  0  0  0
  -26.0540  -38.3290   23.9330 H   0  0  0  0  0  0  0  0  0  0  0  0
  -26.4360  -31.7380   25.1230 C   0  0  1  0  0  0  0  0  0  0  0  0
  -25.3530  -31.4960   26.2000 C   0  0  0  0  0  1  0  0  0  0  0  0
  -27.0140  -30.3620   24.7180 C   0  0  0  0  0  1  0  0  0  0  0  0
  -27.5930  -32.5290   25.7770 C   0  0  0  0  0  1  0  0  0  0  0  0
  1  2  1  0
  1  3  2  0
  2  4  1  0
  6 13  1  0
  6  5  1  0
  7  5  2  0
  7  2  1  0
  8  9  1  0
  8  6  2  0
  9  7  1  0
 10  8  1  0
 11 10  1  0
 12 10  1  0
 13 14  1  0
 15 14  1  0
 16 21  1  0
 17 18  1  0
 17 16  1  0
 19 18  1  0
 19 26  1  0
 19 20  1  0
 21 15  1  0
 21 20  1  0
 22 15  2  0
 23 24  2  0
 24 43  1  0
 25 24  1  0
 25 28  1  0
 26 23  1  0
 26 27  1  0
 27 25  2  0
 28 29  1  0
 29 30  2  0
 31 34  1  0
 31 30  1  0
 32 31  2  0
 33 32  1  0
 33 28  2  0
 34 35  1  0
 35 36  1  0
 36 37  2  0
 38 37  1  0
 38 42  1  0
 39 38  2  0
 40 35  2  0
 40 39  1  0
 41 40  1  0
 43 44  1  0
 44 47  1  0
 44 46  1  0
 45 43  2  0
 48 49  1  0
 48 23  1  0
 50 48  1  0
 53 52  1  6
 53 51  1  0
 53  1  1  0
 53 54  1  0
 55 57  1  0
 55 54  1  0
 56 67  2  0
 57 62  1  0
 58 66  1  0
 58 68  1  0
 59 65  1  0
 59 61  1  0
 60 66  1  0
 61 60  1  0
 62 61  2  0
 63 64  1  0
 63 57  2  0
 64 59  2  0
 65 58  1  0
 66 56  1  0
 68 70  2  0
 69 68  1  0
 71 69  1  0
 72 81  2  0
 72 77  1  0
 73 69  1  0
 73 77  1  0
 74 73  1  0
 75 76  1  0
 75 74  1  0
 76 72  1  0
 77 78  2  0
 78 79  1  0
 80 79  2  0
 81 80  1  0
 82 56  1  0
 82 83  1  0
 82 92  1  0
 83 86  1  0
 84 88  1  0
 84 83  1  0
 85 84  2  0
 88 87  1  0
 90 88  1  0
 90 91  1  0
 90 89  1  0
 92 95  1  1
 92 93  1  0
 94 92  1  0
M  ISO  4  14 100  15 100  54 101  55 101
M  END
>  <TORSDO>  (90) 
F 21

>  <SCORE>  (90) 
-13.777

>  <name>  (90) 
89

>  <ligand_id>  (90) 
89

>  <original_smiles>  (90) 
[H]C(=NC(=O)N1C([H])([H])C([H])([H])C([H])([H])C([H])(n2nc(-c3c([H])c([H])c(Oc4c([H])c([H])c(F)c([H])c4F)c([H])c3[H])c(C(=O)N([H])[H])c2N([H])[H])C1([H])[H])c1c(N([H])[H])sc(N([H])C(=O)C(C([H])([H])[H])(C([H])([H])[H])C([H])([H])Oc2c([H])c([H])c3c(c2[H])C([H])([H])N(C(=O)C([H])(N([H])C(=O)C([H])(N([H])C([H])([H])[H])C([H])([H])[H])C(C([H])([H])[H])(C([H])([H])[H])C([H])([H])[H])C([H])(C(=O)N([H])C2([H])c4c([H])c([H])c([H])c([H])c4C([H])([H])C([H])([H])C2([H])[H])C3([H])[H])c1[H]

>  <smiles>  (90) 
[H]C(=NC(=O)N1C([H])([H])C([H])([H])C([H])([H])C([H])(n2nc(-c3c([H])c([H])c(Oc4c([H])c([H])c(F)c([H])c4F)c([H])c3[H])c(C(=O)N([H])[H])c2N([H])[H])C1([H])[H])c1c(N([H])[H])sc(N([H])C(=O)C(C([H])([H])[H])(C([H])([H])[H])C([H])([H])Oc2c([H])c([H])c3c(c2[H])C([H])([H])N(C(=O)C([H])(N([H])C(=O)C([H])(N([H])C([H])([H])[H])C([H])([H])[H])C(C([H])([H])[H])(C([H])([H])[H])C([H])([H])[H])C([H])(C(=O)N([H])C2([H])c4c([H])c([H])c([H])c([H])c4C([H])([H])C([H])([H])C2([H])[H])C3([H])[H])c1[H]

$$$$
90:0:0
     RDKit          3D

 91100  0  0  1  0  0  0  0  0999 V2000
  -28.9590  -18.4500   20.3960 C   0  0  0  0  0  3  0  0  0  0  0  0
  -29.4640  -19.8400   20.5200 C   0  0  0  0  0  0  0  0  0  0  0  0
  -29.8910  -17.4080   20.5970 C   0  0  0  0  0  0  0  0  0  0  0  0
  -26.9800  -23.4920   20.0160 C   0  0  0  0  0  3  0  0  0  0  0  0
  -28.2350  -23.7760   20.4030 C   0  0  0  0  0  0  0  0  0  0  0  0
  -26.4970  -22.1050   19.6280 C   0  0  0  0  0  2  0  0  0  0  0  0
  -29.2400  -22.5370   20.5420 C   0  0  0  0  0  2  0  0  0  0  0  0
  -27.6170  -21.0720   19.3570 C   0  0  0  0  0  2  0  0  0  0  0  0
  -30.7410  -19.8660   20.8400 N   0  0  0  0  0  0  0  0  0  0  0  0
  -28.7250  -21.1140   20.3170 N   0  0  0  0  0  0  0  0  0  0  0  0
  -31.3670  -18.2750   20.9470 S   0  0  0  0  0  0  0  0  0  0  0  0
  -30.5700  -14.9130   20.3390 C   0  0  0  0  0  0  0  0  0  0  0  0
  -30.4070  -12.6520   19.2550 C   0  0  0  0  0  2  0  0  0  0  0  0
  -29.4570  -12.7440   18.0380 C   0  0  0  0  0  2  0  0  0  0  0  0
  -27.9870  -12.5580   18.4690 C   0  0  0  0  0  2  0  0  0  0  0  0
  -27.6200  -13.4100   19.7120 C   0  0  0  0  0  3  0  0  0  0  0  0
  -28.6840  -13.2840   20.8250 C   0  0  0  0  0  2  0  0  0  0  0  0
  -29.9750  -13.6710   20.2410 N   0  0  0  0  0  0  0  0  0  0  0  0
  -31.7580  -15.0410   20.0180 O   0  0  0  0  0  0  0  0  0  0  0  0
  -29.7290  -16.0020   20.5840 N   0  0  0  0  0  0  0  0  0  0  0  0
  -28.7820  -15.7030   20.7520 H   0  0  0  0  0  0  0  0  0  0  0  0
  -25.2320  -14.0000   20.4410 C   0  0  0  0  0  0  0  0  0  0  0  0
  -24.1690  -13.2250   20.8130 C   0  0  0  0  0  0  0  0  0  0  0  0
  -24.6350  -11.8740   20.7840 C   0  0  0  0  0  0  0  0  0  0  0  0
  -26.2770  -13.1210   20.2020 N   0  0  0  0  0  0  0  0  0  0  0  0
  -25.9250  -11.8380   20.4730 N   0  0  0  0  0  0  0  0  0  0  0  0
  -23.9130  -10.6100   20.9770 C   0  0  0  0  0  0  0  0  0  0  0  0
  -24.3270   -9.6590   21.9360 C   0  0  0  0  0  3  0  0  0  0  0  0
  -23.6020   -8.4610   22.1150 C   0  0  0  0  0  3  0  0  0  0  0  0
  -22.4500   -8.2060   21.3350 C   0  0  0  0  0  0  0  0  0  0  0  0
  -22.0540   -9.1460   20.3660 C   0  0  0  0  0  3  0  0  0  0  0  0
  -22.7800  -10.3350   20.1860 C   0  0  0  0  0  3  0  0  0  0  0  0
  -21.6990   -7.0590   21.4220 O   0  0  0  0  0  0  0  0  0  0  0  0
  -21.6080   -6.3460   22.5910 C   0  0  0  0  0  0  0  0  0  0  0  0
  -21.0930   -6.9180   23.7750 C   0  0  0  0  0  3  0  0  0  0  0  0
  -20.9510   -6.1290   24.9340 C   0  0  0  0  0  3  0  0  0  0  0  0
  -21.3140   -4.7680   24.9080 C   0  0  0  0  0  0  0  0  0  0  0  0
  -21.8210   -4.1960   23.7290 C   0  0  0  0  0  3  0  0  0  0  0  0
  -21.9640   -4.9820   22.5720 C   0  0  0  0  0  0  0  0  0  0  0  0
  -22.4330   -4.4200   21.4320 F   0  0  0  0  0  0  0  0  0  0  0  0
  -21.1720   -4.0080   26.0190 F   0  0  0  0  0  0  0  0  0  0  0  0
  -22.7700  -13.7000   21.0820 C   0  0  0  0  0  0  0  0  0  0  0  0
  -22.0400  -13.0030   21.9450 N   0  0  0  0  0  0  0  0  0  0  0  0
  -22.3340  -14.7270   20.5620 O   0  0  0  0  0  0  0  0  0  0  0  0
  -22.4030  -12.1710   22.3860 H   0  0  0  0  0  0  0  0  0  0  0  0
  -21.1030  -13.3070   22.1730 H   0  0  0  0  0  0  0  0  0  0  0  0
  -25.3910  -15.3720   20.2600 N   0  0  0  0  0  0  0  0  0  0  0  0
  -24.6100  -16.0100   20.3660 H   0  0  0  0  0  0  0  0  0  0  0  0
  -26.2140  -15.8150   19.8730 H   0  0  0  0  0  0  0  0  0  0  0  0
  -28.5560  -25.2390   20.9850 C   0  0  0  0  0  2  0  0  0  0  0  0
  -28.4610  -26.5190   20.1960 O   0  0  0  0  0  0  0  0  0  0  0  0
  -24.5750  -31.9050   23.2580 C   0  0  0  0  0  0  0  0  0  0  0  0
  -27.3350  -27.3690   20.2490 C   0  0  0  0  0  0  0  0  0  0  0  0
  -23.4440  -30.5050   21.5680 C   0  0  0  0  0  3  0  0  0  0  0  0
  -24.9590  -28.9810   20.1760 C   0  0  0  0  0  0  0  0  0  0  0  0
  -25.9860  -30.8500   21.4690 C   0  0  0  0  0  2  0  0  0  0  0  0
  -26.1050  -29.4700   20.8190 C   0  0  0  0  0  0  0  0  0  0  0  0
  -27.2990  -28.6770   20.8430 C   0  0  0  0  0  3  0  0  0  0  0  0
  -26.1710  -26.9470   19.5780 C   0  0  0  0  0  3  0  0  0  0  0  0
  -24.9970  -27.7260   19.5480 C   0  0  0  0  0  3  0  0  0  0  0  0
  -23.7140  -29.8480   20.1880 C   0  0  0  0  0  2  0  0  0  0  0  0
  -24.6860  -31.1060   22.1540 N   0  0  0  0  0  0  0  0  0  0  0  0
  -23.4700  -32.1600   23.7600 O   0  0  0  0  0  0  0  0  0  0  0  0
  -22.7690  -29.4700   22.4980 C   0  0  0  0  0  0  0  0  0  0  0  0
  -21.4440  -29.2950   22.3510 N   0  0  0  0  0  0  0  0  0  0  0  0
  -23.4370  -28.8270   23.3110 O   0  0  0  0  0  0  0  0  0  0  0  0
  -20.9630  -29.8730   21.6750 H   0  0  0  0  0  0  0  0  0  0  0  0
  -18.0550  -28.1170   22.8260 C   0  0  0  0  0  0  0  0  0  0  0  0
  -20.6170  -28.3390   23.0890 C   0  0  0  0  0  3  0  0  0  0  0  0
  -20.7000  -26.9280   22.4620 C   0  0  0  0  0  2  0  0  0  0  0  0
  -19.5900  -26.6540   21.4430 C   0  0  0  0  0  2  0  0  0  0  0  0
  -18.2140  -26.7910   22.1020 C   0  0  0  0  0  2  0  0  0  0  0  0
  -19.1840  -28.8490   23.2770 C   0  0  0  0  0  0  0  0  0  0  0  0
  -18.9830  -30.0910   23.9180 C   0  0  0  0  0  3  0  0  0  0  0  0
  -17.6860  -30.5990   24.1110 C   0  0  0  0  0  3  0  0  0  0  0  0
  -16.5710  -29.8630   23.6750 C   0  0  0  0  0  3  0  0  0  0  0  0
  -16.7560  -28.6220   23.0380 C   0  0  0  0  0  3  0  0  0  0  0  0
  -25.8260  -32.5520   23.9250 C   0  0  0  0  0  3  0  0  0  0  0  0
  -25.4960  -33.9520   24.2300 N   0  0  0  0  0  0  0  0  0  0  0  0
  -25.8420  -34.9990   23.4690 C   0  0  0  0  0  0  0  0  0  0  0  0
  -26.5420  -34.8890   22.4590 O   0  0  0  0  0  0  0  0  0  0  0  0
  -24.8780  -34.1100   25.0110 H   0  0  0  0  0  0  0  0  0  0  0  0
  -24.1140  -36.7780   23.0440 C   0  0  0  0  0  1  0  0  0  0  0  0
  -25.3320  -36.3890   23.8970 C   0  0  0  0  0  3  0  0  0  0  0  0
  -27.4310  -37.3040   24.7880 C   0  0  0  0  0  1  0  0  0  0  0  0
  -26.3620  -37.4490   23.8040 N   0  0  0  0  0  0  0  0  0  0  0  0
  -25.9450  -38.3680   23.9210 H   0  0  0  0  0  0  0  0  0  0  0  0
  -26.2910  -31.7980   25.2320 C   0  0  1  0  0  0  0  0  0  0  0  0
  -25.1550  -31.5660   26.2570 C   0  0  0  0  0  1  0  0  0  0  0  0
  -26.9000  -30.4200   24.8820 C   0  0  0  0  0  1  0  0  0  0  0  0
  -27.4080  -32.6070   25.9330 C   0  0  0  0  0  1  0  0  0  0  0  0
  1  2  1  0
  1  3  2  0
  2  9  2  0
  3 11  1  0
  4  5  2  0
  5  7  1  0
  5 50  1  0
  6  4  1  0
  8  6  1  0
  8 10  1  0
  9 11  1  0
 10  2  1  0
 10  7  1  0
 12 20  1  0
 13 18  1  0
 14 15  1  0
 14 13  1  0
 16 15  1  0
 16 25  1  0
 16 17  1  0
 18 12  1  0
 18 17  1  0
 19 12  2  0
 20  3  1  0
 20 21  1  0
 22 23  2  0
 23 42  1  0
 24 23  1  0
 24 27  1  0
 25 22  1  0
 25 26  1  0
 26 24  2  0
 27 28  1  0
 28 29  2  0
 30 33  1  0
 30 29  1  0
 31 30  2  0
 32 31  1  0
 32 27  2  0
 33 34  1  0
 34 35  1  0
 35 36  2  0
 37 36  1  0
 37 41  1  0
 38 37  2  0
 39 34  2  0
 39 38  1  0
 40 39  1  0
 42 43  1  0
 43 46  1  0
 43 45  1  0
 44 42  2  0
 47 48  1  0
 47 22  1  0
 49 47  1  0
 51 53  1  0
 51 50  1  0
 52 63  2  0
 53 58  1  0
 54 62  1  0
 54 64  1  0
 55 61  1  0
 55 57  1  0
 56 62  1  0
 57 58  2  0
 57 56  1  0
 59 53  2  0
 60 59  1  0
 60 55  2  0
 61 54  1  0
 62 52  1  0
 64 66  2  0
 65 64  1  0
 67 65  1  0
 68 77  2  0
 68 73  1  0
 69 65  1  0
 69 73  1  0
 70 69  1  0
 71 72  1  0
 71 70  1  0
 72 68  1  0
 73 74  2  0
 74 75  1  0
 76 75  2  0
 77 76  1  0
 78 52  1  0
 78 79  1  0
 78 88  1  0
 79 82  1  0
 80 84  1  0
 80 79  1  0
 81 80  2  0
 84 83  1  0
 86 84  1  0
 86 87  1  0
 86 85  1  0
 88 91  1  1
 88 89  1  0
 90 88  1  0
M  ISO  4  12 100  20 100  50 101  51 101
M  END
>  <TORSDO>  (91) 
F 17

>  <SCORE>  (91) 
-15.145

>  <name>  (91) 
90

>  <ligand_id>  (91) 
90

>  <original_smiles>  (91) 
[H]C1=C(C([H])([H])Oc2c([H])c([H])c3c(c2[H])C([H])([H])N(C(=O)C([H])(N([H])C(=O)C([H])(N([H])C([H])([H])[H])C([H])([H])[H])C(C([H])([H])[H])(C([H])([H])[H])C([H])([H])[H])C([H])(C(=O)N([H])C2([H])c4c([H])c([H])c([H])c([H])c4C([H])([H])C([H])([H])C2([H])[H])C3([H])[H])C([H])([H])N(c2nsc(N([H])C(=O)N3C([H])([H])C([H])([H])C([H])([H])C([H])(n4nc(-c5c([H])c([H])c(Oc6c([H])c([H])c(F)c([H])c6F)c([H])c5[H])c(C(=O)N([H])[H])c4N([H])[H])C3([H])[H])c2[H])C([H])([H])C1([H])[H]

>  <smiles>  (91) 
[H]C1=C(C([H])([H])Oc2c([H])c([H])c3c(c2[H])C([H])([H])N(C(=O)C([H])(N([H])C(=O)C([H])(N([H])C([H])([H])[H])C([H])([H])[H])C(C([H])([H])[H])(C([H])([H])[H])C([H])([H])[H])C([H])(C(=O)N([H])C2([H])c4c([H])c([H])c([H])c([H])c4C([H])([H])C([H])([H])C2([H])[H])C3([H])[H])C([H])([H])N(c2nsc(N([H])C(=O)N3C([H])([H])C([H])([H])C([H])([H])C([H])(n4nc(-c5c([H])c([H])c(Oc6c([H])c([H])c(F)c([H])c6F)c([H])c5[H])c(C(=O)N([H])[H])c4N([H])[H])C3([H])[H])c2[H])C([H])([H])C1([H])[H]

$$$$
91:0:0
     RDKit          3D

 95104  0  0  1  0  0  0  0  0999 V2000
  -28.6870  -23.0180   21.6260 C   0  0  0  0  0  2  0  0  0  0  0  0
  -29.1950  -21.5400   21.5870 C   0  0  0  0  0  2  0  0  0  0  0  0
  -28.8650  -22.3410   19.3760 C   0  0  0  0  0  2  0  0  0  0  0  0
  -28.9980  -23.6700   20.2540 C   0  0  2  0  0  0  0  0  0  0  0  0
  -30.4590  -24.1520   20.1980 C   0  0  0  0  0  1  0  0  0  0  0  0
  -29.1330  -21.1100   20.1960 N   0  0  0  0  0  0  0  0  0  0  0  0
  -29.9460  -19.6720   18.3730 C   0  0  0  0  0  3  0  0  0  0  0  0
  -29.5180  -18.5300   20.4750 C   0  0  0  0  0  3  0  0  0  0  0  0
  -30.3620  -17.2620   18.5700 C   0  0  0  0  0  3  0  0  0  0  0  0
  -29.5230  -19.7840   19.7210 C   0  0  0  0  0  0  0  0  0  0  0  0
  -30.3640  -18.4480   17.8100 C   0  0  0  0  0  0  0  0  0  0  0  0
  -29.9320  -17.2400   19.9180 C   0  0  0  0  0  0  0  0  0  0  0  0
  -30.5820  -14.7580   20.3420 C   0  0  0  0  0  0  0  0  0  0  0  0
  -30.3630  -12.4750   19.3730 C   0  0  0  0  0  2  0  0  0  0  0  0
  -29.4360  -12.5640   18.1410 C   0  0  0  0  0  2  0  0  0  0  0  0
  -27.9630  -12.4030   18.5630 C   0  0  0  0  0  2  0  0  0  0  0  0
  -27.5900  -13.2920   19.7780 C   0  0  0  0  0  3  0  0  0  0  0  0
  -28.6430  -13.2040   20.9060 C   0  0  0  0  0  2  0  0  0  0  0  0
  -29.9480  -13.5360   20.3220 N   0  0  0  0  0  0  0  0  0  0  0  0
  -31.7640  -14.8350   19.9900 O   0  0  0  0  0  0  0  0  0  0  0  0
  -29.8460  -15.9110   20.5910 N   0  0  0  0  0  0  0  0  0  0  0  0
  -28.9990  -15.7550   21.1170 H   0  0  0  0  0  0  0  0  0  0  0  0
  -25.1970  -13.8850   20.4890 C   0  0  0  0  0  0  0  0  0  0  0  0
  -24.1280  -13.1140   20.8580 C   0  0  0  0  0  0  0  0  0  0  0  0
  -24.5930  -11.7620   20.8420 C   0  0  0  0  0  0  0  0  0  0  0  0
  -26.2420  -13.0050   20.2650 N   0  0  0  0  0  0  0  0  0  0  0  0
  -25.8850  -11.7240   20.5400 N   0  0  0  0  0  0  0  0  0  0  0  0
  -23.8660  -10.5020   21.0400 C   0  0  0  0  0  0  0  0  0  0  0  0
  -24.3040   -9.5320   21.9690 C   0  0  0  0  0  3  0  0  0  0  0  0
  -23.5760   -8.3380   22.1550 C   0  0  0  0  0  3  0  0  0  0  0  0
  -22.3950   -8.1030   21.4110 C   0  0  0  0  0  0  0  0  0  0  0  0
  -21.9750   -9.0600   20.4700 C   0  0  0  0  0  3  0  0  0  0  0  0
  -22.7050  -10.2470   20.2820 C   0  0  0  0  0  3  0  0  0  0  0  0
  -21.6390   -6.9600   21.5050 O   0  0  0  0  0  0  0  0  0  0  0  0
  -21.6090   -6.2080   22.6510 C   0  0  0  0  0  0  0  0  0  0  0  0
  -21.2190   -6.7570   23.8930 C   0  0  0  0  0  3  0  0  0  0  0  0
  -21.1370   -5.9320   25.0330 C   0  0  0  0  0  3  0  0  0  0  0  0
  -21.4350   -4.5590   24.9330 C   0  0  0  0  0  0  0  0  0  0  0  0
  -21.8200   -4.0110   23.6970 C   0  0  0  0  0  3  0  0  0  0  0  0
  -21.9030   -4.8330   22.5590 C   0  0  0  0  0  0  0  0  0  0  0  0
  -22.2530   -4.2940   21.3670 F   0  0  0  0  0  0  0  0  0  0  0  0
  -21.3500   -3.7650   26.0250 F   0  0  0  0  0  0  0  0  0  0  0  0
  -22.7300  -13.5930   21.1170 C   0  0  0  0  0  0  0  0  0  0  0  0
  -21.9990  -12.9070   21.9870 N   0  0  0  0  0  0  0  0  0  0  0  0
  -22.2940  -14.6130   20.5840 O   0  0  0  0  0  0  0  0  0  0  0  0
  -22.3630  -12.0830   22.4410 H   0  0  0  0  0  0  0  0  0  0  0  0
  -21.0590  -13.2090   22.2040 H   0  0  0  0  0  0  0  0  0  0  0  0
  -25.3610  -15.2540   20.3000 N   0  0  0  0  0  0  0  0  0  0  0  0
  -24.5930  -15.9090   20.4030 H   0  0  0  0  0  0  0  0  0  0  0  0
  -26.2080  -15.6900   19.9600 H   0  0  0  0  0  0  0  0  0  0  0  0
  -30.7750  -18.4070   16.4750 N   0  0  0  0  0  0  0  0  0  0  0  0
  -30.5290  -19.1750   15.8560 H   0  0  0  0  0  0  0  0  0  0  0  0
  -30.8140  -17.5130   15.9930 H   0  0  0  0  0  0  0  0  0  0  0  0
  -28.0400  -24.9220   19.8420 C   0  0  0  0  0  2  0  0  0  0  0  0
  -28.2600  -26.3670   20.2220 O   0  0  0  0  0  0  0  0  0  0  0  0
  -24.6170  -31.8970   23.2330 C   0  0  0  0  0  0  0  0  0  0  0  0
  -27.1750  -27.2800   20.1540 C   0  0  0  0  0  0  0  0  0  0  0  0
  -23.3980  -30.5070   21.6000 C   0  0  0  0  0  3  0  0  0  0  0  0
  -24.8320  -28.9520   20.1590 C   0  0  0  0  0  0  0  0  0  0  0  0
  -25.9450  -30.7960   21.4100 C   0  0  0  0  0  2  0  0  0  0  0  0
  -26.0110  -29.4150   20.7570 C   0  0  0  0  0  0  0  0  0  0  0  0
  -27.1840  -28.5900   20.7470 C   0  0  0  0  0  3  0  0  0  0  0  0
  -25.9720  -26.8990   19.5120 C   0  0  0  0  0  3  0  0  0  0  0  0
  -24.8180  -27.7030   19.5270 C   0  0  0  0  0  3  0  0  0  0  0  0
  -23.6020  -29.8380   20.2170 C   0  0  0  0  0  2  0  0  0  0  0  0
  -24.6730  -31.0860   22.1370 N   0  0  0  0  0  0  0  0  0  0  0  0
  -23.5370  -32.1820   23.7710 O   0  0  0  0  0  0  0  0  0  0  0  0
  -22.7330  -29.4920   22.5620 C   0  0  0  0  0  0  0  0  0  0  0  0
  -21.4050  -29.3220   22.4410 N   0  0  0  0  0  0  0  0  0  0  0  0
  -23.4110  -28.8630   23.3770 O   0  0  0  0  0  0  0  0  0  0  0  0
  -20.9170  -29.8820   21.7560 H   0  0  0  0  0  0  0  0  0  0  0  0
  -18.0250  -28.1350   22.9530 C   0  0  0  0  0  0  0  0  0  0  0  0
  -20.5850  -28.3890   23.2160 C   0  0  0  0  0  3  0  0  0  0  0  0
  -20.6810  -26.9550   22.6440 C   0  0  0  0  0  2  0  0  0  0  0  0
  -19.5760  -26.6330   21.6340 C   0  0  0  0  0  2  0  0  0  0  0  0
  -18.1970  -26.7840   22.2810 C   0  0  0  0  0  2  0  0  0  0  0  0
  -19.1460  -28.8960   23.3780 C   0  0  0  0  0  0  0  0  0  0  0  0
  -18.9310  -30.1600   23.9680 C   0  0  0  0  0  3  0  0  0  0  0  0
  -17.6280  -30.6640   24.1370 C   0  0  0  0  0  3  0  0  0  0  0  0
  -16.5210  -29.9000   23.7280 C   0  0  0  0  0  3  0  0  0  0  0  0
  -16.7200  -28.6380   23.1420 C   0  0  0  0  0  3  0  0  0  0  0  0
  -25.9040  -32.5250   23.8490 C   0  0  0  0  0  3  0  0  0  0  0  0
  -26.4250  -31.7480   25.1200 C   0  0  1  0  0  0  0  0  0  0  0  0
  -25.3370  -31.5150   26.1950 C   0  0  0  0  0  1  0  0  0  0  0  0
  -26.9990  -30.3670   24.7250 C   0  0  0  0  0  1  0  0  0  0  0  0
  -27.5840  -32.5360   25.7760 C   0  0  0  0  0  1  0  0  0  0  0  0
  -25.5990  -33.9220   24.1880 N   0  0  0  0  0  0  0  0  0  0  0  0
  -25.9210  -34.9790   23.4300 C   0  0  0  0  0  0  0  0  0  0  0  0
  -26.5740  -34.8790   22.3870 O   0  0  0  0  0  0  0  0  0  0  0  0
  -25.0150  -34.0730   24.9980 H   0  0  0  0  0  0  0  0  0  0  0  0
  -24.1850  -36.7730   23.1150 C   0  0  0  0  0  1  0  0  0  0  0  0
  -25.4430  -36.3670   23.9000 C   0  0  0  0  0  3  0  0  0  0  0  0
  -27.5930  -37.2510   24.6880 C   0  0  0  0  0  1  0  0  0  0  0  0
  -26.4730  -37.4190   23.7670 N   0  0  0  0  0  0  0  0  0  0  0  0
  -26.0700  -38.3400   23.9220 H   0  0  0  0  0  0  0  0  0  0  0  0
  2  1  1  0
  3  6  1  0
  3  4  1  0
  4  5  1  1
  4  1  1  0
  6  2  1  0
  7 10  1  0
  9 12  2  0
 10  6  1  0
 10  8  2  0
 11  7  2  0
 11  9  1  0
 12  8  1  0
 12 21  1  0
 13 21  1  0
 14 19  1  0
 15 16  1  0
 15 14  1  0
 17 16  1  0
 17 26  1  0
 17 18  1  0
 19 13  1  0
 19 18  1  0
 20 13  2  0
 21 22  1  0
 23 24  2  0
 24 43  1  0
 25 24  1  0
 25 28  1  0
 26 23  1  0
 26 27  1  0
 27 25  2  0
 28 29  1  0
 29 30  2  0
 31 34  1  0
 31 30  1  0
 32 31  2  0
 33 32  1  0
 33 28  2  0
 34 35  1  0
 35 36  1  0
 36 37  2  0
 38 37  1  0
 38 42  1  0
 39 38  2  0
 40 35  2  0
 40 39  1  0
 41 40  1  0
 43 44  1  0
 44 47  1  0
 44 46  1  0
 45 43  2  0
 48 49  1  0
 48 23  1  0
 50 48  1  0
 51 11  1  0
 52 51  1  0
 53 51  1  0
 54 55  1  0
 54  4  1  0
 56 67  2  0
 57 55  1  0
 57 62  1  0
 58 66  1  0
 58 68  1  0
 59 65  1  0
 59 61  1  0
 60 66  1  0
 61 60  1  0
 62 61  2  0
 63 64  1  0
 63 57  2  0
 64 59  2  0
 65 58  1  0
 66 56  1  0
 68 70  2  0
 69 68  1  0
 71 69  1  0
 72 81  2  0
 72 77  1  0
 73 69  1  0
 73 77  1  0
 74 73  1  0
 75 76  1  0
 75 74  1  0
 76 72  1  0
 77 78  2  0
 78 79  1  0
 80 79  2  0
 81 80  1  0
 82 56  1  0
 82 87  1  0
 82 83  1  0
 83 86  1  1
 83 84  1  0
 85 83  1  0
 87 90  1  0
 88 92  1  0
 88 87  1  0
 89 88  2  0
 92 91  1  0
 94 92  1  0
 94 95  1  0
 94 93  1  0
M  ISO  4  13 100  21 100  54 101  55 101
M  END
>  <TORSDO>  (92) 
F 19

>  <SCORE>  (92) 
-14.722

>  <name>  (92) 
91

>  <ligand_id>  (92) 
91

>  <original_smiles>  (92) 
[H]c1c([H])c([H])c2c(c1[H])C([H])([H])C([H])([H])C([H])([H])C2([H])N([H])C(=O)C1([H])N(C(=O)C([H])(N([H])C(=O)C([H])(N([H])C([H])([H])[H])C([H])([H])[H])C(C([H])([H])[H])(C([H])([H])[H])C([H])([H])[H])C([H])([H])c2c([H])c(OC([H])([H])C3(C([H])([H])[H])C([H])([H])N(c4c([H])c(N([H])[H])c([H])c(N([H])C(=O)N5C([H])([H])C([H])([H])C([H])([H])C([H])(n6nc(-c7c([H])c([H])c(Oc8c([H])c([H])c(F)c([H])c8F)c([H])c7[H])c(C(=O)N([H])[H])c6N([H])[H])C5([H])[H])c4[H])C([H])([H])C3([H])[H])c([H])c([H])c2C1([H])[H]

>  <smiles>  (92) 
[H]c1c([H])c([H])c2c(c1[H])C([H])([H])C([H])([H])C([H])([H])C2([H])N([H])C(=O)C1([H])N(C(=O)C([H])(N([H])C(=O)C([H])(N([H])C([H])([H])[H])C([H])([H])[H])C(C([H])([H])[H])(C([H])([H])[H])C([H])([H])[H])C([H])([H])c2c([H])c(OC([H])([H])C3(C([H])([H])[H])C([H])([H])N(c4c([H])c(N([H])[H])c([H])c(N([H])C(=O)N5C([H])([H])C([H])([H])C([H])([H])C([H])(n6nc(-c7c([H])c([H])c(Oc8c([H])c([H])c(F)c([H])c8F)c([H])c7[H])c(C(=O)N([H])[H])c6N([H])[H])C5([H])[H])c4[H])C([H])([H])C3([H])[H])c([H])c([H])c2C1([H])[H]

$$$$
92:0:0
     RDKit          3D

100110  0  0  1  0  0  0  0  0999 V2000
  -28.0810  -20.9010   20.0040 C   0  0  0  0  0  3  0  0  0  0  0  0
  -26.1390  -24.0110   19.3920 C   0  0  0  0  0  2  0  0  0  0  0  0
  -26.2110  -22.5200   19.7470 C   0  0  0  0  0  2  0  0  0  0  0  0
  -28.3830  -23.2570   19.0240 C   0  0  0  0  0  2  0  0  0  0  0  0
  -27.5870  -24.5350   19.3980 C   0  0  2  0  0  0  0  0  0  0  0  0
  -27.6240  -22.1290   19.6070 N   0  0  0  0  0  0  0  0  0  0  0  0
  -27.1950  -19.9640   20.3710 N   0  0  0  0  0  0  0  0  0  0  0  0
  -26.2000  -20.1030   20.3050 H   0  0  0  0  0  0  0  0  0  0  0  0
  -27.5380  -19.0930   20.7490 H   0  0  0  0  0  0  0  0  0  0  0  0
  -30.4410  -21.4400   20.5700 C   0  0  0  0  0  3  0  0  0  0  0  0
  -31.7710  -21.0550   20.7920 C   0  0  0  0  0  3  0  0  0  0  0  0
  -29.8950  -19.1450   19.9440 C   0  0  0  0  0  3  0  0  0  0  0  0
  -33.2370  -17.4760   20.4090 C   0  0  0  0  0  3  0  0  0  0  0  0
  -31.2280  -18.7030   20.1720 C   0  0  0  0  0  0  0  0  0  0  0  0
  -29.4970  -20.5000   20.1200 C   0  0  0  0  0  0  0  0  0  0  0  0
  -31.9020  -17.4050   20.0820 C   0  0  0  0  0  0  0  0  0  0  0  0
  -32.1580  -19.7170   20.5950 C   0  0  0  0  0  0  0  0  0  0  0  0
  -33.7720  -19.0640   20.8440 S   0  0  0  0  0  0  0  0  0  0  0  0
  -31.9020  -15.0500   19.3240 C   0  0  0  0  0  0  0  0  0  0  0  0
  -31.6010  -12.6750   18.7070 C   0  0  0  0  0  2  0  0  0  0  0  0
  -30.5740  -12.5380   17.5670 C   0  0  0  0  0  2  0  0  0  0  0  0
  -29.1470  -12.4530   18.1390 C   0  0  0  0  0  2  0  0  0  0  0  0
  -28.8490  -13.5700   19.1760 C   0  0  0  0  0  3  0  0  0  0  0  0
  -29.9850  -13.6720   20.2170 C   0  0  0  0  0  2  0  0  0  0  0  0
  -31.2430  -13.8720   19.4850 N   0  0  0  0  0  0  0  0  0  0  0  0
  -32.9680  -15.1320   18.7080 O   0  0  0  0  0  0  0  0  0  0  0  0
  -31.2670  -16.1620   19.7560 N   0  0  0  0  0  0  0  0  0  0  0  0
  -30.2880  -16.0690   19.9820 H   0  0  0  0  0  0  0  0  0  0  0  0
  -26.6420  -14.3250   20.2560 C   0  0  0  0  0  0  0  0  0  0  0  0
  -25.5580  -13.6220   20.7070 C   0  0  0  0  0  0  0  0  0  0  0  0
  -25.8680  -12.2430   20.5070 C   0  0  0  0  0  0  0  0  0  0  0  0
  -27.5500  -13.3770   19.8140 N   0  0  0  0  0  0  0  0  0  0  0  0
  -27.0970  -12.1140   20.0220 N   0  0  0  0  0  0  0  0  0  0  0  0
  -25.0460  -11.0390   20.6950 C   0  0  0  0  0  0  0  0  0  0  0  0
  -25.3650  -10.0740   21.6750 C   0  0  0  0  0  3  0  0  0  0  0  0
  -24.5500   -8.9350   21.8470 C   0  0  0  0  0  3  0  0  0  0  0  0
  -23.4020   -8.7540   21.0390 C   0  0  0  0  0  0  0  0  0  0  0  0
  -23.1030   -9.7080   20.0510 C   0  0  0  0  0  3  0  0  0  0  0  0
  -23.9180  -10.8380   19.8770 C   0  0  0  0  0  3  0  0  0  0  0  0
  -22.5670   -7.6660   21.1190 O   0  0  0  0  0  0  0  0  0  0  0  0
  -22.2310   -7.1030   22.3240 C   0  0  0  0  0  0  0  0  0  0  0  0
  -21.5430   -7.8300   23.3200 C   0  0  0  0  0  3  0  0  0  0  0  0
  -21.1560   -7.1920   24.5160 C   0  0  0  0  0  3  0  0  0  0  0  0
  -21.4470   -5.8290   24.7130 C   0  0  0  0  0  0  0  0  0  0  0  0
  -22.1260   -5.1020   23.7200 C   0  0  0  0  0  3  0  0  0  0  0  0
  -22.5140   -5.7380   22.5270 C   0  0  0  0  0  0  0  0  0  0  0  0
  -23.1490   -5.0290   21.5630 F   0  0  0  0  0  0  0  0  0  0  0  0
  -21.0700   -5.2140   25.8570 F   0  0  0  0  0  0  0  0  0  0  0  0
  -24.2650  -14.1990   21.2070 C   0  0  0  0  0  0  0  0  0  0  0  0
  -23.6070  -13.5110   22.1330 N   0  0  0  0  0  0  0  0  0  0  0  0
  -23.8570  -15.2880   20.8080 O   0  0  0  0  0  0  0  0  0  0  0  0
  -23.9550  -12.6250   22.4690 H   0  0  0  0  0  0  0  0  0  0  0  0
  -22.7420  -13.8740   22.5090 H   0  0  0  0  0  0  0  0  0  0  0  0
  -26.9250  -15.6840   20.1680 N   0  0  0  0  0  0  0  0  0  0  0  0
  -26.2390  -16.3890   20.4120 H   0  0  0  0  0  0  0  0  0  0  0  0
  -27.7450  -16.0670   19.7170 H   0  0  0  0  0  0  0  0  0  0  0  0
  -27.9960  -24.9100   20.7010 O   0  0  0  0  0  0  0  0  0  0  0  0
  -27.8380  -25.8490   20.7610 H   0  0  0  0  0  0  0  0  0  0  0  0
  -27.8810  -25.7860   18.4930 C   0  0  0  0  0  2  0  0  0  0  0  0
  -27.8800  -27.0840   19.1400 O   0  0  0  0  0  0  0  0  0  0  0  0
  -24.4790  -31.8160   23.2350 C   0  0  0  0  0  0  0  0  0  0  0  0
  -26.7220  -27.8240   19.3070 C   0  0  0  0  0  0  0  0  0  0  0  0
  -23.0930  -30.6470   21.5560 C   0  0  0  0  0  3  0  0  0  0  0  0
  -24.3680  -29.3310   19.7830 C   0  0  0  0  0  0  0  0  0  0  0  0
  -25.5920  -31.0250   21.1490 C   0  0  0  0  0  2  0  0  0  0  0  0
  -25.5870  -29.7530   20.3260 C   0  0  0  0  0  0  0  0  0  0  0  0
  -26.7630  -28.9980   20.0980 C   0  0  0  0  0  3  0  0  0  0  0  0
  -25.4910  -27.4620   18.7190 C   0  0  0  0  0  3  0  0  0  0  0  0
  -24.3160  -28.1840   18.9780 C   0  0  0  0  0  3  0  0  0  0  0  0
  -23.1480  -30.1710   20.0800 C   0  0  0  0  0  2  0  0  0  0  0  0
  -24.4110  -31.1740   22.0350 N   0  0  0  0  0  0  0  0  0  0  0  0
  -23.4630  -32.0080   23.9180 O   0  0  0  0  0  0  0  0  0  0  0  0
  -22.5380  -29.4990   22.4280 C   0  0  0  0  0  0  0  0  0  0  0  0
  -21.2280  -29.2310   22.3030 N   0  0  0  0  0  0  0  0  0  0  0  0
  -23.2820  -28.8570   23.1740 O   0  0  0  0  0  0  0  0  0  0  0  0
  -20.6840  -29.8120   21.6790 H   0  0  0  0  0  0  0  0  0  0  0  0
  -17.9920  -27.6550   22.6210 C   0  0  0  0  0  0  0  0  0  0  0  0
  -20.4960  -28.1730   22.9990 C   0  0  0  0  0  3  0  0  0  0  0  0
  -20.7740  -26.7930   22.3590 C   0  0  0  0  0  2  0  0  0  0  0  0
  -19.7450  -26.4030   21.2930 C   0  0  0  0  0  2  0  0  0  0  0  0
  -18.3360  -26.3660   21.8930 C   0  0  0  0  0  2  0  0  0  0  0  0
  -19.0060  -28.5100   23.1280 C   0  0  0  0  0  0  0  0  0  0  0  0
  -18.6330  -29.7120   23.7670 C   0  0  0  0  0  3  0  0  0  0  0  0
  -17.2770  -30.0620   23.9080 C   0  0  0  0  0  3  0  0  0  0  0  0
  -16.2760  -29.2040   23.4200 C   0  0  0  0  0  3  0  0  0  0  0  0
  -16.6340  -28.0030   22.7830 C   0  0  0  0  0  3  0  0  0  0  0  0
  -25.8300  -32.3620   23.7950 C   0  0  0  0  0  3  0  0  0  0  0  0
  -26.3840  -31.5240   25.0120 C   0  0  1  0  0  0  0  0  0  0  0  0
  -25.3410  -31.2890   26.1290 C   0  0  0  0  0  1  0  0  0  0  0  0
  -26.8890  -30.1420   24.5390 C   0  0  0  0  0  1  0  0  0  0  0  0
  -27.6000  -32.2480   25.6350 C   0  0  0  0  0  1  0  0  0  0  0  0
  -25.6120  -33.7620   24.1820 N   0  0  0  0  0  0  0  0  0  0  0  0
  -25.9540  -34.8200   23.4340 C   0  0  0  0  0  0  0  0  0  0  0  0
  -26.5590  -34.7150   22.3630 O   0  0  0  0  0  0  0  0  0  0  0  0
  -25.0740  -33.9200   25.0210 H   0  0  0  0  0  0  0  0  0  0  0  0
  -24.3050  -36.7060   23.2250 C   0  0  0  0  0  1  0  0  0  0  0  0
  -25.5640  -36.2150   23.9570 C   0  0  0  0  0  3  0  0  0  0  0  0
  -27.7750  -36.9710   24.7110 C   0  0  0  0  0  1  0  0  0  0  0  0
  -26.6430  -37.2180   23.8220 N   0  0  0  0  0  0  0  0  0  0  0  0
  -26.2920  -38.1530   24.0060 H   0  0  0  0  0  0  0  0  0  0  0  0
  1 15  1  0
  1  7  1  0
  2  5  1  0
  2  3  1  0
  4  5  1  0
  4  6  1  0
  5 59  1  6
  5 57  1  0
  6  3  1  0
  6  1  1  0
  7  9  1  0
  8  7  1  0
 10 11  1  0
 12 15  1  0
 12 14  2  0
 13 18  1  0
 14 17  1  0
 15 10  2  0
 16 14  1  0
 16 13  2  0
 17 11  2  0
 17 18  1  0
 19 25  1  0
 19 27  1  0
 20 25  1  0
 21 22  1  0
 21 20  1  0
 23 22  1  0
 23 32  1  0
 23 24  1  0
 25 24  1  0
 26 19  2  0
 27 28  1  0
 27 16  1  0
 29 30  2  0
 30 49  1  0
 31 34  1  0
 31 30  1  0
 32 33  1  0
 32 29  1  0
 33 31  2  0
 34 35  1  0
 35 36  2  0
 37 40  1  0
 37 36  1  0
 38 37  2  0
 39 38  1  0
 39 34  2  0
 40 41  1  0
 41 46  2  0
 41 42  1  0
 42 43  2  0
 43 44  1  0
 44 48  1  0
 45 44  2  0
 46 45  1  0
 47 46  1  0
 49 50  1  0
 50 52  1  0
 50 53  1  0
 51 49  2  0
 54 29  1  0
 54 55  1  0
 56 54  1  0
 57 58  1  0
 59 60  1  0
 60 62  1  0
 61 72  2  0
 62 67  1  0
 63 71  1  0
 63 73  1  0
 64 70  1  0
 64 66  1  0
 65 71  1  0
 66 65  1  0
 67 66  2  0
 68 69  1  0
 68 62  2  0
 69 64  2  0
 70 63  1  0
 71 61  1  0
 73 75  2  0
 74 73  1  0
 76 74  1  0
 77 86  2  0
 77 82  1  0
 78 74  1  0
 78 82  1  0
 79 78  1  0
 80 81  1  0
 80 79  1  0
 81 77  1  0
 82 83  2  0
 83 84  1  0
 85 84  2  0
 86 85  1  0
 87 61  1  0
 87 92  1  0
 87 88  1  0
 88 91  1  1
 88 89  1  0
 90 88  1  0
 92 95  1  0
 93 97  1  0
 93 92  1  0
 94 93  2  0
 97 96  1  0
 99 97  1  0
 99100  1  0
 99 98  1  0
M  ISO  4  19 100  27 100  59 101  60 101
M  END
>  <TORSDO>  (93) 
F 19

>  <SCORE>  (93) 
-11.397

>  <name>  (93) 
92

>  <ligand_id>  (93) 
92

>  <original_smiles>  (93) 
[H]OC1(C([H])([H])Oc2c([H])c([H])c3c(c2[H])C([H])([H])N(C(=O)C([H])(N([H])C(=O)C([H])(N([H])C([H])([H])[H])C([H])([H])[H])C(C([H])([H])[H])(C([H])([H])[H])C([H])([H])[H])C([H])(C(=O)N([H])C2([H])c4c([H])c([H])c([H])c([H])c4C([H])([H])C([H])([H])C2([H])[H])C3([H])[H])C([H])([H])N(C(c2c([H])c([H])c3sc([H])c(N([H])C(=O)N4C([H])([H])C([H])([H])C([H])([H])C([H])(n5nc(-c6c([H])c([H])c(Oc7c([H])c([H])c(F)c([H])c7F)c([H])c6[H])c(C(=O)N([H])[H])c5N([H])[H])C4([H])[H])c3c2[H])=[N+]([H])[H])C([H])([H])C1([H])[H]

>  <smiles>  (93) 
[H]OC1(C([H])([H])Oc2c([H])c([H])c3c(c2[H])C([H])([H])N(C(=O)C([H])(N([H])C(=O)C([H])(N([H])C([H])([H])[H])C([H])([H])[H])C(C([H])([H])[H])(C([H])([H])[H])C([H])([H])[H])C([H])(C(=O)N([H])C2([H])c4c([H])c([H])c([H])c([H])c4C([H])([H])C([H])([H])C2([H])[H])C3([H])[H])C([H])([H])N(C(c2c([H])c([H])c3sc([H])c(N([H])C(=O)N4C([H])([H])C([H])([H])C([H])([H])C([H])(n5nc(-c6c([H])c([H])c(Oc7c([H])c([H])c(F)c([H])c7F)c([H])c6[H])c(C(=O)N([H])[H])c5N([H])[H])C4([H])[H])c3c2[H])=[N+]([H])[H])C([H])([H])C1([H])[H]

$$$$
93:0:0
     RDKit          3D

 91 99  0  0  1  0  0  0  0  0999 V2000
  -29.0150  -23.7370   20.5440 C   0  0  0  0  0  0  0  0  0  0  0  0
  -28.7130  -22.4090   20.2520 N   0  0  0  0  0  0  0  0  0  0  0  0
  -30.1440  -24.0770   20.9100 O   0  0  0  0  0  0  0  0  0  0  0  0
  -27.8210  -22.3050   19.7900 H   0  0  0  0  0  0  0  0  0  0  0  0
  -29.1610  -19.8290   19.9090 C   0  0  0  0  0  3  0  0  0  0  0  0
  -30.2410  -20.9560   21.6380 C   0  0  0  0  0  3  0  0  0  0  0  0
  -29.3780  -21.1200   20.5820 C   0  0  0  0  0  0  0  0  0  0  0  0
  -29.8720  -18.7210   20.4170 C   0  0  0  0  0  0  0  0  0  0  0  0
  -30.7840  -19.2820   21.8050 S   0  0  0  0  0  0  0  0  0  0  0  0
  -30.1180  -17.2850   19.7940 C   0  0  0  0  0  2  0  0  0  0  0  0
  -30.6350  -14.7830   20.3000 C   0  0  0  0  0  0  0  0  0  0  0  0
  -30.4110  -12.5010   19.3160 C   0  0  0  0  0  2  0  0  0  0  0  0
  -29.4840  -12.5830   18.0810 C   0  0  0  0  0  2  0  0  0  0  0  0
  -28.0130  -12.4160   18.5030 C   0  0  0  0  0  2  0  0  0  0  0  0
  -27.6350  -13.3060   19.7170 C   0  0  0  0  0  3  0  0  0  0  0  0
  -28.6880  -13.2280   20.8460 C   0  0  0  0  0  2  0  0  0  0  0  0
  -29.9920  -13.5640   20.2630 N   0  0  0  0  0  0  0  0  0  0  0  0
  -31.8110  -14.8570   19.9330 O   0  0  0  0  0  0  0  0  0  0  0  0
  -29.8920  -15.9400   20.4930 N   0  0  0  0  0  0  0  0  0  0  0  0
  -28.9590  -15.7930   20.8470 H   0  0  0  0  0  0  0  0  0  0  0  0
  -25.2430  -13.8990   20.4200 C   0  0  0  0  0  0  0  0  0  0  0  0
  -24.1750  -13.1280   20.7920 C   0  0  0  0  0  0  0  0  0  0  0  0
  -24.6400  -11.7770   20.7790 C   0  0  0  0  0  0  0  0  0  0  0  0
  -26.2890  -13.0190   20.2010 N   0  0  0  0  0  0  0  0  0  0  0  0
  -25.9320  -11.7380   20.4790 N   0  0  0  0  0  0  0  0  0  0  0  0
  -23.9120  -10.5150   20.9760 C   0  0  0  0  0  0  0  0  0  0  0  0
  -24.3380   -9.5580   21.9240 C   0  0  0  0  0  3  0  0  0  0  0  0
  -23.6100   -8.3630   22.1090 C   0  0  0  0  0  3  0  0  0  0  0  0
  -22.4420   -8.1160   21.3500 C   0  0  0  0  0  0  0  0  0  0  0  0
  -22.0350   -9.0630   20.3930 C   0  0  0  0  0  3  0  0  0  0  0  0
  -22.7640  -10.2490   20.2050 C   0  0  0  0  0  3  0  0  0  0  0  0
  -21.6870   -6.9730   21.4450 O   0  0  0  0  0  0  0  0  0  0  0  0
  -21.6300   -6.2430   22.6050 C   0  0  0  0  0  0  0  0  0  0  0  0
  -21.1960   -6.8110   23.8220 C   0  0  0  0  0  3  0  0  0  0  0  0
  -21.0860   -6.0070   24.9750 C   0  0  0  0  0  3  0  0  0  0  0  0
  -21.3990   -4.6370   24.9100 C   0  0  0  0  0  0  0  0  0  0  0  0
  -21.8240   -4.0670   23.6960 C   0  0  0  0  0  3  0  0  0  0  0  0
  -21.9350   -4.8680   22.5470 C   0  0  0  0  0  0  0  0  0  0  0  0
  -22.3250   -4.3110   21.3750 F   0  0  0  0  0  0  0  0  0  0  0  0
  -21.2850   -3.8620   26.0140 F   0  0  0  0  0  0  0  0  0  0  0  0
  -22.7740  -13.6070   21.0460 C   0  0  0  0  0  0  0  0  0  0  0  0
  -22.0410  -12.9210   21.9150 N   0  0  0  0  0  0  0  0  0  0  0  0
  -22.3400  -14.6250   20.5080 O   0  0  0  0  0  0  0  0  0  0  0  0
  -22.4050  -12.0990   22.3730 H   0  0  0  0  0  0  0  0  0  0  0  0
  -21.1010  -13.2240   22.1280 H   0  0  0  0  0  0  0  0  0  0  0  0
  -25.4040  -15.2680   20.2260 N   0  0  0  0  0  0  0  0  0  0  0  0
  -24.6310  -15.9180   20.3160 H   0  0  0  0  0  0  0  0  0  0  0  0
  -26.2480  -15.7030   19.8750 H   0  0  0  0  0  0  0  0  0  0  0  0
  -27.0200  -24.7300   21.7110 C   0  0  0  0  0  1  0  0  0  0  0  0
  -27.8720  -24.8620   20.4250 C   0  0  0  0  0  3  0  0  0  0  0  0
  -28.2500  -26.3280   20.2620 O   0  0  0  0  0  0  0  0  0  0  0  0
  -24.5860  -31.8750   23.2010 C   0  0  0  0  0  0  0  0  0  0  0  0
  -27.1910  -27.2700   20.1530 C   0  0  0  0  0  0  0  0  0  0  0  0
  -23.3850  -30.4720   21.5650 C   0  0  0  0  0  3  0  0  0  0  0  0
  -24.8390  -28.9300   20.1290 C   0  0  0  0  0  0  0  0  0  0  0  0
  -25.9290  -30.7830   21.3840 C   0  0  0  0  0  2  0  0  0  0  0  0
  -26.0120  -29.4020   20.7340 C   0  0  0  0  0  0  0  0  0  0  0  0
  -27.1900  -28.5830   20.7390 C   0  0  0  0  0  3  0  0  0  0  0  0
  -26.0030  -26.8930   19.4800 C   0  0  0  0  0  3  0  0  0  0  0  0
  -24.8420  -27.6840   19.4880 C   0  0  0  0  0  3  0  0  0  0  0  0
  -23.6000  -29.8020   20.1830 C   0  0  0  0  0  2  0  0  0  0  0  0
  -24.6530  -31.0600   22.1070 N   0  0  0  0  0  0  0  0  0  0  0  0
  -23.5010  -32.1490   23.7360 O   0  0  0  0  0  0  0  0  0  0  0  0
  -22.7230  -29.4530   22.5260 C   0  0  0  0  0  0  0  0  0  0  0  0
  -21.3960  -29.2800   22.4110 N   0  0  0  0  0  0  0  0  0  0  0  0
  -23.4060  -28.8220   23.3380 O   0  0  0  0  0  0  0  0  0  0  0  0
  -20.9030  -29.8420   21.7300 H   0  0  0  0  0  0  0  0  0  0  0  0
  -18.0180  -28.0940   22.9430 C   0  0  0  0  0  0  0  0  0  0  0  0
  -20.5800  -28.3440   23.1880 C   0  0  0  0  0  3  0  0  0  0  0  0
  -20.6710  -26.9130   22.6070 C   0  0  0  0  0  2  0  0  0  0  0  0
  -19.5580  -26.5980   21.6030 C   0  0  0  0  0  2  0  0  0  0  0  0
  -18.1830  -26.7460   22.2610 C   0  0  0  0  0  2  0  0  0  0  0  0
  -19.1430  -28.8510   23.3650 C   0  0  0  0  0  0  0  0  0  0  0  0
  -18.9340  -30.1120   23.9640 C   0  0  0  0  0  3  0  0  0  0  0  0
  -17.6330  -30.6160   24.1460 C   0  0  0  0  0  3  0  0  0  0  0  0
  -16.5220  -29.8560   23.7390 C   0  0  0  0  0  3  0  0  0  0  0  0
  -16.7160  -28.5970   23.1440 C   0  0  0  0  0  3  0  0  0  0  0  0
  -25.8650  -32.5150   23.8190 C   0  0  0  0  0  3  0  0  0  0  0  0
  -26.3940  -31.7400   25.0890 C   0  0  1  0  0  0  0  0  0  0  0  0
  -25.3070  -31.4870   26.1600 C   0  0  0  0  0  1  0  0  0  0  0  0
  -26.9830  -30.3690   24.6850 C   0  0  0  0  0  1  0  0  0  0  0  0
  -27.5440  -32.5360   25.7470 C   0  0  0  0  0  1  0  0  0  0  0  0
  -25.5430  -33.9080   24.1620 N   0  0  0  0  0  0  0  0  0  0  0  0
  -25.8630  -34.9720   23.4140 C   0  0  0  0  0  0  0  0  0  0  0  0
  -26.5270  -34.8830   22.3770 O   0  0  0  0  0  0  0  0  0  0  0  0
  -24.9530  -34.0500   24.9700 H   0  0  0  0  0  0  0  0  0  0  0  0
  -24.1220  -36.7570   23.0820 C   0  0  0  0  0  1  0  0  0  0  0  0
  -25.3690  -36.3530   23.8860 C   0  0  0  0  0  3  0  0  0  0  0  0
  -27.5000  -37.2410   24.7200 C   0  0  0  0  0  1  0  0  0  0  0  0
  -26.3950  -37.4140   23.7810 N   0  0  0  0  0  0  0  0  0  0  0  0
  -25.9840  -38.3300   23.9400 H   0  0  0  0  0  0  0  0  0  0  0  0
  1  3  2  0
  2  1  1  0
  2  7  1  0
  4  2  1  0
  5  8  2  0
  5  7  1  0
  6  9  1  0
  7  6  2  0
  8  9  1  0
 10  8  1  0
 10 19  1  0
 11 19  1  0
 12 17  1  0
 13 14  1  0
 13 12  1  0
 15 14  1  0
 15 24  1  0
 15 16  1  0
 17 11  1  0
 17 16  1  0
 18 11  2  0
 19 20  1  0
 21 22  2  0
 22 41  1  0
 23 22  1  0
 23 26  1  0
 24 21  1  0
 24 25  1  0
 25 23  2  0
 26 27  1  0
 27 28  2  0
 29 32  1  0
 29 28  1  0
 30 29  2  0
 31 30  1  0
 31 26  2  0
 32 33  1  0
 33 34  1  0
 34 35  2  0
 36 35  1  0
 36 40  1  0
 37 36  2  0
 38 33  2  0
 38 37  1  0
 39 38  1  0
 41 42  1  0
 42 45  1  0
 42 44  1  0
 43 41  2  0
 46 47  1  0
 46 21  1  0
 48 46  1  0
 50  1  1  0
 50 49  1  0
 51 50  1  0
 52 63  2  0
 53 51  1  0
 53 58  1  0
 54 62  1  0
 54 64  1  0
 55 61  1  0
 55 57  1  0
 56 62  1  0
 57 58  2  0
 57 56  1  0
 59 60  1  0
 59 53  2  0
 60 55  2  0
 61 54  1  0
 62 52  1  0
 64 66  2  0
 65 64  1  0
 67 65  1  0
 68 77  2  0
 68 73  1  0
 69 65  1  0
 69 73  1  0
 70 69  1  0
 71 72  1  0
 71 70  1  0
 72 68  1  0
 73 74  2  0
 74 75  1  0
 76 75  2  0
 77 76  1  0
 78 52  1  0
 78 83  1  0
 78 79  1  0
 79 82  1  1
 79 80  1  0
 81 79  1  0
 83 86  1  0
 84 88  1  0
 84 83  1  0
 85 84  2  0
 88 87  1  0
 90 88  1  0
 90 91  1  0
 90 89  1  0
M  ISO  4  11 100  19 100  50 101  51 101
M  END
>  <TORSDO>  (94) 
F 19

>  <SCORE>  (94) 
-14.216

>  <name>  (94) 
93

>  <ligand_id>  (94) 
93

>  <original_smiles>  (94) 
[H]c1sc(C([H])([H])N([H])C(=O)N2C([H])([H])C([H])([H])C([H])([H])C([H])(n3nc(-c4c([H])c([H])c(Oc5c([H])c([H])c(F)c([H])c5F)c([H])c4[H])c(C(=O)N([H])[H])c3N([H])[H])C2([H])[H])c([H])c1N([H])C(=O)C([H])(Oc1c([H])c([H])c2c(c1[H])C([H])([H])N(C(=O)C([H])(N([H])C(=O)C([H])(N([H])C([H])([H])[H])C([H])([H])[H])C(C([H])([H])[H])(C([H])([H])[H])C([H])([H])[H])C([H])(C(=O)N([H])C1([H])c3c([H])c([H])c([H])c([H])c3C([H])([H])C([H])([H])C1([H])[H])C2([H])[H])C([H])([H])[H]

>  <smiles>  (94) 
[H]c1sc(C([H])([H])N([H])C(=O)N2C([H])([H])C([H])([H])C([H])([H])C([H])(n3nc(-c4c([H])c([H])c(Oc5c([H])c([H])c(F)c([H])c5F)c([H])c4[H])c(C(=O)N([H])[H])c3N([H])[H])C2([H])[H])c([H])c1N([H])C(=O)C([H])(Oc1c([H])c([H])c2c(c1[H])C([H])([H])N(C(=O)C([H])(N([H])C(=O)C([H])(N([H])C([H])([H])[H])C([H])([H])[H])C(C([H])([H])[H])(C([H])([H])[H])C([H])([H])[H])C([H])(C(=O)N([H])C1([H])c3c([H])c([H])c([H])c([H])c3C([H])([H])C([H])([H])C1([H])[H])C2([H])[H])C([H])([H])[H]

$$$$
94:0:0
     RDKit          3D

 90 99  0  0  1  0  0  0  0  0999 V2000
  -28.3200  -22.1760   20.5420 N   0  0  0  0  0  0  0  0  0  0  0  0
  -27.3820  -22.2030   20.9340 H   0  0  0  0  0  0  0  0  0  0  0  0
  -30.7050  -14.8940   20.0380 C   0  0  0  0  0  0  0  0  0  0  0  0
  -30.3640  -12.6190   19.0480 C   0  0  0  0  0  2  0  0  0  0  0  0
  -29.3800  -12.6440   17.8620 C   0  0  0  0  0  2  0  0  0  0  0  0
  -27.9430  -12.4420   18.3730 C   0  0  0  0  0  2  0  0  0  0  0  0
  -27.6080  -13.3500   19.5860 C   0  0  0  0  0  3  0  0  0  0  0  0
  -28.7250  -13.3580   20.6510 C   0  0  0  0  0  2  0  0  0  0  0  0
  -29.9670  -13.7230   19.9640 N   0  0  0  0  0  0  0  0  0  0  0  0
  -31.9010  -14.8110   19.7480 O   0  0  0  0  0  0  0  0  0  0  0  0
  -28.2070  -19.6000   20.6480 C   0  0  0  0  0  3  0  0  0  0  0  0
  -28.9790  -18.3730   20.4070 C   0  0  0  0  0  0  0  0  0  0  0  0
  -30.1900  -18.6450   19.9180 C   0  0  0  0  0  0  0  0  0  0  0  0
  -28.8450  -20.8190   20.3350 C   0  0  0  0  0  0  0  0  0  0  0  0
  -28.8580  -16.8260   20.5420 C   0  0  0  0  0  3  0  0  0  0  0  0
  -31.0080  -17.3910   19.6940 C   0  0  0  0  0  3  0  0  0  0  0  0
  -30.1550  -16.1980   20.0680 N   0  0  0  0  0  0  0  0  0  0  0  0
  -30.4570  -20.3960   19.6970 S   0  0  0  0  0  0  0  0  0  0  0  0
  -25.2720  -13.9100   20.4690 C   0  0  0  0  0  0  0  0  0  0  0  0
  -24.2280  -13.1240   20.8720 C   0  0  0  0  0  0  0  0  0  0  0  0
  -24.6920  -11.7760   20.7850 C   0  0  0  0  0  0  0  0  0  0  0  0
  -26.3020  -13.0390   20.1540 N   0  0  0  0  0  0  0  0  0  0  0  0
  -25.9640  -11.7490   20.4090 N   0  0  0  0  0  0  0  0  0  0  0  0
  -23.9750  -10.5090   20.9790 C   0  0  0  0  0  0  0  0  0  0  0  0
  -24.4290   -9.5340   21.8930 C   0  0  0  0  0  3  0  0  0  0  0  0
  -23.7080   -8.3350   22.0770 C   0  0  0  0  0  3  0  0  0  0  0  0
  -22.5200   -8.1020   21.3440 C   0  0  0  0  0  0  0  0  0  0  0  0
  -22.0860   -9.0660   20.4170 C   0  0  0  0  0  3  0  0  0  0  0  0
  -22.8070  -10.2570   20.2310 C   0  0  0  0  0  3  0  0  0  0  0  0
  -21.7670   -6.9560   21.4410 O   0  0  0  0  0  0  0  0  0  0  0  0
  -21.7160   -6.2240   22.5990 C   0  0  0  0  0  0  0  0  0  0  0  0
  -21.2390   -6.7750   23.8090 C   0  0  0  0  0  3  0  0  0  0  0  0
  -21.1350   -5.9660   24.9570 C   0  0  0  0  0  3  0  0  0  0  0  0
  -21.4980   -4.6080   24.8990 C   0  0  0  0  0  0  0  0  0  0  0  0
  -21.9690   -4.0570   23.6940 C   0  0  0  0  0  3  0  0  0  0  0  0
  -22.0750   -4.8620   22.5470 C   0  0  0  0  0  0  0  0  0  0  0  0
  -22.5090   -4.3210   21.3830 F   0  0  0  0  0  0  0  0  0  0  0  0
  -21.3920   -3.8280   26.0010 F   0  0  0  0  0  0  0  0  0  0  0  0
  -22.8460  -13.5930   21.2220 C   0  0  0  0  0  0  0  0  0  0  0  0
  -22.1560  -12.8720   22.0970 N   0  0  0  0  0  0  0  0  0  0  0  0
  -22.3900  -14.6350   20.7530 O   0  0  0  0  0  0  0  0  0  0  0  0
  -22.5380  -12.0290   22.5010 H   0  0  0  0  0  0  0  0  0  0  0  0
  -21.2280  -13.1680   22.3650 H   0  0  0  0  0  0  0  0  0  0  0  0
  -25.4190  -15.2840   20.3180 N   0  0  0  0  0  0  0  0  0  0  0  0
  -24.6450  -15.9190   20.4770 H   0  0  0  0  0  0  0  0  0  0  0  0
  -26.2330  -15.7410   19.9290 H   0  0  0  0  0  0  0  0  0  0  0  0
  -28.7660  -23.5500   20.0330 C   0  0  0  0  0  2  0  0  0  0  0  0
  -26.6860  -24.5710   21.2310 C   0  0  0  0  0  1  0  0  0  0  0  0
  -28.1220  -24.8940   20.7530 C   0  0  0  0  0  3  0  0  0  0  0  0
  -28.3150  -26.3360   20.2460 O   0  0  0  0  0  0  0  0  0  0  0  0
  -24.6110  -31.8870   23.2460 C   0  0  0  0  0  0  0  0  0  0  0  0
  -27.2500  -27.2800   20.2000 C   0  0  0  0  0  0  0  0  0  0  0  0
  -23.4360  -30.4930   21.5860 C   0  0  0  0  0  3  0  0  0  0  0  0
  -24.9090  -28.9580   20.1580 C   0  0  0  0  0  0  0  0  0  0  0  0
  -25.9830  -30.8030   21.4390 C   0  0  0  0  0  2  0  0  0  0  0  0
  -26.0730  -29.4230   20.7840 C   0  0  0  0  0  0  0  0  0  0  0  0
  -27.2500  -28.5960   20.7940 C   0  0  0  0  0  3  0  0  0  0  0  0
  -26.0800  -26.9220   19.5030 C   0  0  0  0  0  3  0  0  0  0  0  0
  -24.9190  -27.7180   19.5030 C   0  0  0  0  0  3  0  0  0  0  0  0
  -23.6730  -29.8360   20.2020 C   0  0  0  0  0  2  0  0  0  0  0  0
  -24.6970  -31.0820   22.1450 N   0  0  0  0  0  0  0  0  0  0  0  0
  -23.5200  -32.1560   23.7690 O   0  0  0  0  0  0  0  0  0  0  0  0
  -22.7670  -29.4680   22.5330 C   0  0  0  0  0  0  0  0  0  0  0  0
  -21.4400  -29.2940   22.4020 N   0  0  0  0  0  0  0  0  0  0  0  0
  -23.4420  -28.8310   23.3470 O   0  0  0  0  0  0  0  0  0  0  0  0
  -20.9540  -29.8580   21.7180 H   0  0  0  0  0  0  0  0  0  0  0  0
  -18.0590  -28.0920   22.8910 C   0  0  0  0  0  0  0  0  0  0  0  0
  -20.6180  -28.3480   23.1610 C   0  0  0  0  0  3  0  0  0  0  0  0
  -20.7190  -26.9240   22.5690 C   0  0  0  0  0  2  0  0  0  0  0  0
  -19.6160  -26.6130   21.5520 C   0  0  0  0  0  2  0  0  0  0  0  0
  -18.2350  -26.7510   22.1970 C   0  0  0  0  0  2  0  0  0  0  0  0
  -19.1790  -28.8480   23.3300 C   0  0  0  0  0  0  0  0  0  0  0  0
  -18.9610  -30.1010   23.9420 C   0  0  0  0  0  3  0  0  0  0  0  0
  -17.6560  -30.6000   24.1180 C   0  0  0  0  0  3  0  0  0  0  0  0
  -16.5510  -29.8430   23.6930 C   0  0  0  0  0  3  0  0  0  0  0  0
  -16.7540  -28.5900   23.0860 C   0  0  0  0  0  3  0  0  0  0  0  0
  -25.8820  -32.5260   23.8860 C   0  0  0  0  0  3  0  0  0  0  0  0
  -25.5640  -33.9280   24.1970 N   0  0  0  0  0  0  0  0  0  0  0  0
  -25.9010  -34.9760   23.4350 C   0  0  0  0  0  0  0  0  0  0  0  0
  -26.5840  -34.8650   22.4120 O   0  0  0  0  0  0  0  0  0  0  0  0
  -24.9580  -34.0890   24.9890 H   0  0  0  0  0  0  0  0  0  0  0  0
  -24.1810  -36.7720   23.0430 C   0  0  0  0  0  1  0  0  0  0  0  0
  -25.4090  -36.3680   23.8760 C   0  0  0  0  0  3  0  0  0  0  0  0
  -27.5260  -37.2610   24.7450 C   0  0  0  0  0  1  0  0  0  0  0  0
  -26.4450  -37.4200   23.7750 N   0  0  0  0  0  0  0  0  0  0  0  0
  -26.0340  -38.3410   23.9060 H   0  0  0  0  0  0  0  0  0  0  0  0
  -26.3720  -31.7710   25.1830 C   0  0  1  0  0  0  0  0  0  0  0  0
  -25.2550  -31.5470   26.2290 C   0  0  0  0  0  1  0  0  0  0  0  0
  -26.9640  -30.3880   24.8240 C   0  0  0  0  0  1  0  0  0  0  0  0
  -27.5060  -32.5760   25.8620 C   0  0  0  0  0  1  0  0  0  0  0  0
  1  2  1  0
  3 17  1  0
  4  9  1  0
  5  6  1  0
  5  4  1  0
  7  6  1  0
  7 22  1  0
  7  8  1  0
  9  3  1  0
  9  8  1  0
 10  3  2  0
 12 15  2  0
 12 11  1  0
 13 12  1  0
 14  1  1  0
 14 11  2  0
 16 13  2  0
 16 17  1  0
 17 15  1  0
 18 13  1  0
 18 14  1  0
 19 20  2  0
 20 39  1  0
 21 20  1  0
 21 24  1  0
 22 23  1  0
 22 19  1  0
 23 21  2  0
 24 25  1  0
 25 26  2  0
 27 30  1  0
 27 26  1  0
 28 27  2  0
 29 28  1  0
 29 24  2  0
 30 31  1  0
 31 32  1  0
 32 33  2  0
 34 33  1  0
 34 38  1  0
 35 34  2  0
 36 31  2  0
 36 35  1  0
 37 36  1  0
 39 40  1  0
 40 43  1  0
 40 42  1  0
 41 39  2  0
 44 19  1  0
 44 45  1  0
 46 44  1  0
 47  1  1  0
 47 49  1  0
 49 48  1  0
 50 49  1  0
 51 62  2  0
 52 50  1  0
 52 57  1  0
 53 61  1  0
 53 63  1  0
 54 60  1  0
 54 56  1  0
 55 61  1  0
 56 57  2  0
 56 55  1  0
 58 52  2  0
 59 58  1  0
 59 54  2  0
 60 53  1  0
 61 51  1  0
 63 65  2  0
 64 63  1  0
 66 64  1  0
 67 76  2  0
 67 72  1  0
 68 64  1  0
 68 72  1  0
 69 68  1  0
 70 71  1  0
 70 69  1  0
 71 67  1  0
 72 73  2  0
 73 74  1  0
 75 74  2  0
 76 75  1  0
 77 51  1  0
 77 78  1  0
 77 87  1  0
 78 81  1  0
 79 83  1  0
 79 78  1  0
 80 79  2  0
 83 82  1  0
 85 83  1  0
 85 86  1  0
 85 84  1  0
 87 90  1  1
 87 88  1  0
 89 87  1  0
M  ISO  4   3 100  17 100  49 101  50 101
M  END
>  <TORSDO>  (95) 
F 18

>  <SCORE>  (95) 
-14.682

>  <name>  (95) 
94

>  <ligand_id>  (95) 
94

>  <original_smiles>  (95) 
[H]c1c([H])c([H])c2c(c1[H])C([H])([H])C([H])([H])C([H])([H])C2([H])N([H])C(=O)C1([H])N(C(=O)C([H])(N([H])C(=O)C([H])(N([H])C([H])([H])[H])C([H])([H])[H])C(C([H])([H])[H])(C([H])([H])[H])C([H])([H])[H])C([H])([H])c2c([H])c(OC([H])(C([H])([H])[H])C([H])([H])N([H])c3sc4c(c3[H])C([H])([H])N(C(=O)N3C([H])([H])C([H])([H])C([H])([H])C([H])(n5nc(-c6c([H])c([H])c(Oc7c([H])c([H])c(F)c([H])c7F)c([H])c6[H])c(C(=O)N([H])[H])c5N([H])[H])C3([H])[H])C4([H])[H])c([H])c([H])c2C1([H])[H]

>  <smiles>  (95) 
[H]c1c([H])c([H])c2c(c1[H])C([H])([H])C([H])([H])C([H])([H])C2([H])N([H])C(=O)C1([H])N(C(=O)C([H])(N([H])C(=O)C([H])(N([H])C([H])([H])[H])C([H])([H])[H])C(C([H])([H])[H])(C([H])([H])[H])C([H])([H])[H])C([H])([H])c2c([H])c(OC([H])(C([H])([H])[H])C([H])([H])N([H])c3sc4c(c3[H])C([H])([H])N(C(=O)N3C([H])([H])C([H])([H])C([H])([H])C([H])(n5nc(-c6c([H])c([H])c(Oc7c([H])c([H])c(F)c([H])c7F)c([H])c6[H])c(C(=O)N([H])[H])c5N([H])[H])C3([H])[H])C4([H])[H])c([H])c([H])c2C1([H])[H]

$$$$
95:0:0
     RDKit          3D

100109  0  0  1  0  0  0  0  0999 V2000
  -31.0370  -20.8060   20.7750 C   0  0  0  0  0  3  0  0  0  0  0  0
  -30.8240  -24.5450   21.1520 C   0  0  0  0  0  2  0  0  0  0  0  0
  -31.6110  -23.2220   21.1090 C   0  0  0  0  0  2  0  0  0  0  0  0
  -29.2900  -22.7780   20.7460 C   0  0  0  0  0  2  0  0  0  0  0  0
  -29.5390  -24.2870   20.3580 C   0  0  2  0  0  0  0  0  0  0  0  0
  -29.7990  -24.3870   18.8390 C   0  0  0  0  0  1  0  0  0  0  0  0
  -30.6390  -22.1300   20.8460 N   0  0  0  0  0  0  0  0  0  0  0  0
  -32.3350  -20.5670   20.9760 N   0  0  0  0  0  0  0  0  0  0  0  0
  -32.6850  -19.6330   20.8340 H   0  0  0  0  0  0  0  0  0  0  0  0
  -32.9910  -21.2900   21.2090 H   0  0  0  0  0  0  0  0  0  0  0  0
  -29.2530  -19.6590   19.4330 C   0  0  0  0  0  3  0  0  0  0  0  0
  -30.5300  -18.2950   21.0090 C   0  0  0  0  0  3  0  0  0  0  0  0
  -28.9050  -17.2410   19.5420 C   0  0  0  0  0  3  0  0  0  0  0  0
  -30.2310  -19.5870   20.4460 C   0  0  0  0  0  0  0  0  0  0  0  0
  -28.5820  -18.4980   18.9900 C   0  0  0  0  0  0  0  0  0  0  0  0
  -29.8840  -17.1010   20.5490 C   0  0  0  0  0  0  0  0  0  0  0  0
  -30.8020  -14.7640   20.5860 C   0  0  0  0  0  0  0  0  0  0  0  0
  -30.5830  -12.5720   19.4490 C   0  0  0  0  0  2  0  0  0  0  0  0
  -29.6420  -12.7390   18.2350 C   0  0  0  0  0  2  0  0  0  0  0  0
  -28.1690  -12.5570   18.6530 C   0  0  0  0  0  2  0  0  0  0  0  0
  -27.8020  -13.3700   19.9230 C   0  0  0  0  0  3  0  0  0  0  0  0
  -28.8590  -13.1950   21.0380 C   0  0  0  0  0  2  0  0  0  0  0  0
  -30.1750  -13.5500   20.4780 N   0  0  0  0  0  0  0  0  0  0  0  0
  -31.9300  -14.9570   20.1270 O   0  0  0  0  0  0  0  0  0  0  0  0
  -30.0790  -15.7830   21.1260 N   0  0  0  0  0  0  0  0  0  0  0  0
  -29.2640  -15.4300   21.6040 H   0  0  0  0  0  0  0  0  0  0  0  0
  -25.3900  -13.9380   20.6140 C   0  0  0  0  0  0  0  0  0  0  0  0
  -24.3270  -13.1480   20.9630 C   0  0  0  0  0  0  0  0  0  0  0  0
  -24.8060  -11.8030   20.9190 C   0  0  0  0  0  0  0  0  0  0  0  0
  -26.4490  -13.0720   20.3850 N   0  0  0  0  0  0  0  0  0  0  0  0
  -26.1000  -11.7830   20.6250 N   0  0  0  0  0  0  0  0  0  0  0  0
  -24.0940  -10.5300   21.0870 C   0  0  0  0  0  0  0  0  0  0  0  0
  -24.4950   -9.5830   22.0560 C   0  0  0  0  0  3  0  0  0  0  0  0
  -23.7830   -8.3750   22.2120 C   0  0  0  0  0  3  0  0  0  0  0  0
  -22.6540   -8.1060   21.4000 C   0  0  0  0  0  0  0  0  0  0  0  0
  -22.2740   -9.0420   20.4230 C   0  0  0  0  0  3  0  0  0  0  0  0
  -22.9880  -10.2430   20.2640 C   0  0  0  0  0  3  0  0  0  0  0  0
  -21.9190   -6.9470   21.4610 O   0  0  0  0  0  0  0  0  0  0  0  0
  -21.7760   -6.2480   22.6330 C   0  0  0  0  0  0  0  0  0  0  0  0
  -21.1810   -6.8240   23.7760 C   0  0  0  0  0  3  0  0  0  0  0  0
  -20.9910   -6.0480   24.9380 C   0  0  0  0  0  3  0  0  0  0  0  0
  -21.3860   -4.6970   24.9540 C   0  0  0  0  0  0  0  0  0  0  0  0
  -21.9750   -4.1200   23.8140 C   0  0  0  0  0  3  0  0  0  0  0  0
  -22.1660   -4.8950   22.6560 C   0  0  0  0  0  0  0  0  0  0  0  0
  -22.7130   -4.3290   21.5530 F   0  0  0  0  0  0  0  0  0  0  0  0
  -21.1980   -3.9490   26.0660 F   0  0  0  0  0  0  0  0  0  0  0  0
  -22.9210  -13.6070   21.2270 C   0  0  0  0  0  0  0  0  0  0  0  0
  -22.1920  -12.8870   22.0730 N   0  0  0  0  0  0  0  0  0  0  0  0
  -22.4770  -14.6390   20.7250 O   0  0  0  0  0  0  0  0  0  0  0  0
  -22.5610  -12.0530   22.5040 H   0  0  0  0  0  0  0  0  0  0  0  0
  -21.2490  -13.1750   22.2920 H   0  0  0  0  0  0  0  0  0  0  0  0
  -25.5440  -15.3120   20.4540 N   0  0  0  0  0  0  0  0  0  0  0  0
  -24.7790  -15.9660   20.5760 H   0  0  0  0  0  0  0  0  0  0  0  0
  -26.4020  -15.7590   20.1680 H   0  0  0  0  0  0  0  0  0  0  0  0
  -27.5080  -18.5790   17.9130 C   0  0  1  0  0  0  0  0  0  0  0  0
  -27.5070  -19.7680   17.3090 F   0  0  0  0  0  0  0  0  0  0  0  0
  -27.7130  -17.6370   16.9900 F   0  0  0  0  0  0  0  0  0  0  0  0
  -26.3140  -18.3810   18.4710 F   0  0  0  0  0  0  0  0  0  0  0  0
  -28.3840  -25.3010   20.7340 C   0  0  0  0  0  2  0  0  0  0  0  0
  -28.5430  -26.7060   20.3210 O   0  0  0  0  0  0  0  0  0  0  0  0
  -24.6780  -32.0010   23.2880 C   0  0  0  0  0  0  0  0  0  0  0  0
  -27.3930  -27.4990   20.2810 C   0  0  0  0  0  0  0  0  0  0  0  0
  -23.5070  -30.5750   21.6450 C   0  0  0  0  0  3  0  0  0  0  0  0
  -24.9940  -29.0430   20.2430 C   0  0  0  0  0  0  0  0  0  0  0  0
  -26.0380  -30.9420   21.4780 C   0  0  0  0  0  2  0  0  0  0  0  0
  -26.1460  -29.5610   20.8460 C   0  0  0  0  0  0  0  0  0  0  0  0
  -27.3490  -28.8010   20.8570 C   0  0  0  0  0  3  0  0  0  0  0  0
  -26.2210  -27.0280   19.6440 C   0  0  0  0  0  3  0  0  0  0  0  0
  -25.0320  -27.7790   19.6330 C   0  0  0  0  0  3  0  0  0  0  0  0
  -23.7420  -29.8940   20.2710 C   0  0  0  0  0  2  0  0  0  0  0  0
  -24.7580  -31.1890   22.1940 N   0  0  0  0  0  0  0  0  0  0  0  0
  -23.5870  -32.2650   23.8150 O   0  0  0  0  0  0  0  0  0  0  0  0
  -22.8530  -29.5530   22.6050 C   0  0  0  0  0  0  0  0  0  0  0  0
  -21.5340  -29.3450   22.4550 N   0  0  0  0  0  0  0  0  0  0  0  0
  -23.5320  -28.9490   23.4400 O   0  0  0  0  0  0  0  0  0  0  0  0
  -21.0480  -29.8850   21.7540 H   0  0  0  0  0  0  0  0  0  0  0  0
  -18.1660  -28.1230   22.9400 C   0  0  0  0  0  0  0  0  0  0  0  0
  -20.7210  -28.4000   23.2210 C   0  0  0  0  0  3  0  0  0  0  0  0
  -20.8370  -26.9700   22.6430 C   0  0  0  0  0  2  0  0  0  0  0  0
  -19.7410  -26.6410   21.6250 C   0  0  0  0  0  2  0  0  0  0  0  0
  -18.3560  -26.7760   22.2630 C   0  0  0  0  0  2  0  0  0  0  0  0
  -19.2780  -28.8920   23.3750 C   0  0  0  0  0  0  0  0  0  0  0  0
  -19.0480  -30.1530   23.9670 C   0  0  0  0  0  3  0  0  0  0  0  0
  -17.7390  -30.6460   24.1290 C   0  0  0  0  0  3  0  0  0  0  0  0
  -16.6420  -29.8710   23.7120 C   0  0  0  0  0  3  0  0  0  0  0  0
  -16.8570  -28.6130   23.1230 C   0  0  0  0  0  3  0  0  0  0  0  0
  -25.9480  -32.6520   23.9160 C   0  0  0  0  0  3  0  0  0  0  0  0
  -26.4560  -31.9020   25.2100 C   0  0  1  0  0  0  0  0  0  0  0  0
  -25.3400  -31.6230   26.2420 C   0  0  0  0  0  1  0  0  0  0  0  0
  -27.1060  -30.5490   24.8380 C   0  0  0  0  0  1  0  0  0  0  0  0
  -27.5520  -32.7420   25.9070 C   0  0  0  0  0  1  0  0  0  0  0  0
  -25.6240  -34.0510   24.2230 N   0  0  0  0  0  0  0  0  0  0  0  0
  -25.9550  -35.0970   23.4520 C   0  0  0  0  0  0  0  0  0  0  0  0
  -26.6390  -34.9850   22.4310 O   0  0  0  0  0  0  0  0  0  0  0  0
  -25.0230  -34.2110   25.0190 H   0  0  0  0  0  0  0  0  0  0  0  0
  -24.2230  -36.8710   23.0400 C   0  0  0  0  0  1  0  0  0  0  0  0
  -25.4480  -36.4860   23.8830 C   0  0  0  0  0  3  0  0  0  0  0  0
  -27.5580  -37.3990   24.7490 C   0  0  0  0  0  1  0  0  0  0  0  0
  -26.4760  -37.5450   23.7790 N   0  0  0  0  0  0  0  0  0  0  0  0
  -26.0600  -38.4650   23.9060 H   0  0  0  0  0  0  0  0  0  0  0  0
  1  7  1  0
  1  8  1  0
  3  2  1  0
  4  7  1  0
  5  6  1  6
  5 59  1  0
  5  4  1  0
  5  2  1  0
  7  3  1  0
  8 10  1  0
  9  8  1  0
 11 14  1  0
 13 16  2  0
 14  1  1  0
 14 12  2  0
 15 11  2  0
 15 13  1  0
 16 12  1  0
 16 25  1  0
 17 25  1  0
 18 23  1  0
 19 20  1  0
 19 18  1  0
 21 20  1  0
 21 30  1  0
 21 22  1  0
 23 17  1  0
 23 22  1  0
 24 17  2  0
 25 26  1  0
 27 28  2  0
 28 47  1  0
 29 28  1  0
 29 32  1  0
 30 27  1  0
 30 31  1  0
 31 29  2  0
 32 33  1  0
 33 34  2  0
 35 38  1  0
 35 34  1  0
 36 35  2  0
 37 36  1  0
 37 32  2  0
 38 39  1  0
 39 44  2  0
 39 40  1  0
 40 41  2  0
 41 42  1  0
 42 46  1  0
 43 42  2  0
 44 43  1  0
 45 44  1  0
 47 48  1  0
 48 51  1  0
 48 50  1  0
 49 47  2  0
 52 53  1  0
 52 27  1  0
 54 52  1  0
 55 58  1  1
 55 15  1  0
 56 55  1  0
 57 55  1  0
 60 59  1  0
 61 72  2  0
 62 60  1  0
 62 67  1  0
 63 71  1  0
 63 73  1  0
 64 70  1  0
 64 66  1  0
 65 71  1  0
 66 67  2  0
 66 65  1  0
 68 62  2  0
 69 68  1  0
 69 64  2  0
 70 63  1  0
 71 61  1  0
 73 75  2  0
 74 73  1  0
 76 74  1  0
 77 86  2  0
 77 82  1  0
 78 74  1  0
 78 82  1  0
 79 78  1  0
 80 81  1  0
 80 79  1  0
 81 77  1  0
 82 83  2  0
 83 84  1  0
 85 84  2  0
 86 85  1  0
 87 61  1  0
 87 92  1  0
 87 88  1  0
 88 91  1  1
 88 89  1  0
 90 88  1  0
 92 95  1  0
 93 97  1  0
 93 92  1  0
 94 93  2  0
 97 96  1  0
 99 97  1  0
 99100  1  0
 99 98  1  0
M  ISO  4  17 100  25 100  59 101  60 101
M  END
>  <TORSDO>  (96) 
F 19

>  <SCORE>  (96) 
-13.864

>  <name>  (96) 
95

>  <ligand_id>  (96) 
95

>  <original_smiles>  (96) 
[H]c1c([H])c([H])c2c(c1[H])C([H])([H])C([H])([H])C([H])([H])C2([H])N([H])C(=O)C1([H])N(C(=O)C([H])(N([H])C(=O)C([H])(N([H])C([H])([H])[H])C([H])([H])[H])C(C([H])([H])[H])(C([H])([H])[H])C([H])([H])[H])C([H])([H])c2c([H])c(OC([H])([H])C3(C([H])([H])[H])C([H])([H])N(C(c4c([H])c(N([H])C(=O)N5C([H])([H])C([H])([H])C([H])([H])C([H])(n6nc(-c7c([H])c([H])c(Oc8c([H])c([H])c(F)c([H])c8F)c([H])c7[H])c(C(=O)N([H])[H])c6N([H])[H])C5([H])[H])c([H])c(C(F)(F)F)c4[H])=[N+]([H])[H])C([H])([H])C3([H])[H])c([H])c([H])c2C1([H])[H]

>  <smiles>  (96) 
[H]c1c([H])c([H])c2c(c1[H])C([H])([H])C([H])([H])C([H])([H])C2([H])N([H])C(=O)C1([H])N(C(=O)C([H])(N([H])C(=O)C([H])(N([H])C([H])([H])[H])C([H])([H])[H])C(C([H])([H])[H])(C([H])([H])[H])C([H])([H])[H])C([H])([H])c2c([H])c(OC([H])([H])C3(C([H])([H])[H])C([H])([H])N(C(c4c([H])c(N([H])C(=O)N5C([H])([H])C([H])([H])C([H])([H])C([H])(n6nc(-c7c([H])c([H])c(Oc8c([H])c([H])c(F)c([H])c8F)c([H])c7[H])c(C(=O)N([H])[H])c6N([H])[H])C5([H])[H])c([H])c(C(F)(F)F)c4[H])=[N+]([H])[H])C([H])([H])C3([H])[H])c([H])c([H])c2C1([H])[H]

$$$$
96:0:0
     RDKit          3D

100109  0  0  1  0  0  0  0  0999 V2000
  -29.1380  -23.0960   19.1220 C   0  0  0  0  0  0  0  0  0  0  0  0
  -29.7350  -20.6520   19.3590 C   0  0  0  0  0  3  0  0  0  0  0  0
  -29.7610  -23.9000   21.2750 C   0  0  0  0  0  2  0  0  0  0  0  0
  -30.2820  -22.4600   21.0790 C   0  0  0  0  0  2  0  0  0  0  0  0
  -29.3790  -24.4220   19.8780 C   0  0  1  0  0  0  0  0  0  0  0  0
  -30.5510  -25.1680   19.2030 C   0  0  0  0  0  1  0  0  0  0  0  0
  -29.7070  -21.9540   19.8150 N   0  0  0  0  0  0  0  0  0  0  0  0
  -29.0680  -20.3310   18.2470 N   0  0  0  0  0  0  0  0  0  0  0  0
  -28.5540  -23.0200   18.0350 O   0  0  0  0  0  0  0  0  0  0  0  0
  -29.1370  -19.4070   17.8500 H   0  0  0  0  0  0  0  0  0  0  0  0
  -28.6040  -21.0710   17.7330 H   0  0  0  0  0  0  0  0  0  0  0  0
  -31.8630  -19.7160   20.2900 C   0  0  0  0  0  3  0  0  0  0  0  0
  -29.9430  -18.2210   20.0840 C   0  0  0  0  0  3  0  0  0  0  0  0
  -32.0920  -17.3440   20.8290 C   0  0  0  0  0  3  0  0  0  0  0  0
  -30.5000  -19.5320   19.9700 C   0  0  0  0  0  0  0  0  0  0  0  0
  -32.6500  -18.6370   20.7330 C   0  0  0  0  0  0  0  0  0  0  0  0
  -30.7420  -17.1050   20.4670 C   0  0  0  0  0  0  0  0  0  0  0  0
  -30.8690  -14.6570   20.0210 C   0  0  0  0  0  0  0  0  0  0  0  0
  -30.4930  -12.4590   18.9640 C   0  0  0  0  0  2  0  0  0  0  0  0
  -29.4990  -12.6150   17.7930 C   0  0  0  0  0  2  0  0  0  0  0  0
  -28.0510  -12.4750   18.2990 C   0  0  0  0  0  2  0  0  0  0  0  0
  -27.7610  -13.3570   19.5450 C   0  0  0  0  0  3  0  0  0  0  0  0
  -28.8720  -13.2150   20.6100 C   0  0  0  0  0  2  0  0  0  0  0  0
  -30.1620  -13.4930   19.9610 N   0  0  0  0  0  0  0  0  0  0  0  0
  -31.9960  -14.7580   19.5340 O   0  0  0  0  0  0  0  0  0  0  0  0
  -30.2090  -15.7610   20.4570 N   0  0  0  0  0  0  0  0  0  0  0  0
  -29.2280  -15.6430   20.6550 H   0  0  0  0  0  0  0  0  0  0  0  0
  -25.4150  -13.9650   20.4060 C   0  0  0  0  0  0  0  0  0  0  0  0
  -24.3600  -13.1950   20.8190 C   0  0  0  0  0  0  0  0  0  0  0  0
  -24.8040  -11.8400   20.7330 C   0  0  0  0  0  0  0  0  0  0  0  0
  -26.4370  -13.0800   20.0990 N   0  0  0  0  0  0  0  0  0  0  0  0
  -26.0760  -11.7960   20.3540 N   0  0  0  0  0  0  0  0  0  0  0  0
  -24.0740  -10.5800   20.9330 C   0  0  0  0  0  0  0  0  0  0  0  0
  -24.5060   -9.6190   21.8720 C   0  0  0  0  0  3  0  0  0  0  0  0
  -23.7750   -8.4270   22.0610 C   0  0  0  0  0  3  0  0  0  0  0  0
  -22.5990   -8.1860   21.3100 C   0  0  0  0  0  0  0  0  0  0  0  0
  -22.1890   -9.1370   20.3610 C   0  0  0  0  0  3  0  0  0  0  0  0
  -22.9180  -10.3220   20.1690 C   0  0  0  0  0  3  0  0  0  0  0  0
  -21.8410   -7.0450   21.4090 O   0  0  0  0  0  0  0  0  0  0  0  0
  -21.7510   -6.3400   22.5820 C   0  0  0  0  0  0  0  0  0  0  0  0
  -21.2310   -6.9180   23.7590 C   0  0  0  0  0  3  0  0  0  0  0  0
  -21.0910   -6.1370   24.9240 C   0  0  0  0  0  3  0  0  0  0  0  0
  -21.4600   -4.7780   24.9120 C   0  0  0  0  0  0  0  0  0  0  0  0
  -21.9720   -4.1990   23.7380 C   0  0  0  0  0  3  0  0  0  0  0  0
  -22.1130   -4.9770   22.5750 C   0  0  0  0  0  0  0  0  0  0  0  0
  -22.5880   -4.4090   21.4410 F   0  0  0  0  0  0  0  0  0  0  0  0
  -21.3180   -4.0260   26.0280 F   0  0  0  0  0  0  0  0  0  0  0  0
  -22.9850  -13.6820   21.1740 C   0  0  0  0  0  0  0  0  0  0  0  0
  -22.2960  -12.9760   22.0660 N   0  0  0  0  0  0  0  0  0  0  0  0
  -22.5320  -14.7220   20.6980 O   0  0  0  0  0  0  0  0  0  0  0  0
  -22.6760  -12.1350   22.4730 H   0  0  0  0  0  0  0  0  0  0  0  0
  -21.3750  -13.2820   22.3450 H   0  0  0  0  0  0  0  0  0  0  0  0
  -25.5870  -15.3370   20.2480 N   0  0  0  0  0  0  0  0  0  0  0  0
  -24.8350  -15.9950   20.4220 H   0  0  0  0  0  0  0  0  0  0  0  0
  -26.4170  -15.7740   19.8670 H   0  0  0  0  0  0  0  0  0  0  0  0
  -33.9940  -18.8550   21.0380 N   0  0  0  0  0  0  0  0  0  0  0  0
  -34.4530  -19.6540   20.6100 H   0  0  0  0  0  0  0  0  0  0  0  0
  -34.6060  -18.0450   21.0740 H   0  0  0  0  0  0  0  0  0  0  0  0
  -28.0960  -25.3190   19.8410 C   0  0  0  0  0  2  0  0  0  0  0  0
  -28.2430  -26.7210   20.1860 O   0  0  0  0  0  0  0  0  0  0  0  0
  -24.5570  -32.0130   23.2680 C   0  0  0  0  0  0  0  0  0  0  0  0
  -27.0870  -27.4970   20.1650 C   0  0  0  0  0  0  0  0  0  0  0  0
  -23.3040  -30.6100   21.6680 C   0  0  0  0  0  3  0  0  0  0  0  0
  -24.7110  -29.0570   20.2170 C   0  0  0  0  0  0  0  0  0  0  0  0
  -25.8310  -30.9410   21.4060 C   0  0  0  0  0  2  0  0  0  0  0  0
  -25.8910  -29.5630   20.7740 C   0  0  0  0  0  0  0  0  0  0  0  0
  -27.0820  -28.7930   20.7440 C   0  0  0  0  0  3  0  0  0  0  0  0
  -25.8780  -27.0220   19.5970 C   0  0  0  0  0  3  0  0  0  0  0  0
  -24.7020  -27.7870   19.6260 C   0  0  0  0  0  3  0  0  0  0  0  0
  -23.4750  -29.9240   20.2880 C   0  0  0  0  0  2  0  0  0  0  0  0
  -24.5850  -31.2040   22.1720 N   0  0  0  0  0  0  0  0  0  0  0  0
  -23.4890  -32.2970   23.8300 O   0  0  0  0  0  0  0  0  0  0  0  0
  -22.6690  -29.5960   22.6490 C   0  0  0  0  0  0  0  0  0  0  0  0
  -21.3550  -29.3630   22.5030 N   0  0  0  0  0  0  0  0  0  0  0  0
  -23.3560  -29.0210   23.4970 O   0  0  0  0  0  0  0  0  0  0  0  0
  -20.8600  -29.8820   21.7910 H   0  0  0  0  0  0  0  0  0  0  0  0
  -18.0240  -28.0270   22.9340 C   0  0  0  0  0  0  0  0  0  0  0  0
  -20.5540  -28.4230   23.2870 C   0  0  0  0  0  3  0  0  0  0  0  0
  -20.7460  -26.9730   22.7830 C   0  0  0  0  0  2  0  0  0  0  0  0
  -19.7000  -26.5500   21.7460 C   0  0  0  0  0  2  0  0  0  0  0  0
  -18.2900  -26.6580   22.3320 C   0  0  0  0  0  2  0  0  0  0  0  0
  -19.0870  -28.8610   23.3680 C   0  0  0  0  0  0  0  0  0  0  0  0
  -18.7870  -30.1400   23.8890 C   0  0  0  0  0  3  0  0  0  0  0  0
  -17.4550  -30.5840   23.9810 C   0  0  0  0  0  3  0  0  0  0  0  0
  -16.4040  -29.7470   23.5660 C   0  0  0  0  0  3  0  0  0  0  0  0
  -16.6890  -28.4710   23.0500 C   0  0  0  0  0  3  0  0  0  0  0  0
  -25.8600  -32.6400   23.8540 C   0  0  0  0  0  3  0  0  0  0  0  0
  -26.4080  -31.8670   25.1150 C   0  0  1  0  0  0  0  0  0  0  0  0
  -25.3390  -31.6170   26.2050 C   0  0  0  0  0  1  0  0  0  0  0  0
  -26.9900  -30.4960   24.6990 C   0  0  0  0  0  1  0  0  0  0  0  0
  -27.5680  -32.6640   25.7570 C   0  0  0  0  0  1  0  0  0  0  0  0
  -25.5650  -34.0390   24.1910 N   0  0  0  0  0  0  0  0  0  0  0  0
  -25.8800  -35.0900   23.4220 C   0  0  0  0  0  0  0  0  0  0  0  0
  -26.5250  -34.9840   22.3740 O   0  0  0  0  0  0  0  0  0  0  0  0
  -24.9950  -34.1970   25.0090 H   0  0  0  0  0  0  0  0  0  0  0  0
  -24.1580  -36.8930   23.0950 C   0  0  0  0  0  1  0  0  0  0  0  0
  -25.4070  -36.4800   23.8890 C   0  0  0  0  0  3  0  0  0  0  0  0
  -27.5540  -37.3530   24.7000 C   0  0  0  0  0  1  0  0  0  0  0  0
  -26.4440  -37.5280   23.7670 N   0  0  0  0  0  0  0  0  0  0  0  0
  -26.0440  -38.4490   23.9200 H   0  0  0  0  0  0  0  0  0  0  0  0
  1  7  1  0
  1  5  1  0
  2  8  1  0
  2  7  1  0
  2 15  1  0
  4  3  1  0
  5  6  1  6
  5  3  1  0
  7  4  1  0
  9  1  2  0
 10  8  1  0
 11  8  1  0
 12 16  1  0
 13 17  2  0
 15 13  1  0
 15 12  2  0
 16 14  2  0
 16 56  1  0
 17 14  1  0
 18 26  1  0
 19 24  1  0
 20 21  1  0
 20 19  1  0
 22 21  1  0
 22 31  1  0
 22 23  1  0
 24 18  1  0
 24 23  1  0
 25 18  2  0
 26 17  1  0
 26 27  1  0
 28 29  2  0
 29 48  1  0
 30 29  1  0
 30 33  1  0
 31 32  1  0
 31 28  1  0
 32 30  2  0
 33 34  1  0
 34 35  2  0
 36 39  1  0
 36 35  1  0
 37 36  2  0
 38 37  1  0
 38 33  2  0
 39 40  1  0
 40 41  1  0
 41 42  2  0
 43 42  1  0
 43 47  1  0
 44 43  2  0
 45 40  2  0
 45 44  1  0
 46 45  1  0
 48 49  1  0
 49 52  1  0
 49 51  1  0
 50 48  2  0
 53 28  1  0
 53 54  1  0
 55 53  1  0
 56 58  1  0
 57 56  1  0
 59  5  1  0
 59 60  1  0
 61 72  2  0
 62 60  1  0
 62 67  1  0
 63 71  1  0
 63 73  1  0
 64 70  1  0
 64 66  1  0
 65 71  1  0
 66 65  1  0
 67 66  2  0
 68 69  1  0
 68 62  2  0
 69 64  2  0
 70 63  1  0
 71 61  1  0
 73 75  2  0
 74 73  1  0
 76 74  1  0
 77 86  2  0
 77 82  1  0
 78 74  1  0
 78 82  1  0
 79 78  1  0
 80 81  1  0
 80 79  1  0
 81 77  1  0
 82 83  2  0
 83 84  1  0
 85 84  2  0
 86 85  1  0
 87 61  1  0
 87 92  1  0
 87 88  1  0
 88 91  1  1
 88 89  1  0
 90 88  1  0
 92 95  1  0
 93 97  1  0
 93 92  1  0
 94 93  2  0
 97 96  1  0
 99 97  1  0
 99100  1  0
 99 98  1  0
M  ISO  4  18 100  26 100  59 101  60 101
M  END
>  <TORSDO>  (97) 
F 19

>  <SCORE>  (97) 
-14.430

>  <name>  (97) 
96

>  <ligand_id>  (97) 
96

>  <original_smiles>  (97) 
[H]c1c([H])c([H])c2c(c1[H])C([H])([H])C([H])([H])C([H])([H])C2([H])N([H])C(=O)C1([H])N(C(=O)C([H])(N([H])C(=O)C([H])(N([H])C([H])([H])[H])C([H])([H])[H])C(C([H])([H])[H])(C([H])([H])[H])C([H])([H])[H])C([H])([H])c2c([H])c(OC([H])([H])C3(C([H])([H])[H])C(=O)N(C(c4c([H])c(N([H])[H])c([H])c(N([H])C(=O)N5C([H])([H])C([H])([H])C([H])([H])C([H])(n6nc(-c7c([H])c([H])c(Oc8c([H])c([H])c(F)c([H])c8F)c([H])c7[H])c(C(=O)N([H])[H])c6N([H])[H])C5([H])[H])c4[H])=[N+]([H])[H])C([H])([H])C3([H])[H])c([H])c([H])c2C1([H])[H]

>  <smiles>  (97) 
[H]c1c([H])c([H])c2c(c1[H])C([H])([H])C([H])([H])C([H])([H])C2([H])N([H])C(=O)C1([H])N(C(=O)C([H])(N([H])C(=O)C([H])(N([H])C([H])([H])[H])C([H])([H])[H])C(C([H])([H])[H])(C([H])([H])[H])C([H])([H])[H])C([H])([H])c2c([H])c(OC([H])([H])C3(C([H])([H])[H])C(=O)N(C(c4c([H])c(N([H])[H])c([H])c(N([H])C(=O)N5C([H])([H])C([H])([H])C([H])([H])C([H])(n6nc(-c7c([H])c([H])c(Oc8c([H])c([H])c(F)c([H])c8F)c([H])c7[H])c(C(=O)N([H])[H])c6N([H])[H])C5([H])[H])c4[H])=[N+]([H])[H])C([H])([H])C3([H])[H])c([H])c([H])c2C1([H])[H]

$$$$
97:0:0
     RDKit          3D

 93102  0  0  1  0  0  0  0  0999 V2000
  -29.4830  -23.3310   21.0350 C   0  0  0  0  0  2  0  0  0  0  0  0
  -28.0120  -22.7160   19.1580 C   0  0  0  0  0  2  0  0  0  0  0  0
  -29.2930  -21.8930   21.6340 C   0  0  0  0  0  2  0  0  0  0  0  0
  -27.8090  -21.2800   19.7550 C   0  0  0  0  0  2  0  0  0  0  0  0
  -28.2870  -23.8590   20.1890 C   0  0  1  0  0  0  0  0  0  0  0  0
  -28.8890  -20.8640   20.6580 N   0  0  0  0  0  0  0  0  0  0  0  0
  -27.2050  -23.9700   20.9640 F   0  0  0  0  0  0  0  0  0  0  0  0
  -31.8980  -18.9570   19.5840 C   0  0  0  0  0  3  0  0  0  0  0  0
  -31.0080  -20.0010   19.8760 C   0  0  0  0  0  3  0  0  0  0  0  0
  -31.5380  -17.6130   19.7970 C   0  0  0  0  0  3  0  0  0  0  0  0
  -29.3630  -18.3450   20.5880 C   0  0  0  0  0  3  0  0  0  0  0  0
  -29.7230  -19.7320   20.3780 C   0  0  0  0  0  0  0  0  0  0  0  0
  -30.2700  -17.2470   20.3220 C   0  0  0  0  0  0  0  0  0  0  0  0
  -30.6410  -14.6720   20.3470 C   0  0  0  0  0  0  0  0  0  0  0  0
  -30.3610  -12.4330   19.3180 C   0  0  0  0  0  2  0  0  0  0  0  0
  -29.4290  -12.5640   18.0960 C   0  0  0  0  0  2  0  0  0  0  0  0
  -27.9570  -12.4160   18.5290 C   0  0  0  0  0  2  0  0  0  0  0  0
  -27.5990  -13.2910   19.7610 C   0  0  0  0  0  3  0  0  0  0  0  0
  -28.6590  -13.1720   20.8780 C   0  0  0  0  0  2  0  0  0  0  0  0
  -29.9650  -13.4820   20.2830 N   0  0  0  0  0  0  0  0  0  0  0  0
  -31.8340  -14.7020   20.0410 O   0  0  0  0  0  0  0  0  0  0  0  0
  -29.9140  -15.8280   20.5550 N   0  0  0  0  0  0  0  0  0  0  0  0
  -28.9580  -15.6630   20.8300 H   0  0  0  0  0  0  0  0  0  0  0  0
  -25.2110  -13.8870   20.4870 C   0  0  0  0  0  0  0  0  0  0  0  0
  -24.1440  -13.1130   20.8570 C   0  0  0  0  0  0  0  0  0  0  0  0
  -24.6070  -11.7620   20.8290 C   0  0  0  0  0  0  0  0  0  0  0  0
  -26.2540  -13.0070   20.2520 N   0  0  0  0  0  0  0  0  0  0  0  0
  -25.8980  -11.7240   20.5220 N   0  0  0  0  0  0  0  0  0  0  0  0
  -23.8790  -10.5010   21.0190 C   0  0  0  0  0  0  0  0  0  0  0  0
  -24.3040   -9.5370   21.9610 C   0  0  0  0  0  3  0  0  0  0  0  0
  -23.5770   -8.3400   22.1400 C   0  0  0  0  0  3  0  0  0  0  0  0
  -22.4100   -8.0980   21.3760 C   0  0  0  0  0  0  0  0  0  0  0  0
  -22.0040   -9.0500   20.4240 C   0  0  0  0  0  3  0  0  0  0  0  0
  -22.7320  -10.2380   20.2440 C   0  0  0  0  0  3  0  0  0  0  0  0
  -21.6550   -6.9540   21.4630 O   0  0  0  0  0  0  0  0  0  0  0  0
  -21.5910   -6.2210   22.6210 C   0  0  0  0  0  0  0  0  0  0  0  0
  -21.1300   -6.7800   23.8330 C   0  0  0  0  0  3  0  0  0  0  0  0
  -21.0120   -5.9740   24.9820 C   0  0  0  0  0  3  0  0  0  0  0  0
  -21.3470   -4.6080   24.9210 C   0  0  0  0  0  0  0  0  0  0  0  0
  -21.8020   -4.0470   23.7140 C   0  0  0  0  0  3  0  0  0  0  0  0
  -21.9200   -4.8520   22.5670 C   0  0  0  0  0  0  0  0  0  0  0  0
  -22.3390   -4.3010   21.4020 F   0  0  0  0  0  0  0  0  0  0  0  0
  -21.2280   -3.8310   26.0220 F   0  0  0  0  0  0  0  0  0  0  0  0
  -22.7470  -13.5910   21.1260 C   0  0  0  0  0  0  0  0  0  0  0  0
  -22.0160  -12.8950   21.9900 N   0  0  0  0  0  0  0  0  0  0  0  0
  -22.3110  -14.6180   20.6060 O   0  0  0  0  0  0  0  0  0  0  0  0
  -22.3790  -12.0670   22.4360 H   0  0  0  0  0  0  0  0  0  0  0  0
  -21.0780  -13.1990   22.2120 H   0  0  0  0  0  0  0  0  0  0  0  0
  -25.3730  -15.2580   20.3050 N   0  0  0  0  0  0  0  0  0  0  0  0
  -24.6020  -15.9080   20.4070 H   0  0  0  0  0  0  0  0  0  0  0  0
  -26.2110  -15.6950   19.9450 H   0  0  0  0  0  0  0  0  0  0  0  0
  -28.5210  -25.2760   19.4790 C   0  0  0  0  0  2  0  0  0  0  0  0
  -28.4060  -26.5610   20.1970 O   0  0  0  0  0  0  0  0  0  0  0  0
  -24.6360  -31.8850   23.2320 C   0  0  0  0  0  0  0  0  0  0  0  0
  -27.2520  -27.3540   20.1470 C   0  0  0  0  0  0  0  0  0  0  0  0
  -23.4280  -30.4860   21.5930 C   0  0  0  0  0  3  0  0  0  0  0  0
  -24.8750  -28.9430   20.1570 C   0  0  0  0  0  0  0  0  0  0  0  0
  -25.9630  -30.8170   21.3980 C   0  0  0  0  0  2  0  0  0  0  0  0
  -26.0430  -29.4410   20.7470 C   0  0  0  0  0  0  0  0  0  0  0  0
  -27.2310  -28.6560   20.7330 C   0  0  0  0  0  3  0  0  0  0  0  0
  -26.0520  -26.8930   19.5580 C   0  0  0  0  0  3  0  0  0  0  0  0
  -24.8800  -27.6740   19.5570 C   0  0  0  0  0  3  0  0  0  0  0  0
  -23.6360  -29.8130   20.2100 C   0  0  0  0  0  2  0  0  0  0  0  0
  -24.6950  -31.0800   22.1310 N   0  0  0  0  0  0  0  0  0  0  0  0
  -23.5540  -32.1600   23.7720 O   0  0  0  0  0  0  0  0  0  0  0  0
  -22.7730  -29.4660   22.5530 C   0  0  0  0  0  0  0  0  0  0  0  0
  -21.4460  -29.2900   22.4350 N   0  0  0  0  0  0  0  0  0  0  0  0
  -23.4570  -28.8350   23.3650 O   0  0  0  0  0  0  0  0  0  0  0  0
  -20.9530  -29.8530   21.7560 H   0  0  0  0  0  0  0  0  0  0  0  0
  -18.0700  -28.1000   22.9510 C   0  0  0  0  0  0  0  0  0  0  0  0
  -20.6300  -28.3520   23.2070 C   0  0  0  0  0  3  0  0  0  0  0  0
  -20.7240  -26.9220   22.6240 C   0  0  0  0  0  2  0  0  0  0  0  0
  -19.6150  -26.6060   21.6160 C   0  0  0  0  0  2  0  0  0  0  0  0
  -18.2380  -26.7530   22.2690 C   0  0  0  0  0  2  0  0  0  0  0  0
  -19.1940  -28.8580   23.3770 C   0  0  0  0  0  0  0  0  0  0  0  0
  -18.9820  -30.1190   23.9750 C   0  0  0  0  0  3  0  0  0  0  0  0
  -17.6800  -30.6230   24.1510 C   0  0  0  0  0  3  0  0  0  0  0  0
  -16.5710  -29.8620   23.7410 C   0  0  0  0  0  3  0  0  0  0  0  0
  -16.7670  -28.6030   23.1480 C   0  0  0  0  0  3  0  0  0  0  0  0
  -25.9200  -32.5180   23.8500 C   0  0  0  0  0  3  0  0  0  0  0  0
  -25.6090  -33.9150   24.1900 N   0  0  0  0  0  0  0  0  0  0  0  0
  -25.9320  -34.9730   23.4350 C   0  0  0  0  0  0  0  0  0  0  0  0
  -26.5960  -34.8780   22.3990 O   0  0  0  0  0  0  0  0  0  0  0  0
  -25.0180  -34.0620   24.9950 H   0  0  0  0  0  0  0  0  0  0  0  0
  -24.2030  -36.7680   23.0930 C   0  0  0  0  0  1  0  0  0  0  0  0
  -25.4430  -36.3580   23.9030 C   0  0  0  0  0  3  0  0  0  0  0  0
  -27.5790  -37.2350   24.7410 C   0  0  0  0  0  1  0  0  0  0  0  0
  -26.4740  -37.4140   23.8020 N   0  0  0  0  0  0  0  0  0  0  0  0
  -26.0660  -38.3300   23.9650 H   0  0  0  0  0  0  0  0  0  0  0  0
  -26.4470  -31.7420   25.1190 C   0  0  1  0  0  0  0  0  0  0  0  0
  -25.3620  -31.4970   26.1940 C   0  0  0  0  0  1  0  0  0  0  0  0
  -27.0300  -30.3680   24.7170 C   0  0  0  0  0  1  0  0  0  0  0  0
  -27.5980  -32.5370   25.7780 C   0  0  0  0  0  1  0  0  0  0  0  0
  1  3  1  0
  2  4  1  0
  2  5  1  0
  4  6  1  0
  5  7  1  1
  5  1  1  0
  6  3  1  0
  8 10  2  0
  8  9  1  0
  9 12  2  0
 10 13  1  0
 12 11  1  0
 12  6  1  0
 13 22  1  0
 13 11  2  0
 14 22  1  0
 15 20  1  0
 16 17  1  0
 16 15  1  0
 18 17  1  0
 18 27  1  0
 18 19  1  0
 20 14  1  0
 20 19  1  0
 21 14  2  0
 22 23  1  0
 24 25  2  0
 25 44  1  0
 26 25  1  0
 26 29  1  0
 27 24  1  0
 27 28  1  0
 28 26  2  0
 29 30  1  0
 30 31  2  0
 32 35  1  0
 32 31  1  0
 33 32  2  0
 34 33  1  0
 34 29  2  0
 35 36  1  0
 36 37  1  0
 37 38  2  0
 39 38  1  0
 39 43  1  0
 40 39  2  0
 41 36  2  0
 41 40  1  0
 42 41  1  0
 44 45  1  0
 45 48  1  0
 45 47  1  0
 46 44  2  0
 49 50  1  0
 49 24  1  0
 51 49  1  0
 52  5  1  0
 52 53  1  0
 54 65  2  0
 55 53  1  0
 55 60  1  0
 56 64  1  0
 56 66  1  0
 57 63  1  0
 57 59  1  0
 58 64  1  0
 59 58  1  0
 60 59  2  0
 61 55  2  0
 62 61  1  0
 62 57  2  0
 63 56  1  0
 64 54  1  0
 66 68  2  0
 67 66  1  0
 69 67  1  0
 70 79  2  0
 70 75  1  0
 71 67  1  0
 71 75  1  0
 72 71  1  0
 73 74  1  0
 73 72  1  0
 74 70  1  0
 75 76  2  0
 76 77  1  0
 78 77  2  0
 79 78  1  0
 80 54  1  0
 80 81  1  0
 80 90  1  0
 81 84  1  0
 82 86  1  0
 82 81  1  0
 83 82  2  0
 86 85  1  0
 88 86  1  0
 88 89  1  0
 88 87  1  0
 90 93  1  1
 90 91  1  0
 92 90  1  0
M  ISO  4  14 100  22 100  52 101  53 101
M  END
>  <TORSDO>  (98) 
F 18

>  <SCORE>  (98) 
-14.914

>  <name>  (98) 
97

>  <ligand_id>  (98) 
97

>  <original_smiles>  (98) 
[H]c1c([H])c(N([H])C(=O)N2C([H])([H])C([H])([H])C([H])([H])C([H])(n3nc(-c4c([H])c([H])c(Oc5c([H])c([H])c(F)c([H])c5F)c([H])c4[H])c(C(=O)N([H])[H])c3N([H])[H])C2([H])[H])c([H])c(N2C([H])([H])C([H])([H])C(F)(C([H])([H])Oc3c([H])c([H])c4c(c3[H])C([H])([H])N(C(=O)C([H])(N([H])C(=O)C([H])(N([H])C([H])([H])[H])C([H])([H])[H])C(C([H])([H])[H])(C([H])([H])[H])C([H])([H])[H])C([H])(C(=O)N([H])C3([H])c5c([H])c([H])c([H])c([H])c5C([H])([H])C([H])([H])C3([H])[H])C4([H])[H])C([H])([H])C2([H])[H])c1[H]

>  <smiles>  (98) 
[H]c1c([H])c(N([H])C(=O)N2C([H])([H])C([H])([H])C([H])([H])C([H])(n3nc(-c4c([H])c([H])c(Oc5c([H])c([H])c(F)c([H])c5F)c([H])c4[H])c(C(=O)N([H])[H])c3N([H])[H])C2([H])[H])c([H])c(N2C([H])([H])C([H])([H])C(F)(C([H])([H])Oc3c([H])c([H])c4c(c3[H])C([H])([H])N(C(=O)C([H])(N([H])C(=O)C([H])(N([H])C([H])([H])[H])C([H])([H])[H])C(C([H])([H])[H])(C([H])([H])[H])C([H])([H])[H])C([H])(C(=O)N([H])C3([H])c5c([H])c([H])c([H])c([H])c5C([H])([H])C([H])([H])C3([H])[H])C4([H])[H])C([H])([H])C2([H])[H])c1[H]

$$$$
