0:0:0
     RDKit          3D

 98107  0  0  1  0  0  0  0  0999 V2000
  -29.7060  -21.2350   21.0480 C   0  0  0  0  0  3  0  0  0  0  0  0
  -29.9080  -25.0010   21.2810 C   0  0  0  0  0  2  0  0  0  0  0  0
  -30.1860  -23.5700   21.7530 C   0  0  0  0  0  2  0  0  0  0  0  0
  -28.3900  -23.5660   20.2070 C   0  0  0  0  0  2  0  0  0  0  0  0
  -28.4350  -25.0610   20.8890 C   0  0  1  0  0  0  0  0  0  0  0  0
  -27.5640  -25.1260   22.1650 C   0  0  0  0  0  1  0  0  0  0  0  0
  -29.3620  -22.6210   20.9570 N   0  0  0  0  0  0  0  0  0  0  0  0
  -30.6550  -20.9590   21.9440 N   0  0  0  0  0  0  0  0  0  0  0  0
  -31.0340  -20.0250   21.9490 H   0  0  0  0  0  0  0  0  0  0  0  0
  -31.0350  -21.6410   22.5740 H   0  0  0  0  0  0  0  0  0  0  0  0
  -28.8910  -19.9520   19.0020 C   0  0  0  0  0  3  0  0  0  0  0  0
  -29.6090  -18.5760   20.8850 C   0  0  0  0  0  3  0  0  0  0  0  0
  -29.0550  -17.4860   18.8040 C   0  0  0  0  0  3  0  0  0  0  0  0
  -29.3350  -19.9180   20.3360 C   0  0  0  0  0  0  0  0  0  0  0  0
  -28.7400  -18.7570   18.2590 C   0  0  0  0  0  0  0  0  0  0  0  0
  -29.5120  -17.3230   20.1370 C   0  0  0  0  0  0  0  0  0  0  0  0
  -30.4800  -14.8430   20.3300 C   0  0  0  0  0  0  0  0  0  0  0  0
  -30.3620  -12.5330   19.3540 C   0  0  0  0  0  2  0  0  0  0  0  0
  -29.4210  -12.5810   18.1310 C   0  0  0  0  0  2  0  0  0  0  0  0
  -27.9490  -12.3980   18.5570 C   0  0  0  0  0  2  0  0  0  0  0  0
  -27.5690  -13.2810   19.7790 C   0  0  0  0  0  3  0  0  0  0  0  0
  -28.6300  -13.1910   20.8970 C   0  0  0  0  0  2  0  0  0  0  0  0
  -29.9180  -13.5830   20.3050 N   0  0  0  0  0  0  0  0  0  0  0  0
  -31.6520  -14.9890   19.9590 O   0  0  0  0  0  0  0  0  0  0  0  0
  -29.6630  -15.9260   20.6760 N   0  0  0  0  0  0  0  0  0  0  0  0
  -28.8160  -15.5880   21.1010 H   0  0  0  0  0  0  0  0  0  0  0  0
  -25.1800  -13.8570   20.5180 C   0  0  0  0  0  0  0  0  0  0  0  0
  -24.1150  -13.0820   20.8830 C   0  0  0  0  0  0  0  0  0  0  0  0
  -24.5850  -11.7340   20.8500 C   0  0  0  0  0  0  0  0  0  0  0  0
  -26.2270  -12.9860   20.2710 N   0  0  0  0  0  0  0  0  0  0  0  0
  -25.8770  -11.7030   20.5380 N   0  0  0  0  0  0  0  0  0  0  0  0
  -23.8640  -10.4750   21.0490 C   0  0  0  0  0  0  0  0  0  0  0  0
  -24.3110   -9.5040   21.9710 C   0  0  0  0  0  3  0  0  0  0  0  0
  -23.5880   -8.3070   22.1550 C   0  0  0  0  0  3  0  0  0  0  0  0
  -22.4000   -8.0760   21.4220 C   0  0  0  0  0  0  0  0  0  0  0  0
  -21.9700   -9.0400   20.4890 C   0  0  0  0  0  3  0  0  0  0  0  0
  -22.6950  -10.2270   20.3040 C   0  0  0  0  0  3  0  0  0  0  0  0
  -21.6390   -6.9340   21.5200 O   0  0  0  0  0  0  0  0  0  0  0  0
  -21.6260   -6.1780   22.6630 C   0  0  0  0  0  0  0  0  0  0  0  0
  -21.2550   -6.7190   23.9130 C   0  0  0  0  0  3  0  0  0  0  0  0
  -21.1860   -5.8890   25.0460 C   0  0  0  0  0  3  0  0  0  0  0  0
  -21.4780   -4.5170   24.9340 C   0  0  0  0  0  0  0  0  0  0  0  0
  -21.8460   -3.9750   23.6890 C   0  0  0  0  0  3  0  0  0  0  0  0
  -21.9170   -4.8030   22.5560 C   0  0  0  0  0  0  0  0  0  0  0  0
  -22.2500   -4.2730   21.3560 F   0  0  0  0  0  0  0  0  0  0  0  0
  -21.4050   -3.7150   26.0230 F   0  0  0  0  0  0  0  0  0  0  0  0
  -22.7200  -13.5650   21.1580 C   0  0  0  0  0  0  0  0  0  0  0  0
  -21.9940  -12.8770   22.0310 N   0  0  0  0  0  0  0  0  0  0  0  0
  -22.2890  -14.5920   20.6350 O   0  0  0  0  0  0  0  0  0  0  0  0
  -22.3540  -12.0500   22.4800 H   0  0  0  0  0  0  0  0  0  0  0  0
  -21.0580  -13.1800   22.2580 H   0  0  0  0  0  0  0  0  0  0  0  0
  -25.3370  -15.2320   20.3750 N   0  0  0  0  0  0  0  0  0  0  0  0
  -24.5870  -15.8230   20.7180 H   0  0  0  0  0  0  0  0  0  0  0  0
  -26.2500  -15.6670   20.4430 H   0  0  0  0  0  0  0  0  0  0  0  0
  -28.2760  -18.8510   16.9460 N   0  0  0  0  0  0  0  0  0  0  0  0
  -27.8070  -19.7070   16.6690 H   0  0  0  0  0  0  0  0  0  0  0  0
  -27.8170  -18.0330   16.5520 H   0  0  0  0  0  0  0  0  0  0  0  0
  -28.3650  -26.4110   20.1950 O   0  0  0  0  0  0  0  0  0  0  0  0
  -24.6250  -31.8870   23.2380 C   0  0  0  0  0  0  0  0  0  0  0  0
  -27.2420  -27.2720   20.2270 C   0  0  0  0  0  0  0  0  0  0  0  0
  -23.4260  -30.4810   21.5970 C   0  0  0  0  0  3  0  0  0  0  0  0
  -24.8850  -28.9170   20.1850 C   0  0  0  0  0  0  0  0  0  0  0  0
  -25.9700  -30.7910   21.4270 C   0  0  0  0  0  2  0  0  0  0  0  0
  -26.0540  -29.4050   20.7840 C   0  0  0  0  0  0  0  0  0  0  0  0
  -27.2380  -28.5960   20.7880 C   0  0  0  0  0  3  0  0  0  0  0  0
  -26.0530  -26.8450   19.6060 C   0  0  0  0  0  3  0  0  0  0  0  0
  -24.8900  -27.6440   19.5850 C   0  0  0  0  0  3  0  0  0  0  0  0
  -23.6490  -29.7960   20.2210 C   0  0  0  0  0  2  0  0  0  0  0  0
  -24.6910  -31.0740   22.1420 N   0  0  0  0  0  0  0  0  0  0  0  0
  -23.5390  -32.1670   23.7710 O   0  0  0  0  0  0  0  0  0  0  0  0
  -22.7580  -29.4720   22.5610 C   0  0  0  0  0  0  0  0  0  0  0  0
  -21.4320  -29.3040   22.4390 N   0  0  0  0  0  0  0  0  0  0  0  0
  -23.4350  -28.8410   23.3790 O   0  0  0  0  0  0  0  0  0  0  0  0
  -20.9430  -29.8680   21.7590 H   0  0  0  0  0  0  0  0  0  0  0  0
  -18.0500  -28.1180   22.9480 C   0  0  0  0  0  0  0  0  0  0  0  0
  -20.6090  -28.3680   23.2090 C   0  0  0  0  0  3  0  0  0  0  0  0
  -20.7040  -26.9350   22.6340 C   0  0  0  0  0  2  0  0  0  0  0  0
  -19.5980  -26.6210   21.6200 C   0  0  0  0  0  2  0  0  0  0  0  0
  -18.2190  -26.7700   22.2670 C   0  0  0  0  0  2  0  0  0  0  0  0
  -19.1720  -28.8760   23.3760 C   0  0  0  0  0  0  0  0  0  0  0  0
  -18.9600  -30.1400   23.9720 C   0  0  0  0  0  3  0  0  0  0  0  0
  -17.6570  -30.6470   24.1410 C   0  0  0  0  0  3  0  0  0  0  0  0
  -16.5510  -29.8860   23.7280 C   0  0  0  0  0  3  0  0  0  0  0  0
  -16.7450  -28.6230   23.1380 C   0  0  0  0  0  3  0  0  0  0  0  0
  -25.9030  -32.5210   23.8630 C   0  0  0  0  0  3  0  0  0  0  0  0
  -25.5920  -33.9200   24.1930 N   0  0  0  0  0  0  0  0  0  0  0  0
  -25.9220  -34.9720   23.4320 C   0  0  0  0  0  0  0  0  0  0  0  0
  -26.5900  -34.8700   22.4020 O   0  0  0  0  0  0  0  0  0  0  0  0
  -24.9970  -34.0760   24.9940 H   0  0  0  0  0  0  0  0  0  0  0  0
  -24.1880  -36.7670   23.0900 C   0  0  0  0  0  1  0  0  0  0  0  0
  -25.4350  -36.3630   23.8930 C   0  0  0  0  0  3  0  0  0  0  0  0
  -27.5750  -37.2570   24.7020 C   0  0  0  0  0  1  0  0  0  0  0  0
  -26.4630  -37.4180   23.7680 N   0  0  0  0  0  0  0  0  0  0  0  0
  -26.0580  -38.3390   23.9160 H   0  0  0  0  0  0  0  0  0  0  0  0
  -26.4150  -31.7510   25.1450 C   0  0  1  0  0  0  0  0  0  0  0  0
  -25.3210  -31.5280   26.2150 C   0  0  0  0  0  1  0  0  0  0  0  0
  -26.9890  -30.3670   24.7610 C   0  0  0  0  0  1  0  0  0  0  0  0
  -27.5680  -32.5410   25.8070 C   0  0  0  0  0  1  0  0  0  0  0  0
  1  8  1  0
  2  3  1  0
  4  5  1  0
  4  7  1  0
  5  2  1  0
  5  6  1  1
  7  1  1  0
  7  3  1  0
  8  9  1  0
  8 10  1  0
 11 14  1  0
 13 16  2  0
 14 12  2  0
 14  1  1  0
 15 13  1  0
 15 11  2  0
 16 25  1  0
 16 12  1  0
 17 25  1  0
 18 23  1  0
 19 20  1  0
 19 18  1  0
 21 20  1  0
 21 30  1  0
 21 22  1  0
 23 17  1  0
 23 22  1  0
 24 17  2  0
 25 26  1  0
 27 28  2  0
 28 47  1  0
 29 28  1  0
 29 32  1  0
 30 27  1  0
 30 31  1  0
 31 29  2  0
 32 33  1  0
 33 34  2  0
 35 38  1  0
 35 34  1  0
 36 35  2  0
 37 36  1  0
 37 32  2  0
 38 39  1  0
 39 40  1  0
 40 41  2  0
 42 41  1  0
 42 46  1  0
 43 42  2  0
 44 39  2  0
 44 43  1  0
 45 44  1  0
 47 48  1  0
 48 51  1  0
 48 50  1  0
 49 47  2  0
 52 54  1  0
 52 27  1  0
 52 53  1  0
 55 15  1  0
 56 55  1  0
 57 55  1  0
 58 60  1  0
 58  5  1  0
 59 70  2  0
 60 65  1  0
 61 69  1  0
 61 71  1  0
 62 68  1  0
 62 64  1  0
 63 69  1  0
 64 65  2  0
 64 63  1  0
 66 60  2  0
 67 66  1  0
 67 62  2  0
 68 61  1  0
 69 59  1  0
 71 73  2  0
 72 71  1  0
 74 72  1  0
 75 84  2  0
 75 80  1  0
 76 72  1  0
 76 80  1  0
 77 76  1  0
 78 79  1  0
 78 77  1  0
 79 75  1  0
 80 81  2  0
 81 82  1  0
 83 82  2  0
 84 83  1  0
 85 59  1  0
 85 86  1  0
 85 95  1  0
 86 89  1  0
 87 91  1  0
 87 86  1  0
 88 87  2  0
 91 90  1  0
 93 91  1  0
 93 94  1  0
 93 92  1  0
 95 98  1  1
 95 96  1  0
 97 95  1  0
M  ISO  4   5 101  17 100  25 100  58 101
M  END
>  <TORSDO>  (1) 
F 18

>  <SCORE>  (1) 
-15.408

>  <name>  (1) 
0

>  <ligand_id>  (1) 
0

>  <original_smiles>  (1) 
[H]c1c([H])c([H])c2c(c1[H])C([H])([H])C([H])([H])C([H])([H])C2([H])N([H])C(=O)C1([H])N(C(=O)C([H])(N([H])C(=O)C([H])(N([H])C([H])([H])[H])C([H])([H])[H])C(C([H])([H])[H])(C([H])([H])[H])C([H])([H])[H])C([H])([H])c2c([H])c(OC3(C([H])([H])[H])C([H])([H])N(C(c4c([H])c(N([H])[H])c([H])c(N([H])C(=O)N5C([H])([H])C([H])([H])C([H])([H])C([H])(n6nc(-c7c([H])c([H])c(Oc8c([H])c([H])c(F)c([H])c8F)c([H])c7[H])c(C(=O)N([H])[H])c6N([H])[H])C5([H])[H])c4[H])=[N+]([H])[H])C([H])([H])C3([H])[H])c([H])c([H])c2C1([H])[H]

>  <smiles>  (1) 
[H]c1c([H])c([H])c2c(c1[H])C([H])([H])C([H])([H])C([H])([H])C2([H])N([H])C(=O)C1([H])N(C(=O)C([H])(N([H])C(=O)C([H])(N([H])C([H])([H])[H])C([H])([H])[H])C(C([H])([H])[H])(C([H])([H])[H])C([H])([H])[H])C([H])([H])c2c([H])c(OC3(C([H])([H])[H])C([H])([H])N(C(c4c([H])c(N([H])[H])c([H])c(N([H])C(=O)N5C([H])([H])C([H])([H])C([H])([H])C([H])(n6nc(-c7c([H])c([H])c(Oc8c([H])c([H])c(F)c([H])c8F)c([H])c7[H])c(C(=O)N([H])[H])c6N([H])[H])C5([H])[H])c4[H])=[N+]([H])[H])C([H])([H])C3([H])[H])c([H])c([H])c2C1([H])[H]

$$$$
1:0:0
     RDKit          3D

 97106  0  0  1  0  0  0  0  0999 V2000
  -28.7990  -23.7840   20.9630 C   0  0  0  0  0  0  0  0  0  0  0  0
  -29.4370  -21.2320   20.9210 C   0  0  0  0  0  3  0  0  0  0  0  0
  -28.5070  -24.2430   18.6700 C   0  0  0  0  0  2  0  0  0  0  0  0
  -28.7230  -22.7030   18.8810 C   0  0  0  0  0  2  0  0  0  0  0  0
  -28.0770  -24.8330   20.0220 C   0  0  0  0  0  3  0  0  0  0  0  0
  -29.0450  -22.4560   20.3060 N   0  0  0  0  0  0  0  0  0  0  0  0
  -29.5570  -21.2370   22.2630 N   0  0  0  0  0  0  0  0  0  0  0  0
  -29.0650  -24.0030   22.1560 O   0  0  0  0  0  0  0  0  0  0  0  0
  -29.8950  -20.4260   22.7590 H   0  0  0  0  0  0  0  0  0  0  0  0
  -29.4240  -22.0990   22.7840 H   0  0  0  0  0  0  0  0  0  0  0  0
  -29.4080  -18.5180   20.8710 C   0  0  0  0  0  3  0  0  0  0  0  0
  -29.8050  -19.8400   20.3210 C   0  0  0  0  0  0  0  0  0  0  0  0
  -30.0180  -17.3550   20.3310 C   0  0  0  0  0  0  0  0  0  0  0  0
  -30.7290  -19.6530   19.3170 C   0  0  0  0  0  0  0  0  0  0  0  0
  -31.0770  -17.9360   19.0510 S   0  0  0  0  0  0  0  0  0  0  0  0
  -30.5880  -14.8340   20.3170 C   0  0  0  0  0  0  0  0  0  0  0  0
  -30.3850  -12.5390   19.3290 C   0  0  0  0  0  2  0  0  0  0  0  0
  -29.4440  -12.6070   18.1040 C   0  0  0  0  0  2  0  0  0  0  0  0
  -27.9760  -12.4310   18.5360 C   0  0  0  0  0  2  0  0  0  0  0  0
  -27.6070  -13.3170   19.7560 C   0  0  0  0  0  3  0  0  0  0  0  0
  -28.6700  -13.2370   20.8730 C   0  0  0  0  0  2  0  0  0  0  0  0
  -29.9650  -13.6000   20.2790 N   0  0  0  0  0  0  0  0  0  0  0  0
  -31.7640  -14.9150   19.9530 O   0  0  0  0  0  0  0  0  0  0  0  0
  -29.8390  -15.9760   20.6300 N   0  0  0  0  0  0  0  0  0  0  0  0
  -28.9570  -15.7510   21.0670 H   0  0  0  0  0  0  0  0  0  0  0  0
  -25.2240  -13.9110   20.4880 C   0  0  0  0  0  0  0  0  0  0  0  0
  -24.1570  -13.1400   20.8580 C   0  0  0  0  0  0  0  0  0  0  0  0
  -24.6150  -11.7870   20.8250 C   0  0  0  0  0  0  0  0  0  0  0  0
  -26.2650  -13.0280   20.2490 N   0  0  0  0  0  0  0  0  0  0  0  0
  -25.9050  -11.7450   20.5170 N   0  0  0  0  0  0  0  0  0  0  0  0
  -23.8830  -10.5280   21.0130 C   0  0  0  0  0  0  0  0  0  0  0  0
  -24.3050   -9.5630   21.9550 C   0  0  0  0  0  3  0  0  0  0  0  0
  -23.5740   -8.3680   22.1330 C   0  0  0  0  0  3  0  0  0  0  0  0
  -22.4070   -8.1290   21.3690 C   0  0  0  0  0  0  0  0  0  0  0  0
  -22.0060   -9.0820   20.4160 C   0  0  0  0  0  3  0  0  0  0  0  0
  -22.7370  -10.2680   20.2360 C   0  0  0  0  0  3  0  0  0  0  0  0
  -21.6480   -6.9890   21.4560 O   0  0  0  0  0  0  0  0  0  0  0  0
  -21.5730   -6.2610   22.6160 C   0  0  0  0  0  0  0  0  0  0  0  0
  -21.1090   -6.8290   23.8240 C   0  0  0  0  0  3  0  0  0  0  0  0
  -20.9830   -6.0260   24.9750 C   0  0  0  0  0  3  0  0  0  0  0  0
  -21.3090   -4.6570   24.9200 C   0  0  0  0  0  0  0  0  0  0  0  0
  -21.7640   -4.0900   23.7170 C   0  0  0  0  0  3  0  0  0  0  0  0
  -21.8920   -4.8890   22.5670 C   0  0  0  0  0  0  0  0  0  0  0  0
  -22.3110   -4.3330   21.4060 F   0  0  0  0  0  0  0  0  0  0  0  0
  -21.1790   -3.8840   26.0250 F   0  0  0  0  0  0  0  0  0  0  0  0
  -22.7610  -13.6210   21.1300 C   0  0  0  0  0  0  0  0  0  0  0  0
  -22.0310  -12.9240   21.9940 N   0  0  0  0  0  0  0  0  0  0  0  0
  -22.3260  -14.6490   20.6110 O   0  0  0  0  0  0  0  0  0  0  0  0
  -22.3990  -12.0940   22.4330 H   0  0  0  0  0  0  0  0  0  0  0  0
  -21.0920  -13.2220   22.2180 H   0  0  0  0  0  0  0  0  0  0  0  0
  -25.3920  -15.2810   20.3090 N   0  0  0  0  0  0  0  0  0  0  0  0
  -24.6250  -15.9350   20.4140 H   0  0  0  0  0  0  0  0  0  0  0  0
  -26.2360  -15.7140   19.9540 H   0  0  0  0  0  0  0  0  0  0  0  0
  -31.4540  -20.5860   18.5860 N   0  0  0  0  0  0  0  0  0  0  0  0
  -31.7730  -21.4460   19.0200 H   0  0  0  0  0  0  0  0  0  0  0  0
  -32.1770  -20.2260   17.9690 H   0  0  0  0  0  0  0  0  0  0  0  0
  -28.2830  -26.3340   20.2310 O   0  0  0  0  0  0  0  0  0  0  0  0
  -24.6030  -31.8750   23.2230 C   0  0  0  0  0  0  0  0  0  0  0  0
  -27.1900  -27.2470   20.1550 C   0  0  0  0  0  0  0  0  0  0  0  0
  -23.3920  -30.4760   21.5890 C   0  0  0  0  0  3  0  0  0  0  0  0
  -24.8350  -28.9200   20.1490 C   0  0  0  0  0  0  0  0  0  0  0  0
  -25.9370  -30.7710   21.4020 C   0  0  0  0  0  2  0  0  0  0  0  0
  -26.0110  -29.3880   20.7500 C   0  0  0  0  0  0  0  0  0  0  0  0
  -27.1870  -28.5630   20.7430 C   0  0  0  0  0  3  0  0  0  0  0  0
  -25.9940  -26.8710   19.5010 C   0  0  0  0  0  3  0  0  0  0  0  0
  -24.8350  -27.6710   19.5120 C   0  0  0  0  0  3  0  0  0  0  0  0
  -23.6020  -29.8020   20.2070 C   0  0  0  0  0  2  0  0  0  0  0  0
  -24.6630  -31.0610   22.1260 N   0  0  0  0  0  0  0  0  0  0  0  0
  -23.5210  -32.1550   23.7600 O   0  0  0  0  0  0  0  0  0  0  0  0
  -22.7280  -29.4630   22.5540 C   0  0  0  0  0  0  0  0  0  0  0  0
  -21.4020  -29.2850   22.4330 N   0  0  0  0  0  0  0  0  0  0  0  0
  -23.4090  -28.8400   23.3730 O   0  0  0  0  0  0  0  0  0  0  0  0
  -20.9100  -29.8400   21.7470 H   0  0  0  0  0  0  0  0  0  0  0  0
  -18.0280  -28.0800   22.9520 C   0  0  0  0  0  0  0  0  0  0  0  0
  -20.5860  -28.3470   23.2100 C   0  0  0  0  0  3  0  0  0  0  0  0
  -20.6890  -26.9150   22.6370 C   0  0  0  0  0  2  0  0  0  0  0  0
  -19.5840  -26.5880   21.6270 C   0  0  0  0  0  2  0  0  0  0  0  0
  -18.2040  -26.7310   22.2770 C   0  0  0  0  0  2  0  0  0  0  0  0
  -19.1460  -28.8470   23.3760 C   0  0  0  0  0  0  0  0  0  0  0  0
  -18.9260  -30.1100   23.9670 C   0  0  0  0  0  3  0  0  0  0  0  0
  -17.6200  -30.6060   24.1390 C   0  0  0  0  0  3  0  0  0  0  0  0
  -16.5170  -29.8370   23.7310 C   0  0  0  0  0  3  0  0  0  0  0  0
  -16.7220  -28.5760   23.1430 C   0  0  0  0  0  3  0  0  0  0  0  0
  -25.8860  -32.5100   23.8400 C   0  0  0  0  0  3  0  0  0  0  0  0
  -25.5760  -33.9080   24.1780 N   0  0  0  0  0  0  0  0  0  0  0  0
  -25.8930  -34.9660   23.4190 C   0  0  0  0  0  0  0  0  0  0  0  0
  -26.5470  -34.8680   22.3770 O   0  0  0  0  0  0  0  0  0  0  0  0
  -24.9940  -34.0570   24.9900 H   0  0  0  0  0  0  0  0  0  0  0  0
  -24.1550  -36.7570   23.0970 C   0  0  0  0  0  1  0  0  0  0  0  0
  -25.4090  -36.3510   23.8900 C   0  0  0  0  0  3  0  0  0  0  0  0
  -27.5530  -37.2380   24.6980 C   0  0  0  0  0  1  0  0  0  0  0  0
  -26.4380  -37.4080   23.7690 N   0  0  0  0  0  0  0  0  0  0  0  0
  -26.0310  -38.3260   23.9270 H   0  0  0  0  0  0  0  0  0  0  0  0
  -26.4120  -31.7380   25.1110 C   0  0  1  0  0  0  0  0  0  0  0  0
  -25.3270  -31.4940   26.1870 C   0  0  0  0  0  1  0  0  0  0  0  0
  -26.9960  -30.3620   24.7160 C   0  0  0  0  0  1  0  0  0  0  0  0
  -27.5660  -32.5320   25.7680 C   0  0  0  0  0  1  0  0  0  0  0  0
  1  8  2  0
  2  7  1  0
  3  4  1  0
  3  5  1  0
  4  6  1  0
  5 57  1  0
  5  1  1  0
  6  2  1  0
  6  1  1  0
  7  9  1  0
  7 10  1  0
 12 11  1  0
 12  2  1  0
 13 24  1  0
 13 11  2  0
 14 12  2  0
 15 14  1  0
 15 13  1  0
 16 24  1  0
 17 22  1  0
 18 19  1  0
 18 17  1  0
 20 19  1  0
 20 29  1  0
 20 21  1  0
 22 16  1  0
 22 21  1  0
 23 16  2  0
 24 25  1  0
 26 27  2  0
 27 46  1  0
 28 27  1  0
 28 31  1  0
 29 26  1  0
 29 30  1  0
 30 28  2  0
 31 32  1  0
 32 33  2  0
 34 37  1  0
 34 33  1  0
 35 34  2  0
 36 35  1  0
 36 31  2  0
 37 38  1  0
 38 39  1  0
 39 40  2  0
 41 40  1  0
 41 45  1  0
 42 41  2  0
 43 38  2  0
 43 42  1  0
 44 43  1  0
 46 47  1  0
 47 50  1  0
 47 49  1  0
 48 46  2  0
 51 52  1  0
 51 26  1  0
 53 51  1  0
 54 55  1  0
 54 14  1  0
 56 54  1  0
 58 69  2  0
 59 57  1  0
 59 64  1  0
 60 68  1  0
 60 70  1  0
 61 67  1  0
 61 63  1  0
 62 68  1  0
 63 62  1  0
 64 63  2  0
 65 66  1  0
 65 59  2  0
 66 61  2  0
 67 60  1  0
 68 58  1  0
 70 72  2  0
 71 70  1  0
 73 71  1  0
 74 83  2  0
 74 79  1  0
 75 71  1  0
 75 79  1  0
 76 75  1  0
 77 78  1  0
 77 76  1  0
 78 74  1  0
 79 80  2  0
 80 81  1  0
 82 81  2  0
 83 82  1  0
 84 58  1  0
 84 85  1  0
 84 94  1  0
 85 88  1  0
 86 90  1  0
 86 85  1  0
 87 86  2  0
 90 89  1  0
 92 90  1  0
 92 93  1  0
 92 91  1  0
 94 97  1  1
 94 95  1  0
 96 94  1  0
M  ISO  4   5 101  16 100  24 100  57 101
M  END
>  <TORSDO>  (2) 
F 18

>  <SCORE>  (2) 
-15.148

>  <name>  (2) 
1

>  <ligand_id>  (2) 
1

>  <original_smiles>  (2) 
[H]c1c([H])c([H])c2c(c1[H])C([H])([H])C([H])([H])C([H])([H])C2([H])N([H])C(=O)C1([H])N(C(=O)C([H])(N([H])C(=O)C([H])(N([H])C([H])([H])[H])C([H])([H])[H])C(C([H])([H])[H])(C([H])([H])[H])C([H])([H])[H])C([H])([H])c2c([H])c(OC3([H])C(=O)N(C(c4c(N([H])[H])sc(N([H])C(=O)N5C([H])([H])C([H])([H])C([H])([H])C([H])(n6nc(-c7c([H])c([H])c(Oc8c([H])c([H])c(F)c([H])c8F)c([H])c7[H])c(C(=O)N([H])[H])c6N([H])[H])C5([H])[H])c4[H])=[N+]([H])[H])C([H])([H])C3([H])[H])c([H])c([H])c2C1([H])[H]

>  <smiles>  (2) 
[H]c1c([H])c([H])c2c(c1[H])C([H])([H])C([H])([H])C([H])([H])C2([H])N([H])C(=O)C1([H])N(C(=O)C([H])(N([H])C(=O)C([H])(N([H])C([H])([H])[H])C([H])([H])[H])C(C([H])([H])[H])(C([H])([H])[H])C([H])([H])[H])C([H])([H])c2c([H])c(OC3([H])C(=O)N(C(c4c(N([H])[H])sc(N([H])C(=O)N5C([H])([H])C([H])([H])C([H])([H])C([H])(n6nc(-c7c([H])c([H])c(Oc8c([H])c([H])c(F)c([H])c8F)c([H])c7[H])c(C(=O)N([H])[H])c6N([H])[H])C5([H])[H])c4[H])=[N+]([H])[H])C([H])([H])C3([H])[H])c([H])c([H])c2C1([H])[H]

$$$$
2:0:0
     RDKit          3D

 91100  0  0  1  0  0  0  0  0999 V2000
  -28.3960  -23.7040   20.0590 C   0  0  0  0  0  0  0  0  0  0  0  0
  -28.8410  -22.5500   20.7130 N   0  0  0  0  0  0  0  0  0  0  0  0
  -28.0870  -23.6860   18.8650 O   0  0  0  0  0  0  0  0  0  0  0  0
  -29.1060  -22.7460   21.6690 H   0  0  0  0  0  0  0  0  0  0  0  0
  -30.6020  -14.8940   20.3700 C   0  0  0  0  0  0  0  0  0  0  0  0
  -30.4320  -12.5830   19.4100 C   0  0  0  0  0  2  0  0  0  0  0  0
  -29.5010  -12.5670   18.1780 C   0  0  0  0  0  2  0  0  0  0  0  0
  -28.0300  -12.3970   18.6060 C   0  0  0  0  0  2  0  0  0  0  0  0
  -27.6310  -13.3180   19.7910 C   0  0  0  0  0  3  0  0  0  0  0  0
  -28.6850  -13.3050   20.9160 C   0  0  0  0  0  2  0  0  0  0  0  0
  -29.9660  -13.6690   20.3050 N   0  0  0  0  0  0  0  0  0  0  0  0
  -31.8270  -14.9300   20.2090 O   0  0  0  0  0  0  0  0  0  0  0  0
  -29.4620  -20.1060   21.1290 C   0  0  0  0  0  3  0  0  0  0  0  0
  -29.4430  -18.7470   20.5390 C   0  0  0  0  0  0  0  0  0  0  0  0
  -28.9190  -18.8240   19.2870 C   0  0  0  0  0  0  0  0  0  0  0  0
  -28.9700  -21.1850   20.3580 C   0  0  0  0  0  0  0  0  0  0  0  0
  -29.8810  -17.3180   21.0940 C   0  0  0  0  0  2  0  0  0  0  0  0
  -28.7620  -17.6110   18.4270 C   0  0  0  0  0  2  0  0  0  0  0  0
  -29.8120  -16.5150   18.7640 C   0  0  0  0  0  2  0  0  0  0  0  0
  -29.8530  -16.0740   20.1820 N   0  0  0  0  0  0  0  0  0  0  0  0
  -28.4940  -20.4790   18.8120 S   0  0  0  0  0  0  0  0  0  0  0  0
  -25.2440  -13.9000   20.5120 C   0  0  0  0  0  0  0  0  0  0  0  0
  -24.1790  -13.1230   20.8750 C   0  0  0  0  0  0  0  0  0  0  0  0
  -24.6510  -11.7730   20.8590 C   0  0  0  0  0  0  0  0  0  0  0  0
  -26.2920  -13.0240   20.2860 N   0  0  0  0  0  0  0  0  0  0  0  0
  -25.9430  -11.7400   20.5640 N   0  0  0  0  0  0  0  0  0  0  0  0
  -23.9280  -10.5080   21.0500 C   0  0  0  0  0  0  0  0  0  0  0  0
  -24.3580   -9.5460   21.9910 C   0  0  0  0  0  3  0  0  0  0  0  0
  -23.6350   -8.3470   22.1690 C   0  0  0  0  0  3  0  0  0  0  0  0
  -22.4680   -8.1020   21.4070 C   0  0  0  0  0  0  0  0  0  0  0  0
  -22.0580   -9.0510   20.4560 C   0  0  0  0  0  3  0  0  0  0  0  0
  -22.7820  -10.2430   20.2750 C   0  0  0  0  0  3  0  0  0  0  0  0
  -21.7160   -6.9550   21.4940 O   0  0  0  0  0  0  0  0  0  0  0  0
  -21.6600   -6.2170   22.6480 C   0  0  0  0  0  0  0  0  0  0  0  0
  -21.2100   -6.7710   23.8670 C   0  0  0  0  0  3  0  0  0  0  0  0
  -21.1040   -5.9590   25.0130 C   0  0  0  0  0  3  0  0  0  0  0  0
  -21.4380   -4.5920   24.9420 C   0  0  0  0  0  0  0  0  0  0  0  0
  -21.8820   -4.0380   23.7290 C   0  0  0  0  0  3  0  0  0  0  0  0
  -21.9890   -4.8480   22.5850 C   0  0  0  0  0  0  0  0  0  0  0  0
  -22.3970   -4.3030   21.4130 F   0  0  0  0  0  0  0  0  0  0  0  0
  -21.3280   -3.8100   26.0410 F   0  0  0  0  0  0  0  0  0  0  0  0
  -22.7770  -13.5930   21.1290 C   0  0  0  0  0  0  0  0  0  0  0  0
  -22.0430  -12.8980   21.9890 N   0  0  0  0  0  0  0  0  0  0  0  0
  -22.3400  -14.6150   20.5990 O   0  0  0  0  0  0  0  0  0  0  0  0
  -22.4120  -12.0720   22.4380 H   0  0  0  0  0  0  0  0  0  0  0  0
  -21.1010  -13.1940   22.2030 H   0  0  0  0  0  0  0  0  0  0  0  0
  -25.4070  -15.2710   20.3300 N   0  0  0  0  0  0  0  0  0  0  0  0
  -24.6440  -15.9290   20.4460 H   0  0  0  0  0  0  0  0  0  0  0  0
  -26.2690  -15.7110   20.0380 H   0  0  0  0  0  0  0  0  0  0  0  0
  -28.2410  -25.1000   20.8630 C   0  0  0  0  0  2  0  0  0  0  0  0
  -28.3170  -26.4300   20.1510 O   0  0  0  0  0  0  0  0  0  0  0  0
  -24.5960  -31.9090   23.2240 C   0  0  0  0  0  0  0  0  0  0  0  0
  -27.2120  -27.3110   20.1810 C   0  0  0  0  0  0  0  0  0  0  0  0
  -23.3950  -30.5020   21.5890 C   0  0  0  0  0  3  0  0  0  0  0  0
  -24.8510  -28.9470   20.1650 C   0  0  0  0  0  0  0  0  0  0  0  0
  -25.9350  -30.8230   21.3990 C   0  0  0  0  0  2  0  0  0  0  0  0
  -26.0230  -29.4360   20.7560 C   0  0  0  0  0  0  0  0  0  0  0  0
  -27.2100  -28.6320   20.7490 C   0  0  0  0  0  3  0  0  0  0  0  0
  -26.0180  -26.8830   19.5680 C   0  0  0  0  0  3  0  0  0  0  0  0
  -24.8530  -27.6770   19.5620 C   0  0  0  0  0  3  0  0  0  0  0  0
  -23.6120  -29.8220   20.2110 C   0  0  0  0  0  2  0  0  0  0  0  0
  -24.6620  -31.0960   22.1280 N   0  0  0  0  0  0  0  0  0  0  0  0
  -23.5130  -32.1850   23.7590 O   0  0  0  0  0  0  0  0  0  0  0  0
  -22.7360  -29.4850   22.5550 C   0  0  0  0  0  0  0  0  0  0  0  0
  -21.4100  -29.3020   22.4340 N   0  0  0  0  0  0  0  0  0  0  0  0
  -23.4190  -28.8650   23.3720 O   0  0  0  0  0  0  0  0  0  0  0  0
  -20.9170  -29.8580   21.7540 H   0  0  0  0  0  0  0  0  0  0  0  0
  -18.0420  -28.0830   22.9490 C   0  0  0  0  0  0  0  0  0  0  0  0
  -20.6010  -28.3600   23.2090 C   0  0  0  0  0  3  0  0  0  0  0  0
  -20.7090  -26.9270   22.6350 C   0  0  0  0  0  2  0  0  0  0  0  0
  -19.6070  -26.5960   21.6250 C   0  0  0  0  0  2  0  0  0  0  0  0
  -18.2250  -26.7330   22.2720 C   0  0  0  0  0  2  0  0  0  0  0  0
  -19.1580  -28.8510   23.3740 C   0  0  0  0  0  0  0  0  0  0  0  0
  -18.9350  -30.1110   23.9710 C   0  0  0  0  0  3  0  0  0  0  0  0
  -17.6290  -30.6070   24.1390 C   0  0  0  0  0  3  0  0  0  0  0  0
  -16.5280  -29.8360   23.7300 C   0  0  0  0  0  3  0  0  0  0  0  0
  -16.7340  -28.5750   23.1420 C   0  0  0  0  0  3  0  0  0  0  0  0
  -25.8770  -32.5490   23.8420 C   0  0  0  0  0  3  0  0  0  0  0  0
  -25.5650  -33.9510   24.1610 N   0  0  0  0  0  0  0  0  0  0  0  0
  -25.8940  -34.9970   23.3910 C   0  0  0  0  0  0  0  0  0  0  0  0
  -26.5570  -34.8840   22.3570 O   0  0  0  0  0  0  0  0  0  0  0  0
  -24.9770  -34.1120   24.9660 H   0  0  0  0  0  0  0  0  0  0  0  0
  -24.1660  -36.7880   23.0230 C   0  0  0  0  0  1  0  0  0  0  0  0
  -25.4060  -36.3890   23.8390 C   0  0  0  0  0  3  0  0  0  0  0  0
  -27.5390  -37.2780   24.6660 C   0  0  0  0  0  1  0  0  0  0  0  0
  -26.4390  -37.4410   23.7200 N   0  0  0  0  0  0  0  0  0  0  0  0
  -26.0330  -38.3620   23.8650 H   0  0  0  0  0  0  0  0  0  0  0  0
  -26.3930  -31.7910   25.1270 C   0  0  1  0  0  0  0  0  0  0  0  0
  -25.2970  -31.5640   26.1950 C   0  0  0  0  0  1  0  0  0  0  0  0
  -26.9770  -30.4080   24.7520 C   0  0  0  0  0  1  0  0  0  0  0  0
  -27.5430  -32.5910   25.7840 C   0  0  0  0  0  1  0  0  0  0  0  0
  1  2  1  0
  1 50  1  0
  2  4  1  0
  3  1  2  0
  6 11  1  0
  7  8  1  0
  7  6  1  0
  9  8  1  0
  9 25  1  0
  9 10  1  0
 11  5  1  0
 11 10  1  0
 12  5  2  0
 14 17  1  0
 14 13  1  0
 15 14  2  0
 16  2  1  0
 16 13  2  0
 18 19  1  0
 18 15  1  0
 19 20  1  0
 20  5  1  0
 20 17  1  0
 21 15  1  0
 21 16  1  0
 22 23  2  0
 23 42  1  0
 24 23  1  0
 24 27  1  0
 25 22  1  0
 25 26  1  0
 26 24  2  0
 27 28  1  0
 28 29  2  0
 30 33  1  0
 30 29  1  0
 31 30  2  0
 32 31  1  0
 32 27  2  0
 33 34  1  0
 34 35  1  0
 35 36  2  0
 37 36  1  0
 37 41  1  0
 38 37  2  0
 39 34  2  0
 39 38  1  0
 40 39  1  0
 42 43  1  0
 43 46  1  0
 43 45  1  0
 44 42  2  0
 47 48  1  0
 47 22  1  0
 49 47  1  0
 51 53  1  0
 51 50  1  0
 52 63  2  0
 53 58  1  0
 54 62  1  0
 54 64  1  0
 55 61  1  0
 55 57  1  0
 56 62  1  0
 57 56  1  0
 58 57  2  0
 59 53  2  0
 60 59  1  0
 60 55  2  0
 61 54  1  0
 62 52  1  0
 64 66  2  0
 65 64  1  0
 67 65  1  0
 68 77  2  0
 68 73  1  0
 69 65  1  0
 69 73  1  0
 70 69  1  0
 71 72  1  0
 71 70  1  0
 72 68  1  0
 73 74  2  0
 74 75  1  0
 76 75  2  0
 77 76  1  0
 78 52  1  0
 78 79  1  0
 78 88  1  0
 79 82  1  0
 80 84  1  0
 80 79  1  0
 81 80  2  0
 84 83  1  0
 86 84  1  0
 86 87  1  0
 86 85  1  0
 88 91  1  1
 88 89  1  0
 90 88  1  0
M  ISO  4   5 100  20 100  50 101  51 101
M  END
>  <TORSDO>  (3) 
F 17

>  <SCORE>  (3) 
-15.012

>  <name>  (3) 
2

>  <ligand_id>  (3) 
2

>  <original_smiles>  (3) 
[H]c1c([H])c([H])c2c(c1[H])C([H])([H])C([H])([H])C([H])([H])C2([H])N([H])C(=O)C1([H])N(C(=O)C([H])(N([H])C(=O)C([H])(N([H])C([H])([H])[H])C([H])([H])[H])C(C([H])([H])[H])(C([H])([H])[H])C([H])([H])[H])C([H])([H])c2c([H])c(OC([H])([H])C(=O)N([H])c3sc4c(c3[H])C([H])([H])N(C(=O)N3C([H])([H])C([H])([H])C([H])([H])C([H])(n5nc(-c6c([H])c([H])c(Oc7c([H])c([H])c(F)c([H])c7F)c([H])c6[H])c(C(=O)N([H])[H])c5N([H])[H])C3([H])[H])C([H])([H])C4([H])[H])c([H])c([H])c2C1([H])[H]

>  <smiles>  (3) 
[H]c1c([H])c([H])c2c(c1[H])C([H])([H])C([H])([H])C([H])([H])C2([H])N([H])C(=O)C1([H])N(C(=O)C([H])(N([H])C(=O)C([H])(N([H])C([H])([H])[H])C([H])([H])[H])C(C([H])([H])[H])(C([H])([H])[H])C([H])([H])[H])C([H])([H])c2c([H])c(OC([H])([H])C(=O)N([H])c3sc4c(c3[H])C([H])([H])N(C(=O)N3C([H])([H])C([H])([H])C([H])([H])C([H])(n5nc(-c6c([H])c([H])c(Oc7c([H])c([H])c(F)c([H])c7F)c([H])c6[H])c(C(=O)N([H])[H])c5N([H])[H])C3([H])[H])C([H])([H])C4([H])[H])c([H])c([H])c2C1([H])[H]

$$$$
3:0:0
     RDKit          3D

 92101  0  0  1  0  0  0  0  0999 V2000
  -30.6220  -20.0360   19.8050 C   0  0  0  0  0  3  0  0  0  0  0  0
  -30.4380  -21.4580   19.8140 C   0  0  0  0  0  3  0  0  0  0  0  0
  -29.6490  -19.3520   20.4890 C   0  0  0  0  0  0  0  0  0  0  0  0
  -29.3230  -21.8740   20.5090 C   0  0  0  0  0  0  0  0  0  0  0  0
  -28.4890  -20.4770   21.1580 S   0  0  0  0  0  0  0  0  0  0  0  0
  -30.8540  -14.5210   19.9340 C   0  0  0  0  0  0  0  0  0  0  0  0
  -30.4490  -12.4210   18.6990 C   0  0  0  0  0  2  0  0  0  0  0  0
  -29.4030  -12.6930   17.5970 C   0  0  0  0  0  2  0  0  0  0  0  0
  -27.9680  -12.5400   18.1470 C   0  0  0  0  0  2  0  0  0  0  0  0
  -27.7570  -13.2960   19.4870 C   0  0  0  0  0  3  0  0  0  0  0  0
  -28.9070  -12.9810   20.4690 C   0  0  0  0  0  2  0  0  0  0  0  0
  -30.1710  -13.3450   19.8100 N   0  0  0  0  0  0  0  0  0  0  0  0
  -31.9240  -14.7160   19.3450 O   0  0  0  0  0  0  0  0  0  0  0  0
  -29.9310  -17.3350   22.0510 C   0  0  0  0  0  2  0  0  0  0  0  0
  -29.9100  -15.8150   21.8450 C   0  0  0  0  0  2  0  0  0  0  0  0
  -30.1540  -16.8920   19.7380 C   0  0  0  0  0  2  0  0  0  0  0  0
  -29.4640  -17.8670   20.7050 C   0  0  0  0  0  3  0  0  0  0  0  0
  -30.1420  -15.5770   20.4110 N   0  0  0  0  0  0  0  0  0  0  0  0
  -25.4360  -13.8790   20.4360 C   0  0  0  0  0  0  0  0  0  0  0  0
  -24.3980  -13.0950   20.8630 C   0  0  0  0  0  0  0  0  0  0  0  0
  -24.8420  -11.7440   20.7240 C   0  0  0  0  0  0  0  0  0  0  0  0
  -26.4480  -13.0050   20.0700 N   0  0  0  0  0  0  0  0  0  0  0  0
  -26.0980  -11.7140   20.2960 N   0  0  0  0  0  0  0  0  0  0  0  0
  -24.1260  -10.4780   20.9200 C   0  0  0  0  0  0  0  0  0  0  0  0
  -24.5710   -9.5140   21.8510 C   0  0  0  0  0  3  0  0  0  0  0  0
  -23.8570   -8.3100   22.0340 C   0  0  0  0  0  3  0  0  0  0  0  0
  -22.6820   -8.0630   21.2860 C   0  0  0  0  0  0  0  0  0  0  0  0
  -22.2550   -9.0160   20.3440 C   0  0  0  0  0  3  0  0  0  0  0  0
  -22.9700  -10.2100   20.1600 C   0  0  0  0  0  3  0  0  0  0  0  0
  -21.9360   -6.9130   21.3780 O   0  0  0  0  0  0  0  0  0  0  0  0
  -21.8080   -6.2310   22.5610 C   0  0  0  0  0  0  0  0  0  0  0  0
  -21.2760   -6.8400   23.7180 C   0  0  0  0  0  3  0  0  0  0  0  0
  -21.0980   -6.0830   24.8950 C   0  0  0  0  0  3  0  0  0  0  0  0
  -21.4410   -4.7180   24.9120 C   0  0  0  0  0  0  0  0  0  0  0  0
  -21.9650   -4.1090   23.7580 C   0  0  0  0  0  3  0  0  0  0  0  0
  -22.1450   -4.8630   22.5850 C   0  0  0  0  0  0  0  0  0  0  0  0
  -22.6300   -4.2650   21.4710 F   0  0  0  0  0  0  0  0  0  0  0  0
  -21.2630   -3.9890   26.0380 F   0  0  0  0  0  0  0  0  0  0  0  0
  -23.0370  -13.5650   21.2860 C   0  0  0  0  0  0  0  0  0  0  0  0
  -22.3890  -12.8370   22.1900 N   0  0  0  0  0  0  0  0  0  0  0  0
  -22.5590  -14.6120   20.8520 O   0  0  0  0  0  0  0  0  0  0  0  0
  -22.7910  -11.9900   22.5610 H   0  0  0  0  0  0  0  0  0  0  0  0
  -21.4780  -13.1340   22.5110 H   0  0  0  0  0  0  0  0  0  0  0  0
  -25.6010  -15.2560   20.3100 N   0  0  0  0  0  0  0  0  0  0  0  0
  -24.8620  -15.9170   20.5220 H   0  0  0  0  0  0  0  0  0  0  0  0
  -26.4350  -15.6970   19.9450 H   0  0  0  0  0  0  0  0  0  0  0  0
  -29.1710  -24.3200   20.2440 C   0  0  0  0  0  0  0  0  0  0  0  0
  -28.8390  -23.1230   20.7710 N   0  0  0  0  0  0  0  0  0  0  0  0
  -29.9750  -24.4640   19.3160 O   0  0  0  0  0  0  0  0  0  0  0  0
  -28.1130  -23.1620   21.4720 H   0  0  0  0  0  0  0  0  0  0  0  0
  -28.4670  -25.5430   20.8750 C   0  0  0  0  0  2  0  0  0  0  0  0
  -28.5150  -26.7130   20.0360 O   0  0  0  0  0  0  0  0  0  0  0  0
  -24.6890  -31.8500   23.1790 C   0  0  0  0  0  0  0  0  0  0  0  0
  -27.3550  -27.4540   20.0560 C   0  0  0  0  0  0  0  0  0  0  0  0
  -23.4830  -30.4420   21.5410 C   0  0  0  0  0  3  0  0  0  0  0  0
  -24.9420  -28.9240   20.0970 C   0  0  0  0  0  0  0  0  0  0  0  0
  -26.0030  -30.8300   21.3230 C   0  0  0  0  0  2  0  0  0  0  0  0
  -26.1000  -29.4630   20.6750 C   0  0  0  0  0  0  0  0  0  0  0  0
  -27.3120  -28.7360   20.6500 C   0  0  0  0  0  3  0  0  0  0  0  0
  -26.1850  -26.9270   19.4710 C   0  0  0  0  0  3  0  0  0  0  0  0
  -24.9790  -27.6560   19.4920 C   0  0  0  0  0  3  0  0  0  0  0  0
  -23.6880  -29.7680   20.1580 C   0  0  0  0  0  2  0  0  0  0  0  0
  -24.7440  -31.0550   22.0730 N   0  0  0  0  0  0  0  0  0  0  0  0
  -23.6090  -32.1090   23.7280 O   0  0  0  0  0  0  0  0  0  0  0  0
  -22.8500  -29.4110   22.5050 C   0  0  0  0  0  0  0  0  0  0  0  0
  -21.5260  -29.2180   22.3910 N   0  0  0  0  0  0  0  0  0  0  0  0
  -23.5490  -28.7870   23.3090 O   0  0  0  0  0  0  0  0  0  0  0  0
  -21.0250  -29.7760   21.7140 H   0  0  0  0  0  0  0  0  0  0  0  0
  -18.1650  -28.0040   22.9230 C   0  0  0  0  0  0  0  0  0  0  0  0
  -20.7250  -28.2690   23.1630 C   0  0  0  0  0  3  0  0  0  0  0  0
  -20.8240  -26.8450   22.5710 C   0  0  0  0  0  2  0  0  0  0  0  0
  -19.7100  -26.5270   21.5690 C   0  0  0  0  0  2  0  0  0  0  0  0
  -18.3370  -26.6620   22.2330 C   0  0  0  0  0  2  0  0  0  0  0  0
  -19.2870  -28.7650   23.3460 C   0  0  0  0  0  0  0  0  0  0  0  0
  -19.0720  -30.0230   23.9500 C   0  0  0  0  0  3  0  0  0  0  0  0
  -17.7680  -30.5180   24.1390 C   0  0  0  0  0  3  0  0  0  0  0  0
  -16.6610  -29.7530   23.7340 C   0  0  0  0  0  3  0  0  0  0  0  0
  -16.8600  -28.4990   23.1310 C   0  0  0  0  0  3  0  0  0  0  0  0
  -25.9740  -32.4900   23.7910 C   0  0  0  0  0  3  0  0  0  0  0  0
  -25.6500  -33.8780   24.1460 N   0  0  0  0  0  0  0  0  0  0  0  0
  -25.9540  -34.9470   23.3960 C   0  0  0  0  0  0  0  0  0  0  0  0
  -26.6100  -34.8680   22.3530 O   0  0  0  0  0  0  0  0  0  0  0  0
  -25.0630  -34.0130   24.9550 H   0  0  0  0  0  0  0  0  0  0  0  0
  -24.1930  -36.7160   23.0910 C   0  0  0  0  0  1  0  0  0  0  0  0
  -25.4520  -36.3200   23.8800 C   0  0  0  0  0  3  0  0  0  0  0  0
  -27.5860  -37.2260   24.6900 C   0  0  0  0  0  1  0  0  0  0  0  0
  -26.4660  -37.3910   23.7660 N   0  0  0  0  0  0  0  0  0  0  0  0
  -26.0490  -38.3020   23.9340 H   0  0  0  0  0  0  0  0  0  0  0  0
  -26.5220  -31.7080   25.0460 C   0  0  1  0  0  0  0  0  0  0  0  0
  -25.4500  -31.4360   26.1280 C   0  0  0  0  0  1  0  0  0  0  0  0
  -27.1210  -30.3460   24.6230 C   0  0  0  0  0  1  0  0  0  0  0  0
  -27.6700  -32.5100   25.7050 C   0  0  0  0  0  1  0  0  0  0  0  0
  1  2  1  0
  1  3  2  0
  2  4  2  0
  3  5  1  0
  4 48  1  0
  4  5  1  0
  6 18  1  0
  7 12  1  0
  8  9  1  0
  8  7  1  0
 10  9  1  0
 10 22  1  0
 10 11  1  0
 12  6  1  0
 12 11  1  0
 13  6  2  0
 15 14  1  0
 16 18  1  0
 16 17  1  0
 17  3  1  0
 17 14  1  0
 18 15  1  0
 19 20  2  0
 20 39  1  0
 21 20  1  0
 21 24  1  0
 22 23  1  0
 22 19  1  0
 23 21  2  0
 24 25  1  0
 25 26  2  0
 27 30  1  0
 27 26  1  0
 28 27  2  0
 29 28  1  0
 29 24  2  0
 30 31  1  0
 31 36  2  0
 31 32  1  0
 32 33  2  0
 33 34  1  0
 34 38  1  0
 35 34  2  0
 36 35  1  0
 37 36  1  0
 39 40  1  0
 40 43  1  0
 40 42  1  0
 41 39  2  0
 44 19  1  0
 44 45  1  0
 46 44  1  0
 47 48  1  0
 47 51  1  0
 48 50  1  0
 49 47  2  0
 52 54  1  0
 52 51  1  0
 53 64  2  0
 54 59  1  0
 55 63  1  0
 55 65  1  0
 56 62  1  0
 56 58  1  0
 57 63  1  0
 58 57  1  0
 59 58  2  0
 60 61  1  0
 60 54  2  0
 61 56  2  0
 62 55  1  0
 63 53  1  0
 65 67  2  0
 66 65  1  0
 68 66  1  0
 69 78  2  0
 69 74  1  0
 70 66  1  0
 70 74  1  0
 71 70  1  0
 72 73  1  0
 72 71  1  0
 73 69  1  0
 74 75  2  0
 75 76  1  0
 77 76  2  0
 78 77  1  0
 79 53  1  0
 79 80  1  0
 79 89  1  0
 80 83  1  0
 81 85  1  0
 81 80  1  0
 82 81  2  0
 85 84  1  0
 87 85  1  0
 87 88  1  0
 87 86  1  0
 89 92  1  1
 89 90  1  0
 91 89  1  0
M  ISO  4   6 100  18 100  51 101  52 101
M  END
>  <TORSDO>  (4) 
F 18

>  <SCORE>  (4) 
-13.401

>  <name>  (4) 
3

>  <ligand_id>  (4) 
3

>  <original_smiles>  (4) 
[H]c1c(N([H])C(=O)C([H])([H])Oc2c([H])c([H])c3c(c2[H])C([H])([H])N(C(=O)C([H])(N([H])C(=O)C([H])(N([H])C([H])([H])[H])C([H])([H])[H])C(C([H])([H])[H])(C([H])([H])[H])C([H])([H])[H])C([H])(C(=O)N([H])C2([H])c4c([H])c([H])c([H])c([H])c4C([H])([H])C([H])([H])C2([H])[H])C3([H])[H])sc(C2([H])C([H])([H])N(C(=O)N3C([H])([H])C([H])([H])C([H])([H])C([H])(n4nc(-c5c([H])c([H])c(Oc6c([H])c([H])c(F)c([H])c6F)c([H])c5[H])c(C(=O)N([H])[H])c4N([H])[H])C3([H])[H])C([H])([H])C2([H])[H])c1[H]

>  <smiles>  (4) 
[H]c1c(N([H])C(=O)C([H])([H])Oc2c([H])c([H])c3c(c2[H])C([H])([H])N(C(=O)C([H])(N([H])C(=O)C([H])(N([H])C([H])([H])[H])C([H])([H])[H])C(C([H])([H])[H])(C([H])([H])[H])C([H])([H])[H])C([H])(C(=O)N([H])C2([H])c4c([H])c([H])c([H])c([H])c4C([H])([H])C([H])([H])C2([H])[H])C3([H])[H])sc(C2([H])C([H])([H])N(C(=O)N3C([H])([H])C([H])([H])C([H])([H])C([H])(n4nc(-c5c([H])c([H])c(Oc6c([H])c([H])c(F)c([H])c6F)c([H])c5[H])c(C(=O)N([H])[H])c4N([H])[H])C3([H])[H])C([H])([H])C2([H])[H])c1[H]

$$$$
4:0:0
     RDKit          3D

 92101  0  0  1  0  0  0  0  0999 V2000
  -28.9420  -21.5540   19.8660 C   0  0  0  0  0  0  0  0  0  0  0  0
  -29.3260  -20.3940   20.4580 N   0  0  0  0  0  0  0  0  0  0  0  0
  -28.4090  -21.6190   18.7520 O   0  0  0  0  0  0  0  0  0  0  0  0
  -29.5730  -20.5110   21.4320 H   0  0  0  0  0  0  0  0  0  0  0  0
  -30.9100  -14.7600   20.9290 C   0  0  0  0  0  0  0  0  0  0  0  0
  -30.7020  -12.4150   20.2090 C   0  0  0  0  0  2  0  0  0  0  0  0
  -29.8470  -12.2950   18.9210 C   0  0  0  0  0  2  0  0  0  0  0  0
  -28.3590  -12.2310   19.2500 C   0  0  0  0  0  2  0  0  0  0  0  0
  -27.9130  -13.2890   20.2890 C   0  0  0  0  0  3  0  0  0  0  0  0
  -28.8710  -13.3720   21.5030 C   0  0  0  0  0  2  0  0  0  0  0  0
  -30.2290  -13.5750   20.9800 N   0  0  0  0  0  0  0  0  0  0  0  0
  -32.0760  -14.8490   21.3100 O   0  0  0  0  0  0  0  0  0  0  0  0
  -29.7210  -17.9310   20.5730 C   0  0  0  0  0  3  0  0  0  0  0  0
  -30.2010  -16.8870   19.7040 C   0  0  0  0  0  0  0  0  0  0  0  0
  -30.3980  -17.3060   18.4380 C   0  0  0  0  0  0  0  0  0  0  0  0
  -29.6170  -19.1650   19.9140 C   0  0  0  0  0  0  0  0  0  0  0  0
  -30.9550  -16.2980   17.5320 C   0  0  0  0  0  2  0  0  0  0  0  0
  -31.4520  -15.2910   18.5930 C   0  0  0  0  0  2  0  0  0  0  0  0
  -30.6080  -15.5020   19.8130 N   0  0  0  0  0  0  0  0  0  0  0  0
  -30.0790  -18.9910   18.2160 S   0  0  0  0  0  0  0  0  0  0  0  0
  -25.4650  -13.9150   20.7140 C   0  0  0  0  0  0  0  0  0  0  0  0
  -24.3650  -13.1460   20.9670 C   0  0  0  0  0  0  0  0  0  0  0  0
  -24.8350  -11.8000   21.0670 C   0  0  0  0  0  0  0  0  0  0  0  0
  -26.5340  -13.0390   20.6730 N   0  0  0  0  0  0  0  0  0  0  0  0
  -26.1530  -11.7710   20.9660 N   0  0  0  0  0  0  0  0  0  0  0  0
  -24.1080  -10.5330   21.2010 C   0  0  0  0  0  0  0  0  0  0  0  0
  -24.4700   -9.5790   22.1770 C   0  0  0  0  0  3  0  0  0  0  0  0
  -23.7430   -8.3770   22.3050 C   0  0  0  0  0  3  0  0  0  0  0  0
  -22.6420   -8.1190   21.4540 C   0  0  0  0  0  0  0  0  0  0  0  0
  -22.3070   -9.0570   20.4590 C   0  0  0  0  0  3  0  0  0  0  0  0
  -23.0350  -10.2530   20.3300 C   0  0  0  0  0  3  0  0  0  0  0  0
  -21.8890   -6.9730   21.4950 O   0  0  0  0  0  0  0  0  0  0  0  0
  -21.7540   -6.2410   22.6480 C   0  0  0  0  0  0  0  0  0  0  0  0
  -21.2220   -6.8050   23.8290 C   0  0  0  0  0  3  0  0  0  0  0  0
  -21.0360   -5.9990   24.9700 C   0  0  0  0  0  3  0  0  0  0  0  0
  -21.3710   -4.6330   24.9300 C   0  0  0  0  0  0  0  0  0  0  0  0
  -21.8980   -4.0710   23.7550 C   0  0  0  0  0  3  0  0  0  0  0  0
  -22.0850   -4.8720   22.6160 C   0  0  0  0  0  0  0  0  0  0  0  0
  -22.5720   -4.3220   21.4780 F   0  0  0  0  0  0  0  0  0  0  0  0
  -21.1840   -3.8560   26.0230 F   0  0  0  0  0  0  0  0  0  0  0  0
  -22.9390  -13.6070   21.0240 C   0  0  0  0  0  0  0  0  0  0  0  0
  -22.1270  -12.9430   21.8330 N   0  0  0  0  0  0  0  0  0  0  0  0
  -22.5590  -14.5900   20.3880 O   0  0  0  0  0  0  0  0  0  0  0  0
  -22.4660  -12.1500   22.3580 H   0  0  0  0  0  0  0  0  0  0  0  0
  -21.1610  -13.2240   21.9280 H   0  0  0  0  0  0  0  0  0  0  0  0
  -25.6520  -15.2770   20.4860 N   0  0  0  0  0  0  0  0  0  0  0  0
  -24.8820  -15.9360   20.4640 H   0  0  0  0  0  0  0  0  0  0  0  0
  -26.5480  -15.7090   20.2970 H   0  0  0  0  0  0  0  0  0  0  0  0
  -29.1480  -22.8310   20.7210 C   0  0  0  0  0  2  0  0  0  0  0  0
  -29.2220  -24.2520   20.0400 C   0  0  0  0  0  3  0  0  0  0  0  0
  -28.0140  -25.2080   20.2980 C   0  0  0  0  0  3  0  0  0  0  0  0
  -28.2210  -26.6270   19.9810 O   0  0  0  0  0  0  0  0  0  0  0  0
  -24.5730  -31.9180   23.2220 C   0  0  0  0  0  0  0  0  0  0  0  0
  -27.0920  -27.4430   20.0100 C   0  0  0  0  0  0  0  0  0  0  0  0
  -23.3240  -30.5480   21.5890 C   0  0  0  0  0  3  0  0  0  0  0  0
  -24.7320  -29.0270   20.1040 C   0  0  0  0  0  0  0  0  0  0  0  0
  -25.8540  -30.8760   21.3460 C   0  0  0  0  0  2  0  0  0  0  0  0
  -25.9160  -29.5110   20.6790 C   0  0  0  0  0  0  0  0  0  0  0  0
  -27.1000  -28.7260   20.6280 C   0  0  0  0  0  3  0  0  0  0  0  0
  -25.8840  -27.0060   19.4170 C   0  0  0  0  0  3  0  0  0  0  0  0
  -24.7150  -27.7750   19.4720 C   0  0  0  0  0  3  0  0  0  0  0  0
  -23.5010  -29.8960   20.1940 C   0  0  0  0  0  2  0  0  0  0  0  0
  -24.6040  -31.1300   22.1070 N   0  0  0  0  0  0  0  0  0  0  0  0
  -23.5040  -32.1900   23.7900 O   0  0  0  0  0  0  0  0  0  0  0  0
  -22.6890  -29.5150   22.5490 C   0  0  0  0  0  0  0  0  0  0  0  0
  -21.3660  -29.3190   22.4350 N   0  0  0  0  0  0  0  0  0  0  0  0
  -23.3860  -28.8930   23.3550 O   0  0  0  0  0  0  0  0  0  0  0  0
  -20.8730  -29.8730   21.7490 H   0  0  0  0  0  0  0  0  0  0  0  0
  -18.0210  -28.0410   22.9400 C   0  0  0  0  0  0  0  0  0  0  0  0
  -20.5700  -28.3680   23.2110 C   0  0  0  0  0  3  0  0  0  0  0  0
  -20.7110  -26.9310   22.6510 C   0  0  0  0  0  2  0  0  0  0  0  0
  -19.6250  -26.5780   21.6300 C   0  0  0  0  0  2  0  0  0  0  0  0
  -18.2380  -26.6900   22.2710 C   0  0  0  0  0  2  0  0  0  0  0  0
  -19.1190  -28.8350   23.3660 C   0  0  0  0  0  0  0  0  0  0  0  0
  -18.8640  -30.0980   23.9450 C   0  0  0  0  0  3  0  0  0  0  0  0
  -17.5440  -30.5650   24.1040 C   0  0  0  0  0  3  0  0  0  0  0  0
  -16.4610  -29.7690   23.6960 C   0  0  0  0  0  3  0  0  0  0  0  0
  -16.7000  -28.5090   23.1200 C   0  0  0  0  0  3  0  0  0  0  0  0
  -25.8720  -32.5380   23.8200 C   0  0  0  0  0  3  0  0  0  0  0  0
  -26.4120  -31.7590   25.0820 C   0  0  1  0  0  0  0  0  0  0  0  0
  -25.3440  -31.5250   26.1760 C   0  0  0  0  0  1  0  0  0  0  0  0
  -26.9740  -30.3770   24.6740 C   0  0  0  0  0  1  0  0  0  0  0  0
  -27.5840  -32.5430   25.7180 C   0  0  0  0  0  1  0  0  0  0  0  0
  -25.5820  -33.9400   24.1600 N   0  0  0  0  0  0  0  0  0  0  0  0
  -25.9200  -34.9910   23.4020 C   0  0  0  0  0  0  0  0  0  0  0  0
  -26.5840  -34.8860   22.3670 O   0  0  0  0  0  0  0  0  0  0  0  0
  -24.9950  -34.0980   24.9670 H   0  0  0  0  0  0  0  0  0  0  0  0
  -24.2220  -36.8120   23.0580 C   0  0  0  0  0  1  0  0  0  0  0  0
  -25.4540  -36.3840   23.8710 C   0  0  0  0  0  3  0  0  0  0  0  0
  -27.5980  -37.2330   24.7170 C   0  0  0  0  0  1  0  0  0  0  0  0
  -26.5030  -37.4200   23.7680 N   0  0  0  0  0  0  0  0  0  0  0  0
  -26.1090  -38.3440   23.9190 H   0  0  0  0  0  0  0  0  0  0  0  0
  1  2  1  0
  1 49  1  0
  2  4  1  0
  3  1  2  0
  5 11  1  0
  5 12  2  0
  6 11  1  0
  7  8  1  0
  7  6  1  0
  9  8  1  0
  9 24  1  0
  9 10  1  0
 11 10  1  0
 14 19  1  0
 14 13  1  0
 15 14  2  0
 16  2  1  0
 16 13  2  0
 17 15  1  0
 17 18  1  0
 18 19  1  0
 19  5  1  0
 20 15  1  0
 20 16  1  0
 21 22  2  0
 22 41  1  0
 22 23  1  0
 23 26  1  0
 24 21  1  0
 24 25  1  0
 25 23  2  0
 26 27  1  0
 27 28  2  0
 29 32  1  0
 29 28  1  0
 30 29  2  0
 31 30  1  0
 31 26  2  0
 32 33  1  0
 33 34  1  0
 34 35  2  0
 36 35  1  0
 36 40  1  0
 37 36  2  0
 38 33  2  0
 38 37  1  0
 39 38  1  0
 41 42  1  0
 42 45  1  0
 42 44  1  0
 43 41  2  0
 46 21  1  0
 47 46  1  0
 48 46  1  0
 50 51  2  0
 50 49  1  0
 52 54  1  0
 52 51  1  0
 53 64  2  0
 54 59  1  0
 55 63  1  0
 55 65  1  0
 56 62  1  0
 56 58  1  0
 57 63  1  0
 58 57  1  0
 59 58  2  0
 60 61  1  0
 60 54  2  0
 61 56  2  0
 62 55  1  0
 63 53  1  0
 65 67  2  0
 66 65  1  0
 68 66  1  0
 69 78  2  0
 69 74  1  0
 70 66  1  0
 70 74  1  0
 71 70  1  0
 72 73  1  0
 72 71  1  0
 73 69  1  0
 74 75  2  0
 75 76  1  0
 77 76  2  0
 78 77  1  0
 79 53  1  0
 79 84  1  0
 79 80  1  0
 80 83  1  1
 80 81  1  0
 82 80  1  0
 84 87  1  0
 85 89  1  0
 85 84  1  0
 86 85  2  0
 89 88  1  0
 91 89  1  0
 91 92  1  0
 91 90  1  0
M  ISO  4   5 100  19 100  51 101  52 101
M  END
>  <TORSDO>  (5) 
F 19

>  <SCORE>  (5) 
-13.292

>  <name>  (5) 
4

>  <ligand_id>  (5) 
4

>  <original_smiles>  (5) 
[H]c1c([H])c([H])c2c(c1[H])C([H])([H])C([H])([H])C([H])([H])C2([H])N([H])C(=O)C1([H])N(C(=O)C([H])(N([H])C(=O)C([H])(N([H])C([H])([H])[H])C([H])([H])[H])C(C([H])([H])[H])(C([H])([H])[H])C([H])([H])[H])C([H])([H])c2c([H])c(OC([H])([H])C([H])([H])C([H])([H])C(=O)N([H])c3sc4c(c3[H])N(C(=O)N3C([H])([H])C([H])([H])C([H])([H])C([H])(n5nc(-c6c([H])c([H])c(Oc7c([H])c([H])c(F)c([H])c7F)c([H])c6[H])c(C(=O)N([H])[H])c5N([H])[H])C3([H])[H])C([H])([H])C4([H])[H])c([H])c([H])c2C1([H])[H]

>  <smiles>  (5) 
[H]c1c([H])c([H])c2c(c1[H])C([H])([H])C([H])([H])C([H])([H])C2([H])N([H])C(=O)C1([H])N(C(=O)C([H])(N([H])C(=O)C([H])(N([H])C([H])([H])[H])C([H])([H])[H])C(C([H])([H])[H])(C([H])([H])[H])C([H])([H])[H])C([H])([H])c2c([H])c(OC([H])([H])C([H])([H])C([H])([H])C(=O)N([H])c3sc4c(c3[H])N(C(=O)N3C([H])([H])C([H])([H])C([H])([H])C([H])(n5nc(-c6c([H])c([H])c(Oc7c([H])c([H])c(F)c([H])c7F)c([H])c6[H])c(C(=O)N([H])[H])c5N([H])[H])C3([H])[H])C([H])([H])C4([H])[H])c([H])c([H])c2C1([H])[H]

$$$$
5:0:0
     RDKit          3D

 93102  0  0  1  0  0  0  0  0999 V2000
  -28.3650  -23.6260   20.5130 C   0  0  0  0  0  0  0  0  0  0  0  0
  -31.8310  -21.7090   19.5330 C   0  0  0  0  0  2  0  0  0  0  0  0
  -31.6400  -22.6930   20.7090 C   0  0  0  0  0  2  0  0  0  0  0  0
  -30.5610  -21.5620   18.6640 C   0  0  0  0  0  2  0  0  0  0  0  0
  -30.3030  -22.4650   21.4450 C   0  0  0  0  0  2  0  0  0  0  0  0
  -29.3230  -21.2620   19.5400 C   0  0  0  0  0  3  0  0  0  0  0  0
  -29.2120  -22.4980   20.4680 N   0  0  0  0  0  0  0  0  0  0  0  0
  -27.5310  -23.6800   21.4230 O   0  0  0  0  0  0  0  0  0  0  0  0
  -30.0140  -18.5180   19.6370 C   0  0  0  0  0  3  0  0  0  0  0  0
  -28.7040  -18.0130   21.3360 C   0  0  0  0  0  3  0  0  0  0  0  0
  -29.5570  -17.3920   20.4560 C   0  0  0  0  0  0  0  0  0  0  0  0
  -29.4050  -19.7290   20.0630 C   0  0  0  0  0  0  0  0  0  0  0  0
  -28.6080  -19.3790   21.1220 O   0  0  0  0  0  0  0  0  0  0  0  0
  -30.5340  -14.8630   19.9770 C   0  0  0  0  0  0  0  0  0  0  0  0
  -30.3890  -12.5690   18.9390 C   0  0  0  0  0  2  0  0  0  0  0  0
  -29.3760  -12.6350   17.7720 C   0  0  0  0  0  2  0  0  0  0  0  0
  -27.9320  -12.4300   18.2770 C   0  0  0  0  0  2  0  0  0  0  0  0
  -27.6200  -13.2880   19.5310 C   0  0  0  0  0  3  0  0  0  0  0  0
  -28.7390  -13.1670   20.5870 C   0  0  0  0  0  2  0  0  0  0  0  0
  -29.9920  -13.5890   19.9430 N   0  0  0  0  0  0  0  0  0  0  0  0
  -31.6680  -15.0500   19.5190 O   0  0  0  0  0  0  0  0  0  0  0  0
  -29.6940  -15.8850   20.4380 N   0  0  0  0  0  0  0  0  0  0  0  0
  -28.9150  -15.4440   20.9050 H   0  0  0  0  0  0  0  0  0  0  0  0
  -25.2780  -13.8690   20.4020 C   0  0  0  0  0  0  0  0  0  0  0  0
  -24.2330  -13.0890   20.8150 C   0  0  0  0  0  0  0  0  0  0  0  0
  -24.6910  -11.7380   20.7300 C   0  0  0  0  0  0  0  0  0  0  0  0
  -26.3040  -12.9920   20.0870 N   0  0  0  0  0  0  0  0  0  0  0  0
  -25.9620  -11.7040   20.3470 N   0  0  0  0  0  0  0  0  0  0  0  0
  -23.9760  -10.4730   20.9380 C   0  0  0  0  0  0  0  0  0  0  0  0
  -24.4340   -9.5050   21.8600 C   0  0  0  0  0  3  0  0  0  0  0  0
  -23.7160   -8.3060   22.0550 C   0  0  0  0  0  3  0  0  0  0  0  0
  -22.5260   -8.0650   21.3280 C   0  0  0  0  0  0  0  0  0  0  0  0
  -22.0880   -9.0190   20.3940 C   0  0  0  0  0  3  0  0  0  0  0  0
  -22.8050  -10.2110   20.1970 C   0  0  0  0  0  3  0  0  0  0  0  0
  -21.7780   -6.9150   21.4330 O   0  0  0  0  0  0  0  0  0  0  0  0
  -21.7250   -6.1980   22.6010 C   0  0  0  0  0  0  0  0  0  0  0  0
  -21.2950   -6.7780   23.8140 C   0  0  0  0  0  3  0  0  0  0  0  0
  -21.1870   -5.9860   24.9740 C   0  0  0  0  0  3  0  0  0  0  0  0
  -21.4990   -4.6130   24.9220 C   0  0  0  0  0  0  0  0  0  0  0  0
  -21.9210   -4.0320   23.7130 C   0  0  0  0  0  3  0  0  0  0  0  0
  -22.0300   -4.8230   22.5550 C   0  0  0  0  0  0  0  0  0  0  0  0
  -22.4170   -4.2530   21.3890 F   0  0  0  0  0  0  0  0  0  0  0  0
  -21.3870   -3.8500   26.0330 F   0  0  0  0  0  0  0  0  0  0  0  0
  -22.8560  -13.5610   21.1780 C   0  0  0  0  0  0  0  0  0  0  0  0
  -22.1830  -12.8480   22.0760 N   0  0  0  0  0  0  0  0  0  0  0  0
  -22.3870  -14.5940   20.7040 O   0  0  0  0  0  0  0  0  0  0  0  0
  -22.5790  -12.0120   22.4780 H   0  0  0  0  0  0  0  0  0  0  0  0
  -21.2620  -13.1420   22.3650 H   0  0  0  0  0  0  0  0  0  0  0  0
  -25.4350  -15.2430   20.2460 N   0  0  0  0  0  0  0  0  0  0  0  0
  -24.6700  -15.8910   20.4020 H   0  0  0  0  0  0  0  0  0  0  0  0
  -26.2600  -15.6930   19.8680 H   0  0  0  0  0  0  0  0  0  0  0  0
  -28.4720  -24.9560   19.5900 C   0  0  0  0  0  2  0  0  0  0  0  0
  -28.3470  -26.3480   20.2200 O   0  0  0  0  0  0  0  0  0  0  0  0
  -24.6410  -31.8690   23.2090 C   0  0  0  0  0  0  0  0  0  0  0  0
  -27.2290  -27.2300   20.1370 C   0  0  0  0  0  0  0  0  0  0  0  0
  -23.4280  -30.4700   21.5780 C   0  0  0  0  0  3  0  0  0  0  0  0
  -24.8700  -28.9060   20.1390 C   0  0  0  0  0  0  0  0  0  0  0  0
  -25.9730  -30.7630   21.3870 C   0  0  0  0  0  2  0  0  0  0  0  0
  -26.0470  -29.3760   20.7340 C   0  0  0  0  0  0  0  0  0  0  0  0
  -27.2210  -28.5520   20.7210 C   0  0  0  0  0  3  0  0  0  0  0  0
  -26.0200  -26.8320   19.5190 C   0  0  0  0  0  3  0  0  0  0  0  0
  -24.8650  -27.6460   19.5210 C   0  0  0  0  0  3  0  0  0  0  0  0
  -23.6390  -29.7920   20.1970 C   0  0  0  0  0  2  0  0  0  0  0  0
  -24.6990  -31.0540   22.1130 N   0  0  0  0  0  0  0  0  0  0  0  0
  -23.5610  -32.1470   23.7510 O   0  0  0  0  0  0  0  0  0  0  0  0
  -22.7680  -29.4550   22.5450 C   0  0  0  0  0  0  0  0  0  0  0  0
  -21.4390  -29.2820   22.4350 N   0  0  0  0  0  0  0  0  0  0  0  0
  -23.4520  -28.8300   23.3600 O   0  0  0  0  0  0  0  0  0  0  0  0
  -20.9470  -29.8400   21.7520 H   0  0  0  0  0  0  0  0  0  0  0  0
  -18.0680  -28.0710   22.9600 C   0  0  0  0  0  0  0  0  0  0  0  0
  -20.6280  -28.3430   23.2130 C   0  0  0  0  0  3  0  0  0  0  0  0
  -20.7330  -26.9100   22.6440 C   0  0  0  0  0  2  0  0  0  0  0  0
  -19.6270  -26.5780   21.6360 C   0  0  0  0  0  2  0  0  0  0  0  0
  -18.2460  -26.7190   22.2860 C   0  0  0  0  0  2  0  0  0  0  0  0
  -19.1870  -28.8380   23.3820 C   0  0  0  0  0  0  0  0  0  0  0  0
  -18.9680  -30.1000   23.9740 C   0  0  0  0  0  3  0  0  0  0  0  0
  -17.6620  -30.5970   24.1470 C   0  0  0  0  0  3  0  0  0  0  0  0
  -16.5580  -29.8270   23.7430 C   0  0  0  0  0  3  0  0  0  0  0  0
  -16.7610  -28.5650   23.1540 C   0  0  0  0  0  3  0  0  0  0  0  0
  -25.9260  -32.5050   23.8210 C   0  0  0  0  0  3  0  0  0  0  0  0
  -25.6140  -33.9030   24.1600 N   0  0  0  0  0  0  0  0  0  0  0  0
  -25.9350  -34.9620   23.4060 C   0  0  0  0  0  0  0  0  0  0  0  0
  -26.5910  -34.8670   22.3650 O   0  0  0  0  0  0  0  0  0  0  0  0
  -25.0330  -34.0530   24.9720 H   0  0  0  0  0  0  0  0  0  0  0  0
  -24.1950  -36.7510   23.0940 C   0  0  0  0  0  1  0  0  0  0  0  0
  -25.4500  -36.3450   23.8810 C   0  0  0  0  0  3  0  0  0  0  0  0
  -27.5950  -37.2320   24.6800 C   0  0  0  0  0  1  0  0  0  0  0  0
  -26.4740  -37.4060   23.7590 N   0  0  0  0  0  0  0  0  0  0  0  0
  -26.0660  -38.3200   23.9280 H   0  0  0  0  0  0  0  0  0  0  0  0
  -26.4550  -31.7350   25.0950 C   0  0  1  0  0  0  0  0  0  0  0  0
  -25.3700  -31.5000   26.1730 C   0  0  0  0  0  1  0  0  0  0  0  0
  -27.0380  -30.3580   24.7010 C   0  0  0  0  0  1  0  0  0  0  0  0
  -27.6100  -32.5340   25.7460 C   0  0  0  0  0  1  0  0  0  0  0  0
  1  8  2  0
  2  3  1  0
  3  5  1  0
  4  2  1  0
  4  6  1  0
  6 12  1  0
  6  7  1  0
  7  1  1  0
  7  5  1  0
  9 12  2  0
  9 11  1  0
 11 10  2  0
 12 13  1  0
 13 10  1  0
 14 22  1  0
 15 20  1  0
 16 17  1  0
 16 15  1  0
 18 17  1  0
 18 27  1  0
 18 19  1  0
 20 14  1  0
 20 19  1  0
 21 14  2  0
 22 11  1  0
 22 23  1  0
 24 25  2  0
 25 44  1  0
 26 25  1  0
 26 29  1  0
 27 28  1  0
 27 24  1  0
 28 26  2  0
 29 30  1  0
 30 31  2  0
 32 35  1  0
 32 31  1  0
 33 32  2  0
 34 33  1  0
 34 29  2  0
 35 36  1  0
 36 37  1  0
 37 38  2  0
 39 38  1  0
 39 43  1  0
 40 39  2  0
 41 36  2  0
 41 40  1  0
 42 41  1  0
 44 45  1  0
 45 48  1  0
 45 47  1  0
 46 44  2  0
 49 50  1  0
 49 24  1  0
 51 49  1  0
 52 53  1  0
 52  1  1  0
 54 65  2  0
 55 53  1  0
 55 60  1  0
 56 64  1  0
 56 66  1  0
 57 63  1  0
 57 59  1  0
 58 64  1  0
 59 58  1  0
 60 59  2  0
 61 62  1  0
 61 55  2  0
 62 57  2  0
 63 56  1  0
 64 54  1  0
 66 68  2  0
 67 66  1  0
 69 67  1  0
 70 79  2  0
 70 75  1  0
 71 67  1  0
 71 75  1  0
 72 71  1  0
 73 74  1  0
 73 72  1  0
 74 70  1  0
 75 76  2  0
 76 77  1  0
 78 77  2  0
 79 78  1  0
 80 54  1  0
 80 81  1  0
 80 90  1  0
 81 84  1  0
 82 86  1  0
 82 81  1  0
 83 82  2  0
 86 85  1  0
 88 86  1  0
 88 89  1  0
 88 87  1  0
 90 93  1  1
 90 91  1  0
 92 90  1  0
M  ISO  4  14 100  22 100  52 101  53 101
M  END
>  <TORSDO>  (6) 
F 18

>  <SCORE>  (6) 
-13.652

>  <name>  (6) 
5

>  <ligand_id>  (6) 
5

>  <original_smiles>  (6) 
[H]c1oc(C2([H])N(C(=O)C([H])([H])Oc3c([H])c([H])c4c(c3[H])C([H])([H])N(C(=O)C([H])(N([H])C(=O)C([H])(N([H])C([H])([H])[H])C([H])([H])[H])C(C([H])([H])[H])(C([H])([H])[H])C([H])([H])[H])C([H])(C(=O)N([H])C3([H])c5c([H])c([H])c([H])c([H])c5C([H])([H])C([H])([H])C3([H])[H])C4([H])[H])C([H])([H])C([H])([H])C([H])([H])C2([H])[H])c([H])c1N([H])C(=O)N1C([H])([H])C([H])([H])C([H])([H])C([H])(n2nc(-c3c([H])c([H])c(Oc4c([H])c([H])c(F)c([H])c4F)c([H])c3[H])c(C(=O)N([H])[H])c2N([H])[H])C1([H])[H]

>  <smiles>  (6) 
[H]c1oc(C2([H])N(C(=O)C([H])([H])Oc3c([H])c([H])c4c(c3[H])C([H])([H])N(C(=O)C([H])(N([H])C(=O)C([H])(N([H])C([H])([H])[H])C([H])([H])[H])C(C([H])([H])[H])(C([H])([H])[H])C([H])([H])[H])C([H])(C(=O)N([H])C3([H])c5c([H])c([H])c([H])c([H])c5C([H])([H])C([H])([H])C3([H])[H])C4([H])[H])C([H])([H])C([H])([H])C([H])([H])C2([H])[H])c([H])c1N([H])C(=O)N1C([H])([H])C([H])([H])C([H])([H])C([H])(n2nc(-c3c([H])c([H])c(Oc4c([H])c([H])c(F)c([H])c4F)c([H])c3[H])c(C(=O)N([H])[H])c2N([H])[H])C1([H])[H]

$$$$
6:0:0
     RDKit          3D

 91 99  0  0  1  0  0  0  0  0999 V2000
  -29.0650  -22.4540   20.6690 N   0  0  0  0  0  0  0  0  0  0  0  0
  -29.6910  -22.7010   21.4320 H   0  0  0  0  0  0  0  0  0  0  0  0
  -29.8210  -19.9740   20.7560 C   0  0  0  0  0  3  0  0  0  0  0  0
  -28.4360  -18.6940   19.4210 C   0  0  0  0  0  3  0  0  0  0  0  0
  -29.5280  -18.6150   20.2540 C   0  0  0  0  0  0  0  0  0  0  0  0
  -29.0150  -21.0390   20.3140 C   0  0  0  0  0  0  0  0  0  0  0  0
  -27.8180  -20.3490   19.2360 S   0  0  0  0  0  0  0  0  0  0  0  0
  -30.6520  -14.8290   20.3230 C   0  0  0  0  0  0  0  0  0  0  0  0
  -30.4310  -12.5360   19.3430 C   0  0  0  0  0  2  0  0  0  0  0  0
  -29.5070  -12.5780   18.1100 C   0  0  0  0  0  2  0  0  0  0  0  0
  -28.0340  -12.4070   18.5320 C   0  0  0  0  0  2  0  0  0  0  0  0
  -27.6450  -13.3070   19.7360 C   0  0  0  0  0  3  0  0  0  0  0  0
  -28.7010  -13.2700   20.8610 C   0  0  0  0  0  2  0  0  0  0  0  0
  -29.9890  -13.6210   20.2530 N   0  0  0  0  0  0  0  0  0  0  0  0
  -31.8620  -14.8310   20.0790 O   0  0  0  0  0  0  0  0  0  0  0  0
  -30.4090  -17.3270   20.4870 C   0  0  0  0  0  0  0  0  0  0  0  0
  -29.9230  -16.0220   20.4110 N   0  0  0  0  0  0  0  0  0  0  0  0
  -31.5930  -17.5400   20.7680 O   0  0  0  0  0  0  0  0  0  0  0  0
  -28.9230  -15.9370   20.3700 H   0  0  0  0  0  0  0  0  0  0  0  0
  -25.2520  -13.8790   20.4540 C   0  0  0  0  0  0  0  0  0  0  0  0
  -24.1910  -13.0990   20.8210 C   0  0  0  0  0  0  0  0  0  0  0  0
  -24.6660  -11.7520   20.8080 C   0  0  0  0  0  0  0  0  0  0  0  0
  -26.3040  -13.0070   20.2290 N   0  0  0  0  0  0  0  0  0  0  0  0
  -25.9590  -11.7230   20.5070 N   0  0  0  0  0  0  0  0  0  0  0  0
  -23.9460  -10.4850   21.0030 C   0  0  0  0  0  0  0  0  0  0  0  0
  -24.3760   -9.5310   21.9500 C   0  0  0  0  0  3  0  0  0  0  0  0
  -23.6550   -8.3300   22.1340 C   0  0  0  0  0  3  0  0  0  0  0  0
  -22.4920   -8.0770   21.3700 C   0  0  0  0  0  0  0  0  0  0  0  0
  -22.0810   -9.0210   20.4110 C   0  0  0  0  0  3  0  0  0  0  0  0
  -22.8020  -10.2120   20.2250 C   0  0  0  0  0  3  0  0  0  0  0  0
  -21.7430   -6.9270   21.4620 O   0  0  0  0  0  0  0  0  0  0  0  0
  -21.6850   -6.1980   22.6220 C   0  0  0  0  0  0  0  0  0  0  0  0
  -21.2320   -6.7620   23.8350 C   0  0  0  0  0  3  0  0  0  0  0  0
  -21.1210   -5.9580   24.9880 C   0  0  0  0  0  3  0  0  0  0  0  0
  -21.4520   -4.5920   24.9270 C   0  0  0  0  0  0  0  0  0  0  0  0
  -21.8990   -4.0270   23.7190 C   0  0  0  0  0  3  0  0  0  0  0  0
  -22.0110   -4.8280   22.5700 C   0  0  0  0  0  0  0  0  0  0  0  0
  -22.4210   -4.2740   21.4030 F   0  0  0  0  0  0  0  0  0  0  0  0
  -21.3390   -3.8170   26.0310 F   0  0  0  0  0  0  0  0  0  0  0  0
  -22.7870  -13.5690   21.0740 C   0  0  0  0  0  0  0  0  0  0  0  0
  -22.0530  -12.8760   21.9370 N   0  0  0  0  0  0  0  0  0  0  0  0
  -22.3480  -14.5870   20.5390 O   0  0  0  0  0  0  0  0  0  0  0  0
  -22.4210  -12.0530   22.3930 H   0  0  0  0  0  0  0  0  0  0  0  0
  -21.1110  -13.1720   22.1460 H   0  0  0  0  0  0  0  0  0  0  0  0
  -25.4040  -15.2500   20.2690 N   0  0  0  0  0  0  0  0  0  0  0  0
  -24.6290  -15.8940   20.3840 H   0  0  0  0  0  0  0  0  0  0  0  0
  -26.2460  -15.7020   19.9440 H   0  0  0  0  0  0  0  0  0  0  0  0
  -28.4830  -23.6680   19.9490 C   0  0  0  0  0  2  0  0  0  0  0  0
  -27.4300  -24.9610   21.9650 C   0  0  0  0  0  1  0  0  0  0  0  0
  -28.4090  -25.0720   20.7840 C   0  0  0  0  0  3  0  0  0  0  0  0
  -28.3690  -26.4560   20.1740 O   0  0  0  0  0  0  0  0  0  0  0  0
  -24.6020  -31.8800   23.2400 C   0  0  0  0  0  0  0  0  0  0  0  0
  -27.2360  -27.3000   20.1960 C   0  0  0  0  0  0  0  0  0  0  0  0
  -23.4060  -30.4760   21.5980 C   0  0  0  0  0  3  0  0  0  0  0  0
  -24.8660  -28.9210   20.1760 C   0  0  0  0  0  0  0  0  0  0  0  0
  -25.9450  -30.8010   21.4140 C   0  0  0  0  0  2  0  0  0  0  0  0
  -26.0340  -29.4170   20.7690 C   0  0  0  0  0  0  0  0  0  0  0  0
  -27.2240  -28.6210   20.7590 C   0  0  0  0  0  3  0  0  0  0  0  0
  -26.0450  -26.8610   19.5840 C   0  0  0  0  0  3  0  0  0  0  0  0
  -24.8760  -27.6520   19.5720 C   0  0  0  0  0  3  0  0  0  0  0  0
  -23.6250  -29.7950   20.2200 C   0  0  0  0  0  2  0  0  0  0  0  0
  -24.6700  -31.0730   22.1410 N   0  0  0  0  0  0  0  0  0  0  0  0
  -23.5170  -32.1520   23.7750 O   0  0  0  0  0  0  0  0  0  0  0  0
  -22.7450  -29.4600   22.5620 C   0  0  0  0  0  0  0  0  0  0  0  0
  -21.4180  -29.2830   22.4420 N   0  0  0  0  0  0  0  0  0  0  0  0
  -23.4270  -28.8330   23.3760 O   0  0  0  0  0  0  0  0  0  0  0  0
  -20.9250  -29.8440   21.7600 H   0  0  0  0  0  0  0  0  0  0  0  0
  -18.0440  -28.0820   22.9580 C   0  0  0  0  0  0  0  0  0  0  0  0
  -20.6040  -28.3410   23.2120 C   0  0  0  0  0  3  0  0  0  0  0  0
  -20.7020  -26.9120   22.6270 C   0  0  0  0  0  2  0  0  0  0  0  0
  -19.5940  -26.5960   21.6190 C   0  0  0  0  0  2  0  0  0  0  0  0
  -18.2150  -26.7370   22.2730 C   0  0  0  0  0  2  0  0  0  0  0  0
  -19.1660  -28.8420   23.3850 C   0  0  0  0  0  0  0  0  0  0  0  0
  -18.9500  -30.1010   23.9860 C   0  0  0  0  0  3  0  0  0  0  0  0
  -17.6470  -30.6010   24.1660 C   0  0  0  0  0  3  0  0  0  0  0  0
  -16.5400  -29.8390   23.7550 C   0  0  0  0  0  3  0  0  0  0  0  0
  -16.7390  -28.5810   23.1570 C   0  0  0  0  0  3  0  0  0  0  0  0
  -25.8800  -32.5210   23.8650 C   0  0  0  0  0  3  0  0  0  0  0  0
  -26.3930  -31.7590   25.1490 C   0  0  1  0  0  0  0  0  0  0  0  0
  -25.2970  -31.5260   26.2140 C   0  0  0  0  0  1  0  0  0  0  0  0
  -26.9810  -30.3800   24.7680 C   0  0  0  0  0  1  0  0  0  0  0  0
  -27.5380  -32.5610   25.8100 C   0  0  0  0  0  1  0  0  0  0  0  0
  -25.5630  -33.9210   24.1880 N   0  0  0  0  0  0  0  0  0  0  0  0
  -25.8960  -34.9720   23.4280 C   0  0  0  0  0  0  0  0  0  0  0  0
  -26.5680  -34.8670   22.3990 O   0  0  0  0  0  0  0  0  0  0  0  0
  -24.9660  -34.0770   24.9860 H   0  0  0  0  0  0  0  0  0  0  0  0
  -24.1670  -36.7660   23.0680 C   0  0  0  0  0  1  0  0  0  0  0  0
  -25.4070  -36.3630   23.8810 C   0  0  0  0  0  3  0  0  0  0  0  0
  -27.5400  -37.2560   24.7110 C   0  0  0  0  0  1  0  0  0  0  0  0
  -26.4400  -37.4170   23.7650 N   0  0  0  0  0  0  0  0  0  0  0  0
  -26.0310  -38.3370   23.9080 H   0  0  0  0  0  0  0  0  0  0  0  0
  1  2  1  0
  4  5  2  0
  5 16  1  0
  5  3  1  0
  6  1  1  0
  6  3  2  0
  7  4  1  0
  7  6  1  0
  8 17  1  0
  9 14  1  0
 10 11  1  0
 10  9  1  0
 12 11  1  0
 12 23  1  0
 12 13  1  0
 14  8  1  0
 14 13  1  0
 15  8  2  0
 16 18  2  0
 17 16  1  0
 19 17  1  0
 20 21  2  0
 21 40  1  0
 22 21  1  0
 22 25  1  0
 23 20  1  0
 23 24  1  0
 24 22  2  0
 25 26  1  0
 26 27  2  0
 28 31  1  0
 28 27  1  0
 29 28  2  0
 30 29  1  0
 30 25  2  0
 31 32  1  0
 32 33  1  0
 33 34  2  0
 35 34  1  0
 35 39  1  0
 36 35  2  0
 37 32  2  0
 37 36  1  0
 38 37  1  0
 40 41  1  0
 41 44  1  0
 41 43  1  0
 42 40  2  0
 45 46  1  0
 45 20  1  0
 47 45  1  0
 48  1  1  0
 48 50  1  0
 50 49  1  0
 51 53  1  0
 51 50  1  0
 52 63  2  0
 53 58  1  0
 54 62  1  0
 54 64  1  0
 55 61  1  0
 55 57  1  0
 56 62  1  0
 57 56  1  0
 58 57  2  0
 59 53  2  0
 60 59  1  0
 60 55  2  0
 61 54  1  0
 62 52  1  0
 64 66  2  0
 65 64  1  0
 67 65  1  0
 68 77  2  0
 68 73  1  0
 69 65  1  0
 69 73  1  0
 70 69  1  0
 71 72  1  0
 71 70  1  0
 72 68  1  0
 73 74  2  0
 74 75  1  0
 76 75  2  0
 77 76  1  0
 78 52  1  0
 78 83  1  0
 78 79  1  0
 79 82  1  1
 79 80  1  0
 81 79  1  0
 83 86  1  0
 84 88  1  0
 84 83  1  0
 85 84  2  0
 88 87  1  0
 90 88  1  0
 90 91  1  0
 90 89  1  0
M  ISO  4   8 100  17 100  50 101  51 101
M  END
>  <TORSDO>  (7) 
F 19

>  <SCORE>  (7) 
-14.324

>  <name>  (7) 
6

>  <ligand_id>  (7) 
6

>  <original_smiles>  (7) 
[H]c1sc(N([H])C([H])([H])C([H])(Oc2c([H])c([H])c3c(c2[H])C([H])([H])N(C(=O)C([H])(N([H])C(=O)C([H])(N([H])C([H])([H])[H])C([H])([H])[H])C(C([H])([H])[H])(C([H])([H])[H])C([H])([H])[H])C([H])(C(=O)N([H])C2([H])c4c([H])c([H])c([H])c([H])c4C([H])([H])C([H])([H])C2([H])[H])C3([H])[H])C([H])([H])[H])c([H])c1C(=O)N([H])C(=O)N1C([H])([H])C([H])([H])C([H])([H])C([H])(n2nc(-c3c([H])c([H])c(Oc4c([H])c([H])c(F)c([H])c4F)c([H])c3[H])c(C(=O)N([H])[H])c2N([H])[H])C1([H])[H]

>  <smiles>  (7) 
[H]c1sc(N([H])C([H])([H])C([H])(Oc2c([H])c([H])c3c(c2[H])C([H])([H])N(C(=O)C([H])(N([H])C(=O)C([H])(N([H])C([H])([H])[H])C([H])([H])[H])C(C([H])([H])[H])(C([H])([H])[H])C([H])([H])[H])C([H])(C(=O)N([H])C2([H])c4c([H])c([H])c([H])c([H])c4C([H])([H])C([H])([H])C2([H])[H])C3([H])[H])C([H])([H])[H])c([H])c1C(=O)N([H])C(=O)N1C([H])([H])C([H])([H])C([H])([H])C([H])(n2nc(-c3c([H])c([H])c(Oc4c([H])c([H])c(F)c([H])c4F)c([H])c3[H])c(C(=O)N([H])[H])c2N([H])[H])C1([H])[H]

$$$$
7:0:0
     RDKit          3D

 92101  0  0  1  0  0  0  0  0999 V2000
  -29.4590  -20.5940   21.4570 C   0  0  0  0  0  3  0  0  0  0  0  0
  -29.6180  -19.4820   20.6530 C   0  0  0  0  0  0  0  0  0  0  0  0
  -29.4490  -21.7090   20.5530 C   0  0  0  0  0  0  0  0  0  0  0  0
  -29.1240  -24.2040   20.2110 C   0  0  0  0  0  0  0  0  0  0  0  0
  -29.6560  -21.3050   19.3060 N   0  0  0  0  0  0  0  0  0  0  0  0
  -29.1560  -23.0610   20.9510 N   0  0  0  0  0  0  0  0  0  0  0  0
  -29.5960  -24.2890   19.0710 O   0  0  0  0  0  0  0  0  0  0  0  0
  -29.7370  -19.9050   19.3620 O   0  0  0  0  0  0  0  0  0  0  0  0
  -28.8530  -23.1610   21.9080 H   0  0  0  0  0  0  0  0  0  0  0  0
  -30.9030  -14.6190   19.8740 C   0  0  0  0  0  0  0  0  0  0  0  0
  -30.4960  -12.5110   18.6240 C   0  0  0  0  0  2  0  0  0  0  0  0
  -29.4200  -12.7210   17.5360 C   0  0  0  0  0  2  0  0  0  0  0  0
  -28.0050  -12.5360   18.1180 C   0  0  0  0  0  2  0  0  0  0  0  0
  -27.8010  -13.3250   19.4370 C   0  0  0  0  0  3  0  0  0  0  0  0
  -28.9680  -13.0610   20.4140 C   0  0  0  0  0  2  0  0  0  0  0  0
  -30.2140  -13.4440   19.7330 N   0  0  0  0  0  0  0  0  0  0  0  0
  -31.9480  -14.8200   19.2420 O   0  0  0  0  0  0  0  0  0  0  0  0
  -30.0390  -17.4050   22.1850 C   0  0  0  0  0  2  0  0  0  0  0  0
  -30.1520  -15.8810   21.9290 C   0  0  0  0  0  2  0  0  0  0  0  0
  -30.2370  -17.0250   19.8640 C   0  0  0  0  0  2  0  0  0  0  0  0
  -29.5250  -17.9680   20.8640 C   0  0  0  0  0  3  0  0  0  0  0  0
  -30.2540  -15.6710   20.4690 N   0  0  0  0  0  0  0  0  0  0  0  0
  -25.5080  -13.9010   20.4460 C   0  0  0  0  0  0  0  0  0  0  0  0
  -24.4760  -13.1160   20.8840 C   0  0  0  0  0  0  0  0  0  0  0  0
  -24.9120  -11.7660   20.7220 C   0  0  0  0  0  0  0  0  0  0  0  0
  -26.5070  -13.0300   20.0460 N   0  0  0  0  0  0  0  0  0  0  0  0
  -26.1580  -11.7360   20.2670 N   0  0  0  0  0  0  0  0  0  0  0  0
  -24.1960  -10.5000   20.9170 C   0  0  0  0  0  0  0  0  0  0  0  0
  -24.6560   -9.5260   21.8300 C   0  0  0  0  0  3  0  0  0  0  0  0
  -23.9400   -8.3230   22.0170 C   0  0  0  0  0  3  0  0  0  0  0  0
  -22.7510   -8.0860   21.2860 C   0  0  0  0  0  0  0  0  0  0  0  0
  -22.3090   -9.0490   20.3630 C   0  0  0  0  0  3  0  0  0  0  0  0
  -23.0250  -10.2430   20.1750 C   0  0  0  0  0  3  0  0  0  0  0  0
  -22.0060   -6.9340   21.3790 O   0  0  0  0  0  0  0  0  0  0  0  0
  -21.8930   -6.2430   22.5590 C   0  0  0  0  0  0  0  0  0  0  0  0
  -21.3780   -6.8450   23.7270 C   0  0  0  0  0  3  0  0  0  0  0  0
  -21.2160   -6.0810   24.9000 C   0  0  0  0  0  3  0  0  0  0  0  0
  -21.5550   -4.7140   24.9040 C   0  0  0  0  0  0  0  0  0  0  0  0
  -22.0640   -4.1120   23.7390 C   0  0  0  0  0  3  0  0  0  0  0  0
  -22.2280   -4.8740   22.5690 C   0  0  0  0  0  0  0  0  0  0  0  0
  -22.6980   -4.2840   21.4430 F   0  0  0  0  0  0  0  0  0  0  0  0
  -21.3930   -3.9770   26.0260 F   0  0  0  0  0  0  0  0  0  0  0  0
  -23.1270  -13.5850   21.3470 C   0  0  0  0  0  0  0  0  0  0  0  0
  -22.5120  -12.8610   22.2740 N   0  0  0  0  0  0  0  0  0  0  0  0
  -22.6320  -14.6290   20.9210 O   0  0  0  0  0  0  0  0  0  0  0  0
  -22.9300  -12.0170   22.6370 H   0  0  0  0  0  0  0  0  0  0  0  0
  -21.6140  -13.1580   22.6290 H   0  0  0  0  0  0  0  0  0  0  0  0
  -25.6690  -15.2790   20.3360 N   0  0  0  0  0  0  0  0  0  0  0  0
  -24.9280  -15.9310   20.5710 H   0  0  0  0  0  0  0  0  0  0  0  0
  -26.4880  -15.7330   19.9520 H   0  0  0  0  0  0  0  0  0  0  0  0
  -28.4890  -25.4720   20.8630 C   0  0  0  0  0  2  0  0  0  0  0  0
  -28.5500  -26.6640   20.0260 O   0  0  0  0  0  0  0  0  0  0  0  0
  -24.6930  -31.8550   23.0880 C   0  0  0  0  0  0  0  0  0  0  0  0
  -27.3970  -27.4340   20.0130 C   0  0  0  0  0  0  0  0  0  0  0  0
  -23.5070  -30.4420   21.4410 C   0  0  0  0  0  3  0  0  0  0  0  0
  -24.9860  -28.9300   20.0100 C   0  0  0  0  0  0  0  0  0  0  0  0
  -26.0300  -30.8340   21.2470 C   0  0  0  0  0  2  0  0  0  0  0  0
  -26.1390  -29.4650   20.5980 C   0  0  0  0  0  0  0  0  0  0  0  0
  -27.3510  -28.7280   20.5900 C   0  0  0  0  0  3  0  0  0  0  0  0
  -26.2300  -26.9230   19.4070 C   0  0  0  0  0  3  0  0  0  0  0  0
  -25.0270  -27.6600   19.4070 C   0  0  0  0  0  3  0  0  0  0  0  0
  -23.7280  -29.7710   20.0600 C   0  0  0  0  0  2  0  0  0  0  0  0
  -24.7610  -31.0580   21.9840 N   0  0  0  0  0  0  0  0  0  0  0  0
  -23.6080  -32.1120   23.6280 O   0  0  0  0  0  0  0  0  0  0  0  0
  -22.8680  -29.4100   22.3990 C   0  0  0  0  0  0  0  0  0  0  0  0
  -21.5460  -29.2080   22.2700 N   0  0  0  0  0  0  0  0  0  0  0  0
  -23.5580  -28.7920   23.2140 O   0  0  0  0  0  0  0  0  0  0  0  0
  -21.0470  -29.7590   21.5860 H   0  0  0  0  0  0  0  0  0  0  0  0
  -18.1880  -27.9630   22.7640 C   0  0  0  0  0  0  0  0  0  0  0  0
  -20.7430  -28.2580   23.0380 C   0  0  0  0  0  3  0  0  0  0  0  0
  -20.8650  -26.8310   22.4560 C   0  0  0  0  0  2  0  0  0  0  0  0
  -19.7680  -26.4950   21.4400 C   0  0  0  0  0  2  0  0  0  0  0  0
  -18.3840  -26.6180   22.0830 C   0  0  0  0  0  2  0  0  0  0  0  0
  -19.2960  -28.7390   23.1970 C   0  0  0  0  0  0  0  0  0  0  0  0
  -19.0600  -29.9960   23.7940 C   0  0  0  0  0  3  0  0  0  0  0  0
  -17.7480  -30.4790   23.9630 C   0  0  0  0  0  3  0  0  0  0  0  0
  -16.6550  -29.7000   23.5460 C   0  0  0  0  0  3  0  0  0  0  0  0
  -16.8750  -28.4440   22.9530 C   0  0  0  0  0  3  0  0  0  0  0  0
  -25.9680  -32.5030   23.7110 C   0  0  0  0  0  3  0  0  0  0  0  0
  -25.6250  -33.8820   24.0870 N   0  0  0  0  0  0  0  0  0  0  0  0
  -25.9350  -34.9650   23.3630 C   0  0  0  0  0  0  0  0  0  0  0  0
  -26.6070  -34.9100   22.3290 O   0  0  0  0  0  0  0  0  0  0  0  0
  -25.0260  -33.9950   24.8910 H   0  0  0  0  0  0  0  0  0  0  0  0
  -24.1800  -36.7390   23.0480 C   0  0  0  0  0  1  0  0  0  0  0  0
  -25.4150  -36.3250   23.8640 C   0  0  0  0  0  3  0  0  0  0  0  0
  -27.5180  -37.2130   24.7680 C   0  0  0  0  0  1  0  0  0  0  0  0
  -26.4300  -37.4000   23.8110 N   0  0  0  0  0  0  0  0  0  0  0  0
  -26.0050  -38.3060   23.9880 H   0  0  0  0  0  0  0  0  0  0  0  0
  -26.5270  -31.7090   24.9550 C   0  0  1  0  0  0  0  0  0  0  0  0
  -25.4500  -31.3770   26.0160 C   0  0  0  0  0  1  0  0  0  0  0  0
  -27.1770  -30.3770   24.5080 C   0  0  0  0  0  1  0  0  0  0  0  0
  -27.6420  -32.5320   25.6450 C   0  0  0  0  0  1  0  0  0  0  0  0
  2  1  2  0
  3  6  1  0
  3  1  1  0
  4 51  1  0
  4  6  1  0
  5  8  1  0
  5  3  2  0
  6  9  1  0
  7  4  2  0
  8  2  1  0
 10 22  1  0
 11 16  1  0
 12 13  1  0
 12 11  1  0
 14 13  1  0
 14 26  1  0
 14 15  1  0
 16 10  1  0
 16 15  1  0
 17 10  2  0
 19 18  1  0
 20 22  1  0
 20 21  1  0
 21  2  1  0
 21 18  1  0
 22 19  1  0
 23 24  2  0
 24 43  1  0
 25 24  1  0
 25 28  1  0
 26 27  1  0
 26 23  1  0
 27 25  2  0
 28 29  1  0
 29 30  2  0
 31 34  1  0
 31 30  1  0
 32 31  2  0
 33 32  1  0
 33 28  2  0
 34 35  1  0
 35 40  2  0
 35 36  1  0
 36 37  2  0
 37 38  1  0
 38 42  1  0
 39 38  2  0
 40 39  1  0
 41 40  1  0
 43 44  1  0
 44 47  1  0
 44 46  1  0
 45 43  2  0
 48 23  1  0
 48 49  1  0
 50 48  1  0
 52 51  1  0
 53 64  2  0
 54 52  1  0
 54 59  1  0
 55 63  1  0
 55 65  1  0
 56 62  1  0
 56 58  1  0
 57 63  1  0
 58 57  1  0
 59 58  2  0
 60 54  2  0
 61 60  1  0
 61 56  2  0
 62 55  1  0
 63 53  1  0
 65 67  2  0
 66 65  1  0
 68 66  1  0
 69 78  2  0
 69 74  1  0
 70 66  1  0
 70 74  1  0
 71 70  1  0
 72 73  1  0
 72 71  1  0
 73 69  1  0
 74 75  2  0
 75 76  1  0
 77 76  2  0
 78 77  1  0
 79 53  1  0
 79 80  1  0
 79 89  1  0
 80 83  1  0
 81 85  1  0
 81 80  1  0
 82 81  2  0
 85 84  1  0
 87 85  1  0
 87 88  1  0
 87 86  1  0
 89 92  1  1
 89 90  1  0
 91 89  1  0
M  ISO  4  10 100  22 100  51 101  52 101
M  END
>  <TORSDO>  (8) 
F 17

>  <SCORE>  (8) 
-13.835

>  <name>  (8) 
7

>  <ligand_id>  (8) 
7

>  <original_smiles>  (8) 
[H]c1c(N([H])C(=O)C([H])([H])Oc2c([H])c([H])c3c(c2[H])C([H])([H])N(C(=O)C([H])(N([H])C(=O)C([H])(N([H])C([H])([H])[H])C([H])([H])[H])C(C([H])([H])[H])(C([H])([H])[H])C([H])([H])[H])C([H])(C(=O)N([H])C2([H])c4c([H])c([H])c([H])c([H])c4C([H])([H])C([H])([H])C2([H])[H])C3([H])[H])noc1C1([H])C([H])([H])N(C(=O)N2C([H])([H])C([H])([H])C([H])([H])C([H])(n3nc(-c4c([H])c([H])c(Oc5c([H])c([H])c(F)c([H])c5F)c([H])c4[H])c(C(=O)N([H])[H])c3N([H])[H])C2([H])[H])C([H])([H])C1([H])[H]

>  <smiles>  (8) 
[H]c1c(N([H])C(=O)C([H])([H])Oc2c([H])c([H])c3c(c2[H])C([H])([H])N(C(=O)C([H])(N([H])C(=O)C([H])(N([H])C([H])([H])[H])C([H])([H])[H])C(C([H])([H])[H])(C([H])([H])[H])C([H])([H])[H])C([H])(C(=O)N([H])C2([H])c4c([H])c([H])c([H])c([H])c4C([H])([H])C([H])([H])C2([H])[H])C3([H])[H])noc1C1([H])C([H])([H])N(C(=O)N2C([H])([H])C([H])([H])C([H])([H])C([H])(n3nc(-c4c([H])c([H])c(Oc5c([H])c([H])c(F)c([H])c5F)c([H])c4[H])c(C(=O)N([H])[H])c3N([H])[H])C2([H])[H])C([H])([H])C1([H])[H]

$$$$
8:0:0
     RDKit          3D

 94103  0  0  1  0  0  0  0  0999 V2000
  -30.3410  -21.3640   19.5340 C   0  0  0  0  0  3  0  0  0  0  0  0
  -30.4110  -24.9950   20.1950 C   0  0  0  0  0  2  0  0  0  0  0  0
  -30.7210  -23.8330   19.2280 C   0  0  0  0  0  2  0  0  0  0  0  0
  -28.5780  -23.4600   20.0700 C   0  0  0  0  0  2  0  0  0  0  0  0
  -28.8850  -25.0530   20.3560 C   0  0  0  0  0  3  0  0  0  0  0  0
  -29.8490  -22.7030   19.6340 N   0  0  0  0  0  0  0  0  0  0  0  0
  -31.3290  -21.2270   18.6500 N   0  0  0  0  0  0  0  0  0  0  0  0
  -31.8130  -20.3440   18.6030 H   0  0  0  0  0  0  0  0  0  0  0  0
  -31.5440  -21.9350   17.9690 H   0  0  0  0  0  0  0  0  0  0  0  0
  -30.1930  -18.8490   22.4280 C   0  0  0  0  0  3  0  0  0  0  0  0
  -30.0870  -20.0450   21.6800 C   0  0  0  0  0  3  0  0  0  0  0  0
  -30.3160  -17.5790   21.8160 C   0  0  0  0  0  3  0  0  0  0  0  0
  -30.1840  -18.6810   19.6620 C   0  0  0  0  0  3  0  0  0  0  0  0
  -30.1040  -20.0230   20.2720 C   0  0  0  0  0  0  0  0  0  0  0  0
  -30.3140  -17.4250   20.4120 C   0  0  0  0  0  0  0  0  0  0  0  0
  -31.0200  -14.8740   19.9320 C   0  0  0  0  0  0  0  0  0  0  0  0
  -30.7530  -12.5740   18.9380 C   0  0  0  0  0  2  0  0  0  0  0  0
  -29.7460  -12.6230   17.7670 C   0  0  0  0  0  2  0  0  0  0  0  0
  -28.2960  -12.4880   18.2780 C   0  0  0  0  0  2  0  0  0  0  0  0
  -28.0020  -13.4080   19.4920 C   0  0  0  0  0  3  0  0  0  0  0  0
  -29.1160  -13.3170   20.5560 C   0  0  0  0  0  2  0  0  0  0  0  0
  -30.3770  -13.6530   19.8820 N   0  0  0  0  0  0  0  0  0  0  0  0
  -32.2270  -14.9330   19.6740 O   0  0  0  0  0  0  0  0  0  0  0  0
  -30.2110  -16.0190   19.8930 N   0  0  0  0  0  0  0  0  0  0  0  0
  -29.2520  -15.7470   19.7480 H   0  0  0  0  0  0  0  0  0  0  0  0
  -25.7030  -14.0980   20.3950 C   0  0  0  0  0  0  0  0  0  0  0  0
  -24.6170  -13.3680   20.7950 C   0  0  0  0  0  0  0  0  0  0  0  0
  -24.9990  -11.9970   20.6810 C   0  0  0  0  0  0  0  0  0  0  0  0
  -26.6780  -13.1720   20.0570 N   0  0  0  0  0  0  0  0  0  0  0  0
  -26.2660  -11.9000   20.2940 N   0  0  0  0  0  0  0  0  0  0  0  0
  -24.2130  -10.7700   20.8610 C   0  0  0  0  0  0  0  0  0  0  0  0
  -24.6050   -9.7670   21.7760 C   0  0  0  0  0  3  0  0  0  0  0  0
  -23.8220   -8.6060   21.9440 C   0  0  0  0  0  3  0  0  0  0  0  0
  -22.6310   -8.4380   21.1980 C   0  0  0  0  0  0  0  0  0  0  0  0
  -22.2570   -9.4280   20.2720 C   0  0  0  0  0  3  0  0  0  0  0  0
  -23.0400  -10.5820   20.1020 C   0  0  0  0  0  3  0  0  0  0  0  0
  -21.8210   -7.3300   21.2780 O   0  0  0  0  0  0  0  0  0  0  0  0
  -21.7090   -6.6020   22.4350 C   0  0  0  0  0  0  0  0  0  0  0  0
  -21.2560   -7.1840   23.6400 C   0  0  0  0  0  3  0  0  0  0  0  0
  -21.0890   -6.3830   24.7870 C   0  0  0  0  0  3  0  0  0  0  0  0
  -21.3630   -5.0040   24.7320 C   0  0  0  0  0  0  0  0  0  0  0  0
  -21.8100   -4.4230   23.5320 C   0  0  0  0  0  3  0  0  0  0  0  0
  -21.9780   -5.2200   22.3860 C   0  0  0  0  0  0  0  0  0  0  0  0
  -22.3880   -4.6520   21.2260 F   0  0  0  0  0  0  0  0  0  0  0  0
  -21.1960   -4.2330   25.8320 F   0  0  0  0  0  0  0  0  0  0  0  0
  -23.2670  -13.9100   21.1650 C   0  0  0  0  0  0  0  0  0  0  0  0
  -22.5580  -13.2310   22.0590 N   0  0  0  0  0  0  0  0  0  0  0  0
  -22.8540  -14.9690   20.6960 O   0  0  0  0  0  0  0  0  0  0  0  0
  -22.9040  -12.3730   22.4610 H   0  0  0  0  0  0  0  0  0  0  0  0
  -21.6520  -13.5760   22.3480 H   0  0  0  0  0  0  0  0  0  0  0  0
  -25.9330  -15.4640   20.2670 N   0  0  0  0  0  0  0  0  0  0  0  0
  -25.2070  -16.1470   20.4570 H   0  0  0  0  0  0  0  0  0  0  0  0
  -26.7750  -15.8840   19.8950 H   0  0  0  0  0  0  0  0  0  0  0  0
  -28.5000  -26.3280   19.6190 O   0  0  0  0  0  0  0  0  0  0  0  0
  -24.6910  -31.5890   23.0680 C   0  0  0  0  0  0  0  0  0  0  0  0
  -27.3450  -27.1270   19.8220 C   0  0  0  0  0  0  0  0  0  0  0  0
  -23.4840  -30.2000   21.4230 C   0  0  0  0  0  3  0  0  0  0  0  0
  -24.9390  -28.7150   19.9220 C   0  0  0  0  0  0  0  0  0  0  0  0
  -26.0120  -30.5830   21.1770 C   0  0  0  0  0  2  0  0  0  0  0  0
  -26.1160  -29.2140   20.4970 C   0  0  0  0  0  0  0  0  0  0  0  0
  -27.3230  -28.4380   20.4240 C   0  0  0  0  0  3  0  0  0  0  0  0
  -26.1410  -26.6930   19.2370 C   0  0  0  0  0  3  0  0  0  0  0  0
  -24.9570  -27.4630   19.2840 C   0  0  0  0  0  3  0  0  0  0  0  0
  -23.6830  -29.5610   20.0220 C   0  0  0  0  0  2  0  0  0  0  0  0
  -24.7500  -30.8100   21.9460 N   0  0  0  0  0  0  0  0  0  0  0  0
  -23.6150  -31.8160   23.6410 O   0  0  0  0  0  0  0  0  0  0  0  0
  -22.8770  -29.1410   22.3740 C   0  0  0  0  0  0  0  0  0  0  0  0
  -21.5620  -28.8910   22.2480 N   0  0  0  0  0  0  0  0  0  0  0  0
  -23.5900  -28.5450   23.1850 O   0  0  0  0  0  0  0  0  0  0  0  0
  -21.0410  -29.4270   21.5680 H   0  0  0  0  0  0  0  0  0  0  0  0
  -18.2880  -27.3970   22.6470 C   0  0  0  0  0  0  0  0  0  0  0  0
  -20.8000  -27.8960   23.0080 C   0  0  0  0  0  3  0  0  0  0  0  0
  -21.0540  -26.4700   22.4680 C   0  0  0  0  0  2  0  0  0  0  0  0
  -20.0280  -26.0290   21.4200 C   0  0  0  0  0  2  0  0  0  0  0  0
  -18.6140  -26.0580   22.0080 C   0  0  0  0  0  2  0  0  0  0  0  0
  -19.3150  -28.2670   23.1020 C   0  0  0  0  0  0  0  0  0  0  0  0
  -18.9580  -29.5140   23.6590 C   0  0  0  0  0  3  0  0  0  0  0  0
  -17.6070  -29.8950   23.7650 C   0  0  0  0  0  3  0  0  0  0  0  0
  -16.5950  -29.0250   23.3260 C   0  0  0  0  0  3  0  0  0  0  0  0
  -16.9360  -27.7770   22.7730 C   0  0  0  0  0  3  0  0  0  0  0  0
  -25.9690  -32.2450   23.6750 C   0  0  0  0  0  3  0  0  0  0  0  0
  -25.6240  -33.6240   24.0530 N   0  0  0  0  0  0  0  0  0  0  0  0
  -25.9350  -34.7130   23.3370 C   0  0  0  0  0  0  0  0  0  0  0  0
  -26.6100  -34.6620   22.3040 O   0  0  0  0  0  0  0  0  0  0  0  0
  -25.0210  -33.7340   24.8560 H   0  0  0  0  0  0  0  0  0  0  0  0
  -24.1660  -36.4790   23.0540 C   0  0  0  0  0  1  0  0  0  0  0  0
  -25.4190  -36.0730   23.8460 C   0  0  0  0  0  3  0  0  0  0  0  0
  -27.5320  -36.9810   24.7070 C   0  0  0  0  0  1  0  0  0  0  0  0
  -26.4270  -37.1530   23.7670 N   0  0  0  0  0  0  0  0  0  0  0  0
  -26.0000  -38.0590   23.9420 H   0  0  0  0  0  0  0  0  0  0  0  0
  -26.5410  -31.4580   24.9180 C   0  0  1  0  0  0  0  0  0  0  0  0
  -25.4830  -31.1600   26.0060 C   0  0  0  0  0  1  0  0  0  0  0  0
  -27.1570  -30.1110   24.4780 C   0  0  0  0  0  1  0  0  0  0  0  0
  -27.6820  -32.2720   25.5730 C   0  0  0  0  0  1  0  0  0  0  0  0
  1  7  1  0
  1  6  1  0
  1 14  1  0
  2  5  1  0
  3  6  1  0
  3  2  1  0
  4  5  1  0
  5 54  1  0
  6  4  1  0
  8  7  1  0
  9  7  1  0
 11 10  2  0
 12 10  1  0
 13 14  2  0
 13 15  1  0
 14 11  1  0
 15 12  2  0
 17 22  1  0
 18 19  1  0
 18 17  1  0
 20 19  1  0
 20 29  1  0
 20 21  1  0
 22 16  1  0
 22 21  1  0
 23 16  2  0
 24 16  1  0
 24 15  1  0
 25 24  1  0
 26 27  2  0
 27 46  1  0
 28 27  1  0
 28 31  1  0
 29 30  1  0
 29 26  1  0
 30 28  2  0
 31 32  1  0
 32 33  2  0
 34 37  1  0
 34 33  1  0
 35 34  2  0
 36 35  1  0
 36 31  2  0
 37 38  1  0
 38 39  1  0
 39 40  2  0
 41 40  1  0
 41 45  1  0
 42 41  2  0
 43 38  2  0
 43 42  1  0
 44 43  1  0
 46 47  1  0
 47 50  1  0
 47 49  1  0
 48 46  2  0
 51 26  1  0
 51 52  1  0
 53 51  1  0
 54 56  1  0
 55 66  2  0
 56 61  1  0
 57 65  1  0
 57 67  1  0
 58 64  1  0
 58 60  1  0
 59 65  1  0
 60 59  1  0
 61 60  2  0
 62 63  1  0
 62 56  2  0
 63 58  2  0
 64 57  1  0
 65 55  1  0
 67 69  2  0
 68 67  1  0
 70 68  1  0
 71 80  2  0
 71 76  1  0
 72 68  1  0
 72 76  1  0
 73 72  1  0
 74 75  1  0
 74 73  1  0
 75 71  1  0
 76 77  2  0
 77 78  1  0
 79 78  2  0
 80 79  1  0
 81 55  1  0
 81 82  1  0
 81 91  1  0
 82 85  1  0
 83 87  1  0
 83 82  1  0
 84 83  2  0
 87 86  1  0
 89 87  1  0
 89 90  1  0
 89 88  1  0
 91 94  1  1
 91 92  1  0
 93 91  1  0
M  ISO  4   5 101  16 100  24 100  54 101
M  END
>  <TORSDO>  (9) 
F 17

>  <SCORE>  (9) 
-13.266

>  <name>  (9) 
8

>  <ligand_id>  (9) 
8

>  <original_smiles>  (9) 
[H]c1c([H])c(C(N2C([H])([H])C([H])([H])C([H])(Oc3c([H])c([H])c4c(c3[H])C([H])([H])N(C(=O)C([H])(N([H])C(=O)C([H])(N([H])C([H])([H])[H])C([H])([H])[H])C(C([H])([H])[H])(C([H])([H])[H])C([H])([H])[H])C([H])(C(=O)N([H])C3([H])c5c([H])c([H])c([H])c([H])c5C([H])([H])C([H])([H])C3([H])[H])C4([H])[H])C2([H])[H])=[N+]([H])[H])c([H])c(N([H])C(=O)N2C([H])([H])C([H])([H])C([H])([H])C([H])(n3nc(-c4c([H])c([H])c(Oc5c([H])c([H])c(F)c([H])c5F)c([H])c4[H])c(C(=O)N([H])[H])c3N([H])[H])C2([H])[H])c1[H]

>  <smiles>  (9) 
[H]c1c([H])c(C(N2C([H])([H])C([H])([H])C([H])(Oc3c([H])c([H])c4c(c3[H])C([H])([H])N(C(=O)C([H])(N([H])C(=O)C([H])(N([H])C([H])([H])[H])C([H])([H])[H])C(C([H])([H])[H])(C([H])([H])[H])C([H])([H])[H])C([H])(C(=O)N([H])C3([H])c5c([H])c([H])c([H])c([H])c5C([H])([H])C([H])([H])C3([H])[H])C4([H])[H])C2([H])[H])=[N+]([H])[H])c([H])c(N([H])C(=O)N2C([H])([H])C([H])([H])C([H])([H])C([H])(n3nc(-c4c([H])c([H])c(Oc5c([H])c([H])c(F)c([H])c5F)c([H])c4[H])c(C(=O)N([H])[H])c3N([H])[H])C2([H])[H])c1[H]

$$$$
9:0:0
     RDKit          3D

 99108  0  0  1  0  0  0  0  0999 V2000
  -31.2870  -19.5060   19.5710 C   0  0  0  0  0  3  0  0  0  0  0  0
  -31.3580  -18.0980   19.8170 C   0  0  0  0  0  3  0  0  0  0  0  0
  -28.9620  -18.0340   19.9320 C   0  0  0  0  0  3  0  0  0  0  0  0
  -28.8780  -19.4370   19.6760 C   0  0  0  0  0  0  0  0  0  0  0  0
  -30.0610  -20.2280   19.4850 C   0  0  0  0  0  0  0  0  0  0  0  0
  -30.1860  -17.3200   20.0090 C   0  0  0  0  0  0  0  0  0  0  0  0
  -30.8950  -14.8080   19.8780 C   0  0  0  0  0  0  0  0  0  0  0  0
  -30.6290  -12.4990   18.9880 C   0  0  0  0  0  2  0  0  0  0  0  0
  -29.6540  -12.5480   17.7900 C   0  0  0  0  0  2  0  0  0  0  0  0
  -28.1910  -12.4500   18.2670 C   0  0  0  0  0  2  0  0  0  0  0  0
  -27.8790  -13.4170   19.4390 C   0  0  0  0  0  3  0  0  0  0  0  0
  -28.9600  -13.3170   20.5400 C   0  0  0  0  0  2  0  0  0  0  0  0
  -30.2650  -13.5910   19.9130 N   0  0  0  0  0  0  0  0  0  0  0  0
  -32.0340  -14.9320   19.4180 O   0  0  0  0  0  0  0  0  0  0  0  0
  -30.1240  -15.8760   20.2530 N   0  0  0  0  0  0  0  0  0  0  0  0
  -29.2630  -15.5690   20.6790 H   0  0  0  0  0  0  0  0  0  0  0  0
  -25.5660  -14.1470   20.2930 C   0  0  0  0  0  0  0  0  0  0  0  0
  -24.4640  -13.4320   20.6810 C   0  0  0  0  0  0  0  0  0  0  0  0
  -24.8280  -12.0560   20.5680 C   0  0  0  0  0  0  0  0  0  0  0  0
  -26.5340  -13.2080   19.9720 N   0  0  0  0  0  0  0  0  0  0  0  0
  -26.0980  -11.9420   20.1970 N   0  0  0  0  0  0  0  0  0  0  0  0
  -24.0250  -10.8380   20.7370 C   0  0  0  0  0  0  0  0  0  0  0  0
  -24.4550   -9.7780   21.5660 C   0  0  0  0  0  3  0  0  0  0  0  0
  -23.6550   -8.6260   21.7280 C   0  0  0  0  0  3  0  0  0  0  0  0
  -22.4110   -8.5260   21.0610 C   0  0  0  0  0  0  0  0  0  0  0  0
  -21.9980   -9.5740   20.2180 C   0  0  0  0  0  3  0  0  0  0  0  0
  -22.7980  -10.7170   20.0540 C   0  0  0  0  0  3  0  0  0  0  0  0
  -21.5820   -7.4330   21.1360 O   0  0  0  0  0  0  0  0  0  0  0  0
  -21.6020   -6.5870   22.2160 C   0  0  0  0  0  0  0  0  0  0  0  0
  -21.3700   -7.0510   23.5290 C   0  0  0  0  0  3  0  0  0  0  0  0
  -21.3310   -6.1380   24.6020 C   0  0  0  0  0  3  0  0  0  0  0  0
  -21.5120   -4.7620   24.3630 C   0  0  0  0  0  0  0  0  0  0  0  0
  -21.7370   -4.2990   23.0550 C   0  0  0  0  0  3  0  0  0  0  0  0
  -21.7790   -5.2080   21.9840 C   0  0  0  0  0  0  0  0  0  0  0  0
  -21.9740   -4.7530   20.7230 F   0  0  0  0  0  0  0  0  0  0  0  0
  -21.4670   -3.8840   25.3930 F   0  0  0  0  0  0  0  0  0  0  0  0
  -23.1160  -13.9910   21.0360 C   0  0  0  0  0  0  0  0  0  0  0  0
  -22.3850  -13.3180   21.9170 N   0  0  0  0  0  0  0  0  0  0  0  0
  -22.7240  -15.0590   20.5680 O   0  0  0  0  0  0  0  0  0  0  0  0
  -22.7160  -12.4530   22.3190 H   0  0  0  0  0  0  0  0  0  0  0  0
  -21.4810  -13.6720   22.1950 H   0  0  0  0  0  0  0  0  0  0  0  0
  -25.8180  -15.5100   20.1630 N   0  0  0  0  0  0  0  0  0  0  0  0
  -25.0900  -16.2010   20.3080 H   0  0  0  0  0  0  0  0  0  0  0  0
  -26.6470  -15.8950   19.7280 H   0  0  0  0  0  0  0  0  0  0  0  0
  -27.5170  -19.9860   19.6650 C   0  0  0  0  0  0  0  0  0  0  0  0
  -26.9250  -20.3530   18.5300 N   0  0  0  0  0  4  0  0  0  0  0  0
  -26.8160  -20.0560   20.7970 N   0  0  0  0  0  0  0  0  0  0  0  0
  -27.4100  -20.2070   17.6580 H   0  0  0  0  0  0  0  0  0  0  0  0
  -25.9810  -20.7070   18.4930 H   0  0  0  0  0  0  0  0  0  0  0  0
  -27.2680  -19.8050   21.6650 H   0  0  0  0  0  0  0  0  0  0  0  0
  -25.8680  -20.3940   20.8340 H   0  0  0  0  0  0  0  0  0  0  0  0
  -29.8800  -23.8840   20.2800 C   0  0  0  0  0  2  0  0  0  0  0  0
  -30.5570  -22.4990   20.4510 C   0  0  0  0  0  2  0  0  0  0  0  0
  -29.3060  -22.5250   18.4300 C   0  0  0  0  0  2  0  0  0  0  0  0
  -29.6180  -24.0350   18.7750 C   0  0  2  0  0  0  0  0  0  0  0  0
  -30.1060  -21.6640   19.3380 N   0  0  0  0  0  0  0  0  0  0  0  0
  -30.7710  -24.3450   18.1760 F   0  0  0  0  0  0  0  0  0  0  0  0
  -28.5260  -25.1090   18.3290 C   0  0  0  0  0  2  0  0  0  0  0  0
  -28.6250  -26.5480   18.6710 O   0  0  0  0  0  0  0  0  0  0  0  0
  -24.5800  -30.9750   22.6890 C   0  0  0  0  0  0  0  0  0  0  0  0
  -27.4220  -27.2650   18.8070 C   0  0  0  0  0  0  0  0  0  0  0  0
  -23.4150  -29.7310   20.9060 C   0  0  0  0  0  3  0  0  0  0  0  0
  -24.9120  -28.5900   19.1800 C   0  0  0  0  0  0  0  0  0  0  0  0
  -25.8920  -30.3460   20.6510 C   0  0  0  0  0  2  0  0  0  0  0  0
  -26.0650  -29.1020   19.7890 C   0  0  0  0  0  0  0  0  0  0  0  0
  -27.3210  -28.4520   19.5950 C   0  0  0  0  0  3  0  0  0  0  0  0
  -26.2340  -26.8080   18.1850 C   0  0  0  0  0  3  0  0  0  0  0  0
  -24.9980  -27.4490   18.3730 C   0  0  0  0  0  3  0  0  0  0  0  0
  -23.6010  -29.3060   19.4270 C   0  0  0  0  0  2  0  0  0  0  0  0
  -24.6510  -30.3610   21.4730 N   0  0  0  0  0  0  0  0  0  0  0  0
  -23.5110  -31.0510   23.3120 O   0  0  0  0  0  0  0  0  0  0  0  0
  -22.9180  -28.5110   21.7190 C   0  0  0  0  0  0  0  0  0  0  0  0
  -21.6100  -28.2170   21.6270 N   0  0  0  0  0  0  0  0  0  0  0  0
  -23.7050  -27.8400   22.3910 O   0  0  0  0  0  0  0  0  0  0  0  0
  -21.0270  -28.8200   21.0650 H   0  0  0  0  0  0  0  0  0  0  0  0
  -18.3980  -26.6190   22.0980 C   0  0  0  0  0  0  0  0  0  0  0  0
  -20.9340  -27.0900   22.2740 C   0  0  0  0  0  3  0  0  0  0  0  0
  -21.1270  -25.7860   21.4650 C   0  0  0  0  0  2  0  0  0  0  0  0
  -19.9920  -25.5190   20.4700 C   0  0  0  0  0  2  0  0  0  0  0  0
  -18.6500  -25.4200   21.2010 C   0  0  0  0  0  2  0  0  0  0  0  0
  -19.4680  -27.4130   22.5890 C   0  0  0  0  0  0  0  0  0  0  0  0
  -19.1760  -28.5370   23.3900 C   0  0  0  0  0  3  0  0  0  0  0  0
  -17.8450  -28.8710   23.7050 C   0  0  0  0  0  3  0  0  0  0  0  0
  -16.7900  -28.0740   23.2290 C   0  0  0  0  0  3  0  0  0  0  0  0
  -17.0670  -26.9480   22.4320 C   0  0  0  0  0  3  0  0  0  0  0  0
  -25.8330  -31.6340   23.3440 C   0  0  0  0  0  3  0  0  0  0  0  0
  -26.4950  -30.7340   24.4580 C   0  0  1  0  0  0  0  0  0  0  0  0
  -25.4960  -30.2330   25.5290 C   0  0  0  0  0  1  0  0  0  0  0  0
  -27.1730  -29.4940   23.8290 C   0  0  0  0  0  1  0  0  0  0  0  0
  -27.6100  -31.5290   25.1780 C   0  0  0  0  0  1  0  0  0  0  0  0
  -25.4110  -32.9260   23.9050 N   0  0  0  0  0  0  0  0  0  0  0  0
  -25.6120  -34.1120   23.3170 C   0  0  0  0  0  0  0  0  0  0  0  0
  -26.2400  -34.2380   22.2620 O   0  0  0  0  0  0  0  0  0  0  0  0
  -24.8360  -32.8920   24.7350 H   0  0  0  0  0  0  0  0  0  0  0  0
  -23.7070  -35.7560   23.3210 C   0  0  0  0  0  1  0  0  0  0  0  0
  -25.0230  -35.3570   24.0090 C   0  0  0  0  0  3  0  0  0  0  0  0
  -27.1090  -36.3100   24.8860 C   0  0  0  0  0  1  0  0  0  0  0  0
  -25.9450  -36.5130   24.0260 N   0  0  0  0  0  0  0  0  0  0  0  0
  -25.4650  -37.3550   24.3330 H   0  0  0  0  0  0  0  0  0  0  0  0
  1  2  1  0
  2  6  2  0
  3  6  1  0
  4  3  2  0
  5  1  2  0
  5  4  1  0
  6 15  1  0
  7 13  1  0
  7 15  1  0
  8 13  1  0
  9 10  1  0
  9  8  1  0
 11 10  1  0
 11 20  1  0
 11 12  1  0
 13 12  1  0
 14  7  2  0
 15 16  1  0
 17 18  2  0
 18 37  1  0
 19 18  1  0
 19 22  1  0
 20 21  1  0
 20 17  1  0
 21 19  2  0
 22 23  1  0
 23 24  2  0
 25 28  1  0
 25 24  1  0
 26 25  2  0
 27 26  1  0
 27 22  2  0
 28 29  1  0
 29 30  1  0
 30 31  2  0
 32 31  1  0
 32 36  1  0
 33 32  2  0
 34 29  2  0
 34 33  1  0
 35 34  1  0
 37 38  1  0
 38 41  1  0
 38 40  1  0
 39 37  2  0
 42 17  1  0
 42 43  1  0
 44 42  1  0
 45  4  1  0
 45 47  1  0
 46 45  2  0
 47 51  1  0
 47 50  1  0
 48 46  1  0
 49 46  1  0
 52 53  1  0
 54 55  1  0
 54 56  1  0
 55 57  1  6
 55 52  1  0
 56  5  1  0
 56 53  1  0
 58 59  1  0
 58 55  1  0
 59 61  1  0
 60 71  2  0
 61 66  1  0
 62 70  1  0
 62 72  1  0
 63 69  1  0
 63 65  1  0
 64 70  1  0
 65 64  1  0
 66 65  2  0
 67 68  1  0
 67 61  2  0
 68 63  2  0
 69 62  1  0
 70 60  1  0
 72 74  2  0
 73 72  1  0
 75 73  1  0
 76 85  2  0
 76 81  1  0
 77 73  1  0
 77 81  1  0
 78 77  1  0
 79 80  1  0
 79 78  1  0
 80 76  1  0
 81 82  2  0
 82 83  1  0
 84 83  2  0
 85 84  1  0
 86 60  1  0
 86 91  1  0
 86 87  1  0
 87 90  1  1
 87 88  1  0
 89 87  1  0
 91 94  1  0
 92 91  1  0
 92 96  1  0
 93 92  2  0
 96 95  1  0
 96 98  1  0
 98 99  1  0
 98 97  1  0
M  ISO  4   7 100  15 100  58 101  59 101
M  END
>  <TORSDO>  (10) 
F 19

>  <SCORE>  (10) 
-9.845

>  <name>  (10) 
9

>  <ligand_id>  (10) 
9

>  <original_smiles>  (10) 
[H]c1c([H])c([H])c2c(c1[H])C([H])([H])C([H])([H])C([H])([H])C2([H])N([H])C(=O)C1([H])N(C(=O)C([H])(N([H])C(=O)C([H])(N([H])C([H])([H])[H])C([H])([H])[H])C(C([H])([H])[H])(C([H])([H])[H])C([H])([H])[H])C([H])([H])c2c([H])c(OC([H])([H])C3(F)C([H])([H])N(c4c([H])c([H])c(N([H])C(=O)N5C([H])([H])C([H])([H])C([H])([H])C([H])(n6nc(-c7c([H])c([H])c(Oc8c([H])c([H])c(F)c([H])c8F)c([H])c7[H])c(C(=O)N([H])[H])c6N([H])[H])C5([H])[H])c([H])c4C(N([H])[H])=[N+]([H])[H])C([H])([H])C3([H])[H])c([H])c([H])c2C1([H])[H]

>  <smiles>  (10) 
[H]c1c([H])c([H])c2c(c1[H])C([H])([H])C([H])([H])C([H])([H])C2([H])N([H])C(=O)C1([H])N(C(=O)C([H])(N([H])C(=O)C([H])(N([H])C([H])([H])[H])C([H])([H])[H])C(C([H])([H])[H])(C([H])([H])[H])C([H])([H])[H])C([H])([H])c2c([H])c(OC([H])([H])C3(F)C([H])([H])N(c4c([H])c([H])c(N([H])C(=O)N5C([H])([H])C([H])([H])C([H])([H])C([H])(n6nc(-c7c([H])c([H])c(Oc8c([H])c([H])c(F)c([H])c8F)c([H])c7[H])c(C(=O)N([H])[H])c6N([H])[H])C5([H])[H])c([H])c4C(N([H])[H])=[N+]([H])[H])C([H])([H])C3([H])[H])c([H])c([H])c2C1([H])[H]

$$$$
10:0:0
     RDKit          3D

 99 98  0  0  1  0  0  0  0  0999 V2000
  -24.3830  -21.1540   20.5480 C   0  0  0  0  0  3  0  0  0  0  0  0
  -23.2600  -22.5600   20.6920 C   0  0  0  0  0  0  0  0  0  0  0  0
  -23.1930  -24.1660   20.6420 C   0  0  0  0  0  1  0  0  0  0  0  0
  -25.9010  -20.7030   20.2830 C   0  0  0  0  0  1  0  0  0  0  0  0
  -25.3020  -23.0420   20.2900 S   0  0  0  0  0  0  0  0  0  0  0  0
  -28.5370  -17.6440   19.8830 C   0  0  0  0  0  2  0  0  0  0  0  0
  -30.0420  -14.9770   19.1060 C   0  0  0  0  0  2  0  0  0  0  0  0
  -29.7090  -13.7000   18.1340 C   0  0  0  0  0  2  0  0  0  0  0  0
  -28.4850  -12.9110   18.5890 C   0  0  0  0  0  2  0  0  0  0  0  0
  -27.6750  -13.9700   19.3190 C   0  0  0  0  0  3  0  0  0  0  0  0
  -28.3560  -14.7770   20.4510 C   0  0  0  0  0  2  0  0  0  0  0  0
  -28.8590  -16.0010   19.7630 N   0  0  0  0  0  0  0  0  0  0  0  0
  -29.8440  -17.6870   19.6590 O   0  0  0  0  0  1  0  0  0  0  0  0
  -27.0760  -19.0310   20.1120 N   0  0  0  0  0  1  0  0  0  0  0  0
  -26.3750  -18.3110   20.2560 H   0  0  0  0  0  0  0  0  0  0  0  0
  -25.4550  -14.5890   20.0650 C   0  0  0  0  0  0  0  0  0  0  0  0
  -24.4050  -13.8720   20.5190 C   0  0  0  0  0  0  0  0  0  0  0  0
  -24.8150  -12.5010   20.4900 C   0  0  0  0  0  0  0  0  0  0  0  0
  -26.4050  -13.6410   19.7830 N   0  0  0  0  0  0  0  0  0  0  0  0
  -26.0740  -12.3800   20.1060 N   0  0  0  0  0  0  0  0  0  0  0  0
  -24.0480  -11.2890   20.7280 C   0  0  0  0  0  0  0  0  0  0  0  0
  -24.4580  -10.3270   21.6730 C   0  0  0  0  0  3  0  0  0  0  0  0
  -23.6740   -9.1760   21.8920 C   0  0  0  0  0  3  0  0  0  0  0  0
  -22.4740   -8.9910   21.1650 C   0  0  0  0  0  0  0  0  0  0  0  0
  -22.0920   -9.9420   20.2030 C   0  0  0  0  0  3  0  0  0  0  0  0
  -22.8750  -11.0820   19.9820 C   0  0  0  0  0  3  0  0  0  0  0  0
  -21.6550   -7.9000   21.2970 O   0  0  0  0  0  0  0  0  0  0  0  0
  -21.6500   -7.1460   22.4410 C   0  0  0  0  0  0  0  0  0  0  0  0
  -21.3290   -7.7020   23.6990 C   0  0  0  0  0  3  0  0  0  0  0  0
  -21.2670   -6.8750   24.8370 C   0  0  0  0  0  3  0  0  0  0  0  0
  -21.5140   -5.4930   24.7180 C   0  0  0  0  0  0  0  0  0  0  0  0
  -21.8290   -4.9390   23.4650 C   0  0  0  0  0  3  0  0  0  0  0  0
  -21.8940   -5.7650   22.3290 C   0  0  0  0  0  0  0  0  0  0  0  0
  -22.1780   -5.2240   21.1190 F   0  0  0  0  0  0  0  0  0  0  0  0
  -21.4440   -4.6960   25.8080 F   0  0  0  0  0  0  0  0  0  0  0  0
  -23.0680  -14.4430   20.8400 C   0  0  0  0  0  0  0  0  0  0  0  0
  -22.3510  -13.8220   21.7640 N   0  0  0  0  0  0  0  0  0  0  0  0
  -22.6840  -15.4840   20.3070 O   0  0  0  0  0  0  0  0  0  0  0  0
  -22.6900  -12.9830   22.2120 H   0  0  0  0  0  0  0  0  0  0  0  0
  -21.4490  -14.1890   22.0290 H   0  0  0  0  0  0  0  0  0  0  0  0
  -25.6780  -15.9530   19.8500 N   0  0  0  0  0  0  0  0  0  0  0  0
  -24.8390  -16.5220   19.8210 H   0  0  0  0  0  0  0  0  0  0  0  0
  -26.3210  -16.1910   19.1070 H   0  0  0  0  0  0  0  0  0  0  0  0
  -21.5420  -29.0780   18.3300 C   0  0  0  0  0  2  0  0  0  0  0  0
  -22.3550  -29.3210   21.7520 C   0  0  0  0  0 15  0  0  0  0  0  0
  -21.1080  -27.5010   18.8120 C   0  0  0  0  0  3  0  0  0  0  0  0
  -21.8700  -27.2550   22.0420 C   0  0  0  0  0  1  0  0  0  0  0  0
  -22.4930  -29.9680   19.3710 C   0  0  0  0  0  2  0  0  0  0  0  0
  -21.9530  -31.4040   18.9460 C   0  0  0  0  0  1  0  0  0  0  0  0
  -21.8680  -25.9720   20.7390 N   0  0  0  0  0  1  0  0  0  0  0  0
  -24.0620  -29.0190   18.1760 C   0  0  0  0  0 15  0  0  0  0  0  0
  -25.5680  -27.9730   18.6510 O   0  0  0  0  0  1  0  0  0  0  0  0
  -25.2550  -28.5830   23.9980 C   0  0  0  0  0  0  0  0  0  0  0  0
  -27.0230  -27.9950   18.6810 C   0  0  0  0  0  3  0  0  0  0  0  0
  -24.6340  -29.0940   21.7430 C   0  0  0  0  0  3  0  0  0  0  0  0
  -26.3600  -29.9950   20.0720 C   0  0  0  0  0  3  0  0  0  0  0  0
  -27.0320  -29.0130   22.2570 C   0  0  0  0  0  2  0  0  0  0  0  0
  -27.1190  -29.0450   20.7430 C   0  0  0  0  0  3  0  0  0  0  0  0
  -27.6470  -28.0230   19.9590 C   0  0  0  0  0  2  0  0  0  0  0  0
  -27.2040  -29.1220   17.9410 C   0  0  0  0  0  2  0  0  0  0  0  0
  -26.5390  -30.1510   18.6470 C   0  0  0  0  0  2  0  0  0  0  0  0
  -25.1630  -30.3830   20.9220 C   0  0  0  0  0  2  0  0  0  0  0  0
  -25.6380  -28.9420   22.7520 N   0  0  0  0  0  0  0  0  0  0  0  0
  -24.0690  -28.5680   24.3790 O   0  0  0  0  0  0  0  0  0  0  0  0
  -24.4480  -27.5160   21.2370 C   0  0  0  0  0  0  0  0  0  0  0  0
  -23.9430  -26.8730   20.0800 N   0  0  0  0  0  0  0  0  0  0  0  0
  -24.6130  -26.6380   22.0220 O   0  0  0  0  0  0  0  0  0  0  0  0
  -24.2570  -25.9160   20.1130 H   0  0  0  0  0  0  0  0  0  0  0  0
  -18.9150  -27.0860   19.1370 C   0  0  0  0  0  0  0  0  0  0  0  0
  -22.6440  -26.9600   19.0400 C   0  0  0  0  0  2  0  0  0  0  0  0
  -22.7590  -27.2970   16.9360 C   0  0  0  0  0 15  0  0  0  0  0  0
  -20.7050  -26.9670   16.0550 C   0  0  0  0  0 15  0  0  0  0  0  0
  -19.0890  -26.6660   17.3630 C   0  0  0  0  0  1  0  0  0  0  0  0
  -20.1840  -27.1080   19.9910 C   0  0  0  0  0  0  0  0  0  0  0  0
  -19.7140  -27.5720   21.4130 C   0  0  0  0  0  3  0  0  0  0  0  0
  -18.4520  -27.9650   21.9820 C   0  0  0  0  0  3  0  0  0  0  0  0
  -17.3810  -28.0230   21.1030 C   0  0  0  0  0  3  0  0  0  0  0  0
  -17.6440  -27.6040   19.7480 C   0  0  0  0  0  3  0  0  0  0  0  0
  -26.3470  -28.1210   24.9570 C   0  0  0  0  0  3  0  0  0  0  0  0
  -26.1290  -26.6450   25.4520 C   0  0  1  0  0  0  0  0  0  0  0  0
  -24.6950  -26.3450   25.9550 C   0  0  0  0  0  1  0  0  0  0  0  0
  -26.5190  -25.5940   24.3790 C   0  0  0  0  0  1  0  0  0  0  0  0
  -27.1060  -26.3860   26.6140 C   0  0  0  0  0  1  0  0  0  0  0  0
  -26.3290  -29.0820   26.0540 N   0  0  0  0  0  0  0  0  0  0  0  0
  -27.1670  -30.1190   26.1320 C   0  0  0  0  0  0  0  0  0  0  0  0
  -28.0870  -30.3010   25.3290 O   0  0  0  0  0  0  0  0  0  0  0  0
  -25.5700  -29.0150   26.7150 H   0  0  0  0  0  0  0  0  0  0  0  0
  -26.4140  -32.4250   26.7820 C   0  0  0  0  0  1  0  0  0  0  0  0
  -26.9640  -31.0890   27.3040 C   0  0  0  0  0  3  0  0  0  0  0  0
  -28.6380  -30.1350   28.8230 C   0  0  0  0  0  1  0  0  0  0  0  0
  -28.1980  -31.3160   28.0820 N   0  0  0  0  0  0  0  0  0  0  0  0
  -28.0720  -32.0760   28.7450 H   0  0  0  0  0  0  0  0  0  0  0  0
  -21.9140  -22.0300   20.9440 C   0  0  0  0  0  0  0  0  0  0  0  0
  -21.2290  -22.3900   22.0340 N   0  0  0  0  0  0  0  0  0  0  0  0
  -21.3500  -21.1700   20.0850 N   0  0  0  0  0  4  0  0  0  0  0  0
  -21.6220  -23.0840   22.6550 H   0  0  0  0  0  0  0  0  0  0  0  0
  -20.3110  -22.0450   22.2570 H   0  0  0  0  0  0  0  0  0  0  0  0
  -20.4350  -20.7730   20.2260 H   0  0  0  0  0  0  0  0  0  0  0  0
  -21.8220  -20.9420   19.2230 H   0  0  0  0  0  0  0  0  0  0  0  0
  1  4  1  0
  1  2  1  0
  2  3  1  0
  2 93  1  0
  5  1  1  0
  5  2  1  0
  7 12  1  0
  8  9  1  0
  8  7  1  0
 10  9  1  0
 10 19  1  0
 10 11  1  0
 12  6  1  0
 12 11  1  0
 13  6  1  0
 14 15  1  0
 16 17  2  0
 17 36  1  0
 18 17  1  0
 18 21  1  0
 19 16  1  0
 19 20  1  0
 20 18  2  0
 21 22  1  0
 22 23  2  0
 24 27  1  0
 24 23  1  0
 25 24  2  0
 26 25  1  0
 26 21  2  0
 27 28  1  0
 28 29  1  0
 29 30  2  0
 31 30  1  0
 31 35  1  0
 32 31  2  0
 33 28  2  0
 33 32  1  0
 34 33  1  0
 36 37  1  0
 37 40  1  0
 37 39  1  0
 38 36  2  0
 41 16  1  0
 42 41  1  0
 43 41  1  0
 44 48  1  0
 46 44  1  0
 46 70  1  0
 46 74  1  0
 49 48  1  0
 50 47  1  0
 53 64  2  0
 54 52  1  0
 54 59  1  0
 55 65  1  0
 55 63  1  0
 56 61  1  0
 56 58  1  0
 56 62  1  0
 57 63  1  0
 58 59  1  0
 58 57  1  0
 60 61  1  0
 60 54  1  0
 62 55  1  0
 63 53  1  0
 65 67  2  0
 66 68  1  0
 66 65  1  0
 69 78  2  0
 69 74  1  0
 70 66  1  0
 73 69  1  0
 74 75  2  0
 75 76  1  0
 77 76  2  0
 78 77  1  0
 79 53  1  0
 79 80  1  0
 79 84  1  0
 80 81  1  1
 80 83  1  0
 82 80  1  0
 84 85  1  0
 84 87  1  0
 85 89  1  0
 86 85  2  0
 89 88  1  0
 89 91  1  0
 91 92  1  0
 91 90  1  0
 93 94  1  0
 94 97  1  0
 94 96  1  0
 95 98  1  0
 95 93  2  0
 99 95  1  0
M  ISO  4   6 100  14 100  51 101  52 101
M  END
>  <TORSDO>  (11) 
F 19

>  <SCORE>  (11) 
21.200

>  <name>  (11) 
10

>  <ligand_id>  (11) 
10

>  <original_smiles>  (11) 
[H]c1c([H])c([H])c2c(c1[H])C([H])([H])C([H])([H])C([H])([H])C2([H])N([H])C(=O)C1([H])N(C(=O)C([H])(N([H])C(=O)C([H])(N([H])C([H])([H])[H])C([H])([H])[H])C(C([H])([H])[H])(C([H])([H])[H])C([H])([H])[H])C([H])([H])c2c([H])c(OC([H])([H])C3(C([H])([H])[H])C([H])([H])C([H])([H])N(c4sc(N([H])C(=O)N5C([H])([H])C([H])([H])C([H])([H])C([H])(n6nc(-c7c([H])c([H])c(Oc8c([H])c([H])c(F)c([H])c8F)c([H])c7[H])c(C(=O)N([H])[H])c6N([H])[H])C5([H])[H])c([H])c4C(N([H])[H])=[N+]([H])[H])C([H])([H])C3([H])[H])c([H])c([H])c2C1([H])[H]

>  <smiles>  (11) 
[H]c1c([H])c([H])c2c(c1[H])C([H])([H])C([H])([H])C([H])([H])C2([H])N([H])C(=O)C1([H])N(C(=O)C([H])(N([H])C(=O)C([H])(N([H])C([H])([H])[H])C([H])([H])[H])C(C([H])([H])[H])(C([H])([H])[H])C([H])([H])[H])C([H])([H])c2c([H])c(OC([H])([H])C3(C([H])([H])[H])C([H])([H])C([H])([H])N(c4sc(N([H])C(=O)N5C([H])([H])C([H])([H])C([H])([H])C([H])(n6nc(-c7c([H])c([H])c(Oc8c([H])c([H])c(F)c([H])c8F)c([H])c7[H])c(C(=O)N([H])[H])c6N([H])[H])C5([H])[H])c([H])c4C(N([H])[H])=[N+]([H])[H])C([H])([H])C3([H])[H])c([H])c([H])c2C1([H])[H]

$$$$
11:0:0
     RDKit          3D

 93101  0  0  1  0  0  0  0  0999 V2000
  -29.2020  -22.3610   19.8660 C   0  0  0  0  0  0  0  0  0  0  0  0
  -29.4670  -21.1710   20.5420 N   0  0  0  0  0  0  0  0  0  0  0  0
  -28.9130  -22.3280   18.6670 O   0  0  0  0  0  0  0  0  0  0  0  0
  -29.4890  -21.2420   21.5490 H   0  0  0  0  0  0  0  0  0  0  0  0
  -30.6450  -14.7720   20.3140 C   0  0  0  0  0  0  0  0  0  0  0  0
  -30.4010  -12.4970   19.3270 C   0  0  0  0  0  2  0  0  0  0  0  0
  -29.4730  -12.5900   18.0960 C   0  0  0  0  0  2  0  0  0  0  0  0
  -28.0010  -12.4250   18.5190 C   0  0  0  0  0  2  0  0  0  0  0  0
  -27.6280  -13.3050   19.7430 C   0  0  0  0  0  3  0  0  0  0  0  0
  -28.6870  -13.2230   20.8660 C   0  0  0  0  0  2  0  0  0  0  0  0
  -29.9890  -13.5590   20.2750 N   0  0  0  0  0  0  0  0  0  0  0  0
  -31.8340  -14.8130   19.9840 O   0  0  0  0  0  0  0  0  0  0  0  0
  -30.5800  -19.8050   18.7840 C   0  0  0  0  0  3  0  0  0  0  0  0
  -29.6510  -18.5340   20.6070 C   0  0  0  0  0  3  0  0  0  0  0  0
  -31.0210  -18.5870   18.2530 C   0  0  0  0  0  3  0  0  0  0  0  0
  -29.8530  -19.8420   19.9910 C   0  0  0  0  0  0  0  0  0  0  0  0
  -30.1500  -17.2950   20.0140 C   0  0  0  0  0  0  0  0  0  0  0  0
  -30.8090  -17.3920   18.8370 N   0  0  0  0  0  0  0  0  0  0  0  0
  -29.9320  -15.9380   20.5750 N   0  0  0  0  0  0  0  0  0  0  0  0
  -29.0540  -15.8090   21.0510 H   0  0  0  0  0  0  0  0  0  0  0  0
  -25.2360  -13.8820   20.4680 C   0  0  0  0  0  0  0  0  0  0  0  0
  -24.1750  -13.1030   20.8390 C   0  0  0  0  0  0  0  0  0  0  0  0
  -24.6440  -11.7540   20.8100 C   0  0  0  0  0  0  0  0  0  0  0  0
  -26.2840  -13.0070   20.2320 N   0  0  0  0  0  0  0  0  0  0  0  0
  -25.9350  -11.7230   20.5010 N   0  0  0  0  0  0  0  0  0  0  0  0
  -23.9220  -10.4880   21.0010 C   0  0  0  0  0  0  0  0  0  0  0  0
  -24.3500   -9.5280   21.9450 C   0  0  0  0  0  3  0  0  0  0  0  0
  -23.6260   -8.3290   22.1240 C   0  0  0  0  0  3  0  0  0  0  0  0
  -22.4630   -8.0810   21.3590 C   0  0  0  0  0  0  0  0  0  0  0  0
  -22.0540   -9.0290   20.4040 C   0  0  0  0  0  3  0  0  0  0  0  0
  -22.7780  -10.2210   20.2240 C   0  0  0  0  0  3  0  0  0  0  0  0
  -21.7110   -6.9340   21.4470 O   0  0  0  0  0  0  0  0  0  0  0  0
  -21.6460   -6.2040   22.6070 C   0  0  0  0  0  0  0  0  0  0  0  0
  -21.1800   -6.7650   23.8160 C   0  0  0  0  0  3  0  0  0  0  0  0
  -21.0630   -5.9600   24.9660 C   0  0  0  0  0  3  0  0  0  0  0  0
  -21.4020   -4.5940   24.9090 C   0  0  0  0  0  0  0  0  0  0  0  0
  -21.8600   -4.0330   23.7040 C   0  0  0  0  0  3  0  0  0  0  0  0
  -21.9780   -4.8340   22.5560 C   0  0  0  0  0  0  0  0  0  0  0  0
  -22.4010   -4.2830   21.3930 F   0  0  0  0  0  0  0  0  0  0  0  0
  -21.2820   -3.8200   26.0120 F   0  0  0  0  0  0  0  0  0  0  0  0
  -22.7750  -13.5740   21.1080 C   0  0  0  0  0  0  0  0  0  0  0  0
  -22.0460  -12.8700   21.9680 N   0  0  0  0  0  0  0  0  0  0  0  0
  -22.3360  -14.6020   20.5940 O   0  0  0  0  0  0  0  0  0  0  0  0
  -22.4140  -12.0380   22.4060 H   0  0  0  0  0  0  0  0  0  0  0  0
  -21.1070  -13.1670   22.1910 H   0  0  0  0  0  0  0  0  0  0  0  0
  -25.3930  -15.2520   20.2860 N   0  0  0  0  0  0  0  0  0  0  0  0
  -24.6200  -15.9010   20.3860 H   0  0  0  0  0  0  0  0  0  0  0  0
  -26.2310  -15.6930   19.9300 H   0  0  0  0  0  0  0  0  0  0  0  0
  -29.2710  -23.8290   20.5300 C   0  0  0  0  0  2  0  0  0  0  0  0
  -27.6800  -25.0110   22.1310 C   0  0  0  0  0  1  0  0  0  0  0  0
  -26.7940  -24.1670   19.9860 C   0  0  0  0  0  1  0  0  0  0  0  0
  -28.0160  -24.8740   20.6310 C   0  0  2  0  0  0  0  0  0  0  0  0
  -28.2500  -26.3260   20.1900 O   0  0  0  0  0  0  0  0  0  0  0  0
  -24.6200  -31.8770   23.2470 C   0  0  0  0  0  0  0  0  0  0  0  0
  -27.1950  -27.2800   20.1480 C   0  0  0  0  0  0  0  0  0  0  0  0
  -23.4140  -30.4910   21.6020 C   0  0  0  0  0  3  0  0  0  0  0  0
  -24.8620  -28.9630   20.1510 C   0  0  0  0  0  0  0  0  0  0  0  0
  -25.9630  -30.7850   21.4330 C   0  0  0  0  0  2  0  0  0  0  0  0
  -26.0340  -29.4090   20.7740 C   0  0  0  0  0  0  0  0  0  0  0  0
  -27.2020  -28.5730   20.7800 C   0  0  0  0  0  3  0  0  0  0  0  0
  -26.0330  -26.9770   19.4100 C   0  0  0  0  0  3  0  0  0  0  0  0
  -24.8660  -27.7520   19.4560 C   0  0  0  0  0  3  0  0  0  0  0  0
  -23.6280  -29.8380   20.2140 C   0  0  0  0  0  2  0  0  0  0  0  0
  -24.6850  -31.0700   22.1480 N   0  0  0  0  0  0  0  0  0  0  0  0
  -23.5370  -32.1530   23.7820 O   0  0  0  0  0  0  0  0  0  0  0  0
  -22.7530  -29.4630   22.5530 C   0  0  0  0  0  0  0  0  0  0  0  0
  -21.4270  -29.2850   22.4280 N   0  0  0  0  0  0  0  0  0  0  0  0
  -23.4330  -28.8310   23.3650 O   0  0  0  0  0  0  0  0  0  0  0  0
  -20.9350  -29.8490   21.7480 H   0  0  0  0  0  0  0  0  0  0  0  0
  -18.0500  -28.0840   22.9310 C   0  0  0  0  0  0  0  0  0  0  0  0
  -20.6090  -28.3420   23.1940 C   0  0  0  0  0  3  0  0  0  0  0  0
  -20.7090  -26.9130   22.6110 C   0  0  0  0  0  2  0  0  0  0  0  0
  -19.6050  -26.5970   21.5990 C   0  0  0  0  0  2  0  0  0  0  0  0
  -18.2250  -26.7390   22.2470 C   0  0  0  0  0  2  0  0  0  0  0  0
  -19.1700  -28.8430   23.3610 C   0  0  0  0  0  0  0  0  0  0  0  0
  -18.9520  -30.1020   23.9610 C   0  0  0  0  0  3  0  0  0  0  0  0
  -17.6480  -30.6010   24.1360 C   0  0  0  0  0  3  0  0  0  0  0  0
  -16.5420  -29.8380   23.7220 C   0  0  0  0  0  3  0  0  0  0  0  0
  -16.7440  -28.5810   23.1260 C   0  0  0  0  0  3  0  0  0  0  0  0
  -25.9040  -32.5080   23.8670 C   0  0  0  0  0  3  0  0  0  0  0  0
  -25.5930  -33.9060   24.2020 N   0  0  0  0  0  0  0  0  0  0  0  0
  -25.9130  -34.9610   23.4410 C   0  0  0  0  0  0  0  0  0  0  0  0
  -26.5700  -34.8610   22.4020 O   0  0  0  0  0  0  0  0  0  0  0  0
  -25.0110  -34.0570   25.0120 H   0  0  0  0  0  0  0  0  0  0  0  0
  -24.1790  -36.7540   23.1100 C   0  0  0  0  0  1  0  0  0  0  0  0
  -25.4280  -36.3470   23.9090 C   0  0  0  0  0  3  0  0  0  0  0  0
  -27.5650  -37.2350   24.7290 C   0  0  0  0  0  1  0  0  0  0  0  0
  -26.4580  -37.4020   23.7930 N   0  0  0  0  0  0  0  0  0  0  0  0
  -26.0500  -38.3210   23.9450 H   0  0  0  0  0  0  0  0  0  0  0  0
  -26.4190  -31.7340   25.1400 C   0  0  1  0  0  0  0  0  0  0  0  0
  -25.3250  -31.4890   26.2040 C   0  0  0  0  0  1  0  0  0  0  0  0
  -27.0090  -30.3590   24.7480 C   0  0  0  0  0  1  0  0  0  0  0  0
  -27.5650  -32.5300   25.8070 C   0  0  0  0  0  1  0  0  0  0  0  0
  1 49  1  0
  1  2  1  0
  2  4  1  0
  3  1  2  0
  5 19  1  0
  6 11  1  0
  7  8  1  0
  7  6  1  0
  9  8  1  0
  9 24  1  0
  9 10  1  0
 11  5  1  0
 11 10  1  0
 12  5  2  0
 13 16  1  0
 15 13  2  0
 15 18  1  0
 16  2  1  0
 16 14  2  0
 17 19  1  0
 17 14  1  0
 18 17  2  0
 19 20  1  0
 21 22  2  0
 22 41  1  0
 23 22  1  0
 23 26  1  0
 24 21  1  0
 24 25  1  0
 25 23  2  0
 26 27  1  0
 27 28  2  0
 29 32  1  0
 29 28  1  0
 30 29  2  0
 31 30  1  0
 31 26  2  0
 32 33  1  0
 33 34  1  0
 34 35  2  0
 36 35  1  0
 36 40  1  0
 37 36  2  0
 38 33  2  0
 38 37  1  0
 39 38  1  0
 41 42  1  0
 42 45  1  0
 42 44  1  0
 43 41  2  0
 46 47  1  0
 46 21  1  0
 48 46  1  0
 49 52  1  0
 52 51  1  6
 52 50  1  0
 53 52  1  0
 54 65  2  0
 55 53  1  0
 55 60  1  0
 56 64  1  0
 56 66  1  0
 57 63  1  0
 57 59  1  0
 58 64  1  0
 59 60  2  0
 59 58  1  0
 61 62  1  0
 61 55  2  0
 62 57  2  0
 63 56  1  0
 64 54  1  0
 66 68  2  0
 67 66  1  0
 69 67  1  0
 70 79  2  0
 70 75  1  0
 71 67  1  0
 71 75  1  0
 72 71  1  0
 73 74  1  0
 73 72  1  0
 74 70  1  0
 75 76  2  0
 76 77  1  0
 78 77  2  0
 79 78  1  0
 80 54  1  0
 80 81  1  0
 80 90  1  0
 81 84  1  0
 82 86  1  0
 82 81  1  0
 83 82  2  0
 86 85  1  0
 88 86  1  0
 88 89  1  0
 88 87  1  0
 90 93  1  1
 90 91  1  0
 92 90  1  0
M  ISO  4   5 100  19 100  52 101  53 101
M  END
>  <TORSDO>  (12) 
F 18

>  <SCORE>  (12) 
-14.753

>  <name>  (12) 
11

>  <ligand_id>  (12) 
11

>  <original_smiles>  (12) 
[H]c1nc(N([H])C(=O)N2C([H])([H])C([H])([H])C([H])([H])C([H])(n3nc(-c4c([H])c([H])c(Oc5c([H])c([H])c(F)c([H])c5F)c([H])c4[H])c(C(=O)N([H])[H])c3N([H])[H])C2([H])[H])c([H])c(N([H])C(=O)C([H])([H])C(Oc2c([H])c([H])c3c(c2[H])C([H])([H])N(C(=O)C([H])(N([H])C(=O)C([H])(N([H])C([H])([H])[H])C([H])([H])[H])C(C([H])([H])[H])(C([H])([H])[H])C([H])([H])[H])C([H])(C(=O)N([H])C2([H])c4c([H])c([H])c([H])c([H])c4C([H])([H])C([H])([H])C2([H])[H])C3([H])[H])(C([H])([H])[H])C([H])([H])[H])c1[H]

>  <smiles>  (12) 
[H]c1nc(N([H])C(=O)N2C([H])([H])C([H])([H])C([H])([H])C([H])(n3nc(-c4c([H])c([H])c(Oc5c([H])c([H])c(F)c([H])c5F)c([H])c4[H])c(C(=O)N([H])[H])c3N([H])[H])C2([H])[H])c([H])c(N([H])C(=O)C([H])([H])C(Oc2c([H])c([H])c3c(c2[H])C([H])([H])N(C(=O)C([H])(N([H])C(=O)C([H])(N([H])C([H])([H])[H])C([H])([H])[H])C(C([H])([H])[H])(C([H])([H])[H])C([H])([H])[H])C([H])(C(=O)N([H])C2([H])c4c([H])c([H])c([H])c([H])c4C([H])([H])C([H])([H])C2([H])[H])C3([H])[H])(C([H])([H])[H])C([H])([H])[H])c1[H]

$$$$
12:0:0
     RDKit          3D

 96105  0  0  1  0  0  0  0  0999 V2000
  -27.9340  -21.6490   19.6780 C   0  0  0  0  0  2  0  0  0  0  0  0
  -29.6010  -21.6000   21.5900 C   0  0  0  0  0  2  0  0  0  0  0  0
  -27.8000  -23.2170   19.7230 C   0  0  0  0  0  2  0  0  0  0  0  0
  -29.0780  -23.0630   21.8740 C   0  0  0  0  0  2  0  0  0  0  0  0
  -29.2870  -21.0610   20.1700 C   0  0  0  0  0  3  0  0  0  0  0  0
  -28.7860  -24.0070   20.6500 C   0  0  1  0  0  0  0  0  0  0  0  0
  -30.0970  -24.3720   19.9100 C   0  0  0  0  0  1  0  0  0  0  0  0
  -29.5410  -18.3830   20.6320 C   0  0  0  0  0  3  0  0  0  0  0  0
  -30.2790  -17.0340   18.7590 C   0  0  0  0  0  3  0  0  0  0  0  0
  -29.5900  -19.5520   19.7790 C   0  0  0  0  0  0  0  0  0  0  0  0
  -29.9090  -17.0780   20.1180 C   0  0  0  0  0  0  0  0  0  0  0  0
  -29.9890  -19.3000   18.4410 C   0  0  0  0  0  0  0  0  0  0  0  0
  -30.3060  -18.1010   17.9470 N   0  0  0  0  0  0  0  0  0  0  0  0
  -30.1050  -20.2900   17.4780 N   0  0  0  0  0  0  0  0  0  0  0  0
  -29.8510  -21.2550   17.6550 H   0  0  0  0  0  0  0  0  0  0  0  0
  -30.3410  -20.0640   16.5190 H   0  0  0  0  0  0  0  0  0  0  0  0
  -30.6110  -14.6830   20.5230 C   0  0  0  0  0  0  0  0  0  0  0  0
  -30.4060  -12.4530   19.4660 C   0  0  0  0  0  2  0  0  0  0  0  0
  -29.5060  -12.5810   18.2170 C   0  0  0  0  0  2  0  0  0  0  0  0
  -28.0220  -12.4230   18.6050 C   0  0  0  0  0  2  0  0  0  0  0  0
  -27.6250  -13.2940   19.8280 C   0  0  0  0  0  3  0  0  0  0  0  0
  -28.6470  -13.1520   20.9790 C   0  0  0  0  0  2  0  0  0  0  0  0
  -29.9750  -13.4760   20.4430 N   0  0  0  0  0  0  0  0  0  0  0  0
  -31.7830  -14.8080   20.1450 O   0  0  0  0  0  0  0  0  0  0  0  0
  -29.8690  -15.8000   20.8390 N   0  0  0  0  0  0  0  0  0  0  0  0
  -29.0360  -15.6300   21.3860 H   0  0  0  0  0  0  0  0  0  0  0  0
  -25.2150  -13.9020   20.4730 C   0  0  0  0  0  0  0  0  0  0  0  0
  -24.1390  -13.1340   20.8310 C   0  0  0  0  0  0  0  0  0  0  0  0
  -24.6010  -11.7810   20.8340 C   0  0  0  0  0  0  0  0  0  0  0  0
  -26.2630  -13.0170   20.2770 N   0  0  0  0  0  0  0  0  0  0  0  0
  -25.8980  -11.7380   20.5540 N   0  0  0  0  0  0  0  0  0  0  0  0
  -23.8690  -10.5230   21.0250 C   0  0  0  0  0  0  0  0  0  0  0  0
  -24.2820   -9.5630   21.9770 C   0  0  0  0  0  3  0  0  0  0  0  0
  -23.5490   -8.3690   22.1550 C   0  0  0  0  0  3  0  0  0  0  0  0
  -22.3890   -8.1250   21.3810 C   0  0  0  0  0  0  0  0  0  0  0  0
  -21.9950   -9.0710   20.4180 C   0  0  0  0  0  3  0  0  0  0  0  0
  -22.7300  -10.2550   20.2380 C   0  0  0  0  0  3  0  0  0  0  0  0
  -21.6350   -6.9800   21.4620 O   0  0  0  0  0  0  0  0  0  0  0  0
  -21.5650   -6.2470   22.6190 C   0  0  0  0  0  0  0  0  0  0  0  0
  -21.1270   -6.8120   23.8350 C   0  0  0  0  0  3  0  0  0  0  0  0
  -21.0040   -6.0060   24.9850 C   0  0  0  0  0  3  0  0  0  0  0  0
  -21.3110   -4.6330   24.9190 C   0  0  0  0  0  0  0  0  0  0  0  0
  -21.7440   -4.0670   23.7070 C   0  0  0  0  0  3  0  0  0  0  0  0
  -21.8670   -4.8720   22.5600 C   0  0  0  0  0  0  0  0  0  0  0  0
  -22.2630   -4.3160   21.3900 F   0  0  0  0  0  0  0  0  0  0  0  0
  -21.1880   -3.8570   26.0210 F   0  0  0  0  0  0  0  0  0  0  0  0
  -22.7350  -13.6160   21.0650 C   0  0  0  0  0  0  0  0  0  0  0  0
  -21.9820  -12.9350   21.9220 N   0  0  0  0  0  0  0  0  0  0  0  0
  -22.3110  -14.6350   20.5220 O   0  0  0  0  0  0  0  0  0  0  0  0
  -22.3310  -12.1130   22.3930 H   0  0  0  0  0  0  0  0  0  0  0  0
  -21.0390  -13.2420   22.1170 H   0  0  0  0  0  0  0  0  0  0  0  0
  -25.3900  -15.2700   20.2790 N   0  0  0  0  0  0  0  0  0  0  0  0
  -24.6310  -15.9400   20.3480 H   0  0  0  0  0  0  0  0  0  0  0  0
  -26.2620  -15.6900   19.9820 H   0  0  0  0  0  0  0  0  0  0  0  0
  -28.1640  -25.3920   21.1350 C   0  0  0  0  0  2  0  0  0  0  0  0
  -28.2900  -26.5610   20.2610 O   0  0  0  0  0  0  0  0  0  0  0  0
  -24.5730  -31.9160   23.2360 C   0  0  0  0  0  0  0  0  0  0  0  0
  -27.1820  -27.3920   20.2210 C   0  0  0  0  0  0  0  0  0  0  0  0
  -23.3680  -30.5130   21.5970 C   0  0  0  0  0  3  0  0  0  0  0  0
  -24.8200  -28.9620   20.1770 C   0  0  0  0  0  0  0  0  0  0  0  0
  -25.9020  -30.8460   21.4100 C   0  0  0  0  0  2  0  0  0  0  0  0
  -25.9820  -29.4690   20.7740 C   0  0  0  0  0  0  0  0  0  0  0  0
  -27.1730  -28.6950   20.7830 C   0  0  0  0  0  3  0  0  0  0  0  0
  -26.0090  -26.9170   19.6010 C   0  0  0  0  0  3  0  0  0  0  0  0
  -24.8330  -27.6910   19.5770 C   0  0  0  0  0  3  0  0  0  0  0  0
  -23.5800  -29.8300   20.2210 C   0  0  0  0  0  2  0  0  0  0  0  0
  -24.6330  -31.1090   22.1390 N   0  0  0  0  0  0  0  0  0  0  0  0
  -23.4900  -32.1960   23.7720 O   0  0  0  0  0  0  0  0  0  0  0  0
  -22.7080  -29.4990   22.5610 C   0  0  0  0  0  0  0  0  0  0  0  0
  -21.3800  -29.3290   22.4370 N   0  0  0  0  0  0  0  0  0  0  0  0
  -23.3860  -28.8670   23.3760 O   0  0  0  0  0  0  0  0  0  0  0  0
  -20.8940  -29.8860   21.7490 H   0  0  0  0  0  0  0  0  0  0  0  0
  -17.9970  -28.1680   22.9510 C   0  0  0  0  0  0  0  0  0  0  0  0
  -20.5590  -28.4000   23.2130 C   0  0  0  0  0  3  0  0  0  0  0  0
  -20.6440  -26.9670   22.6360 C   0  0  0  0  0  2  0  0  0  0  0  0
  -19.5340  -26.6580   21.6260 C   0  0  0  0  0  2  0  0  0  0  0  0
  -18.1560  -26.8180   22.2730 C   0  0  0  0  0  2  0  0  0  0  0  0
  -19.1250  -28.9180   23.3780 C   0  0  0  0  0  0  0  0  0  0  0  0
  -18.9200  -30.1820   23.9730 C   0  0  0  0  0  3  0  0  0  0  0  0
  -17.6210  -30.6970   24.1420 C   0  0  0  0  0  3  0  0  0  0  0  0
  -16.5080  -29.9430   23.7330 C   0  0  0  0  0  3  0  0  0  0  0  0
  -16.6970  -28.6800   23.1430 C   0  0  0  0  0  3  0  0  0  0  0  0
  -25.8570  -32.5470   23.8590 C   0  0  0  0  0  3  0  0  0  0  0  0
  -25.5530  -33.9470   24.1840 N   0  0  0  0  0  0  0  0  0  0  0  0
  -25.8950  -34.9950   23.4250 C   0  0  0  0  0  0  0  0  0  0  0  0
  -26.5730  -34.8860   22.3990 O   0  0  0  0  0  0  0  0  0  0  0  0
  -24.9550  -34.1060   24.9820 H   0  0  0  0  0  0  0  0  0  0  0  0
  -24.1820  -36.7970   23.0460 C   0  0  0  0  0  1  0  0  0  0  0  0
  -25.4110  -36.3870   23.8750 C   0  0  0  0  0  3  0  0  0  0  0  0
  -27.5440  -37.2560   24.7270 C   0  0  0  0  0  1  0  0  0  0  0  0
  -26.4520  -37.4330   23.7730 N   0  0  0  0  0  0  0  0  0  0  0  0
  -26.0520  -38.3570   23.9160 H   0  0  0  0  0  0  0  0  0  0  0  0
  -26.3710  -31.7780   25.1360 C   0  0  1  0  0  0  0  0  0  0  0  0
  -25.2770  -31.5470   26.2060 C   0  0  0  0  0  1  0  0  0  0  0  0
  -26.9500  -30.3980   24.7480 C   0  0  0  0  0  1  0  0  0  0  0  0
  -27.5290  -32.5680   25.7910 C   0  0  0  0  0  1  0  0  0  0  0  0
  1  3  1  0
  1  5  1  0
  2  4  1  0
  3  6  1  0
  5 10  1  0
  5  2  1  0
  6  7  1  6
  6 55  1  0
  6  4  1  0
  9 11  2  0
 10  8  2  0
 11  8  1  0
 11 25  1  0
 12 10  1  0
 13 12  2  0
 13  9  1  0
 14 15  1  0
 14 12  1  0
 16 14  1  0
 17 25  1  0
 18 23  1  0
 19 20  1  0
 19 18  1  0
 21 20  1  0
 21 30  1  0
 21 22  1  0
 23 17  1  0
 23 22  1  0
 24 17  2  0
 25 26  1  0
 27 28  2  0
 28 29  1  0
 28 47  1  0
 29 32  1  0
 30 27  1  0
 30 31  1  0
 31 29  2  0
 32 33  1  0
 33 34  2  0
 35 38  1  0
 35 34  1  0
 36 35  2  0
 37 36  1  0
 37 32  2  0
 38 39  1  0
 39 40  1  0
 40 41  2  0
 42 41  1  0
 42 46  1  0
 43 42  2  0
 44 39  2  0
 44 43  1  0
 45 44  1  0
 47 48  1  0
 48 51  1  0
 48 50  1  0
 49 47  2  0
 52 53  1  0
 52 27  1  0
 54 52  1  0
 56 55  1  0
 57 68  2  0
 58 56  1  0
 58 63  1  0
 59 67  1  0
 59 69  1  0
 60 66  1  0
 60 62  1  0
 61 67  1  0
 62 63  2  0
 62 61  1  0
 64 58  2  0
 65 64  1  0
 65 60  2  0
 66 59  1  0
 67 57  1  0
 69 71  2  0
 70 69  1  0
 72 70  1  0
 73 82  2  0
 73 78  1  0
 74 70  1  0
 74 78  1  0
 75 74  1  0
 76 77  1  0
 76 75  1  0
 77 73  1  0
 78 79  2  0
 79 80  1  0
 81 80  2  0
 82 81  1  0
 83 57  1  0
 83 84  1  0
 83 93  1  0
 84 87  1  0
 85 89  1  0
 85 84  1  0
 86 85  2  0
 89 88  1  0
 91 89  1  0
 91 92  1  0
 91 90  1  0
 93 96  1  1
 93 94  1  0
 95 93  1  0
M  ISO  4  17 100  25 100  55 101  56 101
M  END
>  <TORSDO>  (13) 
F 18

>  <SCORE>  (13) 
-14.918

>  <name>  (13) 
12

>  <ligand_id>  (13) 
12

>  <original_smiles>  (13) 
[H]c1nc(N([H])[H])c(C2([H])C([H])([H])C([H])([H])C(C([H])([H])[H])(C([H])([H])Oc3c([H])c([H])c4c(c3[H])C([H])([H])N(C(=O)C([H])(N([H])C(=O)C([H])(N([H])C([H])([H])[H])C([H])([H])[H])C(C([H])([H])[H])(C([H])([H])[H])C([H])([H])[H])C([H])(C(=O)N([H])C3([H])c5c([H])c([H])c([H])c([H])c5C([H])([H])C([H])([H])C3([H])[H])C4([H])[H])C([H])([H])C2([H])[H])c([H])c1N([H])C(=O)N1C([H])([H])C([H])([H])C([H])([H])C([H])(n2nc(-c3c([H])c([H])c(Oc4c([H])c([H])c(F)c([H])c4F)c([H])c3[H])c(C(=O)N([H])[H])c2N([H])[H])C1([H])[H]

>  <smiles>  (13) 
[H]c1nc(N([H])[H])c(C2([H])C([H])([H])C([H])([H])C(C([H])([H])[H])(C([H])([H])Oc3c([H])c([H])c4c(c3[H])C([H])([H])N(C(=O)C([H])(N([H])C(=O)C([H])(N([H])C([H])([H])[H])C([H])([H])[H])C(C([H])([H])[H])(C([H])([H])[H])C([H])([H])[H])C([H])(C(=O)N([H])C3([H])c5c([H])c([H])c([H])c([H])c5C([H])([H])C([H])([H])C3([H])[H])C4([H])[H])C([H])([H])C2([H])[H])c([H])c1N([H])C(=O)N1C([H])([H])C([H])([H])C([H])([H])C([H])(n2nc(-c3c([H])c([H])c(Oc4c([H])c([H])c(F)c([H])c4F)c([H])c3[H])c(C(=O)N([H])[H])c2N([H])[H])C1([H])[H]

$$$$
13:0:0
     RDKit          3D

 92101  0  0  1  0  0  0  0  0999 V2000
  -28.7890  -19.9400   20.5830 C   0  0  0  0  0  3  0  0  0  0  0  0
  -30.8150  -21.0740   20.5040 C   0  0  0  0  0  3  0  0  0  0  0  0
  -29.4500  -21.2470   20.4990 C   0  0  0  0  0  0  0  0  0  0  0  0
  -29.6150  -18.7940   20.5910 C   0  0  0  0  0  0  0  0  0  0  0  0
  -31.2770  -19.3630   20.5830 S   0  0  0  0  0  0  0  0  0  0  0  0
  -30.7000  -14.9790   20.6250 C   0  0  0  0  0  0  0  0  0  0  0  0
  -30.5110  -12.6760   19.6560 C   0  0  0  0  0  2  0  0  0  0  0  0
  -29.6110  -12.6150   18.4020 C   0  0  0  0  0  2  0  0  0  0  0  0
  -28.1390  -12.4230   18.8070 C   0  0  0  0  0  2  0  0  0  0  0  0
  -27.7000  -13.3750   19.9450 C   0  0  0  0  0  3  0  0  0  0  0  0
  -28.7240  -13.4220   21.0970 C   0  0  0  0  0  2  0  0  0  0  0  0
  -30.0140  -13.7870   20.5010 N   0  0  0  0  0  0  0  0  0  0  0  0
  -31.9330  -14.9320   20.5600 O   0  0  0  0  0  0  0  0  0  0  0  0
  -29.2790  -17.1630   18.0770 C   0  0  0  0  0  2  0  0  0  0  0  0
  -28.2760  -17.2540   19.2270 C   0  0  0  0  0  2  0  0  0  0  0  0
  -30.4830  -16.4200   18.6700 C   0  0  0  0  0  2  0  0  0  0  0  0
  -29.1720  -17.2640   20.4730 C   0  0  0  0  0  3  0  0  0  0  0  0
  -30.1320  -16.1350   20.0650 N   0  0  0  0  0  0  0  0  0  0  0  0
  -25.2850  -13.9590   20.5810 C   0  0  0  0  0  0  0  0  0  0  0  0
  -24.2120  -13.1760   20.9100 C   0  0  0  0  0  0  0  0  0  0  0  0
  -24.6920  -11.8320   20.9170 C   0  0  0  0  0  0  0  0  0  0  0  0
  -26.3460  -13.0880   20.4000 N   0  0  0  0  0  0  0  0  0  0  0  0
  -25.9950  -11.8070   20.6730 N   0  0  0  0  0  0  0  0  0  0  0  0
  -23.9760  -10.5620   21.0850 C   0  0  0  0  0  0  0  0  0  0  0  0
  -24.3850   -9.6110   22.0450 C   0  0  0  0  0  3  0  0  0  0  0  0
  -23.6710   -8.4040   22.2040 C   0  0  0  0  0  3  0  0  0  0  0  0
  -22.5330   -8.1430   21.4040 C   0  0  0  0  0  0  0  0  0  0  0  0
  -22.1460   -9.0830   20.4320 C   0  0  0  0  0  3  0  0  0  0  0  0
  -22.8610  -10.2810   20.2720 C   0  0  0  0  0  3  0  0  0  0  0  0
  -21.7910   -6.9890   21.4690 O   0  0  0  0  0  0  0  0  0  0  0  0
  -21.6980   -6.2610   22.6270 C   0  0  0  0  0  0  0  0  0  0  0  0
  -21.1760   -6.8140   23.8160 C   0  0  0  0  0  3  0  0  0  0  0  0
  -21.0350   -6.0070   24.9640 C   0  0  0  0  0  3  0  0  0  0  0  0
  -21.4040   -4.6500   24.9200 C   0  0  0  0  0  0  0  0  0  0  0  0
  -21.9180   -4.0970   23.7340 C   0  0  0  0  0  3  0  0  0  0  0  0
  -22.0630   -4.9000   22.5900 C   0  0  0  0  0  0  0  0  0  0  0  0
  -22.5410   -4.3590   21.4440 F   0  0  0  0  0  0  0  0  0  0  0  0
  -21.2610   -3.8720   26.0190 F   0  0  0  0  0  0  0  0  0  0  0  0
  -22.8000  -13.6400   21.1090 C   0  0  0  0  0  0  0  0  0  0  0  0
  -22.0450  -12.9500   21.9560 N   0  0  0  0  0  0  0  0  0  0  0  0
  -22.3710  -14.6490   20.5490 O   0  0  0  0  0  0  0  0  0  0  0  0
  -22.4030  -12.1330   22.4300 H   0  0  0  0  0  0  0  0  0  0  0  0
  -21.0970  -13.2460   22.1370 H   0  0  0  0  0  0  0  0  0  0  0  0
  -25.4360  -15.3290   20.4000 N   0  0  0  0  0  0  0  0  0  0  0  0
  -24.6540  -15.9720   20.4650 H   0  0  0  0  0  0  0  0  0  0  0  0
  -26.2970  -15.7780   20.1230 H   0  0  0  0  0  0  0  0  0  0  0  0
  -29.1170  -23.8900   20.3840 C   0  0  0  0  0  0  0  0  0  0  0  0
  -28.7350  -22.5490   20.3540 N   0  0  0  0  0  0  0  0  0  0  0  0
  -30.2630  -24.2300   20.6880 O   0  0  0  0  0  0  0  0  0  0  0  0
  -27.7480  -22.4420   20.1560 H   0  0  0  0  0  0  0  0  0  0  0  0
  -28.0460  -25.0320   20.0050 C   0  0  0  0  0  2  0  0  0  0  0  0
  -28.3130  -26.4960   20.2890 O   0  0  0  0  0  0  0  0  0  0  0  0
  -24.5600  -31.9800   23.2940 C   0  0  0  0  0  0  0  0  0  0  0  0
  -27.2140  -27.3990   20.2290 C   0  0  0  0  0  0  0  0  0  0  0  0
  -23.3730  -30.5760   21.6500 C   0  0  0  0  0  3  0  0  0  0  0  0
  -24.8410  -29.0440   20.2150 C   0  0  0  0  0  0  0  0  0  0  0  0
  -25.9160  -30.8990   21.4780 C   0  0  0  0  0  2  0  0  0  0  0  0
  -26.0090  -29.5190   20.8240 C   0  0  0  0  0  0  0  0  0  0  0  0
  -27.1970  -28.7110   20.8200 C   0  0  0  0  0  3  0  0  0  0  0  0
  -26.0180  -27.0030   19.5840 C   0  0  0  0  0  3  0  0  0  0  0  0
  -24.8550  -27.7940   19.5790 C   0  0  0  0  0  3  0  0  0  0  0  0
  -23.5950  -29.9090   20.2690 C   0  0  0  0  0  2  0  0  0  0  0  0
  -24.6360  -31.1690   22.1970 N   0  0  0  0  0  0  0  0  0  0  0  0
  -23.4730  -32.2490   23.8250 O   0  0  0  0  0  0  0  0  0  0  0  0
  -22.7120  -29.5540   22.6070 C   0  0  0  0  0  0  0  0  0  0  0  0
  -21.3910  -29.3500   22.4640 N   0  0  0  0  0  0  0  0  0  0  0  0
  -23.3900  -28.9430   23.4370 O   0  0  0  0  0  0  0  0  0  0  0  0
  -20.8980  -29.8950   21.7690 H   0  0  0  0  0  0  0  0  0  0  0  0
  -18.0310  -28.0850   22.9240 C   0  0  0  0  0  0  0  0  0  0  0  0
  -20.5790  -28.4020   23.2290 C   0  0  0  0  0  3  0  0  0  0  0  0
  -20.7190  -26.9670   22.6670 C   0  0  0  0  0  2  0  0  0  0  0  0
  -19.6390  -26.6150   21.6390 C   0  0  0  0  0  2  0  0  0  0  0  0
  -18.2460  -26.7350   22.2610 C   0  0  0  0  0  2  0  0  0  0  0  0
  -19.1270  -28.8750   23.3640 C   0  0  0  0  0  0  0  0  0  0  0  0
  -18.8730  -30.1370   23.9430 C   0  0  0  0  0  3  0  0  0  0  0  0
  -17.5550  -30.6110   24.0840 C   0  0  0  0  0  3  0  0  0  0  0  0
  -16.4730  -29.8190   23.6600 C   0  0  0  0  0  3  0  0  0  0  0  0
  -16.7130  -28.5580   23.0880 C   0  0  0  0  0  3  0  0  0  0  0  0
  -25.8360  -32.6250   23.9180 C   0  0  0  0  0  3  0  0  0  0  0  0
  -25.5220  -34.0300   24.2220 N   0  0  0  0  0  0  0  0  0  0  0  0
  -25.8670  -35.0720   23.4540 C   0  0  0  0  0  0  0  0  0  0  0  0
  -26.5530  -34.9530   22.4350 O   0  0  0  0  0  0  0  0  0  0  0  0
  -24.9130  -34.1950   25.0100 H   0  0  0  0  0  0  0  0  0  0  0  0
  -24.1590  -36.8720   23.0360 C   0  0  0  0  0  1  0  0  0  0  0  0
  -25.3750  -36.4680   23.8840 C   0  0  0  0  0  3  0  0  0  0  0  0
  -27.4880  -37.3540   24.7700 C   0  0  0  0  0  1  0  0  0  0  0  0
  -26.4160  -37.5160   23.7910 N   0  0  0  0  0  0  0  0  0  0  0  0
  -26.0090  -38.4390   23.9150 H   0  0  0  0  0  0  0  0  0  0  0  0
  -26.3350  -31.8790   25.2160 C   0  0  1  0  0  0  0  0  0  0  0  0
  -25.2270  -31.6570   26.2730 C   0  0  0  0  0  1  0  0  0  0  0  0
  -26.9280  -30.4960   24.8580 C   0  0  0  0  0  1  0  0  0  0  0  0
  -27.4710  -32.6870   25.8830 C   0  0  0  0  0  1  0  0  0  0  0  0
  1  4  2  0
  2  5  1  0
  3  2  2  0
  3  1  1  0
  5  4  1  0
  7 12  1  0
  8  9  1  0
  8  7  1  0
 10  9  1  0
 10 22  1  0
 10 11  1  0
 12  6  1  0
 12 11  1  0
 13  6  2  0
 14 16  1  0
 14 15  1  0
 15 17  1  0
 16 18  1  0
 17  4  1  0
 18 17  1  0
 18  6  1  0
 19 20  2  0
 20 21  1  0
 20 39  1  0
 21 24  1  0
 22 19  1  0
 22 23  1  0
 23 21  2  0
 24 25  1  0
 25 26  2  0
 27 30  1  0
 27 26  1  0
 28 27  2  0
 29 28  1  0
 29 24  2  0
 30 31  1  0
 31 32  1  0
 32 33  2  0
 34 33  1  0
 34 38  1  0
 35 34  2  0
 36 31  2  0
 36 35  1  0
 37 36  1  0
 39 40  1  0
 40 43  1  0
 40 42  1  0
 41 39  2  0
 44 45  1  0
 44 19  1  0
 46 44  1  0
 47 49  2  0
 48 47  1  0
 48  3  1  0
 50 48  1  0
 51 52  1  0
 51 47  1  0
 53 64  2  0
 54 52  1  0
 54 59  1  0
 55 63  1  0
 55 65  1  0
 56 62  1  0
 56 58  1  0
 57 63  1  0
 58 57  1  0
 59 58  2  0
 60 54  2  0
 61 60  1  0
 61 56  2  0
 62 55  1  0
 63 53  1  0
 65 67  2  0
 66 65  1  0
 68 66  1  0
 69 78  2  0
 69 74  1  0
 70 66  1  0
 70 74  1  0
 71 70  1  0
 72 73  1  0
 72 71  1  0
 73 69  1  0
 74 75  2  0
 75 76  1  0
 77 76  2  0
 78 77  1  0
 79 53  1  0
 79 80  1  0
 79 89  1  0
 80 83  1  0
 81 85  1  0
 81 80  1  0
 82 81  2  0
 85 84  1  0
 87 85  1  0
 87 88  1  0
 87 86  1  0
 89 92  1  1
 89 90  1  0
 91 89  1  0
M  ISO  4   6 100  18 100  51 101  52 101
M  END
>  <TORSDO>  (14) 
F 18

>  <SCORE>  (14) 
-14.437

>  <name>  (14) 
13

>  <ligand_id>  (14) 
13

>  <original_smiles>  (14) 
[H]c1sc(C2([H])N(C(=O)N3C([H])([H])C([H])([H])C([H])([H])C([H])(n4nc(-c5c([H])c([H])c(Oc6c([H])c([H])c(F)c([H])c6F)c([H])c5[H])c(C(=O)N([H])[H])c4N([H])[H])C3([H])[H])C([H])([H])C([H])([H])C2([H])[H])c([H])c1N([H])C(=O)C([H])([H])Oc1c([H])c([H])c2c(c1[H])C([H])([H])N(C(=O)C([H])(N([H])C(=O)C([H])(N([H])C([H])([H])[H])C([H])([H])[H])C(C([H])([H])[H])(C([H])([H])[H])C([H])([H])[H])C([H])(C(=O)N([H])C1([H])c3c([H])c([H])c([H])c([H])c3C([H])([H])C([H])([H])C1([H])[H])C2([H])[H]

>  <smiles>  (14) 
[H]c1sc(C2([H])N(C(=O)N3C([H])([H])C([H])([H])C([H])([H])C([H])(n4nc(-c5c([H])c([H])c(Oc6c([H])c([H])c(F)c([H])c6F)c([H])c5[H])c(C(=O)N([H])[H])c4N([H])[H])C3([H])[H])C([H])([H])C([H])([H])C2([H])[H])c([H])c1N([H])C(=O)C([H])([H])Oc1c([H])c([H])c2c(c1[H])C([H])([H])N(C(=O)C([H])(N([H])C(=O)C([H])(N([H])C([H])([H])[H])C([H])([H])[H])C(C([H])([H])[H])(C([H])([H])[H])C([H])([H])[H])C([H])(C(=O)N([H])C1([H])c3c([H])c([H])c([H])c([H])c3C([H])([H])C([H])([H])C1([H])[H])C2([H])[H]

$$$$
14:0:0
     RDKit          3D

 98106  0  0  1  0  0  0  0  0999 V2000
  -30.0580  -19.4960   22.3120 C   0  0  0  0  0  3  0  0  0  0  0  0
  -30.8550  -17.1880   22.5030 C   0  0  0  0  0  3  0  0  0  0  0  0
  -30.0580  -18.0350   20.3580 C   0  0  0  0  0  3  0  0  0  0  0  0
  -30.5720  -18.4370   23.0950 C   0  0  0  0  0  0  0  0  0  0  0  0
  -29.7790  -19.3160   20.9290 C   0  0  0  0  0  0  0  0  0  0  0  0
  -30.5930  -16.9650   21.1360 C   0  0  0  0  0  0  0  0  0  0  0  0
  -31.4830  -14.6170   20.6250 C   0  0  0  0  0  0  0  0  0  0  0  0
  -31.3350  -12.2980   19.7540 C   0  0  0  0  0  2  0  0  0  0  0  0
  -30.4440  -12.3260   18.4910 C   0  0  0  0  0  2  0  0  0  0  0  0
  -28.9460  -12.2440   18.8540 C   0  0  0  0  0  2  0  0  0  0  0  0
  -28.5490  -13.2360   19.9780 C   0  0  0  0  0  3  0  0  0  0  0  0
  -29.5380  -13.1230   21.1610 C   0  0  0  0  0  2  0  0  0  0  0  0
  -30.8890  -13.3900   20.6300 N   0  0  0  0  0  0  0  0  0  0  0  0
  -32.6610  -14.8040   20.3010 O   0  0  0  0  0  0  0  0  0  0  0  0
  -30.5580  -15.6030   20.7080 N   0  0  0  0  0  0  0  0  0  0  0  0
  -29.6440  -15.1900   20.8040 H   0  0  0  0  0  0  0  0  0  0  0  0
  -26.1750  -14.0110   20.5950 C   0  0  0  0  0  0  0  0  0  0  0  0
  -25.0450  -13.3100   20.9250 C   0  0  0  0  0  0  0  0  0  0  0  0
  -25.4190  -11.9320   20.9130 C   0  0  0  0  0  0  0  0  0  0  0  0
  -27.1660  -13.0590   20.4030 N   0  0  0  0  0  0  0  0  0  0  0  0
  -26.7130  -11.8050   20.6510 N   0  0  0  0  0  0  0  0  0  0  0  0
  -24.6100  -10.7190   21.0750 C   0  0  0  0  0  0  0  0  0  0  0  0
  -24.9400   -9.7360   22.0320 C   0  0  0  0  0  3  0  0  0  0  0  0
  -24.1360   -8.5860   22.1820 C   0  0  0  0  0  3  0  0  0  0  0  0
  -22.9900   -8.4120   21.3720 C   0  0  0  0  0  0  0  0  0  0  0  0
  -22.6800   -9.3830   20.4040 C   0  0  0  0  0  3  0  0  0  0  0  0
  -23.4830  -10.5250   20.2530 C   0  0  0  0  0  3  0  0  0  0  0  0
  -22.1670   -7.3130   21.4280 O   0  0  0  0  0  0  0  0  0  0  0  0
  -21.9990   -6.6000   22.5870 C   0  0  0  0  0  0  0  0  0  0  0  0
  -21.5170   -7.2010   23.7690 C   0  0  0  0  0  3  0  0  0  0  0  0
  -21.2940   -6.4160   24.9180 C   0  0  0  0  0  3  0  0  0  0  0  0
  -21.5410   -5.0310   24.8850 C   0  0  0  0  0  0  0  0  0  0  0  0
  -22.0160   -4.4290   23.7060 C   0  0  0  0  0  3  0  0  0  0  0  0
  -22.2410   -5.2110   22.5600 C   0  0  0  0  0  0  0  0  0  0  0  0
  -22.6790   -4.6220   21.4200 F   0  0  0  0  0  0  0  0  0  0  0  0
  -21.3190   -4.2760   25.9860 F   0  0  0  0  0  0  0  0  0  0  0  0
  -23.6720  -13.8770   21.1460 C   0  0  0  0  0  0  0  0  0  0  0  0
  -22.8790  -13.2380   22.0000 N   0  0  0  0  0  0  0  0  0  0  0  0
  -23.3130  -14.9180   20.6000 O   0  0  0  0  0  0  0  0  0  0  0  0
  -23.1830  -12.3940   22.4610 H   0  0  0  0  0  0  0  0  0  0  0  0
  -21.9570  -13.5980   22.1950 H   0  0  0  0  0  0  0  0  0  0  0  0
  -26.4310  -15.3680   20.4280 N   0  0  0  0  0  0  0  0  0  0  0  0
  -25.6950  -16.0610   20.5160 H   0  0  0  0  0  0  0  0  0  0  0  0
  -27.2990  -15.7620   20.0880 H   0  0  0  0  0  0  0  0  0  0  0  0
  -30.7460  -18.5980   24.5420 C   0  0  0  0  0  0  0  0  0  0  0  0
  -31.3950  -19.6420   25.0490 N   0  0  0  0  0  4  0  0  0  0  0  0
  -30.2410  -17.6990   25.3850 N   0  0  0  0  0  0  0  0  0  0  0  0
  -31.8130  -20.3110   24.4210 H   0  0  0  0  0  0  0  0  0  0  0  0
  -31.5370  -19.7620   26.0410 H   0  0  0  0  0  0  0  0  0  0  0  0
  -29.6720  -16.9470   25.0230 H   0  0  0  0  0  0  0  0  0  0  0  0
  -30.3570  -17.7590   26.3840 H   0  0  0  0  0  0  0  0  0  0  0  0
  -28.8530  -21.5020   20.4810 C   0  0  0  0  0  3  0  0  0  0  0  0
  -29.1880  -20.3150   20.1010 N   0  0  0  0  0  0  0  0  0  0  0  0
  -28.8560  -22.5900   18.1810 C   0  0  0  0  0  1  0  0  0  0  0  0
  -28.1660  -22.5470   19.5640 C   0  0  0  0  0  3  0  0  0  0  0  0
  -28.0270  -23.9770   20.2090 C   0  0  0  0  0  2  0  0  0  0  0  0
  -27.6300  -25.1500   19.2470 C   0  0  0  0  0  2  0  0  0  0  0  0
  -27.6430  -26.4640   19.8570 O   0  0  0  0  0  0  0  0  0  0  0  0
  -24.5020  -31.8030   23.4080 C   0  0  0  0  0  0  0  0  0  0  0  0
  -26.5110  -27.2680   19.9520 C   0  0  0  0  0  0  0  0  0  0  0  0
  -23.0610  -30.5870   21.8060 C   0  0  0  0  0  3  0  0  0  0  0  0
  -24.2640  -28.9930   20.2130 C   0  0  0  0  0  0  0  0  0  0  0  0
  -25.5880  -30.7270   21.4330 C   0  0  0  0  0  2  0  0  0  0  0  0
  -25.5030  -29.3810   20.7350 C   0  0  0  0  0  0  0  0  0  0  0  0
  -26.6230  -28.5260   20.6020 C   0  0  0  0  0  3  0  0  0  0  0  0
  -25.2450  -26.8990   19.4420 C   0  0  0  0  0  3  0  0  0  0  0  0
  -24.1310  -27.7510   19.5700 C   0  0  0  0  0  3  0  0  0  0  0  0
  -23.1110  -29.9600   20.3860 C   0  0  0  0  0  2  0  0  0  0  0  0
  -24.4070  -31.0530   22.2710 N   0  0  0  0  0  0  0  0  0  0  0  0
  -23.4900  -32.1440   24.0370 O   0  0  0  0  0  0  0  0  0  0  0  0
  -22.3930  -29.5800   22.7720 C   0  0  0  0  0  0  0  0  0  0  0  0
  -21.0730  -29.3910   22.6170 N   0  0  0  0  0  0  0  0  0  0  0  0
  -23.0580  -28.9730   23.6140 O   0  0  0  0  0  0  0  0  0  0  0  0
  -20.6010  -29.9350   21.9090 H   0  0  0  0  0  0  0  0  0  0  0  0
  -17.7270  -28.0490   22.9200 C   0  0  0  0  0  0  0  0  0  0  0  0
  -20.2390  -28.4610   23.3800 C   0  0  0  0  0  3  0  0  0  0  0  0
  -20.4590  -27.0040   22.9130 C   0  0  0  0  0  2  0  0  0  0  0  0
  -19.4620  -26.5570   21.8380 C   0  0  0  0  0  2  0  0  0  0  0  0
  -18.0250  -26.6680   22.3560 C   0  0  0  0  0  2  0  0  0  0  0  0
  -18.7690  -28.8960   23.3850 C   0  0  0  0  0  0  0  0  0  0  0  0
  -18.4410  -30.1820   23.8690 C   0  0  0  0  0  3  0  0  0  0  0  0
  -17.1050  -30.6270   23.8890 C   0  0  0  0  0  3  0  0  0  0  0  0
  -16.0770  -29.7770   23.4450 C   0  0  0  0  0  3  0  0  0  0  0  0
  -16.3870  -28.4920   22.9660 C   0  0  0  0  0  3  0  0  0  0  0  0
  -25.8800  -32.2870   23.9560 C   0  0  0  0  0  3  0  0  0  0  0  0
  -25.7160  -33.6760   24.4080 N   0  0  0  0  0  0  0  0  0  0  0  0
  -26.0860  -34.7520   23.7020 C   0  0  0  0  0  0  0  0  0  0  0  0
  -26.6730  -34.6750   22.6190 O   0  0  0  0  0  0  0  0  0  0  0  0
  -25.1950  -33.8180   25.2610 H   0  0  0  0  0  0  0  0  0  0  0  0
  -24.4910  -36.6910   23.6060 C   0  0  0  0  0  1  0  0  0  0  0  0
  -25.7500  -36.1350   24.2910 C   0  0  0  0  0  3  0  0  0  0  0  0
  -27.9990  -36.7870   25.0210 C   0  0  0  0  0  1  0  0  0  0  0  0
  -26.8540  -37.1110   24.1730 N   0  0  0  0  0  0  0  0  0  0  0  0
  -26.5340  -38.0450   24.4140 H   0  0  0  0  0  0  0  0  0  0  0  0
  -26.4390  -31.3860   25.1250 C   0  0  1  0  0  0  0  0  0  0  0  0
  -25.4180  -31.1350   26.2600 C   0  0  0  0  0  1  0  0  0  0  0  0
  -26.8880  -30.0100   24.5790 C   0  0  0  0  0  1  0  0  0  0  0  0
  -27.6960  -32.0460   25.7410 C   0  0  0  0  0  1  0  0  0  0  0  0
  1  4  1  0
  2  4  2  0
  3  5  1  0
  3  6  2  0
  4 45  1  0
  5  1  2  0
  6  2  1  0
  7 13  1  0
  7 15  1  0
  8 13  1  0
  9 10  1  0
  9  8  1  0
 11 10  1  0
 11 20  1  0
 11 12  1  0
 13 12  1  0
 14  7  2  0
 15 16  1  0
 15  6  1  0
 17 18  2  0
 18 37  1  0
 19 18  1  0
 19 22  1  0
 20 17  1  0
 20 21  1  0
 21 19  2  0
 22 23  1  0
 23 24  2  0
 25 28  1  0
 25 24  1  0
 26 25  2  0
 27 26  1  0
 27 22  2  0
 28 29  1  0
 29 30  1  0
 30 31  2  0
 32 31  1  0
 32 36  1  0
 33 32  2  0
 34 29  2  0
 34 33  1  0
 35 34  1  0
 37 38  1  0
 38 41  1  0
 38 40  1  0
 39 37  2  0
 42 43  1  0
 42 17  1  0
 44 42  1  0
 45 46  2  0
 45 47  1  0
 46 49  1  0
 47 51  1  0
 48 46  1  0
 50 47  1  0
 53 52  2  0
 53  5  1  0
 55 54  1  0
 55 56  1  0
 55 52  1  0
 57 58  1  0
 57 56  1  0
 58 60  1  0
 59 70  2  0
 60 65  1  0
 61 69  1  0
 61 71  1  0
 62 68  1  0
 62 64  1  0
 63 69  1  0
 64 63  1  0
 65 64  2  0
 66 67  1  0
 66 60  2  0
 67 62  2  0
 68 61  1  0
 69 59  1  0
 71 73  2  0
 72 71  1  0
 74 72  1  0
 75 84  2  0
 75 80  1  0
 76 72  1  0
 76 80  1  0
 77 76  1  0
 78 79  1  0
 78 77  1  0
 79 75  1  0
 80 81  2  0
 81 82  1  0
 83 82  2  0
 84 83  1  0
 85 59  1  0
 85 86  1  0
 85 95  1  0
 86 89  1  0
 87 91  1  0
 87 86  1  0
 88 87  2  0
 91 90  1  0
 93 91  1  0
 93 94  1  0
 93 92  1  0
 95 98  1  1
 95 96  1  0
 97 95  1  0
M  ISO  4   7 100  15 100  57 101  58 101
M  END
>  <TORSDO>  (15) 
F 21

>  <SCORE>  (15) 
-7.254

>  <name>  (15) 
14

>  <ligand_id>  (15) 
14

>  <original_smiles>  (15) 
[H]C(=Nc1c([H])c(C(N([H])[H])=[N+]([H])[H])c([H])c(N([H])C(=O)N2C([H])([H])C([H])([H])C([H])([H])C([H])(n3nc(-c4c([H])c([H])c(Oc5c([H])c([H])c(F)c([H])c5F)c([H])c4[H])c(C(=O)N([H])[H])c3N([H])[H])C2([H])[H])c1[H])C([H])(C([H])([H])[H])C([H])([H])C([H])([H])Oc1c([H])c([H])c2c(c1[H])C([H])([H])N(C(=O)C([H])(N([H])C(=O)C([H])(N([H])C([H])([H])[H])C([H])([H])[H])C(C([H])([H])[H])(C([H])([H])[H])C([H])([H])[H])C([H])(C(=O)N([H])C1([H])c3c([H])c([H])c([H])c([H])c3C([H])([H])C([H])([H])C1([H])[H])C2([H])[H]

>  <smiles>  (15) 
[H]C(=Nc1c([H])c(C(N([H])[H])=[N+]([H])[H])c([H])c(N([H])C(=O)N2C([H])([H])C([H])([H])C([H])([H])C([H])(n3nc(-c4c([H])c([H])c(Oc5c([H])c([H])c(F)c([H])c5F)c([H])c4[H])c(C(=O)N([H])[H])c3N([H])[H])C2([H])[H])c1[H])C([H])(C([H])([H])[H])C([H])([H])C([H])([H])Oc1c([H])c([H])c2c(c1[H])C([H])([H])N(C(=O)C([H])(N([H])C(=O)C([H])(N([H])C([H])([H])[H])C([H])([H])[H])C(C([H])([H])[H])(C([H])([H])[H])C([H])([H])[H])C([H])(C(=O)N([H])C1([H])c3c([H])c([H])c([H])c([H])c3C([H])([H])C([H])([H])C1([H])[H])C2([H])[H]

$$$$
15:0:0
     RDKit          3D

 90 99  0  0  1  0  0  0  0  0999 V2000
  -31.0990  -18.1720   19.7120 C   0  0  0  0  0  3  0  0  0  0  0  0
  -30.0800  -17.4990   20.3620 C   0  0  0  0  0  0  0  0  0  0  0  0
  -29.7280  -19.8100   20.3220 C   0  0  0  0  0  0  0  0  0  0  0  0
  -28.2080  -23.5810   20.7410 C   0  0  0  0  0  0  0  0  0  0  0  0
  -27.8670  -24.9580   20.7830 C   0  0  0  0  0  3  0  0  0  0  0  0
  -27.2470  -22.5970   21.3690 C   0  0  0  0  0  2  0  0  0  0  0  0
  -29.3220  -22.5760   20.2060 C   0  0  0  0  0  2  0  0  0  0  0  0
  -27.9590  -21.2360   21.5400 C   0  0  0  0  0  2  0  0  0  0  0  0
  -30.8720  -19.5700   19.6820 N   0  0  0  0  0  0  0  0  0  0  0  0
  -29.0680  -21.1030   20.5990 N   0  0  0  0  0  0  0  0  0  0  0  0
  -29.1990  -18.5780   20.7610 O   0  0  0  0  0  0  0  0  0  0  0  0
  -30.6080  -14.9580   20.3410 C   0  0  0  0  0  0  0  0  0  0  0  0
  -30.4550  -12.6380   19.3680 C   0  0  0  0  0  2  0  0  0  0  0  0
  -29.5200  -12.6530   18.1370 C   0  0  0  0  0  2  0  0  0  0  0  0
  -28.0530  -12.4580   18.5640 C   0  0  0  0  0  2  0  0  0  0  0  0
  -27.6620  -13.3590   19.7660 C   0  0  0  0  0  3  0  0  0  0  0  0
  -28.7190  -13.3200   20.8910 C   0  0  0  0  0  2  0  0  0  0  0  0
  -30.0030  -13.7090   20.2970 N   0  0  0  0  0  0  0  0  0  0  0  0
  -31.7930  -15.0420   20.0010 O   0  0  0  0  0  0  0  0  0  0  0  0
  -29.8370  -16.1110   20.5980 N   0  0  0  0  0  0  0  0  0  0  0  0
  -28.9090  -15.8990   20.9330 H   0  0  0  0  0  0  0  0  0  0  0  0
  -25.2730  -13.9350   20.4900 C   0  0  0  0  0  0  0  0  0  0  0  0
  -24.2100  -13.1570   20.8610 C   0  0  0  0  0  0  0  0  0  0  0  0
  -24.6800  -11.8070   20.8370 C   0  0  0  0  0  0  0  0  0  0  0  0
  -26.3200  -13.0590   20.2570 N   0  0  0  0  0  0  0  0  0  0  0  0
  -25.9710  -11.7760   20.5310 N   0  0  0  0  0  0  0  0  0  0  0  0
  -23.9570  -10.5440   21.0290 C   0  0  0  0  0  0  0  0  0  0  0  0
  -24.3940   -9.5780   21.9630 C   0  0  0  0  0  3  0  0  0  0  0  0
  -23.6700   -8.3790   22.1440 C   0  0  0  0  0  3  0  0  0  0  0  0
  -22.4960   -8.1370   21.3920 C   0  0  0  0  0  0  0  0  0  0  0  0
  -22.0790   -9.0920   20.4470 C   0  0  0  0  0  3  0  0  0  0  0  0
  -22.8030  -10.2810   20.2630 C   0  0  0  0  0  3  0  0  0  0  0  0
  -21.7430   -6.9910   21.4820 O   0  0  0  0  0  0  0  0  0  0  0  0
  -21.7000   -6.2480   22.6340 C   0  0  0  0  0  0  0  0  0  0  0  0
  -21.2700   -6.7970   23.8610 C   0  0  0  0  0  3  0  0  0  0  0  0
  -21.1750   -5.9790   25.0040 C   0  0  0  0  0  3  0  0  0  0  0  0
  -21.5020   -4.6130   24.9220 C   0  0  0  0  0  0  0  0  0  0  0  0
  -21.9270   -4.0620   23.7000 C   0  0  0  0  0  3  0  0  0  0  0  0
  -22.0230   -4.8770   22.5590 C   0  0  0  0  0  0  0  0  0  0  0  0
  -22.4120   -4.3370   21.3790 F   0  0  0  0  0  0  0  0  0  0  0  0
  -21.4040   -3.8250   26.0190 F   0  0  0  0  0  0  0  0  0  0  0  0
  -22.8110  -13.6290   21.1250 C   0  0  0  0  0  0  0  0  0  0  0  0
  -22.0830  -12.9370   21.9960 N   0  0  0  0  0  0  0  0  0  0  0  0
  -22.3690  -14.6490   20.5950 O   0  0  0  0  0  0  0  0  0  0  0  0
  -22.4540  -12.1130   22.4450 H   0  0  0  0  0  0  0  0  0  0  0  0
  -21.1440  -13.2360   22.2160 H   0  0  0  0  0  0  0  0  0  0  0  0
  -25.4300  -15.3060   20.3070 N   0  0  0  0  0  0  0  0  0  0  0  0
  -24.6550  -15.9520   20.4070 H   0  0  0  0  0  0  0  0  0  0  0  0
  -26.2650  -15.7450   19.9430 H   0  0  0  0  0  0  0  0  0  0  0  0
  -28.3230  -26.2640   20.3470 O   0  0  0  0  0  0  0  0  0  0  0  0
  -24.6720  -31.9370   23.2690 C   0  0  0  0  0  0  0  0  0  0  0  0
  -27.3180  -27.2850   20.2560 C   0  0  0  0  0  0  0  0  0  0  0  0
  -23.5050  -30.5510   21.5960 C   0  0  0  0  0  3  0  0  0  0  0  0
  -24.9870  -29.0000   20.1850 C   0  0  0  0  0  0  0  0  0  0  0  0
  -26.0600  -30.8310   21.4840 C   0  0  0  0  0  2  0  0  0  0  0  0
  -26.1510  -29.4470   20.8260 C   0  0  0  0  0  0  0  0  0  0  0  0
  -27.3210  -28.6030   20.8540 C   0  0  0  0  0  3  0  0  0  0  0  0
  -26.1390  -26.9420   19.5570 C   0  0  0  0  0  3  0  0  0  0  0  0
  -24.9920  -27.7590   19.5350 C   0  0  0  0  0  3  0  0  0  0  0  0
  -23.7540  -29.8870   20.2160 C   0  0  0  0  0  2  0  0  0  0  0  0
  -24.7640  -31.1260   22.1730 N   0  0  0  0  0  0  0  0  0  0  0  0
  -23.5750  -32.2160   23.7770 O   0  0  0  0  0  0  0  0  0  0  0  0
  -22.8120  -29.5330   22.5360 C   0  0  0  0  0  0  0  0  0  0  0  0
  -21.4840  -29.3750   22.3940 N   0  0  0  0  0  0  0  0  0  0  0  0
  -23.4700  -28.8890   23.3570 O   0  0  0  0  0  0  0  0  0  0  0  0
  -21.0100  -29.9460   21.7080 H   0  0  0  0  0  0  0  0  0  0  0  0
  -18.0800  -28.2370   22.8810 C   0  0  0  0  0  0  0  0  0  0  0  0
  -20.6450  -28.4370   23.1450 C   0  0  0  0  0  3  0  0  0  0  0  0
  -20.7130  -27.0180   22.5350 C   0  0  0  0  0  2  0  0  0  0  0  0
  -19.6020  -26.7440   21.5180 C   0  0  0  0  0  2  0  0  0  0  0  0
  -18.2260  -26.9020   22.1710 C   0  0  0  0  0  2  0  0  0  0  0  0
  -19.2160  -28.9650   23.3240 C   0  0  0  0  0  0  0  0  0  0  0  0
  -19.0260  -30.2160   23.9510 C   0  0  0  0  0  3  0  0  0  0  0  0
  -17.7310  -30.7380   24.1370 C   0  0  0  0  0  3  0  0  0  0  0  0
  -16.6110  -30.0070   23.7080 C   0  0  0  0  0  3  0  0  0  0  0  0
  -16.7860  -28.7580   23.0870 C   0  0  0  0  0  3  0  0  0  0  0  0
  -25.9390  -32.5670   23.9240 C   0  0  0  0  0  3  0  0  0  0  0  0
  -25.6230  -33.9680   24.2470 N   0  0  0  0  0  0  0  0  0  0  0  0
  -25.9390  -35.0180   23.4790 C   0  0  0  0  0  0  0  0  0  0  0  0
  -26.5920  -34.9120   22.4380 O   0  0  0  0  0  0  0  0  0  0  0  0
  -25.0400  -34.1230   25.0560 H   0  0  0  0  0  0  0  0  0  0  0  0
  -24.1810  -36.7900   23.1630 C   0  0  0  0  0  1  0  0  0  0  0  0
  -25.4530  -36.4080   23.9360 C   0  0  0  0  0  3  0  0  0  0  0  0
  -27.6040  -37.3280   24.6860 C   0  0  0  0  0  1  0  0  0  0  0  0
  -26.4700  -37.4690   23.7750 N   0  0  0  0  0  0  0  0  0  0  0  0
  -26.0580  -38.3870   23.9210 H   0  0  0  0  0  0  0  0  0  0  0  0
  -26.4160  -31.7970   25.2160 C   0  0  1  0  0  0  0  0  0  0  0  0
  -25.2950  -31.5680   26.2550 C   0  0  0  0  0  1  0  0  0  0  0  0
  -27.0040  -30.4150   24.8480 C   0  0  0  0  0  1  0  0  0  0  0  0
  -27.5530  -32.5880   25.9060 C   0  0  0  0  0  1  0  0  0  0  0  0
  1  2  2  0
  2 20  1  0
  2 11  1  0
  3 10  1  0
  3 11  1  0
  4  5  2  0
  4  6  1  0
  6  8  1  0
  7 10  1  0
  7  4  1  0
  9  1  1  0
  9  3  2  0
 10  8  1  0
 12 20  1  0
 13 18  1  0
 14 15  1  0
 14 13  1  0
 16 15  1  0
 16 25  1  0
 16 17  1  0
 18 12  1  0
 18 17  1  0
 19 12  2  0
 20 21  1  0
 22 23  2  0
 23 42  1  0
 24 23  1  0
 24 27  1  0
 25 22  1  0
 25 26  1  0
 26 24  2  0
 27 28  1  0
 28 29  2  0
 30 33  1  0
 30 29  1  0
 31 30  2  0
 32 31  1  0
 32 27  2  0
 33 34  1  0
 34 35  1  0
 35 36  2  0
 37 36  1  0
 37 41  1  0
 38 37  2  0
 39 34  2  0
 39 38  1  0
 40 39  1  0
 42 43  1  0
 43 46  1  0
 43 45  1  0
 44 42  2  0
 47 48  1  0
 47 22  1  0
 49 47  1  0
 50  5  1  0
 51 62  2  0
 52 50  1  0
 52 57  1  0
 53 61  1  0
 53 63  1  0
 54 60  1  0
 54 56  1  0
 55 61  1  0
 56 57  2  0
 56 55  1  0
 58 52  2  0
 59 58  1  0
 59 54  2  0
 60 53  1  0
 61 51  1  0
 63 65  2  0
 64 63  1  0
 66 64  1  0
 67 76  2  0
 67 72  1  0
 68 64  1  0
 68 72  1  0
 69 68  1  0
 70 71  1  0
 70 69  1  0
 71 67  1  0
 72 73  2  0
 73 74  1  0
 75 74  2  0
 76 75  1  0
 77 51  1  0
 77 78  1  0
 77 87  1  0
 78 81  1  0
 79 83  1  0
 79 78  1  0
 80 79  2  0
 83 82  1  0
 85 86  1  0
 85 83  1  0
 85 84  1  0
 87 90  1  1
 87 88  1  0
 89 87  1  0
M  ISO  4   5 101  12 100  20 100  50 101
M  END
>  <TORSDO>  (16) 
F 16

>  <SCORE>  (16) 
-15.234

>  <name>  (16) 
15

>  <ligand_id>  (16) 
15

>  <original_smiles>  (16) 
[H]C(Oc1c([H])c([H])c2c(c1[H])C([H])([H])N(C(=O)C([H])(N([H])C(=O)C([H])(N([H])C([H])([H])[H])C([H])([H])[H])C(C([H])([H])[H])(C([H])([H])[H])C([H])([H])[H])C([H])(C(=O)N([H])C1([H])c3c([H])c([H])c([H])c([H])c3C([H])([H])C([H])([H])C1([H])[H])C2([H])[H])=C1C([H])([H])N(c2nc([H])c(N([H])C(=O)N3C([H])([H])C([H])([H])C([H])([H])C([H])(n4nc(-c5c([H])c([H])c(Oc6c([H])c([H])c(F)c([H])c6F)c([H])c5[H])c(C(=O)N([H])[H])c4N([H])[H])C3([H])[H])o2)C([H])([H])C1([H])[H]

>  <smiles>  (16) 
[H]C(Oc1c([H])c([H])c2c(c1[H])C([H])([H])N(C(=O)C([H])(N([H])C(=O)C([H])(N([H])C([H])([H])[H])C([H])([H])[H])C(C([H])([H])[H])(C([H])([H])[H])C([H])([H])[H])C([H])(C(=O)N([H])C1([H])c3c([H])c([H])c([H])c([H])c3C([H])([H])C([H])([H])C1([H])[H])C2([H])[H])=C1C([H])([H])N(c2nc([H])c(N([H])C(=O)N3C([H])([H])C([H])([H])C([H])([H])C([H])(n4nc(-c5c([H])c([H])c(Oc6c([H])c([H])c(F)c([H])c6F)c([H])c5[H])c(C(=O)N([H])[H])c4N([H])[H])C3([H])[H])o2)C([H])([H])C1([H])[H]

$$$$
16:0:0
     RDKit          3D

 96104  0  0  1  0  0  0  0  0999 V2000
  -32.5790  -19.5190   20.1310 C   0  0  0  0  0  3  0  0  0  0  0  0
  -31.6990  -20.6020   19.9400 C   0  0  0  0  0  3  0  0  0  0  0  0
  -29.8470  -19.1440   20.4930 C   0  0  0  0  0  3  0  0  0  0  0  0
  -30.7270  -18.0280   20.7300 C   0  0  0  0  0  0  0  0  0  0  0  0
  -32.1260  -18.2550   20.5750 C   0  0  0  0  0  0  0  0  0  0  0  0
  -30.3120  -20.4540   20.1590 C   0  0  0  0  0  0  0  0  0  0  0  0
  -33.2060  -17.2500   20.9570 C   0  0  0  0  0  1  0  0  0  0  0  0
  -30.7400  -14.6030   20.0300 C   0  0  0  0  0  0  0  0  0  0  0  0
  -30.3920  -12.5250   18.7050 C   0  0  0  0  0  2  0  0  0  0  0  0
  -29.3270  -12.7860   17.6150 C   0  0  0  0  0  2  0  0  0  0  0  0
  -27.8970  -12.6070   18.1670 C   0  0  0  0  0  2  0  0  0  0  0  0
  -27.6850  -13.3400   19.5180 C   0  0  0  0  0  3  0  0  0  0  0  0
  -28.8360  -13.0130   20.4970 C   0  0  0  0  0  2  0  0  0  0  0  0
  -30.1050  -13.4040   19.8530 N   0  0  0  0  0  0  0  0  0  0  0  0
  -31.7350  -14.9370   19.3790 O   0  0  0  0  0  0  0  0  0  0  0  0
  -30.1280  -16.7960   21.3540 C   0  0  0  0  0  0  0  0  0  0  0  0
  -30.1180  -15.4650   21.0180 N   0  0  0  0  0  0  0  0  0  0  0  0
  -29.4390  -17.0800   22.4680 N   0  0  0  0  0  4  0  0  0  0  0  0
  -29.4130  -15.0080   21.5590 H   0  0  0  0  0  0  0  0  0  0  0  0
  -29.4620  -18.0380   22.7880 H   0  0  0  0  0  0  0  0  0  0  0  0
  -29.0100  -16.4010   23.0760 H   0  0  0  0  0  0  0  0  0  0  0  0
  -25.3500  -13.9070   20.4430 C   0  0  0  0  0  0  0  0  0  0  0  0
  -24.3180  -13.1180   20.8720 C   0  0  0  0  0  0  0  0  0  0  0  0
  -24.7770  -11.7700   20.7490 C   0  0  0  0  0  0  0  0  0  0  0  0
  -26.3750  -13.0410   20.0930 N   0  0  0  0  0  0  0  0  0  0  0  0
  -26.0370  -11.7480   20.3310 N   0  0  0  0  0  0  0  0  0  0  0  0
  -24.0710  -10.4990   20.9520 C   0  0  0  0  0  0  0  0  0  0  0  0
  -24.5070   -9.5570   21.9090 C   0  0  0  0  0  3  0  0  0  0  0  0
  -23.7990   -8.3490   22.0990 C   0  0  0  0  0  3  0  0  0  0  0  0
  -22.6430   -8.0770   21.3300 C   0  0  0  0  0  0  0  0  0  0  0  0
  -22.2270   -9.0070   20.3620 C   0  0  0  0  0  3  0  0  0  0  0  0
  -22.9350  -10.2070   20.1710 C   0  0  0  0  0  3  0  0  0  0  0  0
  -21.9090   -6.9180   21.4260 O   0  0  0  0  0  0  0  0  0  0  0  0
  -21.7580   -6.2600   22.6200 C   0  0  0  0  0  0  0  0  0  0  0  0
  -21.1780   -6.8820   23.7460 C   0  0  0  0  0  3  0  0  0  0  0  0
  -20.9780   -6.1470   24.9310 C   0  0  0  0  0  3  0  0  0  0  0  0
  -21.3480   -4.7900   24.9900 C   0  0  0  0  0  0  0  0  0  0  0  0
  -21.9210   -4.1670   23.8680 C   0  0  0  0  0  3  0  0  0  0  0  0
  -22.1230   -4.9000   22.6850 C   0  0  0  0  0  0  0  0  0  0  0  0
  -22.6560   -4.2900   21.6000 F   0  0  0  0  0  0  0  0  0  0  0  0
  -21.1490   -4.0810   26.1260 F   0  0  0  0  0  0  0  0  0  0  0  0
  -22.9500  -13.5790   21.2820 C   0  0  0  0  0  0  0  0  0  0  0  0
  -22.3010  -12.8490   22.1830 N   0  0  0  0  0  0  0  0  0  0  0  0
  -22.4670  -14.6210   20.8390 O   0  0  0  0  0  0  0  0  0  0  0  0
  -22.7070  -12.0070   22.5610 H   0  0  0  0  0  0  0  0  0  0  0  0
  -21.3870  -13.1410   22.5000 H   0  0  0  0  0  0  0  0  0  0  0  0
  -25.4980  -15.2850   20.3060 N   0  0  0  0  0  0  0  0  0  0  0  0
  -24.7260  -15.9190   20.4880 H   0  0  0  0  0  0  0  0  0  0  0  0
  -26.2920  -15.7430   19.8780 H   0  0  0  0  0  0  0  0  0  0  0  0
  -29.6220  -22.9010   20.2750 C   0  0  0  0  0  0  0  0  0  0  0  0
  -29.4010  -21.5780   20.0060 N   0  0  0  0  0  0  0  0  0  0  0  0
  -30.6320  -23.2760   20.8770 O   0  0  0  0  0  0  0  0  0  0  0  0
  -28.4830  -21.3540   19.6450 H   0  0  0  0  0  0  0  0  0  0  0  0
  -28.5860  -23.9840   19.8110 C   0  0  0  0  0  2  0  0  0  0  0  0
  -28.3380  -25.2320   20.7510 C   0  0  0  0  0  2  0  0  0  0  0  0
  -28.4150  -26.5700   20.1610 O   0  0  0  0  0  0  0  0  0  0  0  0
  -24.5510  -31.8410   23.1450 C   0  0  0  0  0  0  0  0  0  0  0  0
  -27.2580  -27.3420   20.1510 C   0  0  0  0  0  0  0  0  0  0  0  0
  -23.3790  -30.4250   21.4910 C   0  0  0  0  0  3  0  0  0  0  0  0
  -24.8630  -28.8770   20.1010 C   0  0  0  0  0  0  0  0  0  0  0  0
  -25.9100  -30.7830   21.3330 C   0  0  0  0  0  2  0  0  0  0  0  0
  -26.0140  -29.4030   20.7020 C   0  0  0  0  0  0  0  0  0  0  0  0
  -27.2170  -28.6490   20.7130 C   0  0  0  0  0  3  0  0  0  0  0  0
  -26.0880  -26.8430   19.5440 C   0  0  0  0  0  3  0  0  0  0  0  0
  -24.8990  -27.5990   19.5130 C   0  0  0  0  0  3  0  0  0  0  0  0
  -23.6160  -29.7370   20.1200 C   0  0  0  0  0  2  0  0  0  0  0  0
  -24.6310  -31.0330   22.0480 N   0  0  0  0  0  0  0  0  0  0  0  0
  -23.4600  -32.1120   23.6660 O   0  0  0  0  0  0  0  0  0  0  0  0
  -22.7120  -29.4100   22.4480 C   0  0  0  0  0  0  0  0  0  0  0  0
  -21.3880  -29.2330   22.3100 N   0  0  0  0  0  0  0  0  0  0  0  0
  -23.3850  -28.7840   23.2720 O   0  0  0  0  0  0  0  0  0  0  0  0
  -20.9060  -29.7900   21.6190 H   0  0  0  0  0  0  0  0  0  0  0  0
  -17.9990  -28.0740   22.8070 C   0  0  0  0  0  0  0  0  0  0  0  0
  -20.5610  -28.2970   23.0740 C   0  0  0  0  0  3  0  0  0  0  0  0
  -20.6440  -26.8720   22.4820 C   0  0  0  0  0  2  0  0  0  0  0  0
  -19.5340  -26.5740   21.4670 C   0  0  0  0  0  2  0  0  0  0  0  0
  -18.1560  -26.7300   22.1180 C   0  0  0  0  0  2  0  0  0  0  0  0
  -19.1290  -28.8170   23.2430 C   0  0  0  0  0  0  0  0  0  0  0  0
  -18.9270  -30.0770   23.8480 C   0  0  0  0  0  3  0  0  0  0  0  0
  -17.6290  -30.5930   24.0230 C   0  0  0  0  0  3  0  0  0  0  0  0
  -16.5150  -29.8460   23.6040 C   0  0  0  0  0  3  0  0  0  0  0  0
  -16.7010  -28.5890   23.0020 C   0  0  0  0  0  3  0  0  0  0  0  0
  -25.8230  -32.4820   23.7840 C   0  0  0  0  0  3  0  0  0  0  0  0
  -26.3330  -31.7090   25.0620 C   0  0  1  0  0  0  0  0  0  0  0  0
  -25.2290  -31.4500   26.1130 C   0  0  0  0  0  1  0  0  0  0  0  0
  -26.9400  -30.3420   24.6680 C   0  0  0  0  0  1  0  0  0  0  0  0
  -27.4640  -32.5140   25.7430 C   0  0  0  0  0  1  0  0  0  0  0  0
  -25.4990  -33.8750   24.1160 N   0  0  0  0  0  0  0  0  0  0  0  0
  -25.8340  -34.9340   23.3650 C   0  0  0  0  0  0  0  0  0  0  0  0
  -26.5200  -34.8400   22.3440 O   0  0  0  0  0  0  0  0  0  0  0  0
  -24.8910  -34.0220   24.9090 H   0  0  0  0  0  0  0  0  0  0  0  0
  -24.1060  -36.7220   22.9830 C   0  0  0  0  0  1  0  0  0  0  0  0
  -25.3300  -36.3160   23.8220 C   0  0  0  0  0  3  0  0  0  0  0  0
  -27.4350  -37.2100   24.7180 C   0  0  0  0  0  1  0  0  0  0  0  0
  -26.3600  -37.3760   23.7420 N   0  0  0  0  0  0  0  0  0  0  0  0
  -25.9450  -38.2930   23.8800 H   0  0  0  0  0  0  0  0  0  0  0  0
  1  5  1  0
  2  1  2  0
  2  6  1  0
  3  4  1  0
  4 16  1  0
  5  4  2  0
  5  7  1  0
  6  3  2  0
  8 17  1  0
  9 14  1  0
 10 11  1  0
 10  9  1  0
 12 11  1  0
 12 25  1  0
 12 13  1  0
 14  8  1  0
 14 13  1  0
 15  8  2  0
 16 18  2  0
 17 16  1  0
 17 19  1  0
 18 20  1  0
 18 21  1  0
 22 23  2  0
 23 42  1  0
 24 23  1  0
 24 27  1  0
 25 26  1  0
 25 22  1  0
 26 24  2  0
 27 28  1  0
 28 29  2  0
 30 33  1  0
 30 29  1  0
 31 30  2  0
 32 31  1  0
 32 27  2  0
 33 34  1  0
 34 39  2  0
 34 35  1  0
 35 36  2  0
 36 37  1  0
 37 41  1  0
 38 37  2  0
 39 38  1  0
 40 39  1  0
 42 43  1  0
 43 46  1  0
 43 45  1  0
 44 42  2  0
 47 22  1  0
 47 48  1  0
 49 47  1  0
 50 52  2  0
 51  6  1  0
 51 50  1  0
 53 51  1  0
 54 50  1  0
 54 55  1  0
 56 55  1  0
 57 68  2  0
 58 56  1  0
 58 63  1  0
 59 67  1  0
 59 69  1  0
 60 66  1  0
 60 62  1  0
 61 67  1  0
 62 63  2  0
 62 61  1  0
 64 58  2  0
 65 64  1  0
 65 60  2  0
 66 59  1  0
 67 57  1  0
 69 71  2  0
 70 69  1  0
 72 70  1  0
 73 82  2  0
 73 78  1  0
 74 70  1  0
 74 78  1  0
 75 74  1  0
 76 77  1  0
 76 75  1  0
 77 73  1  0
 78 79  2  0
 79 80  1  0
 81 80  2  0
 82 81  1  0
 83 57  1  0
 83 88  1  0
 83 84  1  0
 84 87  1  1
 84 85  1  0
 86 84  1  0
 88 91  1  0
 89 93  1  0
 89 88  1  0
 90 89  2  0
 93 92  1  0
 95 93  1  0
 95 96  1  0
 95 94  1  0
M  ISO  4   8 100  17 100  55 101  56 101
M  END
>  <TORSDO>  (17) 
F 19

>  <SCORE>  (17) 
-12.171

>  <name>  (17) 
16

>  <ligand_id>  (17) 
16

>  <original_smiles>  (17) 
[H]c1c([H])c([H])c2c(c1[H])C([H])([H])C([H])([H])C([H])([H])C2([H])N([H])C(=O)C1([H])N(C(=O)C([H])(N([H])C(=O)C([H])(N([H])C([H])([H])[H])C([H])([H])[H])C(C([H])([H])[H])(C([H])([H])[H])C([H])([H])[H])C([H])([H])c2c([H])c(OC([H])([H])C([H])([H])C(=O)N([H])c3c([H])c([H])c(C([H])([H])[H])c(C(N([H])C(=O)N4C([H])([H])C([H])([H])C([H])([H])C([H])(n5nc(-c6c([H])c([H])c(Oc7c([H])c([H])c(F)c([H])c7F)c([H])c6[H])c(C(=O)N([H])[H])c5N([H])[H])C4([H])[H])=[N+]([H])[H])c3[H])c([H])c([H])c2C1([H])[H]

>  <smiles>  (17) 
[H]c1c([H])c([H])c2c(c1[H])C([H])([H])C([H])([H])C([H])([H])C2([H])N([H])C(=O)C1([H])N(C(=O)C([H])(N([H])C(=O)C([H])(N([H])C([H])([H])[H])C([H])([H])[H])C(C([H])([H])[H])(C([H])([H])[H])C([H])([H])[H])C([H])([H])c2c([H])c(OC([H])([H])C([H])([H])C(=O)N([H])c3c([H])c([H])c(C([H])([H])[H])c(C(N([H])C(=O)N4C([H])([H])C([H])([H])C([H])([H])C([H])(n5nc(-c6c([H])c([H])c(Oc7c([H])c([H])c(F)c([H])c7F)c([H])c6[H])c(C(=O)N([H])[H])c5N([H])[H])C4([H])[H])=[N+]([H])[H])c3[H])c([H])c([H])c2C1([H])[H]

$$$$
17:0:0
     RDKit          3D

 90 98  0  0  1  0  0  0  0  0999 V2000
  -28.8680  -23.8030   20.1730 C   0  0  0  0  0  0  0  0  0  0  0  0
  -28.7470  -22.5150   20.6890 N   0  0  0  0  0  0  0  0  0  0  0  0
  -29.5720  -24.0100   19.1780 O   0  0  0  0  0  0  0  0  0  0  0  0
  -28.2110  -22.4800   21.5470 H   0  0  0  0  0  0  0  0  0  0  0  0
  -29.6310  -20.7760   19.0390 C   0  0  0  0  0  3  0  0  0  0  0  0
  -29.2440  -21.2590   20.2830 C   0  0  0  0  0  0  0  0  0  0  0  0
  -30.0530  -18.7430   20.1540 C   0  0  0  0  0  0  0  0  0  0  0  0
  -30.0650  -19.4140   18.9830 N   0  0  0  0  0  0  0  0  0  0  0  0
  -29.4330  -19.8760   21.4130 S   0  0  0  0  0  0  0  0  0  0  0  0
  -30.7870  -17.3690   20.4240 C   0  0  0  0  0  2  0  0  0  0  0  0
  -30.7770  -14.8260   19.9470 C   0  0  0  0  0  0  0  0  0  0  0  0
  -30.4510  -12.5550   18.9590 C   0  0  0  0  0  2  0  0  0  0  0  0
  -29.4420  -12.6130   17.7930 C   0  0  0  0  0  2  0  0  0  0  0  0
  -28.0000  -12.4580   18.3120 C   0  0  0  0  0  2  0  0  0  0  0  0
  -27.7050  -13.3580   19.5410 C   0  0  0  0  0  3  0  0  0  0  0  0
  -28.8340  -13.2980   20.5940 C   0  0  0  0  0  2  0  0  0  0  0  0
  -30.0890  -13.6320   19.9090 N   0  0  0  0  0  0  0  0  0  0  0  0
  -31.9440  -14.8660   19.5550 O   0  0  0  0  0  0  0  0  0  0  0  0
  -30.1200  -16.0080   20.2460 N   0  0  0  0  0  0  0  0  0  0  0  0
  -29.1410  -15.9460   20.4770 H   0  0  0  0  0  0  0  0  0  0  0  0
  -25.3790  -13.9530   20.4460 C   0  0  0  0  0  0  0  0  0  0  0  0
  -24.3290  -13.1800   20.8650 C   0  0  0  0  0  0  0  0  0  0  0  0
  -24.7730  -11.8260   20.7680 C   0  0  0  0  0  0  0  0  0  0  0  0
  -26.3940  -13.0700   20.1180 N   0  0  0  0  0  0  0  0  0  0  0  0
  -26.0400  -11.7840   20.3750 N   0  0  0  0  0  0  0  0  0  0  0  0
  -24.0440  -10.5660   20.9700 C   0  0  0  0  0  0  0  0  0  0  0  0
  -24.4960   -9.5890   21.8860 C   0  0  0  0  0  3  0  0  0  0  0  0
  -23.7640   -8.3960   22.0760 C   0  0  0  0  0  3  0  0  0  0  0  0
  -22.5690   -8.1720   21.3530 C   0  0  0  0  0  0  0  0  0  0  0  0
  -22.1370   -9.1380   20.4270 C   0  0  0  0  0  3  0  0  0  0  0  0
  -22.8670  -10.3220   20.2340 C   0  0  0  0  0  3  0  0  0  0  0  0
  -21.8080   -7.0320   21.4560 O   0  0  0  0  0  0  0  0  0  0  0  0
  -21.7520   -6.3070   22.6190 C   0  0  0  0  0  0  0  0  0  0  0  0
  -21.2840   -6.8690   23.8280 C   0  0  0  0  0  3  0  0  0  0  0  0
  -21.1770   -6.0680   24.9820 C   0  0  0  0  0  3  0  0  0  0  0  0
  -21.5290   -4.7050   24.9300 C   0  0  0  0  0  0  0  0  0  0  0  0
  -21.9890   -4.1430   23.7250 C   0  0  0  0  0  3  0  0  0  0  0  0
  -22.0950   -4.9400   22.5740 C   0  0  0  0  0  0  0  0  0  0  0  0
  -22.5200   -4.3880   21.4110 F   0  0  0  0  0  0  0  0  0  0  0  0
  -21.4190   -3.9340   26.0360 F   0  0  0  0  0  0  0  0  0  0  0  0
  -22.9590  -13.6660   21.2400 C   0  0  0  0  0  0  0  0  0  0  0  0
  -22.2800  -12.9520   22.1330 N   0  0  0  0  0  0  0  0  0  0  0  0
  -22.5020  -14.7100   20.7780 O   0  0  0  0  0  0  0  0  0  0  0  0
  -22.6640  -12.1050   22.5250 H   0  0  0  0  0  0  0  0  0  0  0  0
  -21.3640  -13.2570   22.4280 H   0  0  0  0  0  0  0  0  0  0  0  0
  -25.5480  -15.3260   20.2950 N   0  0  0  0  0  0  0  0  0  0  0  0
  -24.8000  -15.9880   20.4740 H   0  0  0  0  0  0  0  0  0  0  0  0
  -26.3780  -15.7620   19.9140 H   0  0  0  0  0  0  0  0  0  0  0  0
  -28.1270  -25.0600   20.8690 C   0  0  0  0  0  2  0  0  0  0  0  0
  -28.3820  -26.4490   20.3320 O   0  0  0  0  0  0  0  0  0  0  0  0
  -24.5860  -31.9080   23.2210 C   0  0  0  0  0  0  0  0  0  0  0  0
  -27.2900  -27.3390   20.2500 C   0  0  0  0  0  0  0  0  0  0  0  0
  -23.4290  -30.5020   21.5510 C   0  0  0  0  0  3  0  0  0  0  0  0
  -24.9260  -28.9700   20.1370 C   0  0  0  0  0  0  0  0  0  0  0  0
  -25.9710  -30.8330   21.4280 C   0  0  0  0  0  2  0  0  0  0  0  0
  -26.0740  -29.4530   20.7810 C   0  0  0  0  0  0  0  0  0  0  0  0
  -27.2570  -28.6520   20.8250 C   0  0  0  0  0  3  0  0  0  0  0  0
  -26.1290  -26.9230   19.5620 C   0  0  0  0  0  3  0  0  0  0  0  0
  -24.9650  -27.7170   19.5010 C   0  0  0  0  0  3  0  0  0  0  0  0
  -23.6780  -29.8370   20.1680 C   0  0  0  0  0  2  0  0  0  0  0  0
  -24.6800  -31.1010   22.1220 N   0  0  0  0  0  0  0  0  0  0  0  0
  -23.4890  -32.1710   23.7350 O   0  0  0  0  0  0  0  0  0  0  0  0
  -22.7590  -29.4760   22.4960 C   0  0  0  0  0  0  0  0  0  0  0  0
  -21.4310  -29.3050   22.3620 N   0  0  0  0  0  0  0  0  0  0  0  0
  -23.4290  -28.8410   23.3150 O   0  0  0  0  0  0  0  0  0  0  0  0
  -20.9480  -29.8710   21.6790 H   0  0  0  0  0  0  0  0  0  0  0  0
  -18.0480  -28.1110   22.8390 C   0  0  0  0  0  0  0  0  0  0  0  0
  -20.6070  -28.3580   23.1170 C   0  0  0  0  0  3  0  0  0  0  0  0
  -20.7040  -26.9340   22.5200 C   0  0  0  0  0  2  0  0  0  0  0  0
  -19.6020  -26.6310   21.4990 C   0  0  0  0  0  2  0  0  0  0  0  0
  -18.2210  -26.7730   22.1430 C   0  0  0  0  0  2  0  0  0  0  0  0
  -19.1690  -28.8640   23.2810 C   0  0  0  0  0  0  0  0  0  0  0  0
  -18.9530  -30.1190   23.8900 C   0  0  0  0  0  3  0  0  0  0  0  0
  -17.6500  -30.6210   24.0650 C   0  0  0  0  0  3  0  0  0  0  0  0
  -16.5440  -29.8650   23.6380 C   0  0  0  0  0  3  0  0  0  0  0  0
  -16.7430  -28.6140   23.0290 C   0  0  0  0  0  3  0  0  0  0  0  0
  -25.8500  -32.5520   23.8690 C   0  0  0  0  0  3  0  0  0  0  0  0
  -26.3360  -31.7970   25.1670 C   0  0  1  0  0  0  0  0  0  0  0  0
  -25.2170  -31.5670   26.2090 C   0  0  0  0  0  1  0  0  0  0  0  0
  -26.9380  -30.4190   24.8070 C   0  0  0  0  0  1  0  0  0  0  0  0
  -27.4650  -32.6050   25.8520 C   0  0  0  0  0  1  0  0  0  0  0  0
  -25.5250  -33.9530   24.1830 N   0  0  0  0  0  0  0  0  0  0  0  0
  -25.8620  -35.0030   23.4250 C   0  0  0  0  0  0  0  0  0  0  0  0
  -26.5500  -34.8980   22.4060 O   0  0  0  0  0  0  0  0  0  0  0  0
  -24.9240  -34.1080   24.9790 H   0  0  0  0  0  0  0  0  0  0  0  0
  -24.1390  -36.7910   23.0220 C   0  0  0  0  0  1  0  0  0  0  0  0
  -25.3600  -36.3930   23.8660 C   0  0  0  0  0  3  0  0  0  0  0  0
  -27.4570  -37.3050   24.7600 C   0  0  0  0  0  1  0  0  0  0  0  0
  -26.3960  -37.4430   23.7660 N   0  0  0  0  0  0  0  0  0  0  0  0
  -25.9870  -38.3690   23.8600 H   0  0  0  0  0  0  0  0  0  0  0  0
  1  2  1  0
  1 49  1  0
  2  4  1  0
  3  1  2  0
  5  6  2  0
  6  2  1  0
  6  9  1  0
  7 10  1  0
  7  9  1  0
  8  5  1  0
  8  7  2  0
 11 19  1  0
 12 17  1  0
 13 14  1  0
 13 12  1  0
 15 14  1  0
 15 24  1  0
 15 16  1  0
 17 11  1  0
 17 16  1  0
 18 11  2  0
 19 10  1  0
 19 20  1  0
 21 22  2  0
 22 41  1  0
 23 22  1  0
 23 26  1  0
 24 25  1  0
 24 21  1  0
 25 23  2  0
 26 27  1  0
 27 28  2  0
 29 32  1  0
 29 28  1  0
 30 29  2  0
 31 30  1  0
 31 26  2  0
 32 33  1  0
 33 34  1  0
 34 35  2  0
 36 35  1  0
 36 40  1  0
 37 36  2  0
 38 33  2  0
 38 37  1  0
 39 38  1  0
 41 42  1  0
 42 45  1  0
 42 44  1  0
 43 41  2  0
 46 21  1  0
 46 47  1  0
 48 46  1  0
 50 49  1  0
 51 62  2  0
 52 50  1  0
 52 57  1  0
 53 61  1  0
 53 63  1  0
 54 60  1  0
 54 56  1  0
 55 61  1  0
 56 57  2  0
 56 55  1  0
 58 52  2  0
 59 58  1  0
 59 54  2  0
 60 53  1  0
 61 51  1  0
 63 65  2  0
 64 63  1  0
 66 64  1  0
 67 76  2  0
 67 72  1  0
 68 64  1  0
 68 72  1  0
 69 68  1  0
 70 71  1  0
 70 69  1  0
 71 67  1  0
 72 73  2  0
 73 74  1  0
 75 74  2  0
 76 75  1  0
 77 51  1  0
 77 82  1  0
 77 78  1  0
 78 81  1  1
 78 79  1  0
 80 78  1  0
 82 85  1  0
 83 87  1  0
 83 82  1  0
 84 83  2  0
 87 86  1  0
 89 90  1  0
 89 87  1  0
 89 88  1  0
M  ISO  4  11 100  19 100  49 101  50 101
M  END
>  <TORSDO>  (18) 
F 19

>  <SCORE>  (18) 
-13.663

>  <name>  (18) 
17

>  <ligand_id>  (18) 
17

>  <original_smiles>  (18) 
[H]c1nc(C([H])([H])N([H])C(=O)N2C([H])([H])C([H])([H])C([H])([H])C([H])(n3nc(-c4c([H])c([H])c(Oc5c([H])c([H])c(F)c([H])c5F)c([H])c4[H])c(C(=O)N([H])[H])c3N([H])[H])C2([H])[H])sc1N([H])C(=O)C([H])([H])Oc1c([H])c([H])c2c(c1[H])C([H])([H])N(C(=O)C([H])(N([H])C(=O)C([H])(N([H])C([H])([H])[H])C([H])([H])[H])C(C([H])([H])[H])(C([H])([H])[H])C([H])([H])[H])C([H])(C(=O)N([H])C1([H])c3c([H])c([H])c([H])c([H])c3C([H])([H])C([H])([H])C1([H])[H])C2([H])[H]

>  <smiles>  (18) 
[H]c1nc(C([H])([H])N([H])C(=O)N2C([H])([H])C([H])([H])C([H])([H])C([H])(n3nc(-c4c([H])c([H])c(Oc5c([H])c([H])c(F)c([H])c5F)c([H])c4[H])c(C(=O)N([H])[H])c3N([H])[H])C2([H])[H])sc1N([H])C(=O)C([H])([H])Oc1c([H])c([H])c2c(c1[H])C([H])([H])N(C(=O)C([H])(N([H])C(=O)C([H])(N([H])C([H])([H])[H])C([H])([H])[H])C(C([H])([H])[H])(C([H])([H])[H])C([H])([H])[H])C([H])(C(=O)N([H])C1([H])c3c([H])c([H])c([H])c([H])c3C([H])([H])C([H])([H])C1([H])[H])C2([H])[H]

$$$$
18:0:0
     RDKit          3D

 91100  0  0  1  0  0  0  0  0999 V2000
  -28.7230  -23.7170   20.0210 C   0  0  0  0  0  0  0  0  0  0  0  0
  -28.6740  -22.4580   20.6250 N   0  0  0  0  0  0  0  0  0  0  0  0
  -29.2690  -23.8840   18.9270 O   0  0  0  0  0  0  0  0  0  0  0  0
  -28.2370  -22.4930   21.5360 H   0  0  0  0  0  0  0  0  0  0  0  0
  -29.1810  -19.9950   21.0690 C   0  0  0  0  0  3  0  0  0  0  0  0
  -29.7520  -18.8230   20.4020 C   0  0  0  0  0  0  0  0  0  0  0  0
  -30.0280  -19.1130   19.0530 C   0  0  0  0  0  0  0  0  0  0  0  0
  -29.1080  -21.1660   20.2470 C   0  0  0  0  0  0  0  0  0  0  0  0
  -30.6840  -17.8130   18.7400 C   0  0  0  0  0  2  0  0  0  0  0  0
  -30.4690  -17.4090   20.2900 C   0  0  0  0  0  3  0  0  0  0  0  0
  -29.7100  -20.7640   18.5910 S   0  0  0  0  0  0  0  0  0  0  0  0
  -30.6250  -14.8170   20.2310 C   0  0  0  0  0  0  0  0  0  0  0  0
  -30.4080  -12.5340   19.2360 C   0  0  0  0  0  2  0  0  0  0  0  0
  -29.4610  -12.5840   18.0180 C   0  0  0  0  0  2  0  0  0  0  0  0
  -27.9990  -12.4010   18.4670 C   0  0  0  0  0  2  0  0  0  0  0  0
  -27.6280  -13.2970   19.6790 C   0  0  0  0  0  3  0  0  0  0  0  0
  -28.6990  -13.2410   20.7900 C   0  0  0  0  0  2  0  0  0  0  0  0
  -29.9810  -13.5990   20.1750 N   0  0  0  0  0  0  0  0  0  0  0  0
  -31.8140  -14.8820   19.9060 O   0  0  0  0  0  0  0  0  0  0  0  0
  -29.9020  -15.9910   20.4300 N   0  0  0  0  0  0  0  0  0  0  0  0
  -28.9210  -15.9050   20.6480 H   0  0  0  0  0  0  0  0  0  0  0  0
  -25.2480  -13.8700   20.4370 C   0  0  0  0  0  0  0  0  0  0  0  0
  -24.1920  -13.0880   20.8170 C   0  0  0  0  0  0  0  0  0  0  0  0
  -24.6630  -11.7390   20.7800 C   0  0  0  0  0  0  0  0  0  0  0  0
  -26.2940  -12.9970   20.1870 N   0  0  0  0  0  0  0  0  0  0  0  0
  -25.9510  -11.7110   20.4570 N   0  0  0  0  0  0  0  0  0  0  0  0
  -23.9460  -10.4730   20.9730 C   0  0  0  0  0  0  0  0  0  0  0  0
  -24.3860   -9.5100   21.9080 C   0  0  0  0  0  3  0  0  0  0  0  0
  -23.6680   -8.3080   22.0910 C   0  0  0  0  0  3  0  0  0  0  0  0
  -22.4950   -8.0610   21.3380 C   0  0  0  0  0  0  0  0  0  0  0  0
  -22.0740   -9.0140   20.3930 C   0  0  0  0  0  3  0  0  0  0  0  0
  -22.7930  -10.2050   20.2080 C   0  0  0  0  0  3  0  0  0  0  0  0
  -21.7470   -6.9120   21.4300 O   0  0  0  0  0  0  0  0  0  0  0  0
  -21.6950   -6.1780   22.5870 C   0  0  0  0  0  0  0  0  0  0  0  0
  -21.2440   -6.7340   23.8040 C   0  0  0  0  0  3  0  0  0  0  0  0
  -21.1420   -5.9250   24.9530 C   0  0  0  0  0  3  0  0  0  0  0  0
  -21.4800   -4.5610   24.8870 C   0  0  0  0  0  0  0  0  0  0  0  0
  -21.9240   -4.0030   23.6750 C   0  0  0  0  0  3  0  0  0  0  0  0
  -22.0280   -4.8090   22.5270 C   0  0  0  0  0  0  0  0  0  0  0  0
  -22.4360   -4.2630   21.3570 F   0  0  0  0  0  0  0  0  0  0  0  0
  -21.3750   -3.7810   25.9880 F   0  0  0  0  0  0  0  0  0  0  0  0
  -22.7940  -13.5570   21.1010 C   0  0  0  0  0  0  0  0  0  0  0  0
  -22.0770  -12.8520   21.9710 N   0  0  0  0  0  0  0  0  0  0  0  0
  -22.3470  -14.5810   20.5890 O   0  0  0  0  0  0  0  0  0  0  0  0
  -22.4520  -12.0240   22.4060 H   0  0  0  0  0  0  0  0  0  0  0  0
  -21.1400  -13.1480   22.2040 H   0  0  0  0  0  0  0  0  0  0  0  0
  -25.4020  -15.2410   20.2570 N   0  0  0  0  0  0  0  0  0  0  0  0
  -24.6280  -15.8890   20.3700 H   0  0  0  0  0  0  0  0  0  0  0  0
  -26.2330  -15.6830   19.8880 H   0  0  0  0  0  0  0  0  0  0  0  0
  -28.0540  -24.9980   20.7360 C   0  0  0  0  0  2  0  0  0  0  0  0
  -28.3120  -26.3930   20.2080 O   0  0  0  0  0  0  0  0  0  0  0  0
  -24.6020  -31.8870   23.2320 C   0  0  0  0  0  0  0  0  0  0  0  0
  -27.2280  -27.3000   20.1830 C   0  0  0  0  0  0  0  0  0  0  0  0
  -23.4110  -30.4920   21.5800 C   0  0  0  0  0  3  0  0  0  0  0  0
  -24.8740  -28.9470   20.1530 C   0  0  0  0  0  0  0  0  0  0  0  0
  -25.9550  -30.8060   21.4140 C   0  0  0  0  0  2  0  0  0  0  0  0
  -26.0420  -29.4260   20.7620 C   0  0  0  0  0  0  0  0  0  0  0  0
  -27.2260  -28.6160   20.7630 C   0  0  0  0  0  3  0  0  0  0  0  0
  -26.0410  -26.8930   19.5390 C   0  0  0  0  0  3  0  0  0  0  0  0
  -24.8800  -27.6900   19.5280 C   0  0  0  0  0  3  0  0  0  0  0  0
  -23.6360  -29.8230   20.1990 C   0  0  0  0  0  2  0  0  0  0  0  0
  -24.6750  -31.0810   22.1320 N   0  0  0  0  0  0  0  0  0  0  0  0
  -23.5140  -32.1600   23.7610 O   0  0  0  0  0  0  0  0  0  0  0  0
  -22.7440  -29.4710   22.5340 C   0  0  0  0  0  0  0  0  0  0  0  0
  -21.4190  -29.2930   22.4020 N   0  0  0  0  0  0  0  0  0  0  0  0
  -23.4200  -28.8430   23.3530 O   0  0  0  0  0  0  0  0  0  0  0  0
  -20.9310  -29.8520   21.7160 H   0  0  0  0  0  0  0  0  0  0  0  0
  -18.0400  -28.0860   22.8880 C   0  0  0  0  0  0  0  0  0  0  0  0
  -20.5980  -28.3500   23.1660 C   0  0  0  0  0  3  0  0  0  0  0  0
  -20.7040  -26.9210   22.5830 C   0  0  0  0  0  2  0  0  0  0  0  0
  -19.6060  -26.6030   21.5640 C   0  0  0  0  0  2  0  0  0  0  0  0
  -18.2220  -26.7410   22.2050 C   0  0  0  0  0  2  0  0  0  0  0  0
  -19.1570  -28.8480   23.3250 C   0  0  0  0  0  0  0  0  0  0  0  0
  -18.9330  -30.1070   23.9250 C   0  0  0  0  0  3  0  0  0  0  0  0
  -17.6270  -30.6040   24.0910 C   0  0  0  0  0  3  0  0  0  0  0  0
  -16.5260  -29.8390   23.6690 C   0  0  0  0  0  3  0  0  0  0  0  0
  -16.7330  -28.5820   23.0740 C   0  0  0  0  0  3  0  0  0  0  0  0
  -25.8780  -32.5220   23.8640 C   0  0  0  0  0  3  0  0  0  0  0  0
  -25.5640  -33.9200   24.1930 N   0  0  0  0  0  0  0  0  0  0  0  0
  -25.8910  -34.9750   23.4340 C   0  0  0  0  0  0  0  0  0  0  0  0
  -26.5590  -34.8730   22.4020 O   0  0  0  0  0  0  0  0  0  0  0  0
  -24.9720  -34.0730   24.9960 H   0  0  0  0  0  0  0  0  0  0  0  0
  -24.1590  -36.7660   23.0830 C   0  0  0  0  0  1  0  0  0  0  0  0
  -25.4020  -36.3630   23.8930 C   0  0  0  0  0  3  0  0  0  0  0  0
  -27.5340  -37.2520   24.7240 C   0  0  0  0  0  1  0  0  0  0  0  0
  -26.4320  -37.4180   23.7800 N   0  0  0  0  0  0  0  0  0  0  0  0
  -26.0240  -38.3370   23.9250 H   0  0  0  0  0  0  0  0  0  0  0  0
  -26.3850  -31.7520   25.1470 C   0  0  1  0  0  0  0  0  0  0  0  0
  -25.2830  -31.5150   26.2050 C   0  0  0  0  0  1  0  0  0  0  0  0
  -26.9730  -30.3750   24.7610 C   0  0  0  0  0  1  0  0  0  0  0  0
  -27.5300  -32.5480   25.8150 C   0  0  0  0  0  1  0  0  0  0  0  0
  1  2  1  0
  1 50  1  0
  2  4  1  0
  3  1  2  0
  6  5  1  0
  7  6  2  0
  8  2  1  0
  8  5  2  0
  9  7  1  0
  9 10  1  0
 10  6  1  0
 10 20  1  0
 11  7  1  0
 11  8  1  0
 12 20  1  0
 13 18  1  0
 14 15  1  0
 14 13  1  0
 16 15  1  0
 16 25  1  0
 16 17  1  0
 18 12  1  0
 18 17  1  0
 19 12  2  0
 20 21  1  0
 22 23  2  0
 23 42  1  0
 24 23  1  0
 24 27  1  0
 25 22  1  0
 25 26  1  0
 26 24  2  0
 27 28  1  0
 28 29  2  0
 30 33  1  0
 30 29  1  0
 31 30  2  0
 32 31  1  0
 32 27  2  0
 33 34  1  0
 34 35  1  0
 35 36  2  0
 37 36  1  0
 37 41  1  0
 38 37  2  0
 39 34  2  0
 39 38  1  0
 40 39  1  0
 42 43  1  0
 43 46  1  0
 43 45  1  0
 44 42  2  0
 47 48  1  0
 47 22  1  0
 49 47  1  0
 51 50  1  0
 52 63  2  0
 53 51  1  0
 53 58  1  0
 54 62  1  0
 54 64  1  0
 55 61  1  0
 55 57  1  0
 56 62  1  0
 57 58  2  0
 57 56  1  0
 59 53  2  0
 60 59  1  0
 60 55  2  0
 61 54  1  0
 62 52  1  0
 64 66  2  0
 65 64  1  0
 67 65  1  0
 68 77  2  0
 68 73  1  0
 69 65  1  0
 69 73  1  0
 70 69  1  0
 71 72  1  0
 71 70  1  0
 72 68  1  0
 73 74  2  0
 74 75  1  0
 76 75  2  0
 77 76  1  0
 78 52  1  0
 78 79  1  0
 78 88  1  0
 79 82  1  0
 80 84  1  0
 80 79  1  0
 81 80  2  0
 84 83  1  0
 86 84  1  0
 86 87  1  0
 86 85  1  0
 88 91  1  1
 88 89  1  0
 90 88  1  0
M  ISO  4  12 100  20 100  50 101  51 101
M  END
>  <TORSDO>  (19) 
F 18

>  <SCORE>  (19) 
-14.562

>  <name>  (19) 
18

>  <ligand_id>  (19) 
18

>  <original_smiles>  (19) 
[H]c1c([H])c([H])c2c(c1[H])C([H])([H])C([H])([H])C([H])([H])C2([H])N([H])C(=O)C1([H])N(C(=O)C([H])(N([H])C(=O)C([H])(N([H])C([H])([H])[H])C([H])([H])[H])C(C([H])([H])[H])(C([H])([H])[H])C([H])([H])[H])C([H])([H])c2c([H])c(OC([H])([H])C(=O)N([H])c3sc4c(c3[H])C([H])(N([H])C(=O)N3C([H])([H])C([H])([H])C([H])([H])C([H])(n5nc(-c6c([H])c([H])c(Oc7c([H])c([H])c(F)c([H])c7F)c([H])c6[H])c(C(=O)N([H])[H])c5N([H])[H])C3([H])[H])C4([H])[H])c([H])c([H])c2C1([H])[H]

>  <smiles>  (19) 
[H]c1c([H])c([H])c2c(c1[H])C([H])([H])C([H])([H])C([H])([H])C2([H])N([H])C(=O)C1([H])N(C(=O)C([H])(N([H])C(=O)C([H])(N([H])C([H])([H])[H])C([H])([H])[H])C(C([H])([H])[H])(C([H])([H])[H])C([H])([H])[H])C([H])([H])c2c([H])c(OC([H])([H])C(=O)N([H])c3sc4c(c3[H])C([H])(N([H])C(=O)N3C([H])([H])C([H])([H])C([H])([H])C([H])(n5nc(-c6c([H])c([H])c(Oc7c([H])c([H])c(F)c([H])c7F)c([H])c6[H])c(C(=O)N([H])[H])c5N([H])[H])C3([H])[H])C4([H])[H])c([H])c([H])c2C1([H])[H]

$$$$
19:0:0
     RDKit          3D

 96105  0  0  1  0  0  0  0  0999 V2000
  -30.5860  -14.7720   20.4810 C   0  0  0  0  0  0  0  0  0  0  0  0
  -30.4150  -12.4970   19.4640 C   0  0  0  0  0  2  0  0  0  0  0  0
  -29.5010  -12.5660   18.2200 C   0  0  0  0  0  2  0  0  0  0  0  0
  -28.0230  -12.3920   18.6190 C   0  0  0  0  0  2  0  0  0  0  0  0
  -27.6200  -13.2870   19.8200 C   0  0  0  0  0  3  0  0  0  0  0  0
  -28.6530  -13.2000   20.9660 C   0  0  0  0  0  2  0  0  0  0  0  0
  -29.9640  -13.5470   20.4020 N   0  0  0  0  0  0  0  0  0  0  0  0
  -31.7830  -14.8690   20.1890 O   0  0  0  0  0  0  0  0  0  0  0  0
  -31.3260  -19.2510   21.0330 C   0  0  0  0  0  0  0  0  0  0  0  0
  -30.1480  -19.9460   20.7220 C   0  0  0  0  0  0  0  0  0  0  0  0
  -30.0590  -17.3330   20.6750 C   0  0  0  0  0  0  0  0  0  0  0  0
  -31.2560  -17.8340   20.9850 N   0  0  0  0  0  0  0  0  0  0  0  0
  -29.7760  -15.8820   20.6520 N   0  0  0  0  0  0  0  0  0  0  0  0
  -28.8980  -18.7030   20.4020 S   0  0  0  0  0  0  0  0  0  0  0  0
  -28.7990  -15.6530   20.7310 H   0  0  0  0  0  0  0  0  0  0  0  0
  -25.2120  -13.8820   20.4780 C   0  0  0  0  0  0  0  0  0  0  0  0
  -24.1400  -13.1090   20.8310 C   0  0  0  0  0  0  0  0  0  0  0  0
  -24.6090  -11.7590   20.8330 C   0  0  0  0  0  0  0  0  0  0  0  0
  -26.2640  -13.0030   20.2800 N   0  0  0  0  0  0  0  0  0  0  0  0
  -25.9070  -11.7230   20.5570 N   0  0  0  0  0  0  0  0  0  0  0  0
  -23.8830  -10.4960   21.0190 C   0  0  0  0  0  0  0  0  0  0  0  0
  -24.2970   -9.5400   21.9730 C   0  0  0  0  0  3  0  0  0  0  0  0
  -23.5710   -8.3430   22.1480 C   0  0  0  0  0  3  0  0  0  0  0  0
  -22.4160   -8.0920   21.3680 C   0  0  0  0  0  0  0  0  0  0  0  0
  -22.0220   -9.0370   20.4050 C   0  0  0  0  0  3  0  0  0  0  0  0
  -22.7490  -10.2260   20.2280 C   0  0  0  0  0  3  0  0  0  0  0  0
  -21.6640   -6.9460   21.4510 O   0  0  0  0  0  0  0  0  0  0  0  0
  -21.5860   -6.2180   22.6120 C   0  0  0  0  0  0  0  0  0  0  0  0
  -21.1220   -6.7870   23.8180 C   0  0  0  0  0  3  0  0  0  0  0  0
  -20.9930   -5.9860   24.9700 C   0  0  0  0  0  3  0  0  0  0  0  0
  -21.3170   -4.6170   24.9160 C   0  0  0  0  0  0  0  0  0  0  0  0
  -21.7740   -4.0470   23.7150 C   0  0  0  0  0  3  0  0  0  0  0  0
  -21.9050   -4.8460   22.5650 C   0  0  0  0  0  0  0  0  0  0  0  0
  -22.3250   -4.2880   21.4040 F   0  0  0  0  0  0  0  0  0  0  0  0
  -21.1850   -3.8450   26.0190 F   0  0  0  0  0  0  0  0  0  0  0  0
  -22.7330  -13.5840   21.0590 C   0  0  0  0  0  0  0  0  0  0  0  0
  -21.9870  -12.9010   21.9210 N   0  0  0  0  0  0  0  0  0  0  0  0
  -22.3040  -14.5960   20.5070 O   0  0  0  0  0  0  0  0  0  0  0  0
  -22.3480  -12.0820   22.3880 H   0  0  0  0  0  0  0  0  0  0  0  0
  -21.0440  -13.2020   22.1170 H   0  0  0  0  0  0  0  0  0  0  0  0
  -25.3730  -15.2500   20.2810 N   0  0  0  0  0  0  0  0  0  0  0  0
  -24.5910  -15.8940   20.3470 H   0  0  0  0  0  0  0  0  0  0  0  0
  -26.2050  -15.6840   19.9040 H   0  0  0  0  0  0  0  0  0  0  0  0
  -32.5950  -19.9270   21.4310 C   0  0  0  0  0  0  0  0  0  0  0  0
  -32.6600  -20.9410   22.1890 N   0  0  0  0  0  0  0  0  0  0  0  0
  -31.7330  -21.2120   22.4980 H   0  0  0  0  0  0  0  0  0  0  0  0
  -34.0770  -19.0540   19.4050 C   0  0  0  0  0  2  0  0  0  0  0  0
  -34.8680  -20.1520   20.0770 C   0  0  0  0  0  2  0  0  0  0  0  0
  -33.8800  -19.3340   20.8800 C   0  0  0  0  0  3  0  0  0  0  0  0
  -29.9980  -21.4020   20.6790 N   0  0  0  0  0  0  0  0  0  0  0  0
  -30.8410  -21.9540   20.8400 H   0  0  0  0  0  0  0  0  0  0  0  0
  -28.8400  -22.3030   20.3270 C   0  0  0  0  0  2  0  0  0  0  0  0
  -29.1120  -23.8830   20.4630 C   0  0  0  0  0  0  0  0  0  0  0  0
  -30.2050  -24.2530   20.9090 O   0  0  0  0  0  0  0  0  0  0  0  0
  -28.0250  -24.9710   20.0340 C   0  0  0  0  0  2  0  0  0  0  0  0
  -28.3060  -26.4300   20.2710 O   0  0  0  0  0  0  0  0  0  0  0  0
  -24.6440  -31.9320   23.2690 C   0  0  0  0  0  0  0  0  0  0  0  0
  -27.2140  -27.3270   20.2060 C   0  0  0  0  0  0  0  0  0  0  0  0
  -23.4280  -30.5400   21.6350 C   0  0  0  0  0  3  0  0  0  0  0  0
  -24.8650  -28.9830   20.2000 C   0  0  0  0  0  0  0  0  0  0  0  0
  -25.9720  -30.8350   21.4450 C   0  0  0  0  0  2  0  0  0  0  0  0
  -26.0420  -29.4540   20.7950 C   0  0  0  0  0  0  0  0  0  0  0  0
  -27.2200  -28.6400   20.7860 C   0  0  0  0  0  3  0  0  0  0  0  0
  -26.0120  -26.9240   19.5790 C   0  0  0  0  0  3  0  0  0  0  0  0
  -24.8540  -27.7240   19.5820 C   0  0  0  0  0  3  0  0  0  0  0  0
  -23.6340  -29.8650   20.2540 C   0  0  0  0  0  2  0  0  0  0  0  0
  -24.7010  -31.1200   22.1720 N   0  0  0  0  0  0  0  0  0  0  0  0
  -23.5640  -32.2160   23.8070 O   0  0  0  0  0  0  0  0  0  0  0  0
  -22.7620  -29.5260   22.5980 C   0  0  0  0  0  0  0  0  0  0  0  0
  -21.4370  -29.3450   22.4670 N   0  0  0  0  0  0  0  0  0  0  0  0
  -23.4380  -28.9080   23.4240 O   0  0  0  0  0  0  0  0  0  0  0  0
  -20.9500  -29.8960   21.7750 H   0  0  0  0  0  0  0  0  0  0  0  0
  -18.0630  -28.1260   22.9460 C   0  0  0  0  0  0  0  0  0  0  0  0
  -20.6170  -28.4100   23.2400 C   0  0  0  0  0  3  0  0  0  0  0  0
  -20.7370  -26.9720   22.6840 C   0  0  0  0  0  2  0  0  0  0  0  0
  -19.6480  -26.6270   21.6620 C   0  0  0  0  0  2  0  0  0  0  0  0
  -18.2580  -26.7690   22.2890 C   0  0  0  0  0  2  0  0  0  0  0  0
  -19.1710  -28.9020   23.3780 C   0  0  0  0  0  0  0  0  0  0  0  0
  -18.9350  -30.1690   23.9530 C   0  0  0  0  0  3  0  0  0  0  0  0
  -17.6250  -30.6620   24.0990 C   0  0  0  0  0  3  0  0  0  0  0  0
  -16.5310  -29.8820   23.6840 C   0  0  0  0  0  3  0  0  0  0  0  0
  -16.7520  -28.6160   23.1120 C   0  0  0  0  0  3  0  0  0  0  0  0
  -25.9320  -32.5600   23.8850 C   0  0  0  0  0  3  0  0  0  0  0  0
  -25.6280  -33.9580   24.2220 N   0  0  0  0  0  0  0  0  0  0  0  0
  -25.9360  -35.0120   23.4540 C   0  0  0  0  0  0  0  0  0  0  0  0
  -26.5750  -34.9090   22.4050 O   0  0  0  0  0  0  0  0  0  0  0  0
  -25.0560  -34.1110   25.0400 H   0  0  0  0  0  0  0  0  0  0  0  0
  -24.1820  -36.7930   23.1660 C   0  0  0  0  0  1  0  0  0  0  0  0
  -25.4590  -36.4000   23.9270 C   0  0  0  0  0  3  0  0  0  0  0  0
  -27.6200  -37.3020   24.6650 C   0  0  0  0  0  1  0  0  0  0  0  0
  -26.4790  -37.4590   23.7660 N   0  0  0  0  0  0  0  0  0  0  0  0
  -26.0730  -38.3780   23.9250 H   0  0  0  0  0  0  0  0  0  0  0  0
  -26.4530  -31.7850   25.1570 C   0  0  1  0  0  0  0  0  0  0  0  0
  -25.3650  -31.5510   26.2320 C   0  0  0  0  0  1  0  0  0  0  0  0
  -27.0280  -30.4040   24.7620 C   0  0  0  0  0  1  0  0  0  0  0  0
  -27.6100  -32.5730   25.8130 C   0  0  0  0  0  1  0  0  0  0  0  0
  1 13  1  0
  2  7  1  0
  3  4  1  0
  3  2  1  0
  5  4  1  0
  5 19  1  0
  5  6  1  0
  7  1  1  0
  7  6  1  0
  8  1  2  0
  9 44  1  0
 10  9  2  0
 11 12  2  0
 12  9  1  0
 13 11  1  0
 13 15  1  0
 14 11  1  0
 14 10  1  0
 16 17  2  0
 17 18  1  0
 17 36  1  0
 18 21  1  0
 19 16  1  0
 19 20  1  0
 20 18  2  0
 21 22  1  0
 22 23  2  0
 24 27  1  0
 24 23  1  0
 25 24  2  0
 26 25  1  0
 26 21  2  0
 27 28  1  0
 28 29  1  0
 29 30  2  0
 31 30  1  0
 31 35  1  0
 32 31  2  0
 33 28  2  0
 33 32  1  0
 34 33  1  0
 36 37  1  0
 37 40  1  0
 37 39  1  0
 38 36  2  0
 41 42  1  0
 41 16  1  0
 43 41  1  0
 44 45  2  0
 45 46  1  0
 47 48  1  0
 47 49  1  0
 48 49  1  0
 49 44  1  0
 50 10  1  0
 50 51  1  0
 52 53  1  0
 52 50  1  0
 53 54  2  0
 55 56  1  0
 55 53  1  0
 57 68  2  0
 58 56  1  0
 58 63  1  0
 59 67  1  0
 59 69  1  0
 60 66  1  0
 60 62  1  0
 61 67  1  0
 62 61  1  0
 63 62  2  0
 64 65  1  0
 64 58  2  0
 65 60  2  0
 66 59  1  0
 67 57  1  0
 69 71  2  0
 70 69  1  0
 72 70  1  0
 73 82  2  0
 73 78  1  0
 74 70  1  0
 74 78  1  0
 75 74  1  0
 76 77  1  0
 76 75  1  0
 77 73  1  0
 78 79  2  0
 79 80  1  0
 81 80  2  0
 82 81  1  0
 83 57  1  0
 83 84  1  0
 83 93  1  0
 84 87  1  0
 85 89  1  0
 85 84  1  0
 86 85  2  0
 89 88  1  0
 91 92  1  0
 91 89  1  0
 91 90  1  0
 93 96  1  1
 93 94  1  0
 95 93  1  0
M  ISO  4   1 100  13 100  55 101  56 101
M  END
>  <TORSDO>  (20) 
F 21

>  <SCORE>  (20) 
-13.888

>  <name>  (20) 
19

>  <ligand_id>  (20) 
19

>  <original_smiles>  (20) 
[H]N=C(c1nc(N([H])C(=O)N2C([H])([H])C([H])([H])C([H])([H])C([H])(n3nc(-c4c([H])c([H])c(Oc5c([H])c([H])c(F)c([H])c5F)c([H])c4[H])c(C(=O)N([H])[H])c3N([H])[H])C2([H])[H])sc1N([H])C([H])([H])C(=O)C([H])([H])Oc1c([H])c([H])c2c(c1[H])C([H])([H])N(C(=O)C([H])(N([H])C(=O)C([H])(N([H])C([H])([H])[H])C([H])([H])[H])C(C([H])([H])[H])(C([H])([H])[H])C([H])([H])[H])C([H])(C(=O)N([H])C1([H])c3c([H])c([H])c([H])c([H])c3C([H])([H])C([H])([H])C1([H])[H])C2([H])[H])C1([H])C([H])([H])C1([H])[H]

>  <smiles>  (20) 
[H]N=C(c1nc(N([H])C(=O)N2C([H])([H])C([H])([H])C([H])([H])C([H])(n3nc(-c4c([H])c([H])c(Oc5c([H])c([H])c(F)c([H])c5F)c([H])c4[H])c(C(=O)N([H])[H])c3N([H])[H])C2([H])[H])sc1N([H])C([H])([H])C(=O)C([H])([H])Oc1c([H])c([H])c2c(c1[H])C([H])([H])N(C(=O)C([H])(N([H])C(=O)C([H])(N([H])C([H])([H])[H])C([H])([H])[H])C(C([H])([H])[H])(C([H])([H])[H])C([H])([H])[H])C([H])(C(=O)N([H])C1([H])c3c([H])c([H])c([H])c([H])c3C([H])([H])C([H])([H])C1([H])[H])C2([H])[H])C1([H])C([H])([H])C1([H])[H]

$$$$
20:0:0
     RDKit          3D

 87 96  0  0  1  0  0  0  0  0999 V2000
  -30.3530  -15.4790   20.3120 C   0  0  0  0  0  0  0  0  0  0  0  0
  -30.3760  -12.9950   19.4520 C   0  0  0  0  0  2  0  0  0  0  0  0
  -29.4770  -12.6920   18.2250 C   0  0  0  0  0  2  0  0  0  0  0  0
  -28.0350  -12.3910   18.6640 C   0  0  0  0  0  2  0  0  0  0  0  0
  -27.5500  -13.3750   19.7560 C   0  0  0  0  0  3  0  0  0  0  0  0
  -28.5830  -13.6040   20.8800 C   0  0  0  0  0  2  0  0  0  0  0  0
  -29.7850  -14.1590   20.2310 N   0  0  0  0  0  0  0  0  0  0  0  0
  -31.5870  -15.4190   20.1690 O   0  0  0  0  0  0  0  0  0  0  0  0
  -29.1850  -19.6820   20.5810 C   0  0  0  0  0  0  0  0  0  0  0  0
  -29.7210  -18.1780   21.2000 C   0  0  0  0  0  2  0  0  0  0  0  0
  -28.7340  -20.3470   18.2640 C   0  0  0  0  0  2  0  0  0  0  0  0
  -28.1070  -21.7390   18.7730 C   0  0  0  0  0  2  0  0  0  0  0  0
  -29.3640  -17.6670   19.0520 C   0  0  0  0  0  2  0  0  0  0  0  0
  -28.6820  -19.1490   19.2920 C   0  0  0  0  0  3  0  0  0  0  0  0
  -28.7610  -22.4120   20.0460 C   0  0  0  0  0  3  0  0  0  0  0  0
  -29.0970  -21.0480   20.9540 N   0  0  0  0  0  0  0  0  0  0  0  0
  -29.6360  -16.8260   20.3070 N   0  0  0  0  0  0  0  0  0  0  0  0
  -25.1840  -13.9230   20.5070 C   0  0  0  0  0  0  0  0  0  0  0  0
  -24.1210  -13.1420   20.8680 C   0  0  0  0  0  0  0  0  0  0  0  0
  -24.5910  -11.7930   20.8430 C   0  0  0  0  0  0  0  0  0  0  0  0
  -26.2280  -13.0480   20.2680 N   0  0  0  0  0  0  0  0  0  0  0  0
  -25.8850  -11.7620   20.5400 N   0  0  0  0  0  0  0  0  0  0  0  0
  -23.8630  -10.5300   21.0290 C   0  0  0  0  0  0  0  0  0  0  0  0
  -24.2810   -9.5650   21.9730 C   0  0  0  0  0  3  0  0  0  0  0  0
  -23.5510   -8.3700   22.1470 C   0  0  0  0  0  3  0  0  0  0  0  0
  -22.3870   -8.1300   21.3800 C   0  0  0  0  0  0  0  0  0  0  0  0
  -21.9870   -9.0820   20.4260 C   0  0  0  0  0  3  0  0  0  0  0  0
  -22.7180  -10.2690   20.2490 C   0  0  0  0  0  3  0  0  0  0  0  0
  -21.6300   -6.9860   21.4620 O   0  0  0  0  0  0  0  0  0  0  0  0
  -21.5580   -6.2530   22.6200 C   0  0  0  0  0  0  0  0  0  0  0  0
  -21.1010   -6.8160   23.8310 C   0  0  0  0  0  3  0  0  0  0  0  0
  -20.9750   -6.0100   24.9800 C   0  0  0  0  0  3  0  0  0  0  0  0
  -21.2990   -4.6410   24.9190 C   0  0  0  0  0  0  0  0  0  0  0  0
  -21.7500   -4.0770   23.7120 C   0  0  0  0  0  3  0  0  0  0  0  0
  -21.8780   -4.8820   22.5660 C   0  0  0  0  0  0  0  0  0  0  0  0
  -22.2920   -4.3280   21.4000 F   0  0  0  0  0  0  0  0  0  0  0  0
  -21.1730   -3.8640   26.0200 F   0  0  0  0  0  0  0  0  0  0  0  0
  -22.7200  -13.6190   21.1200 C   0  0  0  0  0  0  0  0  0  0  0  0
  -21.9850  -12.9350   21.9870 N   0  0  0  0  0  0  0  0  0  0  0  0
  -22.2860  -14.6370   20.5810 O   0  0  0  0  0  0  0  0  0  0  0  0
  -22.3470  -12.1130   22.4480 H   0  0  0  0  0  0  0  0  0  0  0  0
  -21.0440  -13.2400   22.1940 H   0  0  0  0  0  0  0  0  0  0  0  0
  -25.3480  -15.2930   20.3300 N   0  0  0  0  0  0  0  0  0  0  0  0
  -24.5860  -15.9530   20.4390 H   0  0  0  0  0  0  0  0  0  0  0  0
  -26.2090  -15.7290   20.0220 H   0  0  0  0  0  0  0  0  0  0  0  0
  -28.0470  -24.0730   20.5490 C   0  0  0  0  0  2  0  0  0  0  0  0
  -28.2230  -25.7420   20.2550 O   0  0  0  0  0  0  0  0  0  0  0  0
  -24.6650  -31.8680   23.2070 C   0  0  0  0  0  0  0  0  0  0  0  0
  -27.2150  -26.8790   20.2520 C   0  0  0  0  0  0  0  0  0  0  0  0
  -23.4780  -30.4520   21.5840 C   0  0  0  0  0  3  0  0  0  0  0  0
  -24.9280  -28.8190   20.1810 C   0  0  0  0  0  0  0  0  0  0  0  0
  -26.0500  -30.6420   21.4430 C   0  0  0  0  0  2  0  0  0  0  0  0
  -26.1200  -29.2150   20.8000 C   0  0  0  0  0  0  0  0  0  0  0  0
  -27.2590  -28.2700   20.8000 C   0  0  0  0  0  3  0  0  0  0  0  0
  -25.9880  -26.6590   19.5860 C   0  0  0  0  0  3  0  0  0  0  0  0
  -24.8920  -27.5640   19.5520 C   0  0  0  0  0  3  0  0  0  0  0  0
  -23.7120  -29.7500   20.2160 C   0  0  0  0  0  2  0  0  0  0  0  0
  -24.7540  -31.0180   22.1290 N   0  0  0  0  0  0  0  0  0  0  0  0
  -23.5730  -32.1620   23.7220 O   0  0  0  0  0  0  0  0  0  0  0  0
  -22.7800  -29.4680   22.5610 C   0  0  0  0  0  0  0  0  0  0  0  0
  -21.4500  -29.3000   22.4410 N   0  0  0  0  0  0  0  0  0  0  0  0
  -23.4450  -28.8580   23.4010 O   0  0  0  0  0  0  0  0  0  0  0  0
  -20.9650  -29.8440   21.7410 H   0  0  0  0  0  0  0  0  0  0  0  0
  -18.0740  -28.0710   22.9640 C   0  0  0  0  0  0  0  0  0  0  0  0
  -20.6320  -28.3660   23.2220 C   0  0  0  0  0  3  0  0  0  0  0  0
  -20.7440  -26.9270   22.6640 C   0  0  0  0  0  2  0  0  0  0  0  0
  -19.6460  -26.5820   21.6540 C   0  0  0  0  0  2  0  0  0  0  0  0
  -18.2630  -26.7180   22.2990 C   0  0  0  0  0  2  0  0  0  0  0  0
  -19.1850  -28.8520   23.3830 C   0  0  0  0  0  0  0  0  0  0  0  0
  -18.9500  -30.1130   23.9720 C   0  0  0  0  0  3  0  0  0  0  0  0
  -17.6390  -30.5970   24.1400 C   0  0  0  0  0  3  0  0  0  0  0  0
  -16.5430  -29.8160   23.7350 C   0  0  0  0  0  3  0  0  0  0  0  0
  -16.7620  -28.5530   23.1540 C   0  0  0  0  0  3  0  0  0  0  0  0
  -25.9300  -32.5270   23.8360 C   0  0  0  0  0  3  0  0  0  0  0  0
  -25.6010  -33.9270   24.1630 N   0  0  0  0  0  0  0  0  0  0  0  0
  -25.9280  -34.9900   23.4160 C   0  0  0  0  0  0  0  0  0  0  0  0
  -26.5960  -34.8950   22.3830 O   0  0  0  0  0  0  0  0  0  0  0  0
  -25.0030  -34.0740   24.9640 H   0  0  0  0  0  0  0  0  0  0  0  0
  -24.1910  -36.7850   23.0820 C   0  0  0  0  0  1  0  0  0  0  0  0
  -25.4370  -36.3780   23.8840 C   0  0  0  0  0  3  0  0  0  0  0  0
  -27.5720  -37.2710   24.7100 C   0  0  0  0  0  1  0  0  0  0  0  0
  -26.4670  -37.4350   23.7710 N   0  0  0  0  0  0  0  0  0  0  0  0
  -26.0580  -38.3530   23.9200 H   0  0  0  0  0  0  0  0  0  0  0  0
  -26.4380  -31.7780   25.1300 C   0  0  1  0  0  0  0  0  0  0  0  0
  -25.3390  -31.5560   26.1950 C   0  0  0  0  0  1  0  0  0  0  0  0
  -27.0270  -30.3950   24.7750 C   0  0  0  0  0  1  0  0  0  0  0  0
  -27.5850  -32.5840   25.7850 C   0  0  0  0  0  1  0  0  0  0  0  0
  2  7  1  0
  3  4  1  0
  3  2  1  0
  5  4  1  0
  5 21  1  0
  5  6  1  0
  7  1  1  0
  7  6  1  0
  8  1  2  0
  9 16  2  0
  9 10  1  0
 11 12  1  0
 12 15  1  0
 13 14  1  0
 13 17  1  0
 14 11  1  0
 14  9  1  0
 15 46  1  0
 15 16  1  0
 17  1  1  0
 17 10  1  0
 18 19  2  0
 19 38  1  0
 20 19  1  0
 20 23  1  0
 21 18  1  0
 21 22  1  0
 22 20  2  0
 23 24  1  0
 24 25  2  0
 26 29  1  0
 26 25  1  0
 27 26  2  0
 28 27  1  0
 28 23  2  0
 29 30  1  0
 30 31  1  0
 31 32  2  0
 33 32  1  0
 33 37  1  0
 34 33  2  0
 35 30  2  0
 35 34  1  0
 36 35  1  0
 38 39  1  0
 39 42  1  0
 39 41  1  0
 40 38  2  0
 43 44  1  0
 43 18  1  0
 45 43  1  0
 47 46  1  0
 48 59  2  0
 49 47  1  0
 49 54  1  0
 50 58  1  0
 50 60  1  0
 51 57  1  0
 51 53  1  0
 52 58  1  0
 53 52  1  0
 54 53  2  0
 55 49  2  0
 56 55  1  0
 56 51  2  0
 57 50  1  0
 58 48  1  0
 60 62  2  0
 61 60  1  0
 63 61  1  0
 64 73  2  0
 64 69  1  0
 65 61  1  0
 65 69  1  0
 66 65  1  0
 67 68  1  0
 67 66  1  0
 68 64  1  0
 69 70  2  0
 70 71  1  0
 72 71  2  0
 73 72  1  0
 74 48  1  0
 74 75  1  0
 74 84  1  0
 75 78  1  0
 76 80  1  0
 76 75  1  0
 77 76  2  0
 80 79  1  0
 82 80  1  0
 82 83  1  0
 82 81  1  0
 84 87  1  1
 84 85  1  0
 86 84  1  0
M  ISO  4   1 100  17 100  46 101  47 101
M  END
>  <TORSDO>  (21) 
F 16

>  <SCORE>  (21) 
-16.565

>  <name>  (21) 
20

>  <ligand_id>  (21) 
20

>  <original_smiles>  (21) 
[H]c1c([H])c([H])c2c(c1[H])C([H])([H])C([H])([H])C([H])([H])C2([H])N([H])C(=O)C1([H])N(C(=O)C([H])(N([H])C(=O)C([H])(N([H])C([H])([H])[H])C([H])([H])[H])C(C([H])([H])[H])(C([H])([H])[H])C([H])([H])[H])C([H])([H])c2c([H])c(OC([H])([H])C3([H])N=C4C([H])([H])N(C(=O)N5C([H])([H])C([H])([H])C([H])([H])C([H])(n6nc(-c7c([H])c([H])c(Oc8c([H])c([H])c(F)c([H])c8F)c([H])c7[H])c(C(=O)N([H])[H])c6N([H])[H])C5([H])[H])C([H])([H])C4([H])C([H])([H])C3([H])[H])c([H])c([H])c2C1([H])[H]

>  <smiles>  (21) 
[H]c1c([H])c([H])c2c(c1[H])C([H])([H])C([H])([H])C([H])([H])C2([H])N([H])C(=O)C1([H])N(C(=O)C([H])(N([H])C(=O)C([H])(N([H])C([H])([H])[H])C([H])([H])[H])C(C([H])([H])[H])(C([H])([H])[H])C([H])([H])[H])C([H])([H])c2c([H])c(OC([H])([H])C3([H])N=C4C([H])([H])N(C(=O)N5C([H])([H])C([H])([H])C([H])([H])C([H])(n6nc(-c7c([H])c([H])c(Oc8c([H])c([H])c(F)c([H])c8F)c([H])c7[H])c(C(=O)N([H])[H])c6N([H])[H])C5([H])[H])C([H])([H])C4([H])C([H])([H])C3([H])[H])c([H])c([H])c2C1([H])[H]

$$$$
21:0:0
     RDKit          3D

 95104  0  0  1  0  0  0  0  0999 V2000
  -30.4150  -21.8180   21.0870 C   0  0  0  0  0  3  0  0  0  0  0  0
  -28.9370  -25.1000   21.9870 C   0  0  0  0  0  2  0  0  0  0  0  0
  -30.1770  -24.2120   21.8350 C   0  0  0  0  0  2  0  0  0  0  0  0
  -28.8320  -23.7390   19.9690 C   0  0  0  0  0  2  0  0  0  0  0  0
  -28.2400  -25.0960   20.6280 C   0  0  0  0  0  3  0  0  0  0  0  0
  -29.8070  -23.0850   20.9350 N   0  0  0  0  0  0  0  0  0  0  0  0
  -31.4830  -21.8540   21.8960 N   0  0  0  0  0  0  0  0  0  0  0  0
  -31.9340  -20.9870   22.1470 H   0  0  0  0  0  0  0  0  0  0  0  0
  -31.9480  -22.7140   22.1250 H   0  0  0  0  0  0  0  0  0  0  0  0
  -31.3270  -19.5400   20.3300 C   0  0  0  0  0  3  0  0  0  0  0  0
  -31.2700  -18.1060   20.2500 C   0  0  0  0  0  3  0  0  0  0  0  0
  -28.9120  -18.2270   20.6030 C   0  0  0  0  0  3  0  0  0  0  0  0
  -30.1940  -20.3770   20.5880 C   0  0  0  0  0  0  0  0  0  0  0  0
  -30.0580  -17.3840   20.4280 C   0  0  0  0  0  0  0  0  0  0  0  0
  -28.9660  -19.6640   20.6830 C   0  0  0  0  0  0  0  0  0  0  0  0
  -27.8230  -20.3440   20.9420 F   0  0  0  0  0  0  0  0  0  0  0  0
  -30.6920  -14.8280   20.0460 C   0  0  0  0  0  0  0  0  0  0  0  0
  -30.4270  -12.5900   18.9560 C   0  0  0  0  0  2  0  0  0  0  0  0
  -29.4150  -12.7230   17.7930 C   0  0  0  0  0  2  0  0  0  0  0  0
  -27.9720  -12.5430   18.3030 C   0  0  0  0  0  2  0  0  0  0  0  0
  -27.6780  -13.3880   19.5690 C   0  0  0  0  0  3  0  0  0  0  0  0
  -28.7980  -13.2360   20.6240 C   0  0  0  0  0  2  0  0  0  0  0  0
  -30.0680  -13.6000   19.9790 N   0  0  0  0  0  0  0  0  0  0  0  0
  -31.8370  -14.9650   19.6080 O   0  0  0  0  0  0  0  0  0  0  0  0
  -29.9140  -15.9000   20.4530 N   0  0  0  0  0  0  0  0  0  0  0  0
  -29.0180  -15.5930   20.7960 H   0  0  0  0  0  0  0  0  0  0  0  0
  -25.3390  -13.9850   20.4410 C   0  0  0  0  0  0  0  0  0  0  0  0
  -24.2850  -13.2130   20.8480 C   0  0  0  0  0  0  0  0  0  0  0  0
  -24.7280  -11.8580   20.7520 C   0  0  0  0  0  0  0  0  0  0  0  0
  -26.3570  -13.1010   20.1220 N   0  0  0  0  0  0  0  0  0  0  0  0
  -25.9980  -11.8160   20.3690 N   0  0  0  0  0  0  0  0  0  0  0  0
  -23.9990  -10.5980   20.9470 C   0  0  0  0  0  0  0  0  0  0  0  0
  -24.4560   -9.6090   21.8470 C   0  0  0  0  0  3  0  0  0  0  0  0
  -23.7250   -8.4150   22.0290 C   0  0  0  0  0  3  0  0  0  0  0  0
  -22.5240   -8.2000   21.3130 C   0  0  0  0  0  0  0  0  0  0  0  0
  -22.0850   -9.1780   20.4030 C   0  0  0  0  0  3  0  0  0  0  0  0
  -22.8170  -10.3630   20.2170 C   0  0  0  0  0  3  0  0  0  0  0  0
  -21.7640   -7.0580   21.4050 O   0  0  0  0  0  0  0  0  0  0  0  0
  -21.7320   -6.3070   22.5530 C   0  0  0  0  0  0  0  0  0  0  0  0
  -21.3170   -6.8520   23.7900 C   0  0  0  0  0  3  0  0  0  0  0  0
  -21.2320   -6.0250   24.9270 C   0  0  0  0  0  3  0  0  0  0  0  0
  -21.5540   -4.6580   24.8330 C   0  0  0  0  0  0  0  0  0  0  0  0
  -21.9650   -4.1150   23.6020 C   0  0  0  0  0  3  0  0  0  0  0  0
  -22.0500   -4.9380   22.4660 C   0  0  0  0  0  0  0  0  0  0  0  0
  -22.4250   -4.4060   21.2770 F   0  0  0  0  0  0  0  0  0  0  0  0
  -21.4660   -3.8640   25.9240 F   0  0  0  0  0  0  0  0  0  0  0  0
  -22.9110  -13.6970   21.2100 C   0  0  0  0  0  0  0  0  0  0  0  0
  -22.2240  -12.9860   22.0970 N   0  0  0  0  0  0  0  0  0  0  0  0
  -22.4590  -14.7420   20.7460 O   0  0  0  0  0  0  0  0  0  0  0  0
  -22.6050  -12.1420   22.4960 H   0  0  0  0  0  0  0  0  0  0  0  0
  -21.3050  -13.2930   22.3840 H   0  0  0  0  0  0  0  0  0  0  0  0
  -25.5130  -15.3570   20.2930 N   0  0  0  0  0  0  0  0  0  0  0  0
  -24.7510  -16.0080   20.4450 H   0  0  0  0  0  0  0  0  0  0  0  0
  -26.3220  -15.7860   19.8660 H   0  0  0  0  0  0  0  0  0  0  0  0
  -28.3770  -26.4750   20.0560 O   0  0  0  0  0  0  0  0  0  0  0  0
  -24.6350  -31.8680   23.1840 C   0  0  0  0  0  0  0  0  0  0  0  0
  -27.2590  -27.3340   20.0820 C   0  0  0  0  0  0  0  0  0  0  0  0
  -23.4280  -30.4760   21.5380 C   0  0  0  0  0  3  0  0  0  0  0  0
  -24.8810  -28.9400   20.0920 C   0  0  0  0  0  0  0  0  0  0  0  0
  -25.9660  -30.8080   21.3420 C   0  0  0  0  0  2  0  0  0  0  0  0
  -26.0520  -29.4310   20.6840 C   0  0  0  0  0  0  0  0  0  0  0  0
  -27.2460  -28.6430   20.6630 C   0  0  0  0  0  3  0  0  0  0  0  0
  -26.0660  -26.8980   19.4680 C   0  0  0  0  0  3  0  0  0  0  0  0
  -24.8920  -27.6790   19.4730 C   0  0  0  0  0  3  0  0  0  0  0  0
  -23.6400  -29.8090   20.1530 C   0  0  0  0  0  2  0  0  0  0  0  0
  -24.6950  -31.0700   22.0770 N   0  0  0  0  0  0  0  0  0  0  0  0
  -23.5530  -32.1360   23.7260 O   0  0  0  0  0  0  0  0  0  0  0  0
  -22.7720  -29.4530   22.4960 C   0  0  0  0  0  0  0  0  0  0  0  0
  -21.4440  -29.2790   22.3800 N   0  0  0  0  0  0  0  0  0  0  0  0
  -23.4590  -28.8160   23.2990 O   0  0  0  0  0  0  0  0  0  0  0  0
  -20.9510  -29.8440   21.7040 H   0  0  0  0  0  0  0  0  0  0  0  0
  -18.0700  -28.0900   22.9100 C   0  0  0  0  0  0  0  0  0  0  0  0
  -20.6330  -28.3340   23.1470 C   0  0  0  0  0  3  0  0  0  0  0  0
  -20.7210  -26.9120   22.5470 C   0  0  0  0  0  2  0  0  0  0  0  0
  -19.6020  -26.6110   21.5450 C   0  0  0  0  0  2  0  0  0  0  0  0
  -18.2310  -26.7500   22.2110 C   0  0  0  0  0  2  0  0  0  0  0  0
  -19.1980  -28.8400   23.3360 C   0  0  0  0  0  0  0  0  0  0  0  0
  -18.9930  -30.0940   23.9530 C   0  0  0  0  0  3  0  0  0  0  0  0
  -17.6930  -30.5980   24.1460 C   0  0  0  0  0  3  0  0  0  0  0  0
  -16.5800  -29.8430   23.7370 C   0  0  0  0  0  3  0  0  0  0  0  0
  -16.7690  -28.5920   23.1240 C   0  0  0  0  0  3  0  0  0  0  0  0
  -25.9180  -32.5010   23.8060 C   0  0  0  0  0  3  0  0  0  0  0  0
  -25.6040  -33.8960   24.1480 N   0  0  0  0  0  0  0  0  0  0  0  0
  -25.9300  -34.9560   23.3960 C   0  0  0  0  0  0  0  0  0  0  0  0
  -26.5950  -34.8630   22.3620 O   0  0  0  0  0  0  0  0  0  0  0  0
  -25.0120  -34.0410   24.9520 H   0  0  0  0  0  0  0  0  0  0  0  0
  -24.2000  -36.7520   23.0630 C   0  0  0  0  0  1  0  0  0  0  0  0
  -25.4430  -36.3400   23.8690 C   0  0  0  0  0  3  0  0  0  0  0  0
  -27.5750  -37.2220   24.7100 C   0  0  0  0  0  1  0  0  0  0  0  0
  -26.4750  -37.3940   23.7640 N   0  0  0  0  0  0  0  0  0  0  0  0
  -26.0680  -38.3140   23.9140 H   0  0  0  0  0  0  0  0  0  0  0  0
  -26.4410  -31.7230   25.0750 C   0  0  1  0  0  0  0  0  0  0  0  0
  -25.3510  -31.4750   26.1450 C   0  0  0  0  0  1  0  0  0  0  0  0
  -27.0300  -30.3500   24.6730 C   0  0  0  0  0  1  0  0  0  0  0  0
  -27.5900  -32.5190   25.7380 C   0  0  0  0  0  1  0  0  0  0  0  0
  1  7  1  0
  3  2  1  0
  4  5  1  0
  4  6  1  0
  5 55  1  0
  5  2  1  0
  6  1  1  0
  6  3  1  0
  7  9  1  0
  7  8  1  0
 10 13  1  0
 11 10  2  0
 11 14  1  0
 12 15  1  0
 13 15  2  0
 13  1  1  0
 14 25  1  0
 14 12  2  0
 15 16  1  0
 17 25  1  0
 18 23  1  0
 19 20  1  0
 19 18  1  0
 21 20  1  0
 21 30  1  0
 21 22  1  0
 23 17  1  0
 23 22  1  0
 24 17  2  0
 25 26  1  0
 27 28  2  0
 28 47  1  0
 29 28  1  0
 29 32  1  0
 30 31  1  0
 30 27  1  0
 31 29  2  0
 32 33  1  0
 33 34  2  0
 35 38  1  0
 35 34  1  0
 36 35  2  0
 37 36  1  0
 37 32  2  0
 38 39  1  0
 39 40  1  0
 40 41  2  0
 42 41  1  0
 42 46  1  0
 43 42  2  0
 44 39  2  0
 44 43  1  0
 45 44  1  0
 47 48  1  0
 48 51  1  0
 48 50  1  0
 49 47  2  0
 52 27  1  0
 52 53  1  0
 54 52  1  0
 55 57  1  0
 56 67  2  0
 57 62  1  0
 58 66  1  0
 58 68  1  0
 59 65  1  0
 59 61  1  0
 60 66  1  0
 61 60  1  0
 62 61  2  0
 63 64  1  0
 63 57  2  0
 64 59  2  0
 65 58  1  0
 66 56  1  0
 68 70  2  0
 69 68  1  0
 71 69  1  0
 72 81  2  0
 72 77  1  0
 73 69  1  0
 73 77  1  0
 74 73  1  0
 75 76  1  0
 75 74  1  0
 76 72  1  0
 77 78  2  0
 78 79  1  0
 80 79  2  0
 81 80  1  0
 82 56  1  0
 82 83  1  0
 82 92  1  0
 83 86  1  0
 84 88  1  0
 84 83  1  0
 85 84  2  0
 88 87  1  0
 90 88  1  0
 90 91  1  0
 90 89  1  0
 92 95  1  1
 92 93  1  0
 94 92  1  0
M  ISO  4   5 101  17 100  25 100  55 101
M  END
>  <TORSDO>  (22) 
F 17

>  <SCORE>  (22) 
-15.357

>  <name>  (22) 
21

>  <ligand_id>  (22) 
21

>  <original_smiles>  (22) 
[H]c1c([H])c([H])c2c(c1[H])C([H])([H])C([H])([H])C([H])([H])C2([H])N([H])C(=O)C1([H])N(C(=O)C([H])(N([H])C(=O)C([H])(N([H])C([H])([H])[H])C([H])([H])[H])C(C([H])([H])[H])(C([H])([H])[H])C([H])([H])[H])C([H])([H])c2c([H])c(OC3([H])C([H])([H])N(C(c4c([H])c([H])c(N([H])C(=O)N5C([H])([H])C([H])([H])C([H])([H])C([H])(n6nc(-c7c([H])c([H])c(Oc8c([H])c([H])c(F)c([H])c8F)c([H])c7[H])c(C(=O)N([H])[H])c6N([H])[H])C5([H])[H])c([H])c4F)=[N+]([H])[H])C([H])([H])C3([H])[H])c([H])c([H])c2C1([H])[H]

>  <smiles>  (22) 
[H]c1c([H])c([H])c2c(c1[H])C([H])([H])C([H])([H])C([H])([H])C2([H])N([H])C(=O)C1([H])N(C(=O)C([H])(N([H])C(=O)C([H])(N([H])C([H])([H])[H])C([H])([H])[H])C(C([H])([H])[H])(C([H])([H])[H])C([H])([H])[H])C([H])([H])c2c([H])c(OC3([H])C([H])([H])N(C(c4c([H])c([H])c(N([H])C(=O)N5C([H])([H])C([H])([H])C([H])([H])C([H])(n6nc(-c7c([H])c([H])c(Oc8c([H])c([H])c(F)c([H])c8F)c([H])c7[H])c(C(=O)N([H])[H])c6N([H])[H])C5([H])[H])c([H])c4F)=[N+]([H])[H])C([H])([H])C3([H])[H])c([H])c([H])c2C1([H])[H]

$$$$
22:0:0
     RDKit          3D

 91100  0  0  1  0  0  0  0  0999 V2000
  -30.3530  -23.6690   19.8730 C   0  0  0  0  0  0  0  0  0  0  0  0
  -30.8690  -22.2270   19.8460 C   0  0  0  0  0  2  0  0  0  0  0  0
  -28.5690  -22.2060   20.4970 C   0  0  0  0  0  2  0  0  0  0  0  0
  -29.0000  -23.7610   20.5630 C   0  0  0  0  0  3  0  0  0  0  0  0
  -29.7860  -21.3510   20.3020 N   0  0  0  0  0  0  0  0  0  0  0  0
  -30.9780  -24.6300   19.4170 O   0  0  0  0  0  0  0  0  0  0  0  0
  -31.2300  -19.3020   20.2170 C   0  0  0  0  0  3  0  0  0  0  0  0
  -31.2590  -17.8600   20.2800 C   0  0  0  0  0  3  0  0  0  0  0  0
  -29.9980  -19.9080   20.3580 C   0  0  0  0  0  0  0  0  0  0  0  0
  -30.0470  -17.2360   20.4820 C   0  0  0  0  0  0  0  0  0  0  0  0
  -28.8300  -18.5710   20.6030 S   0  0  0  0  0  0  0  0  0  0  0  0
  -30.5570  -14.7460   20.3220 C   0  0  0  0  0  0  0  0  0  0  0  0
  -30.3390  -12.4850   19.2830 C   0  0  0  0  0  2  0  0  0  0  0  0
  -29.3790  -12.5670   18.0750 C   0  0  0  0  0  2  0  0  0  0  0  0
  -27.9190  -12.3870   18.5330 C   0  0  0  0  0  2  0  0  0  0  0  0
  -27.5650  -13.2770   19.7530 C   0  0  0  0  0  3  0  0  0  0  0  0
  -28.6370  -13.1730   20.8600 C   0  0  0  0  0  2  0  0  0  0  0  0
  -29.9290  -13.5240   20.2540 N   0  0  0  0  0  0  0  0  0  0  0  0
  -31.7380  -14.8450   19.9770 O   0  0  0  0  0  0  0  0  0  0  0  0
  -29.7720  -15.8610   20.5790 N   0  0  0  0  0  0  0  0  0  0  0  0
  -28.8150  -15.6320   20.8000 H   0  0  0  0  0  0  0  0  0  0  0  0
  -25.1860  -13.8730   20.5040 C   0  0  0  0  0  0  0  0  0  0  0  0
  -24.1250  -13.0970   20.8850 C   0  0  0  0  0  0  0  0  0  0  0  0
  -24.5910  -11.7470   20.8500 C   0  0  0  0  0  0  0  0  0  0  0  0
  -26.2280  -12.9930   20.2590 N   0  0  0  0  0  0  0  0  0  0  0  0
  -25.8770  -11.7100   20.5310 N   0  0  0  0  0  0  0  0  0  0  0  0
  -23.8690  -10.4830   21.0440 C   0  0  0  0  0  0  0  0  0  0  0  0
  -24.3170   -9.5110   21.9660 C   0  0  0  0  0  3  0  0  0  0  0  0
  -23.5950   -8.3110   22.1490 C   0  0  0  0  0  3  0  0  0  0  0  0
  -22.4120   -8.0750   21.4090 C   0  0  0  0  0  0  0  0  0  0  0  0
  -21.9840   -9.0360   20.4770 C   0  0  0  0  0  3  0  0  0  0  0  0
  -22.7060  -10.2260   20.2920 C   0  0  0  0  0  3  0  0  0  0  0  0
  -21.6590   -6.9290   21.5030 O   0  0  0  0  0  0  0  0  0  0  0  0
  -21.6340   -6.1780   22.6510 C   0  0  0  0  0  0  0  0  0  0  0  0
  -21.2270   -6.7210   23.8890 C   0  0  0  0  0  3  0  0  0  0  0  0
  -21.1500   -5.8960   25.0280 C   0  0  0  0  0  3  0  0  0  0  0  0
  -21.4660   -4.5280   24.9310 C   0  0  0  0  0  0  0  0  0  0  0  0
  -21.8660   -3.9830   23.6970 C   0  0  0  0  0  3  0  0  0  0  0  0
  -21.9470   -4.8060   22.5600 C   0  0  0  0  0  0  0  0  0  0  0  0
  -22.3120   -4.2730   21.3690 F   0  0  0  0  0  0  0  0  0  0  0  0
  -21.3840   -3.7320   26.0240 F   0  0  0  0  0  0  0  0  0  0  0  0
  -22.7300  -13.5710   21.1680 C   0  0  0  0  0  0  0  0  0  0  0  0
  -22.0130  -12.8750   22.0430 N   0  0  0  0  0  0  0  0  0  0  0  0
  -22.2850  -14.5930   20.6470 O   0  0  0  0  0  0  0  0  0  0  0  0
  -22.3870  -12.0480   22.4830 H   0  0  0  0  0  0  0  0  0  0  0  0
  -21.0770  -13.1750   22.2770 H   0  0  0  0  0  0  0  0  0  0  0  0
  -25.3490  -15.2430   20.3200 N   0  0  0  0  0  0  0  0  0  0  0  0
  -24.5820  -15.8980   20.4360 H   0  0  0  0  0  0  0  0  0  0  0  0
  -26.1820  -15.6750   19.9450 H   0  0  0  0  0  0  0  0  0  0  0  0
  -28.0360  -24.9420   20.0200 C   0  0  0  0  0  2  0  0  0  0  0  0
  -28.2800  -26.4060   20.2630 O   0  0  0  0  0  0  0  0  0  0  0  0
  -24.6030  -31.8790   23.2580 C   0  0  0  0  0  0  0  0  0  0  0  0
  -27.1890  -27.3020   20.1800 C   0  0  0  0  0  0  0  0  0  0  0  0
  -23.3940  -30.4900   21.6150 C   0  0  0  0  0  3  0  0  0  0  0  0
  -24.8390  -28.9490   20.1720 C   0  0  0  0  0  0  0  0  0  0  0  0
  -25.9340  -30.7990   21.4280 C   0  0  0  0  0  2  0  0  0  0  0  0
  -26.0120  -29.4220   20.7730 C   0  0  0  0  0  0  0  0  0  0  0  0
  -27.1900  -28.6120   20.7690 C   0  0  0  0  0  3  0  0  0  0  0  0
  -25.9960  -26.9040   19.5370 C   0  0  0  0  0  3  0  0  0  0  0  0
  -24.8340  -27.6970   19.5440 C   0  0  0  0  0  3  0  0  0  0  0  0
  -23.6040  -29.8250   20.2300 C   0  0  0  0  0  2  0  0  0  0  0  0
  -24.6630  -31.0740   22.1570 N   0  0  0  0  0  0  0  0  0  0  0  0
  -23.5210  -32.1570   23.7960 O   0  0  0  0  0  0  0  0  0  0  0  0
  -22.7330  -29.4690   22.5720 C   0  0  0  0  0  0  0  0  0  0  0  0
  -21.4080  -29.2950   22.4490 N   0  0  0  0  0  0  0  0  0  0  0  0
  -23.4140  -28.8370   23.3860 O   0  0  0  0  0  0  0  0  0  0  0  0
  -20.9220  -29.8580   21.7660 H   0  0  0  0  0  0  0  0  0  0  0  0
  -18.0280  -28.1040   22.9480 C   0  0  0  0  0  0  0  0  0  0  0  0
  -20.5860  -28.3550   23.2160 C   0  0  0  0  0  3  0  0  0  0  0  0
  -20.6860  -26.9280   22.6320 C   0  0  0  0  0  2  0  0  0  0  0  0
  -19.5830  -26.6140   21.6180 C   0  0  0  0  0  2  0  0  0  0  0  0
  -18.2020  -26.7580   22.2650 C   0  0  0  0  0  2  0  0  0  0  0  0
  -19.1490  -28.8610   23.3810 C   0  0  0  0  0  0  0  0  0  0  0  0
  -18.9350  -30.1200   23.9820 C   0  0  0  0  0  3  0  0  0  0  0  0
  -17.6320  -30.6230   24.1560 C   0  0  0  0  0  3  0  0  0  0  0  0
  -16.5250  -29.8630   23.7410 C   0  0  0  0  0  3  0  0  0  0  0  0
  -16.7240  -28.6050   23.1430 C   0  0  0  0  0  3  0  0  0  0  0  0
  -25.8880  -32.5060   23.8790 C   0  0  0  0  0  3  0  0  0  0  0  0
  -25.5830  -33.9030   24.2150 N   0  0  0  0  0  0  0  0  0  0  0  0
  -25.9050  -34.9580   23.4550 C   0  0  0  0  0  0  0  0  0  0  0  0
  -26.5590  -34.8560   22.4130 O   0  0  0  0  0  0  0  0  0  0  0  0
  -24.9970  -34.0540   25.0230 H   0  0  0  0  0  0  0  0  0  0  0  0
  -24.1640  -36.7460   23.1430 C   0  0  0  0  0  1  0  0  0  0  0  0
  -25.4260  -36.3470   23.9230 C   0  0  0  0  0  3  0  0  0  0  0  0
  -27.5780  -37.2390   24.6970 C   0  0  0  0  0  1  0  0  0  0  0  0
  -26.4530  -37.4030   23.7810 N   0  0  0  0  0  0  0  0  0  0  0  0
  -26.0490  -38.3230   23.9390 H   0  0  0  0  0  0  0  0  0  0  0  0
  -26.4040  -31.7290   25.1520 C   0  0  1  0  0  0  0  0  0  0  0  0
  -25.3100  -31.4910   26.2190 C   0  0  0  0  0  1  0  0  0  0  0  0
  -26.9840  -30.3530   24.7530 C   0  0  0  0  0  1  0  0  0  0  0  0
  -27.5580  -32.5170   25.8160 C   0  0  0  0  0  1  0  0  0  0  0  0
  1  4  1  0
  2  1  1  0
  2  5  1  0
  3  4  1  0
  4 50  1  0
  5  9  1  0
  5  3  1  0
  6  1  2  0
  7  8  1  0
  7  9  2  0
  8 10  2  0
  9 11  1  0
 10 20  1  0
 10 11  1  0
 12 20  1  0
 13 18  1  0
 14 15  1  0
 14 13  1  0
 16 15  1  0
 16 25  1  0
 16 17  1  0
 18 12  1  0
 18 17  1  0
 19 12  2  0
 20 21  1  0
 22 23  2  0
 23 42  1  0
 24 23  1  0
 24 27  1  0
 25 22  1  0
 25 26  1  0
 26 24  2  0
 27 28  1  0
 28 29  2  0
 30 33  1  0
 30 29  1  0
 31 30  2  0
 32 31  1  0
 32 27  2  0
 33 34  1  0
 34 35  1  0
 35 36  2  0
 37 36  1  0
 37 41  1  0
 38 37  2  0
 39 34  2  0
 39 38  1  0
 40 39  1  0
 42 43  1  0
 43 46  1  0
 43 45  1  0
 44 42  2  0
 47 48  1  0
 47 22  1  0
 49 47  1  0
 50 51  1  0
 52 63  2  0
 53 51  1  0
 53 58  1  0
 54 62  1  0
 54 64  1  0
 55 61  1  0
 55 57  1  0
 56 62  1  0
 57 56  1  0
 58 57  2  0
 59 60  1  0
 59 53  2  0
 60 55  2  0
 61 54  1  0
 62 52  1  0
 64 66  2  0
 65 64  1  0
 67 65  1  0
 68 77  2  0
 68 73  1  0
 69 65  1  0
 69 73  1  0
 70 69  1  0
 71 72  1  0
 71 70  1  0
 72 68  1  0
 73 74  2  0
 74 75  1  0
 76 75  2  0
 77 76  1  0
 78 52  1  0
 78 79  1  0
 78 88  1  0
 79 82  1  0
 80 84  1  0
 80 79  1  0
 81 80  2  0
 84 83  1  0
 86 84  1  0
 86 87  1  0
 86 85  1  0
 88 91  1  1
 88 89  1  0
 90 88  1  0
M  ISO  4  12 100  20 100  50 101  51 101
M  END
>  <TORSDO>  (23) 
F 18

>  <SCORE>  (23) 
-14.578

>  <name>  (23) 
22

>  <ligand_id>  (23) 
22

>  <original_smiles>  (23) 
[H]c1c(N([H])C(=O)N2C([H])([H])C([H])([H])C([H])([H])C([H])(n3nc(-c4c([H])c([H])c(Oc5c([H])c([H])c(F)c([H])c5F)c([H])c4[H])c(C(=O)N([H])[H])c3N([H])[H])C2([H])[H])sc(N2C([H])([H])C(=O)C([H])(C([H])([H])Oc3c([H])c([H])c4c(c3[H])C([H])([H])N(C(=O)C([H])(N([H])C(=O)C([H])(N([H])C([H])([H])[H])C([H])([H])[H])C(C([H])([H])[H])(C([H])([H])[H])C([H])([H])[H])C([H])(C(=O)N([H])C3([H])c5c([H])c([H])c([H])c([H])c5C([H])([H])C([H])([H])C3([H])[H])C4([H])[H])C2([H])[H])c1[H]

>  <smiles>  (23) 
[H]c1c(N([H])C(=O)N2C([H])([H])C([H])([H])C([H])([H])C([H])(n3nc(-c4c([H])c([H])c(Oc5c([H])c([H])c(F)c([H])c5F)c([H])c4[H])c(C(=O)N([H])[H])c3N([H])[H])C2([H])[H])sc(N2C([H])([H])C(=O)C([H])(C([H])([H])Oc3c([H])c([H])c4c(c3[H])C([H])([H])N(C(=O)C([H])(N([H])C(=O)C([H])(N([H])C([H])([H])[H])C([H])([H])[H])C(C([H])([H])[H])(C([H])([H])[H])C([H])([H])[H])C([H])(C(=O)N([H])C3([H])c5c([H])c([H])c([H])c([H])c5C([H])([H])C([H])([H])C3([H])[H])C4([H])[H])C2([H])[H])c1[H]

$$$$
23:0:0
     RDKit          3D

 95104  0  0  1  0  0  0  0  0999 V2000
  -28.6690  -23.7650   19.7150 C   0  0  0  0  0  0  0  0  0  0  0  0
  -29.3800  -21.2520   19.9670 C   0  0  0  0  0  3  0  0  0  0  0  0
  -28.4220  -24.3900   21.9820 C   0  0  0  0  0  2  0  0  0  0  0  0
  -28.6460  -22.8430   21.8770 C   0  0  0  0  0  2  0  0  0  0  0  0
  -27.9990  -24.8910   20.5900 C   0  0  0  0  0  3  0  0  0  0  0  0
  -28.9530  -22.5030   20.4670 N   0  0  0  0  0  0  0  0  0  0  0  0
  -29.4470  -21.1210   18.6420 N   0  0  0  0  0  0  0  0  0  0  0  0
  -28.8900  -23.8850   18.5050 O   0  0  0  0  0  0  0  0  0  0  0  0
  -29.8970  -20.3140   18.2420 H   0  0  0  0  0  0  0  0  0  0  0  0
  -29.2390  -21.9190   18.0560 H   0  0  0  0  0  0  0  0  0  0  0  0
  -31.5370  -18.9860   22.2100 C   0  0  0  0  0  3  0  0  0  0  0  0
  -30.8800  -20.1200   21.6730 C   0  0  0  0  0  3  0  0  0  0  0  0
  -31.2190  -17.6690   21.8000 C   0  0  0  0  0  3  0  0  0  0  0  0
  -29.5340  -18.6060   20.3190 C   0  0  0  0  0  3  0  0  0  0  0  0
  -29.8670  -19.9810   20.6960 C   0  0  0  0  0  0  0  0  0  0  0  0
  -30.2070  -17.4170   20.8430 C   0  0  0  0  0  0  0  0  0  0  0  0
  -30.6250  -14.8430   20.3750 C   0  0  0  0  0  0  0  0  0  0  0  0
  -30.4180  -12.5470   19.3620 C   0  0  0  0  0  2  0  0  0  0  0  0
  -29.4700  -12.5540   18.1410 C   0  0  0  0  0  2  0  0  0  0  0  0
  -28.0120  -12.3700   18.5960 C   0  0  0  0  0  2  0  0  0  0  0  0
  -27.6280  -13.3030   19.7720 C   0  0  0  0  0  3  0  0  0  0  0  0
  -28.6920  -13.2810   20.8920 C   0  0  0  0  0  2  0  0  0  0  0  0
  -29.9780  -13.6290   20.2770 N   0  0  0  0  0  0  0  0  0  0  0  0
  -31.8280  -14.9130   20.0950 O   0  0  0  0  0  0  0  0  0  0  0  0
  -29.8560  -16.0020   20.5030 N   0  0  0  0  0  0  0  0  0  0  0  0
  -28.8700  -15.8370   20.3750 H   0  0  0  0  0  0  0  0  0  0  0  0
  -25.2600  -13.9090   20.5320 C   0  0  0  0  0  0  0  0  0  0  0  0
  -24.1850  -13.1420   20.8900 C   0  0  0  0  0  0  0  0  0  0  0  0
  -24.6340  -11.7880   20.8470 C   0  0  0  0  0  0  0  0  0  0  0  0
  -26.2890  -13.0200   20.2770 N   0  0  0  0  0  0  0  0  0  0  0  0
  -25.9240  -11.7380   20.5370 N   0  0  0  0  0  0  0  0  0  0  0  0
  -23.9000  -10.5320   21.0350 C   0  0  0  0  0  0  0  0  0  0  0  0
  -24.3190   -9.5630   21.9730 C   0  0  0  0  0  3  0  0  0  0  0  0
  -23.5830   -8.3710   22.1480 C   0  0  0  0  0  3  0  0  0  0  0  0
  -22.4170   -8.1380   21.3830 C   0  0  0  0  0  0  0  0  0  0  0  0
  -22.0160   -9.0980   20.4370 C   0  0  0  0  0  3  0  0  0  0  0  0
  -22.7510  -10.2820   20.2610 C   0  0  0  0  0  3  0  0  0  0  0  0
  -21.6530   -7.0000   21.4670 O   0  0  0  0  0  0  0  0  0  0  0  0
  -21.5790   -6.2650   22.6210 C   0  0  0  0  0  0  0  0  0  0  0  0
  -21.1160   -6.8270   23.8310 C   0  0  0  0  0  3  0  0  0  0  0  0
  -20.9890   -6.0200   24.9790 C   0  0  0  0  0  3  0  0  0  0  0  0
  -21.3130   -4.6520   24.9200 C   0  0  0  0  0  0  0  0  0  0  0  0
  -21.7650   -4.0900   23.7140 C   0  0  0  0  0  3  0  0  0  0  0  0
  -21.8960   -4.8920   22.5680 C   0  0  0  0  0  0  0  0  0  0  0  0
  -22.3140   -4.3410   21.4040 F   0  0  0  0  0  0  0  0  0  0  0  0
  -21.1840   -3.8740   26.0200 F   0  0  0  0  0  0  0  0  0  0  0  0
  -22.7960  -13.6320   21.1700 C   0  0  0  0  0  0  0  0  0  0  0  0
  -22.0600  -12.9340   22.0280 N   0  0  0  0  0  0  0  0  0  0  0  0
  -22.3700  -14.6700   20.6640 O   0  0  0  0  0  0  0  0  0  0  0  0
  -22.4120  -12.0870   22.4510 H   0  0  0  0  0  0  0  0  0  0  0  0
  -21.1310  -13.2520   22.2620 H   0  0  0  0  0  0  0  0  0  0  0  0
  -25.4520  -15.2810   20.3900 N   0  0  0  0  0  0  0  0  0  0  0  0
  -24.7250  -15.9620   20.5810 H   0  0  0  0  0  0  0  0  0  0  0  0
  -26.3550  -15.7090   20.2300 H   0  0  0  0  0  0  0  0  0  0  0  0
  -28.2780  -26.3530   20.2600 O   0  0  0  0  0  0  0  0  0  0  0  0
  -24.6150  -31.8830   23.2220 C   0  0  0  0  0  0  0  0  0  0  0  0
  -27.1990  -27.2700   20.1870 C   0  0  0  0  0  0  0  0  0  0  0  0
  -23.4060  -30.4870   21.5860 C   0  0  0  0  0  3  0  0  0  0  0  0
  -24.8530  -28.9320   20.1500 C   0  0  0  0  0  0  0  0  0  0  0  0
  -25.9500  -30.7940   21.3920 C   0  0  0  0  0  2  0  0  0  0  0  0
  -26.0270  -29.4100   20.7480 C   0  0  0  0  0  0  0  0  0  0  0  0
  -27.2080  -28.5940   20.7480 C   0  0  0  0  0  3  0  0  0  0  0  0
  -26.0090  -26.8760   19.5370 C   0  0  0  0  0  3  0  0  0  0  0  0
  -24.8500  -27.6760   19.5260 C   0  0  0  0  0  3  0  0  0  0  0  0
  -23.6160  -29.8090   20.2060 C   0  0  0  0  0  2  0  0  0  0  0  0
  -24.6770  -31.0750   22.1220 N   0  0  0  0  0  0  0  0  0  0  0  0
  -23.5340  -32.1600   23.7640 O   0  0  0  0  0  0  0  0  0  0  0  0
  -22.7470  -29.4710   22.5510 C   0  0  0  0  0  0  0  0  0  0  0  0
  -21.4210  -29.2900   22.4270 N   0  0  0  0  0  0  0  0  0  0  0  0
  -23.4290  -28.8500   23.3710 O   0  0  0  0  0  0  0  0  0  0  0  0
  -20.9280  -29.8410   21.7380 H   0  0  0  0  0  0  0  0  0  0  0  0
  -18.0490  -28.0730   22.9450 C   0  0  0  0  0  0  0  0  0  0  0  0
  -20.6070  -28.3490   23.2010 C   0  0  0  0  0  3  0  0  0  0  0  0
  -20.7160  -26.9160   22.6310 C   0  0  0  0  0  2  0  0  0  0  0  0
  -19.6120  -26.5830   21.6240 C   0  0  0  0  0  2  0  0  0  0  0  0
  -18.2320  -26.7230   22.2700 C   0  0  0  0  0  2  0  0  0  0  0  0
  -19.1640  -28.8420   23.3680 C   0  0  0  0  0  0  0  0  0  0  0  0
  -18.9400  -30.1030   23.9630 C   0  0  0  0  0  3  0  0  0  0  0  0
  -17.6320  -30.5960   24.1340 C   0  0  0  0  0  3  0  0  0  0  0  0
  -16.5320  -29.8230   23.7230 C   0  0  0  0  0  3  0  0  0  0  0  0
  -16.7420  -28.5640   23.1350 C   0  0  0  0  0  3  0  0  0  0  0  0
  -25.8970  -32.5200   23.8380 C   0  0  0  0  0  3  0  0  0  0  0  0
  -25.5870  -33.9180   24.1760 N   0  0  0  0  0  0  0  0  0  0  0  0
  -25.9050  -34.9760   23.4160 C   0  0  0  0  0  0  0  0  0  0  0  0
  -26.5620  -34.8770   22.3760 O   0  0  0  0  0  0  0  0  0  0  0  0
  -25.0060  -34.0680   24.9880 H   0  0  0  0  0  0  0  0  0  0  0  0
  -24.1720  -36.7680   23.0820 C   0  0  0  0  0  1  0  0  0  0  0  0
  -25.4170  -36.3610   23.8850 C   0  0  0  0  0  3  0  0  0  0  0  0
  -27.5560  -37.2470   24.7040 C   0  0  0  0  0  1  0  0  0  0  0  0
  -26.4480  -37.4170   23.7680 N   0  0  0  0  0  0  0  0  0  0  0  0
  -26.0410  -38.3370   23.9210 H   0  0  0  0  0  0  0  0  0  0  0  0
  -26.4200  -31.7490   25.1140 C   0  0  1  0  0  0  0  0  0  0  0  0
  -25.3360  -31.5090   26.1890 C   0  0  0  0  0  1  0  0  0  0  0  0
  -27.0080  -30.3760   24.7190 C   0  0  0  0  0  1  0  0  0  0  0  0
  -27.5740  -32.5490   25.7690 C   0  0  0  0  0  1  0  0  0  0  0  0
  1  6  1  0
  1  5  1  0
  2  7  1  0
  2  6  1  0
  2 15  1  0
  4  3  1  0
  5 55  1  0
  5  3  1  0
  6  4  1  0
  8  1  2  0
  9  7  1  0
 10  7  1  0
 12 11  2  0
 13 11  1  0
 14 15  2  0
 14 16  1  0
 15 12  1  0
 16 13  2  0
 17 25  1  0
 18 23  1  0
 19 20  1  0
 19 18  1  0
 21 20  1  0
 21 30  1  0
 21 22  1  0
 23 17  1  0
 23 22  1  0
 24 17  2  0
 25 16  1  0
 26 25  1  0
 27 28  2  0
 28 47  1  0
 29 28  1  0
 29 32  1  0
 30 27  1  0
 30 31  1  0
 31 29  2  0
 32 33  1  0
 33 34  2  0
 35 38  1  0
 35 34  1  0
 36 35  2  0
 37 36  1  0
 37 32  2  0
 38 39  1  0
 39 40  1  0
 40 41  2  0
 42 41  1  0
 42 46  1  0
 43 42  2  0
 44 39  2  0
 44 43  1  0
 45 44  1  0
 47 48  1  0
 48 51  1  0
 48 50  1  0
 49 47  2  0
 52 27  1  0
 52 53  1  0
 54 52  1  0
 56 67  2  0
 57 55  1  0
 57 62  1  0
 58 66  1  0
 58 68  1  0
 59 65  1  0
 59 61  1  0
 60 66  1  0
 61 62  2  0
 61 60  1  0
 63 57  2  0
 64 63  1  0
 64 59  2  0
 65 58  1  0
 66 56  1  0
 68 70  2  0
 69 68  1  0
 71 69  1  0
 72 81  2  0
 72 77  1  0
 73 69  1  0
 73 77  1  0
 74 73  1  0
 75 76  1  0
 75 74  1  0
 76 72  1  0
 77 78  2  0
 78 79  1  0
 80 79  2  0
 81 80  1  0
 82 56  1  0
 82 83  1  0
 82 92  1  0
 83 86  1  0
 84 88  1  0
 84 83  1  0
 85 84  2  0
 88 87  1  0
 90 88  1  0
 90 91  1  0
 90 89  1  0
 92 95  1  1
 92 93  1  0
 94 92  1  0
M  ISO  4   5 101  17 100  25 100  55 101
M  END
>  <TORSDO>  (24) 
F 17

>  <SCORE>  (24) 
-15.351

>  <name>  (24) 
23

>  <ligand_id>  (24) 
23

>  <original_smiles>  (24) 
[H]c1c([H])c(C(N2C(=O)C([H])(Oc3c([H])c([H])c4c(c3[H])C([H])([H])N(C(=O)C([H])(N([H])C(=O)C([H])(N([H])C([H])([H])[H])C([H])([H])[H])C(C([H])([H])[H])(C([H])([H])[H])C([H])([H])[H])C([H])(C(=O)N([H])C3([H])c5c([H])c([H])c([H])c([H])c5C([H])([H])C([H])([H])C3([H])[H])C4([H])[H])C([H])([H])C2([H])[H])=[N+]([H])[H])c([H])c(N([H])C(=O)N2C([H])([H])C([H])([H])C([H])([H])C([H])(n3nc(-c4c([H])c([H])c(Oc5c([H])c([H])c(F)c([H])c5F)c([H])c4[H])c(C(=O)N([H])[H])c3N([H])[H])C2([H])[H])c1[H]

>  <smiles>  (24) 
[H]c1c([H])c(C(N2C(=O)C([H])(Oc3c([H])c([H])c4c(c3[H])C([H])([H])N(C(=O)C([H])(N([H])C(=O)C([H])(N([H])C([H])([H])[H])C([H])([H])[H])C(C([H])([H])[H])(C([H])([H])[H])C([H])([H])[H])C([H])(C(=O)N([H])C3([H])c5c([H])c([H])c([H])c([H])c5C([H])([H])C([H])([H])C3([H])[H])C4([H])[H])C([H])([H])C2([H])[H])=[N+]([H])[H])c([H])c(N([H])C(=O)N2C([H])([H])C([H])([H])C([H])([H])C([H])(n3nc(-c4c([H])c([H])c(Oc5c([H])c([H])c(F)c([H])c5F)c([H])c4[H])c(C(=O)N([H])[H])c3N([H])[H])C2([H])[H])c1[H]

$$$$
24:0:0
     RDKit          3D

 97106  0  0  1  0  0  0  0  0999 V2000
  -31.0030  -20.5890   19.5350 C   0  0  0  0  0  3  0  0  0  0  0  0
  -30.6740  -24.2940   18.8490 C   0  0  0  0  0  2  0  0  0  0  0  0
  -31.4200  -22.9390   18.7970 C   0  0  0  0  0  2  0  0  0  0  0  0
  -29.2230  -22.5570   19.6430 C   0  0  0  0  0  2  0  0  0  0  0  0
  -29.4730  -24.1180   19.8000 C   0  0  1  0  0  0  0  0  0  0  0  0
  -30.5410  -21.8980   19.3810 N   0  0  0  0  0  0  0  0  0  0  0  0
  -32.2710  -20.3540   19.1500 N   0  0  0  0  0  0  0  0  0  0  0  0
  -32.6760  -19.4420   19.2840 H   0  0  0  0  0  0  0  0  0  0  0  0
  -32.8500  -21.0680   18.7380 H   0  0  0  0  0  0  0  0  0  0  0  0
  -30.7000  -17.9930   19.7940 C   0  0  0  0  0  3  0  0  0  0  0  0
  -29.3660  -19.4300   21.0840 C   0  0  0  0  0  3  0  0  0  0  0  0
  -30.3210  -19.3730   20.1070 C   0  0  0  0  0  0  0  0  0  0  0  0
  -30.0290  -17.0180   20.5340 C   0  0  0  0  0  0  0  0  0  0  0  0
  -28.8890  -17.8300   21.5950 S   0  0  0  0  0  0  0  0  0  0  0  0
  -30.8000  -14.6590   19.9900 C   0  0  0  0  0  0  0  0  0  0  0  0
  -30.5740  -12.4180   18.9310 C   0  0  0  0  0  2  0  0  0  0  0  0
  -29.5500  -12.5370   17.7790 C   0  0  0  0  0  2  0  0  0  0  0  0
  -28.1080  -12.3570   18.2970 C   0  0  0  0  0  2  0  0  0  0  0  0
  -27.8160  -13.2130   19.5590 C   0  0  0  0  0  3  0  0  0  0  0  0
  -28.9430  -13.0500   20.6040 C   0  0  0  0  0  2  0  0  0  0  0  0
  -30.2150  -13.4180   19.9550 N   0  0  0  0  0  0  0  0  0  0  0  0
  -31.8910  -14.8840   19.4560 O   0  0  0  0  0  0  0  0  0  0  0  0
  -30.0370  -15.6350   20.5630 N   0  0  0  0  0  0  0  0  0  0  0  0
  -29.2620  -15.2410   21.0760 H   0  0  0  0  0  0  0  0  0  0  0  0
  -25.4810  -13.7890   20.4730 C   0  0  0  0  0  0  0  0  0  0  0  0
  -24.4370  -13.0040   20.8840 C   0  0  0  0  0  0  0  0  0  0  0  0
  -24.8840  -11.6530   20.7530 C   0  0  0  0  0  0  0  0  0  0  0  0
  -26.5000  -12.9160   20.1230 N   0  0  0  0  0  0  0  0  0  0  0  0
  -26.1480  -11.6230   20.3480 N   0  0  0  0  0  0  0  0  0  0  0  0
  -24.1630  -10.3870   20.9380 C   0  0  0  0  0  0  0  0  0  0  0  0
  -24.5800   -9.4310   21.8900 C   0  0  0  0  0  3  0  0  0  0  0  0
  -23.8600   -8.2280   22.0610 C   0  0  0  0  0  3  0  0  0  0  0  0
  -22.7090   -7.9740   21.2790 C   0  0  0  0  0  0  0  0  0  0  0  0
  -22.3100   -8.9190   20.3180 C   0  0  0  0  0  3  0  0  0  0  0  0
  -23.0310  -10.1130   20.1450 C   0  0  0  0  0  3  0  0  0  0  0  0
  -21.9620   -6.8230   21.3570 O   0  0  0  0  0  0  0  0  0  0  0  0
  -21.7930   -6.1560   22.5440 C   0  0  0  0  0  0  0  0  0  0  0  0
  -21.1760   -6.7630   23.6600 C   0  0  0  0  0  3  0  0  0  0  0  0
  -20.9590   -6.0180   24.8350 C   0  0  0  0  0  3  0  0  0  0  0  0
  -21.3460   -4.6670   24.8960 C   0  0  0  0  0  0  0  0  0  0  0  0
  -21.9540   -4.0590   23.7840 C   0  0  0  0  0  3  0  0  0  0  0  0
  -22.1740   -4.8000   22.6100 C   0  0  0  0  0  0  0  0  0  0  0  0
  -22.7410   -4.2030   21.5350 F   0  0  0  0  0  0  0  0  0  0  0  0
  -21.1300   -3.9490   26.0230 F   0  0  0  0  0  0  0  0  0  0  0  0
  -23.0670  -13.4750   21.2800 C   0  0  0  0  0  0  0  0  0  0  0  0
  -22.3980  -12.7440   22.1650 N   0  0  0  0  0  0  0  0  0  0  0  0
  -22.5990  -14.5260   20.8430 O   0  0  0  0  0  0  0  0  0  0  0  0
  -22.7880  -11.8940   22.5430 H   0  0  0  0  0  0  0  0  0  0  0  0
  -21.4820  -13.0400   22.4710 H   0  0  0  0  0  0  0  0  0  0  0  0
  -25.6420  -15.1660   20.3490 N   0  0  0  0  0  0  0  0  0  0  0  0
  -24.8860  -15.8160   20.5350 H   0  0  0  0  0  0  0  0  0  0  0  0
  -26.4690  -15.6170   19.9770 H   0  0  0  0  0  0  0  0  0  0  0  0
  -29.8170  -24.4150   21.2850 C   0  0  0  0  0  0  0  0  0  0  0  0
  -31.1550  -23.9550   21.8570 C   0  0  0  0  0  1  0  0  0  0  0  0
  -29.0080  -24.9660   22.0370 O   0  0  0  0  0  0  0  0  0  0  0  0
  -28.2610  -25.0510   19.3550 C   0  0  0  0  0  2  0  0  0  0  0  0
  -28.4220  -26.5150   19.4240 O   0  0  0  0  0  0  0  0  0  0  0  0
  -24.6410  -31.5790   22.8760 C   0  0  0  0  0  0  0  0  0  0  0  0
  -27.2620  -27.3020   19.4700 C   0  0  0  0  0  0  0  0  0  0  0  0
  -23.4150  -30.2550   21.1910 C   0  0  0  0  0  3  0  0  0  0  0  0
  -24.8540  -28.8280   19.6340 C   0  0  0  0  0  0  0  0  0  0  0  0
  -25.9380  -30.6500   20.9480 C   0  0  0  0  0  2  0  0  0  0  0  0
  -26.0270  -29.3160   20.2220 C   0  0  0  0  0  0  0  0  0  0  0  0
  -27.2340  -28.5640   20.1320 C   0  0  0  0  0  3  0  0  0  0  0  0
  -26.0610  -26.8580   18.8680 C   0  0  0  0  0  3  0  0  0  0  0  0
  -24.8710  -27.6020   18.9510 C   0  0  0  0  0  3  0  0  0  0  0  0
  -23.6000  -29.6660   19.7680 C   0  0  0  0  0  2  0  0  0  0  0  0
  -24.6850  -30.8420   21.7290 N   0  0  0  0  0  0  0  0  0  0  0  0
  -23.5690  -31.7990   23.4580 O   0  0  0  0  0  0  0  0  0  0  0  0
  -22.8050  -29.1670   22.1070 C   0  0  0  0  0  0  0  0  0  0  0  0
  -21.4740  -28.9980   22.0380 N   0  0  0  0  0  0  0  0  0  0  0  0
  -23.5250  -28.4810   22.8370 O   0  0  0  0  0  0  0  0  0  0  0  0
  -20.9510  -29.6030   21.4210 H   0  0  0  0  0  0  0  0  0  0  0  0
  -18.1180  -27.7970   22.6550 C   0  0  0  0  0  0  0  0  0  0  0  0
  -20.6930  -28.0070   22.7800 C   0  0  0  0  0  3  0  0  0  0  0  0
  -20.7370  -26.6280   22.0810 C   0  0  0  0  0  2  0  0  0  0  0  0
  -19.5670  -26.4030   21.1180 C   0  0  0  0  0  2  0  0  0  0  0  0
  -18.2320  -26.5070   21.8600 C   0  0  0  0  0  2  0  0  0  0  0  0
  -19.2740  -28.5090   23.0730 C   0  0  0  0  0  0  0  0  0  0  0  0
  -19.1120  -29.7210   23.7800 C   0  0  0  0  0  3  0  0  0  0  0  0
  -17.8280  -30.2180   24.0730 C   0  0  0  0  0  3  0  0  0  0  0  0
  -16.6890  -29.5010   23.6700 C   0  0  0  0  0  3  0  0  0  0  0  0
  -16.8360  -28.2920   22.9670 C   0  0  0  0  0  3  0  0  0  0  0  0
  -25.9290  -32.2010   23.4970 C   0  0  0  0  0  3  0  0  0  0  0  0
  -26.5280  -31.3390   24.6770 C   0  0  1  0  0  0  0  0  0  0  0  0
  -25.4930  -30.9800   25.7700 C   0  0  0  0  0  1  0  0  0  0  0  0
  -27.1270  -30.0180   24.1410 C   0  0  0  0  0  1  0  0  0  0  0  0
  -27.6870  -32.1080   25.3520 C   0  0  0  0  0  1  0  0  0  0  0  0
  -25.5920  -33.5510   23.9640 N   0  0  0  0  0  0  0  0  0  0  0  0
  -25.9030  -34.6810   23.3140 C   0  0  0  0  0  0  0  0  0  0  0  0
  -26.5750  -34.6930   22.2800 O   0  0  0  0  0  0  0  0  0  0  0  0
  -24.9930  -33.6140   24.7750 H   0  0  0  0  0  0  0  0  0  0  0  0
  -24.1520  -36.4770   23.1220 C   0  0  0  0  0  1  0  0  0  0  0  0
  -25.3880  -36.0060   23.9070 C   0  0  0  0  0  3  0  0  0  0  0  0
  -27.4870  -36.8370   24.8730 C   0  0  0  0  0  1  0  0  0  0  0  0
  -26.4050  -37.0800   23.9230 N   0  0  0  0  0  0  0  0  0  0  0  0
  -25.9790  -37.9760   24.1490 H   0  0  0  0  0  0  0  0  0  0  0  0
  1  7  1  0
  1 12  1  0
  2  5  1  0
  3  2  1  0
  3  6  1  0
  4  5  1  0
  5 56  1  6
  5 53  1  0
  6  1  1  0
  6  4  1  0
  7  8  1  0
  9  7  1  0
 10 12  1  0
 10 13  2  0
 11 14  1  0
 12 11  2  0
 13 23  1  0
 13 14  1  0
 15 23  1  0
 16 21  1  0
 17 18  1  0
 17 16  1  0
 19 18  1  0
 19 28  1  0
 19 20  1  0
 21 15  1  0
 21 20  1  0
 22 15  2  0
 23 24  1  0
 25 26  2  0
 26 45  1  0
 27 26  1  0
 27 30  1  0
 28 29  1  0
 28 25  1  0
 29 27  2  0
 30 31  1  0
 31 32  2  0
 33 36  1  0
 33 32  1  0
 34 33  2  0
 35 34  1  0
 35 30  2  0
 36 37  1  0
 37 42  2  0
 37 38  1  0
 38 39  2  0
 39 40  1  0
 40 44  1  0
 41 40  2  0
 42 41  1  0
 43 42  1  0
 45 46  1  0
 46 49  1  0
 46 48  1  0
 47 45  2  0
 50 25  1  0
 50 51  1  0
 52 50  1  0
 53 54  1  0
 53 55  2  0
 56 57  1  0
 57 59  1  0
 58 69  2  0
 59 64  1  0
 60 68  1  0
 60 70  1  0
 61 67  1  0
 61 63  1  0
 62 68  1  0
 63 62  1  0
 64 63  2  0
 65 66  1  0
 65 59  2  0
 66 61  2  0
 67 60  1  0
 68 58  1  0
 70 72  2  0
 71 70  1  0
 73 71  1  0
 74 83  2  0
 74 79  1  0
 75 71  1  0
 75 79  1  0
 76 75  1  0
 77 78  1  0
 77 76  1  0
 78 74  1  0
 79 80  2  0
 80 81  1  0
 82 81  2  0
 83 82  1  0
 84 58  1  0
 84 89  1  0
 84 85  1  0
 85 88  1  1
 85 86  1  0
 87 85  1  0
 89 92  1  0
 90 94  1  0
 90 89  1  0
 91 90  2  0
 94 93  1  0
 94 96  1  0
 96 97  1  0
 96 95  1  0
M  ISO  4  15 100  23 100  56 101  57 101
M  END
>  <TORSDO>  (25) 
F 19

>  <SCORE>  (25) 
-11.193

>  <name>  (25) 
24

>  <ligand_id>  (25) 
24

>  <original_smiles>  (25) 
[H]c1sc(N([H])C(=O)N2C([H])([H])C([H])([H])C([H])([H])C([H])(n3nc(-c4c([H])c([H])c(Oc5c([H])c([H])c(F)c([H])c5F)c([H])c4[H])c(C(=O)N([H])[H])c3N([H])[H])C2([H])[H])c([H])c1C(N1C([H])([H])C([H])([H])C(C(=O)C([H])([H])[H])(C([H])([H])Oc2c([H])c([H])c3c(c2[H])C([H])([H])N(C(=O)C([H])(N([H])C(=O)C([H])(N([H])C([H])([H])[H])C([H])([H])[H])C(C([H])([H])[H])(C([H])([H])[H])C([H])([H])[H])C([H])(C(=O)N([H])C2([H])c4c([H])c([H])c([H])c([H])c4C([H])([H])C([H])([H])C2([H])[H])C3([H])[H])C1([H])[H])=[N+]([H])[H]

>  <smiles>  (25) 
[H]c1sc(N([H])C(=O)N2C([H])([H])C([H])([H])C([H])([H])C([H])(n3nc(-c4c([H])c([H])c(Oc5c([H])c([H])c(F)c([H])c5F)c([H])c4[H])c(C(=O)N([H])[H])c3N([H])[H])C2([H])[H])c([H])c1C(N1C([H])([H])C([H])([H])C(C(=O)C([H])([H])[H])(C([H])([H])Oc2c([H])c([H])c3c(c2[H])C([H])([H])N(C(=O)C([H])(N([H])C(=O)C([H])(N([H])C([H])([H])[H])C([H])([H])[H])C(C([H])([H])[H])(C([H])([H])[H])C([H])([H])[H])C([H])(C(=O)N([H])C2([H])c4c([H])c([H])c([H])c([H])c4C([H])([H])C([H])([H])C2([H])[H])C3([H])[H])C1([H])[H])=[N+]([H])[H]

$$$$
25:0:0
     RDKit          3D

 91100  0  0  1  0  0  0  0  0999 V2000
  -29.5420  -18.4570   21.0400 C   0  0  0  0  0  3  0  0  0  0  0  0
  -29.6880  -19.7130   20.2730 C   0  0  0  0  0  0  0  0  0  0  0  0
  -29.9430  -17.2770   20.3850 C   0  0  0  0  0  0  0  0  0  0  0  0
  -29.7380  -22.7000   22.5980 C   0  0  0  0  0  2  0  0  0  0  0  0
  -28.9820  -23.8410   21.8900 C   0  0  0  0  0  2  0  0  0  0  0  0
  -29.2490  -21.3050   22.1600 C   0  0  0  0  0  2  0  0  0  0  0  0
  -28.8780  -22.2440   19.8820 C   0  0  0  0  0  2  0  0  0  0  0  0
  -29.1520  -23.7790   20.3580 C   0  0  0  0  0  3  0  0  0  0  0  0
  -30.1490  -19.5080   19.0580 N   0  0  0  0  0  0  0  0  0  0  0  0
  -29.4170  -21.0930   20.7230 N   0  0  0  0  0  0  0  0  0  0  0  0
  -30.4840  -17.8520   18.8260 S   0  0  0  0  0  0  0  0  0  0  0  0
  -30.6260  -14.8150   20.3880 C   0  0  0  0  0  0  0  0  0  0  0  0
  -30.4750  -12.4850   19.4900 C   0  0  0  0  0  2  0  0  0  0  0  0
  -29.5630  -12.4880   18.2410 C   0  0  0  0  0  2  0  0  0  0  0  0
  -28.0830  -12.3390   18.6430 C   0  0  0  0  0  2  0  0  0  0  0  0
  -27.6790  -13.2880   19.8010 C   0  0  0  0  0  3  0  0  0  0  0  0
  -28.7080  -13.2410   20.9540 C   0  0  0  0  0  2  0  0  0  0  0  0
  -30.0230  -13.5750   20.3880 N   0  0  0  0  0  0  0  0  0  0  0  0
  -31.7860  -14.9290   19.9790 O   0  0  0  0  0  0  0  0  0  0  0  0
  -29.8700  -15.9190   20.7580 N   0  0  0  0  0  0  0  0  0  0  0  0
  -29.0340  -15.6690   21.2650 H   0  0  0  0  0  0  0  0  0  0  0  0
  -25.2950  -13.9290   20.5010 C   0  0  0  0  0  0  0  0  0  0  0  0
  -24.2080  -13.1760   20.8520 C   0  0  0  0  0  0  0  0  0  0  0  0
  -24.6400  -11.8150   20.8160 C   0  0  0  0  0  0  0  0  0  0  0  0
  -26.3210  -13.0270   20.2710 N   0  0  0  0  0  0  0  0  0  0  0  0
  -25.9340  -11.7500   20.5200 N   0  0  0  0  0  0  0  0  0  0  0  0
  -23.8830  -10.5680   20.9880 C   0  0  0  0  0  0  0  0  0  0  0  0
  -24.2870   -9.5810   21.9140 C   0  0  0  0  0  3  0  0  0  0  0  0
  -23.5310   -8.4000   22.0760 C   0  0  0  0  0  3  0  0  0  0  0  0
  -22.3590   -8.1980   21.3110 C   0  0  0  0  0  0  0  0  0  0  0  0
  -21.9750   -9.1730   20.3720 C   0  0  0  0  0  3  0  0  0  0  0  0
  -22.7300  -10.3450   20.2090 C   0  0  0  0  0  3  0  0  0  0  0  0
  -21.5750   -7.0720   21.3820 O   0  0  0  0  0  0  0  0  0  0  0  0
  -21.5040   -6.3140   22.5230 C   0  0  0  0  0  0  0  0  0  0  0  0
  -21.0470   -6.8500   23.7470 C   0  0  0  0  0  3  0  0  0  0  0  0
  -20.9280   -6.0170   24.8790 C   0  0  0  0  0  3  0  0  0  0  0  0
  -21.2540   -4.6510   24.7850 C   0  0  0  0  0  0  0  0  0  0  0  0
  -21.7010   -4.1140   23.5650 C   0  0  0  0  0  3  0  0  0  0  0  0
  -21.8250   -4.9440   22.4360 C   0  0  0  0  0  0  0  0  0  0  0  0
  -22.2380   -4.4180   21.2580 F   0  0  0  0  0  0  0  0  0  0  0  0
  -21.1330   -3.8490   25.8700 F   0  0  0  0  0  0  0  0  0  0  0  0
  -22.8190  -13.6820   21.1130 C   0  0  0  0  0  0  0  0  0  0  0  0
  -22.0680  -12.9970   21.9670 N   0  0  0  0  0  0  0  0  0  0  0  0
  -22.4080  -14.7220   20.5950 O   0  0  0  0  0  0  0  0  0  0  0  0
  -22.4160  -12.1590   22.4080 H   0  0  0  0  0  0  0  0  0  0  0  0
  -21.1330  -13.3140   22.1860 H   0  0  0  0  0  0  0  0  0  0  0  0
  -25.4900  -15.2960   20.3350 N   0  0  0  0  0  0  0  0  0  0  0  0
  -24.7340  -15.9630   20.4450 H   0  0  0  0  0  0  0  0  0  0  0  0
  -26.3480  -15.7220   20.0090 H   0  0  0  0  0  0  0  0  0  0  0  0
  -28.2800  -24.9680   19.6620 C   0  0  0  0  0  2  0  0  0  0  0  0
  -28.4430  -26.4420   19.9530 O   0  0  0  0  0  0  0  0  0  0  0  0
  -24.5180  -31.6780   23.0540 C   0  0  0  0  0  0  0  0  0  0  0  0
  -27.3270  -27.3120   19.8580 C   0  0  0  0  0  0  0  0  0  0  0  0
  -23.3880  -30.3120   21.3360 C   0  0  0  0  0  3  0  0  0  0  0  0
  -24.9160  -28.8850   19.8550 C   0  0  0  0  0  0  0  0  0  0  0  0
  -25.9200  -30.7230   21.2070 C   0  0  0  0  0  2  0  0  0  0  0  0
  -26.0600  -29.3750   20.4990 C   0  0  0  0  0  0  0  0  0  0  0  0
  -27.2660  -28.6020   20.4900 C   0  0  0  0  0  3  0  0  0  0  0  0
  -26.1650  -26.9090   19.1580 C   0  0  0  0  0  3  0  0  0  0  0  0
  -24.9760  -27.6620   19.1700 C   0  0  0  0  0  3  0  0  0  0  0  0
  -23.6470  -29.7110   19.9290 C   0  0  0  0  0  2  0  0  0  0  0  0
  -24.6260  -30.9210   21.9220 N   0  0  0  0  0  0  0  0  0  0  0  0
  -23.4180  -31.8930   23.5830 O   0  0  0  0  0  0  0  0  0  0  0  0
  -22.7510  -29.2310   22.2400 C   0  0  0  0  0  0  0  0  0  0  0  0
  -21.4260  -29.0370   22.1120 N   0  0  0  0  0  0  0  0  0  0  0  0
  -23.4460  -28.5710   23.0170 O   0  0  0  0  0  0  0  0  0  0  0  0
  -20.9250  -29.6230   21.4610 H   0  0  0  0  0  0  0  0  0  0  0  0
  -18.0640  -27.7960   22.6190 C   0  0  0  0  0  0  0  0  0  0  0  0
  -20.6290  -28.0440   22.8340 C   0  0  0  0  0  3  0  0  0  0  0  0
  -20.7160  -26.6600   22.1480 C   0  0  0  0  0  2  0  0  0  0  0  0
  -19.5860  -26.4110   21.1450 C   0  0  0  0  0  2  0  0  0  0  0  0
  -18.2220  -26.5030   21.8370 C   0  0  0  0  0  2  0  0  0  0  0  0
  -19.1940  -28.5280   23.0720 C   0  0  0  0  0  0  0  0  0  0  0  0
  -18.9920  -29.7420   23.7640 C   0  0  0  0  0  3  0  0  0  0  0  0
  -17.6920  -30.2240   24.0060 C   0  0  0  0  0  3  0  0  0  0  0  0
  -16.5770  -29.4880   23.5690 C   0  0  0  0  0  3  0  0  0  0  0  0
  -16.7640  -28.2760   22.8800 C   0  0  0  0  0  3  0  0  0  0  0  0
  -25.7670  -32.3300   23.7220 C   0  0  0  0  0  3  0  0  0  0  0  0
  -25.4130  -33.7130   24.0750 N   0  0  0  0  0  0  0  0  0  0  0  0
  -25.7030  -34.7880   23.3300 C   0  0  0  0  0  0  0  0  0  0  0  0
  -26.3660  -34.7230   22.2920 O   0  0  0  0  0  0  0  0  0  0  0  0
  -24.8240  -33.8350   24.8860 H   0  0  0  0  0  0  0  0  0  0  0  0
  -23.8990  -36.5180   23.0350 C   0  0  0  0  0  1  0  0  0  0  0  0
  -25.1720  -36.1540   23.8160 C   0  0  0  0  0  3  0  0  0  0  0  0
  -27.2830  -37.1160   24.6200 C   0  0  0  0  0  1  0  0  0  0  0  0
  -26.1610  -37.2470   23.6950 N   0  0  0  0  0  0  0  0  0  0  0  0
  -25.7200  -38.1480   23.8540 H   0  0  0  0  0  0  0  0  0  0  0  0
  -26.2710  -31.5450   24.9950 C   0  0  1  0  0  0  0  0  0  0  0  0
  -25.1580  -31.2570   26.0300 C   0  0  0  0  0  1  0  0  0  0  0  0
  -26.8980  -30.1910   24.5920 C   0  0  0  0  0  1  0  0  0  0  0  0
  -27.3840  -32.3530   25.7020 C   0  0  0  0  0  1  0  0  0  0  0  0
  2 10  1  0
  2  1  1  0
  3 20  1  0
  3  1  2  0
  5  4  1  0
  6  4  1  0
  7  8  1  0
  7 10  1  0
  8 50  1  0
  8  5  1  0
  9  2  2  0
 10  6  1  0
 11  9  1  0
 11  3  1  0
 12 20  1  0
 13 18  1  0
 14 15  1  0
 14 13  1  0
 16 15  1  0
 16 25  1  0
 16 17  1  0
 18 12  1  0
 18 17  1  0
 19 12  2  0
 20 21  1  0
 22 23  2  0
 23 42  1  0
 24 23  1  0
 24 27  1  0
 25 22  1  0
 25 26  1  0
 26 24  2  0
 27 28  1  0
 28 29  2  0
 30 33  1  0
 30 29  1  0
 31 30  2  0
 32 31  1  0
 32 27  2  0
 33 34  1  0
 34 35  1  0
 35 36  2  0
 37 36  1  0
 37 41  1  0
 38 37  2  0
 39 34  2  0
 39 38  1  0
 40 39  1  0
 42 43  1  0
 43 46  1  0
 43 45  1  0
 44 42  2  0
 47 48  1  0
 47 22  1  0
 49 47  1  0
 50 51  1  0
 52 63  2  0
 53 51  1  0
 53 58  1  0
 54 62  1  0
 54 64  1  0
 55 61  1  0
 55 57  1  0
 56 62  1  0
 57 56  1  0
 58 57  2  0
 59 60  1  0
 59 53  2  0
 60 55  2  0
 61 54  1  0
 62 52  1  0
 64 66  2  0
 65 64  1  0
 67 65  1  0
 68 77  2  0
 68 73  1  0
 69 65  1  0
 69 73  1  0
 70 69  1  0
 71 72  1  0
 71 70  1  0
 72 68  1  0
 73 74  2  0
 74 75  1  0
 76 75  2  0
 77 76  1  0
 78 52  1  0
 78 79  1  0
 78 88  1  0
 79 82  1  0
 80 84  1  0
 80 79  1  0
 81 80  2  0
 84 83  1  0
 86 84  1  0
 86 87  1  0
 86 85  1  0
 88 91  1  1
 88 89  1  0
 90 88  1  0
M  ISO  4  12 100  20 100  50 101  51 101
M  END
>  <TORSDO>  (26) 
F 17

>  <SCORE>  (26) 
-14.692

>  <name>  (26) 
25

>  <ligand_id>  (26) 
25

>  <original_smiles>  (26) 
[H]c1c(N2C([H])([H])C([H])([H])C([H])([H])C([H])(C([H])([H])Oc3c([H])c([H])c4c(c3[H])C([H])([H])N(C(=O)C([H])(N([H])C(=O)C([H])(N([H])C([H])([H])[H])C([H])([H])[H])C(C([H])([H])[H])(C([H])([H])[H])C([H])([H])[H])C([H])(C(=O)N([H])C3([H])c5c([H])c([H])c([H])c([H])c5C([H])([H])C([H])([H])C3([H])[H])C4([H])[H])C2([H])[H])nsc1N([H])C(=O)N1C([H])([H])C([H])([H])C([H])([H])C([H])(n2nc(-c3c([H])c([H])c(Oc4c([H])c([H])c(F)c([H])c4F)c([H])c3[H])c(C(=O)N([H])[H])c2N([H])[H])C1([H])[H]

>  <smiles>  (26) 
[H]c1c(N2C([H])([H])C([H])([H])C([H])([H])C([H])(C([H])([H])Oc3c([H])c([H])c4c(c3[H])C([H])([H])N(C(=O)C([H])(N([H])C(=O)C([H])(N([H])C([H])([H])[H])C([H])([H])[H])C(C([H])([H])[H])(C([H])([H])[H])C([H])([H])[H])C([H])(C(=O)N([H])C3([H])c5c([H])c([H])c([H])c([H])c5C([H])([H])C([H])([H])C3([H])[H])C4([H])[H])C2([H])[H])nsc1N([H])C(=O)N1C([H])([H])C([H])([H])C([H])([H])C([H])(n2nc(-c3c([H])c([H])c(Oc4c([H])c([H])c(F)c([H])c4F)c([H])c3[H])c(C(=O)N([H])[H])c2N([H])[H])C1([H])[H]

$$$$
26:0:0
     RDKit          3D

 91100  0  0  1  0  0  0  0  0999 V2000
  -28.8990  -23.5460   20.1100 C   0  0  0  0  0  0  0  0  0  0  0  0
  -28.4520  -22.2510   20.4250 N   0  0  0  0  0  0  0  0  0  0  0  0
  -29.9660  -23.7220   19.5160 O   0  0  0  0  0  0  0  0  0  0  0  0
  -27.5590  -22.3140   20.8950 H   0  0  0  0  0  0  0  0  0  0  0  0
  -30.7500  -14.9370   19.9360 C   0  0  0  0  0  0  0  0  0  0  0  0
  -30.4580  -12.6380   18.9560 C   0  0  0  0  0  2  0  0  0  0  0  0
  -29.4560  -12.6350   17.7840 C   0  0  0  0  0  2  0  0  0  0  0  0
  -28.0250  -12.4240   18.3100 C   0  0  0  0  0  2  0  0  0  0  0  0
  -27.6990  -13.3330   19.5250 C   0  0  0  0  0  3  0  0  0  0  0  0
  -28.8270  -13.3390   20.5800 C   0  0  0  0  0  2  0  0  0  0  0  0
  -30.0570  -13.7350   19.8830 N   0  0  0  0  0  0  0  0  0  0  0  0
  -31.9330  -14.9080   19.5810 O   0  0  0  0  0  0  0  0  0  0  0  0
  -29.9580  -20.2120   19.6930 C   0  0  0  0  0  3  0  0  0  0  0  0
  -29.9670  -18.7360   19.8530 C   0  0  0  0  0  0  0  0  0  0  0  0
  -28.9450  -18.2700   20.5760 C   0  0  0  0  0  0  0  0  0  0  0  0
  -28.8850  -20.8960   20.3080 C   0  0  0  0  0  0  0  0  0  0  0  0
  -30.7890  -17.4870   19.4570 C   0  0  0  0  0  3  0  0  0  0  0  0
  -28.9420  -16.7440   20.7460 C   0  0  0  0  0  3  0  0  0  0  0  0
  -30.1260  -16.2130   19.9880 N   0  0  0  0  0  0  0  0  0  0  0  0
  -27.9070  -19.6060   21.0960 S   0  0  0  0  0  0  0  0  0  0  0  0
  -25.3770  -13.8850   20.4510 C   0  0  0  0  0  0  0  0  0  0  0  0
  -24.3410  -13.0970   20.8670 C   0  0  0  0  0  0  0  0  0  0  0  0
  -24.7980  -11.7490   20.7540 C   0  0  0  0  0  0  0  0  0  0  0  0
  -26.4000  -13.0180   20.1080 N   0  0  0  0  0  0  0  0  0  0  0  0
  -26.0660  -11.7250   20.3560 N   0  0  0  0  0  0  0  0  0  0  0  0
  -24.0830  -10.4810   20.9450 C   0  0  0  0  0  0  0  0  0  0  0  0
  -24.5170   -9.5200   21.8840 C   0  0  0  0  0  3  0  0  0  0  0  0
  -23.7980   -8.3180   22.0620 C   0  0  0  0  0  3  0  0  0  0  0  0
  -22.6310   -8.0690   21.3020 C   0  0  0  0  0  0  0  0  0  0  0  0
  -22.2160   -9.0190   20.3510 C   0  0  0  0  0  3  0  0  0  0  0  0
  -22.9370  -10.2110   20.1710 C   0  0  0  0  0  3  0  0  0  0  0  0
  -21.8840   -6.9200   21.3900 O   0  0  0  0  0  0  0  0  0  0  0  0
  -21.7500   -6.2370   22.5730 C   0  0  0  0  0  0  0  0  0  0  0  0
  -21.2170   -6.8470   23.7300 C   0  0  0  0  0  3  0  0  0  0  0  0
  -21.0320   -6.0890   24.9040 C   0  0  0  0  0  3  0  0  0  0  0  0
  -21.3720   -4.7240   24.9220 C   0  0  0  0  0  0  0  0  0  0  0  0
  -21.8980   -4.1130   23.7690 C   0  0  0  0  0  3  0  0  0  0  0  0
  -22.0840   -4.8680   22.5970 C   0  0  0  0  0  0  0  0  0  0  0  0
  -22.5710   -4.2700   21.4840 F   0  0  0  0  0  0  0  0  0  0  0  0
  -21.1890   -3.9930   26.0460 F   0  0  0  0  0  0  0  0  0  0  0  0
  -22.9670  -13.5650   21.2480 C   0  0  0  0  0  0  0  0  0  0  0  0
  -22.2940  -12.8400   22.1350 N   0  0  0  0  0  0  0  0  0  0  0  0
  -22.5000  -14.6100   20.7950 O   0  0  0  0  0  0  0  0  0  0  0  0
  -22.6850  -11.9940   22.5220 H   0  0  0  0  0  0  0  0  0  0  0  0
  -21.3750  -13.1360   22.4310 H   0  0  0  0  0  0  0  0  0  0  0  0
  -25.5240  -15.2600   20.3080 N   0  0  0  0  0  0  0  0  0  0  0  0
  -24.7570  -15.9000   20.4860 H   0  0  0  0  0  0  0  0  0  0  0  0
  -26.3240  -15.7110   19.8860 H   0  0  0  0  0  0  0  0  0  0  0  0
  -27.8770  -24.9030   22.0620 C   0  0  0  0  0  1  0  0  0  0  0  0
  -27.9900  -24.8480   20.5290 C   0  0  0  0  0  3  0  0  0  0  0  0
  -28.3290  -26.2890   20.1010 O   0  0  0  0  0  0  0  0  0  0  0  0
  -24.6170  -31.8450   23.1390 C   0  0  0  0  0  0  0  0  0  0  0  0
  -27.2680  -27.2480   20.0600 C   0  0  0  0  0  0  0  0  0  0  0  0
  -23.4390  -30.4490   21.4850 C   0  0  0  0  0  3  0  0  0  0  0  0
  -24.9110  -28.9230   20.0440 C   0  0  0  0  0  0  0  0  0  0  0  0
  -25.9840  -30.7700   21.3200 C   0  0  0  0  0  2  0  0  0  0  0  0
  -26.0820  -29.3900   20.6570 C   0  0  0  0  0  0  0  0  0  0  0  0
  -27.2650  -28.5670   20.6520 C   0  0  0  0  0  3  0  0  0  0  0  0
  -26.0800  -26.8810   19.3930 C   0  0  0  0  0  3  0  0  0  0  0  0
  -24.9200  -27.6800   19.3950 C   0  0  0  0  0  3  0  0  0  0  0  0
  -23.6680  -29.7920   20.0980 C   0  0  0  0  0  2  0  0  0  0  0  0
  -24.6990  -31.0410   22.0360 N   0  0  0  0  0  0  0  0  0  0  0  0
  -23.5270  -32.1060   23.6690 O   0  0  0  0  0  0  0  0  0  0  0  0
  -22.7790  -29.4170   22.4340 C   0  0  0  0  0  0  0  0  0  0  0  0
  -21.4520  -29.2360   22.3110 N   0  0  0  0  0  0  0  0  0  0  0  0
  -23.4620  -28.7850   23.2430 O   0  0  0  0  0  0  0  0  0  0  0  0
  -20.9580  -29.7980   21.6330 H   0  0  0  0  0  0  0  0  0  0  0  0
  -18.0810  -28.0170   22.8240 C   0  0  0  0  0  0  0  0  0  0  0  0
  -20.6420  -28.2820   23.0720 C   0  0  0  0  0  3  0  0  0  0  0  0
  -20.7420  -26.8620   22.4710 C   0  0  0  0  0  2  0  0  0  0  0  0
  -19.6320  -26.5530   21.4620 C   0  0  0  0  0  2  0  0  0  0  0  0
  -18.2560  -26.6810   22.1210 C   0  0  0  0  0  2  0  0  0  0  0  0
  -19.2010  -28.7750   23.2560 C   0  0  0  0  0  0  0  0  0  0  0  0
  -18.9820  -30.0260   23.8740 C   0  0  0  0  0  3  0  0  0  0  0  0
  -17.6770  -30.5170   24.0640 C   0  0  0  0  0  3  0  0  0  0  0  0
  -16.5720  -29.7550   23.6470 C   0  0  0  0  0  3  0  0  0  0  0  0
  -16.7750  -28.5060   23.0330 C   0  0  0  0  0  3  0  0  0  0  0  0
  -25.8860  -32.4920   23.7730 C   0  0  0  0  0  3  0  0  0  0  0  0
  -25.5470  -33.8760   24.1370 N   0  0  0  0  0  0  0  0  0  0  0  0
  -25.8500  -34.9550   23.4040 C   0  0  0  0  0  0  0  0  0  0  0  0
  -26.5120  -34.8910   22.3640 O   0  0  0  0  0  0  0  0  0  0  0  0
  -24.9570  -33.9970   24.9470 H   0  0  0  0  0  0  0  0  0  0  0  0
  -24.0800  -36.7200   23.1140 C   0  0  0  0  0  1  0  0  0  0  0  0
  -25.3390  -36.3220   23.9000 C   0  0  0  0  0  3  0  0  0  0  0  0
  -27.4630  -37.2350   24.7300 C   0  0  0  0  0  1  0  0  0  0  0  0
  -26.3470  -37.3990   23.8020 N   0  0  0  0  0  0  0  0  0  0  0  0
  -25.9240  -38.3070   23.9730 H   0  0  0  0  0  0  0  0  0  0  0  0
  -26.4190  -31.7040   25.0320 C   0  0  1  0  0  0  0  0  0  0  0  0
  -25.3300  -31.4130   26.0910 C   0  0  0  0  0  1  0  0  0  0  0  0
  -27.0370  -30.3500   24.6120 C   0  0  0  0  0  1  0  0  0  0  0  0
  -27.5480  -32.5110   25.7150 C   0  0  0  0  0  1  0  0  0  0  0  0
  1  2  1  0
  1 50  1  0
  2  4  1  0
  3  1  2  0
  5 19  1  0
  6 11  1  0
  7  8  1  0
  7  6  1  0
  9  8  1  0
  9 24  1  0
  9 10  1  0
 11  5  1  0
 11 10  1  0
 12  5  2  0
 13 14  1  0
 13 16  2  0
 14 15  1  0
 15 18  2  0
 15 20  1  0
 16  2  1  0
 16 20  1  0
 17 14  2  0
 17 19  1  0
 19 18  1  0
 21 22  2  0
 22 41  1  0
 23 22  1  0
 23 26  1  0
 24 25  1  0
 24 21  1  0
 25 23  2  0
 26 27  1  0
 27 28  2  0
 29 32  1  0
 29 28  1  0
 30 29  2  0
 31 30  1  0
 31 26  2  0
 32 33  1  0
 33 38  2  0
 33 34  1  0
 34 35  2  0
 35 36  1  0
 36 40  1  0
 37 36  2  0
 38 37  1  0
 39 38  1  0
 41 42  1  0
 42 45  1  0
 42 44  1  0
 43 41  2  0
 46 21  1  0
 46 47  1  0
 48 46  1  0
 50 49  1  0
 51 50  1  0
 52 63  2  0
 53 51  1  0
 53 58  1  0
 54 62  1  0
 54 64  1  0
 55 61  1  0
 55 57  1  0
 56 62  1  0
 57 56  1  0
 58 57  2  0
 59 60  1  0
 59 53  2  0
 60 55  2  0
 61 54  1  0
 62 52  1  0
 64 66  2  0
 65 64  1  0
 67 65  1  0
 68 77  2  0
 68 73  1  0
 69 65  1  0
 69 73  1  0
 70 69  1  0
 71 72  1  0
 71 70  1  0
 72 68  1  0
 73 74  2  0
 74 75  1  0
 76 75  2  0
 77 76  1  0
 78 52  1  0
 78 79  1  0
 78 88  1  0
 79 82  1  0
 80 84  1  0
 80 79  1  0
 81 80  2  0
 84 83  1  0
 86 84  1  0
 86 87  1  0
 86 85  1  0
 88 91  1  1
 88 89  1  0
 90 88  1  0
M  ISO  4   5 100  19 100  50 101  51 101
M  END
>  <TORSDO>  (27) 
F 17

>  <SCORE>  (27) 
-13.754

>  <name>  (27) 
26

>  <ligand_id>  (27) 
26

>  <original_smiles>  (27) 
[H]c1c([H])c([H])c2c(c1[H])C([H])([H])C([H])([H])C([H])([H])C2([H])N([H])C(=O)C1([H])N(C(=O)C([H])(N([H])C(=O)C([H])(N([H])C([H])([H])[H])C([H])([H])[H])C(C([H])([H])[H])(C([H])([H])[H])C([H])([H])[H])C([H])([H])c2c([H])c(OC([H])(C(=O)N([H])c3sc4c(c3[H])C([H])([H])N(C(=O)N3C([H])([H])C([H])([H])C([H])([H])C([H])(n5nc(-c6c([H])c([H])c(Oc7c([H])c([H])c(F)c([H])c7F)c([H])c6[H])c(C(=O)N([H])[H])c5N([H])[H])C3([H])[H])C4([H])[H])C([H])([H])[H])c([H])c([H])c2C1([H])[H]

>  <smiles>  (27) 
[H]c1c([H])c([H])c2c(c1[H])C([H])([H])C([H])([H])C([H])([H])C2([H])N([H])C(=O)C1([H])N(C(=O)C([H])(N([H])C(=O)C([H])(N([H])C([H])([H])[H])C([H])([H])[H])C(C([H])([H])[H])(C([H])([H])[H])C([H])([H])[H])C([H])([H])c2c([H])c(OC([H])(C(=O)N([H])c3sc4c(c3[H])C([H])([H])N(C(=O)N3C([H])([H])C([H])([H])C([H])([H])C([H])(n5nc(-c6c([H])c([H])c(Oc7c([H])c([H])c(F)c([H])c7F)c([H])c6[H])c(C(=O)N([H])[H])c5N([H])[H])C3([H])[H])C4([H])[H])C([H])([H])[H])c([H])c([H])c2C1([H])[H]

$$$$
27:0:0
     RDKit          3D

 90 98  0  0  1  0  0  0  0  0999 V2000
  -28.7010  -23.0680   20.3880 C   0  0  0  0  0  0  0  0  0  0  0  0
  -28.3070  -21.6740   20.1980 N   0  0  0  0  0  0  0  0  0  0  0  0
  -29.8860  -23.2820   20.6510 O   0  0  0  0  0  0  0  0  0  0  0  0
  -27.3240  -21.6180   19.9690 H   0  0  0  0  0  0  0  0  0  0  0  0
  -28.5410  -18.8380   19.9140 C   0  0  0  0  0  3  0  0  0  0  0  0
  -30.1990  -19.9250   20.8480 C   0  0  0  0  0  3  0  0  0  0  0  0
  -28.9790  -20.2370   20.2900 C   0  0  0  0  0  0  0  0  0  0  0  0
  -29.5000  -17.8130   20.2570 C   0  0  0  0  0  0  0  0  0  0  0  0
  -30.5220  -18.5430   20.8240 O   0  0  0  0  0  0  0  0  0  0  0  0
  -30.3450  -15.1800   20.2420 C   0  0  0  0  0  0  0  0  0  0  0  0
  -30.3610  -12.7540   19.3760 C   0  0  0  0  0  2  0  0  0  0  0  0
  -29.4200  -12.6160   18.1550 C   0  0  0  0  0  2  0  0  0  0  0  0
  -27.9660  -12.3730   18.6090 C   0  0  0  0  0  2  0  0  0  0  0  0
  -27.5440  -13.3140   19.7660 C   0  0  0  0  0  3  0  0  0  0  0  0
  -28.6110  -13.3850   20.8770 C   0  0  0  0  0  2  0  0  0  0  0  0
  -29.8330  -13.8680   20.2270 N   0  0  0  0  0  0  0  0  0  0  0  0
  -31.5660  -15.2580   20.0570 O   0  0  0  0  0  0  0  0  0  0  0  0
  -29.4540  -16.3360   20.1950 N   0  0  0  0  0  0  0  0  0  0  0  0
  -28.5090  -15.9990   20.1210 H   0  0  0  0  0  0  0  0  0  0  0  0
  -25.1790  -13.8890   20.5350 C   0  0  0  0  0  0  0  0  0  0  0  0
  -24.1130  -13.1090   20.9020 C   0  0  0  0  0  0  0  0  0  0  0  0
  -24.5830  -11.7590   20.8610 C   0  0  0  0  0  0  0  0  0  0  0  0
  -26.2170  -13.0090   20.2820 N   0  0  0  0  0  0  0  0  0  0  0  0
  -25.8710  -11.7240   20.5450 N   0  0  0  0  0  0  0  0  0  0  0  0
  -23.8580  -10.4930   21.0400 C   0  0  0  0  0  0  0  0  0  0  0  0
  -24.2830   -9.5240   21.9750 C   0  0  0  0  0  3  0  0  0  0  0  0
  -23.5560   -8.3240   22.1430 C   0  0  0  0  0  3  0  0  0  0  0  0
  -22.3890   -8.0880   21.3780 C   0  0  0  0  0  0  0  0  0  0  0  0
  -21.9870   -9.0460   20.4310 C   0  0  0  0  0  3  0  0  0  0  0  0
  -22.7170  -10.2360   20.2600 C   0  0  0  0  0  3  0  0  0  0  0  0
  -21.6330   -6.9420   21.4600 O   0  0  0  0  0  0  0  0  0  0  0  0
  -21.5630   -6.2090   22.6180 C   0  0  0  0  0  0  0  0  0  0  0  0
  -21.0840   -6.7620   23.8260 C   0  0  0  0  0  3  0  0  0  0  0  0
  -20.9610   -5.9540   24.9730 C   0  0  0  0  0  3  0  0  0  0  0  0
  -21.3060   -4.5900   24.9140 C   0  0  0  0  0  0  0  0  0  0  0  0
  -21.7780   -4.0360   23.7120 C   0  0  0  0  0  3  0  0  0  0  0  0
  -21.9040   -4.8420   22.5680 C   0  0  0  0  0  0  0  0  0  0  0  0
  -22.3370   -4.2960   21.4060 F   0  0  0  0  0  0  0  0  0  0  0  0
  -21.1840   -3.8110   26.0140 F   0  0  0  0  0  0  0  0  0  0  0  0
  -22.7170  -13.5850   21.1760 C   0  0  0  0  0  0  0  0  0  0  0  0
  -21.9900  -12.8800   22.0380 N   0  0  0  0  0  0  0  0  0  0  0  0
  -22.2760  -14.6080   20.6600 O   0  0  0  0  0  0  0  0  0  0  0  0
  -22.3610  -12.0530   22.4800 H   0  0  0  0  0  0  0  0  0  0  0  0
  -21.0440  -13.1670   22.2500 H   0  0  0  0  0  0  0  0  0  0  0  0
  -25.3560  -15.2570   20.3590 N   0  0  0  0  0  0  0  0  0  0  0  0
  -24.6190  -15.9440   20.4770 H   0  0  0  0  0  0  0  0  0  0  0  0
  -26.2110  -15.6640   20.0090 H   0  0  0  0  0  0  0  0  0  0  0  0
  -26.7250  -24.3990   21.5320 C   0  0  0  0  0  1  0  0  0  0  0  0
  -27.6900  -24.4590   20.3130 C   0  0  0  0  0  3  0  0  0  0  0  0
  -28.1340  -26.0130   20.2830 O   0  0  0  0  0  0  0  0  0  0  0  0
  -24.6190  -31.9100   23.2570 C   0  0  0  0  0  0  0  0  0  0  0  0
  -27.1540  -27.1130   20.2140 C   0  0  0  0  0  0  0  0  0  0  0  0
  -23.4210  -30.5340   21.6090 C   0  0  0  0  0  3  0  0  0  0  0  0
  -24.8610  -28.9520   20.1830 C   0  0  0  0  0  0  0  0  0  0  0  0
  -25.9890  -30.7580   21.4660 C   0  0  0  0  0  2  0  0  0  0  0  0
  -26.0570  -29.3670   20.7870 C   0  0  0  0  0  0  0  0  0  0  0  0
  -27.2080  -28.4710   20.7750 C   0  0  0  0  0  3  0  0  0  0  0  0
  -25.9300  -26.8300   19.5780 C   0  0  0  0  0  3  0  0  0  0  0  0
  -24.8150  -27.6930   19.5720 C   0  0  0  0  0  3  0  0  0  0  0  0
  -23.6460  -29.8690   20.2290 C   0  0  0  0  0  2  0  0  0  0  0  0
  -24.6960  -31.0900   22.1630 N   0  0  0  0  0  0  0  0  0  0  0  0
  -23.5320  -32.2030   23.7780 O   0  0  0  0  0  0  0  0  0  0  0  0
  -22.7220  -29.5270   22.5630 C   0  0  0  0  0  0  0  0  0  0  0  0
  -21.3900  -29.3660   22.4340 N   0  0  0  0  0  0  0  0  0  0  0  0
  -23.3850  -28.8930   23.3880 O   0  0  0  0  0  0  0  0  0  0  0  0
  -20.9070  -29.9250   21.7430 H   0  0  0  0  0  0  0  0  0  0  0  0
  -17.9950  -28.2110   22.9440 C   0  0  0  0  0  0  0  0  0  0  0  0
  -20.5600  -28.4350   23.2050 C   0  0  0  0  0  3  0  0  0  0  0  0
  -20.6360  -27.0030   22.6220 C   0  0  0  0  0  2  0  0  0  0  0  0
  -19.5290  -26.7040   21.6090 C   0  0  0  0  0  2  0  0  0  0  0  0
  -18.1510  -26.8650   22.2570 C   0  0  0  0  0  2  0  0  0  0  0  0
  -19.1260  -28.9540   23.3780 C   0  0  0  0  0  0  0  0  0  0  0  0
  -18.9210  -30.2160   23.9790 C   0  0  0  0  0  3  0  0  0  0  0  0
  -17.6210  -30.7300   24.1490 C   0  0  0  0  0  3  0  0  0  0  0  0
  -16.5090  -29.9780   23.7380 C   0  0  0  0  0  3  0  0  0  0  0  0
  -16.6970  -28.7220   23.1390 C   0  0  0  0  0  3  0  0  0  0  0  0
  -25.8950  -32.5380   23.8910 C   0  0  0  0  0  3  0  0  0  0  0  0
  -25.5840  -33.9370   24.2200 N   0  0  0  0  0  0  0  0  0  0  0  0
  -25.9020  -34.9900   23.4570 C   0  0  0  0  0  0  0  0  0  0  0  0
  -26.5500  -34.8880   22.4120 O   0  0  0  0  0  0  0  0  0  0  0  0
  -24.9890  -34.0940   25.0220 H   0  0  0  0  0  0  0  0  0  0  0  0
  -24.1560  -36.7760   23.1680 C   0  0  0  0  0  1  0  0  0  0  0  0
  -25.4280  -36.3770   23.9320 C   0  0  0  0  0  3  0  0  0  0  0  0
  -27.5910  -37.2710   24.6740 C   0  0  0  0  0  1  0  0  0  0  0  0
  -26.4500  -37.4350   23.7780 N   0  0  0  0  0  0  0  0  0  0  0  0
  -26.0430  -38.3490   23.9500 H   0  0  0  0  0  0  0  0  0  0  0  0
  -26.3990  -31.7690   25.1760 C   0  0  1  0  0  0  0  0  0  0  0  0
  -25.2940  -31.5260   26.2330 C   0  0  0  0  0  1  0  0  0  0  0  0
  -26.9810  -30.3840   24.8090 C   0  0  0  0  0  1  0  0  0  0  0  0
  -27.5520  -32.5620   25.8340 C   0  0  0  0  0  1  0  0  0  0  0  0
  1  3  2  0
  2  7  1  0
  2  1  1  0
  4  2  1  0
  5  8  2  0
  5  7  1  0
  7  6  2  0
  8  9  1  0
  9  6  1  0
 11 16  1  0
 12 13  1  0
 12 11  1  0
 14 13  1  0
 14 23  1  0
 14 15  1  0
 16 10  1  0
 16 15  1  0
 17 10  2  0
 18 10  1  0
 18  8  1  0
 19 18  1  0
 20 21  2  0
 21 40  1  0
 22 21  1  0
 22 25  1  0
 23 20  1  0
 23 24  1  0
 24 22  2  0
 25 26  1  0
 26 27  2  0
 28 31  1  0
 28 27  1  0
 29 28  2  0
 30 29  1  0
 30 25  2  0
 31 32  1  0
 32 33  1  0
 33 34  2  0
 35 34  1  0
 35 39  1  0
 36 35  2  0
 37 32  2  0
 37 36  1  0
 38 37  1  0
 40 41  1  0
 41 44  1  0
 41 43  1  0
 42 40  2  0
 45 46  1  0
 45 20  1  0
 47 45  1  0
 49  1  1  0
 49 48  1  0
 50 49  1  0
 51 62  2  0
 52 50  1  0
 52 57  1  0
 53 61  1  0
 53 63  1  0
 54 60  1  0
 54 56  1  0
 55 61  1  0
 56 55  1  0
 57 56  2  0
 58 52  2  0
 59 58  1  0
 59 54  2  0
 60 53  1  0
 61 51  1  0
 63 65  2  0
 64 63  1  0
 66 64  1  0
 67 76  2  0
 67 72  1  0
 68 64  1  0
 68 72  1  0
 69 68  1  0
 70 71  1  0
 70 69  1  0
 71 67  1  0
 72 73  2  0
 73 74  1  0
 75 74  2  0
 76 75  1  0
 77 51  1  0
 77 78  1  0
 77 87  1  0
 78 81  1  0
 79 83  1  0
 79 78  1  0
 80 79  2  0
 83 82  1  0
 85 83  1  0
 85 86  1  0
 85 84  1  0
 87 90  1  1
 87 88  1  0
 89 87  1  0
M  ISO  4  10 100  18 100  49 101  50 101
M  END
>  <TORSDO>  (28) 
F 18

>  <SCORE>  (28) 
-15.162

>  <name>  (28) 
27

>  <ligand_id>  (28) 
27

>  <original_smiles>  (28) 
[H]c1oc(N([H])C(=O)N2C([H])([H])C([H])([H])C([H])([H])C([H])(n3nc(-c4c([H])c([H])c(Oc5c([H])c([H])c(F)c([H])c5F)c([H])c4[H])c(C(=O)N([H])[H])c3N([H])[H])C2([H])[H])c([H])c1N([H])C(=O)C([H])(Oc1c([H])c([H])c2c(c1[H])C([H])([H])N(C(=O)C([H])(N([H])C(=O)C([H])(N([H])C([H])([H])[H])C([H])([H])[H])C(C([H])([H])[H])(C([H])([H])[H])C([H])([H])[H])C([H])(C(=O)N([H])C1([H])c3c([H])c([H])c([H])c([H])c3C([H])([H])C([H])([H])C1([H])[H])C2([H])[H])C([H])([H])[H]

>  <smiles>  (28) 
[H]c1oc(N([H])C(=O)N2C([H])([H])C([H])([H])C([H])([H])C([H])(n3nc(-c4c([H])c([H])c(Oc5c([H])c([H])c(F)c([H])c5F)c([H])c4[H])c(C(=O)N([H])[H])c3N([H])[H])C2([H])[H])c([H])c1N([H])C(=O)C([H])(Oc1c([H])c([H])c2c(c1[H])C([H])([H])N(C(=O)C([H])(N([H])C(=O)C([H])(N([H])C([H])([H])[H])C([H])([H])[H])C(C([H])([H])[H])(C([H])([H])[H])C([H])([H])[H])C([H])(C(=O)N([H])C1([H])c3c([H])c([H])c([H])c([H])c3C([H])([H])C([H])([H])C1([H])[H])C2([H])[H])C([H])([H])[H]

$$$$
28:0:0
     RDKit          3D

 83 88  0  0  1  0  0  0  0  0999 V2000
  -28.2610  -23.1870   19.8540 C   0  0  0  0  0 15  0  0  0  0  0  0
  -30.2520  -16.2280   19.7260 C   0  0  0  0  0  0  0  0  0  0  0  0
  -30.4160  -13.5740   18.8880 C   0  0  0  0  0  2  0  0  0  0  0  0
  -29.5010  -12.9570   17.7740 C   0  0  0  0  0  2  0  0  0  0  0  0
  -28.1660  -12.4810   18.3490 C   0  0  0  0  0  2  0  0  0  0  0  0
  -27.6610  -13.4840   19.4020 C   0  0  0  0  0  3  0  0  0  0  0  0
  -28.7310  -13.9960   20.4150 C   0  0  0  0  0  2  0  0  0  0  0  0
  -29.7680  -14.7810   19.6610 N   0  0  0  0  0  0  0  0  0  0  0  0
  -31.4580  -16.0740   19.4060 O   0  0  0  0  0  0  0  0  0  0  0  0
  -28.2560  -20.0130   21.0280 C   0  0  0  0  0  2  0  0  0  0  0  0
  -28.8500  -18.4100   21.0830 C   0  0  0  0  0  2  0  0  0  0  0  0
  -29.6050  -19.4860   19.3640 C   0  0  0  0  0  1  0  0  0  0  0  0
  -29.0110  -21.1790   20.1790 C   0  0  0  0  0  1  0  0  0  0  0  0
  -29.5640  -17.7600   19.8800 N   0  0  0  0  0  0  0  0  0  0  0  0
  -25.3950  -13.9270   20.4190 C   0  0  0  0  0  0  0  0  0  0  0  0
  -24.3780  -13.1200   20.8380 C   0  0  0  0  0  0  0  0  0  0  0  0
  -24.8450  -11.7770   20.6880 C   0  0  0  0  0  0  0  0  0  0  0  0
  -26.4120  -13.0810   20.0290 N   0  0  0  0  0  0  0  0  0  0  0  0
  -26.1030  -11.7720   20.2480 N   0  0  0  0  0  0  0  0  0  0  0  0
  -24.1320  -10.5030   20.8790 C   0  0  0  0  0  0  0  0  0  0  0  0
  -24.5680   -9.5420   21.8170 C   0  0  0  0  0  3  0  0  0  0  0  0
  -23.8490   -8.3410   22.0010 C   0  0  0  0  0  3  0  0  0  0  0  0
  -22.6770   -8.0900   21.2470 C   0  0  0  0  0  0  0  0  0  0  0  0
  -22.2600   -9.0390   20.2960 C   0  0  0  0  0  3  0  0  0  0  0  0
  -22.9800  -10.2300   20.1120 C   0  0  0  0  0  3  0  0  0  0  0  0
  -21.9330   -6.9400   21.3400 O   0  0  0  0  0  0  0  0  0  0  0  0
  -21.7830   -6.2670   22.5260 C   0  0  0  0  0  0  0  0  0  0  0  0
  -21.2210   -6.8870   23.6660 C   0  0  0  0  0  3  0  0  0  0  0  0
  -21.0240   -6.1410   24.8450 C   0  0  0  0  0  3  0  0  0  0  0  0
  -21.3760   -4.7780   24.8860 C   0  0  0  0  0  0  0  0  0  0  0  0
  -21.9280   -4.1600   23.7510 C   0  0  0  0  0  3  0  0  0  0  0  0
  -22.1270   -4.9020   22.5740 C   0  0  0  0  0  0  0  0  0  0  0  0
  -22.6410   -4.2950   21.4770 F   0  0  0  0  0  0  0  0  0  0  0  0
  -21.1790   -4.0610   26.0170 F   0  0  0  0  0  0  0  0  0  0  0  0
  -23.0130  -13.5770   21.2600 C   0  0  0  0  0  0  0  0  0  0  0  0
  -22.3690  -12.8390   22.1560 N   0  0  0  0  0  0  0  0  0  0  0  0
  -22.5310  -14.6240   20.8300 O   0  0  0  0  0  0  0  0  0  0  0  0
  -22.7760  -11.9930   22.5270 H   0  0  0  0  0  0  0  0  0  0  0  0
  -21.4580  -13.1270   22.4850 H   0  0  0  0  0  0  0  0  0  0  0  0
  -25.5380  -15.3070   20.3030 N   0  0  0  0  0  0  0  0  0  0  0  0
  -24.7860  -15.9500   20.5280 H   0  0  0  0  0  0  0  0  0  0  0  0
  -26.3600  -15.7680   19.9360 H   0  0  0  0  0  0  0  0  0  0  0  0
  -28.2060  -25.0900   20.2320 O   0  0  0  0  0  1  0  0  0  0  0  0
  -24.7420  -31.7650   23.1620 C   0  0  0  0  0  0  0  0  0  0  0  0
  -27.2780  -26.4540   20.1480 C   0  0  0  0  0  0  0  0  0  0  0  0
  -23.5790  -30.3830   21.4980 C   0  0  0  0  0  3  0  0  0  0  0  0
  -25.0400  -28.6930   20.0870 C   0  0  0  0  0  0  0  0  0  0  0  0
  -26.1730  -30.4350   21.4320 C   0  0  0  0  0  2  0  0  0  0  0  0
  -26.2350  -28.9780   20.7580 C   0  0  0  0  0  0  0  0  0  0  0  0
  -27.3170  -27.8970   20.7490 C   0  0  0  0  0  3  0  0  0  0  0  0
  -26.0490  -26.4690   19.4050 C   0  0  0  0  0  3  0  0  0  0  0  0
  -25.0080  -27.4690   19.3850 C   0  0  0  0  0  3  0  0  0  0  0  0
  -23.8440  -29.6800   20.1270 C   0  0  0  0  0  2  0  0  0  0  0  0
  -24.8600  -30.8980   22.0830 N   0  0  0  0  0  0  0  0  0  0  0  0
  -23.6370  -32.0720   23.6470 O   0  0  0  0  0  0  0  0  0  0  0  0
  -22.8280  -29.4200   22.4560 C   0  0  0  0  0  0  0  0  0  0  0  0
  -21.4930  -29.2820   22.3170 N   0  0  0  0  0  0  0  0  0  0  0  0
  -23.4630  -28.7910   23.3050 O   0  0  0  0  0  0  0  0  0  0  0  0
  -21.0240  -29.8360   21.6140 H   0  0  0  0  0  0  0  0  0  0  0  0
  -18.0980  -28.0500   22.7900 C   0  0  0  0  0  0  0  0  0  0  0  0
  -20.6560  -28.3370   23.0700 C   0  0  0  0  0  3  0  0  0  0  0  0
  -20.7670  -26.9090   22.4860 C   0  0  0  0  0  2  0  0  0  0  0  0
  -19.6780  -26.5890   21.4580 C   0  0  0  0  0  2  0  0  0  0  0  0
  -18.2900  -26.7150   22.0890 C   0  0  0  0  0  2  0  0  0  0  0  0
  -19.2070  -28.8200   23.2360 C   0  0  0  0  0  0  0  0  0  0  0  0
  -18.9680  -30.0620   23.8590 C   0  0  0  0  0  3  0  0  0  0  0  0
  -17.6550  -30.5430   24.0340 C   0  0  0  0  0  3  0  0  0  0  0  0
  -16.5630  -29.7740   23.5980 C   0  0  0  0  0  3  0  0  0  0  0  0
  -16.7850  -28.5290   22.9840 C   0  0  0  0  0  3  0  0  0  0  0  0
  -25.9870  -32.4220   23.8350 C   0  0  0  0  0  3  0  0  0  0  0  0
  -25.6580  -33.8280   24.1650 N   0  0  0  0  0  0  0  0  0  0  0  0
  -25.9880  -34.8990   23.4300 C   0  0  0  0  0  0  0  0  0  0  0  0
  -26.6530  -34.8090   22.3940 O   0  0  0  0  0  0  0  0  0  0  0  0
  -25.0730  -33.9730   24.9740 H   0  0  0  0  0  0  0  0  0  0  0  0
  -24.2560  -36.7080   23.1410 C   0  0  0  0  0  1  0  0  0  0  0  0
  -25.5180  -36.2900   23.9130 C   0  0  0  0  0  3  0  0  0  0  0  0
  -27.6690  -37.1810   24.7030 C   0  0  0  0  0  1  0  0  0  0  0  0
  -26.5470  -37.3450   23.7800 N   0  0  0  0  0  0  0  0  0  0  0  0
  -26.1410  -38.2620   23.9340 H   0  0  0  0  0  0  0  0  0  0  0  0
  -26.4430  -31.6720   25.1500 C   0  0  1  0  0  0  0  0  0  0  0  0
  -25.3050  -31.4630   26.1770 C   0  0  0  0  0  1  0  0  0  0  0  0
  -27.0330  -30.2830   24.8230 C   0  0  0  0  0  1  0  0  0  0  0  0
  -27.5710  -32.4710   25.8460 C   0  0  0  0  0  1  0  0  0  0  0  0
  2 14  1  0
  3  8  1  0
  4  5  1  0
  4  3  1  0
  6  5  1  0
  6 18  1  0
  6  7  1  0
  8  2  1  0
  8  7  1  0
  9  2  2  0
 10 11  1  0
 12 14  1  0
 13 10  1  0
 14 11  1  0
 15 16  2  0
 16 35  1  0
 17 16  1  0
 17 20  1  0
 18 19  1  0
 18 15  1  0
 19 17  2  0
 20 21  1  0
 21 22  2  0
 23 26  1  0
 23 22  1  0
 24 23  2  0
 25 24  1  0
 25 20  2  0
 26 27  1  0
 27 32  2  0
 27 28  1  0
 28 29  2  0
 29 30  1  0
 30 34  1  0
 31 30  2  0
 32 31  1  0
 33 32  1  0
 35 36  1  0
 36 39  1  0
 36 38  1  0
 37 35  2  0
 40 15  1  0
 40 41  1  0
 42 40  1  0
 44 55  2  0
 45 43  1  0
 45 50  1  0
 46 54  1  0
 46 56  1  0
 47 53  1  0
 47 49  1  0
 48 54  1  0
 49 48  1  0
 50 49  2  0
 51 45  2  0
 52 51  1  0
 52 47  2  0
 53 46  1  0
 54 44  1  0
 56 58  2  0
 57 56  1  0
 59 57  1  0
 60 69  2  0
 60 65  1  0
 61 57  1  0
 61 65  1  0
 62 61  1  0
 63 64  1  0
 63 62  1  0
 64 60  1  0
 65 66  2  0
 66 67  1  0
 68 67  2  0
 69 68  1  0
 70 44  1  0
 70 71  1  0
 70 80  1  0
 71 74  1  0
 72 76  1  0
 72 71  1  0
 73 72  2  0
 76 75  1  0
 78 76  1  0
 78 79  1  0
 78 77  1  0
 80 83  1  1
 80 81  1  0
 82 80  1  0
M  ISO  4   1 101   2 100  14 100  43 101
M  END
>  <TORSDO>  (29) 
F 16

>  <SCORE>  (29) 
-15.217

>  <name>  (29) 
28

>  <ligand_id>  (29) 
28

>  <original_smiles>  (29) 
[H]c1c([H])c([H])c2c(c1[H])C([H])([H])C([H])([H])C([H])([H])C2([H])N([H])C(=O)C1([H])N(C(=O)C([H])(N([H])C(=O)C([H])(N([H])C([H])([H])[H])C([H])([H])[H])C(C([H])([H])[H])(C([H])([H])[H])C([H])([H])[H])C([H])([H])c2c([H])c(OC([H])([H])C3([H])C([H])([H])N(C(=O)N4C([H])([H])C([H])([H])C([H])([H])C([H])(n5nc(-c6c([H])c([H])c(Oc7c([H])c([H])c(F)c([H])c7F)c([H])c6[H])c(C(=O)N([H])[H])c5N([H])[H])C4([H])[H])C([H])([H])C3([H])[H])c([H])c([H])c2C1([H])[H]

>  <smiles>  (29) 
[H]c1c([H])c([H])c2c(c1[H])C([H])([H])C([H])([H])C([H])([H])C2([H])N([H])C(=O)C1([H])N(C(=O)C([H])(N([H])C(=O)C([H])(N([H])C([H])([H])[H])C([H])([H])[H])C(C([H])([H])[H])(C([H])([H])[H])C([H])([H])[H])C([H])([H])c2c([H])c(OC([H])([H])C3([H])C([H])([H])N(C(=O)N4C([H])([H])C([H])([H])C([H])([H])C([H])(n5nc(-c6c([H])c([H])c(Oc7c([H])c([H])c(F)c([H])c7F)c([H])c6[H])c(C(=O)N([H])[H])c5N([H])[H])C4([H])[H])C([H])([H])C3([H])[H])c([H])c([H])c2C1([H])[H]

$$$$
29:0:0
     RDKit          3D

 93102  0  0  1  0  0  0  0  0999 V2000
  -28.6610  -21.4250   18.8890 C   0  0  0  0  0  2  0  0  0  0  0  0
  -28.2990  -22.9580   18.8740 C   0  0  0  0  0  2  0  0  0  0  0  0
  -29.1500  -22.3570   21.0340 C   0  0  0  0  0  2  0  0  0  0  0  0
  -29.6340  -21.2050   20.0580 C   0  0  0  0  0  3  0  0  0  0  0  0
  -28.8910  -23.6550   20.1330 C   0  0  0  0  0  3  0  0  0  0  0  0
  -30.5530  -14.7590   20.3450 C   0  0  0  0  0  0  0  0  0  0  0  0
  -30.3410  -12.4800   19.3260 C   0  0  0  0  0  2  0  0  0  0  0  0
  -29.4060  -12.5570   18.1000 C   0  0  0  0  0  2  0  0  0  0  0  0
  -27.9360  -12.3890   18.5300 C   0  0  0  0  0  2  0  0  0  0  0  0
  -27.5620  -13.2730   19.7500 C   0  0  0  0  0  3  0  0  0  0  0  0
  -28.6230  -13.1850   20.8690 C   0  0  0  0  0  2  0  0  0  0  0  0
  -29.9140  -13.5390   20.2690 N   0  0  0  0  0  0  0  0  0  0  0  0
  -31.7500  -14.8290   20.0560 O   0  0  0  0  0  0  0  0  0  0  0  0
  -30.0910  -19.7280   20.4890 C   0  0  0  0  0  0  0  0  0  0  0  0
  -31.3310  -19.5030   21.0660 C   0  0  0  0  0  0  0  0  0  0  0  0
  -30.1810  -17.3280   20.6020 C   0  0  0  0  0  0  0  0  0  0  0  0
  -29.4280  -18.4480   20.2910 N   0  0  0  0  0  0  0  0  0  0  0  0
  -29.7750  -15.9060   20.4720 N   0  0  0  0  0  0  0  0  0  0  0  0
  -31.7350  -17.8050   21.2690 S   0  0  0  0  0  0  0  0  0  0  0  0
  -28.7820  -15.7440   20.4860 H   0  0  0  0  0  0  0  0  0  0  0  0
  -25.1730  -13.8620   20.4690 C   0  0  0  0  0  0  0  0  0  0  0  0
  -24.1090  -13.0880   20.8420 C   0  0  0  0  0  0  0  0  0  0  0  0
  -24.5750  -11.7380   20.8210 C   0  0  0  0  0  0  0  0  0  0  0  0
  -26.2200  -12.9850   20.2410 N   0  0  0  0  0  0  0  0  0  0  0  0
  -25.8670  -11.7020   20.5180 N   0  0  0  0  0  0  0  0  0  0  0  0
  -23.8520  -10.4740   21.0160 C   0  0  0  0  0  0  0  0  0  0  0  0
  -24.2860   -9.5130   21.9540 C   0  0  0  0  0  3  0  0  0  0  0  0
  -23.5610   -8.3160   22.1390 C   0  0  0  0  0  3  0  0  0  0  0  0
  -22.3890   -8.0720   21.3860 C   0  0  0  0  0  0  0  0  0  0  0  0
  -21.9730   -9.0220   20.4360 C   0  0  0  0  0  3  0  0  0  0  0  0
  -22.6990  -10.2110   20.2500 C   0  0  0  0  0  3  0  0  0  0  0  0
  -21.6370   -6.9250   21.4780 O   0  0  0  0  0  0  0  0  0  0  0  0
  -21.5930   -6.1840   22.6320 C   0  0  0  0  0  0  0  0  0  0  0  0
  -21.1730   -6.7420   23.8610 C   0  0  0  0  0  3  0  0  0  0  0  0
  -21.0790   -5.9280   25.0060 C   0  0  0  0  0  3  0  0  0  0  0  0
  -21.3900   -4.5570   24.9240 C   0  0  0  0  0  0  0  0  0  0  0  0
  -21.8010   -4.0000   23.7020 C   0  0  0  0  0  3  0  0  0  0  0  0
  -21.8990   -4.8110   22.5570 C   0  0  0  0  0  0  0  0  0  0  0  0
  -22.2750   -4.2640   21.3770 F   0  0  0  0  0  0  0  0  0  0  0  0
  -21.2900   -3.7730   26.0230 F   0  0  0  0  0  0  0  0  0  0  0  0
  -22.7090  -13.5620   21.1050 C   0  0  0  0  0  0  0  0  0  0  0  0
  -21.9780  -12.8720   21.9730 N   0  0  0  0  0  0  0  0  0  0  0  0
  -22.2720  -14.5840   20.5750 O   0  0  0  0  0  0  0  0  0  0  0  0
  -22.3450  -12.0460   22.4220 H   0  0  0  0  0  0  0  0  0  0  0  0
  -21.0400  -13.1740   22.1900 H   0  0  0  0  0  0  0  0  0  0  0  0
  -25.3310  -15.2330   20.2790 N   0  0  0  0  0  0  0  0  0  0  0  0
  -24.5570  -15.8800   20.3850 H   0  0  0  0  0  0  0  0  0  0  0  0
  -26.1660  -15.6770   19.9200 H   0  0  0  0  0  0  0  0  0  0  0  0
  -32.2820  -20.4430   21.4520 N   0  0  0  0  0  0  0  0  0  0  0  0
  -32.1410  -21.4480   21.4190 H   0  0  0  0  0  0  0  0  0  0  0  0
  -33.1650  -20.1890   21.8900 H   0  0  0  0  0  0  0  0  0  0  0  0
  -28.0870  -24.9560   20.7080 C   0  0  0  0  0  2  0  0  0  0  0  0
  -28.3000  -26.3720   20.2230 O   0  0  0  0  0  0  0  0  0  0  0  0
  -24.6080  -31.8830   23.2330 C   0  0  0  0  0  0  0  0  0  0  0  0
  -27.2040  -27.2680   20.2060 C   0  0  0  0  0  0  0  0  0  0  0  0
  -23.4050  -30.4860   21.5920 C   0  0  0  0  0  3  0  0  0  0  0  0
  -24.8540  -28.9210   20.1710 C   0  0  0  0  0  0  0  0  0  0  0  0
  -25.9470  -30.7880   21.4130 C   0  0  0  0  0  2  0  0  0  0  0  0
  -26.0250  -29.4030   20.7700 C   0  0  0  0  0  0  0  0  0  0  0  0
  -27.2070  -28.5900   20.7700 C   0  0  0  0  0  3  0  0  0  0  0  0
  -26.0100  -26.8540   19.5800 C   0  0  0  0  0  3  0  0  0  0  0  0
  -24.8520  -27.6560   19.5620 C   0  0  0  0  0  3  0  0  0  0  0  0
  -23.6190  -29.8030   20.2150 C   0  0  0  0  0  2  0  0  0  0  0  0
  -24.6720  -31.0710   22.1350 N   0  0  0  0  0  0  0  0  0  0  0  0
  -23.5250  -32.1620   23.7660 O   0  0  0  0  0  0  0  0  0  0  0  0
  -22.7350  -29.4750   22.5550 C   0  0  0  0  0  0  0  0  0  0  0  0
  -21.4080  -29.3040   22.4330 N   0  0  0  0  0  0  0  0  0  0  0  0
  -23.4120  -28.8440   23.3710 O   0  0  0  0  0  0  0  0  0  0  0  0
  -20.9190  -29.8640   21.7470 H   0  0  0  0  0  0  0  0  0  0  0  0
  -18.0260  -28.1230   22.9500 C   0  0  0  0  0  0  0  0  0  0  0  0
  -20.5880  -28.3700   23.2060 C   0  0  0  0  0  3  0  0  0  0  0  0
  -20.6790  -26.9380   22.6300 C   0  0  0  0  0  2  0  0  0  0  0  0
  -19.5710  -26.6220   21.6200 C   0  0  0  0  0  2  0  0  0  0  0  0
  -18.1940  -26.7740   22.2710 C   0  0  0  0  0  2  0  0  0  0  0  0
  -19.1510  -28.8800   23.3760 C   0  0  0  0  0  0  0  0  0  0  0  0
  -18.9420  -30.1410   23.9720 C   0  0  0  0  0  3  0  0  0  0  0  0
  -17.6400  -30.6490   24.1450 C   0  0  0  0  0  3  0  0  0  0  0  0
  -16.5300  -29.8900   23.7350 C   0  0  0  0  0  3  0  0  0  0  0  0
  -16.7240  -28.6280   23.1450 C   0  0  0  0  0  3  0  0  0  0  0  0
  -25.8900  -32.5170   23.8550 C   0  0  0  0  0  3  0  0  0  0  0  0
  -25.5800  -33.9170   24.1820 N   0  0  0  0  0  0  0  0  0  0  0  0
  -25.9110  -34.9700   23.4230 C   0  0  0  0  0  0  0  0  0  0  0  0
  -26.5780  -34.8650   22.3900 O   0  0  0  0  0  0  0  0  0  0  0  0
  -24.9870  -34.0700   24.9840 H   0  0  0  0  0  0  0  0  0  0  0  0
  -24.1850  -36.7670   23.0700 C   0  0  0  0  0  1  0  0  0  0  0  0
  -25.4270  -36.3600   23.8800 C   0  0  0  0  0  3  0  0  0  0  0  0
  -27.5670  -37.2420   24.7030 C   0  0  0  0  0  1  0  0  0  0  0  0
  -26.4610  -37.4110   23.7630 N   0  0  0  0  0  0  0  0  0  0  0  0
  -26.0570  -38.3310   23.9110 H   0  0  0  0  0  0  0  0  0  0  0  0
  -26.4020  -31.7510   25.1370 C   0  0  1  0  0  0  0  0  0  0  0  0
  -25.3050  -31.5230   26.2040 C   0  0  0  0  0  1  0  0  0  0  0  0
  -26.9830  -30.3700   24.7550 C   0  0  0  0  0  1  0  0  0  0  0  0
  -27.5540  -32.5440   25.7970 C   0  0  0  0  0  1  0  0  0  0  0  0
  1  4  1  0
  2  1  1  0
  2  5  1  0
  4 14  1  0
  4  3  1  0
  5 52  1  0
  5  3  1  0
  6 18  1  0
  7 12  1  0
  8  9  1  0
  8  7  1  0
 10  9  1  0
 10 24  1  0
 10 11  1  0
 12  6  1  0
 12 11  1  0
 13  6  2  0
 14 15  2  0
 15 19  1  0
 15 49  1  0
 16 19  1  0
 17 14  1  0
 17 16  2  0
 18 20  1  0
 18 16  1  0
 21 22  2  0
 22 41  1  0
 23 22  1  0
 23 26  1  0
 24 21  1  0
 24 25  1  0
 25 23  2  0
 26 27  1  0
 27 28  2  0
 29 32  1  0
 29 28  1  0
 30 29  2  0
 31 30  1  0
 31 26  2  0
 32 33  1  0
 33 34  1  0
 34 35  2  0
 36 35  1  0
 36 40  1  0
 37 36  2  0
 38 33  2  0
 38 37  1  0
 39 38  1  0
 41 42  1  0
 42 45  1  0
 42 44  1  0
 43 41  2  0
 46 47  1  0
 46 21  1  0
 48 46  1  0
 49 51  1  0
 50 49  1  0
 53 52  1  0
 54 65  2  0
 55 53  1  0
 55 60  1  0
 56 64  1  0
 56 66  1  0
 57 63  1  0
 57 59  1  0
 58 64  1  0
 59 60  2  0
 59 58  1  0
 61 55  2  0
 62 61  1  0
 62 57  2  0
 63 56  1  0
 64 54  1  0
 66 68  2  0
 67 66  1  0
 69 67  1  0
 70 79  2  0
 70 75  1  0
 71 67  1  0
 71 75  1  0
 72 71  1  0
 73 74  1  0
 73 72  1  0
 74 70  1  0
 75 76  2  0
 76 77  1  0
 78 77  2  0
 79 78  1  0
 80 54  1  0
 80 81  1  0
 80 90  1  0
 81 84  1  0
 82 86  1  0
 82 81  1  0
 83 82  2  0
 86 85  1  0
 88 86  1  0
 88 89  1  0
 88 87  1  0
 90 93  1  1
 90 91  1  0
 92 90  1  0
M  ISO  4   6 100  18 100  52 101  53 101
M  END
>  <TORSDO>  (30) 
F 18

>  <SCORE>  (30) 
-14.908

>  <name>  (30) 
29

>  <ligand_id>  (30) 
29

>  <original_smiles>  (30) 
[H]c1c([H])c([H])c2c(c1[H])C([H])([H])C([H])([H])C([H])([H])C2([H])N([H])C(=O)C1([H])N(C(=O)C([H])(N([H])C(=O)C([H])(N([H])C([H])([H])[H])C([H])([H])[H])C(C([H])([H])[H])(C([H])([H])[H])C([H])([H])[H])C([H])([H])c2c([H])c(OC([H])([H])C3([H])C([H])([H])C([H])([H])C([H])(c4nc(N([H])C(=O)N5C([H])([H])C([H])([H])C([H])([H])C([H])(n6nc(-c7c([H])c([H])c(Oc8c([H])c([H])c(F)c([H])c8F)c([H])c7[H])c(C(=O)N([H])[H])c6N([H])[H])C5([H])[H])sc4N([H])[H])C3([H])[H])c([H])c([H])c2C1([H])[H]

>  <smiles>  (30) 
[H]c1c([H])c([H])c2c(c1[H])C([H])([H])C([H])([H])C([H])([H])C2([H])N([H])C(=O)C1([H])N(C(=O)C([H])(N([H])C(=O)C([H])(N([H])C([H])([H])[H])C([H])([H])[H])C(C([H])([H])[H])(C([H])([H])[H])C([H])([H])[H])C([H])([H])c2c([H])c(OC([H])([H])C3([H])C([H])([H])C([H])([H])C([H])(c4nc(N([H])C(=O)N5C([H])([H])C([H])([H])C([H])([H])C([H])(n6nc(-c7c([H])c([H])c(Oc8c([H])c([H])c(F)c([H])c8F)c([H])c7[H])c(C(=O)N([H])[H])c6N([H])[H])C5([H])[H])sc4N([H])[H])C3([H])[H])c([H])c([H])c2C1([H])[H]

$$$$
30:0:0
     RDKit          3D

 96105  0  0  1  0  0  0  0  0999 V2000
  -29.9730  -18.9020   19.9870 C   0  0  0  0  0  3  0  0  0  0  0  0
  -30.2250  -20.2750   22.0490 C   0  0  0  0  0  3  0  0  0  0  0  0
  -30.1260  -17.7790   20.8380 C   0  0  0  0  0  0  0  0  0  0  0  0
  -30.2650  -17.9120   22.2490 C   0  0  0  0  0  0  0  0  0  0  0  0
  -29.9760  -20.1910   20.6320 C   0  0  0  0  0  0  0  0  0  0  0  0
  -30.3620  -19.1410   22.8930 C   0  0  0  0  0  0  0  0  0  0  0  0
  -30.2600  -16.4240   22.4990 C   0  0  0  0  0  2  0  0  0  0  0  0
  -30.1390  -16.2450   20.9100 C   0  0  0  0  0  3  0  0  0  0  0  0
  -31.5840  -14.5180   19.6170 C   0  0  0  0  0  0  0  0  0  0  0  0
  -30.8410  -12.5540   18.3300 C   0  0  0  0  0  2  0  0  0  0  0  0
  -29.7060  -12.9290   17.3580 C   0  0  0  0  0  2  0  0  0  0  0  0
  -28.3510  -12.7400   18.0580 C   0  0  0  0  0  2  0  0  0  0  0  0
  -28.2940  -13.4310   19.4430 C   0  0  0  0  0  3  0  0  0  0  0  0
  -29.5470  -13.1160   20.2960 C   0  0  0  0  0  2  0  0  0  0  0  0
  -30.7380  -13.4490   19.5010 N   0  0  0  0  0  0  0  0  0  0  0  0
  -32.6180  -14.5880   18.9560 O   0  0  0  0  0  0  0  0  0  0  0  0
  -31.3410  -15.5750   20.4170 N   0  0  0  0  0  0  0  0  0  0  0  0
  -32.1400  -16.1930   20.4330 H   0  0  0  0  0  0  0  0  0  0  0  0
  -26.1060  -13.9640   20.6790 C   0  0  0  0  0  0  0  0  0  0  0  0
  -25.0970  -13.1600   21.1410 C   0  0  0  0  0  0  0  0  0  0  0  0
  -25.4950  -11.8200   20.8510 C   0  0  0  0  0  0  0  0  0  0  0  0
  -27.0560  -13.1080   20.1470 N   0  0  0  0  0  0  0  0  0  0  0  0
  -26.7060  -11.8060   20.3060 N   0  0  0  0  0  0  0  0  0  0  0  0
  -24.7690  -10.5520   21.0070 C   0  0  0  0  0  0  0  0  0  0  0  0
  -25.1930   -9.5670   21.9270 C   0  0  0  0  0  3  0  0  0  0  0  0
  -24.4660   -8.3660   22.0750 C   0  0  0  0  0  3  0  0  0  0  0  0
  -23.3030   -8.1410   21.3020 C   0  0  0  0  0  0  0  0  0  0  0  0
  -22.8990   -9.1130   20.3700 C   0  0  0  0  0  3  0  0  0  0  0  0
  -23.6260  -10.3060   20.2200 C   0  0  0  0  0  3  0  0  0  0  0  0
  -22.5480   -6.9930   21.3580 O   0  0  0  0  0  0  0  0  0  0  0  0
  -22.2780   -6.3690   22.5500 C   0  0  0  0  0  0  0  0  0  0  0  0
  -21.6720   -7.0510   23.6290 C   0  0  0  0  0  3  0  0  0  0  0  0
  -21.3430   -6.3530   24.8080 C   0  0  0  0  0  3  0  0  0  0  0  0
  -21.6150   -4.9750   24.9090 C   0  0  0  0  0  0  0  0  0  0  0  0
  -22.2140   -4.2940   23.8360 C   0  0  0  0  0  3  0  0  0  0  0  0
  -22.5410   -4.9890   22.6580 C   0  0  0  0  0  0  0  0  0  0  0  0
  -23.0980   -4.3230   21.6180 F   0  0  0  0  0  0  0  0  0  0  0  0
  -21.2940   -4.3020   26.0390 F   0  0  0  0  0  0  0  0  0  0  0  0
  -23.7900  -13.6140   21.7240 C   0  0  0  0  0  0  0  0  0  0  0  0
  -23.2610  -12.8740   22.6920 N   0  0  0  0  0  0  0  0  0  0  0  0
  -23.2520  -14.6560   21.3550 O   0  0  0  0  0  0  0  0  0  0  0  0
  -23.7120  -12.0280   23.0100 H   0  0  0  0  0  0  0  0  0  0  0  0
  -22.3910  -13.1540   23.1210 H   0  0  0  0  0  0  0  0  0  0  0  0
  -26.2790  -15.3450   20.6450 N   0  0  0  0  0  0  0  0  0  0  0  0
  -25.5510  -15.9830   20.9510 H   0  0  0  0  0  0  0  0  0  0  0  0
  -27.0530  -15.8200   20.1980 H   0  0  0  0  0  0  0  0  0  0  0  0
  -29.0090  -22.4870   20.2520 C   0  0  0  0  0  0  0  0  0  0  0  0
  -29.7600  -21.4130   19.8760 N   0  0  0  0  0  0  0  0  0  0  0  0
  -28.3040  -22.4650   21.2650 O   0  0  0  0  0  0  0  0  0  0  0  0
  -30.2020  -21.4760   18.9670 H   0  0  0  0  0  0  0  0  0  0  0  0
  -28.9760  -23.7770   19.3810 C   0  0  0  0  0  2  0  0  0  0  0  0
  -28.4520  -25.0360   20.1490 C   0  0  0  0  0  2  0  0  0  0  0  0
  -28.5900  -26.3120   19.4720 O   0  0  0  0  0  0  0  0  0  0  0  0
  -24.7410  -31.3720   22.7410 C   0  0  0  0  0  0  0  0  0  0  0  0
  -27.4480  -27.0930   19.4720 C   0  0  0  0  0  0  0  0  0  0  0  0
  -23.5670  -30.0370   21.0230 C   0  0  0  0  0  3  0  0  0  0  0  0
  -25.0480  -28.5960   19.5280 C   0  0  0  0  0  0  0  0  0  0  0  0
  -26.0940  -30.4320   20.8640 C   0  0  0  0  0  2  0  0  0  0  0  0
  -26.2000  -29.0990   20.1460 C   0  0  0  0  0  0  0  0  0  0  0  0
  -27.4100  -28.3590   20.1070 C   0  0  0  0  0  3  0  0  0  0  0  0
  -26.2750  -26.6100   18.8500 C   0  0  0  0  0  3  0  0  0  0  0  0
  -25.0800  -27.3520   18.8760 C   0  0  0  0  0  3  0  0  0  0  0  0
  -23.7910  -29.4350   19.6130 C   0  0  0  0  0  2  0  0  0  0  0  0
  -24.8170  -30.6290   21.6000 N   0  0  0  0  0  0  0  0  0  0  0  0
  -23.6510  -31.5980   23.2870 O   0  0  0  0  0  0  0  0  0  0  0  0
  -22.9270  -28.9600   21.9300 C   0  0  0  0  0  0  0  0  0  0  0  0
  -21.5910  -28.8400   21.8660 N   0  0  0  0  0  0  0  0  0  0  0  0
  -23.6290  -28.2390   22.6450 O   0  0  0  0  0  0  0  0  0  0  0  0
  -21.0860  -29.4820   21.2720 H   0  0  0  0  0  0  0  0  0  0  0  0
  -18.1960  -27.8230   22.5570 C   0  0  0  0  0  0  0  0  0  0  0  0
  -20.7800  -27.8640   22.5930 C   0  0  0  0  0  3  0  0  0  0  0  0
  -20.7110  -26.5170   21.8380 C   0  0  0  0  0  2  0  0  0  0  0  0
  -19.4970  -26.4100   20.9110 C   0  0  0  0  0  2  0  0  0  0  0  0
  -18.1980  -26.5630   21.7080 C   0  0  0  0  0  2  0  0  0  0  0  0
  -19.4080  -28.4400   22.9610 C   0  0  0  0  0  0  0  0  0  0  0  0
  -19.3540  -29.6270   23.7210 C   0  0  0  0  0  3  0  0  0  0  0  0
  -18.1170  -30.1900   24.0870 C   0  0  0  0  0  3  0  0  0  0  0  0
  -16.9190  -29.5660   23.6980 C   0  0  0  0  0  3  0  0  0  0  0  0
  -16.9600  -28.3820   22.9410 C   0  0  0  0  0  3  0  0  0  0  0  0
  -26.0110  -31.9900   23.3990 C   0  0  0  0  0  3  0  0  0  0  0  0
  -26.5950  -31.1110   24.5730 C   0  0  1  0  0  0  0  0  0  0  0  0
  -25.5440  -30.7070   25.6330 C   0  0  0  0  0  1  0  0  0  0  0  0
  -27.2310  -29.8130   24.0210 C   0  0  0  0  0  1  0  0  0  0  0  0
  -27.7170  -31.8870   25.3010 C   0  0  0  0  0  1  0  0  0  0  0  0
  -25.6450  -33.3260   23.8850 N   0  0  0  0  0  0  0  0  0  0  0  0
  -25.9260  -34.4730   23.2520 C   0  0  0  0  0  0  0  0  0  0  0  0
  -26.5900  -34.5180   22.2130 O   0  0  0  0  0  0  0  0  0  0  0  0
  -25.0420  -33.3580   24.6940 H   0  0  0  0  0  0  0  0  0  0  0  0
  -24.1180  -36.2240   23.1110 C   0  0  0  0  0  1  0  0  0  0  0  0
  -25.3810  -35.7770   23.8660 C   0  0  0  0  0  3  0  0  0  0  0  0
  -27.4790  -36.6560   24.7960 C   0  0  0  0  0  1  0  0  0  0  0  0
  -26.3680  -36.8800   23.8760 N   0  0  0  0  0  0  0  0  0  0  0  0
  -25.9200  -37.7580   24.1270 H   0  0  0  0  0  0  0  0  0  0  0  0
  -30.5840  -19.2480   24.2620 N   0  0  0  0  0  0  0  0  0  0  0  0
  -30.9170  -20.1380   24.6220 H   0  0  0  0  0  0  0  0  0  0  0  0
  -31.0050  -18.4550   24.7350 H   0  0  0  0  0  0  0  0  0  0  0  0
  1  5  2  0
  1  3  1  0
  2  6  2  0
  3  8  1  0
  3  4  2  0
  4  7  1  0
  4  6  1  0
  5  2  1  0
  6 94  1  0
  8 17  1  0
  8  7  1  0
  9 17  1  0
 10 15  1  0
 11 12  1  0
 11 10  1  0
 13 12  1  0
 13 22  1  0
 13 14  1  0
 15  9  1  0
 15 14  1  0
 16  9  2  0
 17 18  1  0
 19 20  2  0
 20 39  1  0
 21 24  1  0
 21 20  1  0
 22 23  1  0
 22 19  1  0
 23 21  2  0
 24 25  1  0
 25 26  2  0
 27 30  1  0
 27 26  1  0
 28 27  2  0
 29 28  1  0
 29 24  2  0
 30 31  1  0
 31 36  2  0
 31 32  1  0
 32 33  2  0
 33 34  1  0
 34 38  1  0
 35 34  2  0
 36 35  1  0
 37 36  1  0
 39 40  1  0
 40 42  1  0
 40 43  1  0
 41 39  2  0
 44 19  1  0
 44 45  1  0
 46 44  1  0
 47 49  2  0
 48 47  1  0
 48  5  1  0
 50 48  1  0
 51 52  1  0
 51 47  1  0
 53 52  1  0
 54 65  2  0
 55 53  1  0
 55 60  1  0
 56 64  1  0
 56 66  1  0
 57 63  1  0
 57 59  1  0
 58 64  1  0
 59 58  1  0
 60 59  2  0
 61 62  1  0
 61 55  2  0
 62 57  2  0
 63 56  1  0
 64 54  1  0
 66 68  2  0
 67 66  1  0
 69 67  1  0
 70 79  2  0
 70 75  1  0
 71 67  1  0
 71 75  1  0
 72 71  1  0
 73 74  1  0
 73 72  1  0
 74 70  1  0
 75 76  2  0
 76 77  1  0
 78 77  2  0
 79 78  1  0
 80 54  1  0
 80 85  1  0
 80 81  1  0
 81 84  1  1
 81 82  1  0
 83 81  1  0
 85 88  1  0
 86 90  1  0
 86 85  1  0
 87 86  2  0
 90 89  1  0
 90 92  1  0
 92 93  1  0
 92 91  1  0
 94 95  1  0
 94 96  1  0
M  ISO  4   9 100  17 100  52 101  53 101
M  END
>  <TORSDO>  (31) 
F 20

>  <SCORE>  (31) 
-9.092

>  <name>  (31) 
30

>  <ligand_id>  (31) 
30

>  <original_smiles>  (31) 
[H]c1c([H])c([H])c2c(c1[H])C([H])([H])C([H])([H])C([H])([H])C2([H])N([H])C(=O)C1([H])N(C(=O)C([H])(N([H])C(=O)C([H])(N([H])C([H])([H])[H])C([H])([H])[H])C(C([H])([H])[H])(C([H])([H])[H])C([H])([H])[H])C([H])([H])c2c([H])c(OC([H])([H])C([H])([H])C(=O)N([H])c3c([H])c(N([H])[H])c4c(c3[H])C([H])(N([H])C(=O)N3C([H])([H])C([H])([H])C([H])([H])C([H])(n5nc(-c6c([H])c([H])c(Oc7c([H])c([H])c(F)c([H])c7F)c([H])c6[H])c(C(=O)N([H])[H])c5N([H])[H])C3([H])[H])C4([H])[H])c([H])c([H])c2C1([H])[H]

>  <smiles>  (31) 
[H]c1c([H])c([H])c2c(c1[H])C([H])([H])C([H])([H])C([H])([H])C2([H])N([H])C(=O)C1([H])N(C(=O)C([H])(N([H])C(=O)C([H])(N([H])C([H])([H])[H])C([H])([H])[H])C(C([H])([H])[H])(C([H])([H])[H])C([H])([H])[H])C([H])([H])c2c([H])c(OC([H])([H])C([H])([H])C(=O)N([H])c3c([H])c(N([H])[H])c4c(c3[H])C([H])(N([H])C(=O)N3C([H])([H])C([H])([H])C([H])([H])C([H])(n5nc(-c6c([H])c([H])c(Oc7c([H])c([H])c(F)c([H])c7F)c([H])c6[H])c(C(=O)N([H])[H])c5N([H])[H])C3([H])[H])C4([H])[H])c([H])c([H])c2C1([H])[H]

$$$$
31:0:0
     RDKit          3D

 95103  0  0  1  0  0  0  0  0999 V2000
  -29.8640  -20.6290   21.0380 C   0  0  0  0  0  0  0  0  0  0  0  0
  -30.5140  -20.8250   22.1970 N   0  0  0  0  0  4  0  0  0  0  0  0
  -29.3840  -21.7220   20.3780 N   0  0  0  0  0  0  0  0  0  0  0  0
  -30.8930  -20.0470   22.7150 H   0  0  0  0  0  0  0  0  0  0  0  0
  -30.6390  -21.7490   22.5770 H   0  0  0  0  0  0  0  0  0  0  0  0
  -28.8190  -21.5830   19.5510 H   0  0  0  0  0  0  0  0  0  0  0  0
  -29.8180  -18.0610   21.2580 C   0  0  0  0  0  3  0  0  0  0  0  0
  -29.7510  -17.1900   19.0820 C   0  0  0  0  0  3  0  0  0  0  0  0
  -29.8590  -16.8900   20.4180 C   0  0  0  0  0  0  0  0  0  0  0  0
  -29.7630  -19.2500   20.5470 C   0  0  0  0  0  0  0  0  0  0  0  0
  -29.6790  -18.9200   18.8250 S   0  0  0  0  0  0  0  0  0  0  0  0
  -30.6460  -14.5260   20.3960 C   0  0  0  0  0  0  0  0  0  0  0  0
  -30.3800  -12.3450   19.2710 C   0  0  0  0  0  2  0  0  0  0  0  0
  -29.4300  -12.5540   18.0700 C   0  0  0  0  0  2  0  0  0  0  0  0
  -27.9580  -12.4180   18.5030 C   0  0  0  0  0  2  0  0  0  0  0  0
  -27.6250  -13.2490   19.7730 C   0  0  0  0  0  3  0  0  0  0  0  0
  -28.6840  -13.0110   20.8720 C   0  0  0  0  0  2  0  0  0  0  0  0
  -30.0080  -13.3230   20.3080 N   0  0  0  0  0  0  0  0  0  0  0  0
  -31.7710  -14.7130   19.9190 O   0  0  0  0  0  0  0  0  0  0  0  0
  -29.9260  -15.5450   20.9220 N   0  0  0  0  0  0  0  0  0  0  0  0
  -29.1710  -15.2680   21.5350 H   0  0  0  0  0  0  0  0  0  0  0  0
  -25.2310  -13.8520   20.4970 C   0  0  0  0  0  0  0  0  0  0  0  0
  -24.1670  -13.0770   20.8700 C   0  0  0  0  0  0  0  0  0  0  0  0
  -24.6310  -11.7260   20.8370 C   0  0  0  0  0  0  0  0  0  0  0  0
  -26.2740  -12.9730   20.2570 N   0  0  0  0  0  0  0  0  0  0  0  0
  -25.9180  -11.6900   20.5160 N   0  0  0  0  0  0  0  0  0  0  0  0
  -23.9100  -10.4610   21.0310 C   0  0  0  0  0  0  0  0  0  0  0  0
  -24.3550   -9.4920   21.9570 C   0  0  0  0  0  3  0  0  0  0  0  0
  -23.6340   -8.2930   22.1390 C   0  0  0  0  0  3  0  0  0  0  0  0
  -22.4540   -8.0550   21.3930 C   0  0  0  0  0  0  0  0  0  0  0  0
  -22.0300   -9.0120   20.4570 C   0  0  0  0  0  3  0  0  0  0  0  0
  -22.7510  -10.2020   20.2730 C   0  0  0  0  0  3  0  0  0  0  0  0
  -21.7020   -6.9080   21.4800 O   0  0  0  0  0  0  0  0  0  0  0  0
  -21.6610   -6.1620   22.6310 C   0  0  0  0  0  0  0  0  0  0  0  0
  -21.2360   -6.7110   23.8620 C   0  0  0  0  0  3  0  0  0  0  0  0
  -21.1510   -5.8920   25.0050 C   0  0  0  0  0  3  0  0  0  0  0  0
  -21.4700   -4.5250   24.9180 C   0  0  0  0  0  0  0  0  0  0  0  0
  -21.8850   -3.9740   23.6920 C   0  0  0  0  0  3  0  0  0  0  0  0
  -21.9780   -4.7920   22.5520 C   0  0  0  0  0  0  0  0  0  0  0  0
  -22.3580   -4.2520   21.3680 F   0  0  0  0  0  0  0  0  0  0  0  0
  -21.3800   -3.7370   26.0140 F   0  0  0  0  0  0  0  0  0  0  0  0
  -22.7710  -13.5540   21.1540 C   0  0  0  0  0  0  0  0  0  0  0  0
  -22.0480  -12.8510   22.0200 N   0  0  0  0  0  0  0  0  0  0  0  0
  -22.3280  -14.5820   20.6430 O   0  0  0  0  0  0  0  0  0  0  0  0
  -22.4210  -12.0210   22.4530 H   0  0  0  0  0  0  0  0  0  0  0  0
  -21.1120  -13.1500   22.2570 H   0  0  0  0  0  0  0  0  0  0  0  0
  -25.3970  -15.2230   20.3250 N   0  0  0  0  0  0  0  0  0  0  0  0
  -24.6400  -15.8860   20.4560 H   0  0  0  0  0  0  0  0  0  0  0  0
  -26.2600  -15.6610   20.0280 H   0  0  0  0  0  0  0  0  0  0  0  0
  -31.1560  -23.4860   20.4330 C   0  0  0  0  0  1  0  0  0  0  0  0
  -29.6760  -23.1470   20.7340 C   0  0  0  0  0  3  0  0  0  0  0  0
  -28.7440  -24.1790   20.0410 C   0  0  0  0  0  0  0  0  0  0  0  0
  -28.3610  -24.0460   18.8740 O   0  0  0  0  0  0  0  0  0  0  0  0
  -28.2900  -25.3990   20.8820 C   0  0  0  0  0  2  0  0  0  0  0  0
  -28.4240  -26.6660   20.1930 O   0  0  0  0  0  0  0  0  0  0  0  0
  -24.6030  -31.8920   23.2320 C   0  0  0  0  0  0  0  0  0  0  0  0
  -27.2770  -27.4320   20.1880 C   0  0  0  0  0  0  0  0  0  0  0  0
  -23.4130  -30.4790   21.5900 C   0  0  0  0  0  3  0  0  0  0  0  0
  -24.8830  -28.9420   20.1760 C   0  0  0  0  0  0  0  0  0  0  0  0
  -25.9390  -30.8410   21.4050 C   0  0  0  0  0  2  0  0  0  0  0  0
  -26.0380  -29.4670   20.7720 C   0  0  0  0  0  0  0  0  0  0  0  0
  -27.2420  -28.7230   20.7700 C   0  0  0  0  0  3  0  0  0  0  0  0
  -26.1090  -26.9270   19.5800 C   0  0  0  0  0  3  0  0  0  0  0  0
  -24.9170  -27.6740   19.5720 C   0  0  0  0  0  3  0  0  0  0  0  0
  -23.6350  -29.7930   20.2150 C   0  0  0  0  0  2  0  0  0  0  0  0
  -24.6700  -31.0850   22.1350 N   0  0  0  0  0  0  0  0  0  0  0  0
  -23.5170  -32.1690   23.7610 O   0  0  0  0  0  0  0  0  0  0  0  0
  -22.7600  -29.4610   22.5550 C   0  0  0  0  0  0  0  0  0  0  0  0
  -21.4360  -29.2820   22.4250 N   0  0  0  0  0  0  0  0  0  0  0  0
  -23.4420  -28.8370   23.3710 O   0  0  0  0  0  0  0  0  0  0  0  0
  -20.9510  -29.8400   21.7370 H   0  0  0  0  0  0  0  0  0  0  0  0
  -18.0570  -28.1050   22.9400 C   0  0  0  0  0  0  0  0  0  0  0  0
  -20.6170  -28.3440   23.1940 C   0  0  0  0  0  3  0  0  0  0  0  0
  -20.7070  -26.9170   22.6080 C   0  0  0  0  0  2  0  0  0  0  0  0
  -19.5960  -26.6070   21.5990 C   0  0  0  0  0  2  0  0  0  0  0  0
  -18.2200  -26.7580   22.2550 C   0  0  0  0  0  2  0  0  0  0  0  0
  -19.1840  -28.8570   23.3670 C   0  0  0  0  0  0  0  0  0  0  0  0
  -18.9790  -30.1180   23.9680 C   0  0  0  0  0  3  0  0  0  0  0  0
  -17.6810  -30.6310   24.1410 C   0  0  0  0  0  3  0  0  0  0  0  0
  -16.5670  -29.8770   23.7310 C   0  0  0  0  0  3  0  0  0  0  0  0
  -16.7560  -28.6140   23.1390 C   0  0  0  0  0  3  0  0  0  0  0  0
  -25.8830  -32.5290   23.8570 C   0  0  0  0  0  3  0  0  0  0  0  0
  -26.4060  -31.7580   25.1300 C   0  0  1  0  0  0  0  0  0  0  0  0
  -25.3150  -31.5090   26.1980 C   0  0  0  0  0  1  0  0  0  0  0  0
  -26.9980  -30.3860   24.7280 C   0  0  0  0  0  1  0  0  0  0  0  0
  -27.5490  -32.5610   25.7960 C   0  0  0  0  0  1  0  0  0  0  0  0
  -25.5640  -33.9240   24.1860 N   0  0  0  0  0  0  0  0  0  0  0  0
  -25.8920  -34.9820   23.4300 C   0  0  0  0  0  0  0  0  0  0  0  0
  -26.5680  -34.8840   22.4020 O   0  0  0  0  0  0  0  0  0  0  0  0
  -24.9630  -34.0720   24.9830 H   0  0  0  0  0  0  0  0  0  0  0  0
  -24.1590  -36.7700   23.0620 C   0  0  0  0  0  1  0  0  0  0  0  0
  -25.3920  -36.3680   23.8860 C   0  0  0  0  0  3  0  0  0  0  0  0
  -27.5160  -37.2600   24.7370 C   0  0  0  0  0  1  0  0  0  0  0  0
  -26.4190  -37.4270   23.7860 N   0  0  0  0  0  0  0  0  0  0  0  0
  -26.0070  -38.3440   23.9340 H   0  0  0  0  0  0  0  0  0  0  0  0
  1  2  2  0
  2  5  1  0
  2  4  1  0
  3 51  1  0
  3  1  1  0
  6  3  1  0
  8  9  2  0
  9 20  1  0
  9  7  1  0
 10  1  1  0
 10  7  2  0
 11  8  1  0
 11 10  1  0
 12 20  1  0
 13 18  1  0
 14 15  1  0
 14 13  1  0
 16 15  1  0
 16 25  1  0
 16 17  1  0
 18 12  1  0
 18 17  1  0
 19 12  2  0
 20 21  1  0
 22 23  2  0
 23 42  1  0
 24 23  1  0
 24 27  1  0
 25 22  1  0
 25 26  1  0
 26 24  2  0
 27 28  1  0
 28 29  2  0
 30 33  1  0
 30 29  1  0
 31 30  2  0
 32 31  1  0
 32 27  2  0
 33 34  1  0
 34 35  1  0
 35 36  2  0
 37 36  1  0
 37 41  1  0
 38 37  2  0
 39 34  2  0
 39 38  1  0
 40 39  1  0
 42 43  1  0
 43 46  1  0
 43 45  1  0
 44 42  2  0
 47 48  1  0
 47 22  1  0
 49 47  1  0
 51 50  1  0
 52 51  1  0
 52 54  1  0
 53 52  2  0
 55 54  1  0
 56 67  2  0
 57 55  1  0
 57 62  1  0
 58 66  1  0
 58 68  1  0
 59 65  1  0
 59 61  1  0
 60 66  1  0
 61 60  1  0
 62 61  2  0
 63 57  2  0
 64 63  1  0
 64 59  2  0
 65 58  1  0
 66 56  1  0
 68 70  2  0
 69 68  1  0
 71 69  1  0
 72 81  2  0
 72 77  1  0
 73 69  1  0
 73 77  1  0
 74 73  1  0
 75 76  1  0
 75 74  1  0
 76 72  1  0
 77 78  2  0
 78 79  1  0
 80 79  2  0
 81 80  1  0
 82 56  1  0
 82 87  1  0
 82 83  1  0
 83 86  1  1
 83 84  1  0
 85 83  1  0
 87 90  1  0
 88 92  1  0
 88 87  1  0
 89 88  2  0
 92 91  1  0
 94 92  1  0
 94 95  1  0
 94 93  1  0
M  ISO  4  12 100  20 100  54 101  55 101
M  END
>  <TORSDO>  (32) 
F 20

>  <SCORE>  (32) 
-14.093

>  <name>  (32) 
31

>  <ligand_id>  (32) 
31

>  <original_smiles>  (32) 
[H]c1sc(C(N([H])[H])=[N+]([H])C([H])(C(=O)C([H])([H])Oc2c([H])c([H])c3c(c2[H])C([H])([H])N(C(=O)C([H])(N([H])C(=O)C([H])(N([H])C([H])([H])[H])C([H])([H])[H])C(C([H])([H])[H])(C([H])([H])[H])C([H])([H])[H])C([H])(C(=O)N([H])C2([H])c4c([H])c([H])c([H])c([H])c4C([H])([H])C([H])([H])C2([H])[H])C3([H])[H])C([H])([H])[H])c([H])c1N([H])C(=O)N1C([H])([H])C([H])([H])C([H])([H])C([H])(n2nc(-c3c([H])c([H])c(Oc4c([H])c([H])c(F)c([H])c4F)c([H])c3[H])c(C(=O)N([H])[H])c2N([H])[H])C1([H])[H]

>  <smiles>  (32) 
[H]c1sc(C(N([H])[H])=[N+]([H])C([H])(C(=O)C([H])([H])Oc2c([H])c([H])c3c(c2[H])C([H])([H])N(C(=O)C([H])(N([H])C(=O)C([H])(N([H])C([H])([H])[H])C([H])([H])[H])C(C([H])([H])[H])(C([H])([H])[H])C([H])([H])[H])C([H])(C(=O)N([H])C2([H])c4c([H])c([H])c([H])c([H])c4C([H])([H])C([H])([H])C2([H])[H])C3([H])[H])C([H])([H])[H])c([H])c1N([H])C(=O)N1C([H])([H])C([H])([H])C([H])([H])C([H])(n2nc(-c3c([H])c([H])c(Oc4c([H])c([H])c(F)c([H])c4F)c([H])c3[H])c(C(=O)N([H])[H])c2N([H])[H])C1([H])[H]

$$$$
32:0:0
     RDKit          3D

 98107  0  0  1  0  0  0  0  0999 V2000
  -30.5670  -20.4070   19.6670 C   0  0  0  0  0  3  0  0  0  0  0  0
  -30.2550  -21.7990   19.5190 C   0  0  0  0  0  3  0  0  0  0  0  0
  -29.8300  -19.7700   20.6350 C   0  0  0  0  0  0  0  0  0  0  0  0
  -29.2740  -22.2500   20.3740 C   0  0  0  0  0  0  0  0  0  0  0  0
  -28.7120  -20.9100   21.3570 S   0  0  0  0  0  0  0  0  0  0  0  0
  -28.8720  -24.6280   19.8240 C   0  0  0  0  0  0  0  0  0  0  0  0
  -28.7320  -23.4940   20.5490 N   0  0  0  0  0  0  0  0  0  0  0  0
  -29.5660  -24.7090   18.8060 O   0  0  0  0  0  0  0  0  0  0  0  0
  -28.1220  -23.5860   21.3490 H   0  0  0  0  0  0  0  0  0  0  0  0
  -28.0920  -25.8610   20.3470 C   0  0  0  0  0  2  0  0  0  0  0  0
  -28.0720  -26.9680   19.4160 O   0  0  0  0  0  0  0  0  0  0  0  0
  -24.4890  -31.9290   23.0810 C   0  0  0  0  0  0  0  0  0  0  0  0
  -26.9350  -27.7420   19.5210 C   0  0  0  0  0  0  0  0  0  0  0  0
  -23.1840  -30.6540   21.4110 C   0  0  0  0  0  3  0  0  0  0  0  0
  -24.5500  -29.2380   19.7840 C   0  0  0  0  0  0  0  0  0  0  0  0
  -25.6940  -31.0360   21.0880 C   0  0  0  0  0  2  0  0  0  0  0  0
  -25.7420  -29.7190   20.3400 C   0  0  0  0  0  0  0  0  0  0  0  0
  -26.9420  -28.9810   20.2040 C   0  0  0  0  0  3  0  0  0  0  0  0
  -25.7300  -27.2800   18.9530 C   0  0  0  0  0  3  0  0  0  0  0  0
  -24.5390  -28.0180   19.0860 C   0  0  0  0  0  3  0  0  0  0  0  0
  -23.3100  -30.0840   19.9730 C   0  0  0  0  0  2  0  0  0  0  0  0
  -24.4770  -31.2170   21.9180 N   0  0  0  0  0  0  0  0  0  0  0  0
  -23.4430  -32.1550   23.7030 O   0  0  0  0  0  0  0  0  0  0  0  0
  -22.5910  -29.5600   22.3270 C   0  0  0  0  0  0  0  0  0  0  0  0
  -21.2660  -29.3570   22.2380 N   0  0  0  0  0  0  0  0  0  0  0  0
  -23.3170  -28.8980   23.0730 O   0  0  0  0  0  0  0  0  0  0  0  0
  -20.7390  -29.9480   21.6090 H   0  0  0  0  0  0  0  0  0  0  0  0
  -17.9370  -28.0600   22.7830 C   0  0  0  0  0  0  0  0  0  0  0  0
  -20.4970  -28.3550   22.9770 C   0  0  0  0  0  3  0  0  0  0  0  0
  -20.6060  -26.9670   22.3040 C   0  0  0  0  0  2  0  0  0  0  0  0
  -19.4730  -26.6880   21.3120 C   0  0  0  0  0  2  0  0  0  0  0  0
  -18.1130  -26.7610   22.0150 C   0  0  0  0  0  2  0  0  0  0  0  0
  -19.0560  -28.8170   23.2190 C   0  0  0  0  0  0  0  0  0  0  0  0
  -18.8370  -30.0350   23.8980 C   0  0  0  0  0  3  0  0  0  0  0  0
  -17.5310  -30.4990   24.1430 C   0  0  0  0  0  3  0  0  0  0  0  0
  -16.4260  -29.7370   23.7220 C   0  0  0  0  0  3  0  0  0  0  0  0
  -16.6300  -28.5190   23.0480 C   0  0  0  0  0  3  0  0  0  0  0  0
  -25.8110  -32.5130   23.6700 C   0  0  0  0  0  3  0  0  0  0  0  0
  -25.5340  -33.8900   24.1000 N   0  0  0  0  0  0  0  0  0  0  0  0
  -25.8430  -34.9850   23.3930 C   0  0  0  0  0  0  0  0  0  0  0  0
  -26.4630  -34.9390   22.3270 O   0  0  0  0  0  0  0  0  0  0  0  0
  -24.9780  -34.0010   24.9360 H   0  0  0  0  0  0  0  0  0  0  0  0
  -24.1170  -36.8060   23.2290 C   0  0  0  0  0  1  0  0  0  0  0  0
  -25.3900  -36.3450   23.9550 C   0  0  0  0  0  3  0  0  0  0  0  0
  -27.5680  -37.1650   24.7410 C   0  0  0  0  0  1  0  0  0  0  0  0
  -26.4270  -37.3960   23.8580 N   0  0  0  0  0  0  0  0  0  0  0  0
  -26.0370  -38.3090   24.0780 H   0  0  0  0  0  0  0  0  0  0  0  0
  -26.3920  -31.6610   24.8630 C   0  0  1  0  0  0  0  0  0  0  0  0
  -25.3550  -31.3560   25.9690 C   0  0  0  0  0  1  0  0  0  0  0  0
  -26.9460  -30.3120   24.3520 C   0  0  0  0  0  1  0  0  0  0  0  0
  -27.5810  -32.4080   25.5120 C   0  0  0  0  0  1  0  0  0  0  0  0
  -29.8920  -18.3220   21.1050 C   0  0  0  0  0  3  0  0  0  0  0  0
  -31.1790  -18.9840   23.3150 C   0  0  0  0  0  2  0  0  0  0  0  0
  -31.5150  -17.7130   24.0820 C   0  0  0  0  0  2  0  0  0  0  0  0
  -31.1020  -18.1040   22.0580 C   0  0  2  0  0  0  0  0  0  0  0  0
  -32.4160  -17.9210   21.2670 C   0  0  0  0  0  1  0  0  0  0  0  0
  -30.8920  -16.9760   22.9880 N   0  0  0  0  0  4  0  0  0  0  0  0
  -29.9200  -16.8130   23.1970 H   0  0  0  0  0  0  0  0  0  0  0  0
  -31.3700  -16.1220   22.7560 H   0  0  0  0  0  0  0  0  0  0  0  0
  -29.7920  -17.3060   19.9190 C   0  0  0  0  0  2  0  0  0  0  0  0
  -30.4940  -14.9110   19.6700 C   0  0  0  0  0  0  0  0  0  0  0  0
  -30.2120  -12.7360   18.5410 C   0  0  0  0  0  2  0  0  0  0  0  0
  -29.1210  -12.8880   17.4610 C   0  0  0  0  0  2  0  0  0  0  0  0
  -27.7190  -12.6610   18.0580 C   0  0  0  0  0  2  0  0  0  0  0  0
  -27.4870  -13.4680   19.3630 C   0  0  0  0  0  3  0  0  0  0  0  0
  -28.6760  -13.2980   20.3360 C   0  0  0  0  0  2  0  0  0  0  0  0
  -29.9060  -13.6840   19.6230 N   0  0  0  0  0  0  0  0  0  0  0  0
  -31.5280  -15.1840   19.0550 O   0  0  0  0  0  0  0  0  0  0  0  0
  -29.7700  -15.8710   20.2830 N   0  0  0  0  0  0  0  0  0  0  0  0
  -28.9270  -15.5320   20.7250 H   0  0  0  0  0  0  0  0  0  0  0  0
  -25.1890  -13.9400   20.4250 C   0  0  0  0  0  0  0  0  0  0  0  0
  -24.2020  -13.1060   20.8750 C   0  0  0  0  0  0  0  0  0  0  0  0
  -24.6890  -11.7770   20.6820 C   0  0  0  0  0  0  0  0  0  0  0  0
  -26.2160  -13.1150   19.9940 N   0  0  0  0  0  0  0  0  0  0  0  0
  -25.9260  -11.8060   20.2020 N   0  0  0  0  0  0  0  0  0  0  0  0
  -24.0290  -10.4800   20.8710 C   0  0  0  0  0  0  0  0  0  0  0  0
  -24.5020   -9.5400   21.8130 C   0  0  0  0  0  3  0  0  0  0  0  0
  -23.8370   -8.3080   21.9890 C   0  0  0  0  0  3  0  0  0  0  0  0
  -22.6880   -8.0040   21.2220 C   0  0  0  0  0  0  0  0  0  0  0  0
  -22.2360   -8.9340   20.2680 C   0  0  0  0  0  3  0  0  0  0  0  0
  -22.9010  -10.1580   20.0910 C   0  0  0  0  0  3  0  0  0  0  0  0
  -21.9950   -6.8200   21.3060 O   0  0  0  0  0  0  0  0  0  0  0  0
  -21.8310   -6.1650   22.5000 C   0  0  0  0  0  0  0  0  0  0  0  0
  -21.1850   -6.7710   23.6000 C   0  0  0  0  0  3  0  0  0  0  0  0
  -20.9750   -6.0390   24.7850 C   0  0  0  0  0  3  0  0  0  0  0  0
  -21.4010   -4.7000   24.8700 C   0  0  0  0  0  0  0  0  0  0  0  0
  -22.0400   -4.0930   23.7750 C   0  0  0  0  0  3  0  0  0  0  0  0
  -22.2510   -4.8230   22.5920 C   0  0  0  0  0  0  0  0  0  0  0  0
  -22.8480   -4.2260   21.5320 F   0  0  0  0  0  0  0  0  0  0  0  0
  -21.1930   -3.9920   26.0050 F   0  0  0  0  0  0  0  0  0  0  0  0
  -22.8420  -13.5120   21.3680 C   0  0  0  0  0  0  0  0  0  0  0  0
  -22.2600  -12.7350   22.2720 N   0  0  0  0  0  0  0  0  0  0  0  0
  -22.3100  -14.5540   20.9870 O   0  0  0  0  0  0  0  0  0  0  0  0
  -22.7040  -11.8900   22.5990 H   0  0  0  0  0  0  0  0  0  0  0  0
  -21.3550  -12.9900   22.6450 H   0  0  0  0  0  0  0  0  0  0  0  0
  -25.2920  -15.3260   20.3310 N   0  0  0  0  0  0  0  0  0  0  0  0
  -24.5210  -15.9380   20.5740 H   0  0  0  0  0  0  0  0  0  0  0  0
  -26.0600  -15.8170   19.8950 H   0  0  0  0  0  0  0  0  0  0  0  0
  1  3  2  0
  2  1  1  0
  2  4  2  0
  3 52  1  0
  3  5  1  0
  4  7  1  0
  4  5  1  0
  6 10  1  0
  6  7  1  0
  7  9  1  0
  8  6  2  0
 11 13  1  0
 11 10  1  0
 12 23  2  0
 13 18  1  0
 14 22  1  0
 14 24  1  0
 15 21  1  0
 15 17  1  0
 16 22  1  0
 17 16  1  0
 18 17  2  0
 19 20  1  0
 19 13  2  0
 20 15  2  0
 21 14  1  0
 22 12  1  0
 24 26  2  0
 25 24  1  0
 27 25  1  0
 28 37  2  0
 28 33  1  0
 29 25  1  0
 29 33  1  0
 30 29  1  0
 31 32  1  0
 31 30  1  0
 32 28  1  0
 33 34  2  0
 34 35  1  0
 36 35  2  0
 37 36  1  0
 38 12  1  0
 38 39  1  0
 38 48  1  0
 39 42  1  0
 40 44  1  0
 40 39  1  0
 41 40  2  0
 44 43  1  0
 46 44  1  0
 46 47  1  0
 46 45  1  0
 48 51  1  1
 48 49  1  0
 50 48  1  0
 52 60  1  0
 52 55  1  0
 53 54  1  0
 55 56  1  6
 55 57  1  0
 55 53  1  0
 57 58  1  0
 57 54  1  0
 59 57  1  0
 60 69  1  0
 61 69  1  0
 62 67  1  0
 63 64  1  0
 63 62  1  0
 65 64  1  0
 65 74  1  0
 65 66  1  0
 67 61  1  0
 67 66  1  0
 68 61  2  0
 69 70  1  0
 71 72  2  0
 72 91  1  0
 73 76  1  0
 73 72  1  0
 74 75  1  0
 74 71  1  0
 75 73  2  0
 76 77  1  0
 77 78  2  0
 79 82  1  0
 79 78  1  0
 80 79  2  0
 81 80  1  0
 81 76  2  0
 82 83  1  0
 83 88  2  0
 83 84  1  0
 84 85  2  0
 85 86  1  0
 86 90  1  0
 87 86  2  0
 88 87  1  0
 89 88  1  0
 91 92  1  0
 92 94  1  0
 92 95  1  0
 93 91  2  0
 96 71  1  0
 96 97  1  0
 98 96  1  0
M  ISO  4  10 101  11 101  61 100  69 100
M  END
>  <TORSDO>  (33) 
F 21

>  <SCORE>  (33) 
-9.920

>  <name>  (33) 
32

>  <ligand_id>  (33) 
32

>  <original_smiles>  (33) 
[H]c1c(N([H])C(=O)C([H])([H])Oc2c([H])c([H])c3c(c2[H])C([H])([H])N(C(=O)C([H])(N([H])C(=O)C([H])(N([H])C([H])([H])[H])C([H])([H])[H])C(C([H])([H])[H])(C([H])([H])[H])C([H])([H])[H])C([H])(C(=O)N([H])C2([H])c4c([H])c([H])c([H])c([H])c4C([H])([H])C([H])([H])C2([H])[H])C3([H])[H])sc(C([H])(C([H])([H])N([H])C(=O)N2C([H])([H])C([H])([H])C([H])([H])C([H])(n3nc(-c4c([H])c([H])c(Oc5c([H])c([H])c(F)c([H])c5F)c([H])c4[H])c(C(=O)N([H])[H])c3N([H])[H])C2([H])[H])C2(C([H])([H])[H])C([H])([H])C([H])([H])[N+]2([H])[H])c1[H]

>  <smiles>  (33) 
[H]c1c(N([H])C(=O)C([H])([H])Oc2c([H])c([H])c3c(c2[H])C([H])([H])N(C(=O)C([H])(N([H])C(=O)C([H])(N([H])C([H])([H])[H])C([H])([H])[H])C(C([H])([H])[H])(C([H])([H])[H])C([H])([H])[H])C([H])(C(=O)N([H])C2([H])c4c([H])c([H])c([H])c([H])c4C([H])([H])C([H])([H])C2([H])[H])C3([H])[H])sc(C([H])(C([H])([H])N([H])C(=O)N2C([H])([H])C([H])([H])C([H])([H])C([H])(n3nc(-c4c([H])c([H])c(Oc5c([H])c([H])c(F)c([H])c5F)c([H])c4[H])c(C(=O)N([H])[H])c3N([H])[H])C2([H])[H])C2(C([H])([H])[H])C([H])([H])C([H])([H])[N+]2([H])[H])c1[H]

$$$$
33:0:0
     RDKit          3D

 93102  0  0  1  0  0  0  0  0999 V2000
  -29.9960  -21.2170   19.0750 C   0  0  0  0  0  3  0  0  0  0  0  0
  -30.0400  -25.0100   18.6320 C   0  0  0  0  0  2  0  0  0  0  0  0
  -30.2980  -23.5470   18.2170 C   0  0  0  0  0  2  0  0  0  0  0  0
  -28.7530  -23.5570   20.0120 C   0  0  0  0  0  2  0  0  0  0  0  0
  -28.6710  -25.0350   19.2940 C   0  0  0  0  0  3  0  0  0  0  0  0
  -29.6510  -22.6130   19.1850 N   0  0  0  0  0  0  0  0  0  0  0  0
  -30.8630  -20.9410   18.0830 N   0  0  0  0  0  0  0  0  0  0  0  0
  -31.1190  -19.9860   17.8890 H   0  0  0  0  0  0  0  0  0  0  0  0
  -31.2510  -21.6580   17.4910 H   0  0  0  0  0  0  0  0  0  0  0  0
  -30.2990  -18.6240   19.7270 C   0  0  0  0  0  3  0  0  0  0  0  0
  -28.3490  -17.9170   20.7520 C   0  0  0  0  0  3  0  0  0  0  0  0
  -29.5570  -17.4630   20.2660 C   0  0  0  0  0  0  0  0  0  0  0  0
  -29.6280  -19.8910   19.7490 C   0  0  0  0  0  0  0  0  0  0  0  0
  -28.0900  -19.6560   20.5410 S   0  0  0  0  0  0  0  0  0  0  0  0
  -30.6610  -14.9580   19.8950 C   0  0  0  0  0  0  0  0  0  0  0  0
  -30.5620  -12.6220   18.9420 C   0  0  0  0  0  2  0  0  0  0  0  0
  -29.5280  -12.6050   17.7880 C   0  0  0  0  0  2  0  0  0  0  0  0
  -28.1010  -12.3820   18.3260 C   0  0  0  0  0  2  0  0  0  0  0  0
  -27.7810  -13.2890   19.5430 C   0  0  0  0  0  3  0  0  0  0  0  0
  -28.9170  -13.2390   20.5900 C   0  0  0  0  0  2  0  0  0  0  0  0
  -30.1510  -13.6700   19.9110 N   0  0  0  0  0  0  0  0  0  0  0  0
  -31.7880  -15.1610   19.4280 O   0  0  0  0  0  0  0  0  0  0  0  0
  -29.7850  -15.9680   20.3170 N   0  0  0  0  0  0  0  0  0  0  0  0
  -29.0080  -15.5030   20.7590 H   0  0  0  0  0  0  0  0  0  0  0  0
  -25.4690  -13.8510   20.5010 C   0  0  0  0  0  0  0  0  0  0  0  0
  -24.4320  -13.0630   20.9190 C   0  0  0  0  0  0  0  0  0  0  0  0
  -24.8790  -11.7130   20.7760 C   0  0  0  0  0  0  0  0  0  0  0  0
  -26.4810  -12.9800   20.1290 N   0  0  0  0  0  0  0  0  0  0  0  0
  -26.1380  -11.6860   20.3560 N   0  0  0  0  0  0  0  0  0  0  0  0
  -24.1610  -10.4450   20.9590 C   0  0  0  0  0  0  0  0  0  0  0  0
  -24.5890   -9.4820   21.9000 C   0  0  0  0  0  3  0  0  0  0  0  0
  -23.8710   -8.2780   22.0690 C   0  0  0  0  0  3  0  0  0  0  0  0
  -22.7100   -8.0300   21.2990 C   0  0  0  0  0  0  0  0  0  0  0  0
  -22.3010   -8.9820   20.3480 C   0  0  0  0  0  3  0  0  0  0  0  0
  -23.0200  -10.1760   20.1750 C   0  0  0  0  0  3  0  0  0  0  0  0
  -21.9610   -6.8800   21.3800 O   0  0  0  0  0  0  0  0  0  0  0  0
  -21.8050   -6.2060   22.5650 C   0  0  0  0  0  0  0  0  0  0  0  0
  -21.1820   -6.7990   23.6850 C   0  0  0  0  0  3  0  0  0  0  0  0
  -20.9800   -6.0470   24.8590 C   0  0  0  0  0  3  0  0  0  0  0  0
  -21.3900   -4.7000   24.9130 C   0  0  0  0  0  0  0  0  0  0  0  0
  -22.0040   -4.1060   23.7970 C   0  0  0  0  0  3  0  0  0  0  0  0
  -22.2080   -4.8560   22.6250 C   0  0  0  0  0  0  0  0  0  0  0  0
  -22.7820   -4.2720   21.5460 F   0  0  0  0  0  0  0  0  0  0  0  0
  -21.1880   -3.9750   26.0370 F   0  0  0  0  0  0  0  0  0  0  0  0
  -23.0670  -13.5290   21.3340 C   0  0  0  0  0  0  0  0  0  0  0  0
  -22.4090  -12.7890   22.2200 N   0  0  0  0  0  0  0  0  0  0  0  0
  -22.5960  -14.5830   20.9090 O   0  0  0  0  0  0  0  0  0  0  0  0
  -22.8020  -11.9320   22.5800 H   0  0  0  0  0  0  0  0  0  0  0  0
  -21.4970  -13.0820   22.5410 H   0  0  0  0  0  0  0  0  0  0  0  0
  -25.6330  -15.2280   20.3850 N   0  0  0  0  0  0  0  0  0  0  0  0
  -24.8780  -15.8790   20.5730 H   0  0  0  0  0  0  0  0  0  0  0  0
  -26.4420  -15.6750   19.9740 H   0  0  0  0  0  0  0  0  0  0  0  0
  -28.5450  -26.4220   19.9390 O   0  0  0  0  0  0  0  0  0  0  0  0
  -24.6830  -31.7840   23.0480 C   0  0  0  0  0  0  0  0  0  0  0  0
  -27.4190  -27.2990   19.8660 C   0  0  0  0  0  0  0  0  0  0  0  0
  -23.5300  -30.4150   21.3520 C   0  0  0  0  0  3  0  0  0  0  0  0
  -25.0280  -28.9350   19.8860 C   0  0  0  0  0  0  0  0  0  0  0  0
  -26.0720  -30.7680   21.2110 C   0  0  0  0  0  2  0  0  0  0  0  0
  -26.1860  -29.4060   20.5160 C   0  0  0  0  0  0  0  0  0  0  0  0
  -27.3790  -28.6010   20.4950 C   0  0  0  0  0  3  0  0  0  0  0  0
  -26.2240  -26.9070   19.2180 C   0  0  0  0  0  3  0  0  0  0  0  0
  -25.0560  -27.6970   19.2280 C   0  0  0  0  0  3  0  0  0  0  0  0
  -23.7750  -29.7890   19.9540 C   0  0  0  0  0  2  0  0  0  0  0  0
  -24.7800  -31.0080   21.9270 N   0  0  0  0  0  0  0  0  0  0  0  0
  -23.5880  -32.0190   23.5800 O   0  0  0  0  0  0  0  0  0  0  0  0
  -22.8750  -29.3580   22.2740 C   0  0  0  0  0  0  0  0  0  0  0  0
  -21.5450  -29.1910   22.1670 N   0  0  0  0  0  0  0  0  0  0  0  0
  -23.5650  -28.6880   23.0480 O   0  0  0  0  0  0  0  0  0  0  0  0
  -21.0430  -29.7850   21.5220 H   0  0  0  0  0  0  0  0  0  0  0  0
  -18.1650  -28.0320   22.7330 C   0  0  0  0  0  0  0  0  0  0  0  0
  -20.7370  -28.2170   22.9050 C   0  0  0  0  0  3  0  0  0  0  0  0
  -20.7790  -26.8280   22.2250 C   0  0  0  0  0  2  0  0  0  0  0  0
  -19.6290  -26.6050   21.2390 C   0  0  0  0  0  2  0  0  0  0  0  0
  -18.2790  -26.7320   21.9520 C   0  0  0  0  0  2  0  0  0  0  0  0
  -19.3190  -28.7360   23.1650 C   0  0  0  0  0  0  0  0  0  0  0  0
  -19.1540  -29.9580   23.8540 C   0  0  0  0  0  3  0  0  0  0  0  0
  -17.8700  -30.4720   24.1140 C   0  0  0  0  0  3  0  0  0  0  0  0
  -16.7320  -29.7630   23.6960 C   0  0  0  0  0  3  0  0  0  0  0  0
  -16.8800  -28.5450   23.0100 C   0  0  0  0  0  3  0  0  0  0  0  0
  -25.9430  -32.4260   23.7060 C   0  0  0  0  0  3  0  0  0  0  0  0
  -25.5920  -33.7990   24.0980 N   0  0  0  0  0  0  0  0  0  0  0  0
  -25.8970  -34.8960   23.3930 C   0  0  0  0  0  0  0  0  0  0  0  0
  -26.5680  -34.8600   22.3580 O   0  0  0  0  0  0  0  0  0  0  0  0
  -24.9950  -33.9020   24.9040 H   0  0  0  0  0  0  0  0  0  0  0  0
  -24.1250  -36.6590   23.1180 C   0  0  0  0  0  1  0  0  0  0  0  0
  -25.3720  -36.2470   23.9170 C   0  0  0  0  0  3  0  0  0  0  0  0
  -27.4650  -37.1510   24.8270 C   0  0  0  0  0  1  0  0  0  0  0  0
  -26.3780  -37.3300   23.8680 N   0  0  0  0  0  0  0  0  0  0  0  0
  -25.9440  -38.2310   24.0480 H   0  0  0  0  0  0  0  0  0  0  0  0
  -26.4750  -31.6160   24.9520 C   0  0  1  0  0  0  0  0  0  0  0  0
  -25.3810  -31.3030   26.0000 C   0  0  0  0  0  1  0  0  0  0  0  0
  -27.0980  -30.2740   24.5050 C   0  0  0  0  0  1  0  0  0  0  0  0
  -27.5950  -32.4130   25.6590 C   0  0  0  0  0  1  0  0  0  0  0  0
  1  7  1  0
  1  6  1  0
  1 13  1  0
  2  5  1  0
  3  2  1  0
  3  6  1  0
  5 53  1  0
  5  4  1  0
  6  4  1  0
  8  7  1  0
  9  7  1  0
 10 13  2  0
 10 12  1  0
 12 23  1  0
 12 11  2  0
 13 14  1  0
 14 11  1  0
 15 21  1  0
 15 23  1  0
 16 21  1  0
 17 18  1  0
 17 16  1  0
 19 18  1  0
 19 28  1  0
 19 20  1  0
 21 20  1  0
 22 15  2  0
 23 24  1  0
 25 26  2  0
 26 45  1  0
 27 26  1  0
 27 30  1  0
 28 29  1  0
 28 25  1  0
 29 27  2  0
 30 31  1  0
 31 32  2  0
 33 36  1  0
 33 32  1  0
 34 33  2  0
 35 34  1  0
 35 30  2  0
 36 37  1  0
 37 42  2  0
 37 38  1  0
 38 39  2  0
 39 40  1  0
 40 44  1  0
 41 40  2  0
 42 41  1  0
 43 42  1  0
 45 46  1  0
 46 49  1  0
 46 48  1  0
 47 45  2  0
 50 25  1  0
 50 51  1  0
 52 50  1  0
 54 65  2  0
 55 53  1  0
 55 60  1  0
 56 64  1  0
 56 66  1  0
 57 63  1  0
 57 59  1  0
 58 64  1  0
 59 58  1  0
 60 59  2  0
 61 62  1  0
 61 55  2  0
 62 57  2  0
 63 56  1  0
 64 54  1  0
 66 68  2  0
 67 66  1  0
 69 67  1  0
 70 79  2  0
 70 75  1  0
 71 67  1  0
 71 75  1  0
 72 71  1  0
 73 74  1  0
 73 72  1  0
 74 70  1  0
 75 76  2  0
 76 77  1  0
 78 77  2  0
 79 78  1  0
 80 54  1  0
 80 81  1  0
 80 90  1  0
 81 84  1  0
 82 86  1  0
 82 81  1  0
 83 82  2  0
 86 85  1  0
 88 86  1  0
 88 89  1  0
 88 87  1  0
 90 93  1  1
 90 91  1  0
 92 90  1  0
M  ISO  4   5 101  15 100  23 100  53 101
M  END
>  <TORSDO>  (34) 
F 17

>  <SCORE>  (34) 
-14.040

>  <name>  (34) 
33

>  <ligand_id>  (34) 
33

>  <original_smiles>  (34) 
[H]c1sc(C(N2C([H])([H])C([H])([H])C([H])(Oc3c([H])c([H])c4c(c3[H])C([H])([H])N(C(=O)C([H])(N([H])C(=O)C([H])(N([H])C([H])([H])[H])C([H])([H])[H])C(C([H])([H])[H])(C([H])([H])[H])C([H])([H])[H])C([H])(C(=O)N([H])C3([H])c5c([H])c([H])c([H])c([H])c5C([H])([H])C([H])([H])C3([H])[H])C4([H])[H])C2([H])[H])=[N+]([H])[H])c([H])c1N([H])C(=O)N1C([H])([H])C([H])([H])C([H])([H])C([H])(n2nc(-c3c([H])c([H])c(Oc4c([H])c([H])c(F)c([H])c4F)c([H])c3[H])c(C(=O)N([H])[H])c2N([H])[H])C1([H])[H]

>  <smiles>  (34) 
[H]c1sc(C(N2C([H])([H])C([H])([H])C([H])(Oc3c([H])c([H])c4c(c3[H])C([H])([H])N(C(=O)C([H])(N([H])C(=O)C([H])(N([H])C([H])([H])[H])C([H])([H])[H])C(C([H])([H])[H])(C([H])([H])[H])C([H])([H])[H])C([H])(C(=O)N([H])C3([H])c5c([H])c([H])c([H])c([H])c5C([H])([H])C([H])([H])C3([H])[H])C4([H])[H])C2([H])[H])=[N+]([H])[H])c([H])c1N([H])C(=O)N1C([H])([H])C([H])([H])C([H])([H])C([H])(n2nc(-c3c([H])c([H])c(Oc4c([H])c([H])c(F)c([H])c4F)c([H])c3[H])c(C(=O)N([H])[H])c2N([H])[H])C1([H])[H]

$$$$
34:0:0
     RDKit          3D

 95104  0  0  1  0  0  0  0  0999 V2000
  -29.6710  -20.0160   19.5840 C   0  0  0  0  0  3  0  0  0  0  0  0
  -29.7530  -21.1140   21.8020 C   0  0  0  0  0  3  0  0  0  0  0  0
  -30.0670  -18.7780   20.2180 C   0  0  0  0  0  0  0  0  0  0  0  0
  -30.5170  -18.8310   21.5670 C   0  0  0  0  0  0  0  0  0  0  0  0
  -29.4840  -21.2240   20.4010 C   0  0  0  0  0  0  0  0  0  0  0  0
  -30.3270  -19.9500   22.3940 C   0  0  0  0  0  0  0  0  0  0  0  0
  -30.9220  -17.4640   20.0580 C   0  0  0  0  0  3  0  0  0  0  0  0
  -31.0490  -16.7370   22.6130 C   0  0  0  0  0  1  0  0  0  0  0  0
  -31.3130  -17.6620   21.5160 N   0  0  0  0  0  0  0  0  0  0  0  0
  -30.7670  -19.9630   23.6760 F   0  0  0  0  0  0  0  0  0  0  0  0
  -31.1630  -14.8530   19.7900 C   0  0  0  0  0  0  0  0  0  0  0  0
  -30.8980  -12.4980   18.9860 C   0  0  0  0  0  2  0  0  0  0  0  0
  -29.9320  -12.4830   17.7810 C   0  0  0  0  0  2  0  0  0  0  0  0
  -28.4660  -12.3940   18.2540 C   0  0  0  0  0  2  0  0  0  0  0  0
  -28.1450  -13.3890   19.4010 C   0  0  0  0  0  3  0  0  0  0  0  0
  -29.2280  -13.3660   20.4980 C   0  0  0  0  0  2  0  0  0  0  0  0
  -30.5090  -13.6430   19.8380 N   0  0  0  0  0  0  0  0  0  0  0  0
  -32.3560  -14.8870   19.4710 O   0  0  0  0  0  0  0  0  0  0  0  0
  -30.4190  -16.0230   19.9190 N   0  0  0  0  0  0  0  0  0  0  0  0
  -29.4250  -15.8920   20.0040 H   0  0  0  0  0  0  0  0  0  0  0  0
  -25.8410  -14.1290   20.2510 C   0  0  0  0  0  0  0  0  0  0  0  0
  -24.7440  -13.4230   20.6580 C   0  0  0  0  0  0  0  0  0  0  0  0
  -25.1100  -12.0430   20.5840 C   0  0  0  0  0  0  0  0  0  0  0  0
  -26.8080  -13.1840   19.9500 N   0  0  0  0  0  0  0  0  0  0  0  0
  -26.3800  -11.9230   20.2140 N   0  0  0  0  0  0  0  0  0  0  0  0
  -24.3060  -10.8310   20.7850 C   0  0  0  0  0  0  0  0  0  0  0  0
  -24.6970   -9.8300   21.7010 C   0  0  0  0  0  3  0  0  0  0  0  0
  -23.8960   -8.6810   21.8900 C   0  0  0  0  0  3  0  0  0  0  0  0
  -22.6920   -8.5280   21.1630 C   0  0  0  0  0  0  0  0  0  0  0  0
  -22.3210   -9.5170   20.2340 C   0  0  0  0  0  3  0  0  0  0  0  0
  -23.1210  -10.6560   20.0440 C   0  0  0  0  0  3  0  0  0  0  0  0
  -21.8650   -7.4360   21.2620 O   0  0  0  0  0  0  0  0  0  0  0  0
  -21.7710   -6.7080   22.4200 C   0  0  0  0  0  0  0  0  0  0  0  0
  -21.3990   -7.3020   23.6470 C   0  0  0  0  0  3  0  0  0  0  0  0
  -21.2470   -6.5040   24.7980 C   0  0  0  0  0  3  0  0  0  0  0  0
  -21.4570   -5.1130   24.7240 C   0  0  0  0  0  0  0  0  0  0  0  0
  -21.8220   -4.5190   23.5030 C   0  0  0  0  0  3  0  0  0  0  0  0
  -21.9750   -5.3150   22.3540 C   0  0  0  0  0  0  0  0  0  0  0  0
  -22.3060   -4.7350   21.1750 F   0  0  0  0  0  0  0  0  0  0  0  0
  -21.3030   -4.3450   25.8280 F   0  0  0  0  0  0  0  0  0  0  0  0
  -23.3960  -13.9900   20.9980 C   0  0  0  0  0  0  0  0  0  0  0  0
  -22.6640  -13.3390   21.8950 N   0  0  0  0  0  0  0  0  0  0  0  0
  -23.0030  -15.0450   20.5000 O   0  0  0  0  0  0  0  0  0  0  0  0
  -22.9950  -12.4860   22.3200 H   0  0  0  0  0  0  0  0  0  0  0  0
  -21.7600  -13.7020   22.1630 H   0  0  0  0  0  0  0  0  0  0  0  0
  -26.0900  -15.4880   20.0870 N   0  0  0  0  0  0  0  0  0  0  0  0
  -25.3590  -16.1790   20.2200 H   0  0  0  0  0  0  0  0  0  0  0  0
  -26.9210  -15.8720   19.6580 H   0  0  0  0  0  0  0  0  0  0  0  0
  -29.1810  -22.5350   19.8480 N   0  0  0  0  0  0  0  0  0  0  0  0
  -29.3100  -22.5980   18.8410 H   0  0  0  0  0  0  0  0  0  0  0  0
  -28.2820  -23.6570   20.3790 C   0  0  0  0  0  2  0  0  0  0  0  0
  -28.2960  -25.1840   22.4490 C   0  0  0  0  0  1  0  0  0  0  0  0
  -30.3970  -24.9050   21.1480 C   0  0  0  0  0  1  0  0  0  0  0  0
  -28.8690  -25.0480   21.0240 C   0  0  1  0  0  0  0  0  0  0  0  0
  -28.7450  -26.4190   20.3820 O   0  0  0  0  0  0  0  0  0  0  0  0
  -24.7700  -31.8080   23.2770 C   0  0  0  0  0  0  0  0  0  0  0  0
  -27.5880  -27.2340   20.3830 C   0  0  0  0  0  0  0  0  0  0  0  0
  -23.6580  -30.3640   21.6140 C   0  0  0  0  0  3  0  0  0  0  0  0
  -25.1940  -28.8200   20.2590 C   0  0  0  0  0  0  0  0  0  0  0  0
  -26.1960  -30.7320   21.5110 C   0  0  0  0  0  2  0  0  0  0  0  0
  -26.3310  -29.3410   20.8870 C   0  0  0  0  0  0  0  0  0  0  0  0
  -27.5350  -28.5650   20.9260 C   0  0  0  0  0  3  0  0  0  0  0  0
  -26.4250  -26.7670   19.7400 C   0  0  0  0  0  3  0  0  0  0  0  0
  -25.2440  -27.5410   19.6750 C   0  0  0  0  0  3  0  0  0  0  0  0
  -23.9380  -29.6730   20.2500 C   0  0  0  0  0  2  0  0  0  0  0  0
  -24.8930  -30.9890   22.1890 N   0  0  0  0  0  0  0  0  0  0  0  0
  -23.6630  -32.0610   23.7750 O   0  0  0  0  0  0  0  0  0  0  0  0
  -22.9870  -29.3450   22.5660 C   0  0  0  0  0  0  0  0  0  0  0  0
  -21.6740  -29.1210   22.3920 N   0  0  0  0  0  0  0  0  0  0  0  0
  -23.6520  -28.7570   23.4240 O   0  0  0  0  0  0  0  0  0  0  0  0
  -21.1920  -29.6470   21.6740 H   0  0  0  0  0  0  0  0  0  0  0  0
  -18.3310  -27.7900   22.7600 C   0  0  0  0  0  0  0  0  0  0  0  0
  -20.8590  -28.1670   23.1480 C   0  0  0  0  0  3  0  0  0  0  0  0
  -21.0510  -26.7270   22.6130 C   0  0  0  0  0  2  0  0  0  0  0  0
  -20.0140  -26.3350   21.5560 C   0  0  0  0  0  2  0  0  0  0  0  0
  -18.5980  -26.4360   22.1280 C   0  0  0  0  0  2  0  0  0  0  0  0
  -19.3940  -28.6100   23.2260 C   0  0  0  0  0  0  0  0  0  0  0  0
  -19.0910  -29.8750   23.7750 C   0  0  0  0  0  3  0  0  0  0  0  0
  -17.7590  -30.3210   23.8670 C   0  0  0  0  0  3  0  0  0  0  0  0
  -16.7110  -29.5000   23.4180 C   0  0  0  0  0  3  0  0  0  0  0  0
  -16.9970  -28.2370   22.8690 C   0  0  0  0  0  3  0  0  0  0  0  0
  -26.0140  -32.4830   23.9320 C   0  0  0  0  0  3  0  0  0  0  0  0
  -26.5020  -31.7440   25.2390 C   0  0  1  0  0  0  0  0  0  0  0  0
  -25.3790  -31.5010   26.2730 C   0  0  0  0  0  1  0  0  0  0  0  0
  -27.1310  -30.3740   24.8920 C   0  0  0  0  0  1  0  0  0  0  0  0
  -27.6100  -32.5750   25.9280 C   0  0  0  0  0  1  0  0  0  0  0  0
  -25.6560  -33.8760   24.2360 N   0  0  0  0  0  0  0  0  0  0  0  0
  -25.9800  -34.9300   23.4750 C   0  0  0  0  0  0  0  0  0  0  0  0
  -26.6760  -34.8330   22.4620 O   0  0  0  0  0  0  0  0  0  0  0  0
  -25.0370  -34.0220   25.0190 H   0  0  0  0  0  0  0  0  0  0  0  0
  -24.2030  -36.6660   23.0710 C   0  0  0  0  0  1  0  0  0  0  0  0
  -25.4440  -36.3110   23.9050 C   0  0  0  0  0  3  0  0  0  0  0  0
  -27.5420  -37.2700   24.7500 C   0  0  0  0  0  1  0  0  0  0  0  0
  -26.4460  -37.3930   23.7910 N   0  0  0  0  0  0  0  0  0  0  0  0
  -26.0110  -38.3030   23.9200 H   0  0  0  0  0  0  0  0  0  0  0  0
  1  3  2  0
  1  5  1  0
  2  6  1  0
  3  4  1  0
  4  6  2  0
  5  2  2  0
  6 10  1  0
  7 19  1  0
  7  3  1  0
  7  9  1  0
  9  4  1  0
  9  8  1  0
 11 17  1  0
 11 19  1  0
 12 17  1  0
 13 14  1  0
 13 12  1  0
 15 14  1  0
 15 24  1  0
 15 16  1  0
 17 16  1  0
 18 11  2  0
 19 20  1  0
 21 22  2  0
 22 41  1  0
 23 22  1  0
 23 26  1  0
 24 25  1  0
 24 21  1  0
 25 23  2  0
 26 27  1  0
 27 28  2  0
 29 32  1  0
 29 28  1  0
 30 29  2  0
 31 30  1  0
 31 26  2  0
 32 33  1  0
 33 34  1  0
 34 35  2  0
 36 35  1  0
 36 40  1  0
 37 36  2  0
 38 33  2  0
 38 37  1  0
 39 38  1  0
 41 42  1  0
 42 45  1  0
 42 44  1  0
 43 41  2  0
 46 47  1  0
 46 21  1  0
 48 46  1  0
 49 51  1  0
 49  5  1  0
 50 49  1  0
 51 54  1  0
 54 53  1  1
 54 52  1  0
 55 57  1  0
 55 54  1  0
 56 67  2  0
 57 62  1  0
 58 66  1  0
 58 68  1  0
 59 61  1  0
 60 66  1  0
 61 62  2  0
 61 60  1  0
 63 57  2  0
 64 63  1  0
 64 59  2  0
 65 59  1  0
 65 58  1  0
 66 56  1  0
 68 70  2  0
 69 68  1  0
 71 69  1  0
 72 81  2  0
 72 77  1  0
 73 69  1  0
 73 77  1  0
 74 73  1  0
 75 76  1  0
 75 74  1  0
 76 72  1  0
 77 78  2  0
 78 79  1  0
 80 79  2  0
 81 80  1  0
 82 56  1  0
 82 87  1  0
 82 83  1  0
 83 86  1  1
 83 84  1  0
 85 83  1  0
 87 90  1  0
 88 92  1  0
 88 87  1  0
 89 88  2  0
 92 91  1  0
 94 92  1  0
 94 95  1  0
 94 93  1  0
M  ISO  4  11 100  19 100  54 101  55 101
M  END
>  <TORSDO>  (35) 
F 19

>  <SCORE>  (35) 
-13.478

>  <name>  (35) 
34

>  <ligand_id>  (35) 
34

>  <original_smiles>  (35) 
[H]c1c([H])c([H])c2c(c1[H])C([H])([H])C([H])([H])C([H])([H])C2([H])N([H])C(=O)C1([H])N(C(=O)C([H])(N([H])C(=O)C([H])(N([H])C([H])([H])[H])C([H])([H])[H])C(C([H])([H])[H])(C([H])([H])[H])C([H])([H])[H])C([H])([H])c2c([H])c(OC(C([H])([H])[H])(C([H])([H])[H])C([H])([H])N([H])c3c([H])c(F)c4c(c3[H])C([H])(N([H])C(=O)N3C([H])([H])C([H])([H])C([H])([H])C([H])(n5nc(-c6c([H])c([H])c(Oc7c([H])c([H])c(F)c([H])c7F)c([H])c6[H])c(C(=O)N([H])[H])c5N([H])[H])C3([H])[H])N4C([H])([H])[H])c([H])c([H])c2C1([H])[H]

>  <smiles>  (35) 
[H]c1c([H])c([H])c2c(c1[H])C([H])([H])C([H])([H])C([H])([H])C2([H])N([H])C(=O)C1([H])N(C(=O)C([H])(N([H])C(=O)C([H])(N([H])C([H])([H])[H])C([H])([H])[H])C(C([H])([H])[H])(C([H])([H])[H])C([H])([H])[H])C([H])([H])c2c([H])c(OC(C([H])([H])[H])(C([H])([H])[H])C([H])([H])N([H])c3c([H])c(F)c4c(c3[H])C([H])(N([H])C(=O)N3C([H])([H])C([H])([H])C([H])([H])C([H])(n5nc(-c6c([H])c([H])c(Oc7c([H])c([H])c(F)c([H])c7F)c([H])c6[H])c(C(=O)N([H])[H])c5N([H])[H])C3([H])[H])N4C([H])([H])[H])c([H])c([H])c2C1([H])[H]

$$$$
35:0:0
     RDKit          3D

 93101  0  0  1  0  0  0  0  0999 V2000
  -30.3080  -20.1390   19.6910 C   0  0  0  0  0  3  0  0  0  0  0  0
  -29.2590  -21.1670   19.6290 C   0  0  0  0  0  0  0  0  0  0  0  0
  -29.9020  -18.7940   19.7890 C   0  0  0  0  0  0  0  0  0  0  0  0
  -28.0350  -20.5400   19.6840 C   0  0  0  0  0  0  0  0  0  0  0  0
  -28.1540  -18.7780   19.8020 S   0  0  0  0  0  0  0  0  0  0  0  0
  -26.7940  -21.1480   19.6100 N   0  0  0  0  0  0  0  0  0  0  0  0
  -26.8680  -22.0790   19.2160 H   0  0  0  0  0  0  0  0  0  0  0  0
  -26.0680  -20.6140   19.1430 H   0  0  0  0  0  0  0  0  0  0  0  0
  -29.5050  -22.6100   19.4700 N   0  0  0  0  0  0  0  0  0  0  0  0
  -30.4520  -22.8180   19.1740 H   0  0  0  0  0  0  0  0  0  0  0  0
  -28.7870  -23.8490   19.9940 C   0  0  0  0  0  2  0  0  0  0  0  0
  -30.4850  -25.4070   18.8300 C   0  0  0  0  0  1  0  0  0  0  0  0
  -29.0060  -25.2700   19.2260 C   0  0  0  0  0  3  0  0  0  0  0  0
  -28.7500  -26.5900   19.9000 O   0  0  0  0  0  0  0  0  0  0  0  0
  -24.6000  -31.6310   23.0150 C   0  0  0  0  0  0  0  0  0  0  0  0
  -27.5710  -27.3650   19.8140 C   0  0  0  0  0  0  0  0  0  0  0  0
  -23.5310  -30.2540   21.2650 C   0  0  0  0  0  3  0  0  0  0  0  0
  -25.1150  -28.8620   19.8090 C   0  0  0  0  0  0  0  0  0  0  0  0
  -26.0550  -30.7190   21.1860 C   0  0  0  0  0  2  0  0  0  0  0  0
  -26.2330  -29.3800   20.4700 C   0  0  0  0  0  0  0  0  0  0  0  0
  -27.4590  -28.6430   20.4620 C   0  0  0  0  0  3  0  0  0  0  0  0
  -26.4210  -26.9040   19.1380 C   0  0  0  0  0  3  0  0  0  0  0  0
  -25.2120  -27.6320   19.1350 C   0  0  0  0  0  3  0  0  0  0  0  0
  -23.8280  -29.6630   19.8600 C   0  0  0  0  0  2  0  0  0  0  0  0
  -24.7450  -30.8860   21.8790 N   0  0  0  0  0  0  0  0  0  0  0  0
  -23.4850  -31.8190   23.5260 O   0  0  0  0  0  0  0  0  0  0  0  0
  -22.9000  -29.1550   22.1530 C   0  0  0  0  0  0  0  0  0  0  0  0
  -21.5780  -28.9500   22.0150 N   0  0  0  0  0  0  0  0  0  0  0  0
  -23.5980  -28.4930   22.9240 O   0  0  0  0  0  0  0  0  0  0  0  0
  -21.0730  -29.5390   21.3690 H   0  0  0  0  0  0  0  0  0  0  0  0
  -18.2260  -27.6770   22.5000 C   0  0  0  0  0  0  0  0  0  0  0  0
  -20.7890  -27.9350   22.7170 C   0  0  0  0  0  3  0  0  0  0  0  0
  -20.8830  -26.5670   22.0040 C   0  0  0  0  0  2  0  0  0  0  0  0
  -19.7530  -26.3320   20.9970 C   0  0  0  0  0  2  0  0  0  0  0  0
  -18.3910  -26.4010   21.6920 C   0  0  0  0  0  2  0  0  0  0  0  0
  -19.3520  -28.4060   22.9680 C   0  0  0  0  0  0  0  0  0  0  0  0
  -19.1420  -29.6030   23.6860 C   0  0  0  0  0  3  0  0  0  0  0  0
  -17.8400  -30.0730   23.9380 C   0  0  0  0  0  3  0  0  0  0  0  0
  -16.7290  -29.3410   23.4850 C   0  0  0  0  0  3  0  0  0  0  0  0
  -16.9220  -28.1440   22.7720 C   0  0  0  0  0  3  0  0  0  0  0  0
  -25.8210  -32.3060   23.7130 C   0  0  0  0  0  3  0  0  0  0  0  0
  -25.4330  -33.6810   24.0610 N   0  0  0  0  0  0  0  0  0  0  0  0
  -25.7520  -34.7670   23.3440 C   0  0  0  0  0  0  0  0  0  0  0  0
  -26.4700  -34.7200   22.3420 O   0  0  0  0  0  0  0  0  0  0  0  0
  -24.7970  -33.7880   24.8380 H   0  0  0  0  0  0  0  0  0  0  0  0
  -23.9500  -36.4830   22.9720 C   0  0  0  0  0  1  0  0  0  0  0  0
  -25.1840  -36.1210   23.8130 C   0  0  0  0  0  3  0  0  0  0  0  0
  -27.2390  -37.0980   24.7360 C   0  0  0  0  0  1  0  0  0  0  0  0
  -26.1670  -37.2250   23.7530 N   0  0  0  0  0  0  0  0  0  0  0  0
  -25.7100  -38.1210   23.8950 H   0  0  0  0  0  0  0  0  0  0  0  0
  -26.3100  -31.5280   24.9970 C   0  0  1  0  0  0  0  0  0  0  0  0
  -25.1780  -31.2250   26.0080 C   0  0  0  0  0  1  0  0  0  0  0  0
  -26.9680  -30.1840   24.6090 C   0  0  0  0  0  1  0  0  0  0  0  0
  -27.3940  -32.3540   25.7290 C   0  0  0  0  0  1  0  0  0  0  0  0
  -30.7940  -17.4980   19.9250 C   0  0  0  0  0  2  0  0  0  0  0  0
  -30.9580  -14.9150   19.9840 C   0  0  0  0  0  0  0  0  0  0  0  0
  -30.6700  -12.6260   19.0370 C   0  0  0  0  0  2  0  0  0  0  0  0
  -29.7110  -12.7000   17.8300 C   0  0  0  0  0  2  0  0  0  0  0  0
  -28.2480  -12.5660   18.2960 C   0  0  0  0  0  2  0  0  0  0  0  0
  -27.9190  -13.4810   19.5060 C   0  0  0  0  0  3  0  0  0  0  0  0
  -29.0030  -13.4090   20.6040 C   0  0  0  0  0  2  0  0  0  0  0  0
  -30.2890  -13.7130   19.9680 N   0  0  0  0  0  0  0  0  0  0  0  0
  -32.1400  -14.9600   19.6340 O   0  0  0  0  0  0  0  0  0  0  0  0
  -30.2500  -16.0920   20.1660 N   0  0  0  0  0  0  0  0  0  0  0  0
  -29.2740  -16.0110   20.4100 H   0  0  0  0  0  0  0  0  0  0  0  0
  -25.5660  -14.1230   20.2950 C   0  0  0  0  0  0  0  0  0  0  0  0
  -24.4950  -13.3720   20.6960 C   0  0  0  0  0  0  0  0  0  0  0  0
  -24.9280  -12.0110   20.6590 C   0  0  0  0  0  0  0  0  0  0  0  0
  -26.5830  -13.2200   20.0350 N   0  0  0  0  0  0  0  0  0  0  0  0
  -26.2090  -11.9460   20.3170 N   0  0  0  0  0  0  0  0  0  0  0  0
  -24.1780  -10.7660   20.8730 C   0  0  0  0  0  0  0  0  0  0  0  0
  -24.5880   -9.8140   21.8310 C   0  0  0  0  0  3  0  0  0  0  0  0
  -23.8400   -8.6330   22.0320 C   0  0  0  0  0  3  0  0  0  0  0  0
  -22.6700   -8.3960   21.2730 C   0  0  0  0  0  0  0  0  0  0  0  0
  -22.2790   -9.3370   20.3030 C   0  0  0  0  0  3  0  0  0  0  0  0
  -23.0260  -10.5090   20.1020 C   0  0  0  0  0  3  0  0  0  0  0  0
  -21.8940   -7.2670   21.3820 O   0  0  0  0  0  0  0  0  0  0  0  0
  -21.8140   -6.5580   22.5540 C   0  0  0  0  0  0  0  0  0  0  0  0
  -21.3480   -7.1480   23.7500 C   0  0  0  0  0  3  0  0  0  0  0  0
  -21.2150   -6.3660   24.9140 C   0  0  0  0  0  3  0  0  0  0  0  0
  -21.5380   -4.9970   24.8850 C   0  0  0  0  0  0  0  0  0  0  0  0
  -21.9970   -4.4060   23.6940 C   0  0  0  0  0  3  0  0  0  0  0  0
  -22.1310   -5.1860   22.5310 C   0  0  0  0  0  0  0  0  0  0  0  0
  -22.5530   -4.6070   21.3800 F   0  0  0  0  0  0  0  0  0  0  0  0
  -21.4040   -4.2430   26.0010 F   0  0  0  0  0  0  0  0  0  0  0  0
  -23.1150  -13.8800   21.0010 C   0  0  0  0  0  0  0  0  0  0  0  0
  -22.3980  -13.2080   21.8950 N   0  0  0  0  0  0  0  0  0  0  0  0
  -22.6830  -14.9070   20.4770 O   0  0  0  0  0  0  0  0  0  0  0  0
  -22.7620  -12.3780   22.3390 H   0  0  0  0  0  0  0  0  0  0  0  0
  -21.4740  -13.5310   22.1410 H   0  0  0  0  0  0  0  0  0  0  0  0
  -25.7510  -15.4890   20.1080 N   0  0  0  0  0  0  0  0  0  0  0  0
  -24.9920  -16.1510   20.2240 H   0  0  0  0  0  0  0  0  0  0  0  0
  -26.5890  -15.9120   19.7320 H   0  0  0  0  0  0  0  0  0  0  0  0
  1  3  2  0
  2  4  2  0
  2  1  1  0
  3  5  1  0
  3 55  1  0
  4  5  1  0
  6  4  1  0
  7  6  1  0
  8  6  1  0
  9  2  1  0
  9 11  1  0
 10  9  1  0
 13 12  1  0
 13 14  1  0
 13 11  1  0
 15 26  2  0
 16 14  1  0
 16 21  1  0
 17 25  1  0
 17 27  1  0
 18 24  1  0
 18 20  1  0
 19 25  1  0
 20 19  1  0
 21 20  2  0
 22 16  2  0
 23 22  1  0
 23 18  2  0
 24 17  1  0
 25 15  1  0
 27 29  2  0
 28 27  1  0
 30 28  1  0
 31 40  2  0
 31 36  1  0
 32 28  1  0
 32 36  1  0
 33 32  1  0
 34 35  1  0
 34 33  1  0
 35 31  1  0
 36 37  2  0
 37 38  1  0
 39 38  2  0
 40 39  1  0
 41 15  1  0
 41 42  1  0
 41 51  1  0
 42 45  1  0
 43 47  1  0
 43 42  1  0
 44 43  2  0
 47 46  1  0
 49 47  1  0
 49 50  1  0
 49 48  1  0
 51 54  1  1
 51 52  1  0
 53 51  1  0
 55 64  1  0
 56 64  1  0
 57 62  1  0
 58 59  1  0
 58 57  1  0
 60 59  1  0
 60 69  1  0
 60 61  1  0
 62 56  1  0
 62 61  1  0
 63 56  2  0
 64 65  1  0
 66 67  2  0
 67 86  1  0
 68 67  1  0
 68 71  1  0
 69 66  1  0
 69 70  1  0
 70 68  2  0
 71 72  1  0
 72 73  2  0
 74 77  1  0
 74 73  1  0
 75 74  2  0
 76 75  1  0
 76 71  2  0
 77 78  1  0
 78 79  1  0
 79 80  2  0
 81 80  1  0
 81 85  1  0
 82 81  2  0
 83 78  2  0
 83 82  1  0
 84 83  1  0
 86 87  1  0
 87 90  1  0
 87 89  1  0
 88 86  2  0
 91 92  1  0
 91 66  1  0
 93 91  1  0
M  ISO  4  13 101  14 101  56 100  64 100
M  END
>  <TORSDO>  (36) 
F 21

>  <SCORE>  (36) 
-12.810

>  <name>  (36) 
35

>  <ligand_id>  (36) 
35

>  <original_smiles>  (36) 
[H]c1c([H])c([H])c2c(c1[H])C([H])([H])C([H])([H])C([H])([H])C2([H])N([H])C(=O)C1([H])N(C(=O)C([H])(N([H])C(=O)C([H])(N([H])C([H])([H])[H])C([H])([H])[H])C(C([H])([H])[H])(C([H])([H])[H])C([H])([H])[H])C([H])([H])c2c([H])c(OC([H])(C([H])([H])[H])C([H])([H])N([H])c3c(N([H])[H])sc(C([H])([H])N([H])C(=O)N4C([H])([H])C([H])([H])C([H])([H])C([H])(n5nc(-c6c([H])c([H])c(Oc7c([H])c([H])c(F)c([H])c7F)c([H])c6[H])c(C(=O)N([H])[H])c5N([H])[H])C4([H])[H])c3[H])c([H])c([H])c2C1([H])[H]

>  <smiles>  (36) 
[H]c1c([H])c([H])c2c(c1[H])C([H])([H])C([H])([H])C([H])([H])C2([H])N([H])C(=O)C1([H])N(C(=O)C([H])(N([H])C(=O)C([H])(N([H])C([H])([H])[H])C([H])([H])[H])C(C([H])([H])[H])(C([H])([H])[H])C([H])([H])[H])C([H])([H])c2c([H])c(OC([H])(C([H])([H])[H])C([H])([H])N([H])c3c(N([H])[H])sc(C([H])([H])N([H])C(=O)N4C([H])([H])C([H])([H])C([H])([H])C([H])(n5nc(-c6c([H])c([H])c(Oc7c([H])c([H])c(F)c([H])c7F)c([H])c6[H])c(C(=O)N([H])[H])c5N([H])[H])C4([H])[H])c3[H])c([H])c([H])c2C1([H])[H]

$$$$
36:0:0
     RDKit          3D

 94103  0  0  1  0  0  0  0  0999 V2000
  -29.9140  -19.7900   18.4560 C   0  0  0  0  0  3  0  0  0  0  0  0
  -29.3560  -18.6180   20.5070 C   0  0  0  0  0  3  0  0  0  0  0  0
  -30.4130  -17.3950   18.6840 C   0  0  0  0  0  3  0  0  0  0  0  0
  -29.3700  -19.8870   19.7590 C   0  0  0  0  0  0  0  0  0  0  0  0
  -30.4290  -18.5860   17.9310 C   0  0  0  0  0  0  0  0  0  0  0  0
  -29.8750  -17.3360   19.9900 C   0  0  0  0  0  0  0  0  0  0  0  0
  -30.5610  -14.8170   20.3950 C   0  0  0  0  0  0  0  0  0  0  0  0
  -30.3980  -12.5080   19.4500 C   0  0  0  0  0  2  0  0  0  0  0  0
  -29.4790  -12.5540   18.2060 C   0  0  0  0  0  2  0  0  0  0  0  0
  -28.0040  -12.3770   18.6140 C   0  0  0  0  0  2  0  0  0  0  0  0
  -27.6110  -13.2680   19.8220 C   0  0  0  0  0  3  0  0  0  0  0  0
  -28.6560  -13.2090   20.9590 C   0  0  0  0  0  2  0  0  0  0  0  0
  -29.9520  -13.5760   20.3800 N   0  0  0  0  0  0  0  0  0  0  0  0
  -31.7450  -14.8980   20.0550 O   0  0  0  0  0  0  0  0  0  0  0  0
  -29.8040  -15.9760   20.6370 N   0  0  0  0  0  0  0  0  0  0  0  0
  -28.9690  -15.8150   21.1780 H   0  0  0  0  0  0  0  0  0  0  0  0
  -25.2170  -13.8530   20.5230 C   0  0  0  0  0  0  0  0  0  0  0  0
  -24.1490  -13.0790   20.8860 C   0  0  0  0  0  0  0  0  0  0  0  0
  -24.6150  -11.7270   20.8660 C   0  0  0  0  0  0  0  0  0  0  0  0
  -26.2640  -12.9750   20.3000 N   0  0  0  0  0  0  0  0  0  0  0  0
  -25.9090  -11.6920   20.5680 N   0  0  0  0  0  0  0  0  0  0  0  0
  -23.8890  -10.4650   21.0540 C   0  0  0  0  0  0  0  0  0  0  0  0
  -24.3220   -9.4960   21.9860 C   0  0  0  0  0  3  0  0  0  0  0  0
  -23.5940   -8.2980   22.1640 C   0  0  0  0  0  3  0  0  0  0  0  0
  -22.4210   -8.0610   21.4080 C   0  0  0  0  0  0  0  0  0  0  0  0
  -22.0080   -9.0190   20.4650 C   0  0  0  0  0  3  0  0  0  0  0  0
  -22.7360  -10.2070   20.2860 C   0  0  0  0  0  3  0  0  0  0  0  0
  -21.6650   -6.9160   21.4950 O   0  0  0  0  0  0  0  0  0  0  0  0
  -21.6250   -6.1680   22.6440 C   0  0  0  0  0  0  0  0  0  0  0  0
  -21.2140   -6.7160   23.8770 C   0  0  0  0  0  3  0  0  0  0  0  0
  -21.1180   -5.8940   25.0170 C   0  0  0  0  0  3  0  0  0  0  0  0
  -21.4230   -4.5230   24.9250 C   0  0  0  0  0  0  0  0  0  0  0  0
  -21.8260   -3.9720   23.6950 C   0  0  0  0  0  3  0  0  0  0  0  0
  -21.9240   -4.7920   22.5580 C   0  0  0  0  0  0  0  0  0  0  0  0
  -22.2930   -4.2530   21.3720 F   0  0  0  0  0  0  0  0  0  0  0  0
  -21.3250   -3.7310   26.0180 F   0  0  0  0  0  0  0  0  0  0  0  0
  -22.7490  -13.5550   21.1400 C   0  0  0  0  0  0  0  0  0  0  0  0
  -22.0130  -12.8620   22.0010 N   0  0  0  0  0  0  0  0  0  0  0  0
  -22.3170  -14.5790   20.6100 O   0  0  0  0  0  0  0  0  0  0  0  0
  -22.3750  -12.0350   22.4510 H   0  0  0  0  0  0  0  0  0  0  0  0
  -21.0710  -13.1630   22.2140 H   0  0  0  0  0  0  0  0  0  0  0  0
  -25.3840  -15.2210   20.3390 N   0  0  0  0  0  0  0  0  0  0  0  0
  -24.6220  -15.8840   20.4370 H   0  0  0  0  0  0  0  0  0  0  0  0
  -26.2360  -15.6500   20.0010 H   0  0  0  0  0  0  0  0  0  0  0  0
  -28.5310  -23.7460   20.1120 C   0  0  0  0  0  0  0  0  0  0  0  0
  -28.2940  -25.0380   19.6240 C   0  0  0  0  0  2  0  0  0  0  0  0
  -28.6980  -23.2780   21.5480 C   0  0  0  0  0  3  0  0  0  0  0  0
  -28.6880  -22.4210   19.2900 C   0  0  0  0  0  3  0  0  0  0  0  0
  -29.0410  -21.7380   21.5380 C   0  0  0  0  0  3  0  0  0  0  0  0
  -28.8830  -21.2150   20.1770 N   0  0  0  0  0  0  0  0  0  0  0  0
  -28.2670  -26.3190   20.2690 O   0  0  0  0  0  0  0  0  0  0  0  0
  -24.6180  -31.8630   23.2360 C   0  0  0  0  0  0  0  0  0  0  0  0
  -27.1890  -27.2390   20.1600 C   0  0  0  0  0  0  0  0  0  0  0  0
  -23.4030  -30.4680   21.6040 C   0  0  0  0  0  3  0  0  0  0  0  0
  -24.8410  -28.9090   20.1590 C   0  0  0  0  0  0  0  0  0  0  0  0
  -25.9470  -30.7620   21.4110 C   0  0  0  0  0  2  0  0  0  0  0  0
  -26.0180  -29.3800   20.7550 C   0  0  0  0  0  0  0  0  0  0  0  0
  -27.1930  -28.5560   20.7440 C   0  0  0  0  0  3  0  0  0  0  0  0
  -25.9870  -26.8390   19.5370 C   0  0  0  0  0  3  0  0  0  0  0  0
  -24.8330  -27.6500   19.5380 C   0  0  0  0  0  3  0  0  0  0  0  0
  -23.6070  -29.7930   20.2210 C   0  0  0  0  0  2  0  0  0  0  0  0
  -24.6750  -31.0510   22.1380 N   0  0  0  0  0  0  0  0  0  0  0  0
  -23.5370  -32.1450   23.7750 O   0  0  0  0  0  0  0  0  0  0  0  0
  -22.7390  -29.4560   22.5680 C   0  0  0  0  0  0  0  0  0  0  0  0
  -21.4120  -29.2810   22.4480 N   0  0  0  0  0  0  0  0  0  0  0  0
  -23.4190  -28.8310   23.3880 O   0  0  0  0  0  0  0  0  0  0  0  0
  -20.9210  -29.8360   21.7600 H   0  0  0  0  0  0  0  0  0  0  0  0
  -18.0370  -28.0730   22.9600 C   0  0  0  0  0  0  0  0  0  0  0  0
  -20.5950  -28.3450   23.2240 C   0  0  0  0  0  3  0  0  0  0  0  0
  -20.7010  -26.9110   22.6560 C   0  0  0  0  0  2  0  0  0  0  0  0
  -19.5980  -26.5790   21.6440 C   0  0  0  0  0  2  0  0  0  0  0  0
  -18.2170  -26.7210   22.2890 C   0  0  0  0  0  2  0  0  0  0  0  0
  -19.1530  -28.8410   23.3840 C   0  0  0  0  0  0  0  0  0  0  0  0
  -18.9290  -30.1040   23.9740 C   0  0  0  0  0  3  0  0  0  0  0  0
  -17.6220  -30.6000   24.1410 C   0  0  0  0  0  3  0  0  0  0  0  0
  -16.5210  -29.8290   23.7310 C   0  0  0  0  0  3  0  0  0  0  0  0
  -16.7300  -28.5660   23.1470 C   0  0  0  0  0  3  0  0  0  0  0  0
  -25.9020  -32.4960   23.8530 C   0  0  0  0  0  3  0  0  0  0  0  0
  -25.5950  -33.8950   24.1890 N   0  0  0  0  0  0  0  0  0  0  0  0
  -25.9180  -34.9500   23.4290 C   0  0  0  0  0  0  0  0  0  0  0  0
  -26.5740  -34.8490   22.3900 O   0  0  0  0  0  0  0  0  0  0  0  0
  -25.0120  -34.0480   24.9990 H   0  0  0  0  0  0  0  0  0  0  0  0
  -24.1840  -36.7420   23.1030 C   0  0  0  0  0  1  0  0  0  0  0  0
  -25.4370  -36.3390   23.8950 C   0  0  0  0  0  3  0  0  0  0  0  0
  -27.5860  -37.2230   24.6920 C   0  0  0  0  0  1  0  0  0  0  0  0
  -26.4680  -37.3920   23.7650 N   0  0  0  0  0  0  0  0  0  0  0  0
  -26.0640  -38.3130   23.9170 H   0  0  0  0  0  0  0  0  0  0  0  0
  -26.4210  -31.7240   25.1290 C   0  0  1  0  0  0  0  0  0  0  0  0
  -25.3330  -31.4920   26.2030 C   0  0  0  0  0  1  0  0  0  0  0  0
  -26.9960  -30.3430   24.7390 C   0  0  0  0  0  1  0  0  0  0  0  0
  -27.5820  -32.5130   25.7800 C   0  0  0  0  0  1  0  0  0  0  0  0
  -30.9530  -18.5700   16.6360 N   0  0  0  0  0  0  0  0  0  0  0  0
  -30.7270  -19.3290   15.9990 H   0  0  0  0  0  0  0  0  0  0  0  0
  -31.0710  -17.6810   16.1590 H   0  0  0  0  0  0  0  0  0  0  0  0
  1  4  1  0
  3  6  2  0
  4 50  1  0
  4  2  2  0
  5  1  2  0
  5  3  1  0
  6  2  1  0
  6 15  1  0
  7 15  1  0
  8 13  1  0
  9 10  1  0
  9  8  1  0
 11 10  1  0
 11 20  1  0
 11 12  1  0
 13  7  1  0
 13 12  1  0
 14  7  2  0
 15 16  1  0
 17 18  2  0
 18 37  1  0
 19 18  1  0
 19 22  1  0
 20 17  1  0
 20 21  1  0
 21 19  2  0
 22 23  1  0
 23 24  2  0
 25 28  1  0
 25 24  1  0
 26 25  2  0
 27 26  1  0
 27 22  2  0
 28 29  1  0
 29 30  1  0
 30 31  2  0
 32 31  1  0
 32 36  1  0
 33 32  2  0
 34 29  2  0
 34 33  1  0
 35 34  1  0
 37 38  1  0
 38 41  1  0
 38 40  1  0
 39 37  2  0
 42 43  1  0
 42 17  1  0
 44 42  1  0
 45 47  1  0
 46 45  1  0
 46 51  1  0
 48 45  2  0
 48 50  1  0
 49 47  2  0
 50 49  1  0
 52 63  2  0
 53 51  1  0
 53 58  1  0
 54 62  1  0
 54 64  1  0
 55 61  1  0
 55 57  1  0
 56 62  1  0
 57 56  1  0
 58 57  2  0
 59 60  1  0
 59 53  2  0
 60 55  2  0
 61 54  1  0
 62 52  1  0
 64 66  2  0
 65 64  1  0
 67 65  1  0
 68 77  2  0
 68 73  1  0
 69 65  1  0
 69 73  1  0
 70 69  1  0
 71 72  1  0
 71 70  1  0
 72 68  1  0
 73 74  2  0
 74 75  1  0
 76 75  2  0
 77 76  1  0
 78 52  1  0
 78 79  1  0
 78 88  1  0
 79 82  1  0
 80 84  1  0
 80 79  1  0
 81 80  2  0
 84 83  1  0
 86 84  1  0
 86 87  1  0
 86 85  1  0
 88 91  1  1
 88 89  1  0
 90 88  1  0
 92  5  1  0
 93 92  1  0
 94 92  1  0
M  ISO  4   7 100  15 100  46 101  51 101
M  END
>  <TORSDO>  (37) 
F 18

>  <SCORE>  (37) 
-15.033

>  <name>  (37) 
36

>  <ligand_id>  (37) 
36

>  <original_smiles>  (37) 
[H]C(Oc1c([H])c([H])c2c(c1[H])C([H])([H])N(C(=O)C([H])(N([H])C(=O)C([H])(N([H])C([H])([H])[H])C([H])([H])[H])C(C([H])([H])[H])(C([H])([H])[H])C([H])([H])[H])C([H])(C(=O)N([H])C1([H])c3c([H])c([H])c([H])c([H])c3C([H])([H])C([H])([H])C1([H])[H])C2([H])[H])=C1C([H])([H])N(c2c([H])c(N([H])[H])c([H])c(N([H])C(=O)N3C([H])([H])C([H])([H])C([H])([H])C([H])(n4nc(-c5c([H])c([H])c(Oc6c([H])c([H])c(F)c([H])c6F)c([H])c5[H])c(C(=O)N([H])[H])c4N([H])[H])C3([H])[H])c2[H])C([H])([H])C1([H])[H]

>  <smiles>  (37) 
[H]C(Oc1c([H])c([H])c2c(c1[H])C([H])([H])N(C(=O)C([H])(N([H])C(=O)C([H])(N([H])C([H])([H])[H])C([H])([H])[H])C(C([H])([H])[H])(C([H])([H])[H])C([H])([H])[H])C([H])(C(=O)N([H])C1([H])c3c([H])c([H])c([H])c([H])c3C([H])([H])C([H])([H])C1([H])[H])C2([H])[H])=C1C([H])([H])N(c2c([H])c(N([H])[H])c([H])c(N([H])C(=O)N3C([H])([H])C([H])([H])C([H])([H])C([H])(n4nc(-c5c([H])c([H])c(Oc6c([H])c([H])c(F)c([H])c6F)c([H])c5[H])c(C(=O)N([H])[H])c4N([H])[H])C3([H])[H])c2[H])C([H])([H])C1([H])[H]

$$$$
37:0:0
     RDKit          3D

 93102  0  0  1  0  0  0  0  0999 V2000
  -29.3290  -21.1700   21.0340 C   0  0  0  0  0  3  0  0  0  0  0  0
  -28.3900  -24.7540   21.9080 C   0  0  0  0  0  2  0  0  0  0  0  0
  -29.1360  -23.4090   22.1220 C   0  0  0  0  0  2  0  0  0  0  0  0
  -28.8940  -23.6430   19.7910 C   0  0  0  0  0  2  0  0  0  0  0  0
  -28.1500  -24.9720   20.4080 C   0  0  0  0  0  3  0  0  0  0  0  0
  -29.0800  -22.5800   20.8880 N   0  0  0  0  0  0  0  0  0  0  0  0
  -29.4010  -20.7030   22.2970 N   0  0  0  0  0  0  0  0  0  0  0  0
  -29.4970  -19.7000   22.3890 H   0  0  0  0  0  0  0  0  0  0  0  0
  -29.3330  -21.2590   23.1340 H   0  0  0  0  0  0  0  0  0  0  0  0
  -30.0740  -19.6730   18.8690 C   0  0  0  0  0  3  0  0  0  0  0  0
  -30.2820  -18.2420   18.7270 C   0  0  0  0  0  3  0  0  0  0  0  0
  -29.5940  -19.9610   20.1320 C   0  0  0  0  0  0  0  0  0  0  0  0
  -29.9470  -17.6310   19.9200 C   0  0  0  0  0  0  0  0  0  0  0  0
  -29.4750  -18.6730   20.7510 O   0  0  0  0  0  0  0  0  0  0  0  0
  -30.6670  -15.1160   19.9460 C   0  0  0  0  0  0  0  0  0  0  0  0
  -30.5170  -12.7860   19.0250 C   0  0  0  0  0  2  0  0  0  0  0  0
  -29.5410  -12.8140   17.8280 C   0  0  0  0  0  2  0  0  0  0  0  0
  -28.0840  -12.6140   18.3020 C   0  0  0  0  0  2  0  0  0  0  0  0
  -27.7340  -13.5040   19.5290 C   0  0  0  0  0  3  0  0  0  0  0  0
  -28.8390  -13.4570   20.6120 C   0  0  0  0  0  2  0  0  0  0  0  0
  -30.1000  -13.8540   19.9670 N   0  0  0  0  0  0  0  0  0  0  0  0
  -31.8400  -15.2300   19.5780 O   0  0  0  0  0  0  0  0  0  0  0  0
  -29.8540  -16.2380   20.1990 N   0  0  0  0  0  0  0  0  0  0  0  0
  -28.9550  -15.9660   20.5670 H   0  0  0  0  0  0  0  0  0  0  0  0
  -25.3720  -14.0590   20.3630 C   0  0  0  0  0  0  0  0  0  0  0  0
  -24.3260  -13.2770   20.7650 C   0  0  0  0  0  0  0  0  0  0  0  0
  -24.7960  -11.9320   20.7040 C   0  0  0  0  0  0  0  0  0  0  0  0
  -26.4140  -13.1920   20.0730 N   0  0  0  0  0  0  0  0  0  0  0  0
  -26.0760  -11.9050   20.3420 N   0  0  0  0  0  0  0  0  0  0  0  0
  -24.0790  -10.6650   20.9090 C   0  0  0  0  0  0  0  0  0  0  0  0
  -24.5180   -9.7170   21.8590 C   0  0  0  0  0  3  0  0  0  0  0  0
  -23.8050   -8.5150   22.0560 C   0  0  0  0  0  3  0  0  0  0  0  0
  -22.6390   -8.2510   21.3020 C   0  0  0  0  0  0  0  0  0  0  0  0
  -22.2170   -9.1870   20.3410 C   0  0  0  0  0  3  0  0  0  0  0  0
  -22.9310  -10.3810   20.1440 C   0  0  0  0  0  3  0  0  0  0  0  0
  -21.8960   -7.1000   21.4080 O   0  0  0  0  0  0  0  0  0  0  0  0
  -21.8190   -6.3960   22.5820 C   0  0  0  0  0  0  0  0  0  0  0  0
  -21.3010   -6.9660   23.7650 C   0  0  0  0  0  3  0  0  0  0  0  0
  -21.1780   -6.1830   24.9290 C   0  0  0  0  0  3  0  0  0  0  0  0
  -21.5650   -4.8300   24.9120 C   0  0  0  0  0  0  0  0  0  0  0  0
  -22.0710   -4.2550   23.7320 C   0  0  0  0  0  3  0  0  0  0  0  0
  -22.1970   -5.0380   22.5710 C   0  0  0  0  0  0  0  0  0  0  0  0
  -22.6670   -4.4710   21.4320 F   0  0  0  0  0  0  0  0  0  0  0  0
  -21.4420   -4.0760   26.0280 F   0  0  0  0  0  0  0  0  0  0  0  0
  -22.9350  -13.7460   21.0890 C   0  0  0  0  0  0  0  0  0  0  0  0
  -22.2340  -13.0390   21.9690 N   0  0  0  0  0  0  0  0  0  0  0  0
  -22.4810  -14.7780   20.6000 O   0  0  0  0  0  0  0  0  0  0  0  0
  -22.6140  -12.2050   22.3920 H   0  0  0  0  0  0  0  0  0  0  0  0
  -21.3030  -13.3390   22.2210 H   0  0  0  0  0  0  0  0  0  0  0  0
  -25.5190  -15.4350   20.1980 N   0  0  0  0  0  0  0  0  0  0  0  0
  -24.7670  -16.0820   20.4030 H   0  0  0  0  0  0  0  0  0  0  0  0
  -26.3570  -15.9040   19.8780 H   0  0  0  0  0  0  0  0  0  0  0  0
  -28.3730  -26.4630   20.0610 O   0  0  0  0  0  0  0  0  0  0  0  0
  -24.6290  -31.9470   23.2180 C   0  0  0  0  0  0  0  0  0  0  0  0
  -27.2810  -27.3910   20.0670 C   0  0  0  0  0  0  0  0  0  0  0  0
  -23.4440  -30.5680   21.5560 C   0  0  0  0  0  3  0  0  0  0  0  0
  -24.9110  -29.0490   20.0970 C   0  0  0  0  0  0  0  0  0  0  0  0
  -25.9870  -30.9010   21.3720 C   0  0  0  0  0  2  0  0  0  0  0  0
  -26.0870  -29.5230   20.6960 C   0  0  0  0  0  0  0  0  0  0  0  0
  -27.2740  -28.7080   20.6610 C   0  0  0  0  0  3  0  0  0  0  0  0
  -26.0880  -27.0200   19.4090 C   0  0  0  0  0  3  0  0  0  0  0  0
  -24.9210  -27.8140   19.4370 C   0  0  0  0  0  3  0  0  0  0  0  0
  -23.6680  -29.9200   20.1640 C   0  0  0  0  0  2  0  0  0  0  0  0
  -24.7080  -31.1570   22.1060 N   0  0  0  0  0  0  0  0  0  0  0  0
  -23.5440  -32.2000   23.7620 O   0  0  0  0  0  0  0  0  0  0  0  0
  -22.7930  -29.5260   22.5060 C   0  0  0  0  0  0  0  0  0  0  0  0
  -21.4730  -29.2990   22.3520 N   0  0  0  0  0  0  0  0  0  0  0  0
  -23.4760  -28.9210   23.3330 O   0  0  0  0  0  0  0  0  0  0  0  0
  -20.9790  -29.8400   21.6600 H   0  0  0  0  0  0  0  0  0  0  0  0
  -18.1470  -27.9240   22.7620 C   0  0  0  0  0  0  0  0  0  0  0  0
  -20.6780  -28.3260   23.1070 C   0  0  0  0  0  3  0  0  0  0  0  0
  -20.8740  -26.8980   22.5500 C   0  0  0  0  0  2  0  0  0  0  0  0
  -19.8240  -26.5070   21.5030 C   0  0  0  0  0  2  0  0  0  0  0  0
  -18.4170  -26.5810   22.1030 C   0  0  0  0  0  2  0  0  0  0  0  0
  -19.2100  -28.7490   23.2200 C   0  0  0  0  0  0  0  0  0  0  0  0
  -18.9030  -30.0010   23.7960 C   0  0  0  0  0  3  0  0  0  0  0  0
  -17.5700  -30.4310   23.9180 C   0  0  0  0  0  3  0  0  0  0  0  0
  -16.5230  -29.6070   23.4780 C   0  0  0  0  0  3  0  0  0  0  0  0
  -16.8120  -28.3550   22.9050 C   0  0  0  0  0  3  0  0  0  0  0  0
  -25.9030  -32.5940   23.8440 C   0  0  0  0  0  3  0  0  0  0  0  0
  -25.5850  -33.9930   24.1640 N   0  0  0  0  0  0  0  0  0  0  0  0
  -25.9190  -35.0470   23.4060 C   0  0  0  0  0  0  0  0  0  0  0  0
  -26.6010  -34.9400   22.3820 O   0  0  0  0  0  0  0  0  0  0  0  0
  -24.9850  -34.1490   24.9630 H   0  0  0  0  0  0  0  0  0  0  0  0
  -24.2020  -36.8460   23.0170 C   0  0  0  0  0  1  0  0  0  0  0  0
  -25.4250  -36.4380   23.8550 C   0  0  0  0  0  3  0  0  0  0  0  0
  -27.5380  -37.3250   24.7380 C   0  0  0  0  0  1  0  0  0  0  0  0
  -26.4630  -37.4890   23.7630 N   0  0  0  0  0  0  0  0  0  0  0  0
  -26.0530  -38.4120   23.8940 H   0  0  0  0  0  0  0  0  0  0  0  0
  -26.4060  -31.8360   25.1330 C   0  0  1  0  0  0  0  0  0  0  0  0
  -25.3010  -31.6000   26.1910 C   0  0  0  0  0  1  0  0  0  0  0  0
  -27.0030  -30.4600   24.7630 C   0  0  0  0  0  1  0  0  0  0  0  0
  -27.5450  -32.6390   25.8030 C   0  0  0  0  0  1  0  0  0  0  0  0
  1  7  1  0
  2  3  1  0
  4  5  1  0
  4  6  1  0
  5 53  1  0
  5  2  1  0
  6  1  1  0
  6  3  1  0
  7  8  1  0
  7  9  1  0
 10 12  2  0
 11 10  1  0
 11 13  2  0
 12 14  1  0
 12  1  1  0
 13 23  1  0
 13 14  1  0
 15 21  1  0
 15 23  1  0
 16 21  1  0
 17 18  1  0
 17 16  1  0
 19 18  1  0
 19 28  1  0
 19 20  1  0
 21 20  1  0
 22 15  2  0
 23 24  1  0
 25 26  2  0
 26 45  1  0
 27 26  1  0
 27 30  1  0
 28 29  1  0
 28 25  1  0
 29 27  2  0
 30 31  1  0
 31 32  2  0
 33 36  1  0
 33 32  1  0
 34 33  2  0
 35 34  1  0
 35 30  2  0
 36 37  1  0
 37 38  1  0
 38 39  2  0
 40 39  1  0
 40 44  1  0
 41 40  2  0
 42 37  2  0
 42 41  1  0
 43 42  1  0
 45 46  1  0
 46 49  1  0
 46 48  1  0
 47 45  2  0
 50 25  1  0
 50 51  1  0
 52 50  1  0
 53 55  1  0
 54 65  2  0
 55 60  1  0
 56 64  1  0
 56 66  1  0
 57 63  1  0
 57 59  1  0
 58 64  1  0
 59 58  1  0
 60 59  2  0
 61 62  1  0
 61 55  2  0
 62 57  2  0
 63 56  1  0
 64 54  1  0
 66 68  2  0
 67 66  1  0
 69 67  1  0
 70 79  2  0
 70 75  1  0
 71 67  1  0
 71 75  1  0
 72 71  1  0
 73 74  1  0
 73 72  1  0
 74 70  1  0
 75 76  2  0
 76 77  1  0
 78 77  2  0
 79 78  1  0
 80 54  1  0
 80 81  1  0
 80 90  1  0
 81 84  1  0
 82 86  1  0
 82 81  1  0
 83 82  2  0
 86 85  1  0
 88 86  1  0
 88 89  1  0
 88 87  1  0
 90 93  1  1
 90 91  1  0
 92 90  1  0
M  ISO  4   5 101  15 100  23 100  53 101
M  END
>  <TORSDO>  (38) 
F 17

>  <SCORE>  (38) 
-15.008

>  <name>  (38) 
37

>  <ligand_id>  (38) 
37

>  <original_smiles>  (38) 
[H]c1c(C(N2C([H])([H])C([H])([H])C([H])(Oc3c([H])c([H])c4c(c3[H])C([H])([H])N(C(=O)C([H])(N([H])C(=O)C([H])(N([H])C([H])([H])[H])C([H])([H])[H])C(C([H])([H])[H])(C([H])([H])[H])C([H])([H])[H])C([H])(C(=O)N([H])C3([H])c5c([H])c([H])c([H])c([H])c5C([H])([H])C([H])([H])C3([H])[H])C4([H])[H])C2([H])[H])=[N+]([H])[H])oc(N([H])C(=O)N2C([H])([H])C([H])([H])C([H])([H])C([H])(n3nc(-c4c([H])c([H])c(Oc5c([H])c([H])c(F)c([H])c5F)c([H])c4[H])c(C(=O)N([H])[H])c3N([H])[H])C2([H])[H])c1[H]

>  <smiles>  (38) 
[H]c1c(C(N2C([H])([H])C([H])([H])C([H])(Oc3c([H])c([H])c4c(c3[H])C([H])([H])N(C(=O)C([H])(N([H])C(=O)C([H])(N([H])C([H])([H])[H])C([H])([H])[H])C(C([H])([H])[H])(C([H])([H])[H])C([H])([H])[H])C([H])(C(=O)N([H])C3([H])c5c([H])c([H])c([H])c([H])c5C([H])([H])C([H])([H])C3([H])[H])C4([H])[H])C2([H])[H])=[N+]([H])[H])oc(N([H])C(=O)N2C([H])([H])C([H])([H])C([H])([H])C([H])(n3nc(-c4c([H])c([H])c(Oc5c([H])c([H])c(F)c([H])c5F)c([H])c4[H])c(C(=O)N([H])[H])c3N([H])[H])C2([H])[H])c1[H]

$$$$
38:0:0
     RDKit          3D

 92101  0  0  1  0  0  0  0  0999 V2000
  -30.4840  -18.8600   19.9300 C   0  0  0  0  0  3  0  0  0  0  0  0
  -30.0160  -20.3010   19.9640 C   0  0  0  0  0  0  0  0  0  0  0  0
  -28.6930  -20.4520   20.2440 C   0  0  0  0  0  3  0  0  0  0  0  0
  -29.5610  -17.8050   20.1750 C   0  0  0  0  0  0  0  0  0  0  0  0
  -28.5920  -23.0330   20.1250 C   0  0  0  0  0  3  0  0  0  0  0  0
  -30.7890  -21.6310   19.7340 C   0  0  0  0  0  3  0  0  0  0  0  0
  -28.0120  -21.7570   20.3270 N   0  0  0  0  0  0  0  0  0  0  0  0
  -29.9220  -22.9040   19.8350 N   0  0  0  0  0  0  0  0  0  0  0  0
  -28.0350  -18.7700   20.4610 S   0  0  0  0  0  0  0  0  0  0  0  0
  -27.0240  -21.6830   20.5300 H   0  0  0  0  0  0  0  0  0  0  0  0
  -30.4160  -23.7640   19.6450 H   0  0  0  0  0  0  0  0  0  0  0  0
  -30.4010  -15.1750   19.9240 C   0  0  0  0  0  0  0  0  0  0  0  0
  -30.2910  -12.8070   18.9460 C   0  0  0  0  0  2  0  0  0  0  0  0
  -29.2780  -12.7400   17.7780 C   0  0  0  0  0  2  0  0  0  0  0  0
  -27.8520  -12.4810   18.3030 C   0  0  0  0  0  2  0  0  0  0  0  0
  -27.5080  -13.3770   19.5190 C   0  0  0  0  0  3  0  0  0  0  0  0
  -28.6380  -13.3990   20.5720 C   0  0  0  0  0  2  0  0  0  0  0  0
  -29.8500  -13.8800   19.8920 N   0  0  0  0  0  0  0  0  0  0  0  0
  -31.5780  -15.2660   19.5500 O   0  0  0  0  0  0  0  0  0  0  0  0
  -29.5750  -16.3300   20.2130 N   0  0  0  0  0  0  0  0  0  0  0  0
  -28.6810  -15.9800   20.5230 H   0  0  0  0  0  0  0  0  0  0  0  0
  -25.1850  -13.9140   20.4410 C   0  0  0  0  0  0  0  0  0  0  0  0
  -24.1510  -13.1210   20.8590 C   0  0  0  0  0  0  0  0  0  0  0  0
  -24.6160  -11.7750   20.7520 C   0  0  0  0  0  0  0  0  0  0  0  0
  -26.2100  -13.0490   20.0990 N   0  0  0  0  0  0  0  0  0  0  0  0
  -25.8830  -11.7550   20.3530 N   0  0  0  0  0  0  0  0  0  0  0  0
  -23.9060  -10.5040   20.9500 C   0  0  0  0  0  0  0  0  0  0  0  0
  -24.3650   -9.5360   21.8690 C   0  0  0  0  0  3  0  0  0  0  0  0
  -23.6520   -8.3320   22.0560 C   0  0  0  0  0  3  0  0  0  0  0  0
  -22.4670   -8.0870   21.3240 C   0  0  0  0  0  0  0  0  0  0  0  0
  -22.0260   -9.0430   20.3930 C   0  0  0  0  0  3  0  0  0  0  0  0
  -22.7390  -10.2390   20.2040 C   0  0  0  0  0  3  0  0  0  0  0  0
  -21.7240   -6.9350   21.4210 O   0  0  0  0  0  0  0  0  0  0  0  0
  -21.6550   -6.2190   22.5900 C   0  0  0  0  0  0  0  0  0  0  0  0
  -21.1330   -6.7800   23.7760 C   0  0  0  0  0  3  0  0  0  0  0  0
  -21.0140   -5.9890   24.9350 C   0  0  0  0  0  3  0  0  0  0  0  0
  -21.4080   -4.6370   24.9110 C   0  0  0  0  0  0  0  0  0  0  0  0
  -21.9230   -4.0760   23.7290 C   0  0  0  0  0  3  0  0  0  0  0  0
  -22.0420   -4.8650   22.5710 C   0  0  0  0  0  0  0  0  0  0  0  0
  -22.5190   -4.3130   21.4290 F   0  0  0  0  0  0  0  0  0  0  0  0
  -21.2880   -3.8750   26.0220 F   0  0  0  0  0  0  0  0  0  0  0  0
  -22.7740  -13.5840   21.2360 C   0  0  0  0  0  0  0  0  0  0  0  0
  -22.1090  -12.8620   22.1300 N   0  0  0  0  0  0  0  0  0  0  0  0
  -22.3000  -14.6220   20.7750 O   0  0  0  0  0  0  0  0  0  0  0  0
  -22.5080  -12.0230   22.5240 H   0  0  0  0  0  0  0  0  0  0  0  0
  -21.1880  -13.1520   22.4250 H   0  0  0  0  0  0  0  0  0  0  0  0
  -25.3310  -15.2900   20.2950 N   0  0  0  0  0  0  0  0  0  0  0  0
  -24.5610  -15.9290   20.4630 H   0  0  0  0  0  0  0  0  0  0  0  0
  -26.1250  -15.7380   19.8590 H   0  0  0  0  0  0  0  0  0  0  0  0
  -26.9930  -24.4470   21.5560 C   0  0  0  0  0  1  0  0  0  0  0  0
  -27.7160  -24.4930   20.1980 C   0  0  0  0  0  3  0  0  0  0  0  0
  -28.1280  -26.0370   20.0400 O   0  0  0  0  0  0  0  0  0  0  0  0
  -24.5730  -31.8310   23.1670 C   0  0  0  0  0  0  0  0  0  0  0  0
  -27.1200  -27.1100   20.0110 C   0  0  0  0  0  0  0  0  0  0  0  0
  -23.3710  -30.4840   21.4950 C   0  0  0  0  0  3  0  0  0  0  0  0
  -24.8140  -28.9350   20.0270 C   0  0  0  0  0  0  0  0  0  0  0  0
  -25.9330  -30.7180   21.3450 C   0  0  0  0  0  2  0  0  0  0  0  0
  -26.0010  -29.3350   20.6540 C   0  0  0  0  0  0  0  0  0  0  0  0
  -27.1540  -28.4420   20.6280 C   0  0  0  0  0  3  0  0  0  0  0  0
  -25.9080  -26.8520   19.3310 C   0  0  0  0  0  3  0  0  0  0  0  0
  -24.7860  -27.7100   19.3480 C   0  0  0  0  0  3  0  0  0  0  0  0
  -23.5930  -29.8430   20.1000 C   0  0  0  0  0  2  0  0  0  0  0  0
  -24.6460  -31.0340   22.0570 N   0  0  0  0  0  0  0  0  0  0  0  0
  -23.4860  -32.1080   23.7000 O   0  0  0  0  0  0  0  0  0  0  0  0
  -22.6830  -29.4570   22.4320 C   0  0  0  0  0  0  0  0  0  0  0  0
  -21.3510  -29.3010   22.3090 N   0  0  0  0  0  0  0  0  0  0  0  0
  -23.3510  -28.8040   23.2370 O   0  0  0  0  0  0  0  0  0  0  0  0
  -20.8670  -29.8800   21.6370 H   0  0  0  0  0  0  0  0  0  0  0  0
  -17.9570  -28.1420   22.8400 C   0  0  0  0  0  0  0  0  0  0  0  0
  -20.5270  -28.3470   23.0580 C   0  0  0  0  0  3  0  0  0  0  0  0
  -20.5870  -26.9390   22.4210 C   0  0  0  0  0  2  0  0  0  0  0  0
  -19.4570  -26.6810   21.4200 C   0  0  0  0  0  2  0  0  0  0  0  0
  -18.0930  -26.8220   22.1010 C   0  0  0  0  0  2  0  0  0  0  0  0
  -19.1000  -28.8660   23.2750 C   0  0  0  0  0  0  0  0  0  0  0  0
  -18.9160  -30.1020   23.9320 C   0  0  0  0  0  3  0  0  0  0  0  0
  -17.6230  -30.6150   24.1530 C   0  0  0  0  0  3  0  0  0  0  0  0
  -16.4960  -29.8890   23.7310 C   0  0  0  0  0  3  0  0  0  0  0  0
  -16.6640  -28.6530   23.0800 C   0  0  0  0  0  3  0  0  0  0  0  0
  -25.8490  -32.4510   23.8120 C   0  0  0  0  0  3  0  0  0  0  0  0
  -25.5520  -33.8550   24.1430 N   0  0  0  0  0  0  0  0  0  0  0  0
  -25.8830  -34.9070   23.3810 C   0  0  0  0  0  0  0  0  0  0  0  0
  -26.5350  -34.7970   22.3410 O   0  0  0  0  0  0  0  0  0  0  0  0
  -24.9700  -34.0140   24.9530 H   0  0  0  0  0  0  0  0  0  0  0  0
  -24.1610  -36.7180   23.0690 C   0  0  0  0  0  1  0  0  0  0  0  0
  -25.4200  -36.3020   23.8490 C   0  0  0  0  0  3  0  0  0  0  0  0
  -27.5750  -37.1840   24.6330 C   0  0  0  0  0  1  0  0  0  0  0  0
  -26.4580  -37.3470   23.7060 N   0  0  0  0  0  0  0  0  0  0  0  0
  -26.0610  -38.2720   23.8460 H   0  0  0  0  0  0  0  0  0  0  0  0
  -26.3290  -31.6760   25.1020 C   0  0  1  0  0  0  0  0  0  0  0  0
  -25.2120  -31.4570   26.1490 C   0  0  0  0  0  1  0  0  0  0  0  0
  -26.9020  -30.2890   24.7320 C   0  0  0  0  0  1  0  0  0  0  0  0
  -27.4760  -32.4580   25.7850 C   0  0  0  0  0  1  0  0  0  0  0  0
  1  2  1  0
  1  4  2  0
  3  2  1  0
  3  7  1  0
  3  9  1  0
  4 20  1  0
  4  9  1  0
  5 51  1  0
  5  7  1  0
  6  8  1  0
  6  2  2  0
  7 10  1  0
  8  5  1  0
 11  8  1  0
 12 20  1  0
 13 18  1  0
 14 15  1  0
 14 13  1  0
 16 15  1  0
 16 25  1  0
 16 17  1  0
 18 12  1  0
 18 17  1  0
 19 12  2  0
 20 21  1  0
 22 23  2  0
 23 42  1  0
 24 23  1  0
 24 27  1  0
 25 26  1  0
 25 22  1  0
 26 24  2  0
 27 28  1  0
 28 29  2  0
 30 33  1  0
 30 29  1  0
 31 30  2  0
 32 31  1  0
 32 27  2  0
 33 34  1  0
 34 35  1  0
 35 36  2  0
 37 36  1  0
 37 41  1  0
 38 37  2  0
 39 34  2  0
 39 38  1  0
 40 39  1  0
 42 43  1  0
 43 46  1  0
 43 45  1  0
 44 42  2  0
 47 22  1  0
 47 48  1  0
 49 47  1  0
 51 50  1  0
 52 51  1  0
 53 64  2  0
 54 52  1  0
 54 59  1  0
 55 63  1  0
 55 65  1  0
 56 62  1  0
 56 58  1  0
 57 63  1  0
 58 57  1  0
 59 58  2  0
 60 61  1  0
 60 54  2  0
 61 56  2  0
 62 55  1  0
 63 53  1  0
 65 67  2  0
 66 65  1  0
 68 66  1  0
 69 78  2  0
 69 74  1  0
 70 66  1  0
 70 74  1  0
 71 70  1  0
 72 73  1  0
 72 71  1  0
 73 69  1  0
 74 75  2  0
 75 76  1  0
 77 76  2  0
 78 77  1  0
 79 53  1  0
 79 80  1  0
 79 89  1  0
 80 83  1  0
 81 85  1  0
 81 80  1  0
 82 81  2  0
 85 84  1  0
 87 88  1  0
 87 85  1  0
 87 86  1  0
 89 92  1  1
 89 90  1  0
 91 89  1  0
M  ISO  4  12 100  20 100  51 101  52 101
M  END
>  <TORSDO>  (39) 
F 17

>  <SCORE>  (39) 
-15.396

>  <name>  (39) 
38

>  <ligand_id>  (39) 
38

>  <original_smiles>  (39) 
[H]c1c([H])c([H])c2c(c1[H])C([H])([H])C([H])([H])C([H])([H])C2([H])N([H])C(=O)C1([H])N(C(=O)C([H])(N([H])C(=O)C([H])(N([H])C([H])([H])[H])C([H])([H])[H])C(C([H])([H])[H])(C([H])([H])[H])C([H])([H])[H])C([H])([H])c2c([H])c(OC([H])(C3=[N+]([H])C([H])([H])c4c(sc(N([H])C(=O)N5C([H])([H])C([H])([H])C([H])([H])C([H])(n6nc(-c7c([H])c([H])c(Oc8c([H])c([H])c(F)c([H])c8F)c([H])c7[H])c(C(=O)N([H])[H])c6N([H])[H])C5([H])[H])c4[H])N3[H])C([H])([H])[H])c([H])c([H])c2C1([H])[H]

>  <smiles>  (39) 
[H]c1c([H])c([H])c2c(c1[H])C([H])([H])C([H])([H])C([H])([H])C2([H])N([H])C(=O)C1([H])N(C(=O)C([H])(N([H])C(=O)C([H])(N([H])C([H])([H])[H])C([H])([H])[H])C(C([H])([H])[H])(C([H])([H])[H])C([H])([H])[H])C([H])([H])c2c([H])c(OC([H])(C3=[N+]([H])C([H])([H])c4c(sc(N([H])C(=O)N5C([H])([H])C([H])([H])C([H])([H])C([H])(n6nc(-c7c([H])c([H])c(Oc8c([H])c([H])c(F)c([H])c8F)c([H])c7[H])c(C(=O)N([H])[H])c6N([H])[H])C5([H])[H])c4[H])N3[H])C([H])([H])[H])c([H])c([H])c2C1([H])[H]

$$$$
39:0:0
     RDKit          3D

 90 98  0  0  1  0  0  0  0  0999 V2000
  -29.1120  -22.2720   20.3310 C   0  0  0  0  0  0  0  0  0  0  0  0
  -27.7850  -22.0730   21.0540 C   0  0  0  0  0  1  0  0  0  0  0  0
  -29.9050  -21.2580   20.0080 N   0  0  0  0  0  0  0  0  0  0  0  0
  -29.3660  -19.3120   21.5700 C   0  0  0  0  0  3  0  0  0  0  0  0
  -29.4350  -17.8720   21.6510 C   0  0  0  0  0  3  0  0  0  0  0  0
  -29.8090  -19.8810   20.3950 C   0  0  0  0  0  0  0  0  0  0  0  0
  -29.9890  -17.2050   20.5770 C   0  0  0  0  0  0  0  0  0  0  0  0
  -30.4370  -18.4970   19.4100 S   0  0  0  0  0  0  0  0  0  0  0  0
  -30.8020  -14.8100   19.9350 C   0  0  0  0  0  0  0  0  0  0  0  0
  -30.5840  -12.5680   18.8300 C   0  0  0  0  0  2  0  0  0  0  0  0
  -29.5670  -12.6880   17.6710 C   0  0  0  0  0  2  0  0  0  0  0  0
  -28.1190  -12.5140   18.1740 C   0  0  0  0  0  2  0  0  0  0  0  0
  -27.8290  -13.3500   19.4480 C   0  0  0  0  0  3  0  0  0  0  0  0
  -28.9480  -13.1690   20.4980 C   0  0  0  0  0  2  0  0  0  0  0  0
  -30.2180  -13.5630   19.8640 N   0  0  0  0  0  0  0  0  0  0  0  0
  -31.9190  -15.0100   19.4450 O   0  0  0  0  0  0  0  0  0  0  0  0
  -30.0200  -15.8030   20.4920 N   0  0  0  0  0  0  0  0  0  0  0  0
  -29.2310  -15.3790   20.9560 H   0  0  0  0  0  0  0  0  0  0  0  0
  -25.4830  -13.9440   20.3080 C   0  0  0  0  0  0  0  0  0  0  0  0
  -24.4330  -13.1690   20.7210 C   0  0  0  0  0  0  0  0  0  0  0  0
  -24.8870  -11.8170   20.6420 C   0  0  0  0  0  0  0  0  0  0  0  0
  -26.5080  -13.0630   20.0010 N   0  0  0  0  0  0  0  0  0  0  0  0
  -26.1580  -11.7770   20.2620 N   0  0  0  0  0  0  0  0  0  0  0  0
  -24.1640  -10.5540   20.8500 C   0  0  0  0  0  0  0  0  0  0  0  0
  -24.5680   -9.6260   21.8360 C   0  0  0  0  0  3  0  0  0  0  0  0
  -23.8470   -8.4280   22.0300 C   0  0  0  0  0  3  0  0  0  0  0  0
  -22.7070   -8.1510   21.2380 C   0  0  0  0  0  0  0  0  0  0  0  0
  -22.3220   -9.0680   20.2440 C   0  0  0  0  0  3  0  0  0  0  0  0
  -23.0440  -10.2560   20.0490 C   0  0  0  0  0  3  0  0  0  0  0  0
  -21.9600   -7.0010   21.3380 O   0  0  0  0  0  0  0  0  0  0  0  0
  -21.7780   -6.3640   22.5390 C   0  0  0  0  0  0  0  0  0  0  0  0
  -21.1860   -7.0130   23.6450 C   0  0  0  0  0  3  0  0  0  0  0  0
  -20.9540   -6.2990   24.8380 C   0  0  0  0  0  3  0  0  0  0  0  0
  -21.3040   -4.9380   24.9240 C   0  0  0  0  0  0  0  0  0  0  0  0
  -21.8870   -4.2890   23.8230 C   0  0  0  0  0  3  0  0  0  0  0  0
  -22.1200   -5.0000   22.6320 C   0  0  0  0  0  0  0  0  0  0  0  0
  -22.6640   -4.3640   21.5660 F   0  0  0  0  0  0  0  0  0  0  0  0
  -21.0730   -4.2510   26.0680 F   0  0  0  0  0  0  0  0  0  0  0  0
  -23.0560  -13.6470   21.0780 C   0  0  0  0  0  0  0  0  0  0  0  0
  -22.3800  -12.9480   21.9840 N   0  0  0  0  0  0  0  0  0  0  0  0
  -22.5880  -14.6760   20.5890 O   0  0  0  0  0  0  0  0  0  0  0  0
  -22.7730  -12.1170   22.4010 H   0  0  0  0  0  0  0  0  0  0  0  0
  -21.4580  -13.2510   22.2670 H   0  0  0  0  0  0  0  0  0  0  0  0
  -25.6430  -15.3170   20.1430 N   0  0  0  0  0  0  0  0  0  0  0  0
  -24.8810  -15.9700   20.2890 H   0  0  0  0  0  0  0  0  0  0  0  0
  -26.4670  -15.7550   19.7490 H   0  0  0  0  0  0  0  0  0  0  0  0
  -30.6780  -24.2490   20.8530 C   0  0  0  0  0  1  0  0  0  0  0  0
  -29.4390  -23.8350   20.0410 C   0  0  0  0  0  3  0  0  0  0  0  0
  -28.2720  -24.9610   20.2100 C   0  0  0  0  0  2  0  0  0  0  0  0
  -28.4960  -26.4460   20.0630 O   0  0  0  0  0  0  0  0  0  0  0  0
  -24.7040  -31.8290   23.1750 C   0  0  0  0  0  0  0  0  0  0  0  0
  -27.3710  -27.3100   20.0480 C   0  0  0  0  0  0  0  0  0  0  0  0
  -23.5150  -30.4370   21.5200 C   0  0  0  0  0  3  0  0  0  0  0  0
  -24.9840  -28.9220   20.0700 C   0  0  0  0  0  0  0  0  0  0  0  0
  -26.0550  -30.7810   21.3360 C   0  0  0  0  0  2  0  0  0  0  0  0
  -26.1520  -29.4100   20.6690 C   0  0  0  0  0  0  0  0  0  0  0  0
  -27.3480  -28.6180   20.6420 C   0  0  0  0  0  3  0  0  0  0  0  0
  -26.1720  -26.8950   19.4200 C   0  0  0  0  0  3  0  0  0  0  0  0
  -24.9990  -27.6740   19.4340 C   0  0  0  0  0  3  0  0  0  0  0  0
  -23.7370  -29.7840   20.1330 C   0  0  0  0  0  2  0  0  0  0  0  0
  -24.7770  -31.0340   22.0670 N   0  0  0  0  0  0  0  0  0  0  0  0
  -23.6180  -32.0830   23.7180 O   0  0  0  0  0  0  0  0  0  0  0  0
  -22.8690  -29.3990   22.4690 C   0  0  0  0  0  0  0  0  0  0  0  0
  -21.5460  -29.1950   22.3360 N   0  0  0  0  0  0  0  0  0  0  0  0
  -23.5560  -28.7820   23.2860 O   0  0  0  0  0  0  0  0  0  0  0  0
  -21.0500  -29.7480   21.6510 H   0  0  0  0  0  0  0  0  0  0  0  0
  -18.1950  -27.9110   22.8020 C   0  0  0  0  0  0  0  0  0  0  0  0
  -20.7460  -28.2330   23.0970 C   0  0  0  0  0  3  0  0  0  0  0  0
  -20.8880  -26.8060   22.5160 C   0  0  0  0  0  2  0  0  0  0  0  0
  -19.8030  -26.4600   21.4920 C   0  0  0  0  0  2  0  0  0  0  0  0
  -18.4110  -26.5690   22.1230 C   0  0  0  0  0  2  0  0  0  0  0  0
  -19.2910  -28.6980   23.2470 C   0  0  0  0  0  0  0  0  0  0  0  0
  -19.0340  -29.9510   23.8430 C   0  0  0  0  0  3  0  0  0  0  0  0
  -17.7160  -30.4180   24.0000 C   0  0  0  0  0  3  0  0  0  0  0  0
  -16.6350  -29.6270   23.5730 C   0  0  0  0  0  3  0  0  0  0  0  0
  -16.8770  -28.3750   22.9790 C   0  0  0  0  0  3  0  0  0  0  0  0
  -25.9780  -32.4730   23.8020 C   0  0  0  0  0  3  0  0  0  0  0  0
  -26.4990  -31.7010   25.0790 C   0  0  1  0  0  0  0  0  0  0  0  0
  -25.4030  -31.4460   26.1410 C   0  0  0  0  0  1  0  0  0  0  0  0
  -27.0980  -30.3330   24.6810 C   0  0  0  0  0  1  0  0  0  0  0  0
  -27.6390  -32.5030   25.7470 C   0  0  0  0  0  1  0  0  0  0  0  0
  -25.6540  -33.8650   24.1410 N   0  0  0  0  0  0  0  0  0  0  0  0
  -25.9880  -34.9300   23.3980 C   0  0  0  0  0  0  0  0  0  0  0  0
  -26.6710  -34.8410   22.3750 O   0  0  0  0  0  0  0  0  0  0  0  0
  -25.0490  -34.0060   24.9360 H   0  0  0  0  0  0  0  0  0  0  0  0
  -24.2620  -36.7220   23.0310 C   0  0  0  0  0  1  0  0  0  0  0  0
  -25.4860  -36.3110   23.8640 C   0  0  0  0  0  3  0  0  0  0  0  0
  -27.5950  -37.1910   24.7590 C   0  0  0  0  0  1  0  0  0  0  0  0
  -26.5170  -37.3680   23.7900 N   0  0  0  0  0  0  0  0  0  0  0  0
  -26.1060  -38.2850   23.9390 H   0  0  0  0  0  0  0  0  0  0  0  0
  1  2  1  0
  3  1  2  0
  3  6  1  0
  4  5  1  0
  6  4  2  0
  7  5  2  0
  8  6  1  0
  8  7  1  0
  9 17  1  0
 10 15  1  0
 11 12  1  0
 11 10  1  0
 13 12  1  0
 13 22  1  0
 13 14  1  0
 15  9  1  0
 15 14  1  0
 16  9  2  0
 17  7  1  0
 17 18  1  0
 19 20  2  0
 20 39  1  0
 21 20  1  0
 21 24  1  0
 22 23  1  0
 22 19  1  0
 23 21  2  0
 24 25  1  0
 25 26  2  0
 27 30  1  0
 27 26  1  0
 28 27  2  0
 29 28  1  0
 29 24  2  0
 30 31  1  0
 31 36  2  0
 31 32  1  0
 32 33  2  0
 33 34  1  0
 34 38  1  0
 35 34  2  0
 36 35  1  0
 37 36  1  0
 39 40  1  0
 40 43  1  0
 40 42  1  0
 41 39  2  0
 44 45  1  0
 44 19  1  0
 46 44  1  0
 48 49  1  0
 48  1  1  0
 48 47  1  0
 50 49  1  0
 51 62  2  0
 52 50  1  0
 52 57  1  0
 53 61  1  0
 53 63  1  0
 54 60  1  0
 54 56  1  0
 55 61  1  0
 56 55  1  0
 57 56  2  0
 58 59  1  0
 58 52  2  0
 59 54  2  0
 60 53  1  0
 61 51  1  0
 63 65  2  0
 64 63  1  0
 66 64  1  0
 67 76  2  0
 67 72  1  0
 68 64  1  0
 68 72  1  0
 69 68  1  0
 70 71  1  0
 70 69  1  0
 71 67  1  0
 72 73  2  0
 73 74  1  0
 75 74  2  0
 76 75  1  0
 77 51  1  0
 77 82  1  0
 77 78  1  0
 78 81  1  1
 78 79  1  0
 80 78  1  0
 82 85  1  0
 83 87  1  0
 83 82  1  0
 84 83  2  0
 87 86  1  0
 89 87  1  0
 89 90  1  0
 89 88  1  0
M  ISO  4   9 100  17 100  49 101  50 101
M  END
>  <TORSDO>  (40) 
F 19

>  <SCORE>  (40) 
-12.654

>  <name>  (40) 
39

>  <ligand_id>  (40) 
39

>  <original_smiles>  (40) 
[H]c1c(N=C(C([H])([H])[H])C([H])(C([H])([H])[H])C([H])([H])Oc2c([H])c([H])c3c(c2[H])C([H])([H])N(C(=O)C([H])(N([H])C(=O)C([H])(N([H])C([H])([H])[H])C([H])([H])[H])C(C([H])([H])[H])(C([H])([H])[H])C([H])([H])[H])C([H])(C(=O)N([H])C2([H])c4c([H])c([H])c([H])c([H])c4C([H])([H])C([H])([H])C2([H])[H])C3([H])[H])sc(N([H])C(=O)N2C([H])([H])C([H])([H])C([H])([H])C([H])(n3nc(-c4c([H])c([H])c(Oc5c([H])c([H])c(F)c([H])c5F)c([H])c4[H])c(C(=O)N([H])[H])c3N([H])[H])C2([H])[H])c1[H]

>  <smiles>  (40) 
[H]c1c(N=C(C([H])([H])[H])C([H])(C([H])([H])[H])C([H])([H])Oc2c([H])c([H])c3c(c2[H])C([H])([H])N(C(=O)C([H])(N([H])C(=O)C([H])(N([H])C([H])([H])[H])C([H])([H])[H])C(C([H])([H])[H])(C([H])([H])[H])C([H])([H])[H])C([H])(C(=O)N([H])C2([H])c4c([H])c([H])c([H])c([H])c4C([H])([H])C([H])([H])C2([H])[H])C3([H])[H])sc(N([H])C(=O)N2C([H])([H])C([H])([H])C([H])([H])C([H])(n3nc(-c4c([H])c([H])c(Oc5c([H])c([H])c(F)c([H])c5F)c([H])c4[H])c(C(=O)N([H])[H])c3N([H])[H])C2([H])[H])c1[H]

$$$$
40:0:0
     RDKit          3D

 93102  0  0  1  0  0  0  0  0999 V2000
  -30.5190  -22.7810   18.3970 C   0  0  0  0  0  2  0  0  0  0  0  0
  -31.0400  -21.7290   19.3730 C   0  0  0  0  0  2  0  0  0  0  0  0
  -29.0030  -22.6770   18.5030 C   0  0  0  0  0  2  0  0  0  0  0  0
  -29.9110  -21.4300   20.3850 C   0  0  0  0  0  3  0  0  0  0  0  0
  -28.7170  -22.2910   19.8970 N   0  0  1  0  0  4  0  0  0  0  0  0
  -27.9680  -21.6180   19.8280 H   0  0  0  0  0  0  0  0  0  0  0  0
  -29.6560  -18.6240   20.0140 C   0  0  0  0  0  3  0  0  0  0  0  0
  -30.8550  -17.6770   21.7910 C   0  0  0  0  0  3  0  0  0  0  0  0
  -30.2030  -17.3750   20.6250 C   0  0  0  0  0  0  0  0  0  0  0  0
  -29.9410  -19.8420   20.6920 C   0  0  0  0  0  0  0  0  0  0  0  0
  -30.8210  -19.3960   22.1490 S   0  0  0  0  0  0  0  0  0  0  0  0
  -30.8180  -14.8050   20.2250 C   0  0  0  0  0  0  0  0  0  0  0  0
  -30.6450  -12.5030   19.2210 C   0  0  0  0  0  2  0  0  0  0  0  0
  -29.6930  -12.5350   18.0040 C   0  0  0  0  0  2  0  0  0  0  0  0
  -28.2270  -12.3560   18.4500 C   0  0  0  0  0  2  0  0  0  0  0  0
  -27.8550  -13.2670   19.6510 C   0  0  0  0  0  3  0  0  0  0  0  0
  -28.9210  -13.2060   20.7640 C   0  0  0  0  0  2  0  0  0  0  0  0
  -30.2010  -13.5710   20.1460 N   0  0  0  0  0  0  0  0  0  0  0  0
  -32.0310  -14.8850   20.0020 O   0  0  0  0  0  0  0  0  0  0  0  0
  -30.0010  -15.9440   20.2200 N   0  0  0  0  0  0  0  0  0  0  0  0
  -29.0420  -15.7170   20.0150 H   0  0  0  0  0  0  0  0  0  0  0  0
  -25.4830  -13.8820   20.4040 C   0  0  0  0  0  0  0  0  0  0  0  0
  -24.4120  -13.1180   20.7820 C   0  0  0  0  0  0  0  0  0  0  0  0
  -24.8620  -11.7630   20.7500 C   0  0  0  0  0  0  0  0  0  0  0  0
  -26.5140  -12.9910   20.1580 N   0  0  0  0  0  0  0  0  0  0  0  0
  -26.1500  -11.7120   20.4310 N   0  0  0  0  0  0  0  0  0  0  0  0
  -24.1230  -10.5090   20.9450 C   0  0  0  0  0  0  0  0  0  0  0  0
  -24.5270   -9.5540   21.9040 C   0  0  0  0  0  3  0  0  0  0  0  0
  -23.7900   -8.3640   22.0840 C   0  0  0  0  0  3  0  0  0  0  0  0
  -22.6340   -8.1210   21.3050 C   0  0  0  0  0  0  0  0  0  0  0  0
  -22.2500   -9.0640   20.3350 C   0  0  0  0  0  3  0  0  0  0  0  0
  -22.9880  -10.2450   20.1520 C   0  0  0  0  0  3  0  0  0  0  0  0
  -21.8690   -6.9830   21.3930 O   0  0  0  0  0  0  0  0  0  0  0  0
  -21.7580   -6.2800   22.5670 C   0  0  0  0  0  0  0  0  0  0  0  0
  -21.2480   -6.8720   23.7440 C   0  0  0  0  0  3  0  0  0  0  0  0
  -21.0850   -6.0940   24.9070 C   0  0  0  0  0  3  0  0  0  0  0  0
  -21.4220   -4.7270   24.8970 C   0  0  0  0  0  0  0  0  0  0  0  0
  -21.9260   -4.1360   23.7240 C   0  0  0  0  0  3  0  0  0  0  0  0
  -22.0900   -4.9110   22.5620 C   0  0  0  0  0  0  0  0  0  0  0  0
  -22.5560   -4.3310   21.4290 F   0  0  0  0  0  0  0  0  0  0  0  0
  -21.2600   -3.9790   26.0120 F   0  0  0  0  0  0  0  0  0  0  0  0
  -23.0210  -13.6110   21.0590 C   0  0  0  0  0  0  0  0  0  0  0  0
  -22.2870  -12.9220   21.9260 N   0  0  0  0  0  0  0  0  0  0  0  0
  -22.5920  -14.6410   20.5420 O   0  0  0  0  0  0  0  0  0  0  0  0
  -22.6440  -12.0880   22.3710 H   0  0  0  0  0  0  0  0  0  0  0  0
  -21.3540  -13.2350   22.1540 H   0  0  0  0  0  0  0  0  0  0  0  0
  -25.6540  -15.2510   20.2250 N   0  0  0  0  0  0  0  0  0  0  0  0
  -24.8870  -15.9040   20.3430 H   0  0  0  0  0  0  0  0  0  0  0  0
  -26.4930  -15.6910   19.8720 H   0  0  0  0  0  0  0  0  0  0  0  0
  -28.0480  -23.4620   20.6950 C   0  0  0  0  0  2  0  0  0  0  0  0
  -30.0330  -24.9450   21.5830 C   0  0  0  0  0  1  0  0  0  0  0  0
  -28.6120  -24.9800   21.0100 C   0  0  0  0  0  3  0  0  0  0  0  0
  -28.4930  -26.2700   20.2200 O   0  0  0  0  0  0  0  0  0  0  0  0
  -24.5900  -31.7590   23.1420 C   0  0  0  0  0  0  0  0  0  0  0  0
  -27.3650  -27.1280   20.2630 C   0  0  0  0  0  0  0  0  0  0  0  0
  -23.4690  -30.3200   21.4820 C   0  0  0  0  0  3  0  0  0  0  0  0
  -24.9910  -28.7550   20.1390 C   0  0  0  0  0  0  0  0  0  0  0  0
  -26.0140  -30.6560   21.3880 C   0  0  0  0  0  2  0  0  0  0  0  0
  -26.1370  -29.2590   20.7690 C   0  0  0  0  0  0  0  0  0  0  0  0
  -27.3300  -28.4620   20.8120 C   0  0  0  0  0  3  0  0  0  0  0  0
  -26.1930  -26.6910   19.6150 C   0  0  0  0  0  3  0  0  0  0  0  0
  -25.0250  -27.4790   19.5520 C   0  0  0  0  0  3  0  0  0  0  0  0
  -23.7450  -29.6240   20.1230 C   0  0  0  0  0  2  0  0  0  0  0  0
  -24.7090  -30.9330   22.0600 N   0  0  0  0  0  0  0  0  0  0  0  0
  -23.4830  -32.0260   23.6330 O   0  0  0  0  0  0  0  0  0  0  0  0
  -22.7840  -29.3100   22.4340 C   0  0  0  0  0  0  0  0  0  0  0  0
  -21.4590  -29.1320   22.2820 N   0  0  0  0  0  0  0  0  0  0  0  0
  -23.4440  -28.6880   23.2690 O   0  0  0  0  0  0  0  0  0  0  0  0
  -20.9850  -29.6830   21.5800 H   0  0  0  0  0  0  0  0  0  0  0  0
  -18.0690  -27.9500   22.7410 C   0  0  0  0  0  0  0  0  0  0  0  0
  -20.6260  -28.1950   23.0390 C   0  0  0  0  0  3  0  0  0  0  0  0
  -20.7270  -26.7660   22.4570 C   0  0  0  0  0  2  0  0  0  0  0  0
  -19.6340  -26.4550   21.4310 C   0  0  0  0  0  2  0  0  0  0  0  0
  -18.2470  -26.6030   22.0600 C   0  0  0  0  0  2  0  0  0  0  0  0
  -19.1870  -28.7040   23.1870 C   0  0  0  0  0  0  0  0  0  0  0  0
  -18.9670  -29.9640   23.7850 C   0  0  0  0  0  3  0  0  0  0  0  0
  -17.6620  -30.4700   23.9410 C   0  0  0  0  0  3  0  0  0  0  0  0
  -16.5590  -29.7120   23.5100 C   0  0  0  0  0  3  0  0  0  0  0  0
  -16.7630  -28.4530   22.9170 C   0  0  0  0  0  3  0  0  0  0  0  0
  -25.8380  -32.4230   23.8020 C   0  0  0  0  0  3  0  0  0  0  0  0
  -26.3390  -31.6590   25.0890 C   0  0  1  0  0  0  0  0  0  0  0  0
  -25.2240  -31.3880   26.1260 C   0  0  0  0  0  1  0  0  0  0  0  0
  -26.9690  -30.2990   24.7090 C   0  0  0  0  0  1  0  0  0  0  0  0
  -27.4480  -32.4820   25.7860 C   0  0  0  0  0  1  0  0  0  0  0  0
  -25.4810  -33.8100   24.1350 N   0  0  0  0  0  0  0  0  0  0  0  0
  -25.8020  -34.8800   23.3940 C   0  0  0  0  0  0  0  0  0  0  0  0
  -26.4960  -34.8030   22.3770 O   0  0  0  0  0  0  0  0  0  0  0  0
  -24.8640  -33.9420   24.9230 H   0  0  0  0  0  0  0  0  0  0  0  0
  -24.0380  -36.6340   23.0170 C   0  0  0  0  0  1  0  0  0  0  0  0
  -25.2690  -36.2500   23.8540 C   0  0  0  0  0  3  0  0  0  0  0  0
  -27.3560  -37.1840   24.7520 C   0  0  0  0  0  1  0  0  0  0  0  0
  -26.2770  -37.3310   23.7780 N   0  0  0  0  0  0  0  0  0  0  0  0
  -25.8430  -38.2380   23.9200 H   0  0  0  0  0  0  0  0  0  0  0  0
  1  3  1  0
  1  2  1  0
  2  4  1  0
  3  5  1  0
  4 10  1  0
  5  4  1  0
  5 50  1  0
  5  6  1  6
  7  9  1  0
  7 10  2  0
  8 11  1  0
  9  8  2  0
 10 11  1  0
 13 18  1  0
 14 15  1  0
 14 13  1  0
 16 15  1  0
 16 25  1  0
 16 17  1  0
 18 12  1  0
 18 17  1  0
 19 12  2  0
 20 12  1  0
 20  9  1  0
 21 20  1  0
 22 23  2  0
 23 42  1  0
 24 23  1  0
 24 27  1  0
 25 22  1  0
 25 26  1  0
 26 24  2  0
 27 28  1  0
 28 29  2  0
 30 33  1  0
 30 29  1  0
 31 30  2  0
 32 31  1  0
 32 27  2  0
 33 34  1  0
 34 35  1  0
 35 36  2  0
 37 36  1  0
 37 41  1  0
 38 37  2  0
 39 34  2  0
 39 38  1  0
 40 39  1  0
 42 43  1  0
 43 46  1  0
 43 45  1  0
 44 42  2  0
 47 48  1  0
 47 22  1  0
 49 47  1  0
 50 52  1  0
 52 51  1  0
 53 55  1  0
 53 52  1  0
 54 65  2  0
 55 60  1  0
 56 64  1  0
 56 66  1  0
 57 59  1  0
 58 64  1  0
 59 60  2  0
 59 58  1  0
 61 55  2  0
 62 61  1  0
 62 57  2  0
 63 57  1  0
 63 56  1  0
 64 54  1  0
 66 68  2  0
 67 66  1  0
 69 67  1  0
 70 79  2  0
 70 75  1  0
 71 67  1  0
 71 75  1  0
 72 71  1  0
 73 74  1  0
 73 72  1  0
 74 70  1  0
 75 76  2  0
 76 77  1  0
 78 77  2  0
 79 78  1  0
 80 54  1  0
 80 85  1  0
 80 81  1  0
 81 84  1  1
 81 82  1  0
 83 81  1  0
 85 88  1  0
 86 90  1  0
 86 85  1  0
 87 86  2  0
 90 89  1  0
 92 90  1  0
 92 93  1  0
 92 91  1  0
M  ISO  4  12 100  20 100  52 101  53 101
M  END
>  <TORSDO>  (41) 
F 19

>  <SCORE>  (41) 
-14.161

>  <name>  (41) 
40

>  <ligand_id>  (41) 
40

>  <original_smiles>  (41) 
[H]c1sc(C2([H])C([H])([H])C([H])([H])C([H])([H])[N+]2([H])C([H])([H])C([H])(Oc2c([H])c([H])c3c(c2[H])C([H])([H])N(C(=O)C([H])(N([H])C(=O)C([H])(N([H])C([H])([H])[H])C([H])([H])[H])C(C([H])([H])[H])(C([H])([H])[H])C([H])([H])[H])C([H])(C(=O)N([H])C2([H])c4c([H])c([H])c([H])c([H])c4C([H])([H])C([H])([H])C2([H])[H])C3([H])[H])C([H])([H])[H])c([H])c1N([H])C(=O)N1C([H])([H])C([H])([H])C([H])([H])C([H])(n2nc(-c3c([H])c([H])c(Oc4c([H])c([H])c(F)c([H])c4F)c([H])c3[H])c(C(=O)N([H])[H])c2N([H])[H])C1([H])[H]

>  <smiles>  (41) 
[H]c1sc(C2([H])C([H])([H])C([H])([H])C([H])([H])[N+]2([H])C([H])([H])C([H])(Oc2c([H])c([H])c3c(c2[H])C([H])([H])N(C(=O)C([H])(N([H])C(=O)C([H])(N([H])C([H])([H])[H])C([H])([H])[H])C(C([H])([H])[H])(C([H])([H])[H])C([H])([H])[H])C([H])(C(=O)N([H])C2([H])c4c([H])c([H])c([H])c([H])c4C([H])([H])C([H])([H])C2([H])[H])C3([H])[H])C([H])([H])[H])c([H])c1N([H])C(=O)N1C([H])([H])C([H])([H])C([H])([H])C([H])(n2nc(-c3c([H])c([H])c(Oc4c([H])c([H])c(F)c([H])c4F)c([H])c3[H])c(C(=O)N([H])[H])c2N([H])[H])C1([H])[H]

$$$$
41:0:0
     RDKit          3D

 95104  0  0  1  0  0  0  0  0999 V2000
  -29.0210  -22.4940   20.7580 C   0  0  0  0  0  0  0  0  0  0  0  0
  -29.6050  -21.4650   20.0130 N   0  0  0  0  0  0  0  0  0  0  0  0
  -28.4500  -22.2170   21.8140 O   0  0  0  0  0  0  0  0  0  0  0  0
  -29.9370  -21.7860   19.1110 H   0  0  0  0  0  0  0  0  0  0  0  0
  -31.8290  -17.6210   20.8000 C   0  0  0  0  0  3  0  0  0  0  0  0
  -29.6400  -18.7420   20.3830 C   0  0  0  0  0  3  0  0  0  0  0  0
  -32.3400  -18.9080   20.7910 C   0  0  0  0  0  0  0  0  0  0  0  0
  -31.5720  -20.0950   20.6070 C   0  0  0  0  0  0  0  0  0  0  0  0
  -30.4280  -17.4740   20.5620 C   0  0  0  0  0  0  0  0  0  0  0  0
  -30.1850  -20.1310   20.3980 C   0  0  0  0  0  0  0  0  0  0  0  0
  -33.6630  -19.6220   20.7910 C   0  0  0  0  0  2  0  0  0  0  0  0
  -32.8080  -20.9660   20.5920 C   0  0  0  0  0  2  0  0  0  0  0  0
  -30.5930  -14.8310   20.3280 C   0  0  0  0  0  0  0  0  0  0  0  0
  -30.3360  -12.5260   19.3670 C   0  0  0  0  0  2  0  0  0  0  0  0
  -29.4130  -12.5660   18.1300 C   0  0  0  0  0  2  0  0  0  0  0  0
  -27.9470  -12.3840   18.5650 C   0  0  0  0  0  2  0  0  0  0  0  0
  -27.5660  -13.3020   19.7590 C   0  0  0  0  0  3  0  0  0  0  0  0
  -28.6260  -13.2760   20.8820 C   0  0  0  0  0  2  0  0  0  0  0  0
  -29.9140  -13.6260   20.2720 N   0  0  0  0  0  0  0  0  0  0  0  0
  -31.7810  -14.8150   20.0070 O   0  0  0  0  0  0  0  0  0  0  0  0
  -29.9100  -16.0520   20.5020 N   0  0  0  0  0  0  0  0  0  0  0  0
  -28.9080  -15.9550   20.5640 H   0  0  0  0  0  0  0  0  0  0  0  0
  -25.1880  -13.8840   20.5060 C   0  0  0  0  0  0  0  0  0  0  0  0
  -24.1260  -13.1090   20.8750 C   0  0  0  0  0  0  0  0  0  0  0  0
  -24.5920  -11.7570   20.8450 C   0  0  0  0  0  0  0  0  0  0  0  0
  -26.2310  -13.0060   20.2610 N   0  0  0  0  0  0  0  0  0  0  0  0
  -25.8820  -11.7220   20.5340 N   0  0  0  0  0  0  0  0  0  0  0  0
  -23.8710  -10.4920   21.0330 C   0  0  0  0  0  0  0  0  0  0  0  0
  -24.2950   -9.5270   21.9720 C   0  0  0  0  0  3  0  0  0  0  0  0
  -23.5690   -8.3300   22.1480 C   0  0  0  0  0  3  0  0  0  0  0  0
  -22.4010   -8.0900   21.3840 C   0  0  0  0  0  0  0  0  0  0  0  0
  -21.9970   -9.0410   20.4310 C   0  0  0  0  0  3  0  0  0  0  0  0
  -22.7260  -10.2290   20.2540 C   0  0  0  0  0  3  0  0  0  0  0  0
  -21.6490   -6.9440   21.4660 O   0  0  0  0  0  0  0  0  0  0  0  0
  -21.5820   -6.2120   22.6250 C   0  0  0  0  0  0  0  0  0  0  0  0
  -21.1210   -6.7720   23.8370 C   0  0  0  0  0  3  0  0  0  0  0  0
  -21.0020   -5.9640   24.9850 C   0  0  0  0  0  3  0  0  0  0  0  0
  -21.3350   -4.5970   24.9210 C   0  0  0  0  0  0  0  0  0  0  0  0
  -21.7880   -4.0360   23.7150 C   0  0  0  0  0  3  0  0  0  0  0  0
  -21.9070   -4.8420   22.5700 C   0  0  0  0  0  0  0  0  0  0  0  0
  -22.3240   -4.2910   21.4030 F   0  0  0  0  0  0  0  0  0  0  0  0
  -21.2130   -3.8200   26.0230 F   0  0  0  0  0  0  0  0  0  0  0  0
  -22.7270  -13.5810   21.1470 C   0  0  0  0  0  0  0  0  0  0  0  0
  -22.0010  -12.8830   22.0110 N   0  0  0  0  0  0  0  0  0  0  0  0
  -22.2910  -14.6080   20.6280 O   0  0  0  0  0  0  0  0  0  0  0  0
  -22.3680  -12.0500   22.4450 H   0  0  0  0  0  0  0  0  0  0  0  0
  -21.0640  -13.1840   22.2410 H   0  0  0  0  0  0  0  0  0  0  0  0
  -25.3530  -15.2570   20.3260 N   0  0  0  0  0  0  0  0  0  0  0  0
  -24.5870  -15.9120   20.4370 H   0  0  0  0  0  0  0  0  0  0  0  0
  -26.2010  -15.6900   19.9830 H   0  0  0  0  0  0  0  0  0  0  0  0
  -28.2650  -24.9910   20.6170 C   0  0  0  0  0  3  0  0  0  0  0  0
  -29.0980  -23.9310   20.2260 C   0  0  0  0  0  0  0  0  0  0  0  0
  -30.0880  -24.2090   19.3580 O   0  0  0  0  0  0  0  0  0  0  0  0
  -30.7530  -23.5310   19.4380 H   0  0  0  0  0  0  0  0  0  0  0  0
  -28.3510  -26.3830   20.2440 O   0  0  0  0  0  0  0  0  0  0  0  0
  -24.5900  -31.8950   23.2400 C   0  0  0  0  0  0  0  0  0  0  0  0
  -27.2290  -27.2620   20.2530 C   0  0  0  0  0  0  0  0  0  0  0  0
  -23.3950  -30.4900   21.5990 C   0  0  0  0  0  3  0  0  0  0  0  0
  -24.8560  -28.9120   20.2020 C   0  0  0  0  0  0  0  0  0  0  0  0
  -25.9390  -30.8010   21.4210 C   0  0  0  0  0  2  0  0  0  0  0  0
  -26.0250  -29.4050   20.7920 C   0  0  0  0  0  0  0  0  0  0  0  0
  -27.2140  -28.5980   20.7940 C   0  0  0  0  0  3  0  0  0  0  0  0
  -26.0290  -26.8310   19.6450 C   0  0  0  0  0  3  0  0  0  0  0  0
  -24.8650  -27.6300   19.6170 C   0  0  0  0  0  3  0  0  0  0  0  0
  -23.6180  -29.7940   20.2290 C   0  0  0  0  0  2  0  0  0  0  0  0
  -24.6620  -31.0850   22.1430 N   0  0  0  0  0  0  0  0  0  0  0  0
  -23.5040  -32.1700   23.7700 O   0  0  0  0  0  0  0  0  0  0  0  0
  -22.7200  -29.4870   22.5660 C   0  0  0  0  0  0  0  0  0  0  0  0
  -21.3910  -29.3190   22.4390 N   0  0  0  0  0  0  0  0  0  0  0  0
  -23.3920  -28.8610   23.3910 O   0  0  0  0  0  0  0  0  0  0  0  0
  -20.9080  -29.8740   21.7460 H   0  0  0  0  0  0  0  0  0  0  0  0
  -18.0040  -28.1440   22.9420 C   0  0  0  0  0  0  0  0  0  0  0  0
  -20.5660  -28.3810   23.2050 C   0  0  0  0  0  3  0  0  0  0  0  0
  -20.6540  -26.9500   22.6230 C   0  0  0  0  0  2  0  0  0  0  0  0
  -19.5460  -26.6430   21.6100 C   0  0  0  0  0  2  0  0  0  0  0  0
  -18.1690  -26.7980   22.2570 C   0  0  0  0  0  2  0  0  0  0  0  0
  -19.1310  -28.8950   23.3730 C   0  0  0  0  0  0  0  0  0  0  0  0
  -18.9240  -30.1570   23.9690 C   0  0  0  0  0  3  0  0  0  0  0  0
  -17.6230  -30.6670   24.1420 C   0  0  0  0  0  3  0  0  0  0  0  0
  -16.5120  -29.9110   23.7290 C   0  0  0  0  0  3  0  0  0  0  0  0
  -16.7030  -28.6510   23.1360 C   0  0  0  0  0  3  0  0  0  0  0  0
  -25.8690  -32.5330   23.8670 C   0  0  0  0  0  3  0  0  0  0  0  0
  -26.3640  -31.7720   25.1560 C   0  0  1  0  0  0  0  0  0  0  0  0
  -25.2590  -31.5460   26.2170 C   0  0  0  0  0  1  0  0  0  0  0  0
  -26.9450  -30.3920   24.7800 C   0  0  0  0  0  1  0  0  0  0  0  0
  -27.5140  -32.5650   25.8240 C   0  0  0  0  0  1  0  0  0  0  0  0
  -25.5560  -33.9320   24.1900 N   0  0  0  0  0  0  0  0  0  0  0  0
  -25.8940  -34.9850   23.4330 C   0  0  0  0  0  0  0  0  0  0  0  0
  -26.5740  -34.8760   22.4080 O   0  0  0  0  0  0  0  0  0  0  0  0
  -24.9550  -34.0880   24.9850 H   0  0  0  0  0  0  0  0  0  0  0  0
  -24.1810  -36.7830   23.0580 C   0  0  0  0  0  1  0  0  0  0  0  0
  -25.4130  -36.3790   23.8820 C   0  0  0  0  0  3  0  0  0  0  0  0
  -27.5400  -37.2580   24.7310 C   0  0  0  0  0  1  0  0  0  0  0  0
  -26.4490  -37.4300   23.7750 N   0  0  0  0  0  0  0  0  0  0  0  0
  -26.0450  -38.3520   23.9120 H   0  0  0  0  0  0  0  0  0  0  0  0
  1  3  2  0
  2 10  1  0
  2  1  1  0
  4  2  1  0
  6 10  2  0
  6  9  1  0
  7  5  1  0
  8  7  2  0
  9  5  2  0
 10  8  1  0
 11  7  1  0
 12  8  1  0
 12 11  1  0
 13 21  1  0
 14 19  1  0
 15 16  1  0
 15 14  1  0
 17 16  1  0
 17 26  1  0
 17 18  1  0
 19 13  1  0
 19 18  1  0
 20 13  2  0
 21  9  1  0
 21 22  1  0
 23 24  2  0
 24 43  1  0
 25 24  1  0
 25 28  1  0
 26 23  1  0
 26 27  1  0
 27 25  2  0
 28 29  1  0
 29 30  2  0
 31 34  1  0
 31 30  1  0
 32 31  2  0
 33 32  1  0
 33 28  2  0
 34 35  1  0
 35 36  1  0
 36 37  2  0
 38 37  1  0
 38 42  1  0
 39 38  2  0
 40 35  2  0
 40 39  1  0
 41 40  1  0
 43 44  1  0
 44 47  1  0
 44 46  1  0
 45 43  2  0
 48 49  1  0
 48 23  1  0
 50 48  1  0
 52 51  2  0
 52  1  1  0
 53 54  1  0
 53 52  1  0
 55 57  1  0
 55 51  1  0
 56 67  2  0
 57 62  1  0
 58 66  1  0
 58 68  1  0
 59 65  1  0
 59 61  1  0
 60 66  1  0
 61 62  2  0
 61 60  1  0
 63 57  2  0
 64 63  1  0
 64 59  2  0
 65 58  1  0
 66 56  1  0
 68 70  2  0
 69 68  1  0
 71 69  1  0
 72 81  2  0
 72 77  1  0
 73 69  1  0
 73 77  1  0
 74 73  1  0
 75 76  1  0
 75 74  1  0
 76 72  1  0
 77 78  2  0
 78 79  1  0
 80 79  2  0
 81 80  1  0
 82 56  1  0
 82 87  1  0
 82 83  1  0
 83 86  1  1
 83 84  1  0
 85 83  1  0
 87 90  1  0
 88 92  1  0
 88 87  1  0
 89 88  2  0
 92 91  1  0
 94 92  1  0
 94 95  1  0
 94 93  1  0
M  ISO  4  13 100  21 100  51 101  55 101
M  END
>  <TORSDO>  (42) 
F 19

>  <SCORE>  (42) 
-14.841

>  <name>  (42) 
41

>  <ligand_id>  (42) 
41

>  <original_smiles>  (42) 
[H]OC(C(=O)N([H])c1c([H])c(N([H])C(=O)N2C([H])([H])C([H])([H])C([H])([H])C([H])(n3nc(-c4c([H])c([H])c(Oc5c([H])c([H])c(F)c([H])c5F)c([H])c4[H])c(C(=O)N([H])[H])c3N([H])[H])C2([H])[H])c([H])c2c1C([H])([H])C2([H])[H])=C([H])Oc1c([H])c([H])c2c(c1[H])C([H])([H])N(C(=O)C([H])(N([H])C(=O)C([H])(N([H])C([H])([H])[H])C([H])([H])[H])C(C([H])([H])[H])(C([H])([H])[H])C([H])([H])[H])C([H])(C(=O)N([H])C1([H])c3c([H])c([H])c([H])c([H])c3C([H])([H])C([H])([H])C1([H])[H])C2([H])[H]

>  <smiles>  (42) 
[H]OC(C(=O)N([H])c1c([H])c(N([H])C(=O)N2C([H])([H])C([H])([H])C([H])([H])C([H])(n3nc(-c4c([H])c([H])c(Oc5c([H])c([H])c(F)c([H])c5F)c([H])c4[H])c(C(=O)N([H])[H])c3N([H])[H])C2([H])[H])c([H])c2c1C([H])([H])C2([H])[H])=C([H])Oc1c([H])c([H])c2c(c1[H])C([H])([H])N(C(=O)C([H])(N([H])C(=O)C([H])(N([H])C([H])([H])[H])C([H])([H])[H])C(C([H])([H])[H])(C([H])([H])[H])C([H])([H])[H])C([H])(C(=O)N([H])C1([H])c3c([H])c([H])c([H])c([H])c3C([H])([H])C([H])([H])C1([H])[H])C2([H])[H]

$$$$
42:0:0
     RDKit          3D

 91100  0  0  1  0  0  0  0  0999 V2000
  -27.4430  -23.1500   19.4010 C   0  0  0  0  0  2  0  0  0  0  0  0
  -27.6480  -21.5960   19.3860 C   0  0  0  0  0  2  0  0  0  0  0  0
  -29.2740  -22.6100   20.8030 C   0  0  0  0  0  2  0  0  0  0  0  0
  -28.0410  -23.6390   20.7410 C   0  0  2  0  0  0  0  0  0  0  0  0
  -27.0730  -23.2090   21.8870 C   0  0  0  0  0  1  0  0  0  0  0  0
  -28.8520  -21.3130   20.1780 N   0  0  0  0  0  0  0  0  0  0  0  0
  -30.6460  -19.5800   20.8530 C   0  0  0  0  0  3  0  0  0  0  0  0
  -30.8900  -18.1410   20.9020 C   0  0  0  0  0  3  0  0  0  0  0  0
  -29.4080  -19.9740   20.3840 C   0  0  0  0  0  0  0  0  0  0  0  0
  -29.8470  -17.3280   20.4950 C   0  0  0  0  0  0  0  0  0  0  0  0
  -28.5310  -18.4540   20.0170 S   0  0  0  0  0  0  0  0  0  0  0  0
  -30.5610  -14.8470   20.3210 C   0  0  0  0  0  0  0  0  0  0  0  0
  -30.4180  -12.5650   19.2970 C   0  0  0  0  0  2  0  0  0  0  0  0
  -29.4600  -12.6180   18.0860 C   0  0  0  0  0  2  0  0  0  0  0  0
  -27.9940  -12.4340   18.5290 C   0  0  0  0  0  2  0  0  0  0  0  0
  -27.6220  -13.3140   19.7510 C   0  0  0  0  0  3  0  0  0  0  0  0
  -28.6940  -13.2150   20.8610 C   0  0  0  0  0  2  0  0  0  0  0  0
  -29.9790  -13.5990   20.2590 N   0  0  0  0  0  0  0  0  0  0  0  0
  -31.7460  -14.9920   20.0070 O   0  0  0  0  0  0  0  0  0  0  0  0
  -29.6990  -15.9260   20.4890 N   0  0  0  0  0  0  0  0  0  0  0  0
  -28.7410  -15.6210   20.5580 H   0  0  0  0  0  0  0  0  0  0  0  0
  -25.2420  -13.8980   20.5120 C   0  0  0  0  0  0  0  0  0  0  0  0
  -24.1830  -13.1190   20.8870 C   0  0  0  0  0  0  0  0  0  0  0  0
  -24.6470  -11.7680   20.8410 C   0  0  0  0  0  0  0  0  0  0  0  0
  -26.2830  -13.0180   20.2540 N   0  0  0  0  0  0  0  0  0  0  0  0
  -25.9330  -11.7340   20.5170 N   0  0  0  0  0  0  0  0  0  0  0  0
  -23.9260  -10.5050   21.0300 C   0  0  0  0  0  0  0  0  0  0  0  0
  -24.3520   -9.5440   21.9730 C   0  0  0  0  0  3  0  0  0  0  0  0
  -23.6320   -8.3440   22.1510 C   0  0  0  0  0  3  0  0  0  0  0  0
  -22.4720   -8.0940   21.3810 C   0  0  0  0  0  0  0  0  0  0  0  0
  -22.0640   -9.0420   20.4250 C   0  0  0  0  0  3  0  0  0  0  0  0
  -22.7850  -10.2330   20.2480 C   0  0  0  0  0  3  0  0  0  0  0  0
  -21.7220   -6.9440   21.4660 O   0  0  0  0  0  0  0  0  0  0  0  0
  -21.6390   -6.2230   22.6280 C   0  0  0  0  0  0  0  0  0  0  0  0
  -21.1310   -6.7860   23.8200 C   0  0  0  0  0  3  0  0  0  0  0  0
  -20.9990   -5.9890   24.9740 C   0  0  0  0  0  3  0  0  0  0  0  0
  -21.3670   -4.6300   24.9390 C   0  0  0  0  0  0  0  0  0  0  0  0
  -21.8670   -4.0660   23.7510 C   0  0  0  0  0  3  0  0  0  0  0  0
  -22.0020   -4.8610   22.5990 C   0  0  0  0  0  0  0  0  0  0  0  0
  -22.4660   -4.3070   21.4510 F   0  0  0  0  0  0  0  0  0  0  0  0
  -21.2320   -3.8600   26.0450 F   0  0  0  0  0  0  0  0  0  0  0  0
  -22.7870  -13.5910   21.1750 C   0  0  0  0  0  0  0  0  0  0  0  0
  -22.0650  -12.8820   22.0350 N   0  0  0  0  0  0  0  0  0  0  0  0
  -22.3440  -14.6230   20.6730 O   0  0  0  0  0  0  0  0  0  0  0  0
  -22.4300  -12.0430   22.4620 H   0  0  0  0  0  0  0  0  0  0  0  0
  -21.1270  -13.1770   22.2680 H   0  0  0  0  0  0  0  0  0  0  0  0
  -25.4020  -15.2700   20.3440 N   0  0  0  0  0  0  0  0  0  0  0  0
  -24.6330  -15.9180   20.4710 H   0  0  0  0  0  0  0  0  0  0  0  0
  -26.2350  -15.7160   19.9850 H   0  0  0  0  0  0  0  0  0  0  0  0
  -28.2490  -25.2550   21.0100 C   0  0  0  0  0  2  0  0  0  0  0  0
  -28.2710  -26.4390   20.0940 O   0  0  0  0  0  0  0  0  0  0  0  0
  -24.5600  -31.8900   23.2070 C   0  0  0  0  0  0  0  0  0  0  0  0
  -27.1870  -27.3350   20.1230 C   0  0  0  0  0  0  0  0  0  0  0  0
  -23.3720  -30.5090   21.5430 C   0  0  0  0  0  3  0  0  0  0  0  0
  -24.8350  -28.9720   20.1070 C   0  0  0  0  0  0  0  0  0  0  0  0
  -25.9120  -30.8290   21.3750 C   0  0  0  0  0  2  0  0  0  0  0  0
  -26.0020  -29.4500   20.7200 C   0  0  0  0  0  0  0  0  0  0  0  0
  -27.1860  -28.6430   20.7160 C   0  0  0  0  0  3  0  0  0  0  0  0
  -26.0000  -26.9180   19.4930 C   0  0  0  0  0  3  0  0  0  0  0  0
  -24.8370  -27.7140   19.4830 C   0  0  0  0  0  3  0  0  0  0  0  0
  -23.5980  -29.8480   20.1580 C   0  0  0  0  0  2  0  0  0  0  0  0
  -24.6340  -31.0890   22.1020 N   0  0  0  0  0  0  0  0  0  0  0  0
  -23.4710  -32.1620   23.7380 O   0  0  0  0  0  0  0  0  0  0  0  0
  -22.7000  -29.4820   22.4900 C   0  0  0  0  0  0  0  0  0  0  0  0
  -21.3700  -29.3200   22.3740 N   0  0  0  0  0  0  0  0  0  0  0  0
  -23.3770  -28.8340   23.2910 O   0  0  0  0  0  0  0  0  0  0  0  0
  -20.8730  -29.9040   21.7160 H   0  0  0  0  0  0  0  0  0  0  0  0
  -17.9870  -28.1490   22.8860 C   0  0  0  0  0  0  0  0  0  0  0  0
  -20.5520  -28.3690   23.1300 C   0  0  0  0  0  3  0  0  0  0  0  0
  -20.6330  -26.9510   22.5180 C   0  0  0  0  0  2  0  0  0  0  0  0
  -19.5130  -26.6680   21.5120 C   0  0  0  0  0  2  0  0  0  0  0  0
  -18.1410  -26.8180   22.1740 C   0  0  0  0  0  2  0  0  0  0  0  0
  -19.1230  -28.8850   23.3230 C   0  0  0  0  0  0  0  0  0  0  0  0
  -18.9270  -30.1360   23.9470 C   0  0  0  0  0  3  0  0  0  0  0  0
  -17.6310  -30.6500   24.1400 C   0  0  0  0  0  3  0  0  0  0  0  0
  -16.5110  -29.9100   23.7210 C   0  0  0  0  0  3  0  0  0  0  0  0
  -16.6910  -28.6610   23.0990 C   0  0  0  0  0  3  0  0  0  0  0  0
  -25.8350  -32.5220   23.8450 C   0  0  0  0  0  3  0  0  0  0  0  0
  -25.5270  -33.9240   24.1700 N   0  0  0  0  0  0  0  0  0  0  0  0
  -25.8740  -34.9730   23.4110 C   0  0  0  0  0  0  0  0  0  0  0  0
  -26.5560  -34.8630   22.3890 O   0  0  0  0  0  0  0  0  0  0  0  0
  -24.9390  -34.0890   24.9720 H   0  0  0  0  0  0  0  0  0  0  0  0
  -24.1810  -36.7830   23.0120 C   0  0  0  0  0  1  0  0  0  0  0  0
  -25.3900  -36.3650   23.8620 C   0  0  0  0  0  3  0  0  0  0  0  0
  -27.5060  -37.2270   24.7620 C   0  0  0  0  0  1  0  0  0  0  0  0
  -26.4380  -37.4060   23.7820 N   0  0  0  0  0  0  0  0  0  0  0  0
  -26.0380  -38.3300   23.9140 H   0  0  0  0  0  0  0  0  0  0  0  0
  -26.3310  -31.7530   25.1290 C   0  0  1  0  0  0  0  0  0  0  0  0
  -25.2220  -31.5160   26.1800 C   0  0  0  0  0  1  0  0  0  0  0  0
  -26.9210  -30.3770   24.7420 C   0  0  0  0  0  1  0  0  0  0  0  0
  -27.4760  -32.5400   25.8080 C   0  0  0  0  0  1  0  0  0  0  0  0
  1  4  1  0
  2  1  1  0
  2  6  1  0
  4  3  1  0
  4 50  1  0
  4  5  1  1
  6  9  1  0
  6  3  1  0
  7  8  1  0
  9  7  2  0
 10  8  2  0
 11  9  1  0
 11 10  1  0
 12 20  1  0
 13 18  1  0
 14 15  1  0
 14 13  1  0
 16 15  1  0
 16 25  1  0
 16 17  1  0
 18 12  1  0
 18 17  1  0
 19 12  2  0
 20 10  1  0
 20 21  1  0
 22 23  2  0
 23 42  1  0
 24 23  1  0
 24 27  1  0
 25 22  1  0
 25 26  1  0
 26 24  2  0
 27 28  1  0
 28 29  2  0
 30 33  1  0
 30 29  1  0
 31 30  2  0
 32 31  1  0
 32 27  2  0
 33 34  1  0
 34 35  1  0
 35 36  2  0
 37 36  1  0
 37 41  1  0
 38 37  2  0
 39 34  2  0
 39 38  1  0
 40 39  1  0
 42 43  1  0
 43 46  1  0
 43 45  1  0
 44 42  2  0
 47 48  1  0
 47 22  1  0
 49 47  1  0
 51 53  1  0
 51 50  1  0
 52 63  2  0
 53 58  1  0
 54 62  1  0
 54 64  1  0
 55 61  1  0
 55 57  1  0
 56 62  1  0
 57 56  1  0
 58 57  2  0
 59 53  2  0
 60 59  1  0
 60 55  2  0
 61 54  1  0
 62 52  1  0
 64 66  2  0
 65 64  1  0
 67 65  1  0
 68 77  2  0
 68 73  1  0
 69 65  1  0
 69 73  1  0
 70 69  1  0
 71 72  1  0
 71 70  1  0
 72 68  1  0
 73 74  2  0
 74 75  1  0
 76 75  2  0
 77 76  1  0
 78 52  1  0
 78 79  1  0
 78 88  1  0
 79 82  1  0
 80 84  1  0
 80 79  1  0
 81 80  2  0
 84 83  1  0
 86 84  1  0
 86 87  1  0
 86 85  1  0
 88 91  1  1
 88 89  1  0
 90 88  1  0
M  ISO  4  12 100  20 100  50 101  51 101
M  END
>  <TORSDO>  (43) 
F 18

>  <SCORE>  (43) 
-14.840

>  <name>  (43) 
42

>  <ligand_id>  (43) 
42

>  <original_smiles>  (43) 
[H]c1c(N([H])C(=O)N2C([H])([H])C([H])([H])C([H])([H])C([H])(n3nc(-c4c([H])c([H])c(Oc5c([H])c([H])c(F)c([H])c5F)c([H])c4[H])c(C(=O)N([H])[H])c3N([H])[H])C2([H])[H])sc(N2C([H])([H])C([H])([H])C(C([H])([H])[H])(C([H])([H])Oc3c([H])c([H])c4c(c3[H])C([H])([H])N(C(=O)C([H])(N([H])C(=O)C([H])(N([H])C([H])([H])[H])C([H])([H])[H])C(C([H])([H])[H])(C([H])([H])[H])C([H])([H])[H])C([H])(C(=O)N([H])C3([H])c5c([H])c([H])c([H])c([H])c5C([H])([H])C([H])([H])C3([H])[H])C4([H])[H])C2([H])[H])c1[H]

>  <smiles>  (43) 
[H]c1c(N([H])C(=O)N2C([H])([H])C([H])([H])C([H])([H])C([H])(n3nc(-c4c([H])c([H])c(Oc5c([H])c([H])c(F)c([H])c5F)c([H])c4[H])c(C(=O)N([H])[H])c3N([H])[H])C2([H])[H])sc(N2C([H])([H])C([H])([H])C(C([H])([H])[H])(C([H])([H])Oc3c([H])c([H])c4c(c3[H])C([H])([H])N(C(=O)C([H])(N([H])C(=O)C([H])(N([H])C([H])([H])[H])C([H])([H])[H])C(C([H])([H])[H])(C([H])([H])[H])C([H])([H])[H])C([H])(C(=O)N([H])C3([H])c5c([H])c([H])c([H])c([H])c5C([H])([H])C([H])([H])C3([H])[H])C4([H])[H])C2([H])[H])c1[H]

$$$$
43:0:0
     RDKit          3D

 91100  0  0  1  0  0  0  0  0999 V2000
  -28.9310  -23.1360   21.5640 C   0  0  0  0  0  3  0  0  0  0  0  0
  -28.7880  -23.5280   20.2890 C   0  0  0  0  0  0  0  0  0  0  0  0
  -29.3520  -21.6600   21.7250 C   0  0  0  0  0  3  0  0  0  0  0  0
  -29.1110  -22.2450   19.4360 C   0  0  0  0  0  3  0  0  0  0  0  0
  -29.3810  -21.0880   20.3700 N   0  0  0  0  0  0  0  0  0  0  0  0
  -30.2420  -17.7620   18.8630 C   0  0  0  0  0  3  0  0  0  0  0  0
  -30.0430  -19.1880   18.7970 C   0  0  0  0  0  0  0  0  0  0  0  0
  -29.6730  -19.6800   20.0250 C   0  0  0  0  0  0  0  0  0  0  0  0
  -29.9860  -17.3700   20.1590 C   0  0  0  0  0  0  0  0  0  0  0  0
  -29.6140  -18.5490   20.8910 O   0  0  0  0  0  0  0  0  0  0  0  0
  -30.1860  -19.9280   17.6700 F   0  0  0  0  0  0  0  0  0  0  0  0
  -30.6550  -14.8840   20.2900 C   0  0  0  0  0  0  0  0  0  0  0  0
  -30.4770  -12.5760   19.3300 C   0  0  0  0  0  2  0  0  0  0  0  0
  -29.5360  -12.6200   18.1050 C   0  0  0  0  0  2  0  0  0  0  0  0
  -28.0680  -12.4420   18.5420 C   0  0  0  0  0  2  0  0  0  0  0  0
  -27.6960  -13.3280   19.7620 C   0  0  0  0  0  3  0  0  0  0  0  0
  -28.7630  -13.2630   20.8770 C   0  0  0  0  0  2  0  0  0  0  0  0
  -30.0480  -13.6380   20.2740 N   0  0  0  0  0  0  0  0  0  0  0  0
  -31.8250  -14.9780   19.9150 O   0  0  0  0  0  0  0  0  0  0  0  0
  -29.8970  -16.0200   20.5980 N   0  0  0  0  0  0  0  0  0  0  0  0
  -29.0380  -15.8030   21.0770 H   0  0  0  0  0  0  0  0  0  0  0  0
  -25.3110  -13.9010   20.5080 C   0  0  0  0  0  0  0  0  0  0  0  0
  -24.2530  -13.1170   20.8780 C   0  0  0  0  0  0  0  0  0  0  0  0
  -24.7260  -11.7690   20.8430 C   0  0  0  0  0  0  0  0  0  0  0  0
  -26.3590  -13.0290   20.2590 N   0  0  0  0  0  0  0  0  0  0  0  0
  -26.0170  -11.7410   20.5290 N   0  0  0  0  0  0  0  0  0  0  0  0
  -24.0070  -10.4980   21.0280 C   0  0  0  0  0  0  0  0  0  0  0  0
  -24.4330   -9.5350   21.9690 C   0  0  0  0  0  3  0  0  0  0  0  0
  -23.7120   -8.3350   22.1450 C   0  0  0  0  0  3  0  0  0  0  0  0
  -22.5500   -8.0870   21.3780 C   0  0  0  0  0  0  0  0  0  0  0  0
  -22.1430   -9.0360   20.4260 C   0  0  0  0  0  3  0  0  0  0  0  0
  -22.8630  -10.2280   20.2490 C   0  0  0  0  0  3  0  0  0  0  0  0
  -21.8020   -6.9380   21.4620 O   0  0  0  0  0  0  0  0  0  0  0  0
  -21.7240   -6.2090   22.6230 C   0  0  0  0  0  0  0  0  0  0  0  0
  -21.2370   -6.7720   23.8240 C   0  0  0  0  0  3  0  0  0  0  0  0
  -21.1090   -5.9710   24.9750 C   0  0  0  0  0  3  0  0  0  0  0  0
  -21.4580   -4.6080   24.9300 C   0  0  0  0  0  0  0  0  0  0  0  0
  -21.9400   -4.0450   23.7340 C   0  0  0  0  0  3  0  0  0  0  0  0
  -22.0670   -4.8440   22.5840 C   0  0  0  0  0  0  0  0  0  0  0  0
  -22.5110   -4.2900   21.4300 F   0  0  0  0  0  0  0  0  0  0  0  0
  -21.3290   -3.8370   26.0340 F   0  0  0  0  0  0  0  0  0  0  0  0
  -22.8530  -13.5810   21.1580 C   0  0  0  0  0  0  0  0  0  0  0  0
  -22.1320  -12.8720   22.0200 N   0  0  0  0  0  0  0  0  0  0  0  0
  -22.4050  -14.6070   20.6460 O   0  0  0  0  0  0  0  0  0  0  0  0
  -22.5090  -12.0380   22.4470 H   0  0  0  0  0  0  0  0  0  0  0  0
  -21.1950  -13.1660   22.2540 H   0  0  0  0  0  0  0  0  0  0  0  0
  -25.4700  -15.2740   20.3380 N   0  0  0  0  0  0  0  0  0  0  0  0
  -24.7180  -15.9380   20.4840 H   0  0  0  0  0  0  0  0  0  0  0  0
  -26.3300  -15.7140   20.0390 H   0  0  0  0  0  0  0  0  0  0  0  0
  -28.1190  -24.8800   19.7050 C   0  0  0  0  0  2  0  0  0  0  0  0
  -28.2770  -26.3010   20.2570 O   0  0  0  0  0  0  0  0  0  0  0  0
  -24.6160  -31.9030   23.2460 C   0  0  0  0  0  0  0  0  0  0  0  0
  -27.2080  -27.2550   20.1700 C   0  0  0  0  0  0  0  0  0  0  0  0
  -23.4120  -30.5100   21.6100 C   0  0  0  0  0  3  0  0  0  0  0  0
  -24.8610  -28.9580   20.1740 C   0  0  0  0  0  0  0  0  0  0  0  0
  -25.9640  -30.7910   21.4400 C   0  0  0  0  0  2  0  0  0  0  0  0
  -26.0370  -29.4070   20.7840 C   0  0  0  0  0  0  0  0  0  0  0  0
  -27.2070  -28.5660   20.7810 C   0  0  0  0  0  3  0  0  0  0  0  0
  -26.0130  -26.9160   19.4920 C   0  0  0  0  0  3  0  0  0  0  0  0
  -24.8590  -27.7210   19.5170 C   0  0  0  0  0  3  0  0  0  0  0  0
  -23.6250  -29.8380   20.2300 C   0  0  0  0  0  2  0  0  0  0  0  0
  -24.6840  -31.0870   22.1520 N   0  0  0  0  0  0  0  0  0  0  0  0
  -23.5310  -32.1840   23.7770 O   0  0  0  0  0  0  0  0  0  0  0  0
  -22.7420  -29.4950   22.5690 C   0  0  0  0  0  0  0  0  0  0  0  0
  -21.4150  -29.3190   22.4420 N   0  0  0  0  0  0  0  0  0  0  0  0
  -23.4170  -28.8690   23.3900 O   0  0  0  0  0  0  0  0  0  0  0  0
  -20.9260  -29.8740   21.7530 H   0  0  0  0  0  0  0  0  0  0  0  0
  -18.0370  -28.1210   22.9490 C   0  0  0  0  0  0  0  0  0  0  0  0
  -20.5960  -28.3800   23.2110 C   0  0  0  0  0  3  0  0  0  0  0  0
  -20.6950  -26.9480   22.6350 C   0  0  0  0  0  2  0  0  0  0  0  0
  -19.5930  -26.6290   21.6210 C   0  0  0  0  0  2  0  0  0  0  0  0
  -18.2120  -26.7720   22.2690 C   0  0  0  0  0  2  0  0  0  0  0  0
  -19.1570  -28.8820   23.3770 C   0  0  0  0  0  0  0  0  0  0  0  0
  -18.9390  -30.1430   23.9730 C   0  0  0  0  0  3  0  0  0  0  0  0
  -17.6350  -30.6450   24.1450 C   0  0  0  0  0  3  0  0  0  0  0  0
  -16.5300  -29.8820   23.7310 C   0  0  0  0  0  3  0  0  0  0  0  0
  -16.7310  -28.6200   23.1410 C   0  0  0  0  0  3  0  0  0  0  0  0
  -25.8950  -32.5390   23.8680 C   0  0  0  0  0  3  0  0  0  0  0  0
  -25.5830  -33.9400   24.1920 N   0  0  0  0  0  0  0  0  0  0  0  0
  -25.9180  -34.9930   23.4340 C   0  0  0  0  0  0  0  0  0  0  0  0
  -26.5860  -34.8870   22.4020 O   0  0  0  0  0  0  0  0  0  0  0  0
  -24.9810  -34.0970   24.9860 H   0  0  0  0  0  0  0  0  0  0  0  0
  -24.1940  -36.7920   23.0840 C   0  0  0  0  0  1  0  0  0  0  0  0
  -25.4350  -36.3820   23.8920 C   0  0  0  0  0  3  0  0  0  0  0  0
  -27.5700  -37.2650   24.7230 C   0  0  0  0  0  1  0  0  0  0  0  0
  -26.4710  -37.4320   23.7770 N   0  0  0  0  0  0  0  0  0  0  0  0
  -26.0670  -38.3540   23.9220 H   0  0  0  0  0  0  0  0  0  0  0  0
  -26.4050  -31.7740   25.1510 C   0  0  1  0  0  0  0  0  0  0  0  0
  -25.3080  -31.5430   26.2160 C   0  0  0  0  0  1  0  0  0  0  0  0
  -26.9880  -30.3930   24.7740 C   0  0  0  0  0  1  0  0  0  0  0  0
  -27.5530  -32.5730   25.8130 C   0  0  0  0  0  1  0  0  0  0  0  0
  1  3  2  0
  2  1  1  0
  4  2  2  0
  4  5  1  0
  5  3  1  0
  6  9  2  0
  7  6  1  0
  7  8  2  0
  8  5  1  0
  8 10  1  0
  9 20  1  0
  9 10  1  0
 11  7  1  0
 12 20  1  0
 13 18  1  0
 14 15  1  0
 14 13  1  0
 16 15  1  0
 16 25  1  0
 16 17  1  0
 18 12  1  0
 18 17  1  0
 19 12  2  0
 20 21  1  0
 22 23  2  0
 23 42  1  0
 24 23  1  0
 24 27  1  0
 25 22  1  0
 25 26  1  0
 26 24  2  0
 27 28  1  0
 28 29  2  0
 30 33  1  0
 30 29  1  0
 31 30  2  0
 32 31  1  0
 32 27  2  0
 33 34  1  0
 34 35  1  0
 35 36  2  0
 37 36  1  0
 37 41  1  0
 38 37  2  0
 39 34  2  0
 39 38  1  0
 40 39  1  0
 42 43  1  0
 43 46  1  0
 43 45  1  0
 44 42  2  0
 47 48  1  0
 47 22  1  0
 49 47  1  0
 50 51  1  0
 50  2  1  0
 52 63  2  0
 53 51  1  0
 53 58  1  0
 54 62  1  0
 54 64  1  0
 55 61  1  0
 55 57  1  0
 56 62  1  0
 57 56  1  0
 58 57  2  0
 59 60  1  0
 59 53  2  0
 60 55  2  0
 61 54  1  0
 62 52  1  0
 64 66  2  0
 65 64  1  0
 67 65  1  0
 68 77  2  0
 68 73  1  0
 69 65  1  0
 69 73  1  0
 70 69  1  0
 71 72  1  0
 71 70  1  0
 72 68  1  0
 73 74  2  0
 74 75  1  0
 76 75  2  0
 77 76  1  0
 78 52  1  0
 78 79  1  0
 78 88  1  0
 79 82  1  0
 80 84  1  0
 80 79  1  0
 81 80  2  0
 84 83  1  0
 86 84  1  0
 86 87  1  0
 86 85  1  0
 88 91  1  1
 88 89  1  0
 90 88  1  0
M  ISO  4  12 100  20 100  50 101  51 101
M  END
>  <TORSDO>  (44) 
F 18

>  <SCORE>  (44) 
-14.841

>  <name>  (44) 
43

>  <ligand_id>  (44) 
43

>  <original_smiles>  (44) 
[H]C1=C(C([H])([H])Oc2c([H])c([H])c3c(c2[H])C([H])([H])N(C(=O)C([H])(N([H])C(=O)C([H])(N([H])C([H])([H])[H])C([H])([H])[H])C(C([H])([H])[H])(C([H])([H])[H])C([H])([H])[H])C([H])(C(=O)N([H])C2([H])c4c([H])c([H])c([H])c([H])c4C([H])([H])C([H])([H])C2([H])[H])C3([H])[H])C([H])([H])N(c2oc(N([H])C(=O)N3C([H])([H])C([H])([H])C([H])([H])C([H])(n4nc(-c5c([H])c([H])c(Oc6c([H])c([H])c(F)c([H])c6F)c([H])c5[H])c(C(=O)N([H])[H])c4N([H])[H])C3([H])[H])c([H])c2F)C1([H])[H]

>  <smiles>  (44) 
[H]C1=C(C([H])([H])Oc2c([H])c([H])c3c(c2[H])C([H])([H])N(C(=O)C([H])(N([H])C(=O)C([H])(N([H])C([H])([H])[H])C([H])([H])[H])C(C([H])([H])[H])(C([H])([H])[H])C([H])([H])[H])C([H])(C(=O)N([H])C2([H])c4c([H])c([H])c([H])c([H])c4C([H])([H])C([H])([H])C2([H])[H])C3([H])[H])C([H])([H])N(c2oc(N([H])C(=O)N3C([H])([H])C([H])([H])C([H])([H])C([H])(n4nc(-c5c([H])c([H])c(Oc6c([H])c([H])c(F)c([H])c6F)c([H])c5[H])c(C(=O)N([H])[H])c4N([H])[H])C3([H])[H])c([H])c2F)C1([H])[H]

$$$$
44:0:0
     RDKit          3D

 91 99  0  0  1  0  0  0  0  0999 V2000
  -29.2490  -21.0030   20.6640 N   0  0  0  0  0  0  0  0  0  0  0  0
  -29.4280  -21.0480   21.6660 H   0  0  0  0  0  0  0  0  0  0  0  0
  -29.6780  -18.4760   20.7800 C   0  0  0  0  0  3  0  0  0  0  0  0
  -29.2270  -19.4850   18.6490 C   0  0  0  0  0  3  0  0  0  0  0  0
  -29.7120  -17.1930   18.7450 C   0  0  0  0  0  3  0  0  0  0  0  0
  -29.3580  -19.6880   20.0450 C   0  0  0  0  0  0  0  0  0  0  0  0
  -29.8620  -17.1750   20.1540 C   0  0  0  0  0  0  0  0  0  0  0  0
  -29.4110  -18.2970   18.0240 N   0  0  0  0  0  0  0  0  0  0  0  0
  -30.7180  -14.7570   20.2730 C   0  0  0  0  0  0  0  0  0  0  0  0
  -30.3840  -12.4990   19.2410 C   0  0  0  0  0  2  0  0  0  0  0  0
  -29.4370  -12.5960   18.0260 C   0  0  0  0  0  2  0  0  0  0  0  0
  -27.9840  -12.4150   18.4990 C   0  0  0  0  0  2  0  0  0  0  0  0
  -27.6390  -13.3270   19.7100 C   0  0  0  0  0  3  0  0  0  0  0  0
  -28.7240  -13.2440   20.8150 C   0  0  0  0  0  2  0  0  0  0  0  0
  -30.0100  -13.5730   20.1940 N   0  0  0  0  0  0  0  0  0  0  0  0
  -31.8440  -14.8210   19.7770 O   0  0  0  0  0  0  0  0  0  0  0  0
  -30.6250  -16.0450   22.2650 C   0  0  0  0  0  1  0  0  0  0  0  0
  -30.1890  -15.8990   20.8660 N   0  0  0  0  0  0  0  0  0  0  0  0
  -25.2570  -13.9350   20.4620 C   0  0  0  0  0  0  0  0  0  0  0  0
  -24.1890  -13.1600   20.8320 C   0  0  0  0  0  0  0  0  0  0  0  0
  -24.6490  -11.8100   20.8010 C   0  0  0  0  0  0  0  0  0  0  0  0
  -26.2970  -13.0520   20.2240 N   0  0  0  0  0  0  0  0  0  0  0  0
  -25.9380  -11.7690   20.4900 N   0  0  0  0  0  0  0  0  0  0  0  0
  -23.9220  -10.5490   21.0020 C   0  0  0  0  0  0  0  0  0  0  0  0
  -24.3690   -9.5790   21.9220 C   0  0  0  0  0  3  0  0  0  0  0  0
  -23.6410   -8.3840   22.1090 C   0  0  0  0  0  3  0  0  0  0  0  0
  -22.4530   -8.1510   21.3740 C   0  0  0  0  0  0  0  0  0  0  0  0
  -22.0310   -9.1130   20.4400 C   0  0  0  0  0  3  0  0  0  0  0  0
  -22.7590  -10.2970   20.2510 C   0  0  0  0  0  3  0  0  0  0  0  0
  -21.6970   -7.0080   21.4710 O   0  0  0  0  0  0  0  0  0  0  0  0
  -21.6600   -6.2620   22.6230 C   0  0  0  0  0  0  0  0  0  0  0  0
  -21.2680   -6.8240   23.8580 C   0  0  0  0  0  3  0  0  0  0  0  0
  -21.1780   -6.0080   25.0030 C   0  0  0  0  0  3  0  0  0  0  0  0
  -21.4680   -4.6330   24.9160 C   0  0  0  0  0  0  0  0  0  0  0  0
  -21.8530   -4.0720   23.6860 C   0  0  0  0  0  3  0  0  0  0  0  0
  -21.9450   -4.8840   22.5420 C   0  0  0  0  0  0  0  0  0  0  0  0
  -22.2960   -4.3330   21.3540 F   0  0  0  0  0  0  0  0  0  0  0  0
  -21.3750   -3.8500   26.0150 F   0  0  0  0  0  0  0  0  0  0  0  0
  -22.7990  -13.6420   21.1230 C   0  0  0  0  0  0  0  0  0  0  0  0
  -22.0890  -12.9430   22.0040 N   0  0  0  0  0  0  0  0  0  0  0  0
  -22.3550  -14.6670   20.6080 O   0  0  0  0  0  0  0  0  0  0  0  0
  -22.4790  -12.1110   22.4210 H   0  0  0  0  0  0  0  0  0  0  0  0
  -21.1520  -13.2290   22.2570 H   0  0  0  0  0  0  0  0  0  0  0  0
  -25.4200  -15.3030   20.2940 N   0  0  0  0  0  0  0  0  0  0  0  0
  -24.6580  -15.9550   20.4510 H   0  0  0  0  0  0  0  0  0  0  0  0
  -26.3050  -15.7630   20.1310 H   0  0  0  0  0  0  0  0  0  0  0  0
  -28.4260  -22.1900   20.1820 C   0  0  0  0  0  2  0  0  0  0  0  0
  -28.8160  -23.7100   20.5660 C   0  0  0  0  0  0  0  0  0  0  0  0
  -29.7940  -23.9260   21.2920 O   0  0  0  0  0  0  0  0  0  0  0  0
  -27.9050  -24.9160   20.0410 C   0  0  0  0  0  2  0  0  0  0  0  0
  -28.2390  -26.3600   20.3280 O   0  0  0  0  0  0  0  0  0  0  0  0
  -24.6060  -31.9260   23.2390 C   0  0  0  0  0  0  0  0  0  0  0  0
  -27.1730  -27.2920   20.2290 C   0  0  0  0  0  0  0  0  0  0  0  0
  -23.3910  -30.5320   21.6080 C   0  0  0  0  0  3  0  0  0  0  0  0
  -24.8320  -28.9700   20.1870 C   0  0  0  0  0  0  0  0  0  0  0  0
  -25.9370  -30.8220   21.4270 C   0  0  0  0  0  2  0  0  0  0  0  0
  -26.0120  -29.4390   20.7820 C   0  0  0  0  0  0  0  0  0  0  0  0
  -27.1850  -28.6170   20.7930 C   0  0  0  0  0  3  0  0  0  0  0  0
  -25.9700  -26.9030   19.5860 C   0  0  0  0  0  3  0  0  0  0  0  0
  -24.8210  -27.7100   19.5790 C   0  0  0  0  0  3  0  0  0  0  0  0
  -23.6030  -29.8560   20.2280 C   0  0  0  0  0  2  0  0  0  0  0  0
  -24.6620  -31.1130   22.1440 N   0  0  0  0  0  0  0  0  0  0  0  0
  -23.5260  -32.2200   23.7710 O   0  0  0  0  0  0  0  0  0  0  0  0
  -22.7220  -29.5240   22.5740 C   0  0  0  0  0  0  0  0  0  0  0  0
  -21.3930  -29.3640   22.4600 N   0  0  0  0  0  0  0  0  0  0  0  0
  -23.3990  -28.8930   23.3900 O   0  0  0  0  0  0  0  0  0  0  0  0
  -20.9040  -29.9260   21.7800 H   0  0  0  0  0  0  0  0  0  0  0  0
  -18.0090  -28.1920   22.9690 C   0  0  0  0  0  0  0  0  0  0  0  0
  -20.5680  -28.4330   23.2350 C   0  0  0  0  0  3  0  0  0  0  0  0
  -20.6610  -27.0000   22.6640 C   0  0  0  0  0  2  0  0  0  0  0  0
  -19.5560  -26.6810   21.6520 C   0  0  0  0  0  2  0  0  0  0  0  0
  -18.1780  -26.8360   22.3030 C   0  0  0  0  0  2  0  0  0  0  0  0
  -19.1330  -28.9470   23.3940 C   0  0  0  0  0  0  0  0  0  0  0  0
  -18.9250  -30.2160   23.9770 C   0  0  0  0  0  3  0  0  0  0  0  0
  -17.6240  -30.7240   24.1460 C   0  0  0  0  0  3  0  0  0  0  0  0
  -16.5150  -29.9640   23.7400 C   0  0  0  0  0  3  0  0  0  0  0  0
  -16.7060  -28.7000   23.1550 C   0  0  0  0  0  3  0  0  0  0  0  0
  -25.8910  -32.5550   23.8570 C   0  0  0  0  0  3  0  0  0  0  0  0
  -26.4150  -31.7770   25.1260 C   0  0  1  0  0  0  0  0  0  0  0  0
  -25.3290  -31.5380   26.2010 C   0  0  0  0  0  1  0  0  0  0  0  0
  -26.9970  -30.4000   24.7250 C   0  0  0  0  0  1  0  0  0  0  0  0
  -27.5720  -32.5680   25.7840 C   0  0  0  0  0  1  0  0  0  0  0  0
  -25.5840  -33.9540   24.1980 N   0  0  0  0  0  0  0  0  0  0  0  0
  -25.9030  -35.0110   23.4420 C   0  0  0  0  0  0  0  0  0  0  0  0
  -26.5580  -34.9180   22.4010 O   0  0  0  0  0  0  0  0  0  0  0  0
  -24.9940  -34.0990   25.0040 H   0  0  0  0  0  0  0  0  0  0  0  0
  -24.1610  -36.8020   23.1360 C   0  0  0  0  0  1  0  0  0  0  0  0
  -25.4210  -36.3960   23.9180 C   0  0  0  0  0  3  0  0  0  0  0  0
  -27.5730  -37.2860   24.7010 C   0  0  0  0  0  1  0  0  0  0  0  0
  -26.4470  -37.4530   23.7840 N   0  0  0  0  0  0  0  0  0  0  0  0
  -26.0420  -38.3730   23.9400 H   0  0  0  0  0  0  0  0  0  0  0  0
  1  2  1  0
  4  6  1  0
  5  7  2  0
  6  1  1  0
  6  3  2  0
  7  3  1  0
  7 18  1  0
  8  4  2  0
  8  5  1  0
  9 18  1  0
 10 15  1  0
 11 12  1  0
 11 10  1  0
 13 12  1  0
 13 22  1  0
 13 14  1  0
 15  9  1  0
 15 14  1  0
 16  9  2  0
 18 17  1  0
 19 20  2  0
 20 39  1  0
 21 20  1  0
 21 24  1  0
 22 19  1  0
 22 23  1  0
 23 21  2  0
 24 25  1  0
 25 26  2  0
 27 30  1  0
 27 26  1  0
 28 27  2  0
 29 28  1  0
 29 24  2  0
 30 31  1  0
 31 32  1  0
 32 33  2  0
 34 33  1  0
 34 38  1  0
 35 34  2  0
 36 31  2  0
 36 35  1  0
 37 36  1  0
 39 40  1  0
 40 43  1  0
 40 42  1  0
 41 39  2  0
 44 45  1  0
 44 19  1  0
 46 44  1  0
 47 48  1  0
 47  1  1  0
 48 49  2  0
 50 51  1  0
 50 48  1  0
 52 63  2  0
 53 51  1  0
 53 58  1  0
 54 62  1  0
 54 64  1  0
 55 61  1  0
 55 57  1  0
 56 62  1  0
 57 58  2  0
 57 56  1  0
 59 53  2  0
 60 59  1  0
 60 55  2  0
 61 54  1  0
 62 52  1  0
 64 66  2  0
 65 64  1  0
 67 65  1  0
 68 77  2  0
 68 73  1  0
 69 65  1  0
 69 73  1  0
 70 69  1  0
 71 72  1  0
 71 70  1  0
 72 68  1  0
 73 74  2  0
 74 75  1  0
 76 75  2  0
 77 76  1  0
 78 52  1  0
 78 83  1  0
 78 79  1  0
 79 82  1  1
 79 80  1  0
 81 79  1  0
 83 86  1  0
 84 88  1  0
 84 83  1  0
 85 84  2  0
 88 87  1  0
 90 88  1  0
 90 91  1  0
 90 89  1  0
M  ISO  4   9 100  18 100  50 101  51 101
M  END
>  <TORSDO>  (45) 
F 20

>  <SCORE>  (45) 
-13.783

>  <name>  (45) 
44

>  <ligand_id>  (45) 
44

>  <original_smiles>  (45) 
[H]c1nc([H])c(N([H])C([H])([H])C(=O)C([H])([H])Oc2c([H])c([H])c3c(c2[H])C([H])([H])N(C(=O)C([H])(N([H])C(=O)C([H])(N([H])C([H])([H])[H])C([H])([H])[H])C(C([H])([H])[H])(C([H])([H])[H])C([H])([H])[H])C([H])(C(=O)N([H])C2([H])c4c([H])c([H])c([H])c([H])c4C([H])([H])C([H])([H])C2([H])[H])C3([H])[H])c([H])c1N(C(=O)N1C([H])([H])C([H])([H])C([H])([H])C([H])(n2nc(-c3c([H])c([H])c(Oc4c([H])c([H])c(F)c([H])c4F)c([H])c3[H])c(C(=O)N([H])[H])c2N([H])[H])C1([H])[H])C([H])([H])[H]

>  <smiles>  (45) 
[H]c1nc([H])c(N([H])C([H])([H])C(=O)C([H])([H])Oc2c([H])c([H])c3c(c2[H])C([H])([H])N(C(=O)C([H])(N([H])C(=O)C([H])(N([H])C([H])([H])[H])C([H])([H])[H])C(C([H])([H])[H])(C([H])([H])[H])C([H])([H])[H])C([H])(C(=O)N([H])C2([H])c4c([H])c([H])c([H])c([H])c4C([H])([H])C([H])([H])C2([H])[H])C3([H])[H])c([H])c1N(C(=O)N1C([H])([H])C([H])([H])C([H])([H])C([H])(n2nc(-c3c([H])c([H])c(Oc4c([H])c([H])c(F)c([H])c4F)c([H])c3[H])c(C(=O)N([H])[H])c2N([H])[H])C1([H])[H])C([H])([H])[H]

$$$$
45:0:0
     RDKit          3D

 95103  0  0  1  0  0  0  0  0999 V2000
  -28.7900  -22.8900   19.9940 C   0  0  0  0  0  0  0  0  0  0  0  0
  -29.6920  -21.9890   19.5360 N   0  0  0  0  0  0  0  0  0  0  0  0
  -27.7180  -22.5280   20.4850 O   0  0  0  0  0  0  0  0  0  0  0  0
  -30.5070  -22.3640   19.0660 H   0  0  0  0  0  0  0  0  0  0  0  0
  -30.0790  -19.7220   20.4450 C   0  0  0  0  0  3  0  0  0  0  0  0
  -29.8200  -18.3260   20.1540 C   0  0  0  0  0  0  0  0  0  0  0  0
  -29.5540  -20.6270   19.5330 C   0  0  0  0  0  0  0  0  0  0  0  0
  -29.1070  -18.2240   18.9780 C   0  0  0  0  0  0  0  0  0  0  0  0
  -28.7050  -17.0610   18.4030 F   0  0  0  0  0  0  0  0  0  0  0  0
  -28.7180  -19.7630   18.2510 S   0  0  0  0  0  0  0  0  0  0  0  0
  -30.3120  -17.2020   21.0800 C   0  0  0  0  0  2  0  0  0  0  0  0
  -30.6850  -14.7380   20.5920 C   0  0  0  0  0  0  0  0  0  0  0  0
  -30.5150  -12.5170   19.5380 C   0  0  0  0  0  2  0  0  0  0  0  0
  -29.6130  -12.6610   18.2930 C   0  0  0  0  0  2  0  0  0  0  0  0
  -28.1220  -12.4990   18.6610 C   0  0  0  0  0  2  0  0  0  0  0  0
  -27.7140  -13.3420   19.9000 C   0  0  0  0  0  3  0  0  0  0  0  0
  -28.7400  -13.2000   21.0450 C   0  0  0  0  0  2  0  0  0  0  0  0
  -30.0610  -13.5340   20.4960 N   0  0  0  0  0  0  0  0  0  0  0  0
  -31.8800  -14.8850   20.3140 O   0  0  0  0  0  0  0  0  0  0  0  0
  -29.8850  -15.8040   20.8240 N   0  0  0  0  0  0  0  0  0  0  0  0
  -28.8990  -15.6170   20.9300 H   0  0  0  0  0  0  0  0  0  0  0  0
  -25.2860  -13.8960   20.5340 C   0  0  0  0  0  0  0  0  0  0  0  0
  -24.2250  -13.1040   20.8720 C   0  0  0  0  0  0  0  0  0  0  0  0
  -24.7190  -11.7620   20.8630 C   0  0  0  0  0  0  0  0  0  0  0  0
  -26.3590  -13.0360   20.3430 N   0  0  0  0  0  0  0  0  0  0  0  0
  -26.0190  -11.7480   20.5970 N   0  0  0  0  0  0  0  0  0  0  0  0
  -24.0110  -10.4860   21.0380 C   0  0  0  0  0  0  0  0  0  0  0  0
  -24.4020   -9.5580   22.0290 C   0  0  0  0  0  3  0  0  0  0  0  0
  -23.6970   -8.3460   22.1910 C   0  0  0  0  0  3  0  0  0  0  0  0
  -22.5940   -8.0510   21.3570 C   0  0  0  0  0  0  0  0  0  0  0  0
  -22.2260   -8.9640   20.3560 C   0  0  0  0  0  3  0  0  0  0  0  0
  -22.9270  -10.1690   20.1940 C   0  0  0  0  0  3  0  0  0  0  0  0
  -21.8740   -6.8840   21.4170 O   0  0  0  0  0  0  0  0  0  0  0  0
  -21.7120   -6.1950   22.5910 C   0  0  0  0  0  0  0  0  0  0  0  0
  -21.0680   -6.7690   23.7090 C   0  0  0  0  0  3  0  0  0  0  0  0
  -20.8660   -6.0040   24.8740 C   0  0  0  0  0  3  0  0  0  0  0  0
  -21.3010   -4.6670   24.9230 C   0  0  0  0  0  0  0  0  0  0  0  0
  -21.9400   -4.0910   23.8120 C   0  0  0  0  0  3  0  0  0  0  0  0
  -22.1430   -4.8530   22.6460 C   0  0  0  0  0  0  0  0  0  0  0  0
  -22.7420   -4.2900   21.5680 F   0  0  0  0  0  0  0  0  0  0  0  0
  -21.1010   -3.9290   26.0400 F   0  0  0  0  0  0  0  0  0  0  0  0
  -22.8100  -13.5510   21.0950 C   0  0  0  0  0  0  0  0  0  0  0  0
  -22.0700  -12.8340   21.9350 N   0  0  0  0  0  0  0  0  0  0  0  0
  -22.3670  -14.5660   20.5590 O   0  0  0  0  0  0  0  0  0  0  0  0
  -22.4510  -12.0210   22.3930 H   0  0  0  0  0  0  0  0  0  0  0  0
  -21.1190  -13.1090   22.1320 H   0  0  0  0  0  0  0  0  0  0  0  0
  -25.4260  -15.2700   20.3530 N   0  0  0  0  0  0  0  0  0  0  0  0
  -24.6380  -15.9010   20.4540 H   0  0  0  0  0  0  0  0  0  0  0  0
  -26.2720  -15.7300   20.0380 H   0  0  0  0  0  0  0  0  0  0  0  0
  -29.1330  -24.4060   19.8750 C   0  0  0  0  0  2  0  0  0  0  0  0
  -28.0720  -25.4030   20.4660 C   0  0  0  0  0  3  0  0  0  0  0  0
  -28.1130  -25.4700   22.0090 C   0  0  0  0  0  0  0  0  0  0  0  0
  -26.8760  -25.0110   22.7820 C   0  0  0  0  0  1  0  0  0  0  0  0
  -29.0980  -25.9060   22.6120 O   0  0  0  0  0  0  0  0  0  0  0  0
  -28.2380  -26.7590   19.9530 O   0  0  0  0  0  0  0  0  0  0  0  0
  -24.5100  -31.9340   23.1870 C   0  0  0  0  0  0  0  0  0  0  0  0
  -27.1020  -27.5500   19.9660 C   0  0  0  0  0  0  0  0  0  0  0  0
  -23.2860  -30.5840   21.5150 C   0  0  0  0  0  3  0  0  0  0  0  0
  -24.7210  -29.0860   20.0360 C   0  0  0  0  0  0  0  0  0  0  0  0
  -25.8120  -30.9340   21.3120 C   0  0  0  0  0  2  0  0  0  0  0  0
  -25.8880  -29.5760   20.6370 C   0  0  0  0  0  0  0  0  0  0  0  0
  -27.0850  -28.8170   20.6000 C   0  0  0  0  0  3  0  0  0  0  0  0
  -25.9220  -27.0940   19.3380 C   0  0  0  0  0  3  0  0  0  0  0  0
  -24.7340  -27.8460   19.3790 C   0  0  0  0  0  3  0  0  0  0  0  0
  -23.4800  -29.9490   20.1130 C   0  0  0  0  0  2  0  0  0  0  0  0
  -24.5550  -31.1640   22.0620 N   0  0  0  0  0  0  0  0  0  0  0  0
  -23.4350  -32.1910   23.7460 O   0  0  0  0  0  0  0  0  0  0  0  0
  -22.6440  -29.5350   22.4530 C   0  0  0  0  0  0  0  0  0  0  0  0
  -21.3200  -29.3390   22.3180 N   0  0  0  0  0  0  0  0  0  0  0  0
  -23.3310  -28.9050   23.2630 O   0  0  0  0  0  0  0  0  0  0  0  0
  -20.8220  -29.9130   21.6510 H   0  0  0  0  0  0  0  0  0  0  0  0
  -17.9640  -28.0800   22.7690 C   0  0  0  0  0  0  0  0  0  0  0  0
  -20.5150  -28.3700   23.0640 C   0  0  0  0  0  3  0  0  0  0  0  0
  -20.6420  -26.9510   22.4620 C   0  0  0  0  0  2  0  0  0  0  0  0
  -19.5520  -26.6300   21.4370 C   0  0  0  0  0  2  0  0  0  0  0  0
  -18.1660  -26.7450   22.0740 C   0  0  0  0  0  2  0  0  0  0  0  0
  -19.0670  -28.8510   23.2220 C   0  0  0  0  0  0  0  0  0  0  0  0
  -18.8270  -30.1020   23.8310 C   0  0  0  0  0  3  0  0  0  0  0  0
  -17.5130  -30.5780   23.9980 C   0  0  0  0  0  3  0  0  0  0  0  0
  -16.4230  -29.8070   23.5610 C   0  0  0  0  0  3  0  0  0  0  0  0
  -16.6510  -28.5620   22.9500 C   0  0  0  0  0  3  0  0  0  0  0  0
  -25.8020  -32.5460   23.8160 C   0  0  0  0  0  3  0  0  0  0  0  0
  -25.5090  -33.9470   24.1490 N   0  0  0  0  0  0  0  0  0  0  0  0
  -25.8550  -34.9980   23.3930 C   0  0  0  0  0  0  0  0  0  0  0  0
  -26.5250  -34.8890   22.3640 O   0  0  0  0  0  0  0  0  0  0  0  0
  -24.9200  -34.1030   24.9560 H   0  0  0  0  0  0  0  0  0  0  0  0
  -24.1720  -36.8300   23.0170 C   0  0  0  0  0  1  0  0  0  0  0  0
  -25.3830  -36.3940   23.8540 C   0  0  0  0  0  3  0  0  0  0  0  0
  -27.5100  -37.2380   24.7490 C   0  0  0  0  0  1  0  0  0  0  0  0
  -26.4410  -37.4260   23.7730 N   0  0  0  0  0  0  0  0  0  0  0  0
  -26.0470  -38.3540   23.9100 H   0  0  0  0  0  0  0  0  0  0  0  0
  -26.3080  -31.7600   25.0870 C   0  0  1  0  0  0  0  0  0  0  0  0
  -25.2110  -31.5270   26.1540 C   0  0  0  0  0  1  0  0  0  0  0  0
  -26.8750  -30.3790   24.6840 C   0  0  0  0  0  1  0  0  0  0  0  0
  -27.4640  -32.5370   25.7590 C   0  0  0  0  0  1  0  0  0  0  0  0
  1  3  2  0
  2  1  1  0
  4  2  1  0
  6  5  1  0
  6 11  1  0
  7  2  1  0
  7  5  2  0
  8  6  2  0
  9  8  1  0
 10  8  1  0
 10  7  1  0
 12 20  1  0
 13 18  1  0
 14 15  1  0
 14 13  1  0
 16 15  1  0
 16 25  1  0
 16 17  1  0
 18 12  1  0
 18 17  1  0
 19 12  2  0
 20 21  1  0
 20 11  1  0
 22 23  2  0
 23 42  1  0
 24 23  1  0
 24 27  1  0
 25 22  1  0
 25 26  1  0
 26 24  2  0
 27 28  1  0
 28 29  2  0
 30 33  1  0
 30 29  1  0
 31 30  2  0
 32 31  1  0
 32 27  2  0
 33 34  1  0
 34 39  2  0
 34 35  1  0
 35 36  2  0
 36 37  1  0
 37 41  1  0
 38 37  2  0
 39 38  1  0
 40 39  1  0
 42 43  1  0
 43 46  1  0
 43 45  1  0
 44 42  2  0
 47 48  1  0
 47 22  1  0
 49 47  1  0
 50  1  1  0
 51 50  1  0
 51 52  1  0
 52 54  2  0
 52 53  1  0
 55 57  1  0
 55 51  1  0
 56 67  2  0
 57 62  1  0
 58 66  1  0
 58 68  1  0
 59 65  1  0
 59 61  1  0
 60 66  1  0
 61 60  1  0
 62 61  2  0
 63 64  1  0
 63 57  2  0
 64 59  2  0
 65 58  1  0
 66 56  1  0
 68 70  2  0
 69 68  1  0
 71 69  1  0
 72 81  2  0
 72 77  1  0
 73 69  1  0
 73 77  1  0
 74 73  1  0
 75 76  1  0
 75 74  1  0
 76 72  1  0
 77 78  2  0
 78 79  1  0
 80 79  2  0
 81 80  1  0
 82 56  1  0
 82 83  1  0
 82 92  1  0
 83 86  1  0
 84 88  1  0
 84 83  1  0
 85 84  2  0
 88 87  1  0
 90 88  1  0
 90 91  1  0
 90 89  1  0
 92 95  1  1
 92 93  1  0
 94 92  1  0
M  ISO  4  12 100  20 100  51 101  55 101
M  END
>  <TORSDO>  (46) 
F 21

>  <SCORE>  (46) 
-13.413

>  <name>  (46) 
45

>  <ligand_id>  (46) 
45

>  <original_smiles>  (46) 
[H]c1c([H])c([H])c2c(c1[H])C([H])([H])C([H])([H])C([H])([H])C2([H])N([H])C(=O)C1([H])N(C(=O)C([H])(N([H])C(=O)C([H])(N([H])C([H])([H])[H])C([H])([H])[H])C(C([H])([H])[H])(C([H])([H])[H])C([H])([H])[H])C([H])([H])c2c([H])c(OC([H])(C(=O)C([H])([H])[H])C([H])([H])C(=O)N([H])c3sc(F)c(C([H])([H])N([H])C(=O)N4C([H])([H])C([H])([H])C([H])([H])C([H])(n5nc(-c6c([H])c([H])c(Oc7c([H])c([H])c(F)c([H])c7F)c([H])c6[H])c(C(=O)N([H])[H])c5N([H])[H])C4([H])[H])c3[H])c([H])c([H])c2C1([H])[H]

>  <smiles>  (46) 
[H]c1c([H])c([H])c2c(c1[H])C([H])([H])C([H])([H])C([H])([H])C2([H])N([H])C(=O)C1([H])N(C(=O)C([H])(N([H])C(=O)C([H])(N([H])C([H])([H])[H])C([H])([H])[H])C(C([H])([H])[H])(C([H])([H])[H])C([H])([H])[H])C([H])([H])c2c([H])c(OC([H])(C(=O)C([H])([H])[H])C([H])([H])C(=O)N([H])c3sc(F)c(C([H])([H])N([H])C(=O)N4C([H])([H])C([H])([H])C([H])([H])C([H])(n5nc(-c6c([H])c([H])c(Oc7c([H])c([H])c(F)c([H])c7F)c([H])c6[H])c(C(=O)N([H])[H])c5N([H])[H])C4([H])[H])c3[H])c([H])c([H])c2C1([H])[H]

$$$$
46:0:0
     RDKit          3D

 96104  0  0  1  0  0  0  0  0999 V2000
  -29.4390  -21.1340   19.9040 C   0  0  0  0  0  0  0  0  0  0  0  0
  -29.5650  -21.2320   18.5720 N   0  0  0  0  0  4  0  0  0  0  0  0
  -29.1210  -22.3160   20.5840 N   0  0  0  0  0  0  0  0  0  0  0  0
  -29.8430  -20.4270   18.0290 H   0  0  0  0  0  0  0  0  0  0  0  0
  -29.4230  -22.0900   18.0680 H   0  0  0  0  0  0  0  0  0  0  0  0
  -29.0550  -22.2030   21.5880 H   0  0  0  0  0  0  0  0  0  0  0  0
  -29.4360  -18.4320   19.8760 C   0  0  0  0  0  3  0  0  0  0  0  0
  -29.7290  -19.7340   20.5100 C   0  0  0  0  0  0  0  0  0  0  0  0
  -29.9320  -17.2750   20.5170 C   0  0  0  0  0  0  0  0  0  0  0  0
  -30.4120  -19.5370   21.6900 C   0  0  0  0  0  0  0  0  0  0  0  0
  -30.7530  -17.8230   21.9690 S   0  0  0  0  0  0  0  0  0  0  0  0
  -30.5750  -14.7930   20.2450 C   0  0  0  0  0  0  0  0  0  0  0  0
  -30.3910  -12.5200   19.2140 C   0  0  0  0  0  2  0  0  0  0  0  0
  -29.4240  -12.5820   18.0100 C   0  0  0  0  0  2  0  0  0  0  0  0
  -27.9640  -12.4010   18.4660 C   0  0  0  0  0  2  0  0  0  0  0  0
  -27.6050  -13.2950   19.6830 C   0  0  0  0  0  3  0  0  0  0  0  0
  -28.6820  -13.2050   20.7860 C   0  0  0  0  0  2  0  0  0  0  0  0
  -29.9620  -13.5650   20.1660 N   0  0  0  0  0  0  0  0  0  0  0  0
  -31.7830  -14.8970   20.0090 O   0  0  0  0  0  0  0  0  0  0  0  0
  -29.7410  -15.9070   20.2390 N   0  0  0  0  0  0  0  0  0  0  0  0
  -28.7800  -15.6500   20.0750 H   0  0  0  0  0  0  0  0  0  0  0  0
  -25.2300  -13.9010   20.4360 C   0  0  0  0  0  0  0  0  0  0  0  0
  -24.1630  -13.1330   20.8190 C   0  0  0  0  0  0  0  0  0  0  0  0
  -24.6220  -11.7790   20.7870 C   0  0  0  0  0  0  0  0  0  0  0  0
  -26.2670  -13.0160   20.1910 N   0  0  0  0  0  0  0  0  0  0  0  0
  -25.9090  -11.7350   20.4680 N   0  0  0  0  0  0  0  0  0  0  0  0
  -23.8920  -10.5220   20.9860 C   0  0  0  0  0  0  0  0  0  0  0  0
  -24.3210   -9.5590   21.9270 C   0  0  0  0  0  3  0  0  0  0  0  0
  -23.5920   -8.3650   22.1130 C   0  0  0  0  0  3  0  0  0  0  0  0
  -22.4170   -8.1260   21.3590 C   0  0  0  0  0  0  0  0  0  0  0  0
  -22.0090   -9.0760   20.4060 C   0  0  0  0  0  3  0  0  0  0  0  0
  -22.7390  -10.2620   20.2180 C   0  0  0  0  0  3  0  0  0  0  0  0
  -21.6590   -6.9840   21.4530 O   0  0  0  0  0  0  0  0  0  0  0  0
  -21.6040   -6.2540   22.6130 C   0  0  0  0  0  0  0  0  0  0  0  0
  -21.1630   -6.8170   23.8310 C   0  0  0  0  0  3  0  0  0  0  0  0
  -21.0540   -6.0100   24.9800 C   0  0  0  0  0  3  0  0  0  0  0  0
  -21.3790   -4.6420   24.9140 C   0  0  0  0  0  0  0  0  0  0  0  0
  -21.8100   -4.0780   23.7010 C   0  0  0  0  0  3  0  0  0  0  0  0
  -21.9200   -4.8820   22.5530 C   0  0  0  0  0  0  0  0  0  0  0  0
  -22.3180   -4.3280   21.3830 F   0  0  0  0  0  0  0  0  0  0  0  0
  -21.2650   -3.8650   26.0170 F   0  0  0  0  0  0  0  0  0  0  0  0
  -22.7710  -13.6180   21.0990 C   0  0  0  0  0  0  0  0  0  0  0  0
  -22.0430  -12.9220   21.9650 N   0  0  0  0  0  0  0  0  0  0  0  0
  -22.3350  -14.6480   20.5840 O   0  0  0  0  0  0  0  0  0  0  0  0
  -22.4060  -12.0890   22.4030 H   0  0  0  0  0  0  0  0  0  0  0  0
  -21.1100  -13.2310   22.1970 H   0  0  0  0  0  0  0  0  0  0  0  0
  -25.3940  -15.2710   20.2570 N   0  0  0  0  0  0  0  0  0  0  0  0
  -24.6250  -15.9220   20.3810 H   0  0  0  0  0  0  0  0  0  0  0  0
  -26.2350  -15.7190   19.9190 H   0  0  0  0  0  0  0  0  0  0  0  0
  -30.8910  -20.4620   22.6130 N   0  0  0  0  0  0  0  0  0  0  0  0
  -31.6010  -21.0880   22.2440 H   0  0  0  0  0  0  0  0  0  0  0  0
  -31.2610  -20.0450   23.4650 H   0  0  0  0  0  0  0  0  0  0  0  0
  -29.1970  -23.7970   20.1180 C   0  0  0  0  0  2  0  0  0  0  0  0
  -28.0030  -24.8890   22.1470 C   0  0  0  0  0  1  0  0  0  0  0  0
  -28.1340  -24.9220   20.6150 C   0  0  0  0  0  3  0  0  0  0  0  0
  -28.3590  -26.3820   20.2720 O   0  0  0  0  0  0  0  0  0  0  0  0
  -24.6060  -31.8780   23.2160 C   0  0  0  0  0  0  0  0  0  0  0  0
  -27.2580  -27.2740   20.2170 C   0  0  0  0  0  0  0  0  0  0  0  0
  -23.4260  -30.4740   21.5690 C   0  0  0  0  0  3  0  0  0  0  0  0
  -24.9010  -28.9220   20.1590 C   0  0  0  0  0  0  0  0  0  0  0  0
  -25.9720  -30.7870   21.4160 C   0  0  0  0  0  2  0  0  0  0  0  0
  -26.0640  -29.4040   20.7730 C   0  0  0  0  0  0  0  0  0  0  0  0
  -27.2460  -28.5920   20.7880 C   0  0  0  0  0  3  0  0  0  0  0  0
  -26.0770  -26.8680   19.5570 C   0  0  0  0  0  3  0  0  0  0  0  0
  -24.9140  -27.6650   19.5340 C   0  0  0  0  0  3  0  0  0  0  0  0
  -23.6620  -29.8000   20.1920 C   0  0  0  0  0  2  0  0  0  0  0  0
  -24.6870  -31.0640   22.1230 N   0  0  0  0  0  0  0  0  0  0  0  0
  -23.5160  -32.1500   23.7420 O   0  0  0  0  0  0  0  0  0  0  0  0
  -22.7600  -29.4520   22.5230 C   0  0  0  0  0  0  0  0  0  0  0  0
  -21.4350  -29.2710   22.3860 N   0  0  0  0  0  0  0  0  0  0  0  0
  -23.4350  -28.8270   23.3450 O   0  0  0  0  0  0  0  0  0  0  0  0
  -20.9510  -29.8290   21.6980 H   0  0  0  0  0  0  0  0  0  0  0  0
  -18.0590  -28.0560   22.8480 C   0  0  0  0  0  0  0  0  0  0  0  0
  -20.6120  -28.3290   23.1480 C   0  0  0  0  0  3  0  0  0  0  0  0
  -20.7290  -26.8960   22.5790 C   0  0  0  0  0  2  0  0  0  0  0  0
  -19.6400  -26.5640   21.5520 C   0  0  0  0  0  2  0  0  0  0  0  0
  -18.2480  -26.7030   22.1800 C   0  0  0  0  0  2  0  0  0  0  0  0
  -19.1690  -28.8240   23.2890 C   0  0  0  0  0  0  0  0  0  0  0  0
  -18.9370  -30.0880   23.8760 C   0  0  0  0  0  3  0  0  0  0  0  0
  -17.6280  -30.5840   24.0260 C   0  0  0  0  0  3  0  0  0  0  0  0
  -16.5320  -29.8120   23.6050 C   0  0  0  0  0  3  0  0  0  0  0  0
  -16.7480  -28.5510   23.0200 C   0  0  0  0  0  3  0  0  0  0  0  0
  -25.8800  -32.5190   23.8490 C   0  0  0  0  0  3  0  0  0  0  0  0
  -26.3860  -31.7560   25.1340 C   0  0  1  0  0  0  0  0  0  0  0  0
  -25.2800  -31.5230   26.1910 C   0  0  0  0  0  1  0  0  0  0  0  0
  -26.9770  -30.3810   24.7510 C   0  0  0  0  0  1  0  0  0  0  0  0
  -27.5260  -32.5580   25.8050 C   0  0  0  0  0  1  0  0  0  0  0  0
  -25.5630  -33.9180   24.1720 N   0  0  0  0  0  0  0  0  0  0  0  0
  -25.8970  -34.9720   23.4170 C   0  0  0  0  0  0  0  0  0  0  0  0
  -26.5750  -34.8720   22.3910 O   0  0  0  0  0  0  0  0  0  0  0  0
  -24.9700  -34.0730   24.9740 H   0  0  0  0  0  0  0  0  0  0  0  0
  -24.1720  -36.7640   23.0390 C   0  0  0  0  0  1  0  0  0  0  0  0
  -25.3990  -36.3600   23.8700 C   0  0  0  0  0  3  0  0  0  0  0  0
  -27.5180  -37.2500   24.7320 C   0  0  0  0  0  1  0  0  0  0  0  0
  -26.4310  -37.4150   23.7710 N   0  0  0  0  0  0  0  0  0  0  0  0
  -26.0250  -38.3360   23.9170 H   0  0  0  0  0  0  0  0  0  0  0  0
  1  8  1  0
  1  3  1  0
  2  1  2  0
  3  6  1  0
  4  2  1  0
  5  2  1  0
  7  8  1  0
  7  9  2  0
  8 10  2  0
  9 11  1  0
 10 11  1  0
 10 50  1  0
 13 18  1  0
 14 15  1  0
 14 13  1  0
 16 15  1  0
 16 25  1  0
 16 17  1  0
 18 12  1  0
 18 17  1  0
 19 12  2  0
 20 12  1  0
 20  9  1  0
 21 20  1  0
 22 23  2  0
 23 42  1  0
 24 23  1  0
 24 27  1  0
 25 22  1  0
 25 26  1  0
 26 24  2  0
 27 28  1  0
 28 29  2  0
 30 33  1  0
 30 29  1  0
 31 30  2  0
 32 31  1  0
 32 27  2  0
 33 34  1  0
 34 35  1  0
 35 36  2  0
 37 36  1  0
 37 41  1  0
 38 37  2  0
 39 34  2  0
 39 38  1  0
 40 39  1  0
 42 43  1  0
 43 46  1  0
 43 45  1  0
 44 42  2  0
 47 48  1  0
 47 22  1  0
 49 47  1  0
 50 52  1  0
 51 50  1  0
 53  3  1  0
 53 55  1  0
 55 54  1  0
 56 55  1  0
 57 68  2  0
 58 56  1  0
 58 63  1  0
 59 67  1  0
 59 69  1  0
 60 66  1  0
 60 62  1  0
 61 67  1  0
 62 63  2  0
 62 61  1  0
 64 58  2  0
 65 64  1  0
 65 60  2  0
 66 59  1  0
 67 57  1  0
 69 71  2  0
 70 69  1  0
 72 70  1  0
 73 82  2  0
 73 78  1  0
 74 70  1  0
 74 78  1  0
 75 74  1  0
 76 77  1  0
 76 75  1  0
 77 73  1  0
 78 79  2  0
 79 80  1  0
 81 80  2  0
 82 81  1  0
 83 57  1  0
 83 88  1  0
 83 84  1  0
 84 87  1  1
 84 85  1  0
 86 84  1  0
 88 91  1  0
 89 93  1  0
 89 88  1  0
 90 89  2  0
 93 92  1  0
 95 93  1  0
 95 96  1  0
 95 94  1  0
M  ISO  4  12 100  20 100  55 101  56 101
M  END
>  <TORSDO>  (47) 
F 20

>  <SCORE>  (47) 
-14.110

>  <name>  (47) 
46

>  <ligand_id>  (47) 
46

>  <original_smiles>  (47) 
[H]c1c([H])c([H])c2c(c1[H])C([H])([H])C([H])([H])C([H])([H])C2([H])N([H])C(=O)C1([H])N(C(=O)C([H])(N([H])C(=O)C([H])(N([H])C([H])([H])[H])C([H])([H])[H])C(C([H])([H])[H])(C([H])([H])[H])C([H])([H])[H])C([H])([H])c2c([H])c(OC([H])(C([H])([H])[H])C([H])([H])[N+]([H])=C(c3c(N([H])[H])sc(N([H])C(=O)N4C([H])([H])C([H])([H])C([H])([H])C([H])(n5nc(-c6c([H])c([H])c(Oc7c([H])c([H])c(F)c([H])c7F)c([H])c6[H])c(C(=O)N([H])[H])c5N([H])[H])C4([H])[H])c3[H])N([H])[H])c([H])c([H])c2C1([H])[H]

>  <smiles>  (47) 
[H]c1c([H])c([H])c2c(c1[H])C([H])([H])C([H])([H])C([H])([H])C2([H])N([H])C(=O)C1([H])N(C(=O)C([H])(N([H])C(=O)C([H])(N([H])C([H])([H])[H])C([H])([H])[H])C(C([H])([H])[H])(C([H])([H])[H])C([H])([H])[H])C([H])([H])c2c([H])c(OC([H])(C([H])([H])[H])C([H])([H])[N+]([H])=C(c3c(N([H])[H])sc(N([H])C(=O)N4C([H])([H])C([H])([H])C([H])([H])C([H])(n5nc(-c6c([H])c([H])c(Oc7c([H])c([H])c(F)c([H])c7F)c([H])c6[H])c(C(=O)N([H])[H])c5N([H])[H])C4([H])[H])c3[H])N([H])[H])c([H])c([H])c2C1([H])[H]

$$$$
47:0:0
     RDKit          3D

 97106  0  0  1  0  0  0  0  0999 V2000
  -31.3120  -17.9200   20.3850 C   0  0  0  0  0  3  0  0  0  0  0  0
  -31.2700  -19.3680   20.3790 C   0  0  0  0  0  0  0  0  0  0  0  0
  -30.0240  -19.9710   20.4910 C   0  0  0  0  0  0  0  0  0  0  0  0
  -30.0950  -17.2820   20.5120 C   0  0  0  0  0  0  0  0  0  0  0  0
  -28.8650  -18.6040   20.5680 S   0  0  0  0  0  0  0  0  0  0  0  0
  -30.5730  -14.7750   20.3540 C   0  0  0  0  0  0  0  0  0  0  0  0
  -30.3440  -12.5080   19.3300 C   0  0  0  0  0  2  0  0  0  0  0  0
  -29.3920  -12.5920   18.1150 C   0  0  0  0  0  2  0  0  0  0  0  0
  -27.9260  -12.4210   18.5620 C   0  0  0  0  0  2  0  0  0  0  0  0
  -27.5680  -13.3090   19.7830 C   0  0  0  0  0  3  0  0  0  0  0  0
  -28.6380  -13.2150   20.8940 C   0  0  0  0  0  2  0  0  0  0  0  0
  -29.9330  -13.5570   20.2910 N   0  0  0  0  0  0  0  0  0  0  0  0
  -31.7580  -14.8620   20.0170 O   0  0  0  0  0  0  0  0  0  0  0  0
  -29.8010  -15.9050   20.5880 N   0  0  0  0  0  0  0  0  0  0  0  0
  -28.8380  -15.6890   20.7920 H   0  0  0  0  0  0  0  0  0  0  0  0
  -25.1890  -13.9100   20.5380 C   0  0  0  0  0  0  0  0  0  0  0  0
  -24.1230  -13.1390   20.9120 C   0  0  0  0  0  0  0  0  0  0  0  0
  -24.5780  -11.7850   20.8670 C   0  0  0  0  0  0  0  0  0  0  0  0
  -26.2260  -13.0260   20.2860 N   0  0  0  0  0  0  0  0  0  0  0  0
  -25.8660  -11.7430   20.5470 N   0  0  0  0  0  0  0  0  0  0  0  0
  -23.8470  -10.5250   21.0540 C   0  0  0  0  0  0  0  0  0  0  0  0
  -24.2810   -9.5480   21.9780 C   0  0  0  0  0  3  0  0  0  0  0  0
  -23.5500   -8.3540   22.1520 C   0  0  0  0  0  3  0  0  0  0  0  0
  -22.3710   -8.1260   21.4030 C   0  0  0  0  0  0  0  0  0  0  0  0
  -21.9570   -9.0900   20.4660 C   0  0  0  0  0  3  0  0  0  0  0  0
  -22.6880  -10.2760   20.2900 C   0  0  0  0  0  3  0  0  0  0  0  0
  -21.6120   -6.9840   21.4880 O   0  0  0  0  0  0  0  0  0  0  0  0
  -21.5590   -6.2390   22.6390 C   0  0  0  0  0  0  0  0  0  0  0  0
  -21.1200   -6.7880   23.8640 C   0  0  0  0  0  3  0  0  0  0  0  0
  -21.0160   -5.9680   25.0050 C   0  0  0  0  0  3  0  0  0  0  0  0
  -21.3390   -4.6010   24.9230 C   0  0  0  0  0  0  0  0  0  0  0  0
  -21.7710   -4.0510   23.7030 C   0  0  0  0  0  3  0  0  0  0  0  0
  -21.8770   -4.8680   22.5630 C   0  0  0  0  0  0  0  0  0  0  0  0
  -22.2730   -4.3280   21.3850 F   0  0  0  0  0  0  0  0  0  0  0  0
  -21.2320   -3.8120   26.0160 F   0  0  0  0  0  0  0  0  0  0  0  0
  -22.7300  -13.6200   21.1960 C   0  0  0  0  0  0  0  0  0  0  0  0
  -22.0040  -12.9180   22.0590 N   0  0  0  0  0  0  0  0  0  0  0  0
  -22.2950  -14.6510   20.6860 O   0  0  0  0  0  0  0  0  0  0  0  0
  -22.3700  -12.0840   22.4930 H   0  0  0  0  0  0  0  0  0  0  0  0
  -21.0690  -13.2220   22.2910 H   0  0  0  0  0  0  0  0  0  0  0  0
  -25.3580  -15.2800   20.3660 N   0  0  0  0  0  0  0  0  0  0  0  0
  -24.5930  -15.9360   20.4800 H   0  0  0  0  0  0  0  0  0  0  0  0
  -26.1960  -15.7130   20.0020 H   0  0  0  0  0  0  0  0  0  0  0  0
  -32.5340  -20.1050   20.2460 C   0  0  0  0  0  0  0  0  0  0  0  0
  -33.5770  -19.7980   21.0280 N   0  0  0  0  0  0  0  0  0  0  0  0
  -32.6800  -21.0620   19.3220 N   0  0  0  0  0  4  0  0  0  0  0  0
  -33.4710  -19.1000   21.7500 H   0  0  0  0  0  0  0  0  0  0  0  0
  -34.4730  -20.2530   20.9650 H   0  0  0  0  0  0  0  0  0  0  0  0
  -31.8850  -21.3020   18.7490 H   0  0  0  0  0  0  0  0  0  0  0  0
  -33.5410  -21.5600   19.1650 H   0  0  0  0  0  0  0  0  0  0  0  0
  -29.8770  -23.6880   21.3150 C   0  0  0  0  0  3  0  0  0  0  0  0
  -28.9490  -23.7240   20.3520 C   0  0  0  0  0  0  0  0  0  0  0  0
  -30.4060  -22.2780   21.5740 C   0  0  0  0  0  3  0  0  0  0  0  0
  -28.7620  -22.2540   19.8470 C   0  0  0  0  0  3  0  0  0  0  0  0
  -29.6880  -21.3890   20.6470 N   0  0  0  0  0  0  0  0  0  0  0  0
  -28.0850  -24.9560   19.8370 C   0  0  0  0  0  2  0  0  0  0  0  0
  -28.3330  -26.3890   20.2350 O   0  0  0  0  0  0  0  0  0  0  0  0
  -24.6290  -31.8810   23.2390 C   0  0  0  0  0  0  0  0  0  0  0  0
  -27.2460  -27.3020   20.1580 C   0  0  0  0  0  0  0  0  0  0  0  0
  -23.4320  -30.4910   21.5910 C   0  0  0  0  0  3  0  0  0  0  0  0
  -24.8880  -28.9570   20.1490 C   0  0  0  0  0  0  0  0  0  0  0  0
  -25.9760  -30.8010   21.4190 C   0  0  0  0  0  2  0  0  0  0  0  0
  -26.0570  -29.4250   20.7590 C   0  0  0  0  0  0  0  0  0  0  0  0
  -27.2380  -28.6090   20.7570 C   0  0  0  0  0  3  0  0  0  0  0  0
  -26.0510  -26.9200   19.4980 C   0  0  0  0  0  3  0  0  0  0  0  0
  -24.8890  -27.7120   19.5090 C   0  0  0  0  0  3  0  0  0  0  0  0
  -23.6490  -29.8300   20.2050 C   0  0  0  0  0  2  0  0  0  0  0  0
  -24.6980  -31.0760   22.1390 N   0  0  0  0  0  0  0  0  0  0  0  0
  -23.5440  -32.1550   23.7730 O   0  0  0  0  0  0  0  0  0  0  0  0
  -22.7650  -29.4680   22.5420 C   0  0  0  0  0  0  0  0  0  0  0  0
  -21.4390  -29.2920   22.4160 N   0  0  0  0  0  0  0  0  0  0  0  0
  -23.4430  -28.8380   23.3580 O   0  0  0  0  0  0  0  0  0  0  0  0
  -20.9500  -29.8540   21.7340 H   0  0  0  0  0  0  0  0  0  0  0  0
  -18.0590  -28.1000   22.9230 C   0  0  0  0  0  0  0  0  0  0  0  0
  -20.6200  -28.3500   23.1810 C   0  0  0  0  0  3  0  0  0  0  0  0
  -20.7140  -26.9230   22.5900 C   0  0  0  0  0  2  0  0  0  0  0  0
  -19.6040  -26.6160   21.5790 C   0  0  0  0  0  2  0  0  0  0  0  0
  -18.2270  -26.7590   22.2310 C   0  0  0  0  0  2  0  0  0  0  0  0
  -19.1830  -28.8550   23.3550 C   0  0  0  0  0  0  0  0  0  0  0  0
  -18.9710  -30.1120   23.9600 C   0  0  0  0  0  3  0  0  0  0  0  0
  -17.6670  -30.6150   24.1420 C   0  0  0  0  0  3  0  0  0  0  0  0
  -16.5580  -29.8570   23.7270 C   0  0  0  0  0  3  0  0  0  0  0  0
  -16.7560  -28.6020   23.1230 C   0  0  0  0  0  3  0  0  0  0  0  0
  -25.9090  -32.5130   23.8660 C   0  0  0  0  0  3  0  0  0  0  0  0
  -26.4240  -31.7370   25.1410 C   0  0  1  0  0  0  0  0  0  0  0  0
  -25.3290  -31.4980   26.2070 C   0  0  0  0  0  1  0  0  0  0  0  0
  -27.0080  -30.3610   24.7480 C   0  0  0  0  0  1  0  0  0  0  0  0
  -27.5730  -32.5300   25.8070 C   0  0  0  0  0  1  0  0  0  0  0  0
  -25.5960  -33.9090   24.2050 N   0  0  0  0  0  0  0  0  0  0  0  0
  -25.9090  -34.9680   23.4460 C   0  0  0  0  0  0  0  0  0  0  0  0
  -26.5600  -34.8710   22.4020 O   0  0  0  0  0  0  0  0  0  0  0  0
  -25.0200  -34.0590   25.0210 H   0  0  0  0  0  0  0  0  0  0  0  0
  -24.1610  -36.7500   23.1300 C   0  0  0  0  0  1  0  0  0  0  0  0
  -25.4220  -36.3510   23.9160 C   0  0  0  0  0  3  0  0  0  0  0  0
  -27.5630  -37.2520   24.7090 C   0  0  0  0  0  1  0  0  0  0  0  0
  -26.4430  -37.4120   23.7850 N   0  0  0  0  0  0  0  0  0  0  0  0
  -26.0320  -38.3280   23.9440 H   0  0  0  0  0  0  0  0  0  0  0  0
  1  4  2  0
  2  1  1  0
  2  3  2  0
  3  5  1  0
  3 55  1  0
  4  5  1  0
  4 14  1  0
  6 14  1  0
  7 12  1  0
  8  9  1  0
  8  7  1  0
 10  9  1  0
 10 19  1  0
 10 11  1  0
 12  6  1  0
 12 11  1  0
 13  6  2  0
 14 15  1  0
 16 17  2  0
 17 36  1  0
 18 17  1  0
 18 21  1  0
 19 16  1  0
 19 20  1  0
 20 18  2  0
 21 22  1  0
 22 23  2  0
 24 27  1  0
 24 23  1  0
 25 24  2  0
 26 25  1  0
 26 21  2  0
 27 28  1  0
 28 29  1  0
 29 30  2  0
 31 30  1  0
 31 35  1  0
 32 31  2  0
 33 28  2  0
 33 32  1  0
 34 33  1  0
 36 37  1  0
 37 40  1  0
 37 39  1  0
 38 36  2  0
 41 42  1  0
 41 16  1  0
 43 41  1  0
 44  2  1  0
 44 45  1  0
 45 47  1  0
 46 44  2  0
 48 45  1  0
 49 46  1  0
 50 46  1  0
 51 53  2  0
 52 51  1  0
 54 52  2  0
 54 55  1  0
 55 53  1  0
 56 57  1  0
 56 52  1  0
 58 69  2  0
 59 57  1  0
 59 64  1  0
 60 68  1  0
 60 70  1  0
 61 67  1  0
 61 63  1  0
 62 68  1  0
 63 62  1  0
 64 63  2  0
 65 66  1  0
 65 59  2  0
 66 61  2  0
 67 60  1  0
 68 58  1  0
 70 72  2  0
 71 70  1  0
 73 71  1  0
 74 83  2  0
 74 79  1  0
 75 71  1  0
 75 79  1  0
 76 75  1  0
 77 78  1  0
 77 76  1  0
 78 74  1  0
 79 80  2  0
 80 81  1  0
 82 81  2  0
 83 82  1  0
 84 58  1  0
 84 89  1  0
 84 85  1  0
 85 88  1  1
 85 86  1  0
 87 85  1  0
 89 92  1  0
 90 94  1  0
 90 89  1  0
 91 90  2  0
 94 93  1  0
 96 94  1  0
 96 97  1  0
 96 95  1  0
M  ISO  4   6 100  14 100  56 101  57 101
M  END
>  <TORSDO>  (48) 
F 19

>  <SCORE>  (48) 
-14.449

>  <name>  (48) 
47

>  <ligand_id>  (48) 
47

>  <original_smiles>  (48) 
[H]C1=C(C([H])([H])Oc2c([H])c([H])c3c(c2[H])C([H])([H])N(C(=O)C([H])(N([H])C(=O)C([H])(N([H])C([H])([H])[H])C([H])([H])[H])C(C([H])([H])[H])(C([H])([H])[H])C([H])([H])[H])C([H])(C(=O)N([H])C2([H])c4c([H])c([H])c([H])c([H])c4C([H])([H])C([H])([H])C2([H])[H])C3([H])[H])C([H])([H])N(c2sc(N([H])C(=O)N3C([H])([H])C([H])([H])C([H])([H])C([H])(n4nc(-c5c([H])c([H])c(Oc6c([H])c([H])c(F)c([H])c6F)c([H])c5[H])c(C(=O)N([H])[H])c4N([H])[H])C3([H])[H])c([H])c2C(N([H])[H])=[N+]([H])[H])C1([H])[H]

>  <smiles>  (48) 
[H]C1=C(C([H])([H])Oc2c([H])c([H])c3c(c2[H])C([H])([H])N(C(=O)C([H])(N([H])C(=O)C([H])(N([H])C([H])([H])[H])C([H])([H])[H])C(C([H])([H])[H])(C([H])([H])[H])C([H])([H])[H])C([H])(C(=O)N([H])C2([H])c4c([H])c([H])c([H])c([H])c4C([H])([H])C([H])([H])C2([H])[H])C3([H])[H])C([H])([H])N(c2sc(N([H])C(=O)N3C([H])([H])C([H])([H])C([H])([H])C([H])(n4nc(-c5c([H])c([H])c(Oc6c([H])c([H])c(F)c([H])c6F)c([H])c5[H])c(C(=O)N([H])[H])c4N([H])[H])C3([H])[H])c([H])c2C(N([H])[H])=[N+]([H])[H])C1([H])[H]

$$$$
48:0:0
     RDKit          3D

 91 99  0  0  1  0  0  0  0  0999 V2000
  -28.9650  -17.7370   20.9220 C   0  0  0  0  0  0  0  0  0  0  0  0
  -29.9920  -17.1090   20.2290 C   0  0  0  0  0  0  0  0  0  0  0  0
  -29.8210  -19.7160   20.0610 C   0  0  0  0  0  0  0  0  0  0  0  0
  -27.9160  -17.0610   21.7560 C   0  0  0  0  0  1  0  0  0  0  0  0
  -28.8840  -19.1470   20.8180 N   0  0  0  0  0  0  0  0  0  0  0  0
  -29.8730  -21.1370   19.8240 N   0  0  0  0  0  0  0  0  0  0  0  0
  -30.9230  -18.4180   19.4230 S   0  0  0  0  0  0  0  0  0  0  0  0
  -30.6490  -21.4260   19.2330 H   0  0  0  0  0  0  0  0  0  0  0  0
  -30.8950  -14.7530   19.5760 C   0  0  0  0  0  0  0  0  0  0  0  0
  -30.6370  -12.5230   18.4670 C   0  0  0  0  0  2  0  0  0  0  0  0
  -29.5320  -12.6440   17.3910 C   0  0  0  0  0  2  0  0  0  0  0  0
  -28.1300  -12.4380   18.0020 C   0  0  0  0  0  2  0  0  0  0  0  0
  -27.9230  -13.2590   19.3030 C   0  0  0  0  0  3  0  0  0  0  0  0
  -29.1200  -13.0790   20.2630 C   0  0  0  0  0  2  0  0  0  0  0  0
  -30.3350  -13.4960   19.5400 N   0  0  0  0  0  0  0  0  0  0  0  0
  -31.9660  -14.9910   19.0090 O   0  0  0  0  0  0  0  0  0  0  0  0
  -30.1200  -15.7110   20.1910 N   0  0  0  0  0  0  0  0  0  0  0  0
  -29.3760  -15.2520   20.6930 H   0  0  0  0  0  0  0  0  0  0  0  0
  -25.6610  -13.8120   20.3880 C   0  0  0  0  0  0  0  0  0  0  0  0
  -24.6450  -13.0180   20.8460 C   0  0  0  0  0  0  0  0  0  0  0  0
  -25.0770  -11.6710   20.6490 C   0  0  0  0  0  0  0  0  0  0  0  0
  -26.6490  -12.9470   19.9460 N   0  0  0  0  0  0  0  0  0  0  0  0
  -26.3110  -11.6500   20.1600 N   0  0  0  0  0  0  0  0  0  0  0  0
  -24.3650  -10.4020   20.8440 C   0  0  0  0  0  0  0  0  0  0  0  0
  -24.8100   -9.4400   21.7780 C   0  0  0  0  0  3  0  0  0  0  0  0
  -24.0980   -8.2360   21.9610 C   0  0  0  0  0  3  0  0  0  0  0  0
  -22.9260   -7.9830   21.2080 C   0  0  0  0  0  0  0  0  0  0  0  0
  -22.5010   -8.9330   20.2620 C   0  0  0  0  0  3  0  0  0  0  0  0
  -23.2130  -10.1300   20.0790 C   0  0  0  0  0  3  0  0  0  0  0  0
  -22.1860   -6.8300   21.2990 O   0  0  0  0  0  0  0  0  0  0  0  0
  -21.9770   -6.2020   22.5000 C   0  0  0  0  0  0  0  0  0  0  0  0
  -21.3290   -6.8460   23.5760 C   0  0  0  0  0  3  0  0  0  0  0  0
  -21.0730   -6.1400   24.7680 C   0  0  0  0  0  3  0  0  0  0  0  0
  -21.4550   -4.7910   24.8850 C   0  0  0  0  0  0  0  0  0  0  0  0
  -22.0970   -4.1460   23.8130 C   0  0  0  0  0  3  0  0  0  0  0  0
  -22.3540   -4.8480   22.6230 C   0  0  0  0  0  0  0  0  0  0  0  0
  -22.9540   -4.2160   21.5850 F   0  0  0  0  0  0  0  0  0  0  0  0
  -21.2040   -4.1100   26.0280 F   0  0  0  0  0  0  0  0  0  0  0  0
  -23.3060  -13.4800   21.3460 C   0  0  0  0  0  0  0  0  0  0  0  0
  -22.7020  -12.7310   22.2620 N   0  0  0  0  0  0  0  0  0  0  0  0
  -22.8100  -14.5380   20.9620 O   0  0  0  0  0  0  0  0  0  0  0  0
  -23.1200  -11.8740   22.5920 H   0  0  0  0  0  0  0  0  0  0  0  0
  -21.8100  -13.0190   22.6400 H   0  0  0  0  0  0  0  0  0  0  0  0
  -25.8190  -15.1910   20.2890 N   0  0  0  0  0  0  0  0  0  0  0  0
  -25.0700  -15.8320   20.5290 H   0  0  0  0  0  0  0  0  0  0  0  0
  -26.5920  -15.6450   19.8200 H   0  0  0  0  0  0  0  0  0  0  0  0
  -28.9910  -22.3090   20.2110 C   0  0  0  0  0  2  0  0  0  0  0  0
  -29.3060  -23.8060   19.7460 C   0  0  0  0  0  0  0  0  0  0  0  0
  -30.3080  -24.0310   19.0580 O   0  0  0  0  0  0  0  0  0  0  0  0
  -28.3150  -24.9850   20.1740 C   0  0  0  0  0  2  0  0  0  0  0  0
  -28.5620  -26.3910   19.7030 O   0  0  0  0  0  0  0  0  0  0  0  0
  -24.7050  -31.6000   22.9850 C   0  0  0  0  0  0  0  0  0  0  0  0
  -27.4450  -27.2540   19.7100 C   0  0  0  0  0  0  0  0  0  0  0  0
  -23.5450  -30.2550   21.2720 C   0  0  0  0  0  3  0  0  0  0  0  0
  -25.0410  -28.8200   19.7710 C   0  0  0  0  0  0  0  0  0  0  0  0
  -26.0760  -30.6460   21.1140 C   0  0  0  0  0  2  0  0  0  0  0  0
  -26.1970  -29.3030   20.3980 C   0  0  0  0  0  0  0  0  0  0  0  0
  -27.4040  -28.5340   20.3570 C   0  0  0  0  0  3  0  0  0  0  0  0
  -26.2670  -26.8430   19.0470 C   0  0  0  0  0  3  0  0  0  0  0  0
  -25.0800  -27.5980   19.0840 C   0  0  0  0  0  3  0  0  0  0  0  0
  -23.7800  -29.6580   19.8600 C   0  0  0  0  0  2  0  0  0  0  0  0
  -24.7940  -30.8490   21.8470 N   0  0  0  0  0  0  0  0  0  0  0  0
  -23.6130  -31.8200   23.5290 O   0  0  0  0  0  0  0  0  0  0  0  0
  -22.9070  -29.1720   22.1760 C   0  0  0  0  0  0  0  0  0  0  0  0
  -21.5800  -28.9920   22.0640 N   0  0  0  0  0  0  0  0  0  0  0  0
  -23.6060  -28.5010   22.9400 O   0  0  0  0  0  0  0  0  0  0  0  0
  -21.0740  -29.5870   21.4230 H   0  0  0  0  0  0  0  0  0  0  0  0
  -18.2100  -27.7980   22.6230 C   0  0  0  0  0  0  0  0  0  0  0  0
  -20.7830  -27.9990   22.7880 C   0  0  0  0  0  3  0  0  0  0  0  0
  -20.8320  -26.6240   22.0830 C   0  0  0  0  0  2  0  0  0  0  0  0
  -19.6780  -26.4080   21.0990 C   0  0  0  0  0  2  0  0  0  0  0  0
  -18.3320  -26.5120   21.8220 C   0  0  0  0  0  2  0  0  0  0  0  0
  -19.3600  -28.5040   23.0630 C   0  0  0  0  0  0  0  0  0  0  0  0
  -19.1910  -29.7110   23.7750 C   0  0  0  0  0  3  0  0  0  0  0  0
  -17.9040  -30.2110   24.0490 C   0  0  0  0  0  3  0  0  0  0  0  0
  -16.7690  -29.5000   23.6240 C   0  0  0  0  0  3  0  0  0  0  0  0
  -16.9230  -28.2940   22.9170 C   0  0  0  0  0  3  0  0  0  0  0  0
  -25.9690  -32.2360   23.6430 C   0  0  0  0  0  3  0  0  0  0  0  0
  -26.4980  -31.4190   24.8850 C   0  0  1  0  0  0  0  0  0  0  0  0
  -25.4060  -31.1070   25.9360 C   0  0  0  0  0  1  0  0  0  0  0  0
  -27.1160  -30.0750   24.4350 C   0  0  0  0  0  1  0  0  0  0  0  0
  -27.6250  -32.2090   25.5890 C   0  0  0  0  0  1  0  0  0  0  0  0
  -25.6200  -33.6090   24.0360 N   0  0  0  0  0  0  0  0  0  0  0  0
  -25.9120  -34.7030   23.3220 C   0  0  0  0  0  0  0  0  0  0  0  0
  -26.5690  -34.6650   22.2790 O   0  0  0  0  0  0  0  0  0  0  0  0
  -25.0320  -33.7100   24.8510 H   0  0  0  0  0  0  0  0  0  0  0  0
  -24.1230  -36.4550   23.0750 C   0  0  0  0  0  1  0  0  0  0  0  0
  -25.3920  -36.0560   23.8470 C   0  0  0  0  0  3  0  0  0  0  0  0
  -27.5060  -36.9790   24.6850 C   0  0  0  0  0  1  0  0  0  0  0  0
  -26.3890  -37.1440   23.7600 N   0  0  0  0  0  0  0  0  0  0  0  0
  -25.9560  -38.0460   23.9420 H   0  0  0  0  0  0  0  0  0  0  0  0
  1  4  1  0
  2  1  2  0
  3  5  2  0
  5  1  1  0
  6  3  1  0
  6 47  1  0
  7  3  1  0
  7  2  1  0
  8  6  1  0
  9 17  1  0
 10 15  1  0
 11 12  1  0
 11 10  1  0
 13 12  1  0
 13 22  1  0
 13 14  1  0
 15  9  1  0
 15 14  1  0
 16  9  2  0
 17  2  1  0
 17 18  1  0
 19 20  2  0
 20 39  1  0
 21 24  1  0
 21 20  1  0
 22 23  1  0
 22 19  1  0
 23 21  2  0
 24 25  1  0
 25 26  2  0
 27 30  1  0
 27 26  1  0
 28 27  2  0
 29 28  1  0
 29 24  2  0
 30 31  1  0
 31 36  2  0
 31 32  1  0
 32 33  2  0
 33 34  1  0
 34 38  1  0
 35 34  2  0
 36 35  1  0
 37 36  1  0
 39 40  1  0
 40 42  1  0
 40 43  1  0
 41 39  2  0
 44 19  1  0
 44 45  1  0
 46 44  1  0
 48 50  1  0
 48 47  1  0
 49 48  2  0
 51 53  1  0
 51 50  1  0
 52 63  2  0
 53 58  1  0
 54 62  1  0
 54 64  1  0
 55 61  1  0
 55 57  1  0
 56 62  1  0
 57 56  1  0
 58 57  2  0
 59 60  1  0
 59 53  2  0
 60 55  2  0
 61 54  1  0
 62 52  1  0
 64 66  2  0
 65 64  1  0
 67 65  1  0
 68 77  2  0
 68 73  1  0
 69 65  1  0
 69 73  1  0
 70 69  1  0
 71 72  1  0
 71 70  1  0
 72 68  1  0
 73 74  2  0
 74 75  1  0
 76 75  2  0
 77 76  1  0
 78 52  1  0
 78 83  1  0
 78 79  1  0
 79 82  1  1
 79 80  1  0
 81 79  1  0
 83 86  1  0
 84 88  1  0
 84 83  1  0
 85 84  2  0
 88 87  1  0
 90 88  1  0
 90 91  1  0
 90 89  1  0
M  ISO  4   9 100  17 100  50 101  51 101
M  END
>  <TORSDO>  (49) 
F 19

>  <SCORE>  (49) 
-9.634

>  <name>  (49) 
48

>  <ligand_id>  (49) 
48

>  <original_smiles>  (49) 
[H]c1c([H])c([H])c2c(c1[H])C([H])([H])C([H])([H])C([H])([H])C2([H])N([H])C(=O)C1([H])N(C(=O)C([H])(N([H])C(=O)C([H])(N([H])C([H])([H])[H])C([H])([H])[H])C(C([H])([H])[H])(C([H])([H])[H])C([H])([H])[H])C([H])([H])c2c([H])c(OC([H])([H])C(=O)C([H])([H])N([H])c3nc(C([H])([H])[H])c(N([H])C(=O)N4C([H])([H])C([H])([H])C([H])([H])C([H])(n5nc(-c6c([H])c([H])c(Oc7c([H])c([H])c(F)c([H])c7F)c([H])c6[H])c(C(=O)N([H])[H])c5N([H])[H])C4([H])[H])s3)c([H])c([H])c2C1([H])[H]

>  <smiles>  (49) 
[H]c1c([H])c([H])c2c(c1[H])C([H])([H])C([H])([H])C([H])([H])C2([H])N([H])C(=O)C1([H])N(C(=O)C([H])(N([H])C(=O)C([H])(N([H])C([H])([H])[H])C([H])([H])[H])C(C([H])([H])[H])(C([H])([H])[H])C([H])([H])[H])C([H])([H])c2c([H])c(OC([H])([H])C(=O)C([H])([H])N([H])c3nc(C([H])([H])[H])c(N([H])C(=O)N4C([H])([H])C([H])([H])C([H])([H])C([H])(n5nc(-c6c([H])c([H])c(Oc7c([H])c([H])c(F)c([H])c7F)c([H])c6[H])c(C(=O)N([H])[H])c5N([H])[H])C4([H])[H])s3)c([H])c([H])c2C1([H])[H]

$$$$
49:0:0
     RDKit          3D

 94102  0  0  1  0  0  0  0  0999 V2000
  -30.4990  -18.5940   20.3430 C   0  0  0  0  0  3  0  0  0  0  0  0
  -29.8280  -17.2810   20.2480 C   0  0  0  0  0  0  0  0  0  0  0  0
  -29.6830  -19.7340   20.1520 C   0  0  0  0  0  0  0  0  0  0  0  0
  -28.4870  -17.4800   19.9970 C   0  0  0  0  0  0  0  0  0  0  0  0
  -28.0750  -19.1740   19.7640 S   0  0  0  0  0  0  0  0  0  0  0  0
  -30.3250  -15.8580   20.6740 C   0  0  0  0  0  0  0  0  0  0  0  0
  -30.4400  -15.6370   21.9220 N   0  0  0  0  0  0  0  0  0  0  0  0
  -30.1780  -16.4590   22.4520 H   0  0  0  0  0  0  0  0  0  0  0  0
  -30.6980  -14.6730   19.6870 C   0  0  0  0  0  0  0  0  0  0  0  0
  -30.3280  -12.3880   18.7240 C   0  0  0  0  0  2  0  0  0  0  0  0
  -29.2900  -12.4430   17.5820 C   0  0  0  0  0  2  0  0  0  0  0  0
  -27.8660  -12.2800   18.1410 C   0  0  0  0  0  2  0  0  0  0  0  0
  -27.6050  -13.2040   19.3610 C   0  0  0  0  0  3  0  0  0  0  0  0
  -28.7570  -13.1420   20.3940 C   0  0  0  0  0  2  0  0  0  0  0  0
  -30.0170  -13.4650   19.7000 N   0  0  0  0  0  0  0  0  0  0  0  0
  -31.7090  -14.7980   18.9900 O   0  0  0  0  0  0  0  0  0  0  0  0
  -25.2990  -13.8180   20.3090 C   0  0  0  0  0  0  0  0  0  0  0  0
  -24.2630  -13.0600   20.7710 C   0  0  0  0  0  0  0  0  0  0  0  0
  -24.6880  -11.7020   20.6590 C   0  0  0  0  0  0  0  0  0  0  0  0
  -26.3070  -12.9300   19.9710 N   0  0  0  0  0  0  0  0  0  0  0  0
  -25.9440  -11.6460   20.2300 N   0  0  0  0  0  0  0  0  0  0  0  0
  -23.9460  -10.4550   20.8800 C   0  0  0  0  0  0  0  0  0  0  0  0
  -24.4120   -9.4660   21.7740 C   0  0  0  0  0  3  0  0  0  0  0  0
  -23.6670   -8.2870   21.9850 C   0  0  0  0  0  3  0  0  0  0  0  0
  -22.4420   -8.0890   21.3040 C   0  0  0  0  0  0  0  0  0  0  0  0
  -21.9940   -9.0670   20.3980 C   0  0  0  0  0  3  0  0  0  0  0  0
  -22.7400  -10.2380   20.1850 C   0  0  0  0  0  3  0  0  0  0  0  0
  -21.6650   -6.9620   21.4260 O   0  0  0  0  0  0  0  0  0  0  0  0
  -21.6350   -6.2310   22.5860 C   0  0  0  0  0  0  0  0  0  0  0  0
  -21.2470   -6.8030   23.8170 C   0  0  0  0  0  3  0  0  0  0  0  0
  -21.1640   -5.9980   24.9720 C   0  0  0  0  0  3  0  0  0  0  0  0
  -21.4610   -4.6240   24.8960 C   0  0  0  0  0  0  0  0  0  0  0  0
  -21.8450   -4.0520   23.6690 C   0  0  0  0  0  3  0  0  0  0  0  0
  -21.9280   -4.8540   22.5180 C   0  0  0  0  0  0  0  0  0  0  0  0
  -22.2770   -4.2950   21.3340 F   0  0  0  0  0  0  0  0  0  0  0  0
  -21.3760   -3.8490   26.0020 F   0  0  0  0  0  0  0  0  0  0  0  0
  -22.9190  -13.5660   21.2090 C   0  0  0  0  0  0  0  0  0  0  0  0
  -22.2750  -12.8660   22.1360 N   0  0  0  0  0  0  0  0  0  0  0  0
  -22.4570  -14.6200   20.7710 O   0  0  0  0  0  0  0  0  0  0  0  0
  -22.6670  -12.0160   22.5130 H   0  0  0  0  0  0  0  0  0  0  0  0
  -21.3810  -13.1870   22.4770 H   0  0  0  0  0  0  0  0  0  0  0  0
  -25.4450  -15.1850   20.1280 N   0  0  0  0  0  0  0  0  0  0  0  0
  -24.6950  -15.7750   20.4680 H   0  0  0  0  0  0  0  0  0  0  0  0
  -26.3580  -15.6120   20.3210 H   0  0  0  0  0  0  0  0  0  0  0  0
  -27.4470  -16.5600   20.0210 N   0  0  0  0  0  0  0  0  0  0  0  0
  -27.5510  -15.7540   20.6290 H   0  0  0  0  0  0  0  0  0  0  0  0
  -26.5170  -16.9540   20.1260 H   0  0  0  0  0  0  0  0  0  0  0  0
  -29.9380  -21.1670   20.2520 N   0  0  0  0  0  0  0  0  0  0  0  0
  -30.8730  -21.5230   20.4450 H   0  0  0  0  0  0  0  0  0  0  0  0
  -28.8710  -22.2540   20.1950 C   0  0  0  0  0  2  0  0  0  0  0  0
  -29.2500  -23.8170   20.2770 C   0  0  0  0  0  0  0  0  0  0  0  0
  -30.4420  -24.1440   20.3140 O   0  0  0  0  0  0  0  0  0  0  0  0
  -28.0930  -24.9280   20.3110 C   0  0  0  0  0  2  0  0  0  0  0  0
  -28.4200  -26.4020   20.1980 O   0  0  0  0  0  0  0  0  0  0  0  0
  -24.6120  -31.8330   23.1910 C   0  0  0  0  0  0  0  0  0  0  0  0
  -27.3220  -27.2970   20.1370 C   0  0  0  0  0  0  0  0  0  0  0  0
  -23.4520  -30.4360   21.5210 C   0  0  0  0  0  3  0  0  0  0  0  0
  -24.9450  -28.9190   20.0980 C   0  0  0  0  0  0  0  0  0  0  0  0
  -25.9930  -30.7780   21.3790 C   0  0  0  0  0  2  0  0  0  0  0  0
  -26.1020  -29.4020   20.7210 C   0  0  0  0  0  0  0  0  0  0  0  0
  -27.2940  -28.6060   20.7280 C   0  0  0  0  0  3  0  0  0  0  0  0
  -26.1430  -26.8940   19.4670 C   0  0  0  0  0  3  0  0  0  0  0  0
  -24.9720  -27.6720   19.4570 C   0  0  0  0  0  3  0  0  0  0  0  0
  -23.6950  -29.7780   20.1370 C   0  0  0  0  0  2  0  0  0  0  0  0
  -24.7050  -31.0350   22.0870 N   0  0  0  0  0  0  0  0  0  0  0  0
  -23.5180  -32.0920   23.7120 O   0  0  0  0  0  0  0  0  0  0  0  0
  -22.7860  -29.4040   22.4620 C   0  0  0  0  0  0  0  0  0  0  0  0
  -21.4600  -29.2260   22.3260 N   0  0  0  0  0  0  0  0  0  0  0  0
  -23.4610  -28.7650   23.2730 O   0  0  0  0  0  0  0  0  0  0  0  0
  -20.9730  -29.7910   21.6460 H   0  0  0  0  0  0  0  0  0  0  0  0
  -18.0790  -28.0310   22.8180 C   0  0  0  0  0  0  0  0  0  0  0  0
  -20.6410  -28.2720   23.0780 C   0  0  0  0  0  3  0  0  0  0  0  0
  -20.7320  -26.8560   22.4650 C   0  0  0  0  0  2  0  0  0  0  0  0
  -19.6210  -26.5650   21.4500 C   0  0  0  0  0  2  0  0  0  0  0  0
  -18.2460  -26.6980   22.1070 C   0  0  0  0  0  2  0  0  0  0  0  0
  -19.2040  -28.7770   23.2600 C   0  0  0  0  0  0  0  0  0  0  0  0
  -18.9940  -30.0230   23.8880 C   0  0  0  0  0  3  0  0  0  0  0  0
  -17.6930  -30.5260   24.0760 C   0  0  0  0  0  3  0  0  0  0  0  0
  -16.5820  -29.7770   23.6500 C   0  0  0  0  0  3  0  0  0  0  0  0
  -16.7760  -28.5300   23.0270 C   0  0  0  0  0  3  0  0  0  0  0  0
  -25.8780  -32.4760   23.8380 C   0  0  0  0  0  3  0  0  0  0  0  0
  -25.5500  -33.8720   24.1650 N   0  0  0  0  0  0  0  0  0  0  0  0
  -25.8870  -34.9290   23.4130 C   0  0  0  0  0  0  0  0  0  0  0  0
  -26.5740  -34.8330   22.3920 O   0  0  0  0  0  0  0  0  0  0  0  0
  -24.9440  -34.0210   24.9570 H   0  0  0  0  0  0  0  0  0  0  0  0
  -24.1500  -36.7110   23.0350 C   0  0  0  0  0  1  0  0  0  0  0  0
  -25.3820  -36.3130   23.8650 C   0  0  0  0  0  3  0  0  0  0  0  0
  -27.4930  -37.2160   24.7360 C   0  0  0  0  0  1  0  0  0  0  0  0
  -26.4080  -37.3740   23.7710 N   0  0  0  0  0  0  0  0  0  0  0  0
  -25.9920  -38.2910   23.9080 H   0  0  0  0  0  0  0  0  0  0  0  0
  -26.3740  -31.7070   25.1240 C   0  0  1  0  0  0  0  0  0  0  0  0
  -25.2620  -31.4590   26.1690 C   0  0  0  0  0  1  0  0  0  0  0  0
  -26.9790  -30.3360   24.7450 C   0  0  0  0  0  1  0  0  0  0  0  0
  -27.5040  -32.5130   25.8100 C   0  0  0  0  0  1  0  0  0  0  0  0
  2  1  1  0
  2  6  1  0
  3 48  1  0
  3  1  2  0
  4 45  1  0
  4  2  2  0
  5  4  1  0
  5  3  1  0
  6  7  2  0
  7  8  1  0
  9 15  1  0
  9  6  1  0
 10 15  1  0
 11 12  1  0
 11 10  1  0
 13 12  1  0
 13 20  1  0
 13 14  1  0
 15 14  1  0
 16  9  2  0
 17 18  2  0
 18 37  1  0
 19 18  1  0
 19 22  1  0
 20 21  1  0
 20 17  1  0
 21 19  2  0
 22 23  1  0
 23 24  2  0
 25 28  1  0
 25 24  1  0
 26 25  2  0
 27 26  1  0
 27 22  2  0
 28 29  1  0
 29 30  1  0
 30 31  2  0
 32 31  1  0
 32 36  1  0
 33 32  2  0
 34 29  2  0
 34 33  1  0
 35 34  1  0
 37 38  1  0
 38 41  1  0
 38 40  1  0
 39 37  2  0
 42 17  1  0
 42 44  1  0
 42 43  1  0
 45 47  1  0
 45 46  1  0
 48 49  1  0
 50 48  1  0
 50 51  1  0
 51 53  1  0
 51 52  2  0
 54 53  1  0
 55 66  2  0
 56 54  1  0
 56 61  1  0
 57 65  1  0
 57 67  1  0
 58 64  1  0
 58 60  1  0
 59 65  1  0
 60 61  2  0
 60 59  1  0
 62 56  2  0
 63 62  1  0
 63 58  2  0
 64 57  1  0
 65 55  1  0
 67 69  2  0
 68 67  1  0
 70 68  1  0
 71 80  2  0
 71 76  1  0
 72 68  1  0
 72 76  1  0
 73 72  1  0
 74 75  1  0
 74 73  1  0
 75 71  1  0
 76 77  2  0
 77 78  1  0
 79 78  2  0
 80 79  1  0
 81 55  1  0
 81 82  1  0
 81 91  1  0
 82 85  1  0
 83 87  1  0
 83 82  1  0
 84 83  2  0
 87 86  1  0
 89 87  1  0
 89 90  1  0
 89 88  1  0
 91 94  1  1
 91 92  1  0
 93 91  1  0
M  ISO  4   6 100   9 100  53 101  54 101
M  END
>  <TORSDO>  (50) 
F 22

>  <SCORE>  (50) 
-13.234

>  <name>  (50) 
49

>  <ligand_id>  (50) 
49

>  <original_smiles>  (50) 
[H]N=C(C(=O)N1C([H])([H])C([H])([H])C([H])([H])C([H])(n2nc(-c3c([H])c([H])c(Oc4c([H])c([H])c(F)c([H])c4F)c([H])c3[H])c(C(=O)N([H])[H])c2N([H])[H])C1([H])[H])c1c(N([H])[H])sc(N([H])C([H])([H])C(=O)C([H])([H])Oc2c([H])c([H])c3c(c2[H])C([H])([H])N(C(=O)C([H])(N([H])C(=O)C([H])(N([H])C([H])([H])[H])C([H])([H])[H])C(C([H])([H])[H])(C([H])([H])[H])C([H])([H])[H])C([H])(C(=O)N([H])C2([H])c4c([H])c([H])c([H])c([H])c4C([H])([H])C([H])([H])C2([H])[H])C3([H])[H])c1[H]

>  <smiles>  (50) 
[H]N=C(C(=O)N1C([H])([H])C([H])([H])C([H])([H])C([H])(n2nc(-c3c([H])c([H])c(Oc4c([H])c([H])c(F)c([H])c4F)c([H])c3[H])c(C(=O)N([H])[H])c2N([H])[H])C1([H])[H])c1c(N([H])[H])sc(N([H])C([H])([H])C(=O)C([H])([H])Oc2c([H])c([H])c3c(c2[H])C([H])([H])N(C(=O)C([H])(N([H])C(=O)C([H])(N([H])C([H])([H])[H])C([H])([H])[H])C(C([H])([H])[H])(C([H])([H])[H])C([H])([H])[H])C([H])(C(=O)N([H])C2([H])c4c([H])c([H])c([H])c([H])c4C([H])([H])C([H])([H])C2([H])[H])C3([H])[H])c1[H]

$$$$
50:0:0
     RDKit          3D

 93101  0  0  1  0  0  0  0  0999 V2000
  -28.6870  -22.8930   20.8720 C   0  0  0  0  0  0  0  0  0  0  0  0
  -27.7540  -22.6910   21.6590 O   0  0  0  0  0  0  0  0  0  0  0  0
  -28.2120  -25.3340   20.6670 C   0  0  0  0  0  3  0  0  0  0  0  0
  -28.9810  -24.2670   20.3340 C   0  0  0  0  0  0  0  0  0  0  0  0
  -30.0260  -24.4050   19.5070 O   0  0  0  0  0  0  0  0  0  0  0  0
  -30.0640  -25.3230   19.2690 H   0  0  0  0  0  0  0  0  0  0  0  0
  -28.3910  -26.6320   20.2070 O   0  0  0  0  0  0  0  0  0  0  0  0
  -24.6080  -31.8950   23.2350 C   0  0  0  0  0  0  0  0  0  0  0  0
  -27.2580  -27.4270   20.1760 C   0  0  0  0  0  0  0  0  0  0  0  0
  -23.4090  -30.4900   21.5900 C   0  0  0  0  0  3  0  0  0  0  0  0
  -24.8700  -28.9540   20.1670 C   0  0  0  0  0  0  0  0  0  0  0  0
  -25.9370  -30.8460   21.4020 C   0  0  0  0  0  2  0  0  0  0  0  0
  -26.0280  -29.4720   20.7610 C   0  0  0  0  0  0  0  0  0  0  0  0
  -27.2280  -28.7170   20.7600 C   0  0  0  0  0  3  0  0  0  0  0  0
  -26.0840  -26.9350   19.5640 C   0  0  0  0  0  3  0  0  0  0  0  0
  -24.8940  -27.6860   19.5620 C   0  0  0  0  0  3  0  0  0  0  0  0
  -23.6240  -29.8100   20.2110 C   0  0  0  0  0  2  0  0  0  0  0  0
  -24.6690  -31.0930   22.1320 N   0  0  0  0  0  0  0  0  0  0  0  0
  -23.5260  -32.1670   23.7710 O   0  0  0  0  0  0  0  0  0  0  0  0
  -22.7550  -29.4700   22.5500 C   0  0  0  0  0  0  0  0  0  0  0  0
  -21.4290  -29.2940   22.4280 N   0  0  0  0  0  0  0  0  0  0  0  0
  -23.4380  -28.8390   23.3620 O   0  0  0  0  0  0  0  0  0  0  0  0
  -20.9400  -29.8560   21.7440 H   0  0  0  0  0  0  0  0  0  0  0  0
  -18.0510  -28.1120   22.9320 C   0  0  0  0  0  0  0  0  0  0  0  0
  -20.6100  -28.3580   23.1990 C   0  0  0  0  0  3  0  0  0  0  0  0
  -20.7060  -26.9280   22.6190 C   0  0  0  0  0  2  0  0  0  0  0  0
  -19.6000  -26.6130   21.6070 C   0  0  0  0  0  2  0  0  0  0  0  0
  -18.2210  -26.7620   22.2540 C   0  0  0  0  0  2  0  0  0  0  0  0
  -19.1740  -28.8680   23.3610 C   0  0  0  0  0  0  0  0  0  0  0  0
  -18.9620  -30.1310   23.9560 C   0  0  0  0  0  3  0  0  0  0  0  0
  -17.6590  -30.6360   24.1260 C   0  0  0  0  0  3  0  0  0  0  0  0
  -16.5510  -29.8760   23.7140 C   0  0  0  0  0  3  0  0  0  0  0  0
  -16.7480  -28.6170   23.1220 C   0  0  0  0  0  3  0  0  0  0  0  0
  -25.8920  -32.5280   23.8560 C   0  0  0  0  0  3  0  0  0  0  0  0
  -25.5810  -33.9260   24.1840 N   0  0  0  0  0  0  0  0  0  0  0  0
  -25.9160  -34.9770   23.4240 C   0  0  0  0  0  0  0  0  0  0  0  0
  -26.5900  -34.8730   22.3950 O   0  0  0  0  0  0  0  0  0  0  0  0
  -24.9860  -34.0820   24.9840 H   0  0  0  0  0  0  0  0  0  0  0  0
  -24.1910  -36.7700   23.0560 C   0  0  0  0  0  1  0  0  0  0  0  0
  -25.4250  -36.3670   23.8770 C   0  0  0  0  0  3  0  0  0  0  0  0
  -27.5550  -37.2510   24.7220 C   0  0  0  0  0  1  0  0  0  0  0  0
  -26.4590  -37.4190   23.7710 N   0  0  0  0  0  0  0  0  0  0  0  0
  -26.0520  -38.3390   23.9160 H   0  0  0  0  0  0  0  0  0  0  0  0
  -26.4100  -31.7580   25.1330 C   0  0  1  0  0  0  0  0  0  0  0  0
  -25.3180  -31.5210   26.2020 C   0  0  0  0  0  1  0  0  0  0  0  0
  -26.9950  -30.3810   24.7420 C   0  0  0  0  0  1  0  0  0  0  0  0
  -27.5590  -32.5550   25.7960 C   0  0  0  0  0  1  0  0  0  0  0  0
  -29.5420  -21.6610   20.4520 C   0  0  0  0  0  2  0  0  0  0  0  0
  -29.0350  -20.3860   21.0010 N   0  0  0  0  0  0  0  0  0  0  0  0
  -28.2060  -20.4960   21.5830 H   0  0  0  0  0  0  0  0  0  0  0  0
  -29.1490  -17.9170   21.1490 C   0  0  0  0  0  3  0  0  0  0  0  0
  -31.0090  -17.6690   19.9050 C   0  0  0  0  0  3  0  0  0  0  0  0
  -30.0620  -16.9590   20.6020 C   0  0  0  0  0  0  0  0  0  0  0  0
  -29.6140  -19.1370   20.7260 C   0  0  0  0  0  0  0  0  0  0  0  0
  -30.7400  -19.0170   19.9700 O   0  0  0  0  0  0  0  0  0  0  0  0
  -30.6520  -14.5430   20.1610 C   0  0  0  0  0  0  0  0  0  0  0  0
  -30.3410  -12.3950   18.9810 C   0  0  0  0  0  2  0  0  0  0  0  0
  -29.3460  -12.6140   17.8210 C   0  0  0  0  0  2  0  0  0  0  0  0
  -27.8890  -12.4670   18.3060 C   0  0  0  0  0  2  0  0  0  0  0  0
  -27.6020  -13.2700   19.6010 C   0  0  0  0  0  3  0  0  0  0  0  0
  -28.7010  -13.0210   20.6590 C   0  0  0  0  0  2  0  0  0  0  0  0
  -30.0020  -13.3490   20.0500 N   0  0  0  0  0  0  0  0  0  0  0  0
  -31.7620  -14.7410   19.6570 O   0  0  0  0  0  0  0  0  0  0  0  0
  -29.9410  -15.5320   20.7530 N   0  0  0  0  0  0  0  0  0  0  0  0
  -29.0980  -15.2110   21.2040 H   0  0  0  0  0  0  0  0  0  0  0  0
  -25.2290  -13.8630   20.4000 C   0  0  0  0  0  0  0  0  0  0  0  0
  -24.1770  -13.0850   20.8020 C   0  0  0  0  0  0  0  0  0  0  0  0
  -24.6420  -11.7350   20.7460 C   0  0  0  0  0  0  0  0  0  0  0  0
  -26.2670  -12.9870   20.1250 N   0  0  0  0  0  0  0  0  0  0  0  0
  -25.9190  -11.7020   20.3900 N   0  0  0  0  0  0  0  0  0  0  0  0
  -23.9260  -10.4690   20.9570 C   0  0  0  0  0  0  0  0  0  0  0  0
  -24.3810   -9.5120   21.8900 C   0  0  0  0  0  3  0  0  0  0  0  0
  -23.6680   -8.3090   22.0870 C   0  0  0  0  0  3  0  0  0  0  0  0
  -22.4850   -8.0560   21.3510 C   0  0  0  0  0  0  0  0  0  0  0  0
  -22.0500   -9.0040   20.4080 C   0  0  0  0  0  3  0  0  0  0  0  0
  -22.7630  -10.1980   20.2100 C   0  0  0  0  0  3  0  0  0  0  0  0
  -21.7430   -6.9050   21.4570 O   0  0  0  0  0  0  0  0  0  0  0  0
  -21.6990   -6.1820   22.6210 C   0  0  0  0  0  0  0  0  0  0  0  0
  -21.2660   -6.7540   23.8370 C   0  0  0  0  0  3  0  0  0  0  0  0
  -21.1700   -5.9570   24.9950 C   0  0  0  0  0  3  0  0  0  0  0  0
  -21.4960   -4.5900   24.9380 C   0  0  0  0  0  0  0  0  0  0  0  0
  -21.9230   -4.0160   23.7270 C   0  0  0  0  0  3  0  0  0  0  0  0
  -22.0210   -4.8110   22.5710 C   0  0  0  0  0  0  0  0  0  0  0  0
  -22.4110   -4.2490   21.4020 F   0  0  0  0  0  0  0  0  0  0  0  0
  -21.3970   -3.8220   26.0480 F   0  0  0  0  0  0  0  0  0  0  0  0
  -22.7880  -13.5560   21.1260 C   0  0  0  0  0  0  0  0  0  0  0  0
  -22.0940  -12.8540   22.0140 N   0  0  0  0  0  0  0  0  0  0  0  0
  -22.3300  -14.5830   20.6290 O   0  0  0  0  0  0  0  0  0  0  0  0
  -22.4780  -12.0240   22.4410 H   0  0  0  0  0  0  0  0  0  0  0  0
  -21.1650  -13.1560   22.2730 H   0  0  0  0  0  0  0  0  0  0  0  0
  -25.3830  -15.2360   20.2280 N   0  0  0  0  0  0  0  0  0  0  0  0
  -24.6240  -15.8890   20.3840 H   0  0  0  0  0  0  0  0  0  0  0  0
  -26.2180  -15.6790   19.8640 H   0  0  0  0  0  0  0  0  0  0  0  0
  1  2  2  0
  4  3  2  0
  4  1  1  0
  5  4  1  0
  6  5  1  0
  7  3  1  0
  8 19  2  0
  9  7  1  0
  9 14  1  0
 10 18  1  0
 10 20  1  0
 11 17  1  0
 11 13  1  0
 12 18  1  0
 13 12  1  0
 14 13  2  0
 15  9  2  0
 16 15  1  0
 16 11  2  0
 17 10  1  0
 18  8  1  0
 20 22  2  0
 21 20  1  0
 23 21  1  0
 24 33  2  0
 24 29  1  0
 25 21  1  0
 25 29  1  0
 26 25  1  0
 27 28  1  0
 27 26  1  0
 28 24  1  0
 29 30  2  0
 30 31  1  0
 32 31  2  0
 33 32  1  0
 34  8  1  0
 34 35  1  0
 34 44  1  0
 35 38  1  0
 36 40  1  0
 36 35  1  0
 37 36  2  0
 40 39  1  0
 42 40  1  0
 42 43  1  0
 42 41  1  0
 44 47  1  1
 44 45  1  0
 46 44  1  0
 48  1  1  0
 48 49  1  0
 49 50  1  0
 52 55  1  0
 52 53  2  0
 53 64  1  0
 53 51  1  0
 54 49  1  0
 54 51  2  0
 55 54  1  0
 56 64  1  0
 57 62  1  0
 58 59  1  0
 58 57  1  0
 60 59  1  0
 60 69  1  0
 60 61  1  0
 62 56  1  0
 62 61  1  0
 63 56  2  0
 64 65  1  0
 66 67  2  0
 67 86  1  0
 68 67  1  0
 68 71  1  0
 69 70  1  0
 69 66  1  0
 70 68  2  0
 71 72  1  0
 72 73  2  0
 74 77  1  0
 74 73  1  0
 75 74  2  0
 76 75  1  0
 76 71  2  0
 77 78  1  0
 78 79  1  0
 79 80  2  0
 81 80  1  0
 81 85  1  0
 82 81  2  0
 83 78  2  0
 83 82  1  0
 84 83  1  0
 86 87  1  0
 87 90  1  0
 87 89  1  0
 88 86  2  0
 91 92  1  0
 91 66  1  0
 93 91  1  0
M  ISO  4   3 101   7 101  56 100  64 100
M  END
>  <TORSDO>  (51) 
F 21

>  <SCORE>  (51) 
-13.656

>  <name>  (51) 
50

>  <ligand_id>  (51) 
50

>  <original_smiles>  (51) 
[H]OC(C(=O)C([H])([H])N([H])c1oc([H])c(N([H])C(=O)N2C([H])([H])C([H])([H])C([H])([H])C([H])(n3nc(-c4c([H])c([H])c(Oc5c([H])c([H])c(F)c([H])c5F)c([H])c4[H])c(C(=O)N([H])[H])c3N([H])[H])C2([H])[H])c1[H])=C([H])Oc1c([H])c([H])c2c(c1[H])C([H])([H])N(C(=O)C([H])(N([H])C(=O)C([H])(N([H])C([H])([H])[H])C([H])([H])[H])C(C([H])([H])[H])(C([H])([H])[H])C([H])([H])[H])C([H])(C(=O)N([H])C1([H])c3c([H])c([H])c([H])c([H])c3C([H])([H])C([H])([H])C1([H])[H])C2([H])[H]

>  <smiles>  (51) 
[H]OC(C(=O)C([H])([H])N([H])c1oc([H])c(N([H])C(=O)N2C([H])([H])C([H])([H])C([H])([H])C([H])(n3nc(-c4c([H])c([H])c(Oc5c([H])c([H])c(F)c([H])c5F)c([H])c4[H])c(C(=O)N([H])[H])c3N([H])[H])C2([H])[H])c1[H])=C([H])Oc1c([H])c([H])c2c(c1[H])C([H])([H])N(C(=O)C([H])(N([H])C(=O)C([H])(N([H])C([H])([H])[H])C([H])([H])[H])C(C([H])([H])[H])(C([H])([H])[H])C([H])([H])[H])C([H])(C(=O)N([H])C1([H])c3c([H])c([H])c([H])c([H])c3C([H])([H])C([H])([H])C1([H])[H])C2([H])[H]

$$$$
51:0:0
     RDKit          3D

 94103  0  0  1  0  0  0  0  0999 V2000
  -29.0570  -24.0550   18.6640 C   0  0  0  0  0  3  0  0  0  0  0  0
  -28.9900  -24.0400   20.0100 C   0  0  0  0  0  0  0  0  0  0  0  0
  -29.5260  -22.8700   17.8310 C   0  0  0  0  0  2  0  0  0  0  0  0
  -29.4020  -22.7560   20.7900 C   0  0  0  0  0  2  0  0  0  0  0  0
  -29.5750  -21.5440   18.6250 C   0  0  0  0  0  2  0  0  0  0  0  0
  -30.1770  -21.7590   19.9600 N   0  0  2  0  0  4  0  0  0  0  0  0
  -31.0190  -22.2740   19.7500 H   0  0  0  0  0  0  0  0  0  0  0  0
  -32.2650  -20.4990   20.3950 C   0  0  0  0  0  1  0  0  0  0  0  0
  -30.7500  -20.5440   20.6620 C   0  0  0  0  0  3  0  0  0  0  0  0
  -30.7080  -17.8890   20.4400 C   0  0  0  0  0  3  0  0  0  0  0  0
  -28.4610  -17.2520   20.5110 C   0  0  0  0  0  3  0  0  0  0  0  0
  -29.7570  -16.8040   20.5020 C   0  0  0  0  0  0  0  0  0  0  0  0
  -30.1110  -19.1540   20.4630 C   0  0  0  0  0  0  0  0  0  0  0  0
  -28.3720  -18.9920   20.4510 S   0  0  0  0  0  0  0  0  0  0  0  0
  -30.7140  -14.4580   20.0230 C   0  0  0  0  0  0  0  0  0  0  0  0
  -30.4280  -12.2470   18.9220 C   0  0  0  0  0  2  0  0  0  0  0  0
  -29.4060  -12.4060   17.7710 C   0  0  0  0  0  2  0  0  0  0  0  0
  -27.9550  -12.2820   18.2820 C   0  0  0  0  0  2  0  0  0  0  0  0
  -27.6940  -13.1470   19.5430 C   0  0  0  0  0  3  0  0  0  0  0  0
  -28.8040  -12.9070   20.5910 C   0  0  0  0  0  2  0  0  0  0  0  0
  -30.0990  -13.2370   19.9620 N   0  0  0  0  0  0  0  0  0  0  0  0
  -31.7940  -14.6900   19.4700 O   0  0  0  0  0  0  0  0  0  0  0  0
  -29.9920  -15.3920   20.6970 N   0  0  0  0  0  0  0  0  0  0  0  0
  -29.2330  -14.9360   21.1790 H   0  0  0  0  0  0  0  0  0  0  0  0
  -25.3610  -13.8260   20.3910 C   0  0  0  0  0  0  0  0  0  0  0  0
  -24.2940  -13.0860   20.8230 C   0  0  0  0  0  0  0  0  0  0  0  0
  -24.7060  -11.7210   20.7490 C   0  0  0  0  0  0  0  0  0  0  0  0
  -26.3620  -12.9130   20.0930 N   0  0  0  0  0  0  0  0  0  0  0  0
  -25.9730  -11.6410   20.3640 N   0  0  0  0  0  0  0  0  0  0  0  0
  -23.9510  -10.4800   20.9690 C   0  0  0  0  0  0  0  0  0  0  0  0
  -24.4040   -9.4890   21.8660 C   0  0  0  0  0  3  0  0  0  0  0  0
  -23.6520   -8.3120   22.0720 C   0  0  0  0  0  3  0  0  0  0  0  0
  -22.4330   -8.1200   21.3810 C   0  0  0  0  0  0  0  0  0  0  0  0
  -21.9980   -9.0990   20.4720 C   0  0  0  0  0  3  0  0  0  0  0  0
  -22.7500  -10.2680   20.2630 C   0  0  0  0  0  3  0  0  0  0  0  0
  -21.6490   -6.9980   21.5000 O   0  0  0  0  0  0  0  0  0  0  0  0
  -21.6340   -6.2480   22.6490 C   0  0  0  0  0  0  0  0  0  0  0  0
  -21.2870   -6.8070   23.8980 C   0  0  0  0  0  3  0  0  0  0  0  0
  -21.2170   -5.9850   25.0420 C   0  0  0  0  0  3  0  0  0  0  0  0
  -21.4850   -4.6060   24.9360 C   0  0  0  0  0  0  0  0  0  0  0  0
  -21.8250   -4.0480   23.6910 C   0  0  0  0  0  3  0  0  0  0  0  0
  -21.8960   -4.8670   22.5500 C   0  0  0  0  0  0  0  0  0  0  0  0
  -22.2030   -4.3200   21.3490 F   0  0  0  0  0  0  0  0  0  0  0  0
  -21.4110   -3.8150   26.0300 F   0  0  0  0  0  0  0  0  0  0  0  0
  -22.9320  -13.6050   21.1800 C   0  0  0  0  0  0  0  0  0  0  0  0
  -22.2340  -12.9270   22.0850 N   0  0  0  0  0  0  0  0  0  0  0  0
  -22.4970  -14.6480   20.6910 O   0  0  0  0  0  0  0  0  0  0  0  0
  -22.6000  -12.0830   22.4990 H   0  0  0  0  0  0  0  0  0  0  0  0
  -21.3220  -13.2560   22.3650 H   0  0  0  0  0  0  0  0  0  0  0  0
  -25.5540  -15.1900   20.1990 N   0  0  0  0  0  0  0  0  0  0  0  0
  -24.7650  -15.8230   20.2580 H   0  0  0  0  0  0  0  0  0  0  0  0
  -26.2920  -15.5370   19.5990 H   0  0  0  0  0  0  0  0  0  0  0  0
  -28.4590  -25.2510   20.8260 C   0  0  0  0  0  2  0  0  0  0  0  0
  -28.5540  -26.5640   20.1930 O   0  0  0  0  0  0  0  0  0  0  0  0
  -24.6760  -31.7880   23.2320 C   0  0  0  0  0  0  0  0  0  0  0  0
  -27.4000  -27.3400   20.1910 C   0  0  0  0  0  0  0  0  0  0  0  0
  -23.5110  -30.3950   21.5540 C   0  0  0  0  0  3  0  0  0  0  0  0
  -25.0040  -28.8690   20.1490 C   0  0  0  0  0  0  0  0  0  0  0  0
  -26.0400  -30.7620   21.4050 C   0  0  0  0  0  2  0  0  0  0  0  0
  -26.1510  -29.3890   20.7630 C   0  0  0  0  0  0  0  0  0  0  0  0
  -27.3570  -28.6370   20.7730 C   0  0  0  0  0  3  0  0  0  0  0  0
  -26.2350  -26.8480   19.5660 C   0  0  0  0  0  3  0  0  0  0  0  0
  -25.0440  -27.6000   19.5430 C   0  0  0  0  0  3  0  0  0  0  0  0
  -23.7560  -29.7270   20.1750 C   0  0  0  0  0  2  0  0  0  0  0  0
  -24.7610  -30.9950   22.1250 N   0  0  0  0  0  0  0  0  0  0  0  0
  -23.5810  -32.0500   23.7520 O   0  0  0  0  0  0  0  0  0  0  0  0
  -22.8410  -29.3660   22.4930 C   0  0  0  0  0  0  0  0  0  0  0  0
  -21.5190  -29.1770   22.3340 N   0  0  0  0  0  0  0  0  0  0  0  0
  -23.5070  -28.7390   23.3200 O   0  0  0  0  0  0  0  0  0  0  0  0
  -21.0390  -29.7410   21.6470 H   0  0  0  0  0  0  0  0  0  0  0  0
  -18.1460  -27.9380   22.7250 C   0  0  0  0  0  0  0  0  0  0  0  0
  -20.6910  -28.2270   23.0780 C   0  0  0  0  0  3  0  0  0  0  0  0
  -20.8310  -26.7980   22.5030 C   0  0  0  0  0  2  0  0  0  0  0  0
  -19.7650  -26.4640   21.4550 C   0  0  0  0  0  2  0  0  0  0  0  0
  -18.3620  -26.5920   22.0530 C   0  0  0  0  0  2  0  0  0  0  0  0
  -19.2420  -28.7130   23.1920 C   0  0  0  0  0  0  0  0  0  0  0  0
  -18.9890  -29.9730   23.7760 C   0  0  0  0  0  3  0  0  0  0  0  0
  -17.6740  -30.4590   23.8990 C   0  0  0  0  0  3  0  0  0  0  0  0
  -16.5920  -29.6810   23.4500 C   0  0  0  0  0  3  0  0  0  0  0  0
  -16.8300  -28.4230   22.8690 C   0  0  0  0  0  3  0  0  0  0  0  0
  -25.9440  -32.4200   23.8860 C   0  0  0  0  0  3  0  0  0  0  0  0
  -26.4280  -31.6490   25.1740 C   0  0  1  0  0  0  0  0  0  0  0  0
  -25.3110  -31.4150   26.2150 C   0  0  0  0  0  1  0  0  0  0  0  0
  -27.0160  -30.2700   24.7900 C   0  0  0  0  0  1  0  0  0  0  0  0
  -27.5630  -32.4410   25.8670 C   0  0  0  0  0  1  0  0  0  0  0  0
  -25.6310  -33.8190   24.2060 N   0  0  0  0  0  0  0  0  0  0  0  0
  -25.9770  -34.8680   23.4480 C   0  0  0  0  0  0  0  0  0  0  0  0
  -26.6640  -34.7600   22.4270 O   0  0  0  0  0  0  0  0  0  0  0  0
  -25.0310  -33.9790   25.0010 H   0  0  0  0  0  0  0  0  0  0  0  0
  -24.2490  -36.6520   23.0590 C   0  0  0  0  0  1  0  0  0  0  0  0
  -25.4810  -36.2580   23.8910 C   0  0  0  0  0  3  0  0  0  0  0  0
  -27.6030  -37.1520   24.7420 C   0  0  0  0  0  1  0  0  0  0  0  0
  -26.5110  -37.3130   23.7840 N   0  0  0  0  0  0  0  0  0  0  0  0
  -26.1020  -38.2330   23.9240 H   0  0  0  0  0  0  0  0  0  0  0  0
  1  2  2  0
  2  4  1  0
  2 53  1  0
  3  5  1  0
  3  1  1  0
  5  6  1  0
  6  9  1  0
  6  4  1  0
  6  7  1  6
  9  8  1  0
 10 13  2  0
 10 12  1  0
 12 11  2  0
 12 23  1  0
 13  9  1  0
 14 13  1  0
 14 11  1  0
 15 23  1  0
 16 21  1  0
 17 18  1  0
 17 16  1  0
 19 18  1  0
 19 28  1  0
 19 20  1  0
 21 15  1  0
 21 20  1  0
 22 15  2  0
 23 24  1  0
 25 26  2  0
 26 45  1  0
 27 26  1  0
 27 30  1  0
 28 29  1  0
 28 25  1  0
 29 27  2  0
 30 31  1  0
 31 32  2  0
 33 36  1  0
 33 32  1  0
 34 33  2  0
 35 34  1  0
 35 30  2  0
 36 37  1  0
 37 38  1  0
 38 39  2  0
 40 39  1  0
 40 44  1  0
 41 40  2  0
 42 37  2  0
 42 41  1  0
 43 42  1  0
 45 46  1  0
 46 49  1  0
 46 48  1  0
 47 45  2  0
 50 51  1  0
 50 25  1  0
 52 50  1  0
 54 53  1  0
 55 66  2  0
 56 54  1  0
 56 61  1  0
 57 65  1  0
 57 67  1  0
 58 64  1  0
 58 60  1  0
 59 65  1  0
 60 61  2  0
 60 59  1  0
 62 56  2  0
 63 62  1  0
 63 58  2  0
 64 57  1  0
 65 55  1  0
 67 69  2  0
 68 67  1  0
 70 68  1  0
 71 80  2  0
 71 76  1  0
 72 68  1  0
 72 76  1  0
 73 72  1  0
 74 75  1  0
 74 73  1  0
 75 71  1  0
 76 77  2  0
 77 78  1  0
 79 78  2  0
 80 79  1  0
 81 55  1  0
 81 86  1  0
 81 82  1  0
 82 85  1  1
 82 83  1  0
 84 82  1  0
 86 89  1  0
 87 91  1  0
 87 86  1  0
 88 87  2  0
 91 90  1  0
 93 91  1  0
 93 94  1  0
 93 92  1  0
M  ISO  4  15 100  23 100  53 101  54 101
M  END
>  <TORSDO>  (52) 
F 19

>  <SCORE>  (52) 
-14.122

>  <name>  (52) 
51

>  <ligand_id>  (52) 
51

>  <original_smiles>  (52) 
[H]C1=C(C([H])([H])Oc2c([H])c([H])c3c(c2[H])C([H])([H])N(C(=O)C([H])(N([H])C(=O)C([H])(N([H])C([H])([H])[H])C([H])([H])[H])C(C([H])([H])[H])(C([H])([H])[H])C([H])([H])[H])C([H])(C(=O)N([H])C2([H])c4c([H])c([H])c([H])c([H])c4C([H])([H])C([H])([H])C2([H])[H])C3([H])[H])C([H])([H])[N+]([H])(C([H])(c2sc([H])c(N([H])C(=O)N3C([H])([H])C([H])([H])C([H])([H])C([H])(n4nc(-c5c([H])c([H])c(Oc6c([H])c([H])c(F)c([H])c6F)c([H])c5[H])c(C(=O)N([H])[H])c4N([H])[H])C3([H])[H])c2[H])C([H])([H])[H])C([H])([H])C1([H])[H]

>  <smiles>  (52) 
[H]C1=C(C([H])([H])Oc2c([H])c([H])c3c(c2[H])C([H])([H])N(C(=O)C([H])(N([H])C(=O)C([H])(N([H])C([H])([H])[H])C([H])([H])[H])C(C([H])([H])[H])(C([H])([H])[H])C([H])([H])[H])C([H])(C(=O)N([H])C2([H])c4c([H])c([H])c([H])c([H])c4C([H])([H])C([H])([H])C2([H])[H])C3([H])[H])C([H])([H])[N+]([H])(C([H])(c2sc([H])c(N([H])C(=O)N3C([H])([H])C([H])([H])C([H])([H])C([H])(n4nc(-c5c([H])c([H])c(Oc6c([H])c([H])c(F)c([H])c6F)c([H])c5[H])c(C(=O)N([H])[H])c4N([H])[H])C3([H])[H])c2[H])C([H])([H])[H])C([H])([H])C1([H])[H]

$$$$
52:0:0
     RDKit          3D

 91 99  0  0  1  0  0  0  0  0999 V2000
  -28.8050  -21.5710   19.8600 N   0  0  0  0  0  0  0  0  0  0  0  0
  -28.2510  -21.5210   19.0110 H   0  0  0  0  0  0  0  0  0  0  0  0
  -30.2080  -19.8840   21.3150 C   0  0  0  0  0  3  0  0  0  0  0  0
  -30.4820  -18.4440   21.3600 C   0  0  0  0  0  0  0  0  0  0  0  0
  -29.3450  -20.2080   20.2900 C   0  0  0  0  0  0  0  0  0  0  0  0
  -29.8320  -17.8080   20.3040 C   0  0  0  0  0  0  0  0  0  0  0  0
  -31.3070  -17.7910   22.4470 C   0  0  0  0  0  1  0  0  0  0  0  0
  -29.0880  -18.9070   19.6740 O   0  0  0  0  0  0  0  0  0  0  0  0
  -30.5060  -15.1690   19.9790 C   0  0  0  0  0  0  0  0  0  0  0  0
  -30.3940  -12.7970   18.9960 C   0  0  0  0  0  2  0  0  0  0  0  0
  -29.4000  -12.6880   17.8150 C   0  0  0  0  0  2  0  0  0  0  0  0
  -27.9640  -12.4480   18.3190 C   0  0  0  0  0  2  0  0  0  0  0  0
  -27.5950  -13.3780   19.5070 C   0  0  0  0  0  3  0  0  0  0  0  0
  -28.7060  -13.4220   20.5730 C   0  0  0  0  0  2  0  0  0  0  0  0
  -29.9230  -13.8920   19.9010 N   0  0  0  0  0  0  0  0  0  0  0  0
  -31.7120  -15.2210   19.7050 O   0  0  0  0  0  0  0  0  0  0  0  0
  -29.6860  -16.3630   20.0900 N   0  0  0  0  0  0  0  0  0  0  0  0
  -28.7170  -16.1040   19.9960 H   0  0  0  0  0  0  0  0  0  0  0  0
  -25.2670  -13.9470   20.3940 C   0  0  0  0  0  0  0  0  0  0  0  0
  -24.2240  -13.1710   20.8070 C   0  0  0  0  0  0  0  0  0  0  0  0
  -24.6800  -11.8190   20.7280 C   0  0  0  0  0  0  0  0  0  0  0  0
  -26.2900  -13.0710   20.0780 N   0  0  0  0  0  0  0  0  0  0  0  0
  -25.9520  -11.7820   20.3490 N   0  0  0  0  0  0  0  0  0  0  0  0
  -23.9570  -10.5570   20.9230 C   0  0  0  0  0  0  0  0  0  0  0  0
  -24.3860   -9.6010   21.8700 C   0  0  0  0  0  3  0  0  0  0  0  0
  -23.6590   -8.4070   22.0610 C   0  0  0  0  0  3  0  0  0  0  0  0
  -22.4910   -8.1560   21.3010 C   0  0  0  0  0  0  0  0  0  0  0  0
  -22.0810   -9.1030   20.3470 C   0  0  0  0  0  3  0  0  0  0  0  0
  -22.8070  -10.2890   20.1540 C   0  0  0  0  0  3  0  0  0  0  0  0
  -21.7400   -7.0080   21.3950 O   0  0  0  0  0  0  0  0  0  0  0  0
  -21.6400   -6.3090   22.5720 C   0  0  0  0  0  0  0  0  0  0  0  0
  -21.0760   -6.8840   23.7310 C   0  0  0  0  0  3  0  0  0  0  0  0
  -20.9170   -6.1070   24.8960 C   0  0  0  0  0  3  0  0  0  0  0  0
  -21.3200   -4.7590   24.9060 C   0  0  0  0  0  0  0  0  0  0  0  0
  -21.8840   -4.1860   23.7530 C   0  0  0  0  0  3  0  0  0  0  0  0
  -22.0380   -4.9580   22.5880 C   0  0  0  0  0  0  0  0  0  0  0  0
  -22.5550   -4.3910   21.4710 F   0  0  0  0  0  0  0  0  0  0  0  0
  -21.1670   -4.0120   26.0240 F   0  0  0  0  0  0  0  0  0  0  0  0
  -22.8460  -13.6480   21.1580 C   0  0  0  0  0  0  0  0  0  0  0  0
  -22.1510  -12.9350   22.0320 N   0  0  0  0  0  0  0  0  0  0  0  0
  -22.3980  -14.6980   20.6930 O   0  0  0  0  0  0  0  0  0  0  0  0
  -22.5250  -12.0880   22.4350 H   0  0  0  0  0  0  0  0  0  0  0  0
  -21.2330  -13.2490   22.3090 H   0  0  0  0  0  0  0  0  0  0  0  0
  -25.4200  -15.3220   20.2260 N   0  0  0  0  0  0  0  0  0  0  0  0
  -24.6510  -15.9670   20.3740 H   0  0  0  0  0  0  0  0  0  0  0  0
  -26.2110  -15.7610   19.7780 H   0  0  0  0  0  0  0  0  0  0  0  0
  -28.7380  -23.0180   20.5520 C   0  0  0  0  0  2  0  0  0  0  0  0
  -29.6470  -24.7850   18.9290 C   0  0  0  0  0  1  0  0  0  0  0  0
  -27.2960  -24.1250   18.7010 C   0  0  0  0  0  1  0  0  0  0  0  0
  -28.3690  -24.5220   19.7340 C   0  0  1  0  0  0  0  0  0  0  0  0
  -28.2090  -26.0410   20.3160 O   0  0  0  0  0  0  0  0  0  0  0  0
  -24.6420  -31.9340   23.2360 C   0  0  0  0  0  0  0  0  0  0  0  0
  -27.1670  -27.0840   20.2110 C   0  0  0  0  0  0  0  0  0  0  0  0
  -23.4350  -30.5300   21.6210 C   0  0  0  0  0  3  0  0  0  0  0  0
  -24.8660  -28.9360   20.2000 C   0  0  0  0  0  0  0  0  0  0  0  0
  -26.0020  -30.7520   21.4470 C   0  0  0  0  0  2  0  0  0  0  0  0
  -26.0660  -29.3540   20.7880 C   0  0  0  0  0  0  0  0  0  0  0  0
  -27.2120  -28.4490   20.7680 C   0  0  0  0  0  3  0  0  0  0  0  0
  -25.9180  -26.8080   19.6050 C   0  0  0  0  0  3  0  0  0  0  0  0
  -24.8100  -27.6770   19.6010 C   0  0  0  0  0  3  0  0  0  0  0  0
  -23.6460  -29.8460   20.2490 C   0  0  0  0  0  2  0  0  0  0  0  0
  -24.7150  -31.0960   22.1550 N   0  0  0  0  0  0  0  0  0  0  0  0
  -23.5560  -32.2300   23.7590 O   0  0  0  0  0  0  0  0  0  0  0  0
  -22.7480  -29.5360   22.5900 C   0  0  0  0  0  0  0  0  0  0  0  0
  -21.4220  -29.3550   22.4560 N   0  0  0  0  0  0  0  0  0  0  0  0
  -23.4150  -28.9250   23.4310 O   0  0  0  0  0  0  0  0  0  0  0  0
  -20.9420  -29.8850   21.7420 H   0  0  0  0  0  0  0  0  0  0  0  0
  -18.0410  -28.1440   22.9630 C   0  0  0  0  0  0  0  0  0  0  0  0
  -20.5990  -28.4240   23.2320 C   0  0  0  0  0  3  0  0  0  0  0  0
  -20.7100  -26.9870   22.6730 C   0  0  0  0  0  2  0  0  0  0  0  0
  -19.6130  -26.6490   21.6590 C   0  0  0  0  0  2  0  0  0  0  0  0
  -18.2280  -26.7890   22.3000 C   0  0  0  0  0  2  0  0  0  0  0  0
  -19.1540  -28.9200   23.3840 C   0  0  0  0  0  0  0  0  0  0  0  0
  -18.9230  -30.1830   23.9680 C   0  0  0  0  0  3  0  0  0  0  0  0
  -17.6150  -30.6770   24.1280 C   0  0  0  0  0  3  0  0  0  0  0  0
  -16.5160  -29.9000   23.7220 C   0  0  0  0  0  3  0  0  0  0  0  0
  -16.7310  -28.6340   23.1480 C   0  0  0  0  0  3  0  0  0  0  0  0
  -25.9180  -32.5750   23.8570 C   0  0  0  0  0  3  0  0  0  0  0  0
  -26.4370  -31.8070   25.1370 C   0  0  1  0  0  0  0  0  0  0  0  0
  -25.3410  -31.5550   26.1990 C   0  0  0  0  0  1  0  0  0  0  0  0
  -27.0290  -30.4320   24.7540 C   0  0  0  0  0  1  0  0  0  0  0  0
  -27.5820  -32.6090   25.7980 C   0  0  0  0  0  1  0  0  0  0  0  0
  -25.5960  -33.9730   24.1960 N   0  0  0  0  0  0  0  0  0  0  0  0
  -25.9010  -35.0350   23.4380 C   0  0  0  0  0  0  0  0  0  0  0  0
  -26.5440  -34.9460   22.3910 O   0  0  0  0  0  0  0  0  0  0  0  0
  -25.0050  -34.1140   25.0010 H   0  0  0  0  0  0  0  0  0  0  0  0
  -24.1450  -36.8150   23.1510 C   0  0  0  0  0  1  0  0  0  0  0  0
  -25.4160  -36.4200   23.9180 C   0  0  0  0  0  3  0  0  0  0  0  0
  -27.5600  -37.3260   24.6980 C   0  0  0  0  0  1  0  0  0  0  0  0
  -26.4380  -37.4810   23.7760 N   0  0  0  0  0  0  0  0  0  0  0  0
  -26.0300  -38.3990   23.9270 H   0  0  0  0  0  0  0  0  0  0  0  0
  1  5  1  0
  1 47  1  0
  2  1  1  0
  3  4  1  0
  4  7  1  0
  5  3  2  0
  6  4  2  0
  8  5  1  0
  8  6  1  0
  9 17  1  0
 10 15  1  0
 11 12  1  0
 11 10  1  0
 13 12  1  0
 13 22  1  0
 13 14  1  0
 15  9  1  0
 15 14  1  0
 16  9  2  0
 17  6  1  0
 18 17  1  0
 19 20  2  0
 20 39  1  0
 21 20  1  0
 21 24  1  0
 22 23  1  0
 22 19  1  0
 23 21  2  0
 24 25  1  0
 25 26  2  0
 27 30  1  0
 27 26  1  0
 28 27  2  0
 29 28  1  0
 29 24  2  0
 30 31  1  0
 31 36  2  0
 31 32  1  0
 32 33  2  0
 33 34  1  0
 34 38  1  0
 35 34  2  0
 36 35  1  0
 37 36  1  0
 39 40  1  0
 40 43  1  0
 40 42  1  0
 41 39  2  0
 44 45  1  0
 44 19  1  0
 46 44  1  0
 50 48  1  6
 49 50  1  0
 50 51  1  0
 50 47  1  0
 52 63  2  0
 53 51  1  0
 53 58  1  0
 54 62  1  0
 54 64  1  0
 55 61  1  0
 55 57  1  0
 56 62  1  0
 57 56  1  0
 58 57  2  0
 59 53  2  0
 60 59  1  0
 60 55  2  0
 61 54  1  0
 62 52  1  0
 64 66  2  0
 65 64  1  0
 67 65  1  0
 68 77  2  0
 68 73  1  0
 69 65  1  0
 69 73  1  0
 70 69  1  0
 71 72  1  0
 71 70  1  0
 72 68  1  0
 73 74  2  0
 74 75  1  0
 76 75  2  0
 77 76  1  0
 78 52  1  0
 78 83  1  0
 78 79  1  0
 79 82  1  1
 79 80  1  0
 81 79  1  0
 83 86  1  0
 84 88  1  0
 84 83  1  0
 85 84  2  0
 88 87  1  0
 90 88  1  0
 90 91  1  0
 90 89  1  0
M  ISO  4   9 100  17 100  50 101  51 101
M  END
>  <TORSDO>  (53) 
F 19

>  <SCORE>  (53) 
-14.509

>  <name>  (53) 
52

>  <ligand_id>  (53) 
52

>  <original_smiles>  (53) 
[H]c1c([H])c([H])c2c(c1[H])C([H])([H])C([H])([H])C([H])([H])C2([H])N([H])C(=O)C1([H])N(C(=O)C([H])(N([H])C(=O)C([H])(N([H])C([H])([H])[H])C([H])([H])[H])C(C([H])([H])[H])(C([H])([H])[H])C([H])([H])[H])C([H])([H])c2c([H])c(OC(C([H])([H])[H])(C([H])([H])[H])C([H])([H])N([H])c3oc(N([H])C(=O)N4C([H])([H])C([H])([H])C([H])([H])C([H])(n5nc(-c6c([H])c([H])c(Oc7c([H])c([H])c(F)c([H])c7F)c([H])c6[H])c(C(=O)N([H])[H])c5N([H])[H])C4([H])[H])c(C([H])([H])[H])c3[H])c([H])c([H])c2C1([H])[H]

>  <smiles>  (53) 
[H]c1c([H])c([H])c2c(c1[H])C([H])([H])C([H])([H])C([H])([H])C2([H])N([H])C(=O)C1([H])N(C(=O)C([H])(N([H])C(=O)C([H])(N([H])C([H])([H])[H])C([H])([H])[H])C(C([H])([H])[H])(C([H])([H])[H])C([H])([H])[H])C([H])([H])c2c([H])c(OC(C([H])([H])[H])(C([H])([H])[H])C([H])([H])N([H])c3oc(N([H])C(=O)N4C([H])([H])C([H])([H])C([H])([H])C([H])(n5nc(-c6c([H])c([H])c(Oc7c([H])c([H])c(F)c([H])c7F)c([H])c6[H])c(C(=O)N([H])[H])c5N([H])[H])C4([H])[H])c(C([H])([H])[H])c3[H])c([H])c([H])c2C1([H])[H]

$$$$
53:0:0
     RDKit          3D

 92101  0  0  1  0  0  0  0  0999 V2000
  -28.4510  -22.9750   21.6340 C   0  0  0  0  0  2  0  0  0  0  0  0
  -28.8950  -21.4790   21.6320 C   0  0  0  0  0  2  0  0  0  0  0  0
  -28.9870  -22.3280   19.4420 C   0  0  0  0  0  2  0  0  0  0  0  0
  -28.9880  -23.6520   20.3490 C   0  0  2  0  0  0  0  0  0  0  0  0
  -30.4380  -24.1240   20.5660 C   0  0  0  0  0  1  0  0  0  0  0  0
  -29.1900  -21.0810   20.2590 N   0  0  0  0  0  0  0  0  0  0  0  0
  -29.4970  -18.4930   20.7090 C   0  0  0  0  0  3  0  0  0  0  0  0
  -29.5340  -19.6980   19.8450 C   0  0  0  0  0  0  0  0  0  0  0  0
  -29.9220  -19.3050   18.5770 C   0  0  0  0  0  0  0  0  0  0  0  0
  -29.9050  -17.2600   20.1510 C   0  0  0  0  0  0  0  0  0  0  0  0
  -30.0140  -20.1030   17.3120 C   0  0  0  0  0  1  0  0  0  0  0  0
  -30.3540  -17.5960   18.4950 S   0  0  0  0  0  0  0  0  0  0  0  0
  -30.6710  -14.8360   20.3530 C   0  0  0  0  0  0  0  0  0  0  0  0
  -30.5140  -12.5570   19.3570 C   0  0  0  0  0  2  0  0  0  0  0  0
  -29.5780  -12.6360   18.1290 C   0  0  0  0  0  2  0  0  0  0  0  0
  -28.1060  -12.4680   18.5470 C   0  0  0  0  0  2  0  0  0  0  0  0
  -27.7260  -13.3460   19.7690 C   0  0  0  0  0  3  0  0  0  0  0  0
  -28.7740  -13.2230   20.8950 C   0  0  0  0  0  2  0  0  0  0  0  0
  -30.0760  -13.5930   20.3230 N   0  0  0  0  0  0  0  0  0  0  0  0
  -31.8500  -14.9590   20.0010 O   0  0  0  0  0  0  0  0  0  0  0  0
  -29.8840  -15.9440   20.6550 N   0  0  0  0  0  0  0  0  0  0  0  0
  -29.0260  -15.6960   21.1270 H   0  0  0  0  0  0  0  0  0  0  0  0
  -25.3240  -13.9300   20.4600 C   0  0  0  0  0  0  0  0  0  0  0  0
  -24.2600  -13.1520   20.8220 C   0  0  0  0  0  0  0  0  0  0  0  0
  -24.7310  -11.8050   20.8110 C   0  0  0  0  0  0  0  0  0  0  0  0
  -26.3790  -13.0560   20.2470 N   0  0  0  0  0  0  0  0  0  0  0  0
  -26.0260  -11.7730   20.5210 N   0  0  0  0  0  0  0  0  0  0  0  0
  -24.0080  -10.5410   21.0050 C   0  0  0  0  0  0  0  0  0  0  0  0
  -24.4370   -9.5840   21.9480 C   0  0  0  0  0  3  0  0  0  0  0  0
  -23.7150   -8.3850   22.1310 C   0  0  0  0  0  3  0  0  0  0  0  0
  -22.5490   -8.1370   21.3680 C   0  0  0  0  0  0  0  0  0  0  0  0
  -22.1390   -9.0830   20.4110 C   0  0  0  0  0  3  0  0  0  0  0  0
  -22.8640  -10.2730   20.2260 C   0  0  0  0  0  3  0  0  0  0  0  0
  -21.7970   -6.9910   21.4600 O   0  0  0  0  0  0  0  0  0  0  0  0
  -21.7410   -6.2540   22.6170 C   0  0  0  0  0  0  0  0  0  0  0  0
  -21.3000   -6.8160   23.8360 C   0  0  0  0  0  3  0  0  0  0  0  0
  -21.1900   -6.0070   24.9830 C   0  0  0  0  0  3  0  0  0  0  0  0
  -21.5140   -4.6380   24.9160 C   0  0  0  0  0  0  0  0  0  0  0  0
  -21.9460   -4.0770   23.7010 C   0  0  0  0  0  3  0  0  0  0  0  0
  -22.0580   -4.8820   22.5560 C   0  0  0  0  0  0  0  0  0  0  0  0
  -22.4560   -4.3310   21.3840 F   0  0  0  0  0  0  0  0  0  0  0  0
  -21.4020   -3.8590   26.0170 F   0  0  0  0  0  0  0  0  0  0  0  0
  -22.8550  -13.6240   21.0710 C   0  0  0  0  0  0  0  0  0  0  0  0
  -22.1210  -12.9310   21.9320 N   0  0  0  0  0  0  0  0  0  0  0  0
  -22.4190  -14.6380   20.5300 O   0  0  0  0  0  0  0  0  0  0  0  0
  -22.4890  -12.1110   22.3900 H   0  0  0  0  0  0  0  0  0  0  0  0
  -21.1770  -13.2260   22.1400 H   0  0  0  0  0  0  0  0  0  0  0  0
  -25.4830  -15.3010   20.2770 N   0  0  0  0  0  0  0  0  0  0  0  0
  -24.7120  -15.9500   20.3950 H   0  0  0  0  0  0  0  0  0  0  0  0
  -26.3290  -15.7460   19.9470 H   0  0  0  0  0  0  0  0  0  0  0  0
  -28.1000  -24.9290   19.8280 C   0  0  0  0  0  2  0  0  0  0  0  0
  -28.2900  -26.3820   20.2270 O   0  0  0  0  0  0  0  0  0  0  0  0
  -24.5910  -31.8990   23.2270 C   0  0  0  0  0  0  0  0  0  0  0  0
  -27.2000  -27.2930   20.1510 C   0  0  0  0  0  0  0  0  0  0  0  0
  -23.3930  -30.4960   21.5930 C   0  0  0  0  0  3  0  0  0  0  0  0
  -24.8460  -28.9570   20.1510 C   0  0  0  0  0  0  0  0  0  0  0  0
  -25.9390  -30.8020   21.4130 C   0  0  0  0  0  2  0  0  0  0  0  0
  -26.0200  -29.4260   20.7530 C   0  0  0  0  0  0  0  0  0  0  0  0
  -27.1970  -28.6060   20.7450 C   0  0  0  0  0  3  0  0  0  0  0  0
  -26.0010  -26.9110   19.5030 C   0  0  0  0  0  3  0  0  0  0  0  0
  -24.8420  -27.7090   19.5160 C   0  0  0  0  0  3  0  0  0  0  0  0
  -23.6090  -29.8340   20.2090 C   0  0  0  0  0  2  0  0  0  0  0  0
  -24.6610  -31.0850   22.1320 N   0  0  0  0  0  0  0  0  0  0  0  0
  -23.5060  -32.1730   23.7610 O   0  0  0  0  0  0  0  0  0  0  0  0
  -22.7370  -29.4730   22.5520 C   0  0  0  0  0  0  0  0  0  0  0  0
  -21.4110  -29.2910   22.4300 N   0  0  0  0  0  0  0  0  0  0  0  0
  -23.4190  -28.8490   23.3700 O   0  0  0  0  0  0  0  0  0  0  0  0
  -20.9170  -29.8430   21.7430 H   0  0  0  0  0  0  0  0  0  0  0  0
  -18.0380  -28.0800   22.9470 C   0  0  0  0  0  0  0  0  0  0  0  0
  -20.5970  -28.3500   23.2040 C   0  0  0  0  0  3  0  0  0  0  0  0
  -20.7020  -26.9190   22.6250 C   0  0  0  0  0  2  0  0  0  0  0  0
  -19.5950  -26.5940   21.6170 C   0  0  0  0  0  2  0  0  0  0  0  0
  -18.2170  -26.7330   22.2670 C   0  0  0  0  0  2  0  0  0  0  0  0
  -19.1560  -28.8470   23.3710 C   0  0  0  0  0  0  0  0  0  0  0  0
  -18.9340  -30.1080   23.9660 C   0  0  0  0  0  3  0  0  0  0  0  0
  -17.6280  -30.6020   24.1440 C   0  0  0  0  0  3  0  0  0  0  0  0
  -16.5260  -29.8310   23.7360 C   0  0  0  0  0  3  0  0  0  0  0  0
  -16.7310  -28.5740   23.1430 C   0  0  0  0  0  3  0  0  0  0  0  0
  -25.8700  -32.5420   23.8460 C   0  0  0  0  0  3  0  0  0  0  0  0
  -25.5510  -33.9410   24.1740 N   0  0  0  0  0  0  0  0  0  0  0  0
  -25.8770  -34.9970   23.4170 C   0  0  0  0  0  0  0  0  0  0  0  0
  -26.5490  -34.8980   22.3870 O   0  0  0  0  0  0  0  0  0  0  0  0
  -24.9580  -34.0920   24.9770 H   0  0  0  0  0  0  0  0  0  0  0  0
  -24.1440  -36.7860   23.0630 C   0  0  0  0  0  1  0  0  0  0  0  0
  -25.3830  -36.3820   23.8780 C   0  0  0  0  0  3  0  0  0  0  0  0
  -27.5090  -37.2730   24.7230 C   0  0  0  0  0  1  0  0  0  0  0  0
  -26.4120  -37.4390   23.7720 N   0  0  0  0  0  0  0  0  0  0  0  0
  -26.0020  -38.3570   23.9260 H   0  0  0  0  0  0  0  0  0  0  0  0
  -26.3910  -31.7810   25.1270 C   0  0  1  0  0  0  0  0  0  0  0  0
  -25.2990  -31.5370   26.1960 C   0  0  0  0  0  1  0  0  0  0  0  0
  -26.9870  -30.4060   24.7440 C   0  0  0  0  0  1  0  0  0  0  0  0
  -27.5360  -32.5860   25.7880 C   0  0  0  0  0  1  0  0  0  0  0  0
  2  1  1  0
  3  6  1  0
  3  4  1  0
  4  5  1  1
  4  1  1  0
  6  2  1  0
  8  6  1  0
  8  7  1  0
  9  8  2  0
 10 21  1  0
 10  7  2  0
 11  9  1  0
 12  9  1  0
 12 10  1  0
 13 21  1  0
 14 19  1  0
 15 16  1  0
 15 14  1  0
 17 16  1  0
 17 26  1  0
 17 18  1  0
 19 13  1  0
 19 18  1  0
 20 13  2  0
 21 22  1  0
 23 24  2  0
 24 43  1  0
 25 24  1  0
 25 28  1  0
 26 23  1  0
 26 27  1  0
 27 25  2  0
 28 29  1  0
 29 30  2  0
 31 34  1  0
 31 30  1  0
 32 31  2  0
 33 32  1  0
 33 28  2  0
 34 35  1  0
 35 36  1  0
 36 37  2  0
 38 37  1  0
 38 42  1  0
 39 38  2  0
 40 35  2  0
 40 39  1  0
 41 40  1  0
 43 44  1  0
 44 47  1  0
 44 46  1  0
 45 43  2  0
 48 49  1  0
 48 23  1  0
 50 48  1  0
 51 52  1  0
 51  4  1  0
 53 64  2  0
 54 52  1  0
 54 59  1  0
 55 63  1  0
 55 65  1  0
 56 62  1  0
 56 58  1  0
 57 63  1  0
 58 57  1  0
 59 58  2  0
 60 61  1  0
 60 54  2  0
 61 56  2  0
 62 55  1  0
 63 53  1  0
 65 67  2  0
 66 65  1  0
 68 66  1  0
 69 78  2  0
 69 74  1  0
 70 66  1  0
 70 74  1  0
 71 70  1  0
 72 73  1  0
 72 71  1  0
 73 69  1  0
 74 75  2  0
 75 76  1  0
 77 76  2  0
 78 77  1  0
 79 53  1  0
 79 80  1  0
 79 89  1  0
 80 83  1  0
 81 85  1  0
 81 80  1  0
 82 81  2  0
 85 84  1  0
 87 85  1  0
 87 88  1  0
 87 86  1  0
 89 92  1  1
 89 90  1  0
 91 89  1  0
M  ISO  4  13 100  21 100  51 101  52 101
M  END
>  <TORSDO>  (54) 
F 18

>  <SCORE>  (54) 
-14.811

>  <name>  (54) 
53

>  <ligand_id>  (54) 
53

>  <original_smiles>  (54) 
[H]c1c([H])c([H])c2c(c1[H])C([H])([H])C([H])([H])C([H])([H])C2([H])N([H])C(=O)C1([H])N(C(=O)C([H])(N([H])C(=O)C([H])(N([H])C([H])([H])[H])C([H])([H])[H])C(C([H])([H])[H])(C([H])([H])[H])C([H])([H])[H])C([H])([H])c2c([H])c(OC([H])([H])C3(C([H])([H])[H])C([H])([H])N(c4c(C([H])([H])[H])sc(N([H])C(=O)N5C([H])([H])C([H])([H])C([H])([H])C([H])(n6nc(-c7c([H])c([H])c(Oc8c([H])c([H])c(F)c([H])c8F)c([H])c7[H])c(C(=O)N([H])[H])c6N([H])[H])C5([H])[H])c4[H])C([H])([H])C3([H])[H])c([H])c([H])c2C1([H])[H]

>  <smiles>  (54) 
[H]c1c([H])c([H])c2c(c1[H])C([H])([H])C([H])([H])C([H])([H])C2([H])N([H])C(=O)C1([H])N(C(=O)C([H])(N([H])C(=O)C([H])(N([H])C([H])([H])[H])C([H])([H])[H])C(C([H])([H])[H])(C([H])([H])[H])C([H])([H])[H])C([H])([H])c2c([H])c(OC([H])([H])C3(C([H])([H])[H])C([H])([H])N(c4c(C([H])([H])[H])sc(N([H])C(=O)N5C([H])([H])C([H])([H])C([H])([H])C([H])(n6nc(-c7c([H])c([H])c(Oc8c([H])c([H])c(F)c([H])c8F)c([H])c7[H])c(C(=O)N([H])[H])c6N([H])[H])C5([H])[H])c4[H])C([H])([H])C3([H])[H])c([H])c([H])c2C1([H])[H]

$$$$
54:0:0
     RDKit          3D

101109  0  0  1  0  0  0  0  0999 V2000
  -31.1880  -17.6100   19.2880 C   0  0  0  0  0  3  0  0  0  0  0  0
  -30.7120  -20.0220   19.2700 C   0  0  0  0  0  3  0  0  0  0  0  0
  -29.3420  -18.5020   20.5870 C   0  0  0  0  0  3  0  0  0  0  0  0
  -31.4830  -18.9190   18.8530 C   0  0  0  0  0  0  0  0  0  0  0  0
  -30.1200  -17.3330   20.1750 C   0  0  0  0  0  0  0  0  0  0  0  0
  -29.6160  -19.8730   20.1500 C   0  0  0  0  0  0  0  0  0  0  0  0
  -30.5910  -14.7520   20.3770 C   0  0  0  0  0  0  0  0  0  0  0  0
  -30.3680  -12.4820   19.3760 C   0  0  0  0  0  2  0  0  0  0  0  0
  -29.4450  -12.5740   18.1410 C   0  0  0  0  0  2  0  0  0  0  0  0
  -27.9710  -12.4120   18.5580 C   0  0  0  0  0  2  0  0  0  0  0  0
  -27.5940  -13.2950   19.7780 C   0  0  0  0  0  3  0  0  0  0  0  0
  -28.6430  -13.2000   20.9080 C   0  0  0  0  0  2  0  0  0  0  0  0
  -29.9450  -13.5380   20.3240 N   0  0  0  0  0  0  0  0  0  0  0  0
  -31.7910  -14.7990   20.0920 O   0  0  0  0  0  0  0  0  0  0  0  0
  -29.8410  -15.9140   20.5650 N   0  0  0  0  0  0  0  0  0  0  0  0
  -28.9120  -15.7430   20.9180 H   0  0  0  0  0  0  0  0  0  0  0  0
  -25.2010  -13.8890   20.4810 C   0  0  0  0  0  0  0  0  0  0  0  0
  -24.1330  -13.1170   20.8470 C   0  0  0  0  0  0  0  0  0  0  0  0
  -24.5950  -11.7660   20.8290 C   0  0  0  0  0  0  0  0  0  0  0  0
  -26.2460  -13.0080   20.2600 N   0  0  0  0  0  0  0  0  0  0  0  0
  -25.8890  -11.7260   20.5330 N   0  0  0  0  0  0  0  0  0  0  0  0
  -23.8680  -10.5040   21.0180 C   0  0  0  0  0  0  0  0  0  0  0  0
  -24.2850   -9.5450   21.9660 C   0  0  0  0  0  3  0  0  0  0  0  0
  -23.5550   -8.3490   22.1440 C   0  0  0  0  0  3  0  0  0  0  0  0
  -22.3940   -8.1050   21.3730 C   0  0  0  0  0  0  0  0  0  0  0  0
  -21.9940   -9.0550   20.4150 C   0  0  0  0  0  3  0  0  0  0  0  0
  -22.7260  -10.2420   20.2350 C   0  0  0  0  0  3  0  0  0  0  0  0
  -21.6370   -6.9620   21.4580 O   0  0  0  0  0  0  0  0  0  0  0  0
  -21.5660   -6.2310   22.6170 C   0  0  0  0  0  0  0  0  0  0  0  0
  -21.1160   -6.7980   23.8300 C   0  0  0  0  0  3  0  0  0  0  0  0
  -20.9920   -5.9930   24.9800 C   0  0  0  0  0  3  0  0  0  0  0  0
  -21.3090   -4.6230   24.9190 C   0  0  0  0  0  0  0  0  0  0  0  0
  -21.7540   -4.0560   23.7120 C   0  0  0  0  0  3  0  0  0  0  0  0
  -21.8790   -4.8580   22.5630 C   0  0  0  0  0  0  0  0  0  0  0  0
  -22.2870   -4.3020   21.3970 F   0  0  0  0  0  0  0  0  0  0  0  0
  -21.1850   -3.8480   26.0220 F   0  0  0  0  0  0  0  0  0  0  0  0
  -22.7330  -13.5970   21.0980 C   0  0  0  0  0  0  0  0  0  0  0  0
  -21.9910  -12.9040   21.9550 N   0  0  0  0  0  0  0  0  0  0  0  0
  -22.3030  -14.6230   20.5710 O   0  0  0  0  0  0  0  0  0  0  0  0
  -22.3510  -12.0740   22.4040 H   0  0  0  0  0  0  0  0  0  0  0  0
  -21.0520  -13.2080   22.1670 H   0  0  0  0  0  0  0  0  0  0  0  0
  -25.3660  -15.2590   20.2940 N   0  0  0  0  0  0  0  0  0  0  0  0
  -24.5910  -15.9070   20.3850 H   0  0  0  0  0  0  0  0  0  0  0  0
  -26.2030  -15.6930   19.9280 H   0  0  0  0  0  0  0  0  0  0  0  0
  -32.6120  -19.1350   17.9530 C   0  0  0  0  0  0  0  0  0  0  0  0
  -33.7830  -18.5520   18.1900 N   0  0  0  0  0  0  0  0  0  0  0  0
  -32.4870  -19.9190   16.8850 N   0  0  0  0  0  4  0  0  0  0  0  0
  -33.8960  -18.0000   19.0290 H   0  0  0  0  0  0  0  0  0  0  0  0
  -34.5870  -18.6670   17.5920 H   0  0  0  0  0  0  0  0  0  0  0  0
  -31.5820  -20.3070   16.6630 H   0  0  0  0  0  0  0  0  0  0  0  0
  -33.2470  -20.0930   16.2470 H   0  0  0  0  0  0  0  0  0  0  0  0
  -28.8820  -21.0700   20.5390 N   0  0  0  0  0  0  0  0  0  0  0  0
  -28.0910  -20.9690   21.1680 H   0  0  0  0  0  0  0  0  0  0  0  0
  -29.1030  -22.4650   19.9540 C   0  0  0  0  0  2  0  0  0  0  0  0
  -28.3710  -23.7960   20.5460 C   0  0  1  0  0  0  0  0  0  0  0  0
  -27.0530  -23.5890   20.5300 F   0  0  0  0  0  0  0  0  0  0  0  0
  -28.7470  -23.9120   21.8200 F   0  0  0  0  0  0  0  0  0  0  0  0
  -28.6710  -25.2210   19.8070 C   0  0  1  0  0  0  0  0  0  0  0  0
  -30.0170  -25.1580   19.6470 F   0  0  0  0  0  0  0  0  0  0  0  0
  -28.2020  -25.1680   18.5350 F   0  0  0  0  0  0  0  0  0  0  0  0
  -28.4320  -26.4970   20.3670 O   0  0  0  0  0  0  0  0  0  0  0  0
  -24.6030  -31.9090   23.2360 C   0  0  0  0  0  0  0  0  0  0  0  0
  -27.2710  -27.2930   20.2730 C   0  0  0  0  0  0  0  0  0  0  0  0
  -23.4250  -30.4840   21.5980 C   0  0  0  0  0  3  0  0  0  0  0  0
  -24.8960  -28.9130   20.2100 C   0  0  0  0  0  0  0  0  0  0  0  0
  -25.9650  -30.8040   21.4410 C   0  0  0  0  0  2  0  0  0  0  0  0
  -26.0550  -29.4130   20.8150 C   0  0  0  0  0  0  0  0  0  0  0  0
  -27.2390  -28.6140   20.8340 C   0  0  0  0  0  3  0  0  0  0  0  0
  -26.0810  -26.8420   19.6570 C   0  0  0  0  0  3  0  0  0  0  0  0
  -24.9140  -27.6350   19.6230 C   0  0  0  0  0  3  0  0  0  0  0  0
  -23.6590  -29.7880   20.2300 C   0  0  0  0  0  2  0  0  0  0  0  0
  -24.6830  -31.0860   22.1490 N   0  0  0  0  0  0  0  0  0  0  0  0
  -23.5110  -32.1890   23.7540 O   0  0  0  0  0  0  0  0  0  0  0  0
  -22.7530  -29.4810   22.5650 C   0  0  0  0  0  0  0  0  0  0  0  0
  -21.4280  -29.3060   22.4320 N   0  0  0  0  0  0  0  0  0  0  0  0
  -23.4250  -28.8620   23.3950 O   0  0  0  0  0  0  0  0  0  0  0  0
  -20.9460  -29.8570   21.7360 H   0  0  0  0  0  0  0  0  0  0  0  0
  -18.0420  -28.1340   22.9340 C   0  0  0  0  0  0  0  0  0  0  0  0
  -20.6020  -28.3760   23.2050 C   0  0  0  0  0  3  0  0  0  0  0  0
  -20.6930  -26.9420   22.6330 C   0  0  0  0  0  2  0  0  0  0  0  0
  -19.5900  -26.6250   21.6190 C   0  0  0  0  0  2  0  0  0  0  0  0
  -18.2090  -26.7810   22.2620 C   0  0  0  0  0  2  0  0  0  0  0  0
  -19.1650  -28.8890   23.3630 C   0  0  0  0  0  0  0  0  0  0  0  0
  -18.9550  -30.1550   23.9520 C   0  0  0  0  0  3  0  0  0  0  0  0
  -17.6530  -30.6650   24.1160 C   0  0  0  0  0  3  0  0  0  0  0  0
  -16.5440  -29.9070   23.7040 C   0  0  0  0  0  3  0  0  0  0  0  0
  -16.7400  -28.6430   23.1180 C   0  0  0  0  0  3  0  0  0  0  0  0
  -25.8750  -32.5560   23.8680 C   0  0  0  0  0  3  0  0  0  0  0  0
  -25.5530  -33.9560   24.1810 N   0  0  0  0  0  0  0  0  0  0  0  0
  -25.8950  -35.0050   23.4200 C   0  0  0  0  0  0  0  0  0  0  0  0
  -26.5810  -34.8950   22.4010 O   0  0  0  0  0  0  0  0  0  0  0  0
  -24.9450  -34.1140   24.9710 H   0  0  0  0  0  0  0  0  0  0  0  0
  -24.1740  -36.7960   23.0190 C   0  0  0  0  0  1  0  0  0  0  0  0
  -25.3970  -36.3960   23.8600 C   0  0  0  0  0  3  0  0  0  0  0  0
  -27.5120  -37.2890   24.7320 C   0  0  0  0  0  1  0  0  0  0  0  0
  -26.4320  -37.4490   23.7630 N   0  0  0  0  0  0  0  0  0  0  0  0
  -26.0220  -38.3700   23.8950 H   0  0  0  0  0  0  0  0  0  0  0  0
  -26.3780  -31.8020   25.1600 C   0  0  1  0  0  0  0  0  0  0  0  0
  -25.2730  -31.5700   26.2160 C   0  0  0  0  0  1  0  0  0  0  0  0
  -26.9730  -30.4230   24.7920 C   0  0  0  0  0  1  0  0  0  0  0  0
  -27.5180  -32.6080   25.8280 C   0  0  0  0  0  1  0  0  0  0  0  0
  1  5  1  0
  2  6  2  0
  4  2  1  0
  4  1  2  0
  5 15  1  0
  5  3  2  0
  6 52  1  0
  6  3  1  0
  7 15  1  0
  8 13  1  0
  9 10  1  0
  9  8  1  0
 11 10  1  0
 11 20  1  0
 11 12  1  0
 13  7  1  0
 13 12  1  0
 14  7  2  0
 15 16  1  0
 17 18  2  0
 18 37  1  0
 19 18  1  0
 19 22  1  0
 20 17  1  0
 20 21  1  0
 21 19  2  0
 22 23  1  0
 23 24  2  0
 25 28  1  0
 25 24  1  0
 26 25  2  0
 27 26  1  0
 27 22  2  0
 28 29  1  0
 29 30  1  0
 30 31  2  0
 32 31  1  0
 32 36  1  0
 33 32  2  0
 34 29  2  0
 34 33  1  0
 35 34  1  0
 37 38  1  0
 38 41  1  0
 38 40  1  0
 39 37  2  0
 42 43  1  0
 42 17  1  0
 44 42  1  0
 45 46  1  0
 45  4  1  0
 46 48  1  0
 47 45  2  0
 49 46  1  0
 50 47  1  0
 51 47  1  0
 52 53  1  0
 54 52  1  0
 54 55  1  0
 55 57  1  1
 56 55  1  0
 58 61  1  0
 58 55  1  0
 58 59  1  6
 60 58  1  0
 62 73  2  0
 63 61  1  0
 63 68  1  0
 64 72  1  0
 64 74  1  0
 65 71  1  0
 65 67  1  0
 66 72  1  0
 67 68  2  0
 67 66  1  0
 69 63  2  0
 70 69  1  0
 70 65  2  0
 71 64  1  0
 72 62  1  0
 74 76  2  0
 75 74  1  0
 77 75  1  0
 78 87  2  0
 78 83  1  0
 79 75  1  0
 79 83  1  0
 80 79  1  0
 81 82  1  0
 81 80  1  0
 82 78  1  0
 83 84  2  0
 84 85  1  0
 86 85  2  0
 87 86  1  0
 88 62  1  0
 88 89  1  0
 88 98  1  0
 89 92  1  0
 90 94  1  0
 90 89  1  0
 91 90  2  0
 94 93  1  0
 96 94  1  0
 96 97  1  0
 96 95  1  0
 98101  1  1
 98 99  1  0
100 98  1  0
M  ISO  4   7 100  15 100  58 101  61 101
M  END
>  <TORSDO>  (55) 
F 21

>  <SCORE>  (55) 
-13.698

>  <name>  (55) 
54

>  <ligand_id>  (55) 
54

>  <original_smiles>  (55) 
[H]c1c([H])c([H])c2c(c1[H])C([H])([H])C([H])([H])C([H])([H])C2([H])N([H])C(=O)C1([H])N(C(=O)C([H])(N([H])C(=O)C([H])(N([H])C([H])([H])[H])C([H])([H])[H])C(C([H])([H])[H])(C([H])([H])[H])C([H])([H])[H])C([H])([H])c2c([H])c(OC(F)(F)C(F)(F)C([H])([H])N([H])c3c([H])c(C(N([H])[H])=[N+]([H])[H])c([H])c(N([H])C(=O)N4C([H])([H])C([H])([H])C([H])([H])C([H])(n5nc(-c6c([H])c([H])c(Oc7c([H])c([H])c(F)c([H])c7F)c([H])c6[H])c(C(=O)N([H])[H])c5N([H])[H])C4([H])[H])c3[H])c([H])c([H])c2C1([H])[H]

>  <smiles>  (55) 
[H]c1c([H])c([H])c2c(c1[H])C([H])([H])C([H])([H])C([H])([H])C2([H])N([H])C(=O)C1([H])N(C(=O)C([H])(N([H])C(=O)C([H])(N([H])C([H])([H])[H])C([H])([H])[H])C(C([H])([H])[H])(C([H])([H])[H])C([H])([H])[H])C([H])([H])c2c([H])c(OC(F)(F)C(F)(F)C([H])([H])N([H])c3c([H])c(C(N([H])[H])=[N+]([H])[H])c([H])c(N([H])C(=O)N4C([H])([H])C([H])([H])C([H])([H])C([H])(n5nc(-c6c([H])c([H])c(Oc7c([H])c([H])c(F)c([H])c7F)c([H])c6[H])c(C(=O)N([H])[H])c5N([H])[H])C4([H])[H])c3[H])c([H])c([H])c2C1([H])[H]

$$$$
55:0:0
     RDKit          3D

 90 99  0  0  1  0  0  0  0  0999 V2000
  -30.0930  -17.5580   18.7840 C   0  0  0  0  0  3  0  0  0  0  0  0
  -29.8670  -17.3170   20.1220 C   0  0  0  0  0  0  0  0  0  0  0  0
  -29.5230  -19.6950   20.0080 C   0  0  0  0  0  0  0  0  0  0  0  0
  -28.5230  -23.1030   21.6480 C   0  0  0  0  0  2  0  0  0  0  0  0
  -28.9720  -21.6110   21.7110 C   0  0  0  0  0  2  0  0  0  0  0  0
  -29.1230  -22.3190   19.5080 C   0  0  0  0  0  2  0  0  0  0  0  0
  -29.0360  -23.6880   20.3320 C   0  0  0  0  0  3  0  0  0  0  0  0
  -29.5230  -18.5610   20.7910 N   0  0  0  0  0  0  0  0  0  0  0  0
  -29.2410  -21.0840   20.3680 N   0  0  0  0  0  0  0  0  0  0  0  0
  -29.9230  -19.2580   18.3440 S   0  0  0  0  0  0  0  0  0  0  0  0
  -30.5830  -14.8030   20.3940 C   0  0  0  0  0  0  0  0  0  0  0  0
  -30.4090  -12.4980   19.4490 C   0  0  0  0  0  2  0  0  0  0  0  0
  -29.4950  -12.5710   18.2050 C   0  0  0  0  0  2  0  0  0  0  0  0
  -28.0150  -12.4180   18.6070 C   0  0  0  0  0  2  0  0  0  0  0  0
  -27.6220  -13.2980   19.8230 C   0  0  0  0  0  3  0  0  0  0  0  0
  -28.6660  -13.2220   20.9620 C   0  0  0  0  0  2  0  0  0  0  0  0
  -29.9710  -13.5650   20.3830 N   0  0  0  0  0  0  0  0  0  0  0  0
  -31.7630  -14.8970   20.0410 O   0  0  0  0  0  0  0  0  0  0  0  0
  -29.8190  -15.9320   20.6720 N   0  0  0  0  0  0  0  0  0  0  0  0
  -28.9760  -15.7210   21.1820 H   0  0  0  0  0  0  0  0  0  0  0  0
  -25.2220  -13.8940   20.5050 C   0  0  0  0  0  0  0  0  0  0  0  0
  -24.1480  -13.1250   20.8620 C   0  0  0  0  0  0  0  0  0  0  0  0
  -24.6060  -11.7710   20.8450 C   0  0  0  0  0  0  0  0  0  0  0  0
  -26.2660  -13.0110   20.2880 N   0  0  0  0  0  0  0  0  0  0  0  0
  -25.9030  -11.7300   20.5520 N   0  0  0  0  0  0  0  0  0  0  0  0
  -23.8710  -10.5120   21.0280 C   0  0  0  0  0  0  0  0  0  0  0  0
  -24.2880   -9.5420   21.9660 C   0  0  0  0  0  3  0  0  0  0  0  0
  -23.5490   -8.3500   22.1410 C   0  0  0  0  0  3  0  0  0  0  0  0
  -22.3820   -8.1190   21.3750 C   0  0  0  0  0  0  0  0  0  0  0  0
  -21.9870   -9.0780   20.4260 C   0  0  0  0  0  3  0  0  0  0  0  0
  -22.7240  -10.2600   20.2490 C   0  0  0  0  0  3  0  0  0  0  0  0
  -21.6200   -6.9780   21.4540 O   0  0  0  0  0  0  0  0  0  0  0  0
  -21.5580   -6.2340   22.6050 C   0  0  0  0  0  0  0  0  0  0  0  0
  -21.1250   -6.7920   23.8290 C   0  0  0  0  0  3  0  0  0  0  0  0
  -21.0100   -5.9760   24.9730 C   0  0  0  0  0  3  0  0  0  0  0  0
  -21.3170   -4.6040   24.8930 C   0  0  0  0  0  0  0  0  0  0  0  0
  -21.7450   -4.0470   23.6730 C   0  0  0  0  0  3  0  0  0  0  0  0
  -21.8620   -4.8610   22.5330 C   0  0  0  0  0  0  0  0  0  0  0  0
  -22.2540   -4.3140   21.3560 F   0  0  0  0  0  0  0  0  0  0  0  0
  -21.1990   -3.8190   25.9880 F   0  0  0  0  0  0  0  0  0  0  0  0
  -22.7490  -13.6110   21.1080 C   0  0  0  0  0  0  0  0  0  0  0  0
  -22.0010  -12.9220   21.9610 N   0  0  0  0  0  0  0  0  0  0  0  0
  -22.3240  -14.6370   20.5760 O   0  0  0  0  0  0  0  0  0  0  0  0
  -22.3530  -12.0900   22.4090 H   0  0  0  0  0  0  0  0  0  0  0  0
  -21.0600  -13.2310   22.1610 H   0  0  0  0  0  0  0  0  0  0  0  0
  -25.3950  -15.2630   20.3270 N   0  0  0  0  0  0  0  0  0  0  0  0
  -24.6250  -15.9150   20.4280 H   0  0  0  0  0  0  0  0  0  0  0  0
  -26.2390  -15.6950   19.9740 H   0  0  0  0  0  0  0  0  0  0  0  0
  -28.1780  -24.9470   19.7500 C   0  0  0  0  0  2  0  0  0  0  0  0
  -28.3330  -26.3850   20.1890 O   0  0  0  0  0  0  0  0  0  0  0  0
  -24.6320  -31.8600   23.2410 C   0  0  0  0  0  0  0  0  0  0  0  0
  -27.2350  -27.2850   20.1240 C   0  0  0  0  0  0  0  0  0  0  0  0
  -23.4310  -30.4790   21.5880 C   0  0  0  0  0  3  0  0  0  0  0  0
  -24.8800  -28.9430   20.1390 C   0  0  0  0  0  0  0  0  0  0  0  0
  -25.9740  -30.7850   21.4130 C   0  0  0  0  0  2  0  0  0  0  0  0
  -26.0540  -29.4090   20.7470 C   0  0  0  0  0  0  0  0  0  0  0  0
  -27.2290  -28.5890   20.7380 C   0  0  0  0  0  3  0  0  0  0  0  0
  -26.0410  -26.9070   19.4670 C   0  0  0  0  0  3  0  0  0  0  0  0
  -24.8780  -27.7000   19.4950 C   0  0  0  0  0  3  0  0  0  0  0  0
  -23.6480  -29.8250   20.2000 C   0  0  0  0  0  2  0  0  0  0  0  0
  -24.6990  -31.0580   22.1380 N   0  0  0  0  0  0  0  0  0  0  0  0
  -23.5470  -32.1330   23.7770 O   0  0  0  0  0  0  0  0  0  0  0  0
  -22.7670  -29.4510   22.5370 C   0  0  0  0  0  0  0  0  0  0  0  0
  -21.4410  -29.2730   22.4120 N   0  0  0  0  0  0  0  0  0  0  0  0
  -23.4470  -28.8170   23.3490 O   0  0  0  0  0  0  0  0  0  0  0  0
  -20.9480  -29.8410   21.7360 H   0  0  0  0  0  0  0  0  0  0  0  0
  -18.0680  -28.0630   22.8980 C   0  0  0  0  0  0  0  0  0  0  0  0
  -20.6240  -28.3260   23.1740 C   0  0  0  0  0  3  0  0  0  0  0  0
  -20.7300  -26.9000   22.5870 C   0  0  0  0  0  2  0  0  0  0  0  0
  -19.6310  -26.5820   21.5680 C   0  0  0  0  0  2  0  0  0  0  0  0
  -18.2490  -26.7190   22.2110 C   0  0  0  0  0  2  0  0  0  0  0  0
  -19.1830  -28.8240   23.3370 C   0  0  0  0  0  0  0  0  0  0  0  0
  -18.9600  -30.0810   23.9390 C   0  0  0  0  0  3  0  0  0  0  0  0
  -17.6540  -30.5770   24.1070 C   0  0  0  0  0  3  0  0  0  0  0  0
  -16.5520  -29.8120   23.6860 C   0  0  0  0  0  3  0  0  0  0  0  0
  -16.7600  -28.5570   23.0860 C   0  0  0  0  0  3  0  0  0  0  0  0
  -25.9130  -32.4920   23.8660 C   0  0  0  0  0  3  0  0  0  0  0  0
  -25.6040  -33.8900   24.1920 N   0  0  0  0  0  0  0  0  0  0  0  0
  -25.9360  -34.9440   23.4350 C   0  0  0  0  0  0  0  0  0  0  0  0
  -26.6040  -34.8400   22.4020 O   0  0  0  0  0  0  0  0  0  0  0  0
  -25.0080  -34.0410   24.9930 H   0  0  0  0  0  0  0  0  0  0  0  0
  -24.2080  -36.7400   23.0890 C   0  0  0  0  0  1  0  0  0  0  0  0
  -25.4520  -36.3330   23.8940 C   0  0  0  0  0  3  0  0  0  0  0  0
  -27.5910  -37.2200   24.7140 C   0  0  0  0  0  1  0  0  0  0  0  0
  -26.4830  -37.3870   23.7760 N   0  0  0  0  0  0  0  0  0  0  0  0
  -26.0750  -38.3050   23.9260 H   0  0  0  0  0  0  0  0  0  0  0  0
  -26.4190  -31.7210   25.1480 C   0  0  1  0  0  0  0  0  0  0  0  0
  -25.3230  -31.4910   26.2130 C   0  0  0  0  0  1  0  0  0  0  0  0
  -26.9970  -30.3390   24.7630 C   0  0  0  0  0  1  0  0  0  0  0  0
  -27.5670  -32.5130   25.8160 C   0  0  0  0  0  1  0  0  0  0  0  0
  1  2  2  0
  2 19  1  0
  2  8  1  0
  3  9  1  0
  3  8  2  0
  4  5  1  0
  6  7  1  0
  6  9  1  0
  7 49  1  0
  7  4  1  0
  9  5  1  0
 10  1  1  0
 10  3  1  0
 11 19  1  0
 12 17  1  0
 13 14  1  0
 13 12  1  0
 15 14  1  0
 15 24  1  0
 15 16  1  0
 17 11  1  0
 17 16  1  0
 18 11  2  0
 19 20  1  0
 21 22  2  0
 22 41  1  0
 23 22  1  0
 23 26  1  0
 24 21  1  0
 24 25  1  0
 25 23  2  0
 26 27  1  0
 27 28  2  0
 29 32  1  0
 29 28  1  0
 30 29  2  0
 31 30  1  0
 31 26  2  0
 32 33  1  0
 33 34  1  0
 34 35  2  0
 36 35  1  0
 36 40  1  0
 37 36  2  0
 38 33  2  0
 38 37  1  0
 39 38  1  0
 41 42  1  0
 42 45  1  0
 42 44  1  0
 43 41  2  0
 46 47  1  0
 46 21  1  0
 48 46  1  0
 49 50  1  0
 51 62  2  0
 52 50  1  0
 52 57  1  0
 53 61  1  0
 53 63  1  0
 54 60  1  0
 54 56  1  0
 55 61  1  0
 56 55  1  0
 57 56  2  0
 58 59  1  0
 58 52  2  0
 59 54  2  0
 60 53  1  0
 61 51  1  0
 63 65  2  0
 64 63  1  0
 66 64  1  0
 67 76  2  0
 67 72  1  0
 68 64  1  0
 68 72  1  0
 69 68  1  0
 70 71  1  0
 70 69  1  0
 71 67  1  0
 72 73  2  0
 73 74  1  0
 75 74  2  0
 76 75  1  0
 77 51  1  0
 77 78  1  0
 77 87  1  0
 78 81  1  0
 79 83  1  0
 79 78  1  0
 80 79  2  0
 83 82  1  0
 85 83  1  0
 85 86  1  0
 85 84  1  0
 87 90  1  1
 87 88  1  0
 89 87  1  0
M  ISO  4  11 100  19 100  49 101  50 101
M  END
>  <TORSDO>  (56) 
F 17

>  <SCORE>  (56) 
-15.131

>  <name>  (56) 
55

>  <ligand_id>  (56) 
55

>  <original_smiles>  (56) 
[H]c1sc(N2C([H])([H])C([H])([H])C([H])(C([H])([H])Oc3c([H])c([H])c4c(c3[H])C([H])([H])N(C(=O)C([H])(N([H])C(=O)C([H])(N([H])C([H])([H])[H])C([H])([H])[H])C(C([H])([H])[H])(C([H])([H])[H])C([H])([H])[H])C([H])(C(=O)N([H])C3([H])c5c([H])c([H])c([H])c([H])c5C([H])([H])C([H])([H])C3([H])[H])C4([H])[H])C2([H])[H])nc1N([H])C(=O)N1C([H])([H])C([H])([H])C([H])([H])C([H])(n2nc(-c3c([H])c([H])c(Oc4c([H])c([H])c(F)c([H])c4F)c([H])c3[H])c(C(=O)N([H])[H])c2N([H])[H])C1([H])[H]

>  <smiles>  (56) 
[H]c1sc(N2C([H])([H])C([H])([H])C([H])(C([H])([H])Oc3c([H])c([H])c4c(c3[H])C([H])([H])N(C(=O)C([H])(N([H])C(=O)C([H])(N([H])C([H])([H])[H])C([H])([H])[H])C(C([H])([H])[H])(C([H])([H])[H])C([H])([H])[H])C([H])(C(=O)N([H])C3([H])c5c([H])c([H])c([H])c([H])c5C([H])([H])C([H])([H])C3([H])[H])C4([H])[H])C2([H])[H])nc1N([H])C(=O)N1C([H])([H])C([H])([H])C([H])([H])C([H])(n2nc(-c3c([H])c([H])c(Oc4c([H])c([H])c(F)c([H])c4F)c([H])c3[H])c(C(=O)N([H])[H])c2N([H])[H])C1([H])[H]

$$$$
56:0:0
     RDKit          3D

 93102  0  0  1  0  0  0  0  0999 V2000
  -28.3790  -20.6090   19.6960 C   0  0  0  0  0  3  0  0  0  0  0  0
  -28.7050  -19.1850   19.6820 C   0  0  0  0  0  0  0  0  0  0  0  0
  -29.6870  -18.8050   20.5820 C   0  0  0  0  0  0  0  0  0  0  0  0
  -29.0570  -21.3970   20.6080 C   0  0  0  0  0  0  0  0  0  0  0  0
  -30.1410  -20.2830   21.4770 S   0  0  0  0  0  0  0  0  0  0  0  0
  -28.4920  -23.8770   20.2480 C   0  0  0  0  0  0  0  0  0  0  0  0
  -28.9380  -22.7590   20.9360 N   0  0  0  0  0  0  0  0  0  0  0  0
  -28.2440  -23.8280   19.0400 O   0  0  0  0  0  0  0  0  0  0  0  0
  -29.2250  -22.9740   21.8820 H   0  0  0  0  0  0  0  0  0  0  0  0
  -28.2600  -25.2580   21.0310 C   0  0  0  0  0  2  0  0  0  0  0  0
  -28.3870  -26.5640   20.3080 O   0  0  0  0  0  0  0  0  0  0  0  0
  -24.6200  -31.9970   23.3270 C   0  0  0  0  0  0  0  0  0  0  0  0
  -27.2780  -27.4300   20.3060 C   0  0  0  0  0  0  0  0  0  0  0  0
  -23.4350  -30.5780   21.6900 C   0  0  0  0  0  3  0  0  0  0  0  0
  -24.9050  -29.0310   20.2760 C   0  0  0  0  0  0  0  0  0  0  0  0
  -25.9720  -30.9200   21.5090 C   0  0  0  0  0  2  0  0  0  0  0  0
  -26.0690  -29.5340   20.8710 C   0  0  0  0  0  0  0  0  0  0  0  0
  -27.2630  -28.7470   20.8720 C   0  0  0  0  0  3  0  0  0  0  0  0
  -26.0930  -26.9810   19.6900 C   0  0  0  0  0  3  0  0  0  0  0  0
  -24.9200  -27.7610   19.6740 C   0  0  0  0  0  3  0  0  0  0  0  0
  -23.6590  -29.8960   20.3150 C   0  0  0  0  0  2  0  0  0  0  0  0
  -24.6950  -31.1840   22.2320 N   0  0  0  0  0  0  0  0  0  0  0  0
  -23.5330  -32.2660   23.8600 O   0  0  0  0  0  0  0  0  0  0  0  0
  -22.7800  -29.5600   22.6560 C   0  0  0  0  0  0  0  0  0  0  0  0
  -21.4600  -29.3520   22.5140 N   0  0  0  0  0  0  0  0  0  0  0  0
  -23.4610  -28.9590   23.4910 O   0  0  0  0  0  0  0  0  0  0  0  0
  -20.9690  -29.8880   21.8120 H   0  0  0  0  0  0  0  0  0  0  0  0
  -18.1050  -28.0810   22.9790 C   0  0  0  0  0  0  0  0  0  0  0  0
  -20.6520  -28.4060   23.2850 C   0  0  0  0  0  3  0  0  0  0  0  0
  -20.7980  -26.9700   22.7320 C   0  0  0  0  0  2  0  0  0  0  0  0
  -19.7200  -26.6060   21.7050 C   0  0  0  0  0  2  0  0  0  0  0  0
  -18.3250  -26.7280   22.3250 C   0  0  0  0  0  2  0  0  0  0  0  0
  -19.1980  -28.8750   23.4150 C   0  0  0  0  0  0  0  0  0  0  0  0
  -18.9390  -30.1410   23.9860 C   0  0  0  0  0  3  0  0  0  0  0  0
  -17.6200  -30.6120   24.1250 C   0  0  0  0  0  3  0  0  0  0  0  0
  -16.5420  -29.8150   23.7050 C   0  0  0  0  0  3  0  0  0  0  0  0
  -16.7840  -28.5520   23.1380 C   0  0  0  0  0  3  0  0  0  0  0  0
  -25.8940  -32.6480   23.9500 C   0  0  0  0  0  3  0  0  0  0  0  0
  -26.4000  -31.9060   25.2480 C   0  0  1  0  0  0  0  0  0  0  0  0
  -25.2930  -31.6780   26.3040 C   0  0  0  0  0  1  0  0  0  0  0  0
  -27.0020  -30.5280   24.8910 C   0  0  0  0  0  1  0  0  0  0  0  0
  -27.5310  -32.7260   25.9120 C   0  0  0  0  0  1  0  0  0  0  0  0
  -25.5770  -34.0520   24.2480 N   0  0  0  0  0  0  0  0  0  0  0  0
  -25.9120  -35.0910   23.4710 C   0  0  0  0  0  0  0  0  0  0  0  0
  -26.5890  -34.9680   22.4460 O   0  0  0  0  0  0  0  0  0  0  0  0
  -24.9810  -34.2230   25.0450 H   0  0  0  0  0  0  0  0  0  0  0  0
  -24.1860  -36.8730   23.0630 C   0  0  0  0  0  1  0  0  0  0  0  0
  -25.4200  -36.4860   23.8960 C   0  0  0  0  0  3  0  0  0  0  0  0
  -27.5410  -37.3920   24.7370 C   0  0  0  0  0  1  0  0  0  0  0  0
  -26.4520  -37.5390   23.7750 N   0  0  0  0  0  0  0  0  0  0  0  0
  -26.0430  -38.4610   23.8970 H   0  0  0  0  0  0  0  0  0  0  0  0
  -28.7810  -17.3520   17.7870 C   0  0  0  0  0  2  0  0  0  0  0  0
  -27.9760  -18.5160   17.2620 C   0  0  0  0  0  2  0  0  0  0  0  0
  -28.0170  -18.2350   18.7460 C   0  0  0  0  0  3  0  0  0  0  0  0
  -30.4850  -17.4580   20.8070 C   0  0  0  0  0  2  0  0  0  0  0  0
  -30.6410  -14.8920   20.4640 C   0  0  0  0  0  0  0  0  0  0  0  0
  -30.4230  -12.6440   19.4030 C   0  0  0  0  0  2  0  0  0  0  0  0
  -29.4880  -12.7330   18.1780 C   0  0  0  0  0  2  0  0  0  0  0  0
  -28.0200  -12.5510   18.6070 C   0  0  0  0  0  2  0  0  0  0  0  0
  -27.6420  -13.4230   19.8350 C   0  0  0  0  0  3  0  0  0  0  0  0
  -28.6990  -13.3260   20.9560 C   0  0  0  0  0  2  0  0  0  0  0  0
  -29.9930  -13.6840   20.3640 N   0  0  0  0  0  0  0  0  0  0  0  0
  -31.8350  -14.9680   20.1610 O   0  0  0  0  0  0  0  0  0  0  0  0
  -29.9120  -16.0480   20.7060 N   0  0  0  0  0  0  0  0  0  0  0  0
  -28.9260  -15.9400   20.8890 H   0  0  0  0  0  0  0  0  0  0  0  0
  -25.2500  -13.9930   20.5610 C   0  0  0  0  0  0  0  0  0  0  0  0
  -24.1870  -13.2090   20.9170 C   0  0  0  0  0  0  0  0  0  0  0  0
  -24.6580  -11.8610   20.8770 C   0  0  0  0  0  0  0  0  0  0  0  0
  -26.3000  -13.1210   20.3200 N   0  0  0  0  0  0  0  0  0  0  0  0
  -25.9500  -11.8340   20.5760 N   0  0  0  0  0  0  0  0  0  0  0  0
  -23.9380  -10.5930   21.0510 C   0  0  0  0  0  0  0  0  0  0  0  0
  -24.3660   -9.6210   21.9830 C   0  0  0  0  0  3  0  0  0  0  0  0
  -23.6450   -8.4180   22.1460 C   0  0  0  0  0  3  0  0  0  0  0  0
  -22.4820   -8.1790   21.3760 C   0  0  0  0  0  0  0  0  0  0  0  0
  -22.0730   -9.1390   20.4340 C   0  0  0  0  0  3  0  0  0  0  0  0
  -22.7950  -10.3330   20.2700 C   0  0  0  0  0  3  0  0  0  0  0  0
  -21.7340   -7.0290   21.4480 O   0  0  0  0  0  0  0  0  0  0  0  0
  -21.6640   -6.2850   22.5990 C   0  0  0  0  0  0  0  0  0  0  0  0
  -21.1850   -6.8300   23.8110 C   0  0  0  0  0  3  0  0  0  0  0  0
  -21.0660   -6.0130   24.9520 C   0  0  0  0  0  3  0  0  0  0  0  0
  -21.4150   -4.6510   24.8820 C   0  0  0  0  0  0  0  0  0  0  0  0
  -21.8870   -4.1050   23.6750 C   0  0  0  0  0  3  0  0  0  0  0  0
  -22.0080   -4.9200   22.5370 C   0  0  0  0  0  0  0  0  0  0  0  0
  -22.4430   -4.3850   21.3710 F   0  0  0  0  0  0  0  0  0  0  0  0
  -21.2940   -3.8620   25.9760 F   0  0  0  0  0  0  0  0  0  0  0  0
  -22.7850  -13.6750   21.1830 C   0  0  0  0  0  0  0  0  0  0  0  0
  -22.0550  -12.9670   22.0370 N   0  0  0  0  0  0  0  0  0  0  0  0
  -22.3460  -14.7050   20.6710 O   0  0  0  0  0  0  0  0  0  0  0  0
  -22.4230  -12.1330   22.4720 H   0  0  0  0  0  0  0  0  0  0  0  0
  -21.1140  -13.2610   22.2590 H   0  0  0  0  0  0  0  0  0  0  0  0
  -25.4070  -15.3640   20.3960 N   0  0  0  0  0  0  0  0  0  0  0  0
  -24.6360  -16.0130   20.5130 H   0  0  0  0  0  0  0  0  0  0  0  0
  -26.2520  -15.8090   20.0620 H   0  0  0  0  0  0  0  0  0  0  0  0
  1  4  2  0
  2  1  1  0
  2  3  2  0
  3 55  1  0
  3  5  1  0
  4  7  1  0
  4  5  1  0
  6  7  1  0
  6 10  1  0
  7  9  1  0
  8  6  2  0
 11 10  1  0
 12 23  2  0
 13 11  1  0
 13 18  1  0
 14 22  1  0
 14 24  1  0
 15 21  1  0
 15 17  1  0
 16 22  1  0
 17 18  2  0
 17 16  1  0
 19 13  2  0
 20 19  1  0
 20 15  2  0
 21 14  1  0
 22 12  1  0
 24 26  2  0
 25 24  1  0
 27 25  1  0
 28 37  2  0
 28 33  1  0
 29 25  1  0
 29 33  1  0
 30 29  1  0
 31 32  1  0
 31 30  1  0
 32 28  1  0
 33 34  2  0
 34 35  1  0
 36 35  2  0
 37 36  1  0
 38 12  1  0
 38 43  1  0
 38 39  1  0
 39 42  1  1
 39 40  1  0
 41 39  1  0
 43 46  1  0
 44 48  1  0
 44 43  1  0
 45 44  2  0
 48 47  1  0
 50 48  1  0
 50 51  1  0
 50 49  1  0
 52 54  1  0
 53 52  1  0
 53 54  1  0
 54  2  1  0
 56 64  1  0
 57 62  1  0
 58 59  1  0
 58 57  1  0
 60 59  1  0
 60 69  1  0
 60 61  1  0
 62 56  1  0
 62 61  1  0
 63 56  2  0
 64 55  1  0
 64 65  1  0
 66 67  2  0
 67 86  1  0
 68 67  1  0
 68 71  1  0
 69 66  1  0
 69 70  1  0
 70 68  2  0
 71 72  1  0
 72 73  2  0
 74 77  1  0
 74 73  1  0
 75 74  2  0
 76 75  1  0
 76 71  2  0
 77 78  1  0
 78 79  1  0
 79 80  2  0
 81 80  1  0
 81 85  1  0
 82 81  2  0
 83 78  2  0
 83 82  1  0
 84 83  1  0
 86 87  1  0
 87 90  1  0
 87 89  1  0
 88 86  2  0
 91 92  1  0
 91 66  1  0
 93 91  1  0
M  ISO  4  10 101  11 101  56 100  64 100
M  END
>  <TORSDO>  (57) 
F 20

>  <SCORE>  (57) 
-13.629

>  <name>  (57) 
56

>  <ligand_id>  (57) 
56

>  <original_smiles>  (57) 
[H]c1c([H])c([H])c2c(c1[H])C([H])([H])C([H])([H])C([H])([H])C2([H])N([H])C(=O)C1([H])N(C(=O)C([H])(N([H])C(=O)C([H])(N([H])C([H])([H])[H])C([H])([H])[H])C(C([H])([H])[H])(C([H])([H])[H])C([H])([H])[H])C([H])([H])c2c([H])c(OC([H])([H])C(=O)N([H])c3sc(C([H])([H])N([H])C(=O)N4C([H])([H])C([H])([H])C([H])([H])C([H])(n5nc(-c6c([H])c([H])c(Oc7c([H])c([H])c(F)c([H])c7F)c([H])c6[H])c(C(=O)N([H])[H])c5N([H])[H])C4([H])[H])c(C4([H])C([H])([H])C4([H])[H])c3[H])c([H])c([H])c2C1([H])[H]

>  <smiles>  (57) 
[H]c1c([H])c([H])c2c(c1[H])C([H])([H])C([H])([H])C([H])([H])C2([H])N([H])C(=O)C1([H])N(C(=O)C([H])(N([H])C(=O)C([H])(N([H])C([H])([H])[H])C([H])([H])[H])C(C([H])([H])[H])(C([H])([H])[H])C([H])([H])[H])C([H])([H])c2c([H])c(OC([H])([H])C(=O)N([H])c3sc(C([H])([H])N([H])C(=O)N4C([H])([H])C([H])([H])C([H])([H])C([H])(n5nc(-c6c([H])c([H])c(Oc7c([H])c([H])c(F)c([H])c7F)c([H])c6[H])c(C(=O)N([H])[H])c5N([H])[H])C4([H])[H])c(C4([H])C([H])([H])C4([H])[H])c3[H])c([H])c([H])c2C1([H])[H]

$$$$
57:0:0
     RDKit          3D

 92101  0  0  1  0  0  0  0  0999 V2000
  -29.3450  -19.9770   19.8560 C   0  0  0  0  0  3  0  0  0  0  0  0
  -30.0260  -18.8840   20.5830 C   0  0  0  0  0  0  0  0  0  0  0  0
  -30.4410  -19.3620   21.7790 C   0  0  0  0  0  0  0  0  0  0  0  0
  -29.3100  -21.2480   20.4930 C   0  0  0  0  0  0  0  0  0  0  0  0
  -31.3080  -18.4590   22.5560 C   0  0  0  0  0  2  0  0  0  0  0  0
  -31.7260  -17.4120   21.5030 C   0  0  0  0  0  2  0  0  0  0  0  0
  -30.6830  -17.4510   20.3340 C   0  0  0  0  0  3  0  0  0  0  0  0
  -30.0810  -21.0530   22.0680 S   0  0  0  0  0  0  0  0  0  0  0  0
  -30.6330  -14.8840   19.9610 C   0  0  0  0  0  0  0  0  0  0  0  0
  -30.3110  -12.6130   18.9590 C   0  0  0  0  0  2  0  0  0  0  0  0
  -29.3070  -12.6760   17.7880 C   0  0  0  0  0  2  0  0  0  0  0  0
  -27.8700  -12.5030   18.3130 C   0  0  0  0  0  2  0  0  0  0  0  0
  -27.5700  -13.4050   19.5400 C   0  0  0  0  0  3  0  0  0  0  0  0
  -28.6940  -13.3460   20.5970 C   0  0  0  0  0  2  0  0  0  0  0  0
  -29.9490  -13.6870   19.9180 N   0  0  0  0  0  0  0  0  0  0  0  0
  -31.7910  -14.9180   19.5370 O   0  0  0  0  0  0  0  0  0  0  0  0
  -29.9970  -16.0770   20.3080 N   0  0  0  0  0  0  0  0  0  0  0  0
  -29.0330  -16.0320   20.5970 H   0  0  0  0  0  0  0  0  0  0  0  0
  -25.2440  -13.9970   20.4390 C   0  0  0  0  0  0  0  0  0  0  0  0
  -24.1970  -13.2250   20.8600 C   0  0  0  0  0  0  0  0  0  0  0  0
  -24.6430  -11.8720   20.7700 C   0  0  0  0  0  0  0  0  0  0  0  0
  -26.2610  -13.1150   20.1150 N   0  0  0  0  0  0  0  0  0  0  0  0
  -25.9120  -11.8290   20.3780 N   0  0  0  0  0  0  0  0  0  0  0  0
  -23.9170  -10.6110   20.9780 C   0  0  0  0  0  0  0  0  0  0  0  0
  -24.3760   -9.6350   21.8900 C   0  0  0  0  0  3  0  0  0  0  0  0
  -23.6490   -8.4410   22.0870 C   0  0  0  0  0  3  0  0  0  0  0  0
  -22.4480   -8.2150   21.3720 C   0  0  0  0  0  0  0  0  0  0  0  0
  -22.0090   -9.1790   20.4480 C   0  0  0  0  0  3  0  0  0  0  0  0
  -22.7360  -10.3650   20.2500 C   0  0  0  0  0  3  0  0  0  0  0  0
  -21.6900   -7.0750   21.4790 O   0  0  0  0  0  0  0  0  0  0  0  0
  -21.6540   -6.3420   22.6380 C   0  0  0  0  0  0  0  0  0  0  0  0
  -21.1950   -6.8920   23.8540 C   0  0  0  0  0  3  0  0  0  0  0  0
  -21.1090   -6.0830   25.0050 C   0  0  0  0  0  3  0  0  0  0  0  0
  -21.4710   -4.7250   24.9400 C   0  0  0  0  0  0  0  0  0  0  0  0
  -21.9240   -4.1730   23.7280 C   0  0  0  0  0  3  0  0  0  0  0  0
  -22.0120   -4.9790   22.5800 C   0  0  0  0  0  0  0  0  0  0  0  0
  -22.4280   -4.4380   21.4100 F   0  0  0  0  0  0  0  0  0  0  0  0
  -21.3820   -3.9450   26.0440 F   0  0  0  0  0  0  0  0  0  0  0  0
  -22.8250  -13.7090   21.2300 C   0  0  0  0  0  0  0  0  0  0  0  0
  -22.1490  -13.0030   22.1280 N   0  0  0  0  0  0  0  0  0  0  0  0
  -22.3660  -14.7480   20.7580 O   0  0  0  0  0  0  0  0  0  0  0  0
  -22.5350  -12.1610   22.5300 H   0  0  0  0  0  0  0  0  0  0  0  0
  -21.2320  -13.3080   22.4200 H   0  0  0  0  0  0  0  0  0  0  0  0
  -25.4100  -15.3710   20.2800 N   0  0  0  0  0  0  0  0  0  0  0  0
  -24.6570  -16.0270   20.4510 H   0  0  0  0  0  0  0  0  0  0  0  0
  -26.2360  -15.8090   19.8940 H   0  0  0  0  0  0  0  0  0  0  0  0
  -28.9440  -23.8000   20.5040 C   0  0  0  0  0  0  0  0  0  0  0  0
  -28.7690  -22.4820   20.0670 N   0  0  0  0  0  0  0  0  0  0  0  0
  -29.8380  -24.0970   21.3000 O   0  0  0  0  0  0  0  0  0  0  0  0
  -28.0970  -22.4010   19.3160 H   0  0  0  0  0  0  0  0  0  0  0  0
  -27.9860  -24.9820   19.9750 C   0  0  0  0  0  2  0  0  0  0  0  0
  -28.2580  -26.4320   20.3420 O   0  0  0  0  0  0  0  0  0  0  0  0
  -24.6300  -31.9750   23.3650 C   0  0  0  0  0  0  0  0  0  0  0  0
  -27.1910  -27.3710   20.2620 C   0  0  0  0  0  0  0  0  0  0  0  0
  -23.4170  -30.6020   21.7130 C   0  0  0  0  0  3  0  0  0  0  0  0
  -24.8560  -29.0620   20.2610 C   0  0  0  0  0  0  0  0  0  0  0  0
  -25.9680  -30.8880   21.5390 C   0  0  0  0  0  2  0  0  0  0  0  0
  -26.0350  -29.5140   20.8680 C   0  0  0  0  0  0  0  0  0  0  0  0
  -27.2060  -28.6830   20.8550 C   0  0  0  0  0  3  0  0  0  0  0  0
  -25.9920  -27.0070   19.6070 C   0  0  0  0  0  3  0  0  0  0  0  0
  -24.8420  -27.8170   19.6170 C   0  0  0  0  0  3  0  0  0  0  0  0
  -23.6270  -29.9480   20.3240 C   0  0  0  0  0  2  0  0  0  0  0  0
  -24.6910  -31.1740   22.2590 N   0  0  0  0  0  0  0  0  0  0  0  0
  -23.5480  -32.2530   23.9020 O   0  0  0  0  0  0  0  0  0  0  0  0
  -22.7470  -29.5800   22.6620 C   0  0  0  0  0  0  0  0  0  0  0  0
  -21.4260  -29.3820   22.5110 N   0  0  0  0  0  0  0  0  0  0  0  0
  -23.4180  -28.9670   23.4980 O   0  0  0  0  0  0  0  0  0  0  0  0
  -20.9430  -29.9290   21.8120 H   0  0  0  0  0  0  0  0  0  0  0  0
  -18.0570  -28.1230   22.9420 C   0  0  0  0  0  0  0  0  0  0  0  0
  -20.6050  -28.4350   23.2700 C   0  0  0  0  0  3  0  0  0  0  0  0
  -20.7470  -27.0010   22.7090 C   0  0  0  0  0  2  0  0  0  0  0  0
  -19.6750  -26.6490   21.6720 C   0  0  0  0  0  2  0  0  0  0  0  0
  -18.2760  -26.7720   22.2810 C   0  0  0  0  0  2  0  0  0  0  0  0
  -19.1510  -28.9100   23.3910 C   0  0  0  0  0  0  0  0  0  0  0  0
  -18.8930  -30.1730   23.9680 C   0  0  0  0  0  3  0  0  0  0  0  0
  -17.5740  -30.6490   24.1000 C   0  0  0  0  0  3  0  0  0  0  0  0
  -16.4950  -29.8580   23.6670 C   0  0  0  0  0  3  0  0  0  0  0  0
  -16.7380  -28.5980   23.0940 C   0  0  0  0  0  3  0  0  0  0  0  0
  -25.9140  -32.5970   23.9920 C   0  0  0  0  0  3  0  0  0  0  0  0
  -25.6170  -34.0020   24.3090 N   0  0  0  0  0  0  0  0  0  0  0  0
  -25.9470  -35.0450   23.5350 C   0  0  0  0  0  0  0  0  0  0  0  0
  -26.5970  -34.9230   22.4930 O   0  0  0  0  0  0  0  0  0  0  0  0
  -25.0360  -34.1710   25.1160 H   0  0  0  0  0  0  0  0  0  0  0  0
  -24.2210  -36.8450   23.2000 C   0  0  0  0  0  1  0  0  0  0  0  0
  -25.4790  -36.4410   23.9860 C   0  0  0  0  0  3  0  0  0  0  0  0
  -27.6300  -37.3330   24.7650 C   0  0  0  0  0  1  0  0  0  0  0  0
  -26.5150  -37.4870   23.8350 N   0  0  0  0  0  0  0  0  0  0  0  0
  -26.1160  -38.4120   23.9690 H   0  0  0  0  0  0  0  0  0  0  0  0
  -26.4080  -31.8330   25.2810 C   0  0  1  0  0  0  0  0  0  0  0  0
  -25.2990  -31.6020   26.3340 C   0  0  0  0  0  1  0  0  0  0  0  0
  -26.9940  -30.4500   24.9100 C   0  0  0  0  0  1  0  0  0  0  0  0
  -27.5510  -32.6280   25.9530 C   0  0  0  0  0  1  0  0  0  0  0  0
  1  4  2  0
  1  2  1  0
  2  3  2  0
  3  8  1  0
  3  5  1  0
  4  8  1  0
  6  5  1  0
  7 17  1  0
  7  2  1  0
  7  6  1  0
  9 17  1  0
 10 15  1  0
 11 12  1  0
 11 10  1  0
 13 12  1  0
 13 22  1  0
 13 14  1  0
 15  9  1  0
 15 14  1  0
 16  9  2  0
 17 18  1  0
 19 20  2  0
 20 39  1  0
 21 20  1  0
 21 24  1  0
 22 23  1  0
 22 19  1  0
 23 21  2  0
 24 25  1  0
 25 26  2  0
 27 30  1  0
 27 26  1  0
 28 27  2  0
 29 28  1  0
 29 24  2  0
 30 31  1  0
 31 32  1  0
 32 33  2  0
 34 33  1  0
 34 38  1  0
 35 34  2  0
 36 31  2  0
 36 35  1  0
 37 36  1  0
 39 40  1  0
 40 43  1  0
 40 42  1  0
 41 39  2  0
 44 19  1  0
 44 45  1  0
 46 44  1  0
 47 49  2  0
 48  4  1  0
 48 47  1  0
 50 48  1  0
 51 52  1  0
 51 47  1  0
 53 64  2  0
 54 52  1  0
 54 59  1  0
 55 63  1  0
 55 65  1  0
 56 62  1  0
 56 58  1  0
 57 63  1  0
 58 57  1  0
 59 58  2  0
 60 61  1  0
 60 54  2  0
 61 56  2  0
 62 55  1  0
 63 53  1  0
 65 67  2  0
 66 65  1  0
 68 66  1  0
 69 78  2  0
 69 74  1  0
 70 66  1  0
 70 74  1  0
 71 70  1  0
 72 73  1  0
 72 71  1  0
 73 69  1  0
 74 75  2  0
 75 76  1  0
 77 76  2  0
 78 77  1  0
 79 53  1  0
 79 80  1  0
 79 89  1  0
 80 83  1  0
 81 85  1  0
 81 80  1  0
 82 81  2  0
 85 84  1  0
 87 88  1  0
 87 85  1  0
 87 86  1  0
 89 92  1  1
 89 90  1  0
 91 89  1  0
M  ISO  4   9 100  17 100  51 101  52 101
M  END
>  <TORSDO>  (58) 
F 18

>  <SCORE>  (58) 
-14.076

>  <name>  (58) 
57

>  <ligand_id>  (58) 
57

>  <original_smiles>  (58) 
[H]c1c([H])c([H])c2c(c1[H])C([H])([H])C([H])([H])C([H])([H])C2([H])N([H])C(=O)C1([H])N(C(=O)C([H])(N([H])C(=O)C([H])(N([H])C([H])([H])[H])C([H])([H])[H])C(C([H])([H])[H])(C([H])([H])[H])C([H])([H])[H])C([H])([H])c2c([H])c(OC([H])([H])C(=O)N([H])c3sc4c(c3[H])C([H])(N([H])C(=O)N3C([H])([H])C([H])([H])C([H])([H])C([H])(n5nc(-c6c([H])c([H])c(Oc7c([H])c([H])c(F)c([H])c7F)c([H])c6[H])c(C(=O)N([H])[H])c5N([H])[H])C3([H])[H])C([H])([H])C4([H])[H])c([H])c([H])c2C1([H])[H]

>  <smiles>  (58) 
[H]c1c([H])c([H])c2c(c1[H])C([H])([H])C([H])([H])C([H])([H])C2([H])N([H])C(=O)C1([H])N(C(=O)C([H])(N([H])C(=O)C([H])(N([H])C([H])([H])[H])C([H])([H])[H])C(C([H])([H])[H])(C([H])([H])[H])C([H])([H])[H])C([H])([H])c2c([H])c(OC([H])([H])C(=O)N([H])c3sc4c(c3[H])C([H])(N([H])C(=O)N3C([H])([H])C([H])([H])C([H])([H])C([H])(n5nc(-c6c([H])c([H])c(Oc7c([H])c([H])c(F)c([H])c7F)c([H])c6[H])c(C(=O)N([H])[H])c5N([H])[H])C3([H])[H])C([H])([H])C4([H])[H])c([H])c([H])c2C1([H])[H]

$$$$
58:0:0
     RDKit          3D

 92101  0  0  1  0  0  0  0  0999 V2000
  -29.3460  -19.9810   19.7940 C   0  0  0  0  0  3  0  0  0  0  0  0
  -30.0410  -18.8960   20.5180 C   0  0  0  0  0  0  0  0  0  0  0  0
  -30.4620  -19.3810   21.7100 C   0  0  0  0  0  0  0  0  0  0  0  0
  -29.3080  -21.2550   20.4280 C   0  0  0  0  0  0  0  0  0  0  0  0
  -31.3420  -18.4860   22.4820 C   0  0  0  0  0  2  0  0  0  0  0  0
  -31.7610  -17.4430   21.4260 C   0  0  0  0  0  2  0  0  0  0  0  0
  -30.7090  -17.4670   20.2660 C   0  0  0  0  0  3  0  0  0  0  0  0
  -30.0910  -21.0690   21.9960 S   0  0  0  0  0  0  0  0  0  0  0  0
  -30.6790  -14.8970   19.9110 C   0  0  0  0  0  0  0  0  0  0  0  0
  -30.3740  -12.6190   18.9210 C   0  0  0  0  0  2  0  0  0  0  0  0
  -29.3670  -12.6700   17.7520 C   0  0  0  0  0  2  0  0  0  0  0  0
  -27.9330  -12.4880   18.2810 C   0  0  0  0  0  2  0  0  0  0  0  0
  -27.6280  -13.3950   19.5030 C   0  0  0  0  0  3  0  0  0  0  0  0
  -28.7550  -13.3480   20.5590 C   0  0  0  0  0  2  0  0  0  0  0  0
  -30.0050  -13.6940   19.8750 N   0  0  0  0  0  0  0  0  0  0  0  0
  -31.8360  -14.9390   19.4830 O   0  0  0  0  0  0  0  0  0  0  0  0
  -30.0340  -16.0880   20.2500 N   0  0  0  0  0  0  0  0  0  0  0  0
  -29.0700  -16.0360   20.5400 H   0  0  0  0  0  0  0  0  0  0  0  0
  -25.3000  -13.9760   20.4050 C   0  0  0  0  0  0  0  0  0  0  0  0
  -24.2580  -13.1980   20.8310 C   0  0  0  0  0  0  0  0  0  0  0  0
  -24.7130  -11.8460   20.7440 C   0  0  0  0  0  0  0  0  0  0  0  0
  -26.3220  -13.0990   20.0810 N   0  0  0  0  0  0  0  0  0  0  0  0
  -25.9810  -11.8120   20.3480 N   0  0  0  0  0  0  0  0  0  0  0  0
  -23.9950  -10.5820   20.9570 C   0  0  0  0  0  0  0  0  0  0  0  0
  -24.4570   -9.6170   21.8770 C   0  0  0  0  0  3  0  0  0  0  0  0
  -23.7380   -8.4180   22.0800 C   0  0  0  0  0  3  0  0  0  0  0  0
  -22.5420   -8.1790   21.3610 C   0  0  0  0  0  0  0  0  0  0  0  0
  -22.1000   -9.1330   20.4290 C   0  0  0  0  0  3  0  0  0  0  0  0
  -22.8190  -10.3220   20.2250 C   0  0  0  0  0  3  0  0  0  0  0  0
  -21.7920   -7.0340   21.4730 O   0  0  0  0  0  0  0  0  0  0  0  0
  -21.7560   -6.3080   22.6370 C   0  0  0  0  0  0  0  0  0  0  0  0
  -21.2590   -6.8540   23.8400 C   0  0  0  0  0  3  0  0  0  0  0  0
  -21.1760   -6.0510   24.9950 C   0  0  0  0  0  3  0  0  0  0  0  0
  -21.5780   -4.7030   24.9490 C   0  0  0  0  0  0  0  0  0  0  0  0
  -22.0680   -4.1570   23.7490 C   0  0  0  0  0  3  0  0  0  0  0  0
  -22.1530   -4.9560   22.5960 C   0  0  0  0  0  0  0  0  0  0  0  0
  -22.6060   -4.4180   21.4380 F   0  0  0  0  0  0  0  0  0  0  0  0
  -21.4910   -3.9300   26.0560 F   0  0  0  0  0  0  0  0  0  0  0  0
  -22.8850  -13.6750   21.2020 C   0  0  0  0  0  0  0  0  0  0  0  0
  -22.2130  -12.9650   22.1010 N   0  0  0  0  0  0  0  0  0  0  0  0
  -22.4200  -14.7120   20.7310 O   0  0  0  0  0  0  0  0  0  0  0  0
  -22.6030  -12.1250   22.5020 H   0  0  0  0  0  0  0  0  0  0  0  0
  -21.2940  -13.2660   22.3940 H   0  0  0  0  0  0  0  0  0  0  0  0
  -25.4570  -15.3490   20.2410 N   0  0  0  0  0  0  0  0  0  0  0  0
  -24.6990  -16.0010   20.4130 H   0  0  0  0  0  0  0  0  0  0  0  0
  -26.2790  -15.7920   19.8510 H   0  0  0  0  0  0  0  0  0  0  0  0
  -28.9390  -23.8060   20.4200 C   0  0  0  0  0  0  0  0  0  0  0  0
  -28.7550  -22.4840   20.0020 N   0  0  0  0  0  0  0  0  0  0  0  0
  -29.8540  -24.1120   21.1890 O   0  0  0  0  0  0  0  0  0  0  0  0
  -28.0640  -22.3940   19.2690 H   0  0  0  0  0  0  0  0  0  0  0  0
  -27.9680  -24.9820   19.9020 C   0  0  0  0  0  2  0  0  0  0  0  0
  -28.2490  -26.4360   20.2450 O   0  0  0  0  0  0  0  0  0  0  0  0
  -24.6530  -31.9900   23.2870 C   0  0  0  0  0  0  0  0  0  0  0  0
  -27.1820  -27.3750   20.1730 C   0  0  0  0  0  0  0  0  0  0  0  0
  -23.4240  -30.6140   21.6520 C   0  0  0  0  0  3  0  0  0  0  0  0
  -24.8480  -29.0680   20.1900 C   0  0  0  0  0  0  0  0  0  0  0  0
  -25.9710  -30.8980   21.4500 C   0  0  0  0  0  2  0  0  0  0  0  0
  -26.0330  -29.5210   20.7840 C   0  0  0  0  0  0  0  0  0  0  0  0
  -27.2030  -28.6890   20.7620 C   0  0  0  0  0  3  0  0  0  0  0  0
  -25.9750  -27.0100   19.5310 C   0  0  0  0  0  3  0  0  0  0  0  0
  -24.8260  -27.8210   19.5510 C   0  0  0  0  0  3  0  0  0  0  0  0
  -23.6190  -29.9540   20.2630 C   0  0  0  0  0  2  0  0  0  0  0  0
  -24.7030  -31.1860   22.1840 N   0  0  0  0  0  0  0  0  0  0  0  0
  -23.5760  -32.2700   23.8350 O   0  0  0  0  0  0  0  0  0  0  0  0
  -22.7620  -29.5940   22.6100 C   0  0  0  0  0  0  0  0  0  0  0  0
  -21.4390  -29.3950   22.4710 N   0  0  0  0  0  0  0  0  0  0  0  0
  -23.4400  -28.9840   23.4420 O   0  0  0  0  0  0  0  0  0  0  0  0
  -20.9500  -29.9410   21.7750 H   0  0  0  0  0  0  0  0  0  0  0  0
  -18.0720  -28.1540   22.9540 C   0  0  0  0  0  0  0  0  0  0  0  0
  -20.6260  -28.4510   23.2410 C   0  0  0  0  0  3  0  0  0  0  0  0
  -20.7500  -27.0170   22.6740 C   0  0  0  0  0  2  0  0  0  0  0  0
  -19.6600  -26.6750   21.6540 C   0  0  0  0  0  2  0  0  0  0  0  0
  -18.2720  -26.8040   22.2880 C   0  0  0  0  0  2  0  0  0  0  0  0
  -19.1770  -28.9340   23.3880 C   0  0  0  0  0  0  0  0  0  0  0  0
  -18.9360  -30.1960   23.9730 C   0  0  0  0  0  3  0  0  0  0  0  0
  -17.6230  -30.6800   24.1270 C   0  0  0  0  0  3  0  0  0  0  0  0
  -16.5330  -29.8970   23.7100 C   0  0  0  0  0  3  0  0  0  0  0  0
  -16.7580  -28.6370   23.1300 C   0  0  0  0  0  3  0  0  0  0  0  0
  -25.9440  -32.6130   23.9000 C   0  0  0  0  0  3  0  0  0  0  0  0
  -25.6470  -34.0160   24.2280 N   0  0  0  0  0  0  0  0  0  0  0  0
  -25.9660  -35.0640   23.4580 C   0  0  0  0  0  0  0  0  0  0  0  0
  -26.6070  -34.9520   22.4090 O   0  0  0  0  0  0  0  0  0  0  0  0
  -25.0730  -34.1770   25.0430 H   0  0  0  0  0  0  0  0  0  0  0  0
  -24.2370  -36.8660   23.1460 C   0  0  0  0  0  1  0  0  0  0  0  0
  -25.4990  -36.4570   23.9220 C   0  0  0  0  0  3  0  0  0  0  0  0
  -27.6500  -37.3480   24.7030 C   0  0  0  0  0  1  0  0  0  0  0  0
  -26.5330  -37.5050   23.7750 N   0  0  0  0  0  0  0  0  0  0  0  0
  -26.1330  -38.4290   23.9150 H   0  0  0  0  0  0  0  0  0  0  0  0
  -26.4590  -31.8430   25.1780 C   0  0  1  0  0  0  0  0  0  0  0  0
  -25.3630  -31.5910   26.2390 C   0  0  0  0  0  1  0  0  0  0  0  0
  -27.0570  -30.4710   24.7890 C   0  0  0  0  0  1  0  0  0  0  0  0
  -27.5990  -32.6470   25.8470 C   0  0  0  0  0  1  0  0  0  0  0  0
  1  4  2  0
  1  2  1  0
  2  3  2  0
  3  8  1  0
  3  5  1  0
  4  8  1  0
  6  5  1  0
  7 17  1  0
  7  2  1  0
  7  6  1  0
  9 17  1  0
 10 15  1  0
 11 12  1  0
 11 10  1  0
 13 12  1  0
 13 22  1  0
 13 14  1  0
 15  9  1  0
 15 14  1  0
 16  9  2  0
 17 18  1  0
 19 20  2  0
 20 39  1  0
 21 20  1  0
 21 24  1  0
 22 23  1  0
 22 19  1  0
 23 21  2  0
 24 25  1  0
 25 26  2  0
 27 30  1  0
 27 26  1  0
 28 27  2  0
 29 28  1  0
 29 24  2  0
 30 31  1  0
 31 32  1  0
 32 33  2  0
 34 33  1  0
 34 38  1  0
 35 34  2  0
 36 31  2  0
 36 35  1  0
 37 36  1  0
 39 40  1  0
 40 43  1  0
 40 42  1  0
 41 39  2  0
 44 19  1  0
 44 45  1  0
 46 44  1  0
 47 49  2  0
 48 47  1  0
 48  4  1  0
 50 48  1  0
 51 52  1  0
 51 47  1  0
 53 64  2  0
 54 52  1  0
 54 59  1  0
 55 63  1  0
 55 65  1  0
 56 62  1  0
 56 58  1  0
 57 63  1  0
 58 57  1  0
 59 58  2  0
 60 61  1  0
 60 54  2  0
 61 56  2  0
 62 55  1  0
 63 53  1  0
 65 67  2  0
 66 65  1  0
 68 66  1  0
 69 78  2  0
 69 74  1  0
 70 66  1  0
 70 74  1  0
 71 70  1  0
 72 73  1  0
 72 71  1  0
 73 69  1  0
 74 75  2  0
 75 76  1  0
 77 76  2  0
 78 77  1  0
 79 53  1  0
 79 80  1  0
 79 89  1  0
 80 83  1  0
 81 85  1  0
 81 80  1  0
 82 81  2  0
 85 84  1  0
 87 88  1  0
 87 85  1  0
 87 86  1  0
 89 92  1  1
 89 90  1  0
 91 89  1  0
M  ISO  4   9 100  17 100  51 101  52 101
M  END
>  <TORSDO>  (59) 
F 18

>  <SCORE>  (59) 
-14.145

>  <name>  (59) 
58

>  <ligand_id>  (59) 
58

>  <original_smiles>  (59) 
[H]c1c([H])c([H])c2c(c1[H])C([H])([H])C([H])([H])C([H])([H])C2([H])N([H])C(=O)C1([H])N(C(=O)C([H])(N([H])C(=O)C([H])(N([H])C([H])([H])[H])C([H])([H])[H])C(C([H])([H])[H])(C([H])([H])[H])C([H])([H])[H])C([H])([H])c2c([H])c(OC([H])([H])C(=O)N([H])c3sc4c(c3[H])C([H])(N([H])C(=O)N3C([H])([H])C([H])([H])C([H])([H])C([H])(n5nc(-c6c([H])c([H])c(Oc7c([H])c([H])c(F)c([H])c7F)c([H])c6[H])c(C(=O)N([H])[H])c5N([H])[H])C3([H])[H])C([H])([H])C4([H])[H])c([H])c([H])c2C1([H])[H]

>  <smiles>  (59) 
[H]c1c([H])c([H])c2c(c1[H])C([H])([H])C([H])([H])C([H])([H])C2([H])N([H])C(=O)C1([H])N(C(=O)C([H])(N([H])C(=O)C([H])(N([H])C([H])([H])[H])C([H])([H])[H])C(C([H])([H])[H])(C([H])([H])[H])C([H])([H])[H])C([H])([H])c2c([H])c(OC([H])([H])C(=O)N([H])c3sc4c(c3[H])C([H])(N([H])C(=O)N3C([H])([H])C([H])([H])C([H])([H])C([H])(n5nc(-c6c([H])c([H])c(Oc7c([H])c([H])c(F)c([H])c7F)c([H])c6[H])c(C(=O)N([H])[H])c5N([H])[H])C3([H])[H])C([H])([H])C4([H])[H])c([H])c([H])c2C1([H])[H]

$$$$
59:0:0
     RDKit          3D

 92101  0  0  1  0  0  0  0  0999 V2000
  -28.1540  -23.6010   20.0780 C   0  0  0  0  0  0  0  0  0  0  0  0
  -31.4380  -22.0960   20.4350 C   0  0  0  0  0  2  0  0  0  0  0  0
  -30.8620  -21.5680   19.1300 C   0  0  0  0  0  2  0  0  0  0  0  0
  -30.2900  -22.8760   21.0860 C   0  0  0  0  0  2  0  0  0  0  0  0
  -29.3870  -21.3290   19.4560 C   0  0  0  0  0  3  0  0  0  0  0  0
  -29.0650  -22.5580   20.3410 N   0  0  0  0  0  0  0  0  0  0  0  0
  -26.9490  -23.3370   20.0840 O   0  0  0  0  0  0  0  0  0  0  0  0
  -29.7730  -18.7120   20.5050 C   0  0  0  0  0  3  0  0  0  0  0  0
  -28.6230  -17.3190   19.0150 C   0  0  0  0  0  3  0  0  0  0  0  0
  -29.4830  -17.3060   20.0810 C   0  0  0  0  0  0  0  0  0  0  0  0
  -29.1810  -19.7480   19.7230 C   0  0  0  0  0  0  0  0  0  0  0  0
  -28.1790  -18.9440   18.5230 S   0  0  0  0  0  0  0  0  0  0  0  0
  -30.5490  -14.8750   20.3070 C   0  0  0  0  0  0  0  0  0  0  0  0
  -30.3910  -12.5600   19.3450 C   0  0  0  0  0  2  0  0  0  0  0  0
  -29.4490  -12.6090   18.1200 C   0  0  0  0  0  2  0  0  0  0  0  0
  -27.9830  -12.4240   18.5540 C   0  0  0  0  0  2  0  0  0  0  0  0
  -27.6070  -13.3130   19.7680 C   0  0  0  0  0  3  0  0  0  0  0  0
  -28.6700  -13.2430   20.8880 C   0  0  0  0  0  2  0  0  0  0  0  0
  -29.9610  -13.6200   20.2940 N   0  0  0  0  0  0  0  0  0  0  0  0
  -31.7050  -14.9910   19.8850 O   0  0  0  0  0  0  0  0  0  0  0  0
  -29.8060  -15.9850   20.7270 N   0  0  0  0  0  0  0  0  0  0  0  0
  -29.0410  -15.6670   21.3040 H   0  0  0  0  0  0  0  0  0  0  0  0
  -25.2260  -13.9030   20.5120 C   0  0  0  0  0  0  0  0  0  0  0  0
  -24.1600  -13.1300   20.8830 C   0  0  0  0  0  0  0  0  0  0  0  0
  -24.6200  -11.7780   20.8430 C   0  0  0  0  0  0  0  0  0  0  0  0
  -26.2660  -13.0230   20.2640 N   0  0  0  0  0  0  0  0  0  0  0  0
  -25.9090  -11.7380   20.5260 N   0  0  0  0  0  0  0  0  0  0  0  0
  -23.8920  -10.5170   21.0310 C   0  0  0  0  0  0  0  0  0  0  0  0
  -24.3190   -9.5480   21.9670 C   0  0  0  0  0  3  0  0  0  0  0  0
  -23.5890   -8.3530   22.1440 C   0  0  0  0  0  3  0  0  0  0  0  0
  -22.4170   -8.1180   21.3860 C   0  0  0  0  0  0  0  0  0  0  0  0
  -22.0090   -9.0740   20.4400 C   0  0  0  0  0  3  0  0  0  0  0  0
  -22.7400  -10.2600   20.2610 C   0  0  0  0  0  3  0  0  0  0  0  0
  -21.6600   -6.9730   21.4710 O   0  0  0  0  0  0  0  0  0  0  0  0
  -21.5960   -6.2380   22.6270 C   0  0  0  0  0  0  0  0  0  0  0  0
  -21.1410   -6.7950   23.8410 C   0  0  0  0  0  3  0  0  0  0  0  0
  -21.0250   -5.9840   24.9880 C   0  0  0  0  0  3  0  0  0  0  0  0
  -21.3560   -4.6180   24.9230 C   0  0  0  0  0  0  0  0  0  0  0  0
  -21.8060   -4.0600   23.7120 C   0  0  0  0  0  3  0  0  0  0  0  0
  -21.9220   -4.8680   22.5680 C   0  0  0  0  0  0  0  0  0  0  0  0
  -22.3360   -4.3200   21.3990 F   0  0  0  0  0  0  0  0  0  0  0  0
  -21.2380   -3.8370   26.0220 F   0  0  0  0  0  0  0  0  0  0  0  0
  -22.7660  -13.6100   21.1650 C   0  0  0  0  0  0  0  0  0  0  0  0
  -22.0390  -12.9090   22.0280 N   0  0  0  0  0  0  0  0  0  0  0  0
  -22.3320  -14.6420   20.6560 O   0  0  0  0  0  0  0  0  0  0  0  0
  -22.4040  -12.0750   22.4620 H   0  0  0  0  0  0  0  0  0  0  0  0
  -21.1040  -13.2120   22.2590 H   0  0  0  0  0  0  0  0  0  0  0  0
  -25.3930  -15.2750   20.3440 N   0  0  0  0  0  0  0  0  0  0  0  0
  -24.6280  -15.9290   20.4740 H   0  0  0  0  0  0  0  0  0  0  0  0
  -26.2480  -15.7240   20.0450 H   0  0  0  0  0  0  0  0  0  0  0  0
  -28.5570  -25.0910   19.5450 C   0  0  0  0  0  2  0  0  0  0  0  0
  -28.3180  -26.3740   20.3230 O   0  0  0  0  0  0  0  0  0  0  0  0
  -24.6240  -31.9050   23.2350 C   0  0  0  0  0  0  0  0  0  0  0  0
  -27.2220  -27.2690   20.1860 C   0  0  0  0  0  0  0  0  0  0  0  0
  -23.4200  -30.5100   21.5920 C   0  0  0  0  0  3  0  0  0  0  0  0
  -24.8700  -28.9430   20.1610 C   0  0  0  0  0  0  0  0  0  0  0  0
  -25.9640  -30.8000   21.4190 C   0  0  0  0  0  2  0  0  0  0  0  0
  -26.0390  -29.4140   20.7690 C   0  0  0  0  0  0  0  0  0  0  0  0
  -27.2100  -28.5860   20.7760 C   0  0  0  0  0  3  0  0  0  0  0  0
  -26.0320  -26.8700   19.5430 C   0  0  0  0  0  3  0  0  0  0  0  0
  -24.8730  -27.6820   19.5380 C   0  0  0  0  0  3  0  0  0  0  0  0
  -23.6360  -29.8280   20.2120 C   0  0  0  0  0  2  0  0  0  0  0  0
  -24.6890  -31.0930   22.1380 N   0  0  0  0  0  0  0  0  0  0  0  0
  -23.5410  -32.1890   23.7680 O   0  0  0  0  0  0  0  0  0  0  0  0
  -22.7480  -29.5020   22.5550 C   0  0  0  0  0  0  0  0  0  0  0  0
  -21.4200  -29.3340   22.4290 N   0  0  0  0  0  0  0  0  0  0  0  0
  -23.4200  -28.8740   23.3760 O   0  0  0  0  0  0  0  0  0  0  0  0
  -20.9350  -29.8910   21.7420 H   0  0  0  0  0  0  0  0  0  0  0  0
  -18.0350  -28.1580   22.9400 C   0  0  0  0  0  0  0  0  0  0  0  0
  -20.5970  -28.3990   23.2000 C   0  0  0  0  0  3  0  0  0  0  0  0
  -20.6860  -26.9690   22.6180 C   0  0  0  0  0  2  0  0  0  0  0  0
  -19.5790  -26.6580   21.6070 C   0  0  0  0  0  2  0  0  0  0  0  0
  -18.2000  -26.8110   22.2570 C   0  0  0  0  0  2  0  0  0  0  0  0
  -19.1610  -28.9100   23.3700 C   0  0  0  0  0  0  0  0  0  0  0  0
  -18.9520  -30.1700   23.9700 C   0  0  0  0  0  3  0  0  0  0  0  0
  -17.6510  -30.6780   24.1450 C   0  0  0  0  0  3  0  0  0  0  0  0
  -16.5400  -29.9230   23.7310 C   0  0  0  0  0  3  0  0  0  0  0  0
  -16.7330  -28.6640   23.1350 C   0  0  0  0  0  3  0  0  0  0  0  0
  -25.9060  -32.5380   23.8620 C   0  0  0  0  0  3  0  0  0  0  0  0
  -25.5980  -33.9370   24.1910 N   0  0  0  0  0  0  0  0  0  0  0  0
  -25.9360  -34.9920   23.4370 C   0  0  0  0  0  0  0  0  0  0  0  0
  -26.6060  -34.8880   22.4060 O   0  0  0  0  0  0  0  0  0  0  0  0
  -25.0020  -34.0920   24.9910 H   0  0  0  0  0  0  0  0  0  0  0  0
  -24.2190  -36.7980   23.0830 C   0  0  0  0  0  1  0  0  0  0  0  0
  -25.4550  -36.3830   23.8980 C   0  0  0  0  0  3  0  0  0  0  0  0
  -27.5890  -37.2560   24.7420 C   0  0  0  0  0  1  0  0  0  0  0  0
  -26.4940  -37.4300   23.7920 N   0  0  0  0  0  0  0  0  0  0  0  0
  -26.0920  -38.3520   23.9380 H   0  0  0  0  0  0  0  0  0  0  0  0
  -26.4150  -31.7690   25.1440 C   0  0  1  0  0  0  0  0  0  0  0  0
  -25.3160  -31.5390   26.2080 C   0  0  0  0  0  1  0  0  0  0  0  0
  -26.9940  -30.3870   24.7600 C   0  0  0  0  0  1  0  0  0  0  0  0
  -27.5660  -32.5610   25.8080 C   0  0  0  0  0  1  0  0  0  0  0  0
  1  7  2  0
  1  6  1  0
  2  4  1  0
  3  5  1  0
  3  2  1  0
  5 11  1  0
  5  6  1  0
  6  4  1  0
  9 10  2  0
 10  8  1  0
 10 21  1  0
 11  8  2  0
 12  9  1  0
 12 11  1  0
 13 21  1  0
 14 19  1  0
 15 16  1  0
 15 14  1  0
 17 16  1  0
 17 26  1  0
 17 18  1  0
 19 13  1  0
 19 18  1  0
 20 13  2  0
 21 22  1  0
 23 24  2  0
 24 43  1  0
 25 24  1  0
 25 28  1  0
 26 23  1  0
 26 27  1  0
 27 25  2  0
 28 29  1  0
 29 30  2  0
 31 34  1  0
 31 30  1  0
 32 31  2  0
 33 32  1  0
 33 28  2  0
 34 35  1  0
 35 36  1  0
 36 37  2  0
 38 37  1  0
 38 42  1  0
 39 38  2  0
 40 35  2  0
 40 39  1  0
 41 40  1  0
 43 44  1  0
 44 47  1  0
 44 46  1  0
 45 43  2  0
 48 49  1  0
 48 23  1  0
 50 48  1  0
 51  1  1  0
 51 52  1  0
 53 64  2  0
 54 52  1  0
 54 59  1  0
 55 63  1  0
 55 65  1  0
 56 62  1  0
 56 58  1  0
 57 63  1  0
 58 59  2  0
 58 57  1  0
 60 54  2  0
 61 60  1  0
 61 56  2  0
 62 55  1  0
 63 53  1  0
 65 67  2  0
 66 65  1  0
 68 66  1  0
 69 78  2  0
 69 74  1  0
 70 66  1  0
 70 74  1  0
 71 70  1  0
 72 73  1  0
 72 71  1  0
 73 69  1  0
 74 75  2  0
 75 76  1  0
 77 76  2  0
 78 77  1  0
 79 53  1  0
 79 80  1  0
 79 89  1  0
 80 83  1  0
 81 85  1  0
 81 80  1  0
 82 81  2  0
 85 84  1  0
 87 85  1  0
 87 88  1  0
 87 86  1  0
 89 92  1  1
 89 90  1  0
 91 89  1  0
M  ISO  4  13 100  21 100  51 101  52 101
M  END
>  <TORSDO>  (60) 
F 18

>  <SCORE>  (60) 
-14.871

>  <name>  (60) 
59

>  <ligand_id>  (60) 
59

>  <original_smiles>  (60) 
[H]c1sc(C2([H])N(C(=O)C([H])([H])Oc3c([H])c([H])c4c(c3[H])C([H])([H])N(C(=O)C([H])(N([H])C(=O)C([H])(N([H])C([H])([H])[H])C([H])([H])[H])C(C([H])([H])[H])(C([H])([H])[H])C([H])([H])[H])C([H])(C(=O)N([H])C3([H])c5c([H])c([H])c([H])c([H])c5C([H])([H])C([H])([H])C3([H])[H])C4([H])[H])C([H])([H])C([H])([H])C2([H])[H])c([H])c1N([H])C(=O)N1C([H])([H])C([H])([H])C([H])([H])C([H])(n2nc(-c3c([H])c([H])c(Oc4c([H])c([H])c(F)c([H])c4F)c([H])c3[H])c(C(=O)N([H])[H])c2N([H])[H])C1([H])[H]

>  <smiles>  (60) 
[H]c1sc(C2([H])N(C(=O)C([H])([H])Oc3c([H])c([H])c4c(c3[H])C([H])([H])N(C(=O)C([H])(N([H])C(=O)C([H])(N([H])C([H])([H])[H])C([H])([H])[H])C(C([H])([H])[H])(C([H])([H])[H])C([H])([H])[H])C([H])(C(=O)N([H])C3([H])c5c([H])c([H])c([H])c([H])c5C([H])([H])C([H])([H])C3([H])[H])C4([H])[H])C([H])([H])C([H])([H])C2([H])[H])c([H])c1N([H])C(=O)N1C([H])([H])C([H])([H])C([H])([H])C([H])(n2nc(-c3c([H])c([H])c(Oc4c([H])c([H])c(F)c([H])c4F)c([H])c3[H])c(C(=O)N([H])[H])c2N([H])[H])C1([H])[H]

$$$$
60:0:0
     RDKit          3D

100102  0  0  1  0  0  0  0  0999 V2000
  -24.7290  -23.9410   20.1210 C   0  0  0  0  0  2  0  0  0  0  0  0
  -24.6410  -24.0900   21.4350 N   0  0  0  0  0  0  0  0  0  0  0  0
  -23.8980  -25.3070   19.6200 N   0  0  0  0  0  2  0  0  0  0  0  0
  -25.4630  -23.9550   22.0040 H   0  0  0  0  0  0  0  0  0  0  0  0
  -23.7780  -24.3880   21.8550 H   0  0  0  0  0  0  0  0  0  0  0  0
  -23.8860  -25.1330   18.6210 H   0  0  0  0  0  0  0  0  0  0  0  0
  -25.6620  -20.9690   18.9640 C   0  0  0  0  0  3  0  0  0  0  0  0
  -26.4830  -19.5980   18.8520 C   0  0  0  0  0  3  0  0  0  0  0  0
  -27.8070  -20.2550   20.3500 C   0  0  0  0  0  3  0  0  0  0  0  0
  -25.7520  -22.2720   19.7960 C   0  0  0  0  0  3  0  0  0  0  0  0
  -27.7340  -18.9610   19.5180 C   0  0  0  0  0  0  0  0  0  0  0  0
  -27.0250  -21.6490   20.4550 C   0  0  0  0  0  0  0  0  0  0  0  0
  -29.7730  -16.1270   19.5020 C   0  0  0  0  0  0  0  0  0  0  0  0
  -30.5700  -13.5260   18.8790 C   0  0  0  0  0  2  0  0  0  0  0  0
  -29.7520  -12.7890   17.7660 C   0  0  0  0  0  2  0  0  0  0  0  0
  -28.3910  -12.3190   18.3000 C   0  0  0  0  0  2  0  0  0  0  0  0
  -27.8240  -13.3670   19.2780 C   0  0  0  0  0  3  0  0  0  0  0  0
  -28.8040  -13.8180   20.3540 C   0  0  0  0  0  2  0  0  0  0  0  0
  -29.7260  -14.6370   19.5850 N   0  0  0  0  0  0  0  0  0  0  0  0
  -31.0050  -16.2830   19.2390 O   0  0  0  0  0  0  0  0  0  0  0  0
  -28.5360  -17.2580   19.5690 N   0  0  0  0  0  0  0  0  0  0  0  0
  -27.7550  -16.6440   19.7570 H   0  0  0  0  0  0  0  0  0  0  0  0
  -25.6110  -13.9440   20.2760 C   0  0  0  0  0  0  0  0  0  0  0  0
  -24.5800  -13.1770   20.7270 C   0  0  0  0  0  0  0  0  0  0  0  0
  -25.0120  -11.8190   20.6030 C   0  0  0  0  0  0  0  0  0  0  0  0
  -26.5720  -13.0420   19.8790 N   0  0  0  0  0  0  0  0  0  0  0  0
  -26.2570  -11.7590   20.1550 N   0  0  0  0  0  0  0  0  0  0  0  0
  -24.2850  -10.5670   20.8070 C   0  0  0  0  0  0  0  0  0  0  0  0
  -24.6790   -9.6350   21.7900 C   0  0  0  0  0  3  0  0  0  0  0  0
  -23.9450   -8.4460   21.9770 C   0  0  0  0  0  3  0  0  0  0  0  0
  -22.8070   -8.1830   21.1800 C   0  0  0  0  0  0  0  0  0  0  0  0
  -22.4380   -9.1020   20.1830 C   0  0  0  0  0  3  0  0  0  0  0  0
  -23.1710  -10.2840   19.9940 C   0  0  0  0  0  3  0  0  0  0  0  0
  -22.0450   -7.0460   21.2760 O   0  0  0  0  0  0  0  0  0  0  0  0
  -21.7900   -6.4540   22.4860 C   0  0  0  0  0  0  0  0  0  0  0  0
  -21.1670   -7.1570   23.5420 C   0  0  0  0  0  3  0  0  0  0  0  0
  -20.8600   -6.4900   24.7450 C   0  0  0  0  0  3  0  0  0  0  0  0
  -21.1640   -5.1220   24.8900 C   0  0  0  0  0  0  0  0  0  0  0  0
  -21.7790   -4.4220   23.8380 C   0  0  0  0  0  3  0  0  0  0  0  0
  -22.0890   -5.0860   22.6390 C   0  0  0  0  0  0  0  0  0  0  0  0
  -22.6620   -4.4030   21.6200 F   0  0  0  0  0  0  0  0  0  0  0  0
  -20.8610   -4.4800   26.0420 F   0  0  0  0  0  0  0  0  0  0  0  0
  -23.2290  -13.6780   21.1300 C   0  0  0  0  0  0  0  0  0  0  0  0
  -22.5790  -12.9890   22.0590 N   0  0  0  0  0  0  0  0  0  0  0  0
  -22.7670  -14.7120   20.6510 O   0  0  0  0  0  0  0  0  0  0  0  0
  -22.9770  -12.1530   22.4610 H   0  0  0  0  0  0  0  0  0  0  0  0
  -21.6710  -13.3010   22.3720 H   0  0  0  0  0  0  0  0  0  0  0  0
  -25.8030  -15.3170   20.1130 N   0  0  0  0  0  0  0  0  0  0  0  0
  -24.9730  -15.8890   20.2290 H   0  0  0  0  0  0  0  0  0  0  0  0
  -26.3110  -15.5840   19.2810 H   0  0  0  0  0  0  0  0  0  0  0  0
  -27.6960  -22.4780   21.3730 N   0  0  0  0  0  0  0  0  0  0  0  0
  -28.4600  -22.0530   21.8910 H   0  0  0  0  0  0  0  0  0  0  0  0
  -27.1240  -22.9880   22.0300 H   0  0  0  0  0  0  0  0  0  0  0  0
  -22.7380  -26.9120   19.7680 C   0  0  0  0  0 15  0  0  0  0  0  0
  -22.3930  -28.8950   20.8650 C   0  0  0  0  0 15  0  0  0  0  0  0
  -23.6390  -29.3730   23.0320 C   0  0  0  0  0  1  0  0  0  0  0  0
  -22.8720  -29.4490   24.4450 C   0  0  0  0  0  0  0  0  0  0  0  0
  -23.0660  -28.3880   25.5680 C   0  0  0  0  0  1  0  0  0  0  0  0
  -22.0940  -30.3620   24.7150 O   0  0  0  0  0  0  0  0  0  0  0  0
  -25.7820  -28.7610   22.7980 O   0  0  0  0  0  1  0  0  0  0  0  0
  -24.8030  -31.5540   22.7500 C   0  0  0  0  0  0  0  0  0  0  0  0
  -26.7880  -28.0580   21.7560 C   0  0  0  0  0  3  0  0  0  0  0  0
  -24.4140  -29.0940   21.0190 C   0  0  0  0  0  2  0  0  0  0  0  0
  -25.8260  -28.8000   19.5160 C   0  0  0  0  0  3  0  0  0  0  0  0
  -26.1980  -30.9400   20.8610 C   0  0  0  0  0  2  0  0  0  0  0  0
  -26.7160  -29.6450   20.2800 C   0  0  0  0  0  3  0  0  0  0  0  0
  -27.6000  -28.9930   21.1360 C   0  0  0  0  0  2  0  0  0  0  0  0
  -26.6020  -27.0140   20.7320 C   0  0  0  0  0  2  0  0  0  0  0  0
  -25.9980  -27.4160   19.5370 C   0  0  0  0  0  2  0  0  0  0  0  0
  -24.4250  -29.1370   19.5310 C   0  0  0  0  0  2  0  0  0  0  0  0
  -24.9930  -30.6560   21.5940 N   0  0  0  0  0  0  0  0  0  0  0  0
  -23.6630  -31.8670   23.1270 O   0  0  0  0  0  0  0  0  0  0  0  0
  -24.1370  -27.1470   22.2120 C   0  0  0  0  0  2  0  0  0  0  0  0
  -22.7830  -26.7890   22.8940 N   0  0  0  0  0  0  0  0  0  0  0  0
  -24.7110  -26.7870   23.2110 O   0  0  0  0  0  1  0  0  0  0  0  0
  -23.1080  -26.2550   23.6910 H   0  0  0  0  0  0  0  0  0  0  0  0
  -18.5640  -26.7450   22.0580 C   0  0  0  0  0  0  0  0  0  0  0  0
  -21.1280  -26.7580   22.9760 C   0  0  0  0  0  3  0  0  0  0  0  0
  -21.0080  -25.3560   22.4420 C   0  0  0  0  0  2  0  0  0  0  0  0
  -20.2570  -25.2330   21.1290 C   0  0  0  0  0  2  0  0  0  0  0  0
  -18.8100  -25.3880   21.4600 C   0  0  0  0  0  2  0  0  0  0  0  0
  -19.6430  -27.5280   22.6460 C   0  0  0  0  0  0  0  0  0  0  0  0
  -19.1230  -28.7870   23.1250 C   0  0  0  0  0  3  0  0  0  0  0  0
  -17.7570  -29.2100   23.0180 C   0  0  0  0  0  3  0  0  0  0  0  0
  -16.7750  -28.3710   22.4750 C   0  0  0  0  0  3  0  0  0  0  0  0
  -17.1970  -27.1300   22.0020 C   0  0  0  0  0  3  0  0  0  0  0  0
  -25.9040  -32.2870   23.6870 C   0  0  0  0  0  3  0  0  0  0  0  0
  -25.3860  -33.6370   24.0450 N   0  0  0  0  0  0  0  0  0  0  0  0
  -25.6750  -34.7730   23.4000 C   0  0  0  0  0  0  0  0  0  0  0  0
  -26.4270  -34.7840   22.4240 O   0  0  0  0  0  0  0  0  0  0  0  0
  -24.6980  -33.6680   24.7830 H   0  0  0  0  0  0  0  0  0  0  0  0
  -23.7810  -36.4140   23.0800 C   0  0  0  0  0  1  0  0  0  0  0  0
  -25.0440  -36.0940   23.8990 C   0  0  0  0  0  3  0  0  0  0  0  0
  -27.0570  -37.1800   24.8060 C   0  0  0  0  0  1  0  0  0  0  0  0
  -25.9610  -37.2550   23.8430 N   0  0  0  0  0  0  0  0  0  0  0  0
  -25.4560  -38.1210   24.0100 H   0  0  0  0  0  0  0  0  0  0  0  0
  -26.3550  -31.6320   25.0950 C   0  0  1  0  0  0  0  0  0  0  0  0
  -25.2370  -31.4990   26.1600 C   0  0  0  0  0  1  0  0  0  0  0  0
  -27.0290  -30.2570   24.9300 C   0  0  0  0  0  1  0  0  0  0  0  0
  -27.4470  -32.5220   25.7600 C   0  0  0  0  0  1  0  0  0  0  0  0
  1  2  1  0
  2  5  1  0
  2  4  1  0
  3  1  1  0
  6  3  1  0
  7 10  1  0
  8  7  2  0
  8 11  1  0
  9 12  1  0
 10 12  2  0
 11 21  1  0
 11  9  2  0
 12 51  1  0
 13 21  1  0
 13 19  1  0
 14 19  1  0
 15 16  1  0
 15 14  1  0
 17 16  1  0
 17 26  1  0
 17 18  1  0
 19 18  1  0
 20 13  2  0
 21 22  1  0
 23 24  2  0
 24 43  1  0
 25 24  1  0
 25 28  1  0
 26 27  1  0
 26 23  1  0
 27 25  2  0
 28 29  1  0
 29 30  2  0
 31 34  1  0
 31 30  1  0
 32 31  2  0
 33 32  1  0
 33 28  2  0
 34 35  1  0
 35 40  2  0
 35 36  1  0
 36 37  2  0
 37 38  1  0
 38 42  1  0
 39 38  2  0
 40 39  1  0
 41 40  1  0
 43 44  1  0
 44 47  1  0
 44 46  1  0
 45 43  2  0
 48 49  1  0
 48 23  1  0
 50 48  1  0
 51 52  1  0
 51 53  1  0
 56 57  1  0
 57 59  2  0
 57 58  1  0
 61 72  2  0
 62 60  1  0
 63 71  1  0
 64 70  1  0
 64 69  1  0
 64 66  1  0
 65 71  1  0
 66 65  1  0
 66 67  1  0
 67 62  1  0
 68 62  1  0
 69 68  1  0
 70 63  1  0
 71 61  1  0
 73 74  1  0
 73 75  1  0
 74 76  1  0
 77 82  1  0
 78 74  1  0
 79 78  1  0
 80 81  1  0
 80 79  1  0
 81 77  1  0
 82 78  1  0
 82 83  2  0
 84 83  1  0
 85 84  2  0
 86 77  2  0
 86 85  1  0
 87 61  1  0
 87 88  1  0
 87 97  1  0
 88 91  1  0
 89 93  1  0
 89 88  1  0
 90 89  2  0
 93 92  1  0
 95 93  1  0
 95 96  1  0
 95 94  1  0
 97100  1  1
 97 98  1  0
 99 97  1  0
M  ISO  4  13 100  21 100  56 101  60 101
M  END
>  <TORSDO>  (61) 
F 22

>  <SCORE>  (61) 
-10.846

>  <name>  (61) 
60

>  <ligand_id>  (61) 
60

>  <original_smiles>  (61) 
[H]c1c([H])c([H])c2c(c1[H])C([H])([H])C([H])([H])C([H])([H])C2([H])N([H])C(=O)C1([H])N(C(=O)C([H])(N([H])C(=O)C([H])(N([H])C([H])([H])[H])C([H])([H])[H])C(C([H])([H])[H])(C([H])([H])[H])C([H])([H])[H])C([H])([H])c2c([H])c(OC([H])(C(=O)C([H])([H])[H])C([H])([H])C([H])([H])[N+]([H])=C(c3c([H])c([H])c(N([H])C(=O)N4C([H])([H])C([H])([H])C([H])([H])C([H])(n5nc(-c6c([H])c([H])c(Oc7c([H])c([H])c(F)c([H])c7F)c([H])c6[H])c(C(=O)N([H])[H])c5N([H])[H])C4([H])[H])c([H])c3N([H])[H])N([H])[H])c([H])c([H])c2C1([H])[H]

>  <smiles>  (61) 
[H]c1c([H])c([H])c2c(c1[H])C([H])([H])C([H])([H])C([H])([H])C2([H])N([H])C(=O)C1([H])N(C(=O)C([H])(N([H])C(=O)C([H])(N([H])C([H])([H])[H])C([H])([H])[H])C(C([H])([H])[H])(C([H])([H])[H])C([H])([H])[H])C([H])([H])c2c([H])c(OC([H])(C(=O)C([H])([H])[H])C([H])([H])C([H])([H])[N+]([H])=C(c3c([H])c([H])c(N([H])C(=O)N4C([H])([H])C([H])([H])C([H])([H])C([H])(n5nc(-c6c([H])c([H])c(Oc7c([H])c([H])c(F)c([H])c7F)c([H])c6[H])c(C(=O)N([H])[H])c5N([H])[H])C4([H])[H])c([H])c3N([H])[H])N([H])[H])c([H])c([H])c2C1([H])[H]

$$$$
61:0:0
     RDKit          3D

 98107  0  0  1  0  0  0  0  0999 V2000
  -28.0800  -23.8570   20.4980 C   0  0  0  0  0  0  0  0  0  0  0  0
  -28.7920  -21.3180   20.7130 C   0  0  0  0  0  3  0  0  0  0  0  0
  -29.9160  -24.7150   19.3050 C   0  0  0  0  0  2  0  0  0  0  0  0
  -30.0000  -23.1590   19.3460 C   0  0  0  0  0  2  0  0  0  0  0  0
  -28.4710  -25.1240   19.6250 C   0  0  0  0  0  3  0  0  0  0  0  0
  -28.9430  -22.6520   20.2510 N   0  0  0  0  0  0  0  0  0  0  0  0
  -27.6830  -21.0440   21.4030 N   0  0  0  0  0  0  0  0  0  0  0  0
  -27.1180  -23.8330   21.2740 O   0  0  0  0  0  0  0  0  0  0  0  0
  -27.5630  -20.1420   21.8330 H   0  0  0  0  0  0  0  0  0  0  0  0
  -27.0280  -21.7890   21.6050 H   0  0  0  0  0  0  0  0  0  0  0  0
  -31.1210  -20.3430   20.8300 C   0  0  0  0  0  3  0  0  0  0  0  0
  -29.3670  -18.6910   20.4880 C   0  0  0  0  0  3  0  0  0  0  0  0
  -31.6560  -17.9390   20.7750 C   0  0  0  0  0  3  0  0  0  0  0  0
  -29.7490  -20.1040   20.6090 C   0  0  0  0  0  0  0  0  0  0  0  0
  -32.0550  -19.2890   20.9020 C   0  0  0  0  0  0  0  0  0  0  0  0
  -30.3050  -17.5650   20.5710 C   0  0  0  0  0  0  0  0  0  0  0  0
  -30.6930  -14.9570   20.2670 C   0  0  0  0  0  0  0  0  0  0  0  0
  -30.4830  -12.6840   19.2320 C   0  0  0  0  0  2  0  0  0  0  0  0
  -29.5140  -12.7450   18.0310 C   0  0  0  0  0  2  0  0  0  0  0  0
  -28.0590  -12.5410   18.4990 C   0  0  0  0  0  2  0  0  0  0  0  0
  -27.7040  -13.4130   19.7320 C   0  0  0  0  0  3  0  0  0  0  0  0
  -28.7930  -13.3460   20.8250 C   0  0  0  0  0  2  0  0  0  0  0  0
  -30.0630  -13.7300   20.1960 N   0  0  0  0  0  0  0  0  0  0  0  0
  -31.8700  -15.0320   19.9050 O   0  0  0  0  0  0  0  0  0  0  0  0
  -29.9340  -16.1070   20.5180 N   0  0  0  0  0  0  0  0  0  0  0  0
  -28.9580  -15.9110   20.6760 H   0  0  0  0  0  0  0  0  0  0  0  0
  -25.3370  -13.9610   20.5490 C   0  0  0  0  0  0  0  0  0  0  0  0
  -24.2900  -13.1680   20.9310 C   0  0  0  0  0  0  0  0  0  0  0  0
  -24.7630  -11.8220   20.8510 C   0  0  0  0  0  0  0  0  0  0  0  0
  -26.3800  -13.0980   20.2570 N   0  0  0  0  0  0  0  0  0  0  0  0
  -26.0450  -11.8050   20.5020 N   0  0  0  0  0  0  0  0  0  0  0  0
  -24.0520  -10.5500   21.0270 C   0  0  0  0  0  0  0  0  0  0  0  0
  -24.4880   -9.5810   21.9580 C   0  0  0  0  0  3  0  0  0  0  0  0
  -23.7760   -8.3750   22.1240 C   0  0  0  0  0  3  0  0  0  0  0  0
  -22.6110   -8.1270   21.3580 C   0  0  0  0  0  0  0  0  0  0  0  0
  -22.1940   -9.0840   20.4170 C   0  0  0  0  0  3  0  0  0  0  0  0
  -22.9070  -10.2830   20.2490 C   0  0  0  0  0  3  0  0  0  0  0  0
  -21.8690   -6.9730   21.4330 O   0  0  0  0  0  0  0  0  0  0  0  0
  -21.7790   -6.2490   22.5950 C   0  0  0  0  0  0  0  0  0  0  0  0
  -21.2390   -6.8010   23.7780 C   0  0  0  0  0  3  0  0  0  0  0  0
  -21.1000   -6.0010   24.9290 C   0  0  0  0  0  3  0  0  0  0  0  0
  -21.4940   -4.6510   24.9000 C   0  0  0  0  0  0  0  0  0  0  0  0
  -22.0290   -4.0980   23.7230 C   0  0  0  0  0  3  0  0  0  0  0  0
  -22.1680   -4.8950   22.5730 C   0  0  0  0  0  0  0  0  0  0  0  0
  -22.6640   -4.3510   21.4350 F   0  0  0  0  0  0  0  0  0  0  0  0
  -21.3550   -3.8790   26.0040 F   0  0  0  0  0  0  0  0  0  0  0  0
  -22.8980  -13.6280   21.2540 C   0  0  0  0  0  0  0  0  0  0  0  0
  -22.2010  -12.9060   22.1250 N   0  0  0  0  0  0  0  0  0  0  0  0
  -22.4370  -14.6600   20.7690 O   0  0  0  0  0  0  0  0  0  0  0  0
  -22.5870  -12.0690   22.5370 H   0  0  0  0  0  0  0  0  0  0  0  0
  -21.2680  -13.1930   22.3830 H   0  0  0  0  0  0  0  0  0  0  0  0
  -25.4840  -15.3370   20.4000 N   0  0  0  0  0  0  0  0  0  0  0  0
  -24.7060  -15.9740   20.5360 H   0  0  0  0  0  0  0  0  0  0  0  0
  -26.2980  -15.7890   20.0070 H   0  0  0  0  0  0  0  0  0  0  0  0
  -33.3970  -19.5950   21.1360 N   0  0  0  0  0  0  0  0  0  0  0  0
  -33.6350  -20.5040   21.5200 H   0  0  0  0  0  0  0  0  0  0  0  0
  -34.0120  -18.8580   21.4680 H   0  0  0  0  0  0  0  0  0  0  0  0
  -28.3900  -26.5280   20.1990 O   0  0  0  0  0  0  0  0  0  0  0  0
  -24.6340  -31.9460   23.2370 C   0  0  0  0  0  0  0  0  0  0  0  0
  -27.2620  -27.3860   20.1240 C   0  0  0  0  0  0  0  0  0  0  0  0
  -23.4360  -30.5580   21.5860 C   0  0  0  0  0  3  0  0  0  0  0  0
  -24.8900  -29.0260   20.1320 C   0  0  0  0  0  0  0  0  0  0  0  0
  -25.9750  -30.8820   21.3980 C   0  0  0  0  0  2  0  0  0  0  0  0
  -26.0600  -29.5060   20.7330 C   0  0  0  0  0  0  0  0  0  0  0  0
  -27.2420  -28.6980   20.7180 C   0  0  0  0  0  3  0  0  0  0  0  0
  -26.0640  -26.9730   19.4980 C   0  0  0  0  0  3  0  0  0  0  0  0
  -24.8980  -27.7700   19.5040 C   0  0  0  0  0  3  0  0  0  0  0  0
  -23.6500  -29.8990   20.1960 C   0  0  0  0  0  2  0  0  0  0  0  0
  -24.7010  -31.1480   22.1300 N   0  0  0  0  0  0  0  0  0  0  0  0
  -23.5510  -32.2100   23.7780 O   0  0  0  0  0  0  0  0  0  0  0  0
  -22.7820  -29.5280   22.5390 C   0  0  0  0  0  0  0  0  0  0  0  0
  -21.4590  -29.3310   22.4060 N   0  0  0  0  0  0  0  0  0  0  0  0
  -23.4650  -28.9100   23.3600 O   0  0  0  0  0  0  0  0  0  0  0  0
  -20.9640  -29.8820   21.7190 H   0  0  0  0  0  0  0  0  0  0  0  0
  -18.1010  -28.0680   22.8840 C   0  0  0  0  0  0  0  0  0  0  0  0
  -20.6520  -28.3750   23.1680 C   0  0  0  0  0  3  0  0  0  0  0  0
  -20.7840  -26.9470   22.5870 C   0  0  0  0  0  2  0  0  0  0  0  0
  -19.6940  -26.6090   21.5660 C   0  0  0  0  0  2  0  0  0  0  0  0
  -18.3060  -26.7250   22.2030 C   0  0  0  0  0  2  0  0  0  0  0  0
  -19.2020  -28.8490   23.3230 C   0  0  0  0  0  0  0  0  0  0  0  0
  -18.9550  -30.1040   23.9190 C   0  0  0  0  0  3  0  0  0  0  0  0
  -17.6400  -30.5790   24.0820 C   0  0  0  0  0  3  0  0  0  0  0  0
  -16.5530  -29.7940   23.6580 C   0  0  0  0  0  3  0  0  0  0  0  0
  -16.7840  -28.5410   23.0650 C   0  0  0  0  0  3  0  0  0  0  0  0
  -25.9120  -32.5850   23.8620 C   0  0  0  0  0  3  0  0  0  0  0  0
  -25.5930  -33.9790   24.2040 N   0  0  0  0  0  0  0  0  0  0  0  0
  -25.8900  -35.0390   23.4410 C   0  0  0  0  0  0  0  0  0  0  0  0
  -26.5300  -34.9470   22.3900 O   0  0  0  0  0  0  0  0  0  0  0  0
  -25.0240  -34.1230   25.0250 H   0  0  0  0  0  0  0  0  0  0  0  0
  -24.1240  -36.8100   23.1530 C   0  0  0  0  0  1  0  0  0  0  0  0
  -25.4000  -36.4200   23.9190 C   0  0  0  0  0  3  0  0  0  0  0  0
  -27.5420  -37.3440   24.6850 C   0  0  0  0  0  1  0  0  0  0  0  0
  -26.4120  -37.4890   23.7710 N   0  0  0  0  0  0  0  0  0  0  0  0
  -25.9960  -38.4040   23.9230 H   0  0  0  0  0  0  0  0  0  0  0  0
  -26.4340  -31.8100   25.1350 C   0  0  1  0  0  0  0  0  0  0  0  0
  -25.3430  -31.5560   26.2010 C   0  0  0  0  0  1  0  0  0  0  0  0
  -27.0300  -30.4410   24.7370 C   0  0  0  0  0  1  0  0  0  0  0  0
  -27.5770  -32.6110   25.8040 C   0  0  0  0  0  1  0  0  0  0  0  0
  1  8  2  0
  2  7  1  0
  3  4  1  0
  3  5  1  0
  4  6  1  0
  5 58  1  0
  5  1  1  0
  6  1  1  0
  6  2  1  0
  7 10  1  0
  7  9  1  0
 11 15  1  0
 12 16  2  0
 12 14  1  0
 13 15  2  0
 14  2  1  0
 14 11  2  0
 15 55  1  0
 16 13  1  0
 17 25  1  0
 18 23  1  0
 19 20  1  0
 19 18  1  0
 21 20  1  0
 21 30  1  0
 21 22  1  0
 23 17  1  0
 23 22  1  0
 24 17  2  0
 25 16  1  0
 25 26  1  0
 27 28  2  0
 28 47  1  0
 29 28  1  0
 29 32  1  0
 30 31  1  0
 30 27  1  0
 31 29  2  0
 32 33  1  0
 33 34  2  0
 35 38  1  0
 35 34  1  0
 36 35  2  0
 37 36  1  0
 37 32  2  0
 38 39  1  0
 39 40  1  0
 40 41  2  0
 42 41  1  0
 42 46  1  0
 43 42  2  0
 44 39  2  0
 44 43  1  0
 45 44  1  0
 47 48  1  0
 48 51  1  0
 48 50  1  0
 49 47  2  0
 52 53  1  0
 52 27  1  0
 54 52  1  0
 55 57  1  0
 55 56  1  0
 59 70  2  0
 60 58  1  0
 60 65  1  0
 61 69  1  0
 61 71  1  0
 62 68  1  0
 62 64  1  0
 63 69  1  0
 64 63  1  0
 65 64  2  0
 66 67  1  0
 66 60  2  0
 67 62  2  0
 68 61  1  0
 69 59  1  0
 71 73  2  0
 72 71  1  0
 74 72  1  0
 75 84  2  0
 75 80  1  0
 76 72  1  0
 76 80  1  0
 77 76  1  0
 78 79  1  0
 78 77  1  0
 79 75  1  0
 80 81  2  0
 81 82  1  0
 83 82  2  0
 84 83  1  0
 85 59  1  0
 85 86  1  0
 85 95  1  0
 86 89  1  0
 87 91  1  0
 87 86  1  0
 88 87  2  0
 91 90  1  0
 93 91  1  0
 93 94  1  0
 93 92  1  0
 95 98  1  1
 95 96  1  0
 97 95  1  0
M  ISO  4   5 101  17 100  25 100  58 101
M  END
>  <TORSDO>  (62) 
F 18

>  <SCORE>  (62) 
-15.172

>  <name>  (62) 
61

>  <ligand_id>  (62) 
61

>  <original_smiles>  (62) 
[H]c1c([H])c([H])c2c(c1[H])C([H])([H])C([H])([H])C([H])([H])C2([H])N([H])C(=O)C1([H])N(C(=O)C([H])(N([H])C(=O)C([H])(N([H])C([H])([H])[H])C([H])([H])[H])C(C([H])([H])[H])(C([H])([H])[H])C([H])([H])[H])C([H])([H])c2c([H])c(OC3([H])C(=O)N(C(c4c([H])c(N([H])[H])c([H])c(N([H])C(=O)N5C([H])([H])C([H])([H])C([H])([H])C([H])(n6nc(-c7c([H])c([H])c(Oc8c([H])c([H])c(F)c([H])c8F)c([H])c7[H])c(C(=O)N([H])[H])c6N([H])[H])C5([H])[H])c4[H])=[N+]([H])[H])C([H])([H])C3([H])[H])c([H])c([H])c2C1([H])[H]

>  <smiles>  (62) 
[H]c1c([H])c([H])c2c(c1[H])C([H])([H])C([H])([H])C([H])([H])C2([H])N([H])C(=O)C1([H])N(C(=O)C([H])(N([H])C(=O)C([H])(N([H])C([H])([H])[H])C([H])([H])[H])C(C([H])([H])[H])(C([H])([H])[H])C([H])([H])[H])C([H])([H])c2c([H])c(OC3([H])C(=O)N(C(c4c([H])c(N([H])[H])c([H])c(N([H])C(=O)N5C([H])([H])C([H])([H])C([H])([H])C([H])(n6nc(-c7c([H])c([H])c(Oc8c([H])c([H])c(F)c([H])c8F)c([H])c7[H])c(C(=O)N([H])[H])c6N([H])[H])C5([H])[H])c4[H])=[N+]([H])[H])C([H])([H])C3([H])[H])c([H])c([H])c2C1([H])[H]

$$$$
62:0:0
     RDKit          3D

 91 99  0  0  1  0  0  0  0  0999 V2000
  -28.4330  -23.7090   20.0780 C   0  0  0  0  0  0  0  0  0  0  0  0
  -28.8760  -22.5700   20.7440 N   0  0  0  0  0  0  0  0  0  0  0  0
  -28.1960  -23.6830   18.8670 O   0  0  0  0  0  0  0  0  0  0  0  0
  -29.1700  -22.7710   21.6920 H   0  0  0  0  0  0  0  0  0  0  0  0
  -28.5890  -19.0080   19.4650 C   0  0  0  0  0  3  0  0  0  0  0  0
  -28.2700  -20.4340   19.4940 C   0  0  0  0  0  3  0  0  0  0  0  0
  -29.5790  -18.5910   20.3330 C   0  0  0  0  0  0  0  0  0  0  0  0
  -28.9810  -21.2080   20.3960 C   0  0  0  0  0  0  0  0  0  0  0  0
  -30.0990  -20.0690   21.2090 S   0  0  0  0  0  0  0  0  0  0  0  0
  -30.6210  -14.8000   20.1740 C   0  0  0  0  0  0  0  0  0  0  0  0
  -30.3620  -12.5320   19.1420 C   0  0  0  0  0  2  0  0  0  0  0  0
  -29.3950  -12.5930   17.9410 C   0  0  0  0  0  2  0  0  0  0  0  0
  -27.9400  -12.4110   18.4120 C   0  0  0  0  0  2  0  0  0  0  0  0
  -27.5910  -13.2990   19.6370 C   0  0  0  0  0  3  0  0  0  0  0  0
  -28.6800  -13.2400   20.7280 C   0  0  0  0  0  2  0  0  0  0  0  0
  -29.9500  -13.5970   20.0860 N   0  0  0  0  0  0  0  0  0  0  0  0
  -31.8200  -14.8140   19.8810 O   0  0  0  0  0  0  0  0  0  0  0  0
  -30.3890  -17.2730   20.5350 C   0  0  0  0  0  0  0  0  0  0  0  0
  -29.8970  -15.9850   20.3330 N   0  0  0  0  0  0  0  0  0  0  0  0
  -31.5520  -17.4360   20.9220 O   0  0  0  0  0  0  0  0  0  0  0  0
  -28.8970  -15.9100   20.2580 H   0  0  0  0  0  0  0  0  0  0  0  0
  -25.2230  -13.8720   20.4340 C   0  0  0  0  0  0  0  0  0  0  0  0
  -24.1720  -13.0900   20.8260 C   0  0  0  0  0  0  0  0  0  0  0  0
  -24.6420  -11.7410   20.7800 C   0  0  0  0  0  0  0  0  0  0  0  0
  -26.2660  -12.9990   20.1660 N   0  0  0  0  0  0  0  0  0  0  0  0
  -25.9260  -11.7130   20.4390 N   0  0  0  0  0  0  0  0  0  0  0  0
  -23.9260  -10.4740   20.9800 C   0  0  0  0  0  0  0  0  0  0  0  0
  -24.3760   -9.5110   21.9100 C   0  0  0  0  0  3  0  0  0  0  0  0
  -23.6590   -8.3090   22.0980 C   0  0  0  0  0  3  0  0  0  0  0  0
  -22.4780   -8.0630   21.3590 C   0  0  0  0  0  0  0  0  0  0  0  0
  -22.0470   -9.0160   20.4180 C   0  0  0  0  0  3  0  0  0  0  0  0
  -22.7650  -10.2080   20.2270 C   0  0  0  0  0  3  0  0  0  0  0  0
  -21.7310   -6.9150   21.4580 O   0  0  0  0  0  0  0  0  0  0  0  0
  -21.6890   -6.1820   22.6160 C   0  0  0  0  0  0  0  0  0  0  0  0
  -21.2460   -6.7390   23.8350 C   0  0  0  0  0  3  0  0  0  0  0  0
  -21.1530   -5.9310   24.9870 C   0  0  0  0  0  3  0  0  0  0  0  0
  -21.4910   -4.5670   24.9190 C   0  0  0  0  0  0  0  0  0  0  0  0
  -21.9280   -4.0080   23.7050 C   0  0  0  0  0  3  0  0  0  0  0  0
  -22.0230   -4.8130   22.5560 C   0  0  0  0  0  0  0  0  0  0  0  0
  -22.4230   -4.2650   21.3830 F   0  0  0  0  0  0  0  0  0  0  0  0
  -21.3950   -3.7880   26.0220 F   0  0  0  0  0  0  0  0  0  0  0  0
  -22.7790  -13.5590   21.1300 C   0  0  0  0  0  0  0  0  0  0  0  0
  -22.0730  -12.8550   22.0070 N   0  0  0  0  0  0  0  0  0  0  0  0
  -22.3260  -14.5840   20.6240 O   0  0  0  0  0  0  0  0  0  0  0  0
  -22.4530  -12.0250   22.4390 H   0  0  0  0  0  0  0  0  0  0  0  0
  -21.1390  -13.1510   22.2540 H   0  0  0  0  0  0  0  0  0  0  0  0
  -25.3740  -15.2430   20.2560 N   0  0  0  0  0  0  0  0  0  0  0  0
  -24.6000  -15.8870   20.3870 H   0  0  0  0  0  0  0  0  0  0  0  0
  -26.1980  -15.6900   19.8760 H   0  0  0  0  0  0  0  0  0  0  0  0
  -28.2000  -25.0850   20.8830 C   0  0  0  0  0  2  0  0  0  0  0  0
  -28.3490  -26.4170   20.1980 O   0  0  0  0  0  0  0  0  0  0  0  0
  -24.6120  -31.8820   23.2350 C   0  0  0  0  0  0  0  0  0  0  0  0
  -27.2510  -27.3020   20.1990 C   0  0  0  0  0  0  0  0  0  0  0  0
  -23.4260  -30.4840   21.5820 C   0  0  0  0  0  3  0  0  0  0  0  0
  -24.8910  -28.9340   20.1660 C   0  0  0  0  0  0  0  0  0  0  0  0
  -25.9680  -30.8020   21.4190 C   0  0  0  0  0  2  0  0  0  0  0  0
  -26.0580  -29.4200   20.7710 C   0  0  0  0  0  0  0  0  0  0  0  0
  -27.2450  -28.6190   20.7710 C   0  0  0  0  0  3  0  0  0  0  0  0
  -26.0640  -26.8740   19.5730 C   0  0  0  0  0  3  0  0  0  0  0  0
  -24.8990  -27.6680   19.5540 C   0  0  0  0  0  3  0  0  0  0  0  0
  -23.6540  -29.8090   20.2030 C   0  0  0  0  0  2  0  0  0  0  0  0
  -24.6880  -31.0740   22.1350 N   0  0  0  0  0  0  0  0  0  0  0  0
  -23.5240  -32.1550   23.7620 O   0  0  0  0  0  0  0  0  0  0  0  0
  -22.7560  -29.4660   22.5360 C   0  0  0  0  0  0  0  0  0  0  0  0
  -21.4300  -29.2920   22.4060 N   0  0  0  0  0  0  0  0  0  0  0  0
  -23.4310  -28.8340   23.3540 O   0  0  0  0  0  0  0  0  0  0  0  0
  -20.9450  -29.8530   21.7190 H   0  0  0  0  0  0  0  0  0  0  0  0
  -18.0480  -28.1010   22.8970 C   0  0  0  0  0  0  0  0  0  0  0  0
  -20.6080  -28.3510   23.1690 C   0  0  0  0  0  3  0  0  0  0  0  0
  -20.7050  -26.9240   22.5820 C   0  0  0  0  0  2  0  0  0  0  0  0
  -19.6020  -26.6120   21.5650 C   0  0  0  0  0  2  0  0  0  0  0  0
  -18.2220  -26.7560   22.2110 C   0  0  0  0  0  2  0  0  0  0  0  0
  -19.1700  -28.8560   23.3330 C   0  0  0  0  0  0  0  0  0  0  0  0
  -18.9540  -30.1150   23.9350 C   0  0  0  0  0  3  0  0  0  0  0  0
  -17.6490  -30.6180   24.1060 C   0  0  0  0  0  3  0  0  0  0  0  0
  -16.5440  -29.8580   23.6860 C   0  0  0  0  0  3  0  0  0  0  0  0
  -16.7440  -28.6020   23.0870 C   0  0  0  0  0  3  0  0  0  0  0  0
  -25.8880  -32.5180   23.8690 C   0  0  0  0  0  3  0  0  0  0  0  0
  -25.5740  -33.9170   24.1920 N   0  0  0  0  0  0  0  0  0  0  0  0
  -25.9050  -34.9690   23.4320 C   0  0  0  0  0  0  0  0  0  0  0  0
  -26.5760  -34.8630   22.4020 O   0  0  0  0  0  0  0  0  0  0  0  0
  -24.9770  -34.0720   24.9920 H   0  0  0  0  0  0  0  0  0  0  0  0
  -24.1750  -36.7600   23.0710 C   0  0  0  0  0  1  0  0  0  0  0  0
  -25.4160  -36.3590   23.8850 C   0  0  0  0  0  3  0  0  0  0  0  0
  -27.5470  -37.2510   24.7170 C   0  0  0  0  0  1  0  0  0  0  0  0
  -26.4470  -37.4120   23.7690 N   0  0  0  0  0  0  0  0  0  0  0  0
  -26.0400  -38.3330   23.9110 H   0  0  0  0  0  0  0  0  0  0  0  0
  -26.3900  -31.7520   25.1540 C   0  0  1  0  0  0  0  0  0  0  0  0
  -25.2850  -31.5190   26.2120 C   0  0  0  0  0  1  0  0  0  0  0  0
  -26.9760  -30.3730   24.7770 C   0  0  0  0  0  1  0  0  0  0  0  0
  -27.5330  -32.5490   25.8260 C   0  0  0  0  0  1  0  0  0  0  0  0
  1  2  1  0
  1 50  1  0
  2  4  1  0
  3  1  2  0
  5  6  1  0
  5  7  2  0
  6  8  2  0
  7 18  1  0
  7  9  1  0
  8  2  1  0
  8  9  1  0
 10 19  1  0
 11 16  1  0
 12 13  1  0
 12 11  1  0
 14 13  1  0
 14 25  1  0
 14 15  1  0
 16 10  1  0
 16 15  1  0
 17 10  2  0
 18 20  2  0
 19 18  1  0
 21 19  1  0
 22 23  2  0
 23 42  1  0
 24 23  1  0
 24 27  1  0
 25 22  1  0
 25 26  1  0
 26 24  2  0
 27 28  1  0
 28 29  2  0
 30 33  1  0
 30 29  1  0
 31 30  2  0
 32 31  1  0
 32 27  2  0
 33 34  1  0
 34 35  1  0
 35 36  2  0
 37 36  1  0
 37 41  1  0
 38 37  2  0
 39 34  2  0
 39 38  1  0
 40 39  1  0
 42 43  1  0
 43 46  1  0
 43 45  1  0
 44 42  2  0
 47 48  1  0
 47 22  1  0
 49 47  1  0
 51 53  1  0
 51 50  1  0
 52 63  2  0
 53 58  1  0
 54 62  1  0
 54 64  1  0
 55 61  1  0
 55 57  1  0
 56 62  1  0
 57 56  1  0
 58 57  2  0
 59 53  2  0
 60 59  1  0
 60 55  2  0
 61 54  1  0
 62 52  1  0
 64 66  2  0
 65 64  1  0
 67 65  1  0
 68 77  2  0
 68 73  1  0
 69 65  1  0
 69 73  1  0
 70 69  1  0
 71 72  1  0
 71 70  1  0
 72 68  1  0
 73 74  2  0
 74 75  1  0
 76 75  2  0
 77 76  1  0
 78 52  1  0
 78 79  1  0
 78 88  1  0
 79 82  1  0
 80 84  1  0
 80 79  1  0
 81 80  2  0
 84 83  1  0
 86 84  1  0
 86 87  1  0
 86 85  1  0
 88 91  1  1
 88 89  1  0
 90 88  1  0
M  ISO  4  10 100  19 100  50 101  51 101
M  END
>  <TORSDO>  (63) 
F 18

>  <SCORE>  (63) 
-14.744

>  <name>  (63) 
62

>  <ligand_id>  (63) 
62

>  <original_smiles>  (63) 
[H]c1c(C(=O)N([H])C(=O)N2C([H])([H])C([H])([H])C([H])([H])C([H])(n3nc(-c4c([H])c([H])c(Oc5c([H])c([H])c(F)c([H])c5F)c([H])c4[H])c(C(=O)N([H])[H])c3N([H])[H])C2([H])[H])sc(N([H])C(=O)C([H])([H])Oc2c([H])c([H])c3c(c2[H])C([H])([H])N(C(=O)C([H])(N([H])C(=O)C([H])(N([H])C([H])([H])[H])C([H])([H])[H])C(C([H])([H])[H])(C([H])([H])[H])C([H])([H])[H])C([H])(C(=O)N([H])C2([H])c4c([H])c([H])c([H])c([H])c4C([H])([H])C([H])([H])C2([H])[H])C3([H])[H])c1[H]

>  <smiles>  (63) 
[H]c1c(C(=O)N([H])C(=O)N2C([H])([H])C([H])([H])C([H])([H])C([H])(n3nc(-c4c([H])c([H])c(Oc5c([H])c([H])c(F)c([H])c5F)c([H])c4[H])c(C(=O)N([H])[H])c3N([H])[H])C2([H])[H])sc(N([H])C(=O)C([H])([H])Oc2c([H])c([H])c3c(c2[H])C([H])([H])N(C(=O)C([H])(N([H])C(=O)C([H])(N([H])C([H])([H])[H])C([H])([H])[H])C(C([H])([H])[H])(C([H])([H])[H])C([H])([H])[H])C([H])(C(=O)N([H])C2([H])c4c([H])c([H])c([H])c([H])c4C([H])([H])C([H])([H])C2([H])[H])C3([H])[H])c1[H]

$$$$
63:0:0
     RDKit          3D

 94103  0  0  1  0  0  0  0  0999 V2000
  -28.6200  -22.5830   21.2870 C   0  0  0  0  0  3  0  0  0  0  0  0
  -30.0930  -22.1650   18.9880 C   0  0  0  0  0  2  0  0  0  0  0  0
  -29.2230  -20.9920   19.5730 C   0  0  0  0  0  3  0  0  0  0  0  0
  -29.0240  -23.8740   20.4980 C   0  0  0  0  0  3  0  0  0  0  0  0
  -28.7800  -21.3400   20.9360 N   0  0  0  0  0  0  0  0  0  0  0  0
  -29.3970  -23.4790   19.1110 N   0  0  0  0  0  4  0  0  0  0  0  0
  -28.5590  -23.4250   18.5540 H   0  0  0  0  0  0  0  0  0  0  0  0
  -29.9770  -24.1970   18.7090 H   0  0  0  0  0  0  0  0  0  0  0  0
  -30.9570  -18.0620   17.7410 C   0  0  0  0  0  3  0  0  0  0  0  0
  -30.4490  -19.3140   18.1120 C   0  0  0  0  0  3  0  0  0  0  0  0
  -30.8190  -16.9610   18.5890 C   0  0  0  0  0  3  0  0  0  0  0  0
  -29.6520  -18.3710   20.2100 C   0  0  0  0  0  3  0  0  0  0  0  0
  -29.8030  -19.5300   19.3540 C   0  0  0  0  0  0  0  0  0  0  0  0
  -30.1640  -17.0630   19.8390 C   0  0  0  0  0  0  0  0  0  0  0  0
  -30.6970  -14.6570   20.4430 C   0  0  0  0  0  0  0  0  0  0  0  0
  -30.4220  -12.4290   19.4130 C   0  0  0  0  0  2  0  0  0  0  0  0
  -29.5200  -12.5800   18.1690 C   0  0  0  0  0  2  0  0  0  0  0  0
  -28.0350  -12.4520   18.5600 C   0  0  0  0  0  2  0  0  0  0  0  0
  -27.6580  -13.3170   19.7940 C   0  0  0  0  0  3  0  0  0  0  0  0
  -28.6920  -13.1780   20.9350 C   0  0  0  0  0  2  0  0  0  0  0  0
  -30.0180  -13.4700   20.3790 N   0  0  0  0  0  0  0  0  0  0  0  0
  -31.8960  -14.7070   20.1570 O   0  0  0  0  0  0  0  0  0  0  0  0
  -29.9800  -15.8210   20.6050 N   0  0  0  0  0  0  0  0  0  0  0  0
  -29.1040  -15.7300   21.0970 H   0  0  0  0  0  0  0  0  0  0  0  0
  -25.2540  -13.9250   20.4590 C   0  0  0  0  0  0  0  0  0  0  0  0
  -24.1770  -13.1590   20.8180 C   0  0  0  0  0  0  0  0  0  0  0  0
  -24.6350  -11.8060   20.8110 C   0  0  0  0  0  0  0  0  0  0  0  0
  -26.3000  -13.0400   20.2550 N   0  0  0  0  0  0  0  0  0  0  0  0
  -25.9310  -11.7610   20.5290 N   0  0  0  0  0  0  0  0  0  0  0  0
  -23.8990  -10.5490   20.9990 C   0  0  0  0  0  0  0  0  0  0  0  0
  -24.3090   -9.5860   21.9490 C   0  0  0  0  0  3  0  0  0  0  0  0
  -23.5730   -8.3930   22.1240 C   0  0  0  0  0  3  0  0  0  0  0  0
  -22.4140   -8.1550   21.3490 C   0  0  0  0  0  0  0  0  0  0  0  0
  -22.0230   -9.1050   20.3880 C   0  0  0  0  0  3  0  0  0  0  0  0
  -22.7590  -10.2890   20.2110 C   0  0  0  0  0  3  0  0  0  0  0  0
  -21.6500   -7.0150   21.4310 O   0  0  0  0  0  0  0  0  0  0  0  0
  -21.5760   -6.2810   22.5890 C   0  0  0  0  0  0  0  0  0  0  0  0
  -21.1250   -6.8470   23.8010 C   0  0  0  0  0  3  0  0  0  0  0  0
  -20.9970   -6.0420   24.9510 C   0  0  0  0  0  3  0  0  0  0  0  0
  -21.3090   -4.6700   24.8880 C   0  0  0  0  0  0  0  0  0  0  0  0
  -21.7500   -4.1020   23.6790 C   0  0  0  0  0  3  0  0  0  0  0  0
  -21.8810   -4.9060   22.5320 C   0  0  0  0  0  0  0  0  0  0  0  0
  -22.2870   -4.3490   21.3660 F   0  0  0  0  0  0  0  0  0  0  0  0
  -21.1800   -3.8950   25.9880 F   0  0  0  0  0  0  0  0  0  0  0  0
  -22.7760  -13.6450   21.0530 C   0  0  0  0  0  0  0  0  0  0  0  0
  -22.0240  -12.9640   21.9110 N   0  0  0  0  0  0  0  0  0  0  0  0
  -22.3530  -14.6660   20.5110 O   0  0  0  0  0  0  0  0  0  0  0  0
  -22.3750  -12.1420   22.3790 H   0  0  0  0  0  0  0  0  0  0  0  0
  -21.0800  -13.2710   22.1010 H   0  0  0  0  0  0  0  0  0  0  0  0
  -25.4270  -15.2920   20.2690 N   0  0  0  0  0  0  0  0  0  0  0  0
  -24.6650  -15.9560   20.3530 H   0  0  0  0  0  0  0  0  0  0  0  0
  -26.2850  -15.7150   19.9370 H   0  0  0  0  0  0  0  0  0  0  0  0
  -27.9330  -25.0370   20.5420 C   0  0  0  0  0  2  0  0  0  0  0  0
  -28.2590  -26.4500   20.2060 O   0  0  0  0  0  0  0  0  0  0  0  0
  -24.5730  -31.8830   23.2350 C   0  0  0  0  0  0  0  0  0  0  0  0
  -27.1640  -27.3290   20.1570 C   0  0  0  0  0  0  0  0  0  0  0  0
  -23.3620  -30.4860   21.6020 C   0  0  0  0  0  3  0  0  0  0  0  0
  -24.8060  -28.9470   20.1610 C   0  0  0  0  0  0  0  0  0  0  0  0
  -25.9030  -30.8050   21.4070 C   0  0  0  0  0  2  0  0  0  0  0  0
  -25.9800  -29.4290   20.7570 C   0  0  0  0  0  0  0  0  0  0  0  0
  -27.1640  -28.6300   20.7500 C   0  0  0  0  0  3  0  0  0  0  0  0
  -25.9740  -26.9200   19.5100 C   0  0  0  0  0  3  0  0  0  0  0  0
  -24.8070  -27.6990   19.5280 C   0  0  0  0  0  3  0  0  0  0  0  0
  -23.5690  -29.8190   20.2180 C   0  0  0  0  0  2  0  0  0  0  0  0
  -24.6330  -31.0740   22.1370 N   0  0  0  0  0  0  0  0  0  0  0  0
  -23.4920  -32.1580   23.7750 O   0  0  0  0  0  0  0  0  0  0  0  0
  -22.7100  -29.4620   22.5610 C   0  0  0  0  0  0  0  0  0  0  0  0
  -21.3840  -29.2780   22.4380 N   0  0  0  0  0  0  0  0  0  0  0  0
  -23.3950  -28.8350   23.3730 O   0  0  0  0  0  0  0  0  0  0  0  0
  -20.8890  -29.8380   21.7570 H   0  0  0  0  0  0  0  0  0  0  0  0
  -18.0100  -28.0810   22.9510 C   0  0  0  0  0  0  0  0  0  0  0  0
  -20.5690  -28.3390   23.2110 C   0  0  0  0  0  3  0  0  0  0  0  0
  -20.6690  -26.9090   22.6320 C   0  0  0  0  0  2  0  0  0  0  0  0
  -19.5630  -26.5870   21.6220 C   0  0  0  0  0  2  0  0  0  0  0  0
  -18.1840  -26.7330   22.2730 C   0  0  0  0  0  2  0  0  0  0  0  0
  -19.1310  -28.8420   23.3770 C   0  0  0  0  0  0  0  0  0  0  0  0
  -18.9140  -30.1060   23.9700 C   0  0  0  0  0  3  0  0  0  0  0  0
  -17.6090  -30.6070   24.1420 C   0  0  0  0  0  3  0  0  0  0  0  0
  -16.5040  -29.8410   23.7320 C   0  0  0  0  0  3  0  0  0  0  0  0
  -16.7050  -28.5810   23.1430 C   0  0  0  0  0  3  0  0  0  0  0  0
  -25.8580  -32.5160   23.8490 C   0  0  0  0  0  3  0  0  0  0  0  0
  -25.5470  -33.9130   24.1810 N   0  0  0  0  0  0  0  0  0  0  0  0
  -25.8740  -34.9680   23.4220 C   0  0  0  0  0  0  0  0  0  0  0  0
  -26.5380  -34.8670   22.3870 O   0  0  0  0  0  0  0  0  0  0  0  0
  -24.9560  -34.0670   24.9840 H   0  0  0  0  0  0  0  0  0  0  0  0
  -24.1420  -36.7590   23.0760 C   0  0  0  0  0  1  0  0  0  0  0  0
  -25.3850  -36.3540   23.8840 C   0  0  0  0  0  3  0  0  0  0  0  0
  -27.5200  -37.2380   24.7130 C   0  0  0  0  0  1  0  0  0  0  0  0
  -26.4150  -37.4100   23.7740 N   0  0  0  0  0  0  0  0  0  0  0  0
  -26.0080  -38.3280   23.9290 H   0  0  0  0  0  0  0  0  0  0  0  0
  -26.3800  -31.7460   25.1230 C   0  0  1  0  0  0  0  0  0  0  0  0
  -25.2910  -31.5060   26.1940 C   0  0  0  0  0  1  0  0  0  0  0  0
  -26.9640  -30.3700   24.7280 C   0  0  0  0  0  1  0  0  0  0  0  0
  -27.5320  -32.5420   25.7810 C   0  0  0  0  0  1  0  0  0  0  0  0
  2  6  1  0
  2  3  1  0
  3 13  1  0
  3  5  1  0
  4 53  1  0
  4  1  1  0
  5  1  2  0
  6  4  1  0
  7  6  1  0
  8  6  1  0
  9 10  2  0
  9 11  1  0
 10 13  1  0
 11 14  2  0
 13 12  2  0
 14 12  1  0
 14 23  1  0
 15 23  1  0
 16 21  1  0
 17 18  1  0
 17 16  1  0
 19 18  1  0
 19 28  1  0
 19 20  1  0
 21 15  1  0
 21 20  1  0
 22 15  2  0
 23 24  1  0
 25 26  2  0
 26 45  1  0
 27 26  1  0
 27 30  1  0
 28 25  1  0
 28 29  1  0
 29 27  2  0
 30 31  1  0
 31 32  2  0
 33 36  1  0
 33 32  1  0
 34 33  2  0
 35 34  1  0
 35 30  2  0
 36 37  1  0
 37 38  1  0
 38 39  2  0
 40 39  1  0
 40 44  1  0
 41 40  2  0
 42 37  2  0
 42 41  1  0
 43 42  1  0
 45 46  1  0
 46 49  1  0
 46 48  1  0
 47 45  2  0
 50 51  1  0
 50 25  1  0
 52 50  1  0
 54 53  1  0
 55 66  2  0
 56 54  1  0
 56 61  1  0
 57 65  1  0
 57 67  1  0
 58 64  1  0
 58 60  1  0
 59 65  1  0
 60 59  1  0
 61 60  2  0
 62 63  1  0
 62 56  2  0
 63 58  2  0
 64 57  1  0
 65 55  1  0
 67 69  2  0
 68 67  1  0
 70 68  1  0
 71 80  2  0
 71 76  1  0
 72 68  1  0
 72 76  1  0
 73 72  1  0
 74 75  1  0
 74 73  1  0
 75 71  1  0
 76 77  2  0
 77 78  1  0
 79 78  2  0
 80 79  1  0
 81 55  1  0
 81 82  1  0
 81 91  1  0
 82 85  1  0
 83 87  1  0
 83 82  1  0
 84 83  2  0
 87 86  1  0
 89 87  1  0
 89 90  1  0
 89 88  1  0
 91 94  1  1
 91 92  1  0
 93 91  1  0
M  ISO  4  15 100  23 100  53 101  54 101
M  END
>  <TORSDO>  (64) 
F 18

>  <SCORE>  (64) 
-14.722

>  <name>  (64) 
63

>  <ligand_id>  (64) 
63

>  <original_smiles>  (64) 
[H]C1=NC([H])(c2c([H])c([H])c([H])c(N([H])C(=O)N3C([H])([H])C([H])([H])C([H])([H])C([H])(n4nc(-c5c([H])c([H])c(Oc6c([H])c([H])c(F)c([H])c6F)c([H])c5[H])c(C(=O)N([H])[H])c4N([H])[H])C3([H])[H])c2[H])C([H])([H])[N+]([H])([H])C1([H])C([H])([H])Oc1c([H])c([H])c2c(c1[H])C([H])([H])N(C(=O)C([H])(N([H])C(=O)C([H])(N([H])C([H])([H])[H])C([H])([H])[H])C(C([H])([H])[H])(C([H])([H])[H])C([H])([H])[H])C([H])(C(=O)N([H])C1([H])c3c([H])c([H])c([H])c([H])c3C([H])([H])C([H])([H])C1([H])[H])C2([H])[H]

>  <smiles>  (64) 
[H]C1=NC([H])(c2c([H])c([H])c([H])c(N([H])C(=O)N3C([H])([H])C([H])([H])C([H])([H])C([H])(n4nc(-c5c([H])c([H])c(Oc6c([H])c([H])c(F)c([H])c6F)c([H])c5[H])c(C(=O)N([H])[H])c4N([H])[H])C3([H])[H])c2[H])C([H])([H])[N+]([H])([H])C1([H])C([H])([H])Oc1c([H])c([H])c2c(c1[H])C([H])([H])N(C(=O)C([H])(N([H])C(=O)C([H])(N([H])C([H])([H])[H])C([H])([H])[H])C(C([H])([H])[H])(C([H])([H])[H])C([H])([H])[H])C([H])(C(=O)N([H])C1([H])c3c([H])c([H])c([H])c([H])c3C([H])([H])C([H])([H])C1([H])[H])C2([H])[H]

$$$$
64:0:0
     RDKit          3D

 95104  0  0  1  0  0  0  0  0999 V2000
  -28.1290  -22.5880   21.4520 C   0  0  0  0  0  2  0  0  0  0  0  0
  -29.8080  -22.9590   19.6460 C   0  0  0  0  0  2  0  0  0  0  0  0
  -28.0770  -21.1620   20.7960 C   0  0  0  0  0  2  0  0  0  0  0  0
  -30.4100  -21.5590   20.0840 C   0  0  0  0  0  3  0  0  0  0  0  0
  -28.9330  -23.7320   20.6960 C   0  0  2  0  0  0  0  0  0  0  0  0
  -31.5370  -21.7050   21.1200 C   0  0  0  0  0  1  0  0  0  0  0  0
  -29.4040  -20.5780   20.5470 N   0  0  0  0  0  0  0  0  0  0  0  0
  -29.5840  -17.2620   19.0380 C   0  0  0  0  0  3  0  0  0  0  0  0
  -29.3460  -18.6750   18.9190 C   0  0  0  0  0  0  0  0  0  0  0  0
  -29.5210  -19.1920   20.1800 C   0  0  0  0  0  0  0  0  0  0  0  0
  -29.8460  -16.9900   20.3560 C   0  0  0  0  0  0  0  0  0  0  0  0
  -28.9450  -19.4050   17.6620 C   0  0  0  0  0  1  0  0  0  0  0  0
  -29.7840  -18.1720   21.0920 O   0  0  0  0  0  0  0  0  0  0  0  0
  -30.6370  -14.6420   20.4310 C   0  0  0  0  0  0  0  0  0  0  0  0
  -30.3800  -12.4080   19.3760 C   0  0  0  0  0  2  0  0  0  0  0  0
  -29.4580  -12.5830   18.1480 C   0  0  0  0  0  2  0  0  0  0  0  0
  -27.9790  -12.4540   18.5550 C   0  0  0  0  0  2  0  0  0  0  0  0
  -27.6230  -13.3080   19.8040 C   0  0  0  0  0  3  0  0  0  0  0  0
  -28.6670  -13.1320   20.9300 C   0  0  0  0  0  2  0  0  0  0  0  0
  -29.9940  -13.4330   20.3710 N   0  0  0  0  0  0  0  0  0  0  0  0
  -31.7820  -14.7800   19.9910 O   0  0  0  0  0  0  0  0  0  0  0  0
  -29.9240  -15.7140   20.8940 N   0  0  0  0  0  0  0  0  0  0  0  0
  -29.1370  -15.4520   21.4650 H   0  0  0  0  0  0  0  0  0  0  0  0
  -25.2270  -13.9210   20.4940 C   0  0  0  0  0  0  0  0  0  0  0  0
  -24.1500  -13.1520   20.8490 C   0  0  0  0  0  0  0  0  0  0  0  0
  -24.6060  -11.7990   20.8290 C   0  0  0  0  0  0  0  0  0  0  0  0
  -26.2680  -13.0350   20.2730 N   0  0  0  0  0  0  0  0  0  0  0  0
  -25.9000  -11.7530   20.5380 N   0  0  0  0  0  0  0  0  0  0  0  0
  -23.8680  -10.5410   21.0260 C   0  0  0  0  0  0  0  0  0  0  0  0
  -24.2900   -9.5730   21.9650 C   0  0  0  0  0  3  0  0  0  0  0  0
  -23.5520   -8.3830   22.1460 C   0  0  0  0  0  3  0  0  0  0  0  0
  -22.3810   -8.1520   21.3860 C   0  0  0  0  0  0  0  0  0  0  0  0
  -21.9780   -9.1090   20.4380 C   0  0  0  0  0  3  0  0  0  0  0  0
  -22.7140  -10.2920   20.2560 C   0  0  0  0  0  3  0  0  0  0  0  0
  -21.6170   -7.0120   21.4710 O   0  0  0  0  0  0  0  0  0  0  0  0
  -21.5590   -6.2670   22.6210 C   0  0  0  0  0  0  0  0  0  0  0  0
  -21.1300   -6.8260   23.8460 C   0  0  0  0  0  3  0  0  0  0  0  0
  -21.0250   -6.0110   24.9910 C   0  0  0  0  0  3  0  0  0  0  0  0
  -21.3310   -4.6380   24.9120 C   0  0  0  0  0  0  0  0  0  0  0  0
  -21.7490   -4.0790   23.6910 C   0  0  0  0  0  3  0  0  0  0  0  0
  -21.8590   -4.8910   22.5480 C   0  0  0  0  0  0  0  0  0  0  0  0
  -22.2450   -4.3430   21.3700 F   0  0  0  0  0  0  0  0  0  0  0  0
  -21.2170   -3.8540   26.0090 F   0  0  0  0  0  0  0  0  0  0  0  0
  -22.7540  -13.6440   21.0990 C   0  0  0  0  0  0  0  0  0  0  0  0
  -22.0120  -12.9590   21.9670 N   0  0  0  0  0  0  0  0  0  0  0  0
  -22.3290  -14.6660   20.5650 O   0  0  0  0  0  0  0  0  0  0  0  0
  -22.3640  -12.1290   22.4140 H   0  0  0  0  0  0  0  0  0  0  0  0
  -21.0730  -13.2680   22.1780 H   0  0  0  0  0  0  0  0  0  0  0  0
  -25.4020  -15.2940   20.3330 N   0  0  0  0  0  0  0  0  0  0  0  0
  -24.6530  -15.9510   20.5190 H   0  0  0  0  0  0  0  0  0  0  0  0
  -26.2740  -15.7460   20.0830 H   0  0  0  0  0  0  0  0  0  0  0  0
  -29.3620  -24.9600   22.7460 C   0  0  0  0  0  1  0  0  0  0  0  0
  -29.8830  -24.2700   21.6190 O   0  0  0  0  0  0  0  0  0  0  0  0
  -28.0510  -24.9470   20.0610 C   0  0  0  0  0  2  0  0  0  0  0  0
  -28.2980  -26.4130   20.2750 O   0  0  0  0  0  0  0  0  0  0  0  0
  -24.6360  -31.8980   23.2540 C   0  0  0  0  0  0  0  0  0  0  0  0
  -27.2060  -27.3080   20.1870 C   0  0  0  0  0  0  0  0  0  0  0  0
  -23.4200  -30.5030   21.6200 C   0  0  0  0  0  3  0  0  0  0  0  0
  -24.8580  -28.9650   20.1650 C   0  0  0  0  0  0  0  0  0  0  0  0
  -25.9630  -30.8110   21.4260 C   0  0  0  0  0  2  0  0  0  0  0  0
  -26.0320  -29.4330   20.7730 C   0  0  0  0  0  0  0  0  0  0  0  0
  -27.2070  -28.6160   20.7730 C   0  0  0  0  0  3  0  0  0  0  0  0
  -26.0160  -26.9180   19.5290 C   0  0  0  0  0  3  0  0  0  0  0  0
  -24.8600  -27.7200   19.5220 C   0  0  0  0  0  3  0  0  0  0  0  0
  -23.6210  -29.8400   20.2320 C   0  0  0  0  0  2  0  0  0  0  0  0
  -24.6910  -31.0900   22.1550 N   0  0  0  0  0  0  0  0  0  0  0  0
  -23.5540  -32.1800   23.7930 O   0  0  0  0  0  0  0  0  0  0  0  0
  -22.7630  -29.4840   22.5840 C   0  0  0  0  0  0  0  0  0  0  0  0
  -21.4370  -29.3040   22.4600 N   0  0  0  0  0  0  0  0  0  0  0  0
  -23.4460  -28.8590   23.3990 O   0  0  0  0  0  0  0  0  0  0  0  0
  -20.9500  -29.8630   21.7750 H   0  0  0  0  0  0  0  0  0  0  0  0
  -18.0590  -28.1000   22.9590 C   0  0  0  0  0  0  0  0  0  0  0  0
  -20.6170  -28.3680   23.2310 C   0  0  0  0  0  3  0  0  0  0  0  0
  -20.7240  -26.9350   22.6580 C   0  0  0  0  0  2  0  0  0  0  0  0
  -19.6220  -26.6070   21.6440 C   0  0  0  0  0  2  0  0  0  0  0  0
  -18.2390  -26.7500   22.2860 C   0  0  0  0  0  2  0  0  0  0  0  0
  -19.1760  -28.8680   23.3870 C   0  0  0  0  0  0  0  0  0  0  0  0
  -18.9500  -30.1300   23.9760 C   0  0  0  0  0  3  0  0  0  0  0  0
  -17.6430  -30.6270   24.1400 C   0  0  0  0  0  3  0  0  0  0  0  0
  -16.5420  -29.8580   23.7250 C   0  0  0  0  0  3  0  0  0  0  0  0
  -16.7520  -28.5950   23.1430 C   0  0  0  0  0  3  0  0  0  0  0  0
  -25.9220  -32.5240   23.8720 C   0  0  0  0  0  3  0  0  0  0  0  0
  -26.4460  -31.7470   25.1410 C   0  0  1  0  0  0  0  0  0  0  0  0
  -25.3560  -31.5090   26.2120 C   0  0  0  0  0  1  0  0  0  0  0  0
  -27.0240  -30.3700   24.7410 C   0  0  0  0  0  1  0  0  0  0  0  0
  -27.6020  -32.5370   25.7990 C   0  0  0  0  0  1  0  0  0  0  0  0
  -25.6150  -33.9210   24.2130 N   0  0  0  0  0  0  0  0  0  0  0  0
  -25.9290  -34.9780   23.4540 C   0  0  0  0  0  0  0  0  0  0  0  0
  -26.5810  -34.8830   22.4100 O   0  0  0  0  0  0  0  0  0  0  0  0
  -25.0300  -34.0680   25.0240 H   0  0  0  0  0  0  0  0  0  0  0  0
  -24.1840  -36.7640   23.1510 C   0  0  0  0  0  1  0  0  0  0  0  0
  -25.4480  -36.3650   23.9290 C   0  0  0  0  0  3  0  0  0  0  0  0
  -27.5990  -37.2550   24.7080 C   0  0  0  0  0  1  0  0  0  0  0  0
  -26.4740  -37.4210   23.7910 N   0  0  0  0  0  0  0  0  0  0  0  0
  -26.0680  -38.3390   23.9480 H   0  0  0  0  0  0  0  0  0  0  0  0
  2  4  1  0
  2  5  1  0
  3  1  1  0
  4  7  1  0
  4  6  1  0
  5 54  1  6
  5  1  1  0
  5 53  1  0
  7  3  1  0
  8 11  2  0
  9  8  1  0
  9 10  2  0
 10  7  1  0
 10 13  1  0
 11 22  1  0
 11 13  1  0
 12  9  1  0
 14 22  1  0
 15 20  1  0
 16 17  1  0
 16 15  1  0
 18 17  1  0
 18 27  1  0
 18 19  1  0
 20 14  1  0
 20 19  1  0
 21 14  2  0
 22 23  1  0
 24 25  2  0
 25 44  1  0
 26 25  1  0
 26 29  1  0
 27 24  1  0
 27 28  1  0
 28 26  2  0
 29 30  1  0
 30 31  2  0
 32 35  1  0
 32 31  1  0
 33 32  2  0
 34 33  1  0
 34 29  2  0
 35 36  1  0
 36 37  1  0
 37 38  2  0
 39 38  1  0
 39 43  1  0
 40 39  2  0
 41 36  2  0
 41 40  1  0
 42 41  1  0
 44 45  1  0
 45 48  1  0
 45 47  1  0
 46 44  2  0
 49 24  1  0
 49 50  1  0
 51 49  1  0
 53 52  1  0
 54 55  1  0
 56 67  2  0
 57 55  1  0
 57 62  1  0
 58 66  1  0
 58 68  1  0
 59 65  1  0
 59 61  1  0
 60 66  1  0
 61 62  2  0
 61 60  1  0
 63 57  2  0
 64 63  1  0
 64 59  2  0
 65 58  1  0
 66 56  1  0
 68 70  2  0
 69 68  1  0
 71 69  1  0
 72 81  2  0
 72 77  1  0
 73 69  1  0
 73 77  1  0
 74 73  1  0
 75 76  1  0
 75 74  1  0
 76 72  1  0
 77 78  2  0
 78 79  1  0
 80 79  2  0
 81 80  1  0
 82 56  1  0
 82 87  1  0
 82 83  1  0
 83 86  1  1
 83 84  1  0
 85 83  1  0
 87 90  1  0
 88 92  1  0
 88 87  1  0
 89 88  2  0
 92 91  1  0
 94 92  1  0
 94 95  1  0
 94 93  1  0
M  ISO  4  14 100  22 100  54 101  55 101
M  END
>  <TORSDO>  (65) 
F 19

>  <SCORE>  (65) 
-14.766

>  <name>  (65) 
64

>  <ligand_id>  (65) 
64

>  <original_smiles>  (65) 
[H]c1c([H])c([H])c2c(c1[H])C([H])([H])C([H])([H])C([H])([H])C2([H])N([H])C(=O)C1([H])N(C(=O)C([H])(N([H])C(=O)C([H])(N([H])C([H])([H])[H])C([H])([H])[H])C(C([H])([H])[H])(C([H])([H])[H])C([H])([H])[H])C([H])([H])c2c([H])c(OC([H])([H])C3(OC([H])([H])[H])C([H])([H])C([H])([H])N(c4oc(N([H])C(=O)N5C([H])([H])C([H])([H])C([H])([H])C([H])(n6nc(-c7c([H])c([H])c(Oc8c([H])c([H])c(F)c([H])c8F)c([H])c7[H])c(C(=O)N([H])[H])c6N([H])[H])C5([H])[H])c([H])c4C([H])([H])[H])C([H])(C([H])([H])[H])C3([H])[H])c([H])c([H])c2C1([H])[H]

>  <smiles>  (65) 
[H]c1c([H])c([H])c2c(c1[H])C([H])([H])C([H])([H])C([H])([H])C2([H])N([H])C(=O)C1([H])N(C(=O)C([H])(N([H])C(=O)C([H])(N([H])C([H])([H])[H])C([H])([H])[H])C(C([H])([H])[H])(C([H])([H])[H])C([H])([H])[H])C([H])([H])c2c([H])c(OC([H])([H])C3(OC([H])([H])[H])C([H])([H])C([H])([H])N(c4oc(N([H])C(=O)N5C([H])([H])C([H])([H])C([H])([H])C([H])(n6nc(-c7c([H])c([H])c(Oc8c([H])c([H])c(F)c([H])c8F)c([H])c7[H])c(C(=O)N([H])[H])c6N([H])[H])C5([H])[H])c([H])c4C([H])([H])[H])C([H])(C([H])([H])[H])C3([H])[H])c([H])c([H])c2C1([H])[H]

$$$$
65:0:0
     RDKit          3D

 96105  0  0  1  0  0  0  0  0999 V2000
  -30.7910  -14.9430   20.5690 C   0  0  0  0  0  0  0  0  0  0  0  0
  -30.5870  -12.6580   19.5590 C   0  0  0  0  0  2  0  0  0  0  0  0
  -29.6850  -12.6830   18.3100 C   0  0  0  0  0  2  0  0  0  0  0  0
  -28.2010  -12.5380   18.7020 C   0  0  0  0  0  2  0  0  0  0  0  0
  -27.7900  -13.4210   19.9130 C   0  0  0  0  0  3  0  0  0  0  0  0
  -28.8260  -13.3820   21.0520 C   0  0  0  0  0  2  0  0  0  0  0  0
  -30.1200  -13.7400   20.4600 N   0  0  0  0  0  0  0  0  0  0  0  0
  -32.0220  -14.9280   20.4660 O   0  0  0  0  0  0  0  0  0  0  0  0
  -29.5200  -19.9800   21.3450 C   0  0  0  0  0  3  0  0  0  0  0  0
  -29.7670  -19.5560   18.5920 C   0  0  0  0  0  3  0  0  0  0  0  0
  -29.7900  -18.6480   20.8240 C   0  0  0  0  0  0  0  0  0  0  0  0
  -29.8950  -18.4550   19.4700 C   0  0  0  0  0  0  0  0  0  0  0  0
  -29.5120  -20.8700   19.0820 C   0  0  0  0  0  0  0  0  0  0  0  0
  -29.3790  -21.1490   20.4810 C   0  0  0  0  0  0  0  0  0  0  0  0
  -29.9730  -17.2430   21.4790 C   0  0  0  0  0  2  0  0  0  0  0  0
  -30.0800  -16.9700   19.1140 C   0  0  1  0  0  0  0  0  0  0  0  0
  -28.8760  -16.5600   18.2520 C   0  0  0  0  0  1  0  0  0  0  0  0
  -31.3640  -16.8220   18.2660 C   0  0  0  0  0  1  0  0  0  0  0  0
  -30.0960  -16.1630   20.4080 N   0  0  0  0  0  0  0  0  0  0  0  0
  -25.3800  -13.9970   20.5670 C   0  0  0  0  0  0  0  0  0  0  0  0
  -24.3060  -13.2160   20.8950 C   0  0  0  0  0  0  0  0  0  0  0  0
  -24.7800  -11.8680   20.8890 C   0  0  0  0  0  0  0  0  0  0  0  0
  -26.4370  -13.1230   20.3710 N   0  0  0  0  0  0  0  0  0  0  0  0
  -26.0830  -11.8390   20.6330 N   0  0  0  0  0  0  0  0  0  0  0  0
  -24.0550  -10.6010   21.0530 C   0  0  0  0  0  0  0  0  0  0  0  0
  -24.4550   -9.6400   22.0070 C   0  0  0  0  0  3  0  0  0  0  0  0
  -23.7300   -8.4380   22.1610 C   0  0  0  0  0  3  0  0  0  0  0  0
  -22.5910   -8.1890   21.3570 C   0  0  0  0  0  0  0  0  0  0  0  0
  -22.2110   -9.1400   20.3930 C   0  0  0  0  0  3  0  0  0  0  0  0
  -22.9380  -10.3320   20.2390 C   0  0  0  0  0  3  0  0  0  0  0  0
  -21.8400   -7.0400   21.4190 O   0  0  0  0  0  0  0  0  0  0  0  0
  -21.7360   -6.3090   22.5740 C   0  0  0  0  0  0  0  0  0  0  0  0
  -21.1960   -6.8580   23.7590 C   0  0  0  0  0  3  0  0  0  0  0  0
  -21.0440   -6.0510   24.9040 C   0  0  0  0  0  3  0  0  0  0  0  0
  -21.4230   -4.6950   24.8660 C   0  0  0  0  0  0  0  0  0  0  0  0
  -21.9550   -4.1460   23.6860 C   0  0  0  0  0  3  0  0  0  0  0  0
  -22.1080   -4.9490   22.5440 C   0  0  0  0  0  0  0  0  0  0  0  0
  -22.6030   -4.4090   21.4030 F   0  0  0  0  0  0  0  0  0  0  0  0
  -21.2700   -3.9170   25.9630 F   0  0  0  0  0  0  0  0  0  0  0  0
  -22.8960  -13.6840   21.1080 C   0  0  0  0  0  0  0  0  0  0  0  0
  -22.1470  -12.9990   21.9640 N   0  0  0  0  0  0  0  0  0  0  0  0
  -22.4670  -14.6930   20.5510 O   0  0  0  0  0  0  0  0  0  0  0  0
  -22.5080  -12.1820   22.4330 H   0  0  0  0  0  0  0  0  0  0  0  0
  -21.2000  -13.2960   22.1530 H   0  0  0  0  0  0  0  0  0  0  0  0
  -25.5440  -15.3680   20.3940 N   0  0  0  0  0  0  0  0  0  0  0  0
  -24.7750  -16.0230   20.4870 H   0  0  0  0  0  0  0  0  0  0  0  0
  -26.4140  -15.8130   20.1330 H   0  0  0  0  0  0  0  0  0  0  0  0
  -29.2000  -23.8260   20.6130 C   0  0  0  0  0  0  0  0  0  0  0  0
  -28.9740  -22.5010   21.0050 N   0  0  0  0  0  0  0  0  0  0  0  0
  -30.0840  -24.1120   19.8010 O   0  0  0  0  0  0  0  0  0  0  0  0
  -28.3640  -22.4470   21.8070 H   0  0  0  0  0  0  0  0  0  0  0  0
  -28.3430  -25.0410   21.2380 C   0  0  0  0  0  2  0  0  0  0  0  0
  -28.5990  -26.4690   20.7880 O   0  0  0  0  0  0  0  0  0  0  0  0
  -24.5990  -32.0210   23.3270 C   0  0  0  0  0  0  0  0  0  0  0  0
  -27.4880  -27.3410   20.6640 C   0  0  0  0  0  0  0  0  0  0  0  0
  -23.5230  -30.4980   21.7110 C   0  0  0  0  0  3  0  0  0  0  0  0
  -25.0910  -28.9140   20.4440 C   0  0  0  0  0  0  0  0  0  0  0  0
  -26.0640  -30.8710   21.6400 C   0  0  0  0  0  2  0  0  0  0  0  0
  -26.2170  -29.4590   21.0740 C   0  0  0  0  0  0  0  0  0  0  0  0
  -27.4210  -28.6850   21.1710 C   0  0  0  0  0  3  0  0  0  0  0  0
  -26.3440  -26.8710   19.9870 C   0  0  0  0  0  3  0  0  0  0  0  0
  -25.1590  -27.6280   19.8880 C   0  0  0  0  0  3  0  0  0  0  0  0
  -23.8300  -29.7570   20.3830 C   0  0  0  0  0  2  0  0  0  0  0  0
  -24.7450  -31.1510   22.2830 N   0  0  0  0  0  0  0  0  0  0  0  0
  -23.4820  -32.2920   23.7900 O   0  0  0  0  0  0  0  0  0  0  0  0
  -22.8400  -29.5150   22.6930 C   0  0  0  0  0  0  0  0  0  0  0  0
  -21.5280  -29.2870   22.5130 N   0  0  0  0  0  0  0  0  0  0  0  0
  -23.4930  -28.9560   23.5790 O   0  0  0  0  0  0  0  0  0  0  0  0
  -21.0580  -29.7900   21.7720 H   0  0  0  0  0  0  0  0  0  0  0  0
  -18.1510  -28.0690   22.9780 C   0  0  0  0  0  0  0  0  0  0  0  0
  -20.7000  -28.3650   23.2940 C   0  0  0  0  0  3  0  0  0  0  0  0
  -20.8290  -26.9180   22.7660 C   0  0  0  0  0  2  0  0  0  0  0  0
  -19.7530  -26.5530   21.7380 C   0  0  0  0  0  2  0  0  0  0  0  0
  -18.3560  -26.7020   22.3480 C   0  0  0  0  0  2  0  0  0  0  0  0
  -19.2520  -28.8560   23.4080 C   0  0  0  0  0  0  0  0  0  0  0  0
  -19.0090  -30.1330   23.9590 C   0  0  0  0  0  3  0  0  0  0  0  0
  -17.6960  -30.6250   24.0830 C   0  0  0  0  0  3  0  0  0  0  0  0
  -16.6080  -29.8370   23.6700 C   0  0  0  0  0  3  0  0  0  0  0  0
  -16.8360  -28.5610   23.1240 C   0  0  0  0  0  3  0  0  0  0  0  0
  -25.8270  -32.7300   23.9740 C   0  0  0  0  0  3  0  0  0  0  0  0
  -25.4550  -34.1320   24.2210 N   0  0  0  0  0  0  0  0  0  0  0  0
  -25.8120  -35.1640   23.4450 C   0  0  0  0  0  0  0  0  0  0  0  0
  -26.5560  -35.0390   22.4690 O   0  0  0  0  0  0  0  0  0  0  0  0
  -24.7990  -34.3000   24.9700 H   0  0  0  0  0  0  0  0  0  0  0  0
  -24.0990  -36.9120   22.8600 C   0  0  0  0  0  1  0  0  0  0  0  0
  -25.2550  -36.5550   23.8080 C   0  0  0  0  0  3  0  0  0  0  0  0
  -27.2720  -37.5090   24.8330 C   0  0  0  0  0  1  0  0  0  0  0  0
  -26.2750  -37.6250   23.7720 N   0  0  0  0  0  0  0  0  0  0  0  0
  -25.8400  -38.5410   23.8450 H   0  0  0  0  0  0  0  0  0  0  0  0
  -26.3090  -32.0430   25.3110 C   0  0  1  0  0  0  0  0  0  0  0  0
  -25.1600  -31.7250   26.2980 C   0  0  0  0  0  1  0  0  0  0  0  0
  -27.0480  -30.7180   25.0120 C   0  0  0  0  0  1  0  0  0  0  0  0
  -27.3260  -32.9580   26.0340 C   0  0  0  0  0  1  0  0  0  0  0  0
  -29.3450  -21.8690   18.1260 N   0  0  0  0  0  0  0  0  0  0  0  0
  -29.7440  -21.6900   17.2120 H   0  0  0  0  0  0  0  0  0  0  0  0
  -29.5760  -22.8040   18.4640 H   0  0  0  0  0  0  0  0  0  0  0  0
  2  7  1  0
  3  4  1  0
  3  2  1  0
  5  4  1  0
  5 23  1  0
  5  6  1  0
  7  1  1  0
  7  6  1  0
  8  1  2  0
 10 13  2  0
 10 12  1  0
 11  9  1  0
 11 15  1  0
 12 11  2  0
 13 14  1  0
 14 49  1  0
 14  9  2  0
 16 12  1  0
 16 19  1  0
 16 17  1  6
 18 16  1  0
 19  1  1  0
 19 15  1  0
 20 21  2  0
 21 40  1  0
 22 21  1  0
 22 25  1  0
 23 20  1  0
 23 24  1  0
 24 22  2  0
 25 26  1  0
 26 27  2  0
 28 31  1  0
 28 27  1  0
 29 28  2  0
 30 29  1  0
 30 25  2  0
 31 32  1  0
 32 33  1  0
 33 34  2  0
 35 34  1  0
 35 39  1  0
 36 35  2  0
 37 32  2  0
 37 36  1  0
 38 37  1  0
 40 41  1  0
 41 44  1  0
 41 43  1  0
 42 40  2  0
 45 46  1  0
 45 20  1  0
 47 45  1  0
 48 49  1  0
 48 52  1  0
 49 51  1  0
 50 48  2  0
 53 52  1  0
 54 65  2  0
 55 53  1  0
 55 60  1  0
 56 64  1  0
 56 66  1  0
 57 59  1  0
 58 64  1  0
 59 60  2  0
 59 58  1  0
 61 55  2  0
 62 61  1  0
 62 57  2  0
 63 57  1  0
 63 56  1  0
 64 54  1  0
 66 68  2  0
 67 66  1  0
 69 67  1  0
 70 79  2  0
 70 75  1  0
 71 67  1  0
 71 75  1  0
 72 71  1  0
 73 74  1  0
 73 72  1  0
 74 70  1  0
 75 76  2  0
 76 77  1  0
 78 77  2  0
 79 78  1  0
 80 54  1  0
 80 81  1  0
 80 90  1  0
 81 84  1  0
 82 86  1  0
 82 81  1  0
 83 82  2  0
 86 85  1  0
 88 86  1  0
 88 89  1  0
 88 87  1  0
 90 93  1  1
 90 91  1  0
 92 90  1  0
 94 96  1  0
 94 13  1  0
 95 94  1  0
M  ISO  4   1 100  19 100  52 101  53 101
M  END
>  <TORSDO>  (66) 
F 18

>  <SCORE>  (66) 
-14.165

>  <name>  (66) 
65

>  <ligand_id>  (66) 
65

>  <original_smiles>  (66) 
[H]c1c([H])c([H])c2c(c1[H])C([H])([H])C([H])([H])C([H])([H])C2([H])N([H])C(=O)C1([H])N(C(=O)C([H])(N([H])C(=O)C([H])(N([H])C([H])([H])[H])C([H])([H])[H])C(C([H])([H])[H])(C([H])([H])[H])C([H])([H])[H])C([H])([H])c2c([H])c(OC([H])([H])C(=O)N([H])c3c([H])c4c(c([H])c3N([H])[H])C(C([H])([H])[H])(C([H])([H])[H])N(C(=O)N3C([H])([H])C([H])([H])C([H])([H])C([H])(n5nc(-c6c([H])c([H])c(Oc7c([H])c([H])c(F)c([H])c7F)c([H])c6[H])c(C(=O)N([H])[H])c5N([H])[H])C3([H])[H])C4([H])[H])c([H])c([H])c2C1([H])[H]

>  <smiles>  (66) 
[H]c1c([H])c([H])c2c(c1[H])C([H])([H])C([H])([H])C([H])([H])C2([H])N([H])C(=O)C1([H])N(C(=O)C([H])(N([H])C(=O)C([H])(N([H])C([H])([H])[H])C([H])([H])[H])C(C([H])([H])[H])(C([H])([H])[H])C([H])([H])[H])C([H])([H])c2c([H])c(OC([H])([H])C(=O)N([H])c3c([H])c4c(c([H])c3N([H])[H])C(C([H])([H])[H])(C([H])([H])[H])N(C(=O)N3C([H])([H])C([H])([H])C([H])([H])C([H])(n5nc(-c6c([H])c([H])c(Oc7c([H])c([H])c(F)c([H])c7F)c([H])c6[H])c(C(=O)N([H])[H])c5N([H])[H])C3([H])[H])C4([H])[H])c([H])c([H])c2C1([H])[H]

$$$$
66:0:0
     RDKit          3D

 89 98  0  0  1  0  0  0  0  0999 V2000
  -28.8910  -19.0260   20.4190 C   0  0  0  0  0  3  0  0  0  0  0  0
  -29.4130  -20.4530   20.2050 C   0  0  0  0  0  0  0  0  0  0  0  0
  -29.7850  -17.8800   20.2950 C   0  0  0  0  0  0  0  0  0  0  0  0
  -27.1600  -23.7070   20.8940 C   0  0  0  0  0  2  0  0  0  0  0  0
  -27.3610  -22.1580   20.5900 C   0  0  0  0  0  2  0  0  0  0  0  0
  -29.2790  -23.3260   20.0370 C   0  0  0  0  0  2  0  0  0  0  0  0
  -28.1130  -24.5420   20.0090 C   0  0  0  0  0  3  0  0  0  0  0  0
  -30.7000  -20.3710   19.9200 N   0  0  0  0  0  0  0  0  0  0  0  0
  -28.7640  -21.8670   20.2560 N   0  0  0  0  0  0  0  0  0  0  0  0
  -31.2690  -18.7330   19.9120 S   0  0  0  0  0  0  0  0  0  0  0  0
  -30.4570  -15.2190   20.2500 C   0  0  0  0  0  0  0  0  0  0  0  0
  -30.3980  -12.8170   19.3460 C   0  0  0  0  0  2  0  0  0  0  0  0
  -29.4500  -12.6940   18.1290 C   0  0  0  0  0  2  0  0  0  0  0  0
  -28.0040  -12.4360   18.5930 C   0  0  0  0  0  2  0  0  0  0  0  0
  -27.5860  -13.3750   19.7530 C   0  0  0  0  0  3  0  0  0  0  0  0
  -28.6570  -13.4590   20.8610 C   0  0  0  0  0  2  0  0  0  0  0  0
  -29.8960  -13.9270   20.2210 N   0  0  0  0  0  0  0  0  0  0  0  0
  -31.6640  -15.2720   19.9670 O   0  0  0  0  0  0  0  0  0  0  0  0
  -29.6430  -16.4140   20.4070 N   0  0  0  0  0  0  0  0  0  0  0  0
  -28.6950  -16.1460   20.6200 H   0  0  0  0  0  0  0  0  0  0  0  0
  -25.2180  -13.9240   20.5400 C   0  0  0  0  0  0  0  0  0  0  0  0
  -24.1650  -13.1390   20.9170 C   0  0  0  0  0  0  0  0  0  0  0  0
  -24.6360  -11.7900   20.8630 C   0  0  0  0  0  0  0  0  0  0  0  0
  -26.2620  -13.0550   20.2740 N   0  0  0  0  0  0  0  0  0  0  0  0
  -25.9240  -11.7660   20.5350 N   0  0  0  0  0  0  0  0  0  0  0  0
  -23.9180  -10.5230   21.0490 C   0  0  0  0  0  0  0  0  0  0  0  0
  -24.3570   -9.5520   21.9760 C   0  0  0  0  0  3  0  0  0  0  0  0
  -23.6370   -8.3510   22.1500 C   0  0  0  0  0  3  0  0  0  0  0  0
  -22.4630   -8.1110   21.3960 C   0  0  0  0  0  0  0  0  0  0  0  0
  -22.0420   -9.0720   20.4610 C   0  0  0  0  0  3  0  0  0  0  0  0
  -22.7620  -10.2660   20.2850 C   0  0  0  0  0  3  0  0  0  0  0  0
  -21.7140   -6.9620   21.4800 O   0  0  0  0  0  0  0  0  0  0  0  0
  -21.6580   -6.2210   22.6330 C   0  0  0  0  0  0  0  0  0  0  0  0
  -21.1860   -6.7680   23.8460 C   0  0  0  0  0  3  0  0  0  0  0  0
  -21.0790   -5.9560   24.9910 C   0  0  0  0  0  3  0  0  0  0  0  0
  -21.4310   -4.5950   24.9250 C   0  0  0  0  0  0  0  0  0  0  0  0
  -21.8960   -4.0450   23.7170 C   0  0  0  0  0  3  0  0  0  0  0  0
  -22.0060   -4.8570   22.5730 C   0  0  0  0  0  0  0  0  0  0  0  0
  -22.4350   -4.3170   21.4060 F   0  0  0  0  0  0  0  0  0  0  0  0
  -21.3220   -3.8110   26.0240 F   0  0  0  0  0  0  0  0  0  0  0  0
  -22.7700  -13.6060   21.2110 C   0  0  0  0  0  0  0  0  0  0  0  0
  -22.0580  -12.9020   22.0830 N   0  0  0  0  0  0  0  0  0  0  0  0
  -22.3200  -14.6340   20.7050 O   0  0  0  0  0  0  0  0  0  0  0  0
  -22.4360  -12.0710   22.5120 H   0  0  0  0  0  0  0  0  0  0  0  0
  -21.1250  -13.2020   22.3280 H   0  0  0  0  0  0  0  0  0  0  0  0
  -25.3670  -15.2980   20.3660 N   0  0  0  0  0  0  0  0  0  0  0  0
  -24.5800  -15.9320   20.4580 H   0  0  0  0  0  0  0  0  0  0  0  0
  -26.1730  -15.7340   19.9380 H   0  0  0  0  0  0  0  0  0  0  0  0
  -28.2530  -26.1160   20.3090 O   0  0  0  0  0  0  0  0  0  0  0  0
  -24.6370  -31.9370   23.2670 C   0  0  0  0  0  0  0  0  0  0  0  0
  -27.2040  -27.1400   20.2400 C   0  0  0  0  0  0  0  0  0  0  0  0
  -23.4380  -30.5480   21.6210 C   0  0  0  0  0  3  0  0  0  0  0  0
  -24.8860  -28.9500   20.2040 C   0  0  0  0  0  0  0  0  0  0  0  0
  -26.0000  -30.7770   21.4750 C   0  0  0  0  0  2  0  0  0  0  0  0
  -26.0690  -29.3770   20.8190 C   0  0  0  0  0  0  0  0  0  0  0  0
  -27.2240  -28.4910   20.8150 C   0  0  0  0  0  3  0  0  0  0  0  0
  -25.9890  -26.8340   19.5890 C   0  0  0  0  0  3  0  0  0  0  0  0
  -24.8630  -27.6930   19.5750 C   0  0  0  0  0  3  0  0  0  0  0  0
  -23.6660  -29.8620   20.2460 C   0  0  0  0  0  2  0  0  0  0  0  0
  -24.7120  -31.1120   22.1750 N   0  0  0  0  0  0  0  0  0  0  0  0
  -23.5480  -32.2310   23.7870 O   0  0  0  0  0  0  0  0  0  0  0  0
  -22.7420  -29.5520   22.5840 C   0  0  0  0  0  0  0  0  0  0  0  0
  -21.4130  -29.3900   22.4510 N   0  0  0  0  0  0  0  0  0  0  0  0
  -23.4030  -28.9260   23.4160 O   0  0  0  0  0  0  0  0  0  0  0  0
  -20.9340  -29.9500   21.7610 H   0  0  0  0  0  0  0  0  0  0  0  0
  -18.0230  -28.2010   22.9430 C   0  0  0  0  0  0  0  0  0  0  0  0
  -20.5830  -28.4550   23.2180 C   0  0  0  0  0  3  0  0  0  0  0  0
  -20.6790  -27.0220   22.6430 C   0  0  0  0  0  2  0  0  0  0  0  0
  -19.5790  -26.7040   21.6250 C   0  0  0  0  0  2  0  0  0  0  0  0
  -18.1970  -26.8520   22.2660 C   0  0  0  0  0  2  0  0  0  0  0  0
  -19.1430  -28.9600   23.3760 C   0  0  0  0  0  0  0  0  0  0  0  0
  -18.9250  -30.2210   23.9740 C   0  0  0  0  0  3  0  0  0  0  0  0
  -17.6200  -30.7230   24.1390 C   0  0  0  0  0  3  0  0  0  0  0  0
  -16.5150  -29.9620   23.7200 C   0  0  0  0  0  3  0  0  0  0  0  0
  -16.7170  -28.7030   23.1270 C   0  0  0  0  0  3  0  0  0  0  0  0
  -25.9110  -32.5690   23.9040 C   0  0  0  0  0  3  0  0  0  0  0  0
  -25.6040  -33.9710   24.2300 N   0  0  0  0  0  0  0  0  0  0  0  0
  -25.9250  -35.0240   23.4660 C   0  0  0  0  0  0  0  0  0  0  0  0
  -26.5740  -34.9150   22.4220 O   0  0  0  0  0  0  0  0  0  0  0  0
  -25.0210  -34.1300   25.0380 H   0  0  0  0  0  0  0  0  0  0  0  0
  -24.1840  -36.8180   23.1650 C   0  0  0  0  0  1  0  0  0  0  0  0
  -25.4540  -36.4170   23.9300 C   0  0  0  0  0  3  0  0  0  0  0  0
  -27.6130  -37.3200   24.6790 C   0  0  0  0  0  1  0  0  0  0  0  0
  -26.4810  -37.4700   23.7690 N   0  0  0  0  0  0  0  0  0  0  0  0
  -26.0780  -38.3920   23.9130 H   0  0  0  0  0  0  0  0  0  0  0  0
  -26.4020  -31.8040   25.1950 C   0  0  1  0  0  0  0  0  0  0  0  0
  -25.2940  -31.5870   26.2520 C   0  0  0  0  0  1  0  0  0  0  0  0
  -26.9790  -30.4170   24.8290 C   0  0  0  0  0  1  0  0  0  0  0  0
  -27.5490  -32.5950   25.8670 C   0  0  0  0  0  1  0  0  0  0  0  0
  2  9  1  0
  2  1  1  0
  3 19  1  0
  3  1  2  0
  5  4  1  0
  6  9  1  0
  7  6  1  0
  7 49  1  0
  7  4  1  0
  8  2  2  0
  9  5  1  0
 10  8  1  0
 10  3  1  0
 11 19  1  0
 12 17  1  0
 13 14  1  0
 13 12  1  0
 15 14  1  0
 15 24  1  0
 15 16  1  0
 17 11  1  0
 17 16  1  0
 18 11  2  0
 19 20  1  0
 21 22  2  0
 22 41  1  0
 23 22  1  0
 23 26  1  0
 24 25  1  0
 24 21  1  0
 25 23  2  0
 26 27  1  0
 27 28  2  0
 29 32  1  0
 29 28  1  0
 30 29  2  0
 31 30  1  0
 31 26  2  0
 32 33  1  0
 33 34  1  0
 34 35  2  0
 36 35  1  0
 36 40  1  0
 37 36  2  0
 38 33  2  0
 38 37  1  0
 39 38  1  0
 41 42  1  0
 42 45  1  0
 42 44  1  0
 43 41  2  0
 46 47  1  0
 46 21  1  0
 48 46  1  0
 50 61  2  0
 51 49  1  0
 51 56  1  0
 52 60  1  0
 52 62  1  0
 53 59  1  0
 53 55  1  0
 54 60  1  0
 55 54  1  0
 56 55  2  0
 57 51  2  0
 58 57  1  0
 58 53  2  0
 59 52  1  0
 60 50  1  0
 62 64  2  0
 63 62  1  0
 65 63  1  0
 66 75  2  0
 66 71  1  0
 67 63  1  0
 67 71  1  0
 68 67  1  0
 69 70  1  0
 69 68  1  0
 70 66  1  0
 71 72  2  0
 72 73  1  0
 74 73  2  0
 75 74  1  0
 76 50  1  0
 76 77  1  0
 76 86  1  0
 77 80  1  0
 78 82  1  0
 78 77  1  0
 79 78  2  0
 82 81  1  0
 84 85  1  0
 84 82  1  0
 84 83  1  0
 86 89  1  1
 86 87  1  0
 88 86  1  0
M  ISO  4   7 101  11 100  19 100  49 101
M  END
>  <TORSDO>  (67) 
F 16

>  <SCORE>  (67) 
-15.480

>  <name>  (67) 
66

>  <ligand_id>  (67) 
66

>  <original_smiles>  (67) 
[H]c1c(N2C([H])([H])C([H])([H])C([H])(Oc3c([H])c([H])c4c(c3[H])C([H])([H])N(C(=O)C([H])(N([H])C(=O)C([H])(N([H])C([H])([H])[H])C([H])([H])[H])C(C([H])([H])[H])(C([H])([H])[H])C([H])([H])[H])C([H])(C(=O)N([H])C3([H])c5c([H])c([H])c([H])c([H])c5C([H])([H])C([H])([H])C3([H])[H])C4([H])[H])C2([H])[H])nsc1N([H])C(=O)N1C([H])([H])C([H])([H])C([H])([H])C([H])(n2nc(-c3c([H])c([H])c(Oc4c([H])c([H])c(F)c([H])c4F)c([H])c3[H])c(C(=O)N([H])[H])c2N([H])[H])C1([H])[H]

>  <smiles>  (67) 
[H]c1c(N2C([H])([H])C([H])([H])C([H])(Oc3c([H])c([H])c4c(c3[H])C([H])([H])N(C(=O)C([H])(N([H])C(=O)C([H])(N([H])C([H])([H])[H])C([H])([H])[H])C(C([H])([H])[H])(C([H])([H])[H])C([H])([H])[H])C([H])(C(=O)N([H])C3([H])c5c([H])c([H])c([H])c([H])c5C([H])([H])C([H])([H])C3([H])[H])C4([H])[H])C2([H])[H])nsc1N([H])C(=O)N1C([H])([H])C([H])([H])C([H])([H])C([H])(n2nc(-c3c([H])c([H])c(Oc4c([H])c([H])c(F)c([H])c4F)c([H])c3[H])c(C(=O)N([H])[H])c2N([H])[H])C1([H])[H]

$$$$
67:0:0
     RDKit          3D

 98106  0  0  1  0  0  0  0  0999 V2000
  -28.2430  -18.9030   20.0810 C   0  0  0  0  0  3  0  0  0  0  0  0
  -27.8620  -20.3020   20.2100 C   0  0  0  0  0  3  0  0  0  0  0  0
  -29.5900  -18.6360   20.2200 C   0  0  0  0  0  0  0  0  0  0  0  0
  -28.8920  -21.1750   20.5010 C   0  0  0  0  0  0  0  0  0  0  0  0
  -30.3690  -20.1890   20.6350 S   0  0  0  0  0  0  0  0  0  0  0  0
  -28.9100  -22.5800   20.8320 N   0  0  0  0  0  0  0  0  0  0  0  0
  -29.7480  -22.8440   21.3480 H   0  0  0  0  0  0  0  0  0  0  0  0
  -28.3400  -23.7560   20.0680 C   0  0  0  0  0  2  0  0  0  0  0  0
  -29.2550  -25.2690   21.9730 C   0  0  0  0  0  1  0  0  0  0  0  0
  -28.1810  -25.1540   20.8810 C   0  0  0  0  0  3  0  0  0  0  0  0
  -28.2580  -26.4820   20.2060 O   0  0  0  0  0  0  0  0  0  0  0  0
  -24.5520  -31.9440   23.2300 C   0  0  0  0  0  0  0  0  0  0  0  0
  -27.1450  -27.3370   20.2210 C   0  0  0  0  0  0  0  0  0  0  0  0
  -23.3410  -30.5320   21.6060 C   0  0  0  0  0  3  0  0  0  0  0  0
  -24.7870  -28.9560   20.1970 C   0  0  0  0  0  0  0  0  0  0  0  0
  -25.8780  -30.8430   21.4100 C   0  0  0  0  0  2  0  0  0  0  0  0
  -25.9590  -29.4540   20.7820 C   0  0  0  0  0  0  0  0  0  0  0  0
  -27.1460  -28.6590   20.7730 C   0  0  0  0  0  3  0  0  0  0  0  0
  -25.9540  -26.8890   19.6180 C   0  0  0  0  0  3  0  0  0  0  0  0
  -24.7890  -27.6810   19.6050 C   0  0  0  0  0  3  0  0  0  0  0  0
  -23.5530  -29.8350   20.2360 C   0  0  0  0  0  2  0  0  0  0  0  0
  -24.6100  -31.1250   22.1380 N   0  0  0  0  0  0  0  0  0  0  0  0
  -23.4720  -32.2300   23.7670 O   0  0  0  0  0  0  0  0  0  0  0  0
  -22.6840  -29.5270   22.5800 C   0  0  0  0  0  0  0  0  0  0  0  0
  -21.3570  -29.3410   22.4560 N   0  0  0  0  0  0  0  0  0  0  0  0
  -23.3630  -28.9160   23.4110 O   0  0  0  0  0  0  0  0  0  0  0  0
  -20.8680  -29.8960   21.7660 H   0  0  0  0  0  0  0  0  0  0  0  0
  -17.9850  -28.1390   22.9720 C   0  0  0  0  0  0  0  0  0  0  0  0
  -20.5420  -28.4090   23.2350 C   0  0  0  0  0  3  0  0  0  0  0  0
  -20.6470  -26.9710   22.6740 C   0  0  0  0  0  2  0  0  0  0  0  0
  -19.5450  -26.6360   21.6650 C   0  0  0  0  0  2  0  0  0  0  0  0
  -18.1650  -26.7840   22.3080 C   0  0  0  0  0  2  0  0  0  0  0  0
  -19.1010  -28.9090   23.3920 C   0  0  0  0  0  0  0  0  0  0  0  0
  -18.8770  -30.1760   23.9690 C   0  0  0  0  0  3  0  0  0  0  0  0
  -17.5710  -30.6770   24.1310 C   0  0  0  0  0  3  0  0  0  0  0  0
  -16.4690  -29.9040   23.7260 C   0  0  0  0  0  3  0  0  0  0  0  0
  -16.6770  -28.6390   23.1510 C   0  0  0  0  0  3  0  0  0  0  0  0
  -25.8370  -32.5830   23.8410 C   0  0  0  0  0  3  0  0  0  0  0  0
  -26.3650  -31.8160   25.1150 C   0  0  1  0  0  0  0  0  0  0  0  0
  -25.2790  -31.5650   26.1880 C   0  0  0  0  0  1  0  0  0  0  0  0
  -26.9670  -30.4470   24.7190 C   0  0  0  0  0  1  0  0  0  0  0  0
  -27.5050  -32.6270   25.7780 C   0  0  0  0  0  1  0  0  0  0  0  0
  -25.5250  -33.9800   24.1750 N   0  0  0  0  0  0  0  0  0  0  0  0
  -25.8480  -35.0370   23.4170 C   0  0  0  0  0  0  0  0  0  0  0  0
  -26.5130  -34.9380   22.3810 O   0  0  0  0  0  0  0  0  0  0  0  0
  -24.9400  -34.1300   24.9840 H   0  0  0  0  0  0  0  0  0  0  0  0
  -24.1170  -36.8290   23.0700 C   0  0  0  0  0  1  0  0  0  0  0  0
  -25.3590  -36.4230   23.8810 C   0  0  0  0  0  3  0  0  0  0  0  0
  -27.4940  -37.3080   24.7110 C   0  0  0  0  0  1  0  0  0  0  0  0
  -26.3900  -37.4780   23.7690 N   0  0  0  0  0  0  0  0  0  0  0  0
  -25.9820  -38.3970   23.9200 H   0  0  0  0  0  0  0  0  0  0  0  0
  -30.4190  -17.3310   19.9060 C   0  0  0  0  0  3  0  0  0  0  0  0
  -30.7570  -14.8080   20.5000 C   0  0  0  0  0  0  0  0  0  0  0  0
  -30.5130  -12.5690   19.4560 C   0  0  0  0  0  2  0  0  0  0  0  0
  -29.6130  -12.7100   18.2100 C   0  0  0  0  0  2  0  0  0  0  0  0
  -28.1300  -12.5600   18.6000 C   0  0  0  0  0  2  0  0  0  0  0  0
  -27.7430  -13.4170   19.8360 C   0  0  0  0  0  3  0  0  0  0  0  0
  -28.7730  -13.2830   20.9790 C   0  0  0  0  0  2  0  0  0  0  0  0
  -30.0890  -13.6090   20.4190 N   0  0  0  0  0  0  0  0  0  0  0  0
  -31.9670  -14.8520   20.2640 O   0  0  0  0  0  0  0  0  0  0  0  0
  -30.0130  -15.9800   20.5100 N   0  0  0  0  0  0  0  0  0  0  0  0
  -29.0330  -15.8700   20.7170 H   0  0  0  0  0  0  0  0  0  0  0  0
  -25.3300  -14.0190   20.4640 C   0  0  0  0  0  0  0  0  0  0  0  0
  -24.2470  -13.2550   20.8100 C   0  0  0  0  0  0  0  0  0  0  0  0
  -24.7130  -11.9050   20.8280 C   0  0  0  0  0  0  0  0  0  0  0  0
  -26.3810  -13.1370   20.2850 N   0  0  0  0  0  0  0  0  0  0  0  0
  -26.0150  -11.8600   20.5700 N   0  0  0  0  0  0  0  0  0  0  0  0
  -23.9800  -10.6440   21.0130 C   0  0  0  0  0  0  0  0  0  0  0  0
  -24.3750   -9.6930   21.9800 C   0  0  0  0  0  3  0  0  0  0  0  0
  -23.6400   -8.5000   22.1530 C   0  0  0  0  0  3  0  0  0  0  0  0
  -22.4990   -8.2470   21.3560 C   0  0  0  0  0  0  0  0  0  0  0  0
  -22.1240   -9.1850   20.3790 C   0  0  0  0  0  3  0  0  0  0  0  0
  -22.8600  -10.3700   20.2040 C   0  0  0  0  0  3  0  0  0  0  0  0
  -21.7410   -7.1020   21.4350 O   0  0  0  0  0  0  0  0  0  0  0  0
  -21.6400   -6.3860   22.5990 C   0  0  0  0  0  0  0  0  0  0  0  0
  -21.1610   -6.9670   23.7940 C   0  0  0  0  0  3  0  0  0  0  0  0
  -21.0090   -6.1770   24.9510 C   0  0  0  0  0  3  0  0  0  0  0  0
  -21.3240   -4.8040   24.9140 C   0  0  0  0  0  0  0  0  0  0  0  0
  -21.7950   -4.2240   23.7230 C   0  0  0  0  0  3  0  0  0  0  0  0
  -21.9500   -5.0110   22.5690 C   0  0  0  0  0  0  0  0  0  0  0  0
  -22.3830   -4.4420   21.4180 F   0  0  0  0  0  0  0  0  0  0  0  0
  -21.1720   -4.0410   26.0210 F   0  0  0  0  0  0  0  0  0  0  0  0
  -22.8390  -13.7380   21.0120 C   0  0  0  0  0  0  0  0  0  0  0  0
  -22.0770  -13.0690   21.8700 N   0  0  0  0  0  0  0  0  0  0  0  0
  -22.4200  -14.7450   20.4450 O   0  0  0  0  0  0  0  0  0  0  0  0
  -22.4260  -12.2570   22.3560 H   0  0  0  0  0  0  0  0  0  0  0  0
  -21.1310  -13.3790   22.0440 H   0  0  0  0  0  0  0  0  0  0  0  0
  -25.5010  -15.3860   20.2600 N   0  0  0  0  0  0  0  0  0  0  0  0
  -24.7350  -16.0460   20.3300 H   0  0  0  0  0  0  0  0  0  0  0  0
  -26.3530  -15.8040   19.9120 H   0  0  0  0  0  0  0  0  0  0  0  0
  -30.5890  -17.0970   18.3580 C   0  0  0  0  0  2  0  0  0  0  0  0
  -29.9950  -19.2950   17.0920 C   0  0  0  0  0  1  0  0  0  0  0  0
  -32.3910  -18.8590   17.7770 C   0  0  0  0  0  1  0  0  0  0  0  0
  -31.0630  -18.2030   17.3420 C   0  0  1  0  0  0  0  0  0  0  0  0
  -31.2910  -17.5380   16.0380 N   0  0  0  0  0  4  0  0  0  0  0  0
  -31.5290  -18.2110   15.3290 H   0  0  0  0  0  0  0  0  0  0  0  0
  -30.4640  -17.0580   15.7270 H   0  0  0  0  0  0  0  0  0  0  0  0
  -32.0420  -16.8700   16.0840 H   0  0  0  0  0  0  0  0  0  0  0  0
  1  2  1  0
  1  3  2  0
  2  4  2  0
  3  5  1  0
  4  5  1  0
  4  6  1  0
  6  7  1  0
  8  6  1  0
  8 10  1  0
 10  9  1  0
 11 13  1  0
 11 10  1  0
 12 23  2  0
 13 18  1  0
 14 22  1  0
 14 24  1  0
 15 21  1  0
 15 17  1  0
 16 22  1  0
 17 16  1  0
 18 17  2  0
 19 13  2  0
 20 19  1  0
 20 15  2  0
 21 14  1  0
 22 12  1  0
 24 26  2  0
 25 24  1  0
 27 25  1  0
 28 37  2  0
 28 33  1  0
 29 25  1  0
 29 33  1  0
 30 29  1  0
 31 32  1  0
 31 30  1  0
 32 28  1  0
 33 34  2  0
 34 35  1  0
 36 35  2  0
 37 36  1  0
 38 12  1  0
 38 43  1  0
 38 39  1  0
 39 42  1  1
 39 40  1  0
 41 39  1  0
 43 46  1  0
 44 48  1  0
 44 43  1  0
 45 44  2  0
 48 47  1  0
 50 48  1  0
 50 51  1  0
 50 49  1  0
 52 91  1  0
 52  3  1  0
 52 61  1  0
 53 61  1  0
 54 59  1  0
 55 56  1  0
 55 54  1  0
 57 56  1  0
 57 66  1  0
 57 58  1  0
 59 53  1  0
 59 58  1  0
 60 53  2  0
 61 62  1  0
 63 64  2  0
 64 65  1  0
 64 83  1  0
 65 68  1  0
 66 63  1  0
 66 67  1  0
 67 65  2  0
 68 69  1  0
 69 70  2  0
 71 74  1  0
 71 70  1  0
 72 71  2  0
 73 72  1  0
 73 68  2  0
 74 75  1  0
 75 76  1  0
 76 77  2  0
 78 77  1  0
 78 82  1  0
 79 78  2  0
 80 75  2  0
 80 79  1  0
 81 80  1  0
 83 84  1  0
 84 87  1  0
 84 86  1  0
 85 83  2  0
 88 89  1  0
 88 63  1  0
 90 88  1  0
 94 92  1  6
 94 93  1  0
 94 91  1  0
 95 98  1  0
 95 94  1  0
 96 95  1  0
 97 95  1  0
M  ISO  4  10 101  11 101  53 100  61 100
M  END
>  <TORSDO>  (68) 
F 23

>  <SCORE>  (68) 
-13.166

>  <name>  (68) 
67

>  <ligand_id>  (68) 
67

>  <original_smiles>  (68) 
[H]c1c(N([H])C([H])([H])C([H])(Oc2c([H])c([H])c3c(c2[H])C([H])([H])N(C(=O)C([H])(N([H])C(=O)C([H])(N([H])C([H])([H])[H])C([H])([H])[H])C(C([H])([H])[H])(C([H])([H])[H])C([H])([H])[H])C([H])(C(=O)N([H])C2([H])c4c([H])c([H])c([H])c([H])c4C([H])([H])C([H])([H])C2([H])[H])C3([H])[H])C([H])([H])[H])sc(C([H])(N([H])C(=O)N2C([H])([H])C([H])([H])C([H])([H])C([H])(n3nc(-c4c([H])c([H])c(Oc5c([H])c([H])c(F)c([H])c5F)c([H])c4[H])c(C(=O)N([H])[H])c3N([H])[H])C2([H])[H])C([H])([H])C(C([H])([H])[H])(C([H])([H])[H])[N+]([H])([H])[H])c1[H]

>  <smiles>  (68) 
[H]c1c(N([H])C([H])([H])C([H])(Oc2c([H])c([H])c3c(c2[H])C([H])([H])N(C(=O)C([H])(N([H])C(=O)C([H])(N([H])C([H])([H])[H])C([H])([H])[H])C(C([H])([H])[H])(C([H])([H])[H])C([H])([H])[H])C([H])(C(=O)N([H])C2([H])c4c([H])c([H])c([H])c([H])c4C([H])([H])C([H])([H])C2([H])[H])C3([H])[H])C([H])([H])[H])sc(C([H])(N([H])C(=O)N2C([H])([H])C([H])([H])C([H])([H])C([H])(n3nc(-c4c([H])c([H])c(Oc5c([H])c([H])c(F)c([H])c5F)c([H])c4[H])c(C(=O)N([H])[H])c3N([H])[H])C2([H])[H])C([H])([H])C(C([H])([H])[H])(C([H])([H])[H])[N+]([H])([H])[H])c1[H]

$$$$
68:0:0
     RDKit          3D

 96104  0  0  1  0  0  0  0  0999 V2000
  -30.3560  -23.0260   19.4370 C   0  0  0  0  0  3  0  0  0  0  0  0
  -31.8240  -23.0810   19.4590 N   0  0  0  0  0  4  0  0  0  0  0  0
  -32.1010  -23.4090   20.3690 H   0  0  0  0  0  0  0  0  0  0  0  0
  -32.1810  -23.7120   18.7650 H   0  0  0  0  0  0  0  0  0  0  0  0
  -32.1740  -22.1500   19.3190 H   0  0  0  0  0  0  0  0  0  0  0  0
  -29.8870  -24.3550   20.1500 C   0  0  0  0  0  0  0  0  0  0  0  0
  -30.5280  -24.8220   21.1010 O   0  0  0  0  0  0  0  0  0  0  0  0
  -28.6230  -25.1200   19.6540 C   0  0  0  0  0  2  0  0  0  0  0  0
  -28.6910  -26.5590   19.9080 O   0  0  0  0  0  0  0  0  0  0  0  0
  -24.6810  -31.6050   23.0290 C   0  0  0  0  0  0  0  0  0  0  0  0
  -27.5080  -27.2940   19.8650 C   0  0  0  0  0  0  0  0  0  0  0  0
  -23.5480  -30.2230   21.3210 C   0  0  0  0  0  3  0  0  0  0  0  0
  -25.0730  -28.7720   19.8730 C   0  0  0  0  0  0  0  0  0  0  0  0
  -26.0700  -30.6480   21.1840 C   0  0  0  0  0  2  0  0  0  0  0  0
  -26.2080  -29.2980   20.5000 C   0  0  0  0  0  0  0  0  0  0  0  0
  -27.4280  -28.5700   20.4870 C   0  0  0  0  0  3  0  0  0  0  0  0
  -26.3480  -26.7990   19.2250 C   0  0  0  0  0  3  0  0  0  0  0  0
  -25.1410  -27.5250   19.2310 C   0  0  0  0  0  3  0  0  0  0  0  0
  -23.8040  -29.5960   19.9250 C   0  0  0  0  0  2  0  0  0  0  0  0
  -24.7830  -30.8400   21.9030 N   0  0  0  0  0  0  0  0  0  0  0  0
  -23.5820  -31.8290   23.5560 O   0  0  0  0  0  0  0  0  0  0  0  0
  -22.9080  -29.1540   22.2370 C   0  0  0  0  0  0  0  0  0  0  0  0
  -21.5820  -28.9720   22.1150 N   0  0  0  0  0  0  0  0  0  0  0  0
  -23.6010  -28.4930   23.0130 O   0  0  0  0  0  0  0  0  0  0  0  0
  -21.0820  -29.5600   21.4620 H   0  0  0  0  0  0  0  0  0  0  0  0
  -18.2060  -27.7990   22.6570 C   0  0  0  0  0  0  0  0  0  0  0  0
  -20.7760  -27.9930   22.8460 C   0  0  0  0  0  3  0  0  0  0  0  0
  -20.8280  -26.6060   22.1610 C   0  0  0  0  0  2  0  0  0  0  0  0
  -19.6820  -26.3800   21.1710 C   0  0  0  0  0  2  0  0  0  0  0  0
  -18.3290  -26.5010   21.8770 C   0  0  0  0  0  2  0  0  0  0  0  0
  -19.3540  -28.5080   23.0980 C   0  0  0  0  0  0  0  0  0  0  0  0
  -19.1840  -29.7280   23.7860 C   0  0  0  0  0  3  0  0  0  0  0  0
  -17.8970  -30.2390   24.0390 C   0  0  0  0  0  3  0  0  0  0  0  0
  -16.7620  -29.5260   23.6140 C   0  0  0  0  0  3  0  0  0  0  0  0
  -16.9180  -28.3090   22.9280 C   0  0  0  0  0  3  0  0  0  0  0  0
  -25.9340  -32.2560   23.6920 C   0  0  0  0  0  3  0  0  0  0  0  0
  -25.5630  -33.6170   24.1030 N   0  0  0  0  0  0  0  0  0  0  0  0
  -25.8500  -34.7250   23.4060 C   0  0  0  0  0  0  0  0  0  0  0  0
  -26.5230  -34.7100   22.3710 O   0  0  0  0  0  0  0  0  0  0  0  0
  -24.9630  -33.6980   24.9090 H   0  0  0  0  0  0  0  0  0  0  0  0
  -24.0370  -36.4500   23.1540 C   0  0  0  0  0  1  0  0  0  0  0  0
  -25.2990  -36.0610   23.9400 C   0  0  0  0  0  3  0  0  0  0  0  0
  -27.3890  -37.0030   24.8240 C   0  0  0  0  0  1  0  0  0  0  0  0
  -26.2820  -37.1660   23.8850 N   0  0  0  0  0  0  0  0  0  0  0  0
  -25.8330  -38.0570   24.0760 H   0  0  0  0  0  0  0  0  0  0  0  0
  -26.4800  -31.4340   24.9230 C   0  0  1  0  0  0  0  0  0  0  0  0
  -25.3950  -31.0750   25.9640 C   0  0  0  0  0  1  0  0  0  0  0  0
  -27.1340  -30.1150   24.4470 C   0  0  0  0  0  1  0  0  0  0  0  0
  -27.5850  -32.2420   25.6430 C   0  0  0  0  0  1  0  0  0  0  0  0
  -29.9440  -21.6640   20.1120 C   0  0  0  0  0  2  0  0  0  0  0  0
  -30.6830  -20.4690   19.5970 N   0  0  0  0  0  0  0  0  0  0  0  0
  -30.6870  -20.3620   18.5830 H   0  0  0  0  0  0  0  0  0  0  0  0
  -30.9810  -17.9390   19.8100 C   0  0  0  0  0  3  0  0  0  0  0  0
  -30.8230  -16.9080   20.8160 C   0  0  0  0  0  0  0  0  0  0  0  0
  -30.6840  -19.2230   20.2860 C   0  0  0  0  0  0  0  0  0  0  0  0
  -30.4140  -17.4350   22.0060 C   0  0  0  0  0  0  0  0  0  0  0  0
  -30.1540  -16.6880   23.1070 F   0  0  0  0  0  0  0  0  0  0  0  0
  -30.2220  -19.1590   21.9830 S   0  0  0  0  0  0  0  0  0  0  0  0
  -31.5460  -14.6100   19.8940 C   0  0  0  0  0  0  0  0  0  0  0  0
  -31.1420  -12.4760   18.6840 C   0  0  0  0  0  2  0  0  0  0  0  0
  -30.0540  -12.7090   17.6100 C   0  0  0  0  0  2  0  0  0  0  0  0
  -28.6380  -12.5760   18.2060 C   0  0  0  0  0  2  0  0  0  0  0  0
  -28.4690  -13.3790   19.5210 C   0  0  0  0  0  3  0  0  0  0  0  0
  -29.6360  -13.0690   20.4860 C   0  0  0  0  0  2  0  0  0  0  0  0
  -30.8970  -13.4090   19.7960 N   0  0  0  0  0  0  0  0  0  0  0  0
  -32.5630  -14.8760   19.2450 O   0  0  0  0  0  0  0  0  0  0  0  0
  -30.9630  -15.4750   20.7520 N   0  0  0  0  0  0  0  0  0  0  0  0
  -30.3090  -15.0080   21.3640 H   0  0  0  0  0  0  0  0  0  0  0  0
  -26.2570  -14.0350   20.6670 C   0  0  0  0  0  0  0  0  0  0  0  0
  -25.1760  -13.2920   21.0600 C   0  0  0  0  0  0  0  0  0  0  0  0
  -25.4910  -11.9370   20.7400 C   0  0  0  0  0  0  0  0  0  0  0  0
  -27.1690  -13.1300   20.1430 N   0  0  0  0  0  0  0  0  0  0  0  0
  -26.7170  -11.8550   20.2390 N   0  0  0  0  0  0  0  0  0  0  0  0
  -24.6750  -10.7190   20.8250 C   0  0  0  0  0  0  0  0  0  0  0  0
  -24.9780   -9.6910   21.7450 C   0  0  0  0  0  3  0  0  0  0  0  0
  -24.1690   -8.5370   21.8210 C   0  0  0  0  0  3  0  0  0  0  0  0
  -23.0430   -8.4030   20.9750 C   0  0  0  0  0  0  0  0  0  0  0  0
  -22.7580   -9.4200   20.0460 C   0  0  0  0  0  3  0  0  0  0  0  0
  -23.5670  -10.5650   19.9680 C   0  0  0  0  0  3  0  0  0  0  0  0
  -22.2140   -7.3070   20.9610 O   0  0  0  0  0  0  0  0  0  0  0  0
  -21.8480   -6.6680   22.1180 C   0  0  0  0  0  0  0  0  0  0  0  0
  -21.1670   -7.3380   23.1570 C   0  0  0  0  0  3  0  0  0  0  0  0
  -20.7480   -6.6250   24.2990 C   0  0  0  0  0  3  0  0  0  0  0  0
  -21.0010   -5.2450   24.3990 C   0  0  0  0  0  0  0  0  0  0  0  0
  -21.6740   -4.5740   23.3630 C   0  0  0  0  0  3  0  0  0  0  0  0
  -22.0940   -5.2840   22.2230 C   0  0  0  0  0  0  0  0  0  0  0  0
  -22.7240   -4.6290   21.2190 F   0  0  0  0  0  0  0  0  0  0  0  0
  -20.5910   -4.5580   25.4910 F   0  0  0  0  0  0  0  0  0  0  0  0
  -23.8810  -13.8170   21.6130 C   0  0  0  0  0  0  0  0  0  0  0  0
  -23.2370  -13.0580   22.4920 N   0  0  0  0  0  0  0  0  0  0  0  0
  -23.4580  -14.9300   21.3030 O   0  0  0  0  0  0  0  0  0  0  0  0
  -23.5940  -12.1530   22.7630 H   0  0  0  0  0  0  0  0  0  0  0  0
  -22.3750  -13.3860   22.9020 H   0  0  0  0  0  0  0  0  0  0  0  0
  -26.5330  -15.3980   20.6930 N   0  0  0  0  0  0  0  0  0  0  0  0
  -25.8650  -16.0810   21.0320 H   0  0  0  0  0  0  0  0  0  0  0  0
  -27.3770  -15.8190   20.3260 H   0  0  0  0  0  0  0  0  0  0  0  0
  1  2  1  0
  1 50  1  0
  1  6  1  0
  2  3  1  0
  4  2  1  0
  5  2  1  0
  6  7  2  0
  8  9  1  0
  8  6  1  0
 10 21  2  0
 11  9  1  0
 11 16  1  0
 12 20  1  0
 12 22  1  0
 13 19  1  0
 13 15  1  0
 14 20  1  0
 15 14  1  0
 16 15  2  0
 17 18  1  0
 17 11  2  0
 18 13  2  0
 19 12  1  0
 20 10  1  0
 22 24  2  0
 23 22  1  0
 25 23  1  0
 26 35  2  0
 26 31  1  0
 27 23  1  0
 27 31  1  0
 28 27  1  0
 29 30  1  0
 29 28  1  0
 30 26  1  0
 31 32  2  0
 32 33  1  0
 34 33  2  0
 35 34  1  0
 36 10  1  0
 36 37  1  0
 36 46  1  0
 37 40  1  0
 38 42  1  0
 38 37  1  0
 39 38  2  0
 42 41  1  0
 44 42  1  0
 44 45  1  0
 44 43  1  0
 46 49  1  1
 46 47  1  0
 48 46  1  0
 51 50  1  0
 51 55  1  0
 52 51  1  0
 53 55  2  0
 53 54  1  0
 54 56  2  0
 55 58  1  0
 56 57  1  0
 58 56  1  0
 59 67  1  0
 60 65  1  0
 61 62  1  0
 61 60  1  0
 63 62  1  0
 63 72  1  0
 63 64  1  0
 65 59  1  0
 65 64  1  0
 66 59  2  0
 67 54  1  0
 67 68  1  0
 69 94  1  0
 69 70  2  0
 70 89  1  0
 71 74  1  0
 71 70  1  0
 72 73  1  0
 72 69  1  0
 73 71  2  0
 74 75  1  0
 75 76  2  0
 77 76  1  0
 78 77  2  0
 79 78  1  0
 79 74  2  0
 80 77  1  0
 80 81  1  0
 81 86  2  0
 81 82  1  0
 82 83  2  0
 83 84  1  0
 84 88  1  0
 85 84  2  0
 86 85  1  0
 87 86  1  0
 89 90  1  0
 90 92  1  0
 90 93  1  0
 91 89  2  0
 94 95  1  0
 96 94  1  0
M  ISO  4   8 101   9 101  59 100  67 100
M  END
>  <TORSDO>  (69) 
F 22

>  <SCORE>  (69) 
-10.346

>  <name>  (69) 
68

>  <ligand_id>  (69) 
68

>  <original_smiles>  (69) 
[H]c1c([H])c([H])c2c(c1[H])C([H])([H])C([H])([H])C([H])([H])C2([H])N([H])C(=O)C1([H])N(C(=O)C([H])(N([H])C(=O)C([H])(N([H])C([H])([H])[H])C([H])([H])[H])C(C([H])([H])[H])(C([H])([H])[H])C([H])([H])[H])C([H])([H])c2c([H])c(OC([H])([H])C(=O)C([H])(C([H])([H])N([H])c3sc(F)c(N([H])C(=O)N4C([H])([H])C([H])([H])C([H])([H])C([H])(n5nc(-c6c([H])c([H])c(Oc7c([H])c([H])c(F)c([H])c7F)c([H])c6[H])c(C(=O)N([H])[H])c5N([H])[H])C4([H])[H])c3[H])[N+]([H])([H])[H])c([H])c([H])c2C1([H])[H]

>  <smiles>  (69) 
[H]c1c([H])c([H])c2c(c1[H])C([H])([H])C([H])([H])C([H])([H])C2([H])N([H])C(=O)C1([H])N(C(=O)C([H])(N([H])C(=O)C([H])(N([H])C([H])([H])[H])C([H])([H])[H])C(C([H])([H])[H])(C([H])([H])[H])C([H])([H])[H])C([H])([H])c2c([H])c(OC([H])([H])C(=O)C([H])(C([H])([H])N([H])c3sc(F)c(N([H])C(=O)N4C([H])([H])C([H])([H])C([H])([H])C([H])(n5nc(-c6c([H])c([H])c(Oc7c([H])c([H])c(F)c([H])c7F)c([H])c6[H])c(C(=O)N([H])[H])c5N([H])[H])C4([H])[H])c3[H])[N+]([H])([H])[H])c([H])c([H])c2C1([H])[H]

$$$$
69:0:0
     RDKit          3D

 96105  0  0  1  0  0  0  0  0999 V2000
  -28.2830  -19.7850   19.8810 C   0  0  0  0  0  3  0  0  0  0  0  0
  -27.5940  -23.3870   20.3310 C   0  0  0  0  0  2  0  0  0  0  0  0
  -30.0300  -23.0580   19.9710 C   0  0  0  0  0  2  0  0  0  0  0  0
  -27.3130  -22.0680   19.5840 C   0  0  0  0  0  2  0  0  0  0  0  0
  -29.7490  -21.7280   19.2360 C   0  0  0  0  0  2  0  0  0  0  0  0
  -28.8860  -24.0850   19.8420 C   0  0  1  0  0  0  0  0  0  0  0  0
  -28.4600  -21.1250   19.6440 N   0  0  0  0  0  0  0  0  0  0  0  0
  -27.1030  -19.3500   20.3580 N   0  0  0  0  0  0  0  0  0  0  0  0
  -28.7200  -24.3380   18.5380 F   0  0  0  0  0  0  0  0  0  0  0  0
  -26.9580  -18.3710   20.5480 H   0  0  0  0  0  0  0  0  0  0  0  0
  -26.3450  -19.9810   20.5660 H   0  0  0  0  0  0  0  0  0  0  0  0
  -29.6760  -17.7570   20.5240 C   0  0  0  0  0  3  0  0  0  0  0  0
  -30.8340  -17.0580   18.6060 C   0  0  0  0  0  3  0  0  0  0  0  0
  -30.5450  -16.7930   19.9220 C   0  0  0  0  0  0  0  0  0  0  0  0
  -29.2790  -18.7440   19.6480 C   0  0  0  0  0  0  0  0  0  0  0  0
  -29.9880  -18.4840   18.0620 S   0  0  0  0  0  0  0  0  0  0  0  0
  -31.6510  -14.5960   20.1220 C   0  0  0  0  0  0  0  0  0  0  0  0
  -31.3540  -12.3530   19.1710 C   0  0  0  0  0  2  0  0  0  0  0  0
  -30.4090  -12.4930   17.9560 C   0  0  0  0  0  2  0  0  0  0  0  0
  -28.9260  -12.4420   18.3860 C   0  0  0  0  0  2  0  0  0  0  0  0
  -28.6160  -13.3810   19.5850 C   0  0  0  0  0  3  0  0  0  0  0  0
  -29.6610  -13.1670   20.7050 C   0  0  0  0  0  2  0  0  0  0  0  0
  -30.9990  -13.4050   20.1330 N   0  0  0  0  0  0  0  0  0  0  0  0
  -32.7530  -14.7650   19.5840 O   0  0  0  0  0  0  0  0  0  0  0  0
  -30.9480  -15.6220   20.6320 N   0  0  0  0  0  0  0  0  0  0  0  0
  -30.3120  -15.3530   21.3700 H   0  0  0  0  0  0  0  0  0  0  0  0
  -26.2850  -14.1470   20.3750 C   0  0  0  0  0  0  0  0  0  0  0  0
  -25.1660  -13.4420   20.7340 C   0  0  0  0  0  0  0  0  0  0  0  0
  -25.5170  -12.0630   20.6240 C   0  0  0  0  0  0  0  0  0  0  0  0
  -27.2520  -13.1970   20.0760 N   0  0  0  0  0  0  0  0  0  0  0  0
  -26.7910  -11.9370   20.2790 N   0  0  0  0  0  0  0  0  0  0  0  0
  -24.6990  -10.8530   20.7740 C   0  0  0  0  0  0  0  0  0  0  0  0
  -25.0290   -9.8440   21.7050 C   0  0  0  0  0  3  0  0  0  0  0  0
  -24.2190   -8.6970   21.8400 C   0  0  0  0  0  3  0  0  0  0  0  0
  -23.0600   -8.5500   21.0410 C   0  0  0  0  0  0  0  0  0  0  0  0
  -22.7460   -9.5450   20.0980 C   0  0  0  0  0  3  0  0  0  0  0  0
  -23.5570  -10.6840   19.9630 C   0  0  0  0  0  3  0  0  0  0  0  0
  -22.2260   -7.4580   21.0850 O   0  0  0  0  0  0  0  0  0  0  0  0
  -22.0050   -6.7680   22.2500 C   0  0  0  0  0  0  0  0  0  0  0  0
  -21.4070   -7.3770   23.3750 C   0  0  0  0  0  3  0  0  0  0  0  0
  -21.1350   -6.6120   24.5260 C   0  0  0  0  0  3  0  0  0  0  0  0
  -21.4510   -5.2410   24.5530 C   0  0  0  0  0  0  0  0  0  0  0  0
  -22.0430   -4.6330   23.4320 C   0  0  0  0  0  3  0  0  0  0  0  0
  -22.3170   -5.3940   22.2830 C   0  0  0  0  0  0  0  0  0  0  0  0
  -22.8690   -4.7990   21.1990 F   0  0  0  0  0  0  0  0  0  0  0  0
  -21.1810   -4.5040   25.6560 F   0  0  0  0  0  0  0  0  0  0  0  0
  -23.8190  -14.0140   21.0680 C   0  0  0  0  0  0  0  0  0  0  0  0
  -23.0630  -13.3420   21.9310 N   0  0  0  0  0  0  0  0  0  0  0  0
  -23.4450  -15.0890   20.6010 O   0  0  0  0  0  0  0  0  0  0  0  0
  -23.3740  -12.4710   22.3330 H   0  0  0  0  0  0  0  0  0  0  0  0
  -22.1570  -13.7070   22.1950 H   0  0  0  0  0  0  0  0  0  0  0  0
  -26.5550  -15.5060   20.2590 N   0  0  0  0  0  0  0  0  0  0  0  0
  -25.8390  -16.2090   20.4000 H   0  0  0  0  0  0  0  0  0  0  0  0
  -27.4220  -15.8910   19.9070 H   0  0  0  0  0  0  0  0  0  0  0  0
  -29.2400  -25.3900   20.6520 C   0  0  0  0  0  2  0  0  0  0  0  0
  -29.1150  -26.8130   20.3600 O   0  0  0  0  0  0  0  0  0  0  0  0
  -24.8570  -31.6710   23.3380 C   0  0  0  0  0  0  0  0  0  0  0  0
  -27.8940  -27.4670   20.3060 C   0  0  0  0  0  0  0  0  0  0  0  0
  -23.8260  -30.2860   21.5630 C   0  0  0  0  0  3  0  0  0  0  0  0
  -25.4410  -28.8610   20.1970 C   0  0  0  0  0  0  0  0  0  0  0  0
  -26.3410  -30.7580   21.5570 C   0  0  0  0  0  2  0  0  0  0  0  0
  -26.5300  -29.4180   20.8790 C   0  0  0  0  0  0  0  0  0  0  0  0
  -27.7600  -28.7290   20.9270 C   0  0  0  0  0  3  0  0  0  0  0  0
  -26.7860  -26.9160   19.6280 C   0  0  0  0  0  3  0  0  0  0  0  0
  -25.5640  -27.6090   19.5680 C   0  0  0  0  0  3  0  0  0  0  0  0
  -24.1620  -29.6660   20.1790 C   0  0  0  0  0  2  0  0  0  0  0  0
  -25.0200  -30.9190   22.2120 N   0  0  0  0  0  0  0  0  0  0  0  0
  -23.7300  -31.8760   23.8110 O   0  0  0  0  0  0  0  0  0  0  0  0
  -23.1530  -29.2050   22.4390 C   0  0  0  0  0  0  0  0  0  0  0  0
  -21.8370  -29.0160   22.2520 N   0  0  0  0  0  0  0  0  0  0  0  0
  -23.8150  -28.5400   23.2410 O   0  0  0  0  0  0  0  0  0  0  0  0
  -21.3630  -29.6100   21.5850 H   0  0  0  0  0  0  0  0  0  0  0  0
  -18.4440  -27.8200   22.6240 C   0  0  0  0  0  0  0  0  0  0  0  0
  -21.0040  -28.0230   22.9300 C   0  0  0  0  0  3  0  0  0  0  0  0
  -21.0960  -26.6480   22.2300 C   0  0  0  0  0  2  0  0  0  0  0  0
  -19.9910  -26.4110   21.1950 C   0  0  0  0  0  2  0  0  0  0  0  0
  -18.6060  -26.5340   21.8320 C   0  0  0  0  0  2  0  0  0  0  0  0
  -19.5690  -28.5270   23.1240 C   0  0  0  0  0  0  0  0  0  0  0  0
  -19.3610  -29.7360   23.8220 C   0  0  0  0  0  3  0  0  0  0  0  0
  -18.0620  -30.2410   24.0230 C   0  0  0  0  0  3  0  0  0  0  0  0
  -16.9510  -29.5300   23.5350 C   0  0  0  0  0  3  0  0  0  0  0  0
  -17.1430  -28.3220   22.8410 C   0  0  0  0  0  3  0  0  0  0  0  0
  -26.0690  -32.3280   24.0680 C   0  0  0  0  0  3  0  0  0  0  0  0
  -25.6990  -33.7120   24.3850 N   0  0  0  0  0  0  0  0  0  0  0  0
  -26.0380  -34.7800   23.6480 C   0  0  0  0  0  0  0  0  0  0  0  0
  -26.7680  -34.7020   22.6560 O   0  0  0  0  0  0  0  0  0  0  0  0
  -25.0590  -33.8430   25.1540 H   0  0  0  0  0  0  0  0  0  0  0  0
  -24.2590  -36.5030   23.2170 C   0  0  0  0  0  1  0  0  0  0  0  0
  -25.4790  -36.1480   24.0810 C   0  0  0  0  0  3  0  0  0  0  0  0
  -27.5250  -37.1330   25.0180 C   0  0  0  0  0  1  0  0  0  0  0  0
  -26.4740  -37.2410   24.0090 N   0  0  0  0  0  0  0  0  0  0  0  0
  -26.0230  -38.1450   24.1180 H   0  0  0  0  0  0  0  0  0  0  0  0
  -26.5040  -31.5540   25.3730 C   0  0  1  0  0  0  0  0  0  0  0  0
  -25.3320  -31.2590   26.3370 C   0  0  0  0  0  1  0  0  0  0  0  0
  -27.1730  -30.2070   25.0130 C   0  0  0  0  0  1  0  0  0  0  0  0
  -27.5590  -32.3800   26.1450 C   0  0  0  0  0  1  0  0  0  0  0  0
  1  8  1  0
  4  7  1  0
  4  2  1  0
  5  7  1  0
  5  3  1  0
  6  9  1  6
  6  3  1  0
  6  2  1  0
  6 55  1  0
  7  1  1  0
  8 10  1  0
  8 11  1  0
 13 14  2  0
 14 12  1  0
 14 25  1  0
 15  1  1  0
 15 12  2  0
 16 13  1  0
 16 15  1  0
 17 23  1  0
 17 25  1  0
 18 23  1  0
 19 20  1  0
 19 18  1  0
 21 20  1  0
 21 30  1  0
 21 22  1  0
 23 22  1  0
 24 17  2  0
 25 26  1  0
 27 28  2  0
 28 47  1  0
 29 28  1  0
 29 32  1  0
 30 31  1  0
 30 27  1  0
 31 29  2  0
 32 33  1  0
 33 34  2  0
 35 38  1  0
 35 34  1  0
 36 35  2  0
 37 36  1  0
 37 32  2  0
 38 39  1  0
 39 44  2  0
 39 40  1  0
 40 41  2  0
 41 42  1  0
 42 46  1  0
 43 42  2  0
 44 43  1  0
 45 44  1  0
 47 48  1  0
 48 51  1  0
 48 50  1  0
 49 47  2  0
 52 27  1  0
 52 53  1  0
 54 52  1  0
 56 55  1  0
 57 68  2  0
 58 56  1  0
 58 63  1  0
 59 67  1  0
 59 69  1  0
 60 62  1  0
 61 67  1  0
 62 63  2  0
 62 61  1  0
 64 58  2  0
 65 64  1  0
 65 60  2  0
 66 60  1  0
 66 59  1  0
 67 57  1  0
 69 71  2  0
 70 69  1  0
 72 70  1  0
 73 82  2  0
 73 78  1  0
 74 70  1  0
 74 78  1  0
 75 74  1  0
 76 77  1  0
 76 75  1  0
 77 73  1  0
 78 79  2  0
 79 80  1  0
 81 80  2  0
 82 81  1  0
 83 57  1  0
 83 84  1  0
 83 93  1  0
 84 87  1  0
 85 89  1  0
 85 84  1  0
 86 85  2  0
 89 88  1  0
 91 89  1  0
 91 92  1  0
 91 90  1  0
 93 96  1  1
 93 94  1  0
 95 93  1  0
M  ISO  4  17 100  25 100  55 101  56 101
M  END
>  <TORSDO>  (70) 
F 18

>  <SCORE>  (70) 
-13.071

>  <name>  (70) 
69

>  <ligand_id>  (70) 
69

>  <original_smiles>  (70) 
[H]c1sc(C(N2C([H])([H])C([H])([H])C(F)(C([H])([H])Oc3c([H])c([H])c4c(c3[H])C([H])([H])N(C(=O)C([H])(N([H])C(=O)C([H])(N([H])C([H])([H])[H])C([H])([H])[H])C(C([H])([H])[H])(C([H])([H])[H])C([H])([H])[H])C([H])(C(=O)N([H])C3([H])c5c([H])c([H])c([H])c([H])c5C([H])([H])C([H])([H])C3([H])[H])C4([H])[H])C([H])([H])C2([H])[H])=[N+]([H])[H])c([H])c1N([H])C(=O)N1C([H])([H])C([H])([H])C([H])([H])C([H])(n2nc(-c3c([H])c([H])c(Oc4c([H])c([H])c(F)c([H])c4F)c([H])c3[H])c(C(=O)N([H])[H])c2N([H])[H])C1([H])[H]

>  <smiles>  (70) 
[H]c1sc(C(N2C([H])([H])C([H])([H])C(F)(C([H])([H])Oc3c([H])c([H])c4c(c3[H])C([H])([H])N(C(=O)C([H])(N([H])C(=O)C([H])(N([H])C([H])([H])[H])C([H])([H])[H])C(C([H])([H])[H])(C([H])([H])[H])C([H])([H])[H])C([H])(C(=O)N([H])C3([H])c5c([H])c([H])c([H])c([H])c5C([H])([H])C([H])([H])C3([H])[H])C4([H])[H])C([H])([H])C2([H])[H])=[N+]([H])[H])c([H])c1N([H])C(=O)N1C([H])([H])C([H])([H])C([H])([H])C([H])(n2nc(-c3c([H])c([H])c(Oc4c([H])c([H])c(F)c([H])c4F)c([H])c3[H])c(C(=O)N([H])[H])c2N([H])[H])C1([H])[H]

$$$$
70:0:0
     RDKit          3D

 95104  0  0  1  0  0  0  0  0999 V2000
  -30.2190  -23.4710   20.8600 C   0  0  0  0  0  2  0  0  0  0  0  0
  -30.6040  -21.9530   20.8820 C   0  0  0  0  0  2  0  0  0  0  0  0
  -29.7560  -22.4900   18.7690 C   0  0  0  0  0  2  0  0  0  0  0  0
  -30.1490  -23.9260   19.3920 C   0  0  2  0  0  0  0  0  0  0  0  0
  -30.2880  -21.3320   19.5870 N   0  0  0  0  0  0  0  0  0  0  0  0
  -30.5580  -18.6750   19.8610 C   0  0  0  0  0  3  0  0  0  0  0  0
  -29.7840  -19.9340   19.6040 C   0  0  0  0  0  0  0  0  0  0  0  0
  -28.4510  -19.6130   19.4470 C   0  0  0  0  0  0  0  0  0  0  0  0
  -29.8270  -17.4560   19.8530 C   0  0  0  0  0  0  0  0  0  0  0  0
  -28.1630  -17.8860   19.5380 S   0  0  0  0  0  0  0  0  0  0  0  0
  -30.9280  -15.0360   19.6710 C   0  0  0  0  0  0  0  0  0  0  0  0
  -30.8540  -12.6170   18.9800 C   0  0  0  0  0  2  0  0  0  0  0  0
  -29.8460  -12.4710   17.8140 C   0  0  0  0  0  2  0  0  0  0  0  0
  -28.4020  -12.3150   18.3350 C   0  0  0  0  0  2  0  0  0  0  0  0
  -28.0520  -13.3500   19.4340 C   0  0  0  0  0  3  0  0  0  0  0  0
  -29.1640  -13.4150   20.5060 C   0  0  0  0  0  2  0  0  0  0  0  0
  -30.4190  -13.7600   19.8160 N   0  0  0  0  0  0  0  0  0  0  0  0
  -32.0660  -15.2060   19.2180 O   0  0  0  0  0  0  0  0  0  0  0  0
  -30.0130  -16.0530   19.9130 N   0  0  0  0  0  0  0  0  0  0  0  0
  -29.2050  -15.6130   20.3290 H   0  0  0  0  0  0  0  0  0  0  0  0
  -25.7610  -14.0310   20.3700 C   0  0  0  0  0  0  0  0  0  0  0  0
  -24.6890  -13.2950   20.7970 C   0  0  0  0  0  0  0  0  0  0  0  0
  -25.0780  -11.9260   20.6790 C   0  0  0  0  0  0  0  0  0  0  0  0
  -26.7360  -13.1110   20.0180 N   0  0  0  0  0  0  0  0  0  0  0  0
  -26.3360  -11.8370   20.2650 N   0  0  0  0  0  0  0  0  0  0  0  0
  -24.3050  -10.6920   20.8820 C   0  0  0  0  0  0  0  0  0  0  0  0
  -24.7190   -9.7040   21.8010 C   0  0  0  0  0  3  0  0  0  0  0  0
  -23.9510   -8.5370   21.9910 C   0  0  0  0  0  3  0  0  0  0  0  0
  -22.7520   -8.3490   21.2620 C   0  0  0  0  0  0  0  0  0  0  0  0
  -22.3570   -9.3250   20.3310 C   0  0  0  0  0  3  0  0  0  0  0  0
  -23.1270  -10.4850   20.1390 C   0  0  0  0  0  3  0  0  0  0  0  0
  -21.9550   -7.2350   21.3630 O   0  0  0  0  0  0  0  0  0  0  0  0
  -21.7970   -6.5680   22.5510 C   0  0  0  0  0  0  0  0  0  0  0  0
  -21.3380   -7.2190   23.7160 C   0  0  0  0  0  3  0  0  0  0  0  0
  -21.1240   -6.4810   24.8970 C   0  0  0  0  0  3  0  0  0  0  0  0
  -21.3600   -5.0930   24.9140 C   0  0  0  0  0  0  0  0  0  0  0  0
  -21.8120   -4.4420   23.7520 C   0  0  0  0  0  3  0  0  0  0  0  0
  -22.0270   -5.1770   22.5740 C   0  0  0  0  0  0  0  0  0  0  0  0
  -22.4430   -4.5410   21.4520 F   0  0  0  0  0  0  0  0  0  0  0  0
  -21.1460   -4.3820   26.0460 F   0  0  0  0  0  0  0  0  0  0  0  0
  -23.3430  -13.8270   21.1980 C   0  0  0  0  0  0  0  0  0  0  0  0
  -22.6650  -13.1490   22.1170 N   0  0  0  0  0  0  0  0  0  0  0  0
  -22.9060  -14.8780   20.7310 O   0  0  0  0  0  0  0  0  0  0  0  0
  -23.0320  -12.2970   22.5160 H   0  0  0  0  0  0  0  0  0  0  0  0
  -21.7640  -13.4850   22.4280 H   0  0  0  0  0  0  0  0  0  0  0  0
  -25.9780  -15.3990   20.2290 N   0  0  0  0  0  0  0  0  0  0  0  0
  -25.2480  -16.0760   20.4170 H   0  0  0  0  0  0  0  0  0  0  0  0
  -26.7980  -15.8100   19.8030 H   0  0  0  0  0  0  0  0  0  0  0  0
  -27.3020  -20.4940   19.2510 C   0  0  0  0  0  3  0  0  0  0  0  0
  -26.1430  -20.1400   18.8780 N   0  0  0  0  0  0  0  0  0  0  0  0
  -26.0900  -19.1390   18.7160 H   0  0  0  0  0  0  0  0  0  0  0  0
  -32.5780  -23.5890   19.0230 C   0  0  0  0  0  1  0  0  0  0  0  0
  -31.4060  -24.3790   18.8600 O   0  0  0  0  0  0  0  0  0  0  0  0
  -29.1940  -25.2200   19.0680 C   0  0  0  0  0  2  0  0  0  0  0  0
  -29.3820  -26.6410   19.5820 O   0  0  0  0  0  0  0  0  0  0  0  0
  -25.2560  -31.1750   23.5490 C   0  0  0  0  0  0  0  0  0  0  0  0
  -28.2540  -27.5090   19.6710 C   0  0  0  0  0  0  0  0  0  0  0  0
  -24.2320  -30.1980   21.5330 C   0  0  0  0  0  3  0  0  0  0  0  0
  -25.8400  -29.0780   19.8860 C   0  0  0  0  0  0  0  0  0  0  0  0
  -26.7700  -30.5910   21.6300 C   0  0  0  0  0  2  0  0  0  0  0  0
  -26.9510  -29.4120   20.6700 C   0  0  0  0  0  0  0  0  0  0  0  0
  -28.1620  -28.6460   20.5530 C   0  0  0  0  0  3  0  0  0  0  0  0
  -27.1090  -27.2560   18.8800 C   0  0  0  0  0  3  0  0  0  0  0  0
  -25.9270  -28.0110   18.9830 C   0  0  0  0  0  3  0  0  0  0  0  0
  -24.5710  -29.8910   20.0510 C   0  0  0  0  0  2  0  0  0  0  0  0
  -25.4340  -30.6590   22.2980 N   0  0  0  0  0  0  0  0  0  0  0  0
  -24.1270  -31.2880   24.0480 O   0  0  0  0  0  0  0  0  0  0  0  0
  -23.5430  -28.9610   22.1610 C   0  0  0  0  0  0  0  0  0  0  0  0
  -22.2430  -28.7740   21.8710 N   0  0  0  0  0  0  0  0  0  0  0  0
  -24.1810  -28.1820   22.8740 O   0  0  0  0  0  0  0  0  0  0  0  0
  -21.7850  -29.4610   21.2880 H   0  0  0  0  0  0  0  0  0  0  0  0
  -18.9090  -27.3680   21.7480 C   0  0  0  0  0  0  0  0  0  0  0  0
  -21.4150  -27.6520   22.3200 C   0  0  0  0  0  3  0  0  0  0  0  0
  -21.6500  -26.4000   21.4420 C   0  0  0  0  0  2  0  0  0  0  0  0
  -20.6610  -26.2840   20.2780 C   0  0  0  0  0  2  0  0  0  0  0  0
  -19.2220  -26.2240   20.8000 C   0  0  0  0  0  2  0  0  0  0  0  0
  -19.9390  -28.0500   22.4490 C   0  0  0  0  0  0  0  0  0  0  0  0
  -19.5960  -29.1280   23.2930 C   0  0  0  0  0  3  0  0  0  0  0  0
  -18.2550  -29.5270   23.4410 C   0  0  0  0  0  3  0  0  0  0  0  0
  -17.2360  -28.8410   22.7550 C   0  0  0  0  0  3  0  0  0  0  0  0
  -17.5650  -27.7620   21.9150 C   0  0  0  0  0  3  0  0  0  0  0  0
  -26.4630  -31.6680   24.4060 C   0  0  0  0  0  3  0  0  0  0  0  0
  -26.7280  -30.7690   25.6770 C   0  0  1  0  0  0  0  0  0  0  0  0
  -25.4720  -30.5400   26.5500 C   0  0  0  0  0  1  0  0  0  0  0  0
  -27.2730  -29.3830   25.2620 C   0  0  0  0  0  1  0  0  0  0  0  0
  -27.8140  -31.4230   26.5630 C   0  0  0  0  0  1  0  0  0  0  0  0
  -26.1870  -33.0570   24.8060 N   0  0  0  0  0  0  0  0  0  0  0  0
  -26.7020  -34.1380   24.2100 C   0  0  0  0  0  0  0  0  0  0  0  0
  -27.5240  -34.0680   23.2920 O   0  0  0  0  0  0  0  0  0  0  0  0
  -25.4800  -33.1900   25.5140 H   0  0  0  0  0  0  0  0  0  0  0  0
  -25.1960  -36.0960   23.7340 C   0  0  0  0  0  1  0  0  0  0  0  0
  -26.2330  -35.5190   24.7100 C   0  0  0  0  0  3  0  0  0  0  0  0
  -28.2310  -36.1470   25.9940 C   0  0  0  0  0  1  0  0  0  0  0  0
  -27.3370  -36.4870   24.8890 N   0  0  0  0  0  0  0  0  0  0  0  0
  -26.9740  -37.4220   25.0520 H   0  0  0  0  0  0  0  0  0  0  0  0
  1  2  1  0
  3  4  1  0
  3  5  1  0
  4 54  1  1
  4  1  1  0
  5  7  1  0
  5  2  1  0
  7  6  1  0
  8 10  1  0
  8  7  2  0
  9  6  2  0
  9 19  1  0
 10  9  1  0
 11 17  1  0
 11 19  1  0
 12 17  1  0
 13 14  1  0
 13 12  1  0
 15 14  1  0
 15 24  1  0
 15 16  1  0
 17 16  1  0
 18 11  2  0
 19 20  1  0
 21 22  2  0
 22 41  1  0
 23 22  1  0
 23 26  1  0
 24 25  1  0
 24 21  1  0
 25 23  2  0
 26 27  1  0
 27 28  2  0
 29 32  1  0
 29 28  1  0
 30 29  2  0
 31 30  1  0
 31 26  2  0
 32 33  1  0
 33 38  2  0
 33 34  1  0
 34 35  2  0
 35 36  1  0
 36 40  1  0
 37 36  2  0
 38 37  1  0
 39 38  1  0
 41 42  1  0
 42 45  1  0
 42 44  1  0
 43 41  2  0
 46 21  1  0
 46 47  1  0
 48 46  1  0
 49  8  1  0
 50 49  2  0
 51 50  1  0
 53 52  1  0
 53  4  1  0
 54 55  1  0
 55 57  1  0
 56 67  2  0
 57 62  1  0
 58 68  1  0
 58 66  1  0
 59 65  1  0
 59 61  1  0
 60 66  1  0
 61 60  1  0
 62 61  2  0
 63 64  1  0
 63 57  2  0
 64 59  2  0
 65 58  1  0
 66 56  1  0
 68 70  2  0
 69 68  1  0
 71 69  1  0
 72 81  2  0
 72 77  1  0
 73 69  1  0
 73 77  1  0
 74 73  1  0
 75 76  1  0
 75 74  1  0
 76 72  1  0
 77 78  2  0
 78 79  1  0
 80 79  2  0
 81 80  1  0
 82 56  1  0
 82 87  1  0
 82 83  1  0
 83 84  1  1
 83 86  1  0
 85 83  1  0
 87 90  1  0
 88 92  1  0
 88 87  1  0
 89 88  2  0
 92 91  1  0
 92 94  1  0
 94 95  1  0
 94 93  1  0
M  ISO  4  11 100  19 100  54 101  55 101
M  END
>  <TORSDO>  (71) 
F 20

>  <SCORE>  (71) 
-11.236

>  <name>  (71) 
70

>  <ligand_id>  (71) 
70

>  <original_smiles>  (71) 
[H]N=C([H])c1sc(N([H])C(=O)N2C([H])([H])C([H])([H])C([H])([H])C([H])(n3nc(-c4c([H])c([H])c(Oc5c([H])c([H])c(F)c([H])c5F)c([H])c4[H])c(C(=O)N([H])[H])c3N([H])[H])C2([H])[H])c([H])c1N1C([H])([H])C([H])([H])C(OC([H])([H])[H])(C([H])([H])Oc2c([H])c([H])c3c(c2[H])C([H])([H])N(C(=O)C([H])(N([H])C(=O)C([H])(N([H])C([H])([H])[H])C([H])([H])[H])C(C([H])([H])[H])(C([H])([H])[H])C([H])([H])[H])C([H])(C(=O)N([H])C2([H])c4c([H])c([H])c([H])c([H])c4C([H])([H])C([H])([H])C2([H])[H])C3([H])[H])C1([H])[H]

>  <smiles>  (71) 
[H]N=C([H])c1sc(N([H])C(=O)N2C([H])([H])C([H])([H])C([H])([H])C([H])(n3nc(-c4c([H])c([H])c(Oc5c([H])c([H])c(F)c([H])c5F)c([H])c4[H])c(C(=O)N([H])[H])c3N([H])[H])C2([H])[H])c([H])c1N1C([H])([H])C([H])([H])C(OC([H])([H])[H])(C([H])([H])Oc2c([H])c([H])c3c(c2[H])C([H])([H])N(C(=O)C([H])(N([H])C(=O)C([H])(N([H])C([H])([H])[H])C([H])([H])[H])C(C([H])([H])[H])(C([H])([H])[H])C([H])([H])[H])C([H])(C(=O)N([H])C2([H])c4c([H])c([H])c([H])c([H])c4C([H])([H])C([H])([H])C2([H])[H])C3([H])[H])C1([H])[H]

$$$$
71:0:0
     RDKit          3D

 95103  0  0  1  0  0  0  0  0999 V2000
  -29.4300  -18.6190   20.3880 C   0  0  0  0  0  3  0  0  0  0  0  0
  -31.3290  -17.7110   21.6080 C   0  0  0  0  0  3  0  0  0  0  0  0
  -30.1830  -17.4450   20.8260 C   0  0  0  0  0  0  0  0  0  0  0  0
  -29.8300  -19.9950   20.6690 C   0  0  0  0  0  0  0  0  0  0  0  0
  -31.0060  -20.1460   21.4470 C   0  0  0  0  0  0  0  0  0  0  0  0
  -31.7260  -19.0260   21.9220 C   0  0  0  0  0  0  0  0  0  0  0  0
  -32.8340  -19.2210   22.6790 F   0  0  0  0  0  0  0  0  0  0  0  0
  -30.6020  -14.8970   20.3890 C   0  0  0  0  0  0  0  0  0  0  0  0
  -30.4360  -12.6110   19.3730 C   0  0  0  0  0  2  0  0  0  0  0  0
  -29.4860  -12.6290   18.1550 C   0  0  0  0  0  2  0  0  0  0  0  0
  -28.0250  -12.4290   18.6010 C   0  0  0  0  0  2  0  0  0  0  0  0
  -27.6360  -13.3360   19.7990 C   0  0  0  0  0  3  0  0  0  0  0  0
  -28.7010  -13.2960   20.9160 C   0  0  0  0  0  2  0  0  0  0  0  0
  -29.9840  -13.6680   20.3070 N   0  0  0  0  0  0  0  0  0  0  0  0
  -31.7900  -15.0040   20.0690 O   0  0  0  0  0  0  0  0  0  0  0  0
  -29.8120  -16.0260   20.5780 N   0  0  0  0  0  0  0  0  0  0  0  0
  -28.8220  -15.8350   20.5820 H   0  0  0  0  0  0  0  0  0  0  0  0
  -25.2500  -13.8970   20.5540 C   0  0  0  0  0  0  0  0  0  0  0  0
  -24.1960  -13.1100   20.9270 C   0  0  0  0  0  0  0  0  0  0  0  0
  -24.6720  -11.7630   20.8770 C   0  0  0  0  0  0  0  0  0  0  0  0
  -26.3010  -13.0310   20.3010 N   0  0  0  0  0  0  0  0  0  0  0  0
  -25.9600  -11.7420   20.5570 N   0  0  0  0  0  0  0  0  0  0  0  0
  -23.9600  -10.4920   21.0590 C   0  0  0  0  0  0  0  0  0  0  0  0
  -24.3980   -9.5270   21.9930 C   0  0  0  0  0  3  0  0  0  0  0  0
  -23.6840   -8.3200   22.1640 C   0  0  0  0  0  3  0  0  0  0  0  0
  -22.5200   -8.0700   21.4000 C   0  0  0  0  0  0  0  0  0  0  0  0
  -22.1000   -9.0250   20.4570 C   0  0  0  0  0  3  0  0  0  0  0  0
  -22.8140  -10.2220   20.2850 C   0  0  0  0  0  3  0  0  0  0  0  0
  -21.7790   -6.9160   21.4800 O   0  0  0  0  0  0  0  0  0  0  0  0
  -21.7140   -6.1800   22.6350 C   0  0  0  0  0  0  0  0  0  0  0  0
  -21.2330   -6.7310   23.8440 C   0  0  0  0  0  3  0  0  0  0  0  0
  -21.1190   -5.9200   24.9910 C   0  0  0  0  0  3  0  0  0  0  0  0
  -21.4750   -4.5610   24.9310 C   0  0  0  0  0  0  0  0  0  0  0  0
  -21.9500   -4.0090   23.7280 C   0  0  0  0  0  3  0  0  0  0  0  0
  -22.0660   -4.8160   22.5830 C   0  0  0  0  0  0  0  0  0  0  0  0
  -22.5030   -4.2740   21.4220 F   0  0  0  0  0  0  0  0  0  0  0  0
  -21.3580   -3.7800   26.0310 F   0  0  0  0  0  0  0  0  0  0  0  0
  -22.7950  -13.5690   21.2130 C   0  0  0  0  0  0  0  0  0  0  0  0
  -22.0810  -12.8540   22.0740 N   0  0  0  0  0  0  0  0  0  0  0  0
  -22.3440  -14.5970   20.7100 O   0  0  0  0  0  0  0  0  0  0  0  0
  -22.4600  -12.0210   22.5010 H   0  0  0  0  0  0  0  0  0  0  0  0
  -21.1420  -13.1430   22.3120 H   0  0  0  0  0  0  0  0  0  0  0  0
  -25.3970  -15.2720   20.3850 N   0  0  0  0  0  0  0  0  0  0  0  0
  -24.6200  -15.9120   20.5070 H   0  0  0  0  0  0  0  0  0  0  0  0
  -26.2190  -15.7200   20.0030 H   0  0  0  0  0  0  0  0  0  0  0  0
  -31.5050  -21.4240   21.7140 N   0  0  0  0  0  0  0  0  0  0  0  0
  -30.8410  -22.1840   21.6560 H   0  0  0  0  0  0  0  0  0  0  0  0
  -32.1580  -21.4970   22.4860 H   0  0  0  0  0  0  0  0  0  0  0  0
  -29.2580  -21.1920   20.0750 N   0  0  0  0  0  0  0  0  0  0  0  0
  -30.0130  -21.6430   19.5590 H   0  0  0  0  0  0  0  0  0  0  0  0
  -28.5790  -22.3450   20.7980 C   0  0  0  0  0  2  0  0  0  0  0  0
  -28.8490  -23.8520   20.2990 C   0  0  0  0  0  0  0  0  0  0  0  0
  -29.9180  -24.0960   19.7280 O   0  0  0  0  0  0  0  0  0  0  0  0
  -27.7740  -25.0200   20.5200 C   0  0  0  0  0  2  0  0  0  0  0  0
  -28.1310  -26.4540   20.1990 O   0  0  0  0  0  0  0  0  0  0  0  0
  -24.5120  -31.9760   23.2440 C   0  0  0  0  0  0  0  0  0  0  0  0
  -27.0600  -27.3790   20.1490 C   0  0  0  0  0  0  0  0  0  0  0  0
  -23.2890  -30.5940   21.6070 C   0  0  0  0  0  3  0  0  0  0  0  0
  -24.7180  -29.0470   20.1520 C   0  0  0  0  0  0  0  0  0  0  0  0
  -25.8310  -30.8880   21.4060 C   0  0  0  0  0  2  0  0  0  0  0  0
  -25.8990  -29.5110   20.7480 C   0  0  0  0  0  0  0  0  0  0  0  0
  -27.0760  -28.6910   20.7340 C   0  0  0  0  0  3  0  0  0  0  0  0
  -25.8610  -26.9960   19.5040 C   0  0  0  0  0  3  0  0  0  0  0  0
  -24.7070  -27.7990   19.5140 C   0  0  0  0  0  3  0  0  0  0  0  0
  -23.4880  -29.9290   20.2200 C   0  0  0  0  0  2  0  0  0  0  0  0
  -24.5640  -31.1710   22.1420 N   0  0  0  0  0  0  0  0  0  0  0  0
  -23.4330  -32.2550   23.7900 O   0  0  0  0  0  0  0  0  0  0  0  0
  -22.6280  -29.5740   22.5670 C   0  0  0  0  0  0  0  0  0  0  0  0
  -21.3010  -29.3940   22.4410 N   0  0  0  0  0  0  0  0  0  0  0  0
  -23.3080  -28.9490   23.3840 O   0  0  0  0  0  0  0  0  0  0  0  0
  -20.8110  -29.9540   21.7570 H   0  0  0  0  0  0  0  0  0  0  0  0
  -17.9270  -28.1830   22.9400 C   0  0  0  0  0  0  0  0  0  0  0  0
  -20.4830  -28.4520   23.2090 C   0  0  0  0  0  3  0  0  0  0  0  0
  -20.5910  -27.0220   22.6320 C   0  0  0  0  0  2  0  0  0  0  0  0
  -19.4890  -26.6950   21.6190 C   0  0  0  0  0  2  0  0  0  0  0  0
  -18.1070  -26.8330   22.2630 C   0  0  0  0  0  2  0  0  0  0  0  0
  -19.0430  -28.9500   23.3700 C   0  0  0  0  0  0  0  0  0  0  0  0
  -18.8200  -30.2100   23.9630 C   0  0  0  0  0  3  0  0  0  0  0  0
  -17.5130  -30.7060   24.1340 C   0  0  0  0  0  3  0  0  0  0  0  0
  -16.4100  -29.9350   23.7210 C   0  0  0  0  0  3  0  0  0  0  0  0
  -16.6190  -28.6760   23.1290 C   0  0  0  0  0  3  0  0  0  0  0  0
  -25.8020  -32.6010   23.8590 C   0  0  0  0  0  3  0  0  0  0  0  0
  -25.5050  -34.0040   24.1800 N   0  0  0  0  0  0  0  0  0  0  0  0
  -25.8490  -35.0510   23.4180 C   0  0  0  0  0  0  0  0  0  0  0  0
  -26.5210  -34.9370   22.3900 O   0  0  0  0  0  0  0  0  0  0  0  0
  -24.9090  -34.1660   24.9790 H   0  0  0  0  0  0  0  0  0  0  0  0
  -24.1540  -36.8740   23.0470 C   0  0  0  0  0  1  0  0  0  0  0  0
  -25.3790  -36.4470   23.8710 C   0  0  0  0  0  3  0  0  0  0  0  0
  -27.5160  -37.3030   24.7270 C   0  0  0  0  0  1  0  0  0  0  0  0
  -26.4290  -37.4840   23.7680 N   0  0  0  0  0  0  0  0  0  0  0  0
  -26.0360  -38.4110   23.9080 H   0  0  0  0  0  0  0  0  0  0  0  0
  -26.3100  -31.8350   25.1430 C   0  0  1  0  0  0  0  0  0  0  0  0
  -25.2120  -31.6110   26.2100 C   0  0  0  0  0  1  0  0  0  0  0  0
  -26.8860  -30.4510   24.7630 C   0  0  0  0  0  1  0  0  0  0  0  0
  -27.4630  -32.6290   25.8010 C   0  0  0  0  0  1  0  0  0  0  0  0
  1  4  2  0
  1  3  1  0
  2  6  1  0
  3  2  2  0
  4  5  1  0
  5 46  1  0
  5  6  2  0
  6  7  1  0
  8 16  1  0
  9 14  1  0
 10 11  1  0
 10  9  1  0
 12 11  1  0
 12 21  1  0
 12 13  1  0
 14  8  1  0
 14 13  1  0
 15  8  2  0
 16 17  1  0
 16  3  1  0
 18 19  2  0
 19 38  1  0
 20 19  1  0
 20 23  1  0
 21 18  1  0
 21 22  1  0
 22 20  2  0
 23 24  1  0
 24 25  2  0
 26 29  1  0
 26 25  1  0
 27 26  2  0
 28 27  1  0
 28 23  2  0
 29 30  1  0
 30 31  1  0
 31 32  2  0
 33 32  1  0
 33 37  1  0
 34 33  2  0
 35 30  2  0
 35 34  1  0
 36 35  1  0
 38 39  1  0
 39 42  1  0
 39 41  1  0
 40 38  2  0
 43 44  1  0
 43 18  1  0
 45 43  1  0
 46 48  1  0
 47 46  1  0
 49  4  1  0
 49 51  1  0
 50 49  1  0
 52 54  1  0
 52 51  1  0
 53 52  2  0
 55 54  1  0
 56 67  2  0
 57 55  1  0
 57 62  1  0
 58 66  1  0
 58 68  1  0
 59 65  1  0
 59 61  1  0
 60 66  1  0
 61 60  1  0
 62 61  2  0
 63 64  1  0
 63 57  2  0
 64 59  2  0
 65 58  1  0
 66 56  1  0
 68 70  2  0
 69 68  1  0
 71 69  1  0
 72 81  2  0
 72 77  1  0
 73 69  1  0
 73 77  1  0
 74 73  1  0
 75 76  1  0
 75 74  1  0
 76 72  1  0
 77 78  2  0
 78 79  1  0
 80 79  2  0
 81 80  1  0
 82 56  1  0
 82 83  1  0
 82 92  1  0
 83 86  1  0
 84 88  1  0
 84 83  1  0
 85 84  2  0
 88 87  1  0
 90 88  1  0
 90 91  1  0
 90 89  1  0
 92 95  1  1
 92 93  1  0
 94 92  1  0
M  ISO  4   8 100  16 100  54 101  55 101
M  END
>  <TORSDO>  (72) 
F 21

>  <SCORE>  (72) 
-13.819

>  <name>  (72) 
71

>  <ligand_id>  (72) 
71

>  <original_smiles>  (72) 
[H]c1c([H])c([H])c2c(c1[H])C([H])([H])C([H])([H])C([H])([H])C2([H])N([H])C(=O)C1([H])N(C(=O)C([H])(N([H])C(=O)C([H])(N([H])C([H])([H])[H])C([H])([H])[H])C(C([H])([H])[H])(C([H])([H])[H])C([H])([H])[H])C([H])([H])c2c([H])c(OC([H])([H])C(=O)C([H])([H])N([H])c3c([H])c(N([H])C(=O)N4C([H])([H])C([H])([H])C([H])([H])C([H])(n5nc(-c6c([H])c([H])c(Oc7c([H])c([H])c(F)c([H])c7F)c([H])c6[H])c(C(=O)N([H])[H])c5N([H])[H])C4([H])[H])c([H])c(F)c3N([H])[H])c([H])c([H])c2C1([H])[H]

>  <smiles>  (72) 
[H]c1c([H])c([H])c2c(c1[H])C([H])([H])C([H])([H])C([H])([H])C2([H])N([H])C(=O)C1([H])N(C(=O)C([H])(N([H])C(=O)C([H])(N([H])C([H])([H])[H])C([H])([H])[H])C(C([H])([H])[H])(C([H])([H])[H])C([H])([H])[H])C([H])([H])c2c([H])c(OC([H])([H])C(=O)C([H])([H])N([H])c3c([H])c(N([H])C(=O)N4C([H])([H])C([H])([H])C([H])([H])C([H])(n5nc(-c6c([H])c([H])c(Oc7c([H])c([H])c(F)c([H])c7F)c([H])c6[H])c(C(=O)N([H])[H])c5N([H])[H])C4([H])[H])c([H])c(F)c3N([H])[H])c([H])c([H])c2C1([H])[H]

$$$$
72:0:0
     RDKit          3D

 94103  0  0  1  0  0  0  0  0999 V2000
  -30.9190  -21.2940   22.6920 C   0  0  0  0  0  2  0  0  0  0  0  0
  -31.0890  -21.6070   21.2050 C   0  0  0  0  0  2  0  0  0  0  0  0
  -29.4000  -21.3240   22.4990 C   0  0  0  0  0  2  0  0  0  0  0  0
  -29.5860  -21.3140   20.9630 C   0  0  2  0  0  0  0  0  0  0  0  0
  -29.0000  -18.5510   18.2410 C   0  0  0  0  0  3  0  0  0  0  0  0
  -29.0230  -19.7880   18.9250 C   0  0  0  0  0  3  0  0  0  0  0  0
  -29.3640  -17.3390   18.8690 C   0  0  0  0  0  3  0  0  0  0  0  0
  -29.7470  -18.5930   20.9120 C   0  0  0  0  0  3  0  0  0  0  0  0
  -29.4170  -19.8690   20.2760 C   0  0  0  0  0  0  0  0  0  0  0  0
  -29.7350  -17.3050   20.2290 C   0  0  0  0  0  0  0  0  0  0  0  0
  -30.6570  -14.8820   20.4060 C   0  0  0  0  0  0  0  0  0  0  0  0
  -30.4840  -12.6070   19.3910 C   0  0  0  0  0  2  0  0  0  0  0  0
  -29.5760  -12.6990   18.1450 C   0  0  0  0  0  2  0  0  0  0  0  0
  -28.0960  -12.5220   18.5350 C   0  0  0  0  0  2  0  0  0  0  0  0
  -27.7000  -13.3900   19.7590 C   0  0  0  0  0  3  0  0  0  0  0  0
  -28.7330  -13.2900   20.9050 C   0  0  0  0  0  2  0  0  0  0  0  0
  -30.0480  -13.6460   20.3550 N   0  0  0  0  0  0  0  0  0  0  0  0
  -31.8080  -15.0170   19.9750 O   0  0  0  0  0  0  0  0  0  0  0  0
  -29.9370  -15.9760   20.8590 N   0  0  0  0  0  0  0  0  0  0  0  0
  -29.1970  -15.7170   21.4950 H   0  0  0  0  0  0  0  0  0  0  0  0
  -25.2930  -13.9700   20.4360 C   0  0  0  0  0  0  0  0  0  0  0  0
  -24.2240  -13.1890   20.7860 C   0  0  0  0  0  0  0  0  0  0  0  0
  -24.6950  -11.8400   20.7610 C   0  0  0  0  0  0  0  0  0  0  0  0
  -26.3450  -13.0950   20.2190 N   0  0  0  0  0  0  0  0  0  0  0  0
  -25.9910  -11.8090   20.4750 N   0  0  0  0  0  0  0  0  0  0  0  0
  -23.9700  -10.5750   20.9380 C   0  0  0  0  0  0  0  0  0  0  0  0
  -24.3680   -9.6270   21.9070 C   0  0  0  0  0  3  0  0  0  0  0  0
  -23.6460   -8.4260   22.0730 C   0  0  0  0  0  3  0  0  0  0  0  0
  -22.5120   -8.1640   21.2690 C   0  0  0  0  0  0  0  0  0  0  0  0
  -22.1330   -9.1000   20.2900 C   0  0  0  0  0  3  0  0  0  0  0  0
  -22.8550  -10.2930   20.1240 C   0  0  0  0  0  3  0  0  0  0  0  0
  -21.7630   -7.0140   21.3400 O   0  0  0  0  0  0  0  0  0  0  0  0
  -21.6370   -6.3080   22.5090 C   0  0  0  0  0  0  0  0  0  0  0  0
  -21.0770   -6.8830   23.6710 C   0  0  0  0  0  3  0  0  0  0  0  0
  -20.9040   -6.1020   24.8300 C   0  0  0  0  0  3  0  0  0  0  0  0
  -21.2800   -4.7440   24.8270 C   0  0  0  0  0  0  0  0  0  0  0  0
  -21.8330   -4.1690   23.6700 C   0  0  0  0  0  3  0  0  0  0  0  0
  -22.0080   -4.9470   22.5130 C   0  0  0  0  0  0  0  0  0  0  0  0
  -22.5210   -4.3820   21.3930 F   0  0  0  0  0  0  0  0  0  0  0  0
  -21.1060   -3.9900   25.9380 F   0  0  0  0  0  0  0  0  0  0  0  0
  -22.8200  -13.6580   21.0330 C   0  0  0  0  0  0  0  0  0  0  0  0
  -22.0790  -12.9510   21.8790 N   0  0  0  0  0  0  0  0  0  0  0  0
  -22.3880  -14.6870   20.5140 O   0  0  0  0  0  0  0  0  0  0  0  0
  -22.4460  -12.1240   22.3240 H   0  0  0  0  0  0  0  0  0  0  0  0
  -21.1340  -13.2410   22.0840 H   0  0  0  0  0  0  0  0  0  0  0  0
  -25.4530  -15.3410   20.2660 N   0  0  0  0  0  0  0  0  0  0  0  0
  -24.6790  -15.9900   20.3670 H   0  0  0  0  0  0  0  0  0  0  0  0
  -26.3080  -15.7920   19.9640 H   0  0  0  0  0  0  0  0  0  0  0  0
  -28.9690  -23.9240   20.6750 C   0  0  0  0  0  0  0  0  0  0  0  0
  -28.8910  -22.5600   20.3610 N   0  0  0  0  0  0  0  0  0  0  0  0
  -29.7230  -24.3410   21.5560 O   0  0  0  0  0  0  0  0  0  0  0  0
  -28.1930  -22.3400   19.6640 H   0  0  0  0  0  0  0  0  0  0  0  0
  -28.0560  -25.0290   19.9720 C   0  0  0  0  0  2  0  0  0  0  0  0
  -28.3280  -26.4840   20.2860 O   0  0  0  0  0  0  0  0  0  0  0  0
  -24.6050  -31.9600   23.2630 C   0  0  0  0  0  0  0  0  0  0  0  0
  -27.2540  -27.4010   20.1930 C   0  0  0  0  0  0  0  0  0  0  0  0
  -23.4290  -30.5630   21.6070 C   0  0  0  0  0  3  0  0  0  0  0  0
  -24.9030  -29.0470   20.1690 C   0  0  0  0  0  0  0  0  0  0  0  0
  -25.9750  -30.8920   21.4530 C   0  0  0  0  0  2  0  0  0  0  0  0
  -26.0680  -29.5200   20.7860 C   0  0  0  0  0  0  0  0  0  0  0  0
  -27.2500  -28.7090   20.7860 C   0  0  0  0  0  3  0  0  0  0  0  0
  -26.0710  -27.0140   19.5230 C   0  0  0  0  0  3  0  0  0  0  0  0
  -24.9120  -27.8050   19.5230 C   0  0  0  0  0  3  0  0  0  0  0  0
  -23.6640  -29.9160   20.2190 C   0  0  0  0  0  2  0  0  0  0  0  0
  -24.6880  -31.1560   22.1630 N   0  0  0  0  0  0  0  0  0  0  0  0
  -23.5130  -32.2230   23.7890 O   0  0  0  0  0  0  0  0  0  0  0  0
  -22.7710  -29.5270   22.5500 C   0  0  0  0  0  0  0  0  0  0  0  0
  -21.4460  -29.3430   22.4190 N   0  0  0  0  0  0  0  0  0  0  0  0
  -23.4500  -28.8990   23.3660 O   0  0  0  0  0  0  0  0  0  0  0  0
  -20.9570  -29.9030   21.7360 H   0  0  0  0  0  0  0  0  0  0  0  0
  -18.0670  -28.1490   22.9300 C   0  0  0  0  0  0  0  0  0  0  0  0
  -20.6290  -28.3940   23.1780 C   0  0  0  0  0  3  0  0  0  0  0  0
  -20.7190  -26.9750   22.5710 C   0  0  0  0  0  2  0  0  0  0  0  0
  -19.6050  -26.6770   21.5630 C   0  0  0  0  0  2  0  0  0  0  0  0
  -18.2300  -26.8140   22.2250 C   0  0  0  0  0  2  0  0  0  0  0  0
  -19.1930  -28.8980   23.3640 C   0  0  0  0  0  0  0  0  0  0  0  0
  -18.9840  -30.1480   23.9860 C   0  0  0  0  0  3  0  0  0  0  0  0
  -17.6820  -30.6490   24.1780 C   0  0  0  0  0  3  0  0  0  0  0  0
  -16.5710  -29.8960   23.7610 C   0  0  0  0  0  3  0  0  0  0  0  0
  -16.7640  -28.6490   23.1420 C   0  0  0  0  0  3  0  0  0  0  0  0
  -25.8760  -32.6020   23.8980 C   0  0  0  0  0  3  0  0  0  0  0  0
  -26.3820  -31.8360   25.1830 C   0  0  1  0  0  0  0  0  0  0  0  0
  -25.2750  -31.5840   26.2320 C   0  0  0  0  0  1  0  0  0  0  0  0
  -26.9910  -30.4660   24.8050 C   0  0  0  0  0  1  0  0  0  0  0  0
  -27.5110  -32.6450   25.8640 C   0  0  0  0  0  1  0  0  0  0  0  0
  -25.5550  -34.0000   24.2220 N   0  0  0  0  0  0  0  0  0  0  0  0
  -25.8700  -35.0520   23.4550 C   0  0  0  0  0  0  0  0  0  0  0  0
  -26.5370  -34.9510   22.4220 O   0  0  0  0  0  0  0  0  0  0  0  0
  -24.9670  -34.1520   25.0290 H   0  0  0  0  0  0  0  0  0  0  0  0
  -24.1310  -36.8330   23.0930 C   0  0  0  0  0  1  0  0  0  0  0  0
  -25.3710  -36.4380   23.9100 C   0  0  0  0  0  3  0  0  0  0  0  0
  -27.4890  -37.3510   24.7560 C   0  0  0  0  0  1  0  0  0  0  0  0
  -26.3950  -37.5000   23.7980 N   0  0  0  0  0  0  0  0  0  0  0  0
  -25.9790  -38.4160   23.9380 H   0  0  0  0  0  0  0  0  0  0  0  0
  2  1  1  0
  3  1  1  0
  4  2  1  0
  4  3  1  0
  5  7  2  0
  5  6  1  0
  6  9  2  0
  7 10  1  0
  9  8  1  0
  9  4  1  0
 10 19  1  0
 10  8  2  0
 11 19  1  0
 12 17  1  0
 13 14  1  0
 13 12  1  0
 15 14  1  0
 15 24  1  0
 15 16  1  0
 17 11  1  0
 17 16  1  0
 18 11  2  0
 19 20  1  0
 21 22  2  0
 22 41  1  0
 23 22  1  0
 23 26  1  0
 24 21  1  0
 24 25  1  0
 25 23  2  0
 26 27  1  0
 27 28  2  0
 29 32  1  0
 29 28  1  0
 30 29  2  0
 31 30  1  0
 31 26  2  0
 32 33  1  0
 33 38  2  0
 33 34  1  0
 34 35  2  0
 36 35  1  0
 36 40  1  0
 37 36  2  0
 38 37  1  0
 39 38  1  0
 41 42  1  0
 42 45  1  0
 42 44  1  0
 43 41  2  0
 46 47  1  0
 46 21  1  0
 48 46  1  0
 49 51  2  0
 50 49  1  0
  4 50  1  6
 52 50  1  0
 53 54  1  0
 53 49  1  0
 55 66  2  0
 56 54  1  0
 56 61  1  0
 57 65  1  0
 57 67  1  0
 58 64  1  0
 58 60  1  0
 59 65  1  0
 60 61  2  0
 60 59  1  0
 62 63  1  0
 62 56  2  0
 63 58  2  0
 64 57  1  0
 65 55  1  0
 67 69  2  0
 68 67  1  0
 70 68  1  0
 71 80  2  0
 71 76  1  0
 72 68  1  0
 72 76  1  0
 73 72  1  0
 74 75  1  0
 74 73  1  0
 75 71  1  0
 76 77  2  0
 77 78  1  0
 79 78  2  0
 80 79  1  0
 81 55  1  0
 81 86  1  0
 81 82  1  0
 82 85  1  1
 82 83  1  0
 84 82  1  0
 86 89  1  0
 87 91  1  0
 87 86  1  0
 88 87  2  0
 91 90  1  0
 93 91  1  0
 93 94  1  0
 93 92  1  0
M  ISO  4  11 100  19 100  53 101  54 101
M  END
>  <TORSDO>  (73) 
F 19

>  <SCORE>  (73) 
-14.517

>  <name>  (73) 
72

>  <ligand_id>  (73) 
72

>  <original_smiles>  (73) 
[H]c1c([H])c([H])c2c(c1[H])C([H])([H])C([H])([H])C([H])([H])C2([H])N([H])C(=O)C1([H])N(C(=O)C([H])(N([H])C(=O)C([H])(N([H])C([H])([H])[H])C([H])([H])[H])C(C([H])([H])[H])(C([H])([H])[H])C([H])([H])[H])C([H])([H])c2c([H])c(OC([H])([H])C(=O)N([H])C3(c4c([H])c([H])c([H])c(N([H])C(=O)N5C([H])([H])C([H])([H])C([H])([H])C([H])(n6nc(-c7c([H])c([H])c(Oc8c([H])c([H])c(F)c([H])c8F)c([H])c7[H])c(C(=O)N([H])[H])c6N([H])[H])C5([H])[H])c4[H])C([H])([H])C([H])([H])C3([H])[H])c([H])c([H])c2C1([H])[H]

>  <smiles>  (73) 
[H]c1c([H])c([H])c2c(c1[H])C([H])([H])C([H])([H])C([H])([H])C2([H])N([H])C(=O)C1([H])N(C(=O)C([H])(N([H])C(=O)C([H])(N([H])C([H])([H])[H])C([H])([H])[H])C(C([H])([H])[H])(C([H])([H])[H])C([H])([H])[H])C([H])([H])c2c([H])c(OC([H])([H])C(=O)N([H])C3(c4c([H])c([H])c([H])c(N([H])C(=O)N5C([H])([H])C([H])([H])C([H])([H])C([H])(n6nc(-c7c([H])c([H])c(Oc8c([H])c([H])c(F)c([H])c8F)c([H])c7[H])c(C(=O)N([H])[H])c6N([H])[H])C5([H])[H])c4[H])C([H])([H])C([H])([H])C3([H])[H])c([H])c([H])c2C1([H])[H]

$$$$
73:0:0
     RDKit          3D

 88 96  0  0  1  0  0  0  0  0999 V2000
  -29.0290  -23.2490   20.4060 C   0  0  0  0  0  0  0  0  0  0  0  0
  -30.2110  -23.5370   20.1880 O   0  0  0  0  0  0  0  0  0  0  0  0
  -28.6700  -21.6120   20.6640 C   0  0  0  0  0  2  0  0  0  0  0  0
  -30.4880  -15.1120   20.1900 C   0  0  0  0  0  0  0  0  0  0  0  0
  -30.3710  -12.7340   19.2420 C   0  0  0  0  0  2  0  0  0  0  0  0
  -29.4100  -12.6620   18.0300 C   0  0  0  0  0  2  0  0  0  0  0  0
  -27.9650  -12.4200   18.5070 C   0  0  0  0  0  2  0  0  0  0  0  0
  -27.5740  -13.3400   19.6920 C   0  0  0  0  0  3  0  0  0  0  0  0
  -28.6580  -13.3940   20.7890 C   0  0  0  0  0  2  0  0  0  0  0  0
  -29.9000  -13.8370   20.1430 N   0  0  0  0  0  0  0  0  0  0  0  0
  -31.6920  -15.1570   19.9010 O   0  0  0  0  0  0  0  0  0  0  0  0
  -31.1090  -18.5750   20.2810 C   0  0  0  0  0  3  0  0  0  0  0  0
  -30.8320  -19.9450   20.3700 C   0  0  0  0  0  3  0  0  0  0  0  0
  -29.8660  -17.8580   20.3240 C   0  0  0  0  0  0  0  0  0  0  0  0
  -28.9020  -18.8820   20.4140 N   0  0  0  0  0  0  0  0  0  0  0  0
  -29.4630  -20.2150   20.4290 N   0  0  0  0  0  0  0  0  0  0  0  0
  -29.6890  -16.3050   20.3420 N   0  0  0  0  0  0  0  0  0  0  0  0
  -28.7230  -16.0520   20.4810 H   0  0  0  0  0  0  0  0  0  0  0  0
  -25.2090  -13.8800   20.4890 C   0  0  0  0  0  0  0  0  0  0  0  0
  -24.1570  -13.0900   20.8660 C   0  0  0  0  0  0  0  0  0  0  0  0
  -24.6300  -11.7460   20.8140 C   0  0  0  0  0  0  0  0  0  0  0  0
  -26.2550  -13.0150   20.2190 N   0  0  0  0  0  0  0  0  0  0  0  0
  -25.9170  -11.7240   20.4820 N   0  0  0  0  0  0  0  0  0  0  0  0
  -23.9140  -10.4750   20.9990 C   0  0  0  0  0  0  0  0  0  0  0  0
  -24.3510   -9.5130   21.9370 C   0  0  0  0  0  3  0  0  0  0  0  0
  -23.6330   -8.3100   22.1110 C   0  0  0  0  0  3  0  0  0  0  0  0
  -22.4630   -8.0630   21.3520 C   0  0  0  0  0  0  0  0  0  0  0  0
  -22.0480   -9.0140   20.4080 C   0  0  0  0  0  3  0  0  0  0  0  0
  -22.7660  -10.2090   20.2300 C   0  0  0  0  0  3  0  0  0  0  0  0
  -21.7130   -6.9120   21.4450 O   0  0  0  0  0  0  0  0  0  0  0  0
  -21.6450   -6.1840   22.6060 C   0  0  0  0  0  0  0  0  0  0  0  0
  -21.1750   -6.7470   23.8120 C   0  0  0  0  0  3  0  0  0  0  0  0
  -21.0550   -5.9440   24.9640 C   0  0  0  0  0  3  0  0  0  0  0  0
  -21.3990   -4.5790   24.9110 C   0  0  0  0  0  0  0  0  0  0  0  0
  -21.8630   -4.0140   23.7080 C   0  0  0  0  0  3  0  0  0  0  0  0
  -21.9830   -4.8150   22.5610 C   0  0  0  0  0  0  0  0  0  0  0  0
  -22.4100   -4.2620   21.3990 F   0  0  0  0  0  0  0  0  0  0  0  0
  -21.2770   -3.8060   26.0150 F   0  0  0  0  0  0  0  0  0  0  0  0
  -22.7630  -13.5560   21.1650 C   0  0  0  0  0  0  0  0  0  0  0  0
  -22.0580  -12.8430   22.0390 N   0  0  0  0  0  0  0  0  0  0  0  0
  -22.3080  -14.5780   20.6570 O   0  0  0  0  0  0  0  0  0  0  0  0
  -22.4340  -12.0060   22.4640 H   0  0  0  0  0  0  0  0  0  0  0  0
  -21.1240  -13.1370   22.2850 H   0  0  0  0  0  0  0  0  0  0  0  0
  -25.3560  -15.2510   20.3170 N   0  0  0  0  0  0  0  0  0  0  0  0
  -24.5900  -15.9060   20.4400 H   0  0  0  0  0  0  0  0  0  0  0  0
  -26.2010  -15.7020   19.9920 H   0  0  0  0  0  0  0  0  0  0  0  0
  -27.9210  -24.5330   20.4880 C   0  0  0  0  0  2  0  0  0  0  0  0
  -28.2370  -26.0860   20.3090 O   0  0  0  0  0  0  0  0  0  0  0  0
  -24.5920  -31.8710   23.2230 C   0  0  0  0  0  0  0  0  0  0  0  0
  -27.1810  -27.0970   20.2460 C   0  0  0  0  0  0  0  0  0  0  0  0
  -23.3980  -30.4650   21.5910 C   0  0  0  0  0  3  0  0  0  0  0  0
  -24.8450  -28.8740   20.1800 C   0  0  0  0  0  0  0  0  0  0  0  0
  -25.9510  -30.7270   21.4190 C   0  0  0  0  0  2  0  0  0  0  0  0
  -26.0260  -29.3200   20.7860 C   0  0  0  0  0  0  0  0  0  0  0  0
  -27.1880  -28.4510   20.7980 C   0  0  0  0  0  3  0  0  0  0  0  0
  -25.9690  -26.7700   19.5930 C   0  0  0  0  0  3  0  0  0  0  0  0
  -24.8340  -27.6130   19.5620 C   0  0  0  0  0  3  0  0  0  0  0  0
  -23.6220  -29.7740   20.2180 C   0  0  0  0  0  2  0  0  0  0  0  0
  -24.6710  -31.0440   22.1330 N   0  0  0  0  0  0  0  0  0  0  0  0
  -23.5030  -32.1580   23.7450 O   0  0  0  0  0  0  0  0  0  0  0  0
  -22.7170  -29.4670   22.5660 C   0  0  0  0  0  0  0  0  0  0  0  0
  -21.3900  -29.2900   22.4350 N   0  0  0  0  0  0  0  0  0  0  0  0
  -23.3860  -28.8520   23.4000 O   0  0  0  0  0  0  0  0  0  0  0  0
  -20.9050  -29.8410   21.7370 H   0  0  0  0  0  0  0  0  0  0  0  0
  -18.0110  -28.0660   22.9360 C   0  0  0  0  0  0  0  0  0  0  0  0
  -20.5670  -28.3530   23.2110 C   0  0  0  0  0  3  0  0  0  0  0  0
  -20.6830  -26.9180   22.6460 C   0  0  0  0  0  2  0  0  0  0  0  0
  -19.5870  -26.5770   21.6320 C   0  0  0  0  0  2  0  0  0  0  0  0
  -18.2020  -26.7130   22.2670 C   0  0  0  0  0  2  0  0  0  0  0  0
  -19.1210  -28.8420   23.3640 C   0  0  0  0  0  0  0  0  0  0  0  0
  -18.8860  -30.1040   23.9490 C   0  0  0  0  0  3  0  0  0  0  0  0
  -17.5750  -30.5930   24.1130 C   0  0  0  0  0  3  0  0  0  0  0  0
  -16.4790  -29.8150   23.6970 C   0  0  0  0  0  3  0  0  0  0  0  0
  -16.7010  -28.5520   23.1170 C   0  0  0  0  0  3  0  0  0  0  0  0
  -25.8670  -32.5160   23.8510 C   0  0  0  0  0  3  0  0  0  0  0  0
  -25.5510  -33.9130   24.1900 N   0  0  0  0  0  0  0  0  0  0  0  0
  -25.8540  -34.9740   23.4290 C   0  0  0  0  0  0  0  0  0  0  0  0
  -26.5000  -34.8790   22.3820 O   0  0  0  0  0  0  0  0  0  0  0  0
  -24.9820  -34.0610   25.0110 H   0  0  0  0  0  0  0  0  0  0  0  0
  -24.0970  -36.7500   23.1410 C   0  0  0  0  0  1  0  0  0  0  0  0
  -25.3700  -36.3560   23.9070 C   0  0  0  0  0  3  0  0  0  0  0  0
  -27.5220  -37.2670   24.6620 C   0  0  0  0  0  1  0  0  0  0  0  0
  -26.3870  -37.4200   23.7560 N   0  0  0  0  0  0  0  0  0  0  0  0
  -25.9740  -38.3370   23.9080 H   0  0  0  0  0  0  0  0  0  0  0  0
  -26.3820  -31.7460   25.1280 C   0  0  1  0  0  0  0  0  0  0  0  0
  -25.2890  -31.5060   26.1970 C   0  0  0  0  0  1  0  0  0  0  0  0
  -26.9700  -30.3710   24.7380 C   0  0  0  0  0  1  0  0  0  0  0  0
  -27.5370  -32.5400   25.7860 C   0  0  0  0  0  1  0  0  0  0  0  0
  1 47  1  0
  1  3  1  0
  2  1  2  0
  4 17  1  0
  5 10  1  0
  6  7  1  0
  6  5  1  0
  8  7  1  0
  8 22  1  0
  8  9  1  0
 10  4  1  0
 10  9  1  0
 11  4  2  0
 12 14  1  0
 12 13  2  0
 13 16  1  0
 14 17  1  0
 14 15  2  0
 15 16  1  0
 16  3  1  0
 17 18  1  0
 19 20  2  0
 20 39  1  0
 21 20  1  0
 21 24  1  0
 22 23  1  0
 22 19  1  0
 23 21  2  0
 24 25  1  0
 25 26  2  0
 27 30  1  0
 27 26  1  0
 28 27  2  0
 29 28  1  0
 29 24  2  0
 30 31  1  0
 31 32  1  0
 32 33  2  0
 34 33  1  0
 34 38  1  0
 35 34  2  0
 36 31  2  0
 36 35  1  0
 37 36  1  0
 39 40  1  0
 40 43  1  0
 40 42  1  0
 41 39  2  0
 44 45  1  0
 44 19  1  0
 46 44  1  0
 48 47  1  0
 49 60  2  0
 50 48  1  0
 50 55  1  0
 51 59  1  0
 51 61  1  0
 52 58  1  0
 52 54  1  0
 53 59  1  0
 54 55  2  0
 54 53  1  0
 56 50  2  0
 57 56  1  0
 57 52  2  0
 58 51  1  0
 59 49  1  0
 61 63  2  0
 62 61  1  0
 64 62  1  0
 65 74  2  0
 65 70  1  0
 66 62  1  0
 66 70  1  0
 67 66  1  0
 68 69  1  0
 68 67  1  0
 69 65  1  0
 70 71  2  0
 71 72  1  0
 73 72  2  0
 74 73  1  0
 75 49  1  0
 75 76  1  0
 75 85  1  0
 76 79  1  0
 77 81  1  0
 77 76  1  0
 78 77  2  0
 81 80  1  0
 83 81  1  0
 83 84  1  0
 83 82  1  0
 85 88  1  1
 85 86  1  0
 87 85  1  0
M  ISO  4   4 100  17 100  47 101  48 101
M  END
>  <TORSDO>  (74) 
F 18

>  <SCORE>  (74) 
-15.986

>  <name>  (74) 
73

>  <ligand_id>  (74) 
73

>  <original_smiles>  (74) 
[H]c1c([H])c([H])c2c(c1[H])C([H])([H])C([H])([H])C([H])([H])C2([H])N([H])C(=O)C1([H])N(C(=O)C([H])(N([H])C(=O)C([H])(N([H])C([H])([H])[H])C([H])([H])[H])C(C([H])([H])[H])(C([H])([H])[H])C([H])([H])[H])C([H])([H])c2c([H])c(OC([H])([H])C(=O)C([H])([H])n3nc(N([H])C(=O)N4C([H])([H])C([H])([H])C([H])([H])C([H])(n5nc(-c6c([H])c([H])c(Oc7c([H])c([H])c(F)c([H])c7F)c([H])c6[H])c(C(=O)N([H])[H])c5N([H])[H])C4([H])[H])c([H])c3[H])c([H])c([H])c2C1([H])[H]

>  <smiles>  (74) 
[H]c1c([H])c([H])c2c(c1[H])C([H])([H])C([H])([H])C([H])([H])C2([H])N([H])C(=O)C1([H])N(C(=O)C([H])(N([H])C(=O)C([H])(N([H])C([H])([H])[H])C([H])([H])[H])C(C([H])([H])[H])(C([H])([H])[H])C([H])([H])[H])C([H])([H])c2c([H])c(OC([H])([H])C(=O)C([H])([H])n3nc(N([H])C(=O)N4C([H])([H])C([H])([H])C([H])([H])C([H])(n5nc(-c6c([H])c([H])c(Oc7c([H])c([H])c(F)c([H])c7F)c([H])c6[H])c(C(=O)N([H])[H])c5N([H])[H])C4([H])[H])c([H])c3[H])c([H])c([H])c2C1([H])[H]

$$$$
74:0:0
     RDKit          3D

 92100  0  0  1  0  0  0  0  0999 V2000
  -29.0750  -20.5240   21.2430 C   0  0  0  0  0  3  0  0  0  0  0  0
  -29.4090  -19.1080   21.2460 C   0  0  0  0  0  0  0  0  0  0  0  0
  -29.7690  -18.5540   20.0360 C   0  0  0  0  0  0  0  0  0  0  0  0
  -29.1420  -21.1320   20.0050 C   0  0  0  0  0  0  0  0  0  0  0  0
  -29.4060  -18.4170   22.3650 F   0  0  0  0  0  0  0  0  0  0  0  0
  -29.6660  -19.8840   18.8460 S   0  0  0  0  0  0  0  0  0  0  0  0
  -30.7000  -14.7620   19.7550 C   0  0  0  0  0  0  0  0  0  0  0  0
  -30.3210  -12.5110   18.7750 C   0  0  0  0  0  2  0  0  0  0  0  0
  -29.2940  -12.6390   17.6300 C   0  0  0  0  0  2  0  0  0  0  0  0
  -27.8650  -12.4820   18.1810 C   0  0  0  0  0  2  0  0  0  0  0  0
  -27.6110  -13.3470   19.4440 C   0  0  0  0  0  3  0  0  0  0  0  0
  -28.7640  -13.2480   20.4690 C   0  0  0  0  0  2  0  0  0  0  0  0
  -30.0120  -13.5690   19.7680 N   0  0  0  0  0  0  0  0  0  0  0  0
  -31.8590  -14.7550   19.3330 O   0  0  0  0  0  0  0  0  0  0  0  0
  -30.3900  -17.2220   19.5660 C   0  0  0  0  0  0  0  0  0  0  0  0
  -30.0350  -15.9550   20.0240 N   0  0  0  0  0  0  0  0  0  0  0  0
  -31.2480  -17.3510   18.6840 O   0  0  0  0  0  0  0  0  0  0  0  0
  -29.1820  -15.8940   20.5530 H   0  0  0  0  0  0  0  0  0  0  0  0
  -25.3170  -13.9300   20.4300 C   0  0  0  0  0  0  0  0  0  0  0  0
  -24.2760  -13.1540   20.8590 C   0  0  0  0  0  0  0  0  0  0  0  0
  -24.7070  -11.8000   20.7150 C   0  0  0  0  0  0  0  0  0  0  0  0
  -26.3160  -13.0500   20.0480 N   0  0  0  0  0  0  0  0  0  0  0  0
  -25.9620  -11.7590   20.2830 N   0  0  0  0  0  0  0  0  0  0  0  0
  -23.9750  -10.5400   20.9070 C   0  0  0  0  0  0  0  0  0  0  0  0
  -24.4080   -9.5670   21.8360 C   0  0  0  0  0  3  0  0  0  0  0  0
  -23.6750   -8.3740   22.0170 C   0  0  0  0  0  3  0  0  0  0  0  0
  -22.4950   -8.1450   21.2700 C   0  0  0  0  0  0  0  0  0  0  0  0
  -22.0820   -9.1060   20.3310 C   0  0  0  0  0  3  0  0  0  0  0  0
  -22.8140  -10.2900   20.1470 C   0  0  0  0  0  3  0  0  0  0  0  0
  -21.7340   -7.0040   21.3610 O   0  0  0  0  0  0  0  0  0  0  0  0
  -21.5970   -6.3230   22.5450 C   0  0  0  0  0  0  0  0  0  0  0  0
  -21.0550   -6.9330   23.6970 C   0  0  0  0  0  3  0  0  0  0  0  0
  -20.8670   -6.1760   24.8710 C   0  0  0  0  0  3  0  0  0  0  0  0
  -21.2100   -4.8120   24.8920 C   0  0  0  0  0  0  0  0  0  0  0  0
  -21.7450   -4.2020   23.7440 C   0  0  0  0  0  3  0  0  0  0  0  0
  -21.9340   -4.9550   22.5730 C   0  0  0  0  0  0  0  0  0  0  0  0
  -22.4300   -4.3570   21.4630 F   0  0  0  0  0  0  0  0  0  0  0  0
  -21.0220   -4.0830   26.0170 F   0  0  0  0  0  0  0  0  0  0  0  0
  -22.9210  -13.6370   21.2850 C   0  0  0  0  0  0  0  0  0  0  0  0
  -22.2640  -12.9110   22.1820 N   0  0  0  0  0  0  0  0  0  0  0  0
  -22.4570  -14.6940   20.8590 O   0  0  0  0  0  0  0  0  0  0  0  0
  -22.6540  -12.0540   22.5470 H   0  0  0  0  0  0  0  0  0  0  0  0
  -21.3580  -13.2150   22.5080 H   0  0  0  0  0  0  0  0  0  0  0  0
  -25.4910  -15.3060   20.3070 N   0  0  0  0  0  0  0  0  0  0  0  0
  -24.7450  -15.9620   20.5160 H   0  0  0  0  0  0  0  0  0  0  0  0
  -26.3000  -15.7480   19.8920 H   0  0  0  0  0  0  0  0  0  0  0  0
  -28.7700  -22.4560   19.5550 N   0  0  0  0  0  0  0  0  0  0  0  0
  -28.6610  -22.5170   18.5440 H   0  0  0  0  0  0  0  0  0  0  0  0
  -29.1290  -23.7930   20.1610 C   0  0  0  0  0  2  0  0  0  0  0  0
  -27.1200  -24.5990   21.4370 C   0  0  0  0  0  1  0  0  0  0  0  0
  -27.9610  -24.9040   20.1770 C   0  0  0  0  0  3  0  0  0  0  0  0
  -28.2530  -26.3850   20.1260 O   0  0  0  0  0  0  0  0  0  0  0  0
  -24.5020  -31.7980   23.1440 C   0  0  0  0  0  0  0  0  0  0  0  0
  -27.1660  -27.2880   20.0300 C   0  0  0  0  0  0  0  0  0  0  0  0
  -23.3190  -30.4010   21.4900 C   0  0  0  0  0  3  0  0  0  0  0  0
  -24.7920  -28.9030   20.0310 C   0  0  0  0  0  0  0  0  0  0  0  0
  -25.8560  -30.7540   21.3100 C   0  0  0  0  0  2  0  0  0  0  0  0
  -25.9560  -29.3860   20.6410 C   0  0  0  0  0  0  0  0  0  0  0  0
  -27.1470  -28.5900   20.6330 C   0  0  0  0  0  3  0  0  0  0  0  0
  -25.9850  -26.8940   19.3570 C   0  0  0  0  0  3  0  0  0  0  0  0
  -24.8110  -27.6660   19.3760 C   0  0  0  0  0  3  0  0  0  0  0  0
  -23.5410  -29.7550   20.0980 C   0  0  0  0  0  2  0  0  0  0  0  0
  -24.5780  -31.0020   22.0370 N   0  0  0  0  0  0  0  0  0  0  0  0
  -23.4160  -32.0510   23.6830 O   0  0  0  0  0  0  0  0  0  0  0  0
  -22.6760  -29.3580   22.4370 C   0  0  0  0  0  0  0  0  0  0  0  0
  -21.3590  -29.1320   22.2870 N   0  0  0  0  0  0  0  0  0  0  0  0
  -23.3610  -28.7570   23.2690 O   0  0  0  0  0  0  0  0  0  0  0  0
  -20.8640  -29.6720   21.5910 H   0  0  0  0  0  0  0  0  0  0  0  0
  -18.0230  -27.7970   22.7110 C   0  0  0  0  0  0  0  0  0  0  0  0
  -20.5610  -28.1670   23.0440 C   0  0  0  0  0  3  0  0  0  0  0  0
  -20.7370  -26.7360   22.4840 C   0  0  0  0  0  2  0  0  0  0  0  0
  -19.6770  -26.3600   21.4450 C   0  0  0  0  0  2  0  0  0  0  0  0
  -18.2740  -26.4520   22.0520 C   0  0  0  0  0  2  0  0  0  0  0  0
  -19.0970  -28.6100   23.1620 C   0  0  0  0  0  0  0  0  0  0  0  0
  -18.8090  -29.8660   23.7380 C   0  0  0  0  0  3  0  0  0  0  0  0
  -17.4800  -30.3120   23.8660 C   0  0  0  0  0  3  0  0  0  0  0  0
  -16.4210  -29.4970   23.4300 C   0  0  0  0  0  3  0  0  0  0  0  0
  -16.6930  -28.2420   22.8580 C   0  0  0  0  0  3  0  0  0  0  0  0
  -25.7750  -32.4450   23.7700 C   0  0  0  0  0  3  0  0  0  0  0  0
  -26.3040  -31.6710   25.0410 C   0  0  1  0  0  0  0  0  0  0  0  0
  -25.2130  -31.4020   26.1040 C   0  0  0  0  0  1  0  0  0  0  0  0
  -26.9160  -30.3090   24.6390 C   0  0  0  0  0  1  0  0  0  0  0  0
  -27.4380  -32.4810   25.7130 C   0  0  0  0  0  1  0  0  0  0  0  0
  -25.4440  -33.8350   24.1140 N   0  0  0  0  0  0  0  0  0  0  0  0
  -25.7470  -34.9010   23.3600 C   0  0  0  0  0  0  0  0  0  0  0  0
  -26.4060  -34.8170   22.3190 O   0  0  0  0  0  0  0  0  0  0  0  0
  -24.8590  -33.9730   24.9260 H   0  0  0  0  0  0  0  0  0  0  0  0
  -23.9810  -36.6630   23.0420 C   0  0  0  0  0  1  0  0  0  0  0  0
  -25.2400  -36.2770   23.8340 C   0  0  0  0  0  3  0  0  0  0  0  0
  -27.3650  -37.1990   24.6480 C   0  0  0  0  0  1  0  0  0  0  0  0
  -26.2510  -37.3500   23.7150 N   0  0  0  0  0  0  0  0  0  0  0  0
  -25.8290  -38.2610   23.8690 H   0  0  0  0  0  0  0  0  0  0  0  0
  1  2  1  0
  2  5  1  0
  3  2  2  0
  4  1  2  0
  6  4  1  0
  6  3  1  0
  7 13  1  0
  7 16  1  0
  8 13  1  0
  9 10  1  0
  9  8  1  0
 11 10  1  0
 11 22  1  0
 11 12  1  0
 13 12  1  0
 14  7  2  0
 15 16  1  0
 15  3  1  0
 16 18  1  0
 17 15  2  0
 19 20  2  0
 20 39  1  0
 21 20  1  0
 21 24  1  0
 22 23  1  0
 22 19  1  0
 23 21  2  0
 24 25  1  0
 25 26  2  0
 27 30  1  0
 27 26  1  0
 28 27  2  0
 29 28  1  0
 29 24  2  0
 30 31  1  0
 31 36  2  0
 31 32  1  0
 32 33  2  0
 33 34  1  0
 34 38  1  0
 35 34  2  0
 36 35  1  0
 37 36  1  0
 39 40  1  0
 40 43  1  0
 40 42  1  0
 41 39  2  0
 44 19  1  0
 44 45  1  0
 46 44  1  0
 47  4  1  0
 47 49  1  0
 48 47  1  0
 49 51  1  0
 51 50  1  0
 52 51  1  0
 53 64  2  0
 54 52  1  0
 54 59  1  0
 55 63  1  0
 55 65  1  0
 56 62  1  0
 56 58  1  0
 57 63  1  0
 58 57  1  0
 59 58  2  0
 60 61  1  0
 60 54  2  0
 61 56  2  0
 62 55  1  0
 63 53  1  0
 65 67  2  0
 66 65  1  0
 68 66  1  0
 69 78  2  0
 69 74  1  0
 70 66  1  0
 70 74  1  0
 71 70  1  0
 72 73  1  0
 72 71  1  0
 73 69  1  0
 74 75  2  0
 75 76  1  0
 77 76  2  0
 78 77  1  0
 79 53  1  0
 79 84  1  0
 79 80  1  0
 80 83  1  1
 80 81  1  0
 82 80  1  0
 84 87  1  0
 85 89  1  0
 85 84  1  0
 86 85  2  0
 89 88  1  0
 91 89  1  0
 91 92  1  0
 91 90  1  0
M  ISO  4   7 100  16 100  51 101  52 101
M  END
>  <TORSDO>  (75) 
F 19

>  <SCORE>  (75) 
-12.600

>  <name>  (75) 
74

>  <ligand_id>  (75) 
74

>  <original_smiles>  (75) 
[H]c1c([H])c([H])c2c(c1[H])C([H])([H])C([H])([H])C([H])([H])C2([H])N([H])C(=O)C1([H])N(C(=O)C([H])(N([H])C(=O)C([H])(N([H])C([H])([H])[H])C([H])([H])[H])C(C([H])([H])[H])(C([H])([H])[H])C([H])([H])[H])C([H])([H])c2c([H])c(OC([H])(C([H])([H])[H])C([H])([H])N([H])c3sc(C(=O)N([H])C(=O)N4C([H])([H])C([H])([H])C([H])([H])C([H])(n5nc(-c6c([H])c([H])c(Oc7c([H])c([H])c(F)c([H])c7F)c([H])c6[H])c(C(=O)N([H])[H])c5N([H])[H])C4([H])[H])c(F)c3[H])c([H])c([H])c2C1([H])[H]

>  <smiles>  (75) 
[H]c1c([H])c([H])c2c(c1[H])C([H])([H])C([H])([H])C([H])([H])C2([H])N([H])C(=O)C1([H])N(C(=O)C([H])(N([H])C(=O)C([H])(N([H])C([H])([H])[H])C([H])([H])[H])C(C([H])([H])[H])(C([H])([H])[H])C([H])([H])[H])C([H])([H])c2c([H])c(OC([H])(C([H])([H])[H])C([H])([H])N([H])c3sc(C(=O)N([H])C(=O)N4C([H])([H])C([H])([H])C([H])([H])C([H])(n5nc(-c6c([H])c([H])c(Oc7c([H])c([H])c(F)c([H])c7F)c([H])c6[H])c(C(=O)N([H])[H])c5N([H])[H])C4([H])[H])c(F)c3[H])c([H])c([H])c2C1([H])[H]

$$$$
75:0:0
     RDKit          3D

 91 99  0  0  1  0  0  0  0  0999 V2000
  -29.1930  -22.4080   20.5230 C   0  0  0  0  0  0  0  0  0  0  0  0
  -28.9280  -21.1480   20.0080 N   0  0  0  0  0  0  0  0  0  0  0  0
  -29.8450  -22.5210   21.5640 O   0  0  0  0  0  0  0  0  0  0  0  0
  -28.2620  -21.1590   19.2460 H   0  0  0  0  0  0  0  0  0  0  0  0
  -30.6290  -19.4840   20.8910 C   0  0  0  0  0  3  0  0  0  0  0  0
  -30.8720  -18.0520   20.9760 C   0  0  0  0  0  3  0  0  0  0  0  0
  -29.4290  -19.8730   20.3230 C   0  0  0  0  0  0  0  0  0  0  0  0
  -29.8560  -17.2360   20.5150 C   0  0  0  0  0  0  0  0  0  0  0  0
  -28.5800  -18.3480   19.9310 S   0  0  0  0  0  0  0  0  0  0  0  0
  -30.5670  -14.7680   20.3710 C   0  0  0  0  0  0  0  0  0  0  0  0
  -30.4110  -12.4950   19.3410 C   0  0  0  0  0  2  0  0  0  0  0  0
  -29.4600  -12.5680   18.1250 C   0  0  0  0  0  2  0  0  0  0  0  0
  -27.9910  -12.3910   18.5590 C   0  0  0  0  0  2  0  0  0  0  0  0
  -27.6180  -13.2700   19.7810 C   0  0  0  0  0  3  0  0  0  0  0  0
  -28.6810  -13.1630   20.8980 C   0  0  0  0  0  2  0  0  0  0  0  0
  -29.9750  -13.5270   20.3050 N   0  0  0  0  0  0  0  0  0  0  0  0
  -31.7560  -14.9130   20.0720 O   0  0  0  0  0  0  0  0  0  0  0  0
  -29.7050  -15.8400   20.5340 N   0  0  0  0  0  0  0  0  0  0  0  0
  -28.7460  -15.5350   20.6000 H   0  0  0  0  0  0  0  0  0  0  0  0
  -25.2280  -13.8570   20.5110 C   0  0  0  0  0  0  0  0  0  0  0  0
  -24.1650  -13.0800   20.8850 C   0  0  0  0  0  0  0  0  0  0  0  0
  -24.6340  -11.7310   20.8550 C   0  0  0  0  0  0  0  0  0  0  0  0
  -26.2750  -12.9800   20.2730 N   0  0  0  0  0  0  0  0  0  0  0  0
  -25.9230  -11.6970   20.5440 N   0  0  0  0  0  0  0  0  0  0  0  0
  -23.9120  -10.4660   21.0450 C   0  0  0  0  0  0  0  0  0  0  0  0
  -24.3520   -9.4970   21.9720 C   0  0  0  0  0  3  0  0  0  0  0  0
  -23.6300   -8.2970   22.1510 C   0  0  0  0  0  3  0  0  0  0  0  0
  -22.4540   -8.0580   21.4010 C   0  0  0  0  0  0  0  0  0  0  0  0
  -22.0340   -9.0160   20.4620 C   0  0  0  0  0  3  0  0  0  0  0  0
  -22.7570  -10.2070   20.2820 C   0  0  0  0  0  3  0  0  0  0  0  0
  -21.7010   -6.9120   21.4910 O   0  0  0  0  0  0  0  0  0  0  0  0
  -21.6640   -6.1630   22.6400 C   0  0  0  0  0  0  0  0  0  0  0  0
  -21.2480   -6.7110   23.8730 C   0  0  0  0  0  3  0  0  0  0  0  0
  -21.1580   -5.8880   25.0140 C   0  0  0  0  0  3  0  0  0  0  0  0
  -21.4750   -4.5190   24.9230 C   0  0  0  0  0  0  0  0  0  0  0  0
  -21.8840   -3.9710   23.6930 C   0  0  0  0  0  3  0  0  0  0  0  0
  -21.9760   -4.7910   22.5550 C   0  0  0  0  0  0  0  0  0  0  0  0
  -22.3500   -4.2540   21.3690 F   0  0  0  0  0  0  0  0  0  0  0  0
  -21.3800   -3.7270   26.0150 F   0  0  0  0  0  0  0  0  0  0  0  0
  -22.7670  -13.5530   21.1560 C   0  0  0  0  0  0  0  0  0  0  0  0
  -22.0390  -12.8530   22.0190 N   0  0  0  0  0  0  0  0  0  0  0  0
  -22.3280  -14.5780   20.6370 O   0  0  0  0  0  0  0  0  0  0  0  0
  -22.4060  -12.0230   22.4620 H   0  0  0  0  0  0  0  0  0  0  0  0
  -21.0990  -13.1530   22.2420 H   0  0  0  0  0  0  0  0  0  0  0  0
  -25.3850  -15.2280   20.3310 N   0  0  0  0  0  0  0  0  0  0  0  0
  -24.6090  -15.8730   20.4330 H   0  0  0  0  0  0  0  0  0  0  0  0
  -26.2110  -15.6690   19.9460 H   0  0  0  0  0  0  0  0  0  0  0  0
  -27.7500  -23.4730   18.6250 C   0  0  0  0  0  1  0  0  0  0  0  0
  -28.7100  -23.7630   19.7940 C   0  0  0  0  0  3  0  0  0  0  0  0
  -28.1840  -25.0260   20.6650 C   0  0  0  0  0  2  0  0  0  0  0  0
  -28.3420  -26.4460   20.1990 O   0  0  0  0  0  0  0  0  0  0  0  0
  -24.6060  -31.8860   23.2370 C   0  0  0  0  0  0  0  0  0  0  0  0
  -27.2250  -27.3050   20.1990 C   0  0  0  0  0  0  0  0  0  0  0  0
  -23.4040  -30.4850   21.5950 C   0  0  0  0  0  3  0  0  0  0  0  0
  -24.8580  -28.9250   20.1770 C   0  0  0  0  0  0  0  0  0  0  0  0
  -25.9430  -30.8010   21.4130 C   0  0  0  0  0  2  0  0  0  0  0  0
  -26.0270  -29.4160   20.7740 C   0  0  0  0  0  0  0  0  0  0  0  0
  -27.2150  -28.6190   20.7720 C   0  0  0  0  0  3  0  0  0  0  0  0
  -26.0340  -26.8690   19.5820 C   0  0  0  0  0  3  0  0  0  0  0  0
  -24.8650  -27.6570   19.5720 C   0  0  0  0  0  3  0  0  0  0  0  0
  -23.6220  -29.8020   20.2180 C   0  0  0  0  0  2  0  0  0  0  0  0
  -24.6710  -31.0740   22.1400 N   0  0  0  0  0  0  0  0  0  0  0  0
  -23.5220  -32.1630   23.7710 O   0  0  0  0  0  0  0  0  0  0  0  0
  -22.7400  -29.4710   22.5600 C   0  0  0  0  0  0  0  0  0  0  0  0
  -21.4130  -29.2960   22.4350 N   0  0  0  0  0  0  0  0  0  0  0  0
  -23.4180  -28.8460   23.3780 O   0  0  0  0  0  0  0  0  0  0  0  0
  -20.9240  -29.8530   21.7490 H   0  0  0  0  0  0  0  0  0  0  0  0
  -18.0380  -28.1010   22.9450 C   0  0  0  0  0  0  0  0  0  0  0  0
  -20.5960  -28.3590   23.2080 C   0  0  0  0  0  3  0  0  0  0  0  0
  -20.6940  -26.9270   22.6310 C   0  0  0  0  0  2  0  0  0  0  0  0
  -19.5900  -26.6070   21.6190 C   0  0  0  0  0  2  0  0  0  0  0  0
  -18.2110  -26.7520   22.2680 C   0  0  0  0  0  2  0  0  0  0  0  0
  -19.1580  -28.8620   23.3730 C   0  0  0  0  0  0  0  0  0  0  0  0
  -18.9440  -30.1230   23.9680 C   0  0  0  0  0  3  0  0  0  0  0  0
  -17.6410  -30.6260   24.1400 C   0  0  0  0  0  3  0  0  0  0  0  0
  -16.5330  -29.8640   23.7280 C   0  0  0  0  0  3  0  0  0  0  0  0
  -16.7330  -28.6040   23.1370 C   0  0  0  0  0  3  0  0  0  0  0  0
  -25.8870  -32.5220   23.8580 C   0  0  0  0  0  3  0  0  0  0  0  0
  -26.4020  -31.7540   25.1380 C   0  0  1  0  0  0  0  0  0  0  0  0
  -25.3100  -31.5230   26.2070 C   0  0  0  0  0  1  0  0  0  0  0  0
  -26.9840  -30.3740   24.7530 C   0  0  0  0  0  1  0  0  0  0  0  0
  -27.5510  -32.5500   25.8010 C   0  0  0  0  0  1  0  0  0  0  0  0
  -25.5750  -33.9210   24.1860 N   0  0  0  0  0  0  0  0  0  0  0  0
  -25.9060  -34.9740   23.4260 C   0  0  0  0  0  0  0  0  0  0  0  0
  -26.5770  -34.8700   22.3940 O   0  0  0  0  0  0  0  0  0  0  0  0
  -24.9800  -34.0750   24.9860 H   0  0  0  0  0  0  0  0  0  0  0  0
  -24.1790  -36.7700   23.0680 C   0  0  0  0  0  1  0  0  0  0  0  0
  -25.4180  -36.3630   23.8820 C   0  0  0  0  0  3  0  0  0  0  0  0
  -27.5510  -37.2500   24.7150 C   0  0  0  0  0  1  0  0  0  0  0  0
  -26.4510  -37.4160   23.7700 N   0  0  0  0  0  0  0  0  0  0  0  0
  -26.0440  -38.3360   23.9170 H   0  0  0  0  0  0  0  0  0  0  0  0
  1  3  2  0
  2  7  1  0
  2  1  1  0
  4  2  1  0
  5  6  1  0
  7  5  2  0
  8 18  1  0
  8  6  2  0
  9  7  1  0
  9  8  1  0
 10 18  1  0
 11 16  1  0
 12 13  1  0
 12 11  1  0
 14 13  1  0
 14 23  1  0
 14 15  1  0
 16 10  1  0
 16 15  1  0
 17 10  2  0
 18 19  1  0
 20 21  2  0
 21 40  1  0
 22 21  1  0
 22 25  1  0
 23 20  1  0
 23 24  1  0
 24 22  2  0
 25 26  1  0
 26 27  2  0
 28 31  1  0
 28 27  1  0
 29 28  2  0
 30 29  1  0
 30 25  2  0
 31 32  1  0
 32 33  1  0
 33 34  2  0
 35 34  1  0
 35 39  1  0
 36 35  2  0
 37 32  2  0
 37 36  1  0
 38 37  1  0
 40 41  1  0
 41 44  1  0
 41 43  1  0
 42 40  2  0
 45 46  1  0
 45 20  1  0
 47 45  1  0
 49 48  1  0
 49  1  1  0
 49 50  1  0
 51 50  1  0
 52 63  2  0
 53 51  1  0
 53 58  1  0
 54 62  1  0
 54 64  1  0
 55 61  1  0
 55 57  1  0
 56 62  1  0
 57 56  1  0
 58 57  2  0
 59 53  2  0
 60 59  1  0
 60 55  2  0
 61 54  1  0
 62 52  1  0
 64 66  2  0
 65 64  1  0
 67 65  1  0
 68 77  2  0
 68 73  1  0
 69 65  1  0
 69 73  1  0
 70 69  1  0
 71 72  1  0
 71 70  1  0
 72 68  1  0
 73 74  2  0
 74 75  1  0
 76 75  2  0
 77 76  1  0
 78 52  1  0
 78 83  1  0
 78 79  1  0
 79 82  1  1
 79 80  1  0
 81 79  1  0
 83 86  1  0
 84 88  1  0
 84 83  1  0
 85 84  2  0
 88 87  1  0
 90 88  1  0
 90 91  1  0
 90 89  1  0
M  ISO  4  10 100  18 100  50 101  51 101
M  END
>  <TORSDO>  (76) 
F 19

>  <SCORE>  (76) 
-14.392

>  <name>  (76) 
75

>  <ligand_id>  (76) 
75

>  <original_smiles>  (76) 
[H]c1c(N([H])C(=O)N2C([H])([H])C([H])([H])C([H])([H])C([H])(n3nc(-c4c([H])c([H])c(Oc5c([H])c([H])c(F)c([H])c5F)c([H])c4[H])c(C(=O)N([H])[H])c3N([H])[H])C2([H])[H])sc(N([H])C(=O)C([H])(C([H])([H])[H])C([H])([H])Oc2c([H])c([H])c3c(c2[H])C([H])([H])N(C(=O)C([H])(N([H])C(=O)C([H])(N([H])C([H])([H])[H])C([H])([H])[H])C(C([H])([H])[H])(C([H])([H])[H])C([H])([H])[H])C([H])(C(=O)N([H])C2([H])c4c([H])c([H])c([H])c([H])c4C([H])([H])C([H])([H])C2([H])[H])C3([H])[H])c1[H]

>  <smiles>  (76) 
[H]c1c(N([H])C(=O)N2C([H])([H])C([H])([H])C([H])([H])C([H])(n3nc(-c4c([H])c([H])c(Oc5c([H])c([H])c(F)c([H])c5F)c([H])c4[H])c(C(=O)N([H])[H])c3N([H])[H])C2([H])[H])sc(N([H])C(=O)C([H])(C([H])([H])[H])C([H])([H])Oc2c([H])c([H])c3c(c2[H])C([H])([H])N(C(=O)C([H])(N([H])C(=O)C([H])(N([H])C([H])([H])[H])C([H])([H])[H])C(C([H])([H])[H])(C([H])([H])[H])C([H])([H])[H])C([H])(C(=O)N([H])C2([H])c4c([H])c([H])c([H])c([H])c4C([H])([H])C([H])([H])C2([H])[H])C3([H])[H])c1[H]

$$$$
76:0:0
     RDKit          3D

 98106  0  0  1  0  0  0  0  0999 V2000
  -28.7010  -20.3450   19.7410 C   0  0  0  0  0  0  0  0  0  0  0  0
  -28.8790  -21.6380   20.1310 N   0  0  0  0  0  0  0  0  0  0  0  0
  -27.7150  -20.0640   18.8700 N   0  0  0  0  0  4  0  0  0  0  0  0
  -29.6590  -21.8270   20.7490 H   0  0  0  0  0  0  0  0  0  0  0  0
  -27.6100  -19.1230   18.5210 H   0  0  0  0  0  0  0  0  0  0  0  0
  -27.0940  -20.7600   18.4920 H   0  0  0  0  0  0  0  0  0  0  0  0
  -29.0560  -17.8820   20.4000 C   0  0  0  0  0  3  0  0  0  0  0  0
  -29.5650  -19.2180   20.1990 C   0  0  0  0  0  0  0  0  0  0  0  0
  -30.0220  -16.9320   20.6820 C   0  0  0  0  0  0  0  0  0  0  0  0
  -30.9220  -19.3080   20.4100 C   0  0  0  0  0  0  0  0  0  0  0  0
  -31.5830  -17.7360   20.8170 S   0  0  0  0  0  0  0  0  0  0  0  0
  -30.6110  -14.5420   20.4780 C   0  0  0  0  0  0  0  0  0  0  0  0
  -30.3570  -12.3560   19.3570 C   0  0  0  0  0  2  0  0  0  0  0  0
  -29.4190  -12.5490   18.1460 C   0  0  0  0  0  2  0  0  0  0  0  0
  -27.9420  -12.4050   18.5650 C   0  0  0  0  0  2  0  0  0  0  0  0
  -27.5940  -13.2410   19.8270 C   0  0  0  0  0  3  0  0  0  0  0  0
  -28.6440  -13.0290   20.9400 C   0  0  0  0  0  2  0  0  0  0  0  0
  -29.9670  -13.3440   20.3760 N   0  0  0  0  0  0  0  0  0  0  0  0
  -31.7680  -14.6990   20.0780 O   0  0  0  0  0  0  0  0  0  0  0  0
  -29.8210  -15.5830   20.8560 N   0  0  0  0  0  0  0  0  0  0  0  0
  -28.8860  -15.3050   21.1090 H   0  0  0  0  0  0  0  0  0  0  0  0
  -25.1950  -13.8500   20.5260 C   0  0  0  0  0  0  0  0  0  0  0  0
  -24.1240  -13.0790   20.8900 C   0  0  0  0  0  0  0  0  0  0  0  0
  -24.5820  -11.7270   20.8600 C   0  0  0  0  0  0  0  0  0  0  0  0
  -26.2380  -12.9670   20.2990 N   0  0  0  0  0  0  0  0  0  0  0  0
  -25.8730  -11.6850   20.5570 N   0  0  0  0  0  0  0  0  0  0  0  0
  -23.8530  -10.4660   21.0440 C   0  0  0  0  0  0  0  0  0  0  0  0
  -24.2780   -9.4980   21.9800 C   0  0  0  0  0  3  0  0  0  0  0  0
  -23.5510   -8.3010   22.1510 C   0  0  0  0  0  3  0  0  0  0  0  0
  -22.3830   -8.0640   21.3880 C   0  0  0  0  0  0  0  0  0  0  0  0
  -21.9770   -9.0210   20.4420 C   0  0  0  0  0  3  0  0  0  0  0  0
  -22.7040  -10.2100   20.2680 C   0  0  0  0  0  3  0  0  0  0  0  0
  -21.6280   -6.9200   21.4710 O   0  0  0  0  0  0  0  0  0  0  0  0
  -21.5700   -6.1760   22.6220 C   0  0  0  0  0  0  0  0  0  0  0  0
  -21.1210   -6.7250   23.8420 C   0  0  0  0  0  3  0  0  0  0  0  0
  -21.0130   -5.9070   24.9840 C   0  0  0  0  0  3  0  0  0  0  0  0
  -21.3420   -4.5400   24.9060 C   0  0  0  0  0  0  0  0  0  0  0  0
  -21.7830   -3.9900   23.6910 C   0  0  0  0  0  3  0  0  0  0  0  0
  -21.8940   -4.8060   22.5500 C   0  0  0  0  0  0  0  0  0  0  0  0
  -22.3000   -4.2660   21.3760 F   0  0  0  0  0  0  0  0  0  0  0  0
  -21.2300   -3.7520   26.0010 F   0  0  0  0  0  0  0  0  0  0  0  0
  -22.7250  -13.5600   21.1570 C   0  0  0  0  0  0  0  0  0  0  0  0
  -21.9910  -12.8610   22.0160 N   0  0  0  0  0  0  0  0  0  0  0  0
  -22.2940  -14.5900   20.6390 O   0  0  0  0  0  0  0  0  0  0  0  0
  -22.3520  -12.0290   22.4580 H   0  0  0  0  0  0  0  0  0  0  0  0
  -21.0520  -13.1640   22.2360 H   0  0  0  0  0  0  0  0  0  0  0  0
  -25.3620  -15.2190   20.3470 N   0  0  0  0  0  0  0  0  0  0  0  0
  -24.5890  -15.8690   20.4390 H   0  0  0  0  0  0  0  0  0  0  0  0
  -26.2000  -15.6500   19.9800 H   0  0  0  0  0  0  0  0  0  0  0  0
  -31.7820  -20.3990   20.3050 N   0  0  0  0  0  0  0  0  0  0  0  0
  -31.6800  -21.0200   19.5070 H   0  0  0  0  0  0  0  0  0  0  0  0
  -32.7690  -20.2010   20.4470 H   0  0  0  0  0  0  0  0  0  0  0  0
  -28.1190  -22.8300   19.6430 C   0  0  0  0  0  2  0  0  0  0  0  0
  -28.4360  -24.1370   20.4000 C   0  0  0  0  0  0  0  0  0  0  0  0
  -28.5650  -24.1620   21.6620 N   0  0  0  0  0  0  0  0  0  0  0  0
  -28.4120  -23.2490   22.0780 H   0  0  0  0  0  0  0  0  0  0  0  0
  -28.5820  -25.4170   19.5360 C   0  0  0  0  0  2  0  0  0  0  0  0
  -28.4140  -26.6840   20.2310 O   0  0  0  0  0  0  0  0  0  0  0  0
  -24.5670  -31.8960   23.2350 C   0  0  0  0  0  0  0  0  0  0  0  0
  -27.2230  -27.3990   20.1930 C   0  0  0  0  0  0  0  0  0  0  0  0
  -23.3680  -30.4850   21.5970 C   0  0  0  0  0  3  0  0  0  0  0  0
  -24.8270  -28.9330   20.1880 C   0  0  0  0  0  0  0  0  0  0  0  0
  -25.8990  -30.8300   21.4120 C   0  0  0  0  0  2  0  0  0  0  0  0
  -25.9840  -29.4510   20.7790 C   0  0  0  0  0  0  0  0  0  0  0  0
  -27.1810  -28.6920   20.7790 C   0  0  0  0  0  3  0  0  0  0  0  0
  -26.0370  -26.8980   19.6070 C   0  0  0  0  0  3  0  0  0  0  0  0
  -24.8500  -27.6560   19.6020 C   0  0  0  0  0  3  0  0  0  0  0  0
  -23.5850  -29.7980   20.2220 C   0  0  0  0  0  2  0  0  0  0  0  0
  -24.6300  -31.0870   22.1390 N   0  0  0  0  0  0  0  0  0  0  0  0
  -23.4830  -32.1720   23.7670 O   0  0  0  0  0  0  0  0  0  0  0  0
  -22.7120  -29.4710   22.5610 C   0  0  0  0  0  0  0  0  0  0  0  0
  -21.3870  -29.2920   22.4330 N   0  0  0  0  0  0  0  0  0  0  0  0
  -23.3920  -28.8470   23.3810 O   0  0  0  0  0  0  0  0  0  0  0  0
  -20.9000  -29.8470   21.7450 H   0  0  0  0  0  0  0  0  0  0  0  0
  -18.0040  -28.1270   22.9460 C   0  0  0  0  0  0  0  0  0  0  0  0
  -20.5650  -28.3600   23.2060 C   0  0  0  0  0  3  0  0  0  0  0  0
  -20.6520  -26.9290   22.6260 C   0  0  0  0  0  2  0  0  0  0  0  0
  -19.5420  -26.6190   21.6170 C   0  0  0  0  0  2  0  0  0  0  0  0
  -18.1650  -26.7760   22.2680 C   0  0  0  0  0  2  0  0  0  0  0  0
  -19.1320  -28.8770   23.3730 C   0  0  0  0  0  0  0  0  0  0  0  0
  -18.9290  -30.1420   23.9660 C   0  0  0  0  0  3  0  0  0  0  0  0
  -17.6300  -30.6560   24.1390 C   0  0  0  0  0  3  0  0  0  0  0  0
  -16.5170  -29.9020   23.7290 C   0  0  0  0  0  3  0  0  0  0  0  0
  -16.7040  -28.6400   23.1380 C   0  0  0  0  0  3  0  0  0  0  0  0
  -25.8500  -32.5320   23.8570 C   0  0  0  0  0  3  0  0  0  0  0  0
  -25.5400  -33.9330   24.1710 N   0  0  0  0  0  0  0  0  0  0  0  0
  -25.8880  -34.9790   23.4100 C   0  0  0  0  0  0  0  0  0  0  0  0
  -26.5730  -34.8660   22.3900 O   0  0  0  0  0  0  0  0  0  0  0  0
  -24.9320  -34.0940   24.9600 H   0  0  0  0  0  0  0  0  0  0  0  0
  -24.1780  -36.7800   23.0080 C   0  0  0  0  0  1  0  0  0  0  0  0
  -25.3980  -36.3720   23.8490 C   0  0  0  0  0  3  0  0  0  0  0  0
  -27.5180  -37.2490   24.7260 C   0  0  0  0  0  1  0  0  0  0  0  0
  -26.4380  -37.4190   23.7560 N   0  0  0  0  0  0  0  0  0  0  0  0
  -26.0340  -38.3420   23.8890 H   0  0  0  0  0  0  0  0  0  0  0  0
  -26.3600  -31.7710   25.1430 C   0  0  1  0  0  0  0  0  0  0  0  0
  -25.2620  -31.5420   26.2070 C   0  0  0  0  0  1  0  0  0  0  0  0
  -26.9450  -30.3900   24.7640 C   0  0  0  0  0  1  0  0  0  0  0  0
  -27.5060  -32.5710   25.8040 C   0  0  0  0  0  1  0  0  0  0  0  0
  1  2  1  0
  1  8  1  0
  2  4  1  0
  3  1  2  0
  5  3  1  0
  6  3  1  0
  7  9  2  0
  8  7  1  0
  8 10  2  0
  9 11  1  0
  9 20  1  0
 10 11  1  0
 12 20  1  0
 13 18  1  0
 14 15  1  0
 14 13  1  0
 16 15  1  0
 16 25  1  0
 16 17  1  0
 18 12  1  0
 18 17  1  0
 19 12  2  0
 20 21  1  0
 22 23  2  0
 23 42  1  0
 24 23  1  0
 24 27  1  0
 25 22  1  0
 25 26  1  0
 26 24  2  0
 27 28  1  0
 28 29  2  0
 30 33  1  0
 30 29  1  0
 31 30  2  0
 32 31  1  0
 32 27  2  0
 33 34  1  0
 34 35  1  0
 35 36  2  0
 37 36  1  0
 37 41  1  0
 38 37  2  0
 39 34  2  0
 39 38  1  0
 40 39  1  0
 42 43  1  0
 43 46  1  0
 43 45  1  0
 44 42  2  0
 47 48  1  0
 47 22  1  0
 49 47  1  0
 50 10  1  0
 50 52  1  0
 51 50  1  0
 53  2  1  0
 53 54  1  0
 54 55  2  0
 55 56  1  0
 57 58  1  0
 57 54  1  0
 59 70  2  0
 60 58  1  0
 60 65  1  0
 61 69  1  0
 61 71  1  0
 62 68  1  0
 62 64  1  0
 63 69  1  0
 64 65  2  0
 64 63  1  0
 66 60  2  0
 67 66  1  0
 67 62  2  0
 68 61  1  0
 69 59  1  0
 71 73  2  0
 72 71  1  0
 74 72  1  0
 75 84  2  0
 75 80  1  0
 76 72  1  0
 76 80  1  0
 77 76  1  0
 78 79  1  0
 78 77  1  0
 79 75  1  0
 80 81  2  0
 81 82  1  0
 83 82  2  0
 84 83  1  0
 85 59  1  0
 85 86  1  0
 85 95  1  0
 86 89  1  0
 87 91  1  0
 87 86  1  0
 88 87  2  0
 91 90  1  0
 93 91  1  0
 93 94  1  0
 93 92  1  0
 95 98  1  1
 95 96  1  0
 97 95  1  0
M  ISO  4  12 100  20 100  57 101  58 101
M  END
>  <TORSDO>  (77) 
F 21

>  <SCORE>  (77) 
-13.942

>  <name>  (77) 
76

>  <ligand_id>  (77) 
76

>  <original_smiles>  (77) 
[H]N=C(C([H])([H])Oc1c([H])c([H])c2c(c1[H])C([H])([H])N(C(=O)C([H])(N([H])C(=O)C([H])(N([H])C([H])([H])[H])C([H])([H])[H])C(C([H])([H])[H])(C([H])([H])[H])C([H])([H])[H])C([H])(C(=O)N([H])C1([H])c3c([H])c([H])c([H])c([H])c3C([H])([H])C([H])([H])C1([H])[H])C2([H])[H])C([H])([H])N([H])C(c1c(N([H])[H])sc(N([H])C(=O)N2C([H])([H])C([H])([H])C([H])([H])C([H])(n3nc(-c4c([H])c([H])c(Oc5c([H])c([H])c(F)c([H])c5F)c([H])c4[H])c(C(=O)N([H])[H])c3N([H])[H])C2([H])[H])c1[H])=[N+]([H])[H]

>  <smiles>  (77) 
[H]N=C(C([H])([H])Oc1c([H])c([H])c2c(c1[H])C([H])([H])N(C(=O)C([H])(N([H])C(=O)C([H])(N([H])C([H])([H])[H])C([H])([H])[H])C(C([H])([H])[H])(C([H])([H])[H])C([H])([H])[H])C([H])(C(=O)N([H])C1([H])c3c([H])c([H])c([H])c([H])c3C([H])([H])C([H])([H])C1([H])[H])C2([H])[H])C([H])([H])N([H])C(c1c(N([H])[H])sc(N([H])C(=O)N2C([H])([H])C([H])([H])C([H])([H])C([H])(n3nc(-c4c([H])c([H])c(Oc5c([H])c([H])c(F)c([H])c5F)c([H])c4[H])c(C(=O)N([H])[H])c3N([H])[H])C2([H])[H])c1[H])=[N+]([H])[H]

$$$$
77:0:0
     RDKit          3D

 99108  0  0  1  0  0  0  0  0999 V2000
  -29.1520  -21.7480   20.3230 C   0  0  0  0  0  0  0  0  0  0  0  0
  -30.1430  -20.8240   20.2180 N   0  0  0  0  0  0  0  0  0  0  0  0
  -28.1570  -21.5410   21.0220 O   0  0  0  0  0  0  0  0  0  0  0  0
  -30.9610  -21.0920   19.6850 H   0  0  0  0  0  0  0  0  0  0  0  0
  -27.0740  -23.5420   18.7720 C   0  0  0  0  0  2  0  0  0  0  0  0
  -27.8850  -23.0900   17.5540 C   0  0  0  0  0  2  0  0  0  0  0  0
  -29.2840  -23.0850   19.5070 C   0  0  0  0  0  3  0  0  0  0  0  0
  -28.1390  -24.1620   19.6990 C   0  0  0  0  0  3  0  0  0  0  0  0
  -30.3500  -23.2570   17.2500 C   0  0  0  0  0  1  0  0  0  0  0  0
  -29.2310  -22.7280   18.0650 N   0  0  2  0  0  4  0  0  0  0  0  0
  -29.2960  -21.7200   18.0220 H   0  0  0  0  0  0  0  0  0  0  0  0
  -28.5110  -25.6360   19.2370 C   0  0  0  0  0  2  0  0  0  0  0  0
  -28.3100  -26.7660   20.1280 O   0  0  0  0  0  0  0  0  0  0  0  0
  -24.5310  -31.9780   23.2480 C   0  0  0  0  0  0  0  0  0  0  0  0
  -27.1420  -27.5240   20.1010 C   0  0  0  0  0  0  0  0  0  0  0  0
  -23.3080  -30.5850   21.6120 C   0  0  0  0  0  3  0  0  0  0  0  0
  -24.7480  -29.0620   20.1530 C   0  0  0  0  0  0  0  0  0  0  0  0
  -25.8350  -30.9410   21.3860 C   0  0  0  0  0  2  0  0  0  0  0  0
  -25.9150  -29.5710   20.7360 C   0  0  0  0  0  0  0  0  0  0  0  0
  -27.1100  -28.8050   20.7150 C   0  0  0  0  0  3  0  0  0  0  0  0
  -25.9520  -27.0480   19.5140 C   0  0  0  0  0  3  0  0  0  0  0  0
  -24.7630  -27.8000   19.5400 C   0  0  0  0  0  3  0  0  0  0  0  0
  -23.5030  -29.9200   20.2250 C   0  0  0  0  0  2  0  0  0  0  0  0
  -24.5770  -31.1840   22.1400 N   0  0  0  0  0  0  0  0  0  0  0  0
  -23.4550  -32.2430   23.8040 O   0  0  0  0  0  0  0  0  0  0  0  0
  -22.6730  -29.5540   22.5740 C   0  0  0  0  0  0  0  0  0  0  0  0
  -21.3510  -29.3500   22.4490 N   0  0  0  0  0  0  0  0  0  0  0  0
  -23.3660  -28.9400   23.3880 O   0  0  0  0  0  0  0  0  0  0  0  0
  -20.8490  -29.8990   21.7630 H   0  0  0  0  0  0  0  0  0  0  0  0
  -17.9960  -28.1000   22.9440 C   0  0  0  0  0  0  0  0  0  0  0  0
  -20.5480  -28.4010   23.2200 C   0  0  0  0  0  3  0  0  0  0  0  0
  -20.6760  -26.9700   22.6470 C   0  0  0  0  0  2  0  0  0  0  0  0
  -19.5810  -26.6290   21.6320 C   0  0  0  0  0  2  0  0  0  0  0  0
  -18.1960  -26.7520   22.2730 C   0  0  0  0  0  2  0  0  0  0  0  0
  -19.1010  -28.8810   23.3750 C   0  0  0  0  0  0  0  0  0  0  0  0
  -18.8600  -30.1420   23.9610 C   0  0  0  0  0  3  0  0  0  0  0  0
  -17.5480  -30.6230   24.1220 C   0  0  0  0  0  3  0  0  0  0  0  0
  -16.4570  -29.8370   23.7100 C   0  0  0  0  0  3  0  0  0  0  0  0
  -16.6820  -28.5780   23.1260 C   0  0  0  0  0  3  0  0  0  0  0  0
  -25.8220  -32.6130   23.8530 C   0  0  0  0  0  3  0  0  0  0  0  0
  -26.3500  -31.8480   25.1290 C   0  0  1  0  0  0  0  0  0  0  0  0
  -25.2660  -31.6110   26.2070 C   0  0  0  0  0  1  0  0  0  0  0  0
  -26.9330  -30.4720   24.7370 C   0  0  0  0  0  1  0  0  0  0  0  0
  -27.5020  -32.6490   25.7810 C   0  0  0  0  0  1  0  0  0  0  0  0
  -25.5190  -34.0130   24.1800 N   0  0  0  0  0  0  0  0  0  0  0  0
  -25.8560  -35.0610   23.4170 C   0  0  0  0  0  0  0  0  0  0  0  0
  -26.5280  -34.9510   22.3870 O   0  0  0  0  0  0  0  0  0  0  0  0
  -24.9240  -34.1700   24.9800 H   0  0  0  0  0  0  0  0  0  0  0  0
  -24.1580  -36.8720   23.0180 C   0  0  0  0  0  1  0  0  0  0  0  0
  -25.3720  -36.4530   23.8650 C   0  0  0  0  0  3  0  0  0  0  0  0
  -27.4900  -37.3130   24.7600 C   0  0  0  0  0  1  0  0  0  0  0  0
  -26.4180  -37.4960   23.7840 N   0  0  0  0  0  0  0  0  0  0  0  0
  -26.0170  -38.4210   23.9200 H   0  0  0  0  0  0  0  0  0  0  0  0
  -30.7060  -17.6950   22.1170 C   0  0  0  0  0  3  0  0  0  0  0  0
  -30.7360  -19.1250   21.9620 C   0  0  0  0  0  0  0  0  0  0  0  0
  -30.1600  -16.9940   21.0720 C   0  0  0  0  0  0  0  0  0  0  0  0
  -30.1830  -19.5610   20.7620 C   0  0  0  0  0  0  0  0  0  0  0  0
  -29.6360  -18.1460   19.8500 S   0  0  0  0  0  0  0  0  0  0  0  0
  -30.6340  -14.6870   20.3510 C   0  0  0  0  0  0  0  0  0  0  0  0
  -30.3740  -12.5270   19.1580 C   0  0  0  0  0  2  0  0  0  0  0  0
  -29.3880  -12.7290   17.9870 C   0  0  0  0  0  2  0  0  0  0  0  0
  -27.9290  -12.5510   18.4530 C   0  0  0  0  0  2  0  0  0  0  0  0
  -27.6150  -13.3510   19.7460 C   0  0  0  0  0  3  0  0  0  0  0  0
  -28.7070  -13.1150   20.8130 C   0  0  0  0  0  2  0  0  0  0  0  0
  -30.0060  -13.4800   20.2200 N   0  0  0  0  0  0  0  0  0  0  0  0
  -31.7290  -14.9220   19.8300 O   0  0  0  0  0  0  0  0  0  0  0  0
  -29.9310  -15.6420   21.0100 N   0  0  0  0  0  0  0  0  0  0  0  0
  -29.0650  -15.3200   21.4180 H   0  0  0  0  0  0  0  0  0  0  0  0
  -25.2340  -13.9140   20.5420 C   0  0  0  0  0  0  0  0  0  0  0  0
  -24.1850  -13.1250   20.9270 C   0  0  0  0  0  0  0  0  0  0  0  0
  -24.6590  -11.7780   20.8540 C   0  0  0  0  0  0  0  0  0  0  0  0
  -26.2800  -13.0500   20.2580 N   0  0  0  0  0  0  0  0  0  0  0  0
  -25.9380  -11.7580   20.5010 N   0  0  0  0  0  0  0  0  0  0  0  0
  -23.9510  -10.5050   21.0460 C   0  0  0  0  0  0  0  0  0  0  0  0
  -24.4060   -9.5360   21.9660 C   0  0  0  0  0  3  0  0  0  0  0  0
  -23.6970   -8.3290   22.1430 C   0  0  0  0  0  3  0  0  0  0  0  0
  -22.5190   -8.0810   21.3990 C   0  0  0  0  0  0  0  0  0  0  0  0
  -22.0840   -9.0390   20.4660 C   0  0  0  0  0  3  0  0  0  0  0  0
  -22.7940  -10.2370   20.2870 C   0  0  0  0  0  3  0  0  0  0  0  0
  -21.7800   -6.9270   21.4850 O   0  0  0  0  0  0  0  0  0  0  0  0
  -21.7310   -6.1890   22.6420 C   0  0  0  0  0  0  0  0  0  0  0  0
  -21.2440   -6.7310   23.8530 C   0  0  0  0  0  3  0  0  0  0  0  0
  -21.1450   -5.9170   24.9980 C   0  0  0  0  0  3  0  0  0  0  0  0
  -21.5240   -4.5620   24.9350 C   0  0  0  0  0  0  0  0  0  0  0  0
  -22.0030   -4.0190   23.7320 C   0  0  0  0  0  3  0  0  0  0  0  0
  -22.1050   -4.8310   22.5860 C   0  0  0  0  0  0  0  0  0  0  0  0
  -22.5480   -4.2980   21.4230 F   0  0  0  0  0  0  0  0  0  0  0  0
  -21.4220   -3.7780   26.0340 F   0  0  0  0  0  0  0  0  0  0  0  0
  -22.7930  -13.5830   21.2520 C   0  0  0  0  0  0  0  0  0  0  0  0
  -22.0920  -12.8580   22.1170 N   0  0  0  0  0  0  0  0  0  0  0  0
  -22.3340  -14.6210   20.7760 O   0  0  0  0  0  0  0  0  0  0  0  0
  -22.4750  -12.0200   22.5270 H   0  0  0  0  0  0  0  0  0  0  0  0
  -21.1600  -13.1500   22.3770 H   0  0  0  0  0  0  0  0  0  0  0  0
  -25.3810  -15.2910   20.3950 N   0  0  0  0  0  0  0  0  0  0  0  0
  -24.6220  -15.9400   20.5720 H   0  0  0  0  0  0  0  0  0  0  0  0
  -26.2250  -15.7490   20.0740 H   0  0  0  0  0  0  0  0  0  0  0  0
  -31.3610  -19.9480   23.0050 C   0  0  0  0  0  0  0  0  0  0  0  0
  -30.9250  -21.4010   23.1470 C   0  0  0  0  0  1  0  0  0  0  0  0
  -32.1940  -19.5230   23.8140 O   0  0  0  0  0  0  0  0  0  0  0  0
  1  3  2  0
  2  1  1  0
  2 57  1  0
  4  2  1  0
  5  8  1  0
  6 10  1  0
  6  5  1  0
  7  8  1  0
  7  1  1  0
  8 12  1  0
  9 10  1  0
 10  7  1  0
 10 11  1  1
 12 13  1  0
 14 25  2  0
 15 13  1  0
 15 20  1  0
 16 24  1  0
 16 26  1  0
 17 23  1  0
 17 19  1  0
 18 24  1  0
 19 18  1  0
 20 19  2  0
 21 22  1  0
 21 15  2  0
 22 17  2  0
 23 16  1  0
 24 14  1  0
 26 28  2  0
 27 26  1  0
 29 27  1  0
 30 39  2  0
 30 35  1  0
 31 27  1  0
 31 35  1  0
 32 31  1  0
 33 34  1  0
 33 32  1  0
 34 30  1  0
 35 36  2  0
 36 37  1  0
 38 37  2  0
 39 38  1  0
 40 14  1  0
 40 45  1  0
 40 41  1  0
 41 44  1  1
 41 42  1  0
 43 41  1  0
 45 48  1  0
 46 50  1  0
 46 45  1  0
 47 46  2  0
 50 49  1  0
 52 50  1  0
 52 53  1  0
 52 51  1  0
 55 54  1  0
 55 97  1  0
 56 54  2  0
 57 55  2  0
 58 57  1  0
 58 56  1  0
 59 67  1  0
 60 65  1  0
 61 62  1  0
 61 60  1  0
 63 62  1  0
 63 72  1  0
 63 64  1  0
 65 59  1  0
 65 64  1  0
 66 59  2  0
 67 56  1  0
 67 68  1  0
 69 70  2  0
 70 89  1  0
 71 70  1  0
 71 74  1  0
 72 73  1  0
 72 69  1  0
 73 71  2  0
 74 75  1  0
 75 76  2  0
 77 80  1  0
 77 76  1  0
 78 77  2  0
 79 78  1  0
 79 74  2  0
 80 81  1  0
 81 82  1  0
 82 83  2  0
 84 83  1  0
 84 88  1  0
 85 84  2  0
 86 81  2  0
 86 85  1  0
 87 86  1  0
 89 90  1  0
 90 93  1  0
 90 92  1  0
 91 89  2  0
 94 69  1  0
 94 95  1  0
 96 94  1  0
 97 98  1  0
 97 99  2  0
M  ISO  4  12 101  13 101  59 100  67 100
M  END
>  <TORSDO>  (78) 
F 20

>  <SCORE>  (78) 
-14.000

>  <name>  (78) 
77

>  <ligand_id>  (78) 
77

>  <original_smiles>  (78) 
[H]c1c([H])c([H])c2c(c1[H])C([H])([H])C([H])([H])C([H])([H])C2([H])N([H])C(=O)C1([H])N(C(=O)C([H])(N([H])C(=O)C([H])(N([H])C([H])([H])[H])C([H])([H])[H])C(C([H])([H])[H])(C([H])([H])[H])C([H])([H])[H])C([H])([H])c2c([H])c(OC([H])([H])C3([H])C([H])([H])C([H])([H])[N+]([H])(C([H])([H])[H])C3([H])C(=O)N([H])c3sc(N([H])C(=O)N4C([H])([H])C([H])([H])C([H])([H])C([H])(n5nc(-c6c([H])c([H])c(Oc7c([H])c([H])c(F)c([H])c7F)c([H])c6[H])c(C(=O)N([H])[H])c5N([H])[H])C4([H])[H])c([H])c3C(=O)C([H])([H])[H])c([H])c([H])c2C1([H])[H]

>  <smiles>  (78) 
[H]c1c([H])c([H])c2c(c1[H])C([H])([H])C([H])([H])C([H])([H])C2([H])N([H])C(=O)C1([H])N(C(=O)C([H])(N([H])C(=O)C([H])(N([H])C([H])([H])[H])C([H])([H])[H])C(C([H])([H])[H])(C([H])([H])[H])C([H])([H])[H])C([H])([H])c2c([H])c(OC([H])([H])C3([H])C([H])([H])C([H])([H])[N+]([H])(C([H])([H])[H])C3([H])C(=O)N([H])c3sc(N([H])C(=O)N4C([H])([H])C([H])([H])C([H])([H])C([H])(n5nc(-c6c([H])c([H])c(Oc7c([H])c([H])c(F)c([H])c7F)c([H])c6[H])c(C(=O)N([H])[H])c5N([H])[H])C4([H])[H])c([H])c3C(=O)C([H])([H])[H])c([H])c([H])c2C1([H])[H]

$$$$
78:0:0
     RDKit          3D

 90 99  0  0  1  0  0  0  0  0999 V2000
  -28.2960  -23.8380   20.7660 C   0  0  0  0  0  0  0  0  0  0  0  0
  -27.9900  -25.2080   20.7740 C   0  0  0  0  0  2  0  0  0  0  0  0
  -27.5230  -22.9760   21.7490 C   0  0  0  0  0  3  0  0  0  0  0  0
  -29.2130  -22.7930   20.0070 C   0  0  0  0  0  3  0  0  0  0  0  0
  -28.0210  -21.5240   21.6810 C   0  0  0  0  0  3  0  0  0  0  0  0
  -28.9550  -21.4030   20.5720 N   0  0  0  0  0  0  0  0  0  0  0  0
  -30.5690  -19.6750   19.4530 C   0  0  0  0  0  3  0  0  0  0  0  0
  -30.8530  -18.2370   19.4350 C   0  0  0  0  0  3  0  0  0  0  0  0
  -29.5270  -20.0840   20.2630 C   0  0  0  0  0  0  0  0  0  0  0  0
  -30.0400  -17.4280   20.2160 C   0  0  0  0  0  0  0  0  0  0  0  0
  -28.9010  -18.5680   21.0040 S   0  0  0  0  0  0  0  0  0  0  0  0
  -30.7570  -14.9480   19.9930 C   0  0  0  0  0  0  0  0  0  0  0  0
  -30.5590  -12.6650   18.9720 C   0  0  0  0  0  2  0  0  0  0  0  0
  -29.5510  -12.7360   17.8020 C   0  0  0  0  0  2  0  0  0  0  0  0
  -28.1090  -12.5350   18.3080 C   0  0  0  0  0  2  0  0  0  0  0  0
  -27.7920  -13.4010   19.5550 C   0  0  0  0  0  3  0  0  0  0  0  0
  -28.9120  -13.3070   20.6160 C   0  0  0  0  0  2  0  0  0  0  0  0
  -30.1720  -13.6970   19.9650 N   0  0  0  0  0  0  0  0  0  0  0  0
  -31.8990  -15.0960   19.5420 O   0  0  0  0  0  0  0  0  0  0  0  0
  -29.9750  -16.0260   20.3980 N   0  0  0  0  0  0  0  0  0  0  0  0
  -29.1290  -15.7180   20.8530 H   0  0  0  0  0  0  0  0  0  0  0  0
  -25.4490  -13.9600   20.4400 C   0  0  0  0  0  0  0  0  0  0  0  0
  -24.4080  -13.1720   20.8460 C   0  0  0  0  0  0  0  0  0  0  0  0
  -24.8690  -11.8240   20.7420 C   0  0  0  0  0  0  0  0  0  0  0  0
  -26.4790  -13.0930   20.1130 N   0  0  0  0  0  0  0  0  0  0  0  0
  -26.1390  -11.8010   20.3560 N   0  0  0  0  0  0  0  0  0  0  0  0
  -24.1550  -10.5550   20.9320 C   0  0  0  0  0  0  0  0  0  0  0  0
  -24.5810   -9.6020   21.8840 C   0  0  0  0  0  3  0  0  0  0  0  0
  -23.8660   -8.3980   22.0620 C   0  0  0  0  0  3  0  0  0  0  0  0
  -22.7110   -8.1360   21.2870 C   0  0  0  0  0  0  0  0  0  0  0  0
  -22.3050   -9.0770   20.3250 C   0  0  0  0  0  3  0  0  0  0  0  0
  -23.0210  -10.2730   20.1450 C   0  0  0  0  0  3  0  0  0  0  0  0
  -21.9700   -6.9830   21.3730 O   0  0  0  0  0  0  0  0  0  0  0  0
  -21.8230   -6.3080   22.5580 C   0  0  0  0  0  0  0  0  0  0  0  0
  -21.2580   -6.9200   23.6980 C   0  0  0  0  0  3  0  0  0  0  0  0
  -21.0600   -6.1700   24.8740 C   0  0  0  0  0  3  0  0  0  0  0  0
  -21.4190   -4.8080   24.9110 C   0  0  0  0  0  0  0  0  0  0  0  0
  -21.9760   -4.1960   23.7750 C   0  0  0  0  0  3  0  0  0  0  0  0
  -22.1750   -4.9440   22.6010 C   0  0  0  0  0  0  0  0  0  0  0  0
  -22.6930   -4.3440   21.5020 F   0  0  0  0  0  0  0  0  0  0  0  0
  -21.2220   -4.0860   26.0380 F   0  0  0  0  0  0  0  0  0  0  0  0
  -23.0290  -13.6370   21.2160 C   0  0  0  0  0  0  0  0  0  0  0  0
  -22.3520  -12.9080   22.0970 N   0  0  0  0  0  0  0  0  0  0  0  0
  -22.5630  -14.6800   20.7620 O   0  0  0  0  0  0  0  0  0  0  0  0
  -22.7440  -12.0630   22.4870 H   0  0  0  0  0  0  0  0  0  0  0  0
  -21.4300  -13.2000   22.3870 H   0  0  0  0  0  0  0  0  0  0  0  0
  -25.6010  -15.3370   20.2990 N   0  0  0  0  0  0  0  0  0  0  0  0
  -24.8370  -15.9810   20.4670 H   0  0  0  0  0  0  0  0  0  0  0  0
  -26.4190  -15.7890   19.9080 H   0  0  0  0  0  0  0  0  0  0  0  0
  -28.3410  -26.4160   20.0960 O   0  0  0  0  0  0  0  0  0  0  0  0
  -24.6650  -31.9250   23.1560 C   0  0  0  0  0  0  0  0  0  0  0  0
  -27.3020  -27.3820   20.0380 C   0  0  0  0  0  0  0  0  0  0  0  0
  -23.4690  -30.5320   21.5080 C   0  0  0  0  0  3  0  0  0  0  0  0
  -24.9330  -29.0140   20.0500 C   0  0  0  0  0  0  0  0  0  0  0  0
  -26.0090  -30.8670   21.3190 C   0  0  0  0  0  2  0  0  0  0  0  0
  -26.1040  -29.4940   20.6520 C   0  0  0  0  0  0  0  0  0  0  0  0
  -27.2940  -28.6890   20.6400 C   0  0  0  0  0  3  0  0  0  0  0  0
  -26.1110  -26.9810   19.3970 C   0  0  0  0  0  3  0  0  0  0  0  0
  -24.9410  -27.7660   19.4090 C   0  0  0  0  0  3  0  0  0  0  0  0
  -23.6860  -29.8770   20.1180 C   0  0  0  0  0  2  0  0  0  0  0  0
  -24.7350  -31.1260   22.0510 N   0  0  0  0  0  0  0  0  0  0  0  0
  -23.5800  -32.1850   23.6990 O   0  0  0  0  0  0  0  0  0  0  0  0
  -22.8190  -29.5000   22.4610 C   0  0  0  0  0  0  0  0  0  0  0  0
  -21.4910  -29.3220   22.3520 N   0  0  0  0  0  0  0  0  0  0  0  0
  -23.5100  -28.8640   23.2610 O   0  0  0  0  0  0  0  0  0  0  0  0
  -20.9910  -29.8870   21.6810 H   0  0  0  0  0  0  0  0  0  0  0  0
  -18.1250  -28.1000   22.8830 C   0  0  0  0  0  0  0  0  0  0  0  0
  -20.6870  -28.3690   23.1190 C   0  0  0  0  0  3  0  0  0  0  0  0
  -20.7870  -26.9460   22.5210 C   0  0  0  0  0  2  0  0  0  0  0  0
  -19.6720  -26.6330   21.5180 C   0  0  0  0  0  2  0  0  0  0  0  0
  -18.2980  -26.7620   22.1830 C   0  0  0  0  0  2  0  0  0  0  0  0
  -19.2460  -28.8610   23.3080 C   0  0  0  0  0  0  0  0  0  0  0  0
  -19.0290  -30.1130   23.9240 C   0  0  0  0  0  3  0  0  0  0  0  0
  -17.7240  -30.6030   24.1170 C   0  0  0  0  0  3  0  0  0  0  0  0
  -16.6180  -29.8400   23.7080 C   0  0  0  0  0  3  0  0  0  0  0  0
  -16.8200  -28.5890   23.0950 C   0  0  0  0  0  3  0  0  0  0  0  0
  -25.9420  -32.5680   23.7790 C   0  0  0  0  0  3  0  0  0  0  0  0
  -25.6150  -33.9570   24.1330 N   0  0  0  0  0  0  0  0  0  0  0  0
  -25.9290  -35.0280   23.3930 C   0  0  0  0  0  0  0  0  0  0  0  0
  -26.5930  -34.9510   22.3550 O   0  0  0  0  0  0  0  0  0  0  0  0
  -25.0260  -34.0900   24.9430 H   0  0  0  0  0  0  0  0  0  0  0  0
  -24.1820  -36.8110   23.0760 C   0  0  0  0  0  1  0  0  0  0  0  0
  -25.4290  -36.4030   23.8780 C   0  0  0  0  0  3  0  0  0  0  0  0
  -27.5530  -37.2970   24.7270 C   0  0  0  0  0  1  0  0  0  0  0  0
  -26.4500  -37.4680   23.7830 N   0  0  0  0  0  0  0  0  0  0  0  0
  -26.0350  -38.3820   23.9450 H   0  0  0  0  0  0  0  0  0  0  0  0
  -26.4770  -31.7870   25.0420 C   0  0  1  0  0  0  0  0  0  0  0  0
  -25.3950  -31.5200   26.1130 C   0  0  0  0  0  1  0  0  0  0  0  0
  -27.0770  -30.4230   24.6290 C   0  0  0  0  0  1  0  0  0  0  0  0
  -27.6210  -32.5890   25.7080 C   0  0  0  0  0  1  0  0  0  0  0  0
  1  2  1  0
  1  3  1  0
  4  6  1  0
  4  1  2  0
  5  3  2  0
  6  5  1  0
  7  9  2  0
  8  7  1  0
  8 10  2  0
  9  6  1  0
  9 11  1  0
 10 20  1  0
 10 11  1  0
 12 20  1  0
 13 18  1  0
 14 15  1  0
 14 13  1  0
 16 15  1  0
 16 25  1  0
 16 17  1  0
 18 12  1  0
 18 17  1  0
 19 12  2  0
 20 21  1  0
 22 23  2  0
 23 42  1  0
 24 23  1  0
 24 27  1  0
 25 26  1  0
 25 22  1  0
 26 24  2  0
 27 28  1  0
 28 29  2  0
 30 33  1  0
 30 29  1  0
 31 30  2  0
 32 31  1  0
 32 27  2  0
 33 34  1  0
 34 39  2  0
 34 35  1  0
 35 36  2  0
 36 37  1  0
 37 41  1  0
 38 37  2  0
 39 38  1  0
 40 39  1  0
 42 43  1  0
 43 46  1  0
 43 45  1  0
 44 42  2  0
 47 22  1  0
 47 48  1  0
 49 47  1  0
 50  2  1  0
 51 62  2  0
 52 50  1  0
 52 57  1  0
 53 61  1  0
 53 63  1  0
 54 60  1  0
 54 56  1  0
 55 61  1  0
 56 55  1  0
 57 56  2  0
 58 59  1  0
 58 52  2  0
 59 54  2  0
 60 53  1  0
 61 51  1  0
 63 65  2  0
 64 63  1  0
 66 64  1  0
 67 76  2  0
 67 72  1  0
 68 64  1  0
 68 72  1  0
 69 68  1  0
 70 71  1  0
 70 69  1  0
 71 67  1  0
 72 73  2  0
 73 74  1  0
 75 74  2  0
 76 75  1  0
 77 51  1  0
 77 78  1  0
 77 87  1  0
 78 81  1  0
 79 83  1  0
 79 78  1  0
 80 79  2  0
 83 82  1  0
 85 83  1  0
 85 86  1  0
 85 84  1  0
 87 90  1  1
 87 88  1  0
 89 87  1  0
M  ISO  4   2 101  12 100  20 100  50 101
M  END
>  <TORSDO>  (79) 
F 17

>  <SCORE>  (79) 
-14.146

>  <name>  (79) 
78

>  <ligand_id>  (79) 
78

>  <original_smiles>  (79) 
[H]C(Oc1c([H])c([H])c2c(c1[H])C([H])([H])N(C(=O)C([H])(N([H])C(=O)C([H])(N([H])C([H])([H])[H])C([H])([H])[H])C(C([H])([H])[H])(C([H])([H])[H])C([H])([H])[H])C([H])(C(=O)N([H])C1([H])c3c([H])c([H])c([H])c([H])c3C([H])([H])C([H])([H])C1([H])[H])C2([H])[H])=C1C([H])([H])N(c2sc(N([H])C(=O)N3C([H])([H])C([H])([H])C([H])([H])C([H])(n4nc(-c5c([H])c([H])c(Oc6c([H])c([H])c(F)c([H])c6F)c([H])c5[H])c(C(=O)N([H])[H])c4N([H])[H])C3([H])[H])c([H])c2[H])C([H])([H])C1([H])[H]

>  <smiles>  (79) 
[H]C(Oc1c([H])c([H])c2c(c1[H])C([H])([H])N(C(=O)C([H])(N([H])C(=O)C([H])(N([H])C([H])([H])[H])C([H])([H])[H])C(C([H])([H])[H])(C([H])([H])[H])C([H])([H])[H])C([H])(C(=O)N([H])C1([H])c3c([H])c([H])c([H])c([H])c3C([H])([H])C([H])([H])C1([H])[H])C2([H])[H])=C1C([H])([H])N(c2sc(N([H])C(=O)N3C([H])([H])C([H])([H])C([H])([H])C([H])(n4nc(-c5c([H])c([H])c(Oc6c([H])c([H])c(F)c([H])c6F)c([H])c5[H])c(C(=O)N([H])[H])c4N([H])[H])C3([H])[H])c([H])c2[H])C([H])([H])C1([H])[H]

$$$$
79:0:0
     RDKit          3D

 92101  0  0  1  0  0  0  0  0999 V2000
  -29.0890  -22.3050   20.2600 C   0  0  0  0  0  2  0  0  0  0  0  0
  -30.7830  -24.1120   19.6140 C   0  0  0  0  0  1  0  0  0  0  0  0
  -28.8570  -23.6490   18.0750 C   0  0  0  0  0  1  0  0  0  0  0  0
  -29.2930  -23.7520   19.5480 C   0  0  1  0  0  0  0  0  0  0  0  0
  -28.4440  -24.9560   20.2480 C   0  0  0  0  0  2  0  0  0  0  0  0
  -28.6200  -26.4120   19.9230 O   0  0  0  0  0  0  0  0  0  0  0  0
  -24.7060  -31.7240   23.0000 C   0  0  0  0  0  0  0  0  0  0  0  0
  -27.4810  -27.2470   19.9220 C   0  0  0  0  0  0  0  0  0  0  0  0
  -23.5510  -30.2820   21.3620 C   0  0  0  0  0  3  0  0  0  0  0  0
  -25.0550  -28.7870   19.9260 C   0  0  0  0  0  0  0  0  0  0  0  0
  -26.0790  -30.6920   21.1710 C   0  0  0  0  0  2  0  0  0  0  0  0
  -26.2100  -29.3150   20.5180 C   0  0  0  0  0  0  0  0  0  0  0  0
  -27.4270  -28.5600   20.5010 C   0  0  0  0  0  3  0  0  0  0  0  0
  -26.3030  -26.7860   19.2970 C   0  0  0  0  0  3  0  0  0  0  0  0
  -25.1060  -27.5310   19.3020 C   0  0  0  0  0  3  0  0  0  0  0  0
  -23.7860  -29.6160   19.9800 C   0  0  0  0  0  2  0  0  0  0  0  0
  -24.7970  -30.9190   21.8990 N   0  0  0  0  0  0  0  0  0  0  0  0
  -23.6150  -31.9600   23.5390 O   0  0  0  0  0  0  0  0  0  0  0  0
  -22.9300  -29.2410   22.3240 C   0  0  0  0  0  0  0  0  0  0  0  0
  -21.6100  -29.0170   22.2030 N   0  0  0  0  0  0  0  0  0  0  0  0
  -23.6370  -28.6410   23.1380 O   0  0  0  0  0  0  0  0  0  0  0  0
  -21.0980  -29.5570   21.5180 H   0  0  0  0  0  0  0  0  0  0  0  0
  -18.2890  -27.6690   22.6960 C   0  0  0  0  0  0  0  0  0  0  0  0
  -20.8310  -28.0480   22.9750 C   0  0  0  0  0  3  0  0  0  0  0  0
  -21.0000  -26.6200   22.4070 C   0  0  0  0  0  2  0  0  0  0  0  0
  -19.9180  -26.2410   21.3900 C   0  0  0  0  0  2  0  0  0  0  0  0
  -18.5280  -26.3260   22.0260 C   0  0  0  0  0  2  0  0  0  0  0  0
  -19.3700  -28.4850   23.1260 C   0  0  0  0  0  0  0  0  0  0  0  0
  -19.0900  -29.7390   23.7110 C   0  0  0  0  0  3  0  0  0  0  0  0
  -17.7620  -30.1790   23.8730 C   0  0  0  0  0  3  0  0  0  0  0  0
  -16.6960  -29.3620   23.4570 C   0  0  0  0  0  3  0  0  0  0  0  0
  -16.9610  -28.1100   22.8760 C   0  0  0  0  0  3  0  0  0  0  0  0
  -25.9670  -32.4040   23.6190 C   0  0  0  0  0  3  0  0  0  0  0  0
  -26.5560  -31.6110   24.8510 C   0  0  1  0  0  0  0  0  0  0  0  0
  -25.5000  -31.2460   25.9200 C   0  0  0  0  0  1  0  0  0  0  0  0
  -27.2310  -30.2980   24.3890 C   0  0  0  0  0  1  0  0  0  0  0  0
  -27.6560  -32.4550   25.5380 C   0  0  0  0  0  1  0  0  0  0  0  0
  -25.5860  -33.7670   24.0170 N   0  0  0  0  0  0  0  0  0  0  0  0
  -25.8260  -34.8680   23.2920 C   0  0  0  0  0  0  0  0  0  0  0  0
  -26.4580  -34.8440   22.2330 O   0  0  0  0  0  0  0  0  0  0  0  0
  -25.0190  -33.8560   24.8460 H   0  0  0  0  0  0  0  0  0  0  0  0
  -23.9750  -36.5620   23.0850 C   0  0  0  0  0  1  0  0  0  0  0  0
  -25.2760  -36.2050   23.8240 C   0  0  0  0  0  3  0  0  0  0  0  0
  -27.3890  -37.1930   24.5940 C   0  0  0  0  0  1  0  0  0  0  0  0
  -26.2350  -37.3250   23.7080 N   0  0  0  0  0  0  0  0  0  0  0  0
  -25.7810  -38.2110   23.9100 H   0  0  0  0  0  0  0  0  0  0  0  0
  -29.7640  -21.0190   19.7880 N   0  0  0  0  0  0  0  0  0  0  0  0
  -30.1570  -21.0010   18.8520 H   0  0  0  0  0  0  0  0  0  0  0  0
  -31.1120  -14.7980   19.1890 C   0  0  0  0  0  0  0  0  0  0  0  0
  -30.6740  -12.5990   18.0730 C   0  0  0  0  0  2  0  0  0  0  0  0
  -29.4560  -12.7400   17.1260 C   0  0  0  0  0  2  0  0  0  0  0  0
  -28.1170  -12.5700   17.8800 C   0  0  0  0  0  2  0  0  0  0  0  0
  -28.0860  -13.3310   19.2340 C   0  0  0  0  0  3  0  0  0  0  0  0
  -29.3860  -13.0800   20.0320 C   0  0  0  0  0  2  0  0  0  0  0  0
  -30.4930  -13.5600   19.1900 N   0  0  0  0  0  0  0  0  0  0  0  0
  -32.1380  -14.9460   18.5100 O   0  0  0  0  0  0  0  0  0  0  0  0
  -29.1740  -19.8260   21.8420 C   0  0  0  0  0  3  0  0  0  0  0  0
  -29.9810  -18.3440   20.2230 C   0  0  0  0  0  0  0  0  0  0  0  0
  -29.6640  -19.7720   20.5520 C   0  0  0  0  0  0  0  0  0  0  0  0
  -29.6560  -17.4980   21.2310 C   0  0  0  0  0  0  0  0  0  0  0  0
  -30.5410  -17.3740   19.1480 C   0  0  0  0  0  3  0  0  0  0  0  0
  -29.8280  -16.0410   20.9920 C   0  0  0  0  0  3  0  0  0  0  0  0
  -30.4250  -15.9280   19.6490 N   0  0  0  0  0  0  0  0  0  0  0  0
  -29.0380  -18.2790   22.6390 S   0  0  0  0  0  0  0  0  0  0  0  0
  -26.0560  -13.8660   20.7130 C   0  0  0  0  0  0  0  0  0  0  0  0
  -25.0320  -13.0890   21.1810 C   0  0  0  0  0  0  0  0  0  0  0  0
  -25.2940  -11.7650   20.7110 C   0  0  0  0  0  0  0  0  0  0  0  0
  -26.8860  -13.0110   20.0020 N   0  0  0  0  0  0  0  0  0  0  0  0
  -26.4440  -11.7290   20.0480 N   0  0  0  0  0  0  0  0  0  0  0  0
  -24.4860  -10.5420   20.8040 C   0  0  0  0  0  0  0  0  0  0  0  0
  -24.9560   -9.3960   21.4810 C   0  0  0  0  0  3  0  0  0  0  0  0
  -24.1520   -8.2390   21.5730 C   0  0  0  0  0  3  0  0  0  0  0  0
  -22.8620   -8.2230   20.9890 C   0  0  0  0  0  0  0  0  0  0  0  0
  -22.4090   -9.3590   20.2940 C   0  0  0  0  0  3  0  0  0  0  0  0
  -23.2120  -10.5070   20.2020 C   0  0  0  0  0  3  0  0  0  0  0  0
  -22.0190   -7.1360   21.0080 O   0  0  0  0  0  0  0  0  0  0  0  0
  -21.9750   -6.2810   22.0780 C   0  0  0  0  0  0  0  0  0  0  0  0
  -21.6790   -6.7320   23.3830 C   0  0  0  0  0  3  0  0  0  0  0  0
  -21.5770   -5.8080   24.4420 C   0  0  0  0  0  3  0  0  0  0  0  0
  -21.7560   -4.4340   24.1970 C   0  0  0  0  0  0  0  0  0  0  0  0
  -22.0440   -3.9810   22.8980 C   0  0  0  0  0  3  0  0  0  0  0  0
  -22.1510   -4.9030   21.8410 C   0  0  0  0  0  0  0  0  0  0  0  0
  -22.4080   -4.4590   20.5880 F   0  0  0  0  0  0  0  0  0  0  0  0
  -21.6490   -3.5450   25.2130 F   0  0  0  0  0  0  0  0  0  0  0  0
  -23.8280  -13.5620   21.9430 C   0  0  0  0  0  0  0  0  0  0  0  0
  -23.2910  -12.7210   22.8190 N   0  0  0  0  0  0  0  0  0  0  0  0
  -23.3900  -14.7030   21.8040 O   0  0  0  0  0  0  0  0  0  0  0  0
  -23.6690  -11.7930   22.9470 H   0  0  0  0  0  0  0  0  0  0  0  0
  -22.4980  -13.0090   23.3750 H   0  0  0  0  0  0  0  0  0  0  0  0
  -26.3400  -15.2250   20.8110 N   0  0  0  0  0  0  0  0  0  0  0  0
  -25.7200  -15.8780   21.2780 H   0  0  0  0  0  0  0  0  0  0  0  0
  -27.1320  -15.6790   20.3720 H   0  0  0  0  0  0  0  0  0  0  0  0
  4  3  1  6
  4  2  1  0
  4  5  1  0
  4  1  1  0
  6  5  1  0
  7 18  2  0
  8  6  1  0
  8 13  1  0
  9 17  1  0
  9 19  1  0
 10 16  1  0
 10 12  1  0
 11 17  1  0
 12 11  1  0
 13 12  2  0
 14 15  1  0
 14  8  2  0
 15 10  2  0
 16  9  1  0
 17  7  1  0
 19 21  2  0
 20 19  1  0
 22 20  1  0
 23 32  2  0
 23 28  1  0
 24 20  1  0
 24 28  1  0
 25 24  1  0
 26 27  1  0
 26 25  1  0
 27 23  1  0
 28 29  2  0
 29 30  1  0
 31 30  2  0
 32 31  1  0
 33  7  1  0
 33 38  1  0
 33 34  1  0
 34 37  1  1
 34 35  1  0
 36 34  1  0
 38 41  1  0
 39 43  1  0
 39 38  1  0
 40 39  2  0
 43 42  1  0
 45 43  1  0
 45 46  1  0
 45 44  1  0
 47  1  1  0
 47 59  1  0
 48 47  1  0
 49 55  1  0
 49 63  1  0
 50 55  1  0
 51 52  1  0
 51 50  1  0
 53 52  1  0
 53 68  1  0
 53 54  1  0
 55 54  1  0
 56 49  2  0
 57 64  1  0
 58 59  1  0
 58 60  1  0
 59 57  2  0
 60 64  1  0
 61 63  1  0
 61 58  2  0
 62 60  2  0
 63 62  1  0
 65 90  1  0
 65 66  2  0
 66 85  1  0
 67 70  1  0
 67 66  1  0
 68 69  1  0
 68 65  1  0
 69 67  2  0
 70 71  1  0
 71 72  2  0
 73 76  1  0
 73 72  1  0
 74 73  2  0
 75 74  1  0
 75 70  2  0
 76 77  1  0
 77 78  1  0
 78 79  2  0
 80 79  1  0
 80 84  1  0
 81 80  2  0
 82 77  2  0
 82 81  1  0
 83 82  1  0
 85 86  1  0
 86 88  1  0
 86 89  1  0
 87 85  2  0
 90 91  1  0
 92 90  1  0
M  ISO  4   5 101   6 101  49 100  63 100
M  END
>  <TORSDO>  (80) 
F 19

>  <SCORE>  (80) 
-5.703

>  <name>  (80) 
79

>  <ligand_id>  (80) 
79

>  <original_smiles>  (80) 
[H]c1sc2c(c1N([H])C([H])([H])C(C([H])([H])[H])(C([H])([H])[H])C([H])([H])Oc1c([H])c([H])c3c(c1[H])C([H])([H])N(C(=O)C([H])(N([H])C(=O)C([H])(N([H])C([H])([H])[H])C([H])([H])[H])C(C([H])([H])[H])(C([H])([H])[H])C([H])([H])[H])C([H])(C(=O)N([H])C1([H])c4c([H])c([H])c([H])c([H])c4C([H])([H])C([H])([H])C1([H])[H])C3([H])[H])C([H])([H])N(C(=O)N1C([H])([H])C([H])([H])C([H])([H])C([H])(n3nc(-c4c([H])c([H])c(Oc5c([H])c([H])c(F)c([H])c5F)c([H])c4[H])c(C(=O)N([H])[H])c3N([H])[H])C1([H])[H])C2([H])[H]

>  <smiles>  (80) 
[H]c1sc2c(c1N([H])C([H])([H])C(C([H])([H])[H])(C([H])([H])[H])C([H])([H])Oc1c([H])c([H])c3c(c1[H])C([H])([H])N(C(=O)C([H])(N([H])C(=O)C([H])(N([H])C([H])([H])[H])C([H])([H])[H])C(C([H])([H])[H])(C([H])([H])[H])C([H])([H])[H])C([H])(C(=O)N([H])C1([H])c4c([H])c([H])c([H])c([H])c4C([H])([H])C([H])([H])C1([H])[H])C3([H])[H])C([H])([H])N(C(=O)N1C([H])([H])C([H])([H])C([H])([H])C([H])(n3nc(-c4c([H])c([H])c(Oc5c([H])c([H])c(F)c([H])c5F)c([H])c4[H])c(C(=O)N([H])[H])c3N([H])[H])C1([H])[H])C2([H])[H]

$$$$
80:0:0
     RDKit          3D

 99101  0  0  1  0  0  0  0  0999 V2000
  -22.7700  -25.7440   20.9860 C   0  0  0  0  0  1  0  0  0  0  0  0
  -22.7990  -31.0400   20.4700 C   0  0  0  0  0  3  0  0  0  0  0  0
  -23.3200  -31.2520   22.2200 C   0  0  0  0  0  2  0  0  0  0  0  0
  -22.5350  -29.4050   19.7670 C   0  0  0  0  0  3  0  0  0  0  0  0
  -22.6720  -29.3140   22.1300 C   0  0  0  0  0  2  0  0  0  0  0  0
  -23.9850  -29.9060   23.2480 C   0  0  1  0  0  0  0  0  0  0  0  0
  -22.4710  -28.1280   20.7880 N   0  0  0  0  0  2  0  0  0  0  0  0
  -21.8020  -24.9650   21.6100 N   0  0  0  0  0  0  0  0  0  0  0  0
  -23.3970  -30.0120   24.4390 F   0  0  0  0  0  0  0  0  0  0  0  0
  -21.9220  -23.9630   21.6810 H   0  0  0  0  0  0  0  0  0  0  0  0
  -20.9560  -25.3850   21.9690 H   0  0  0  0  0  0  0  0  0  0  0  0
  -25.2740  -21.8520   20.0940 C   0  0  0  0  0  2  0  0  0  0  0  0
  -24.4230  -23.7650   20.5870 C   0  0  0  0  0  1  0  0  0  0  0  0
  -26.8120  -20.7020   19.9710 C   0  0  0  0  0  2  0  0  0  0  0  0
  -25.8430  -23.8220   20.9070 C   0  0  0  0  0  3  0  0  0  0  0  0
  -27.2940  -22.4170   20.6570 S   0  0  0  0  0  3  0  0  0  0  0  0
  -29.4530  -17.4790   19.6890 C   0  0  0  0  0  2  0  0  0  0  0  0
  -30.9880  -14.7500   18.9680 C   0  0  0  0  0  2  0  0  0  0  0  0
  -30.6660  -13.3230   18.2120 C   0  0  0  0  0  2  0  0  0  0  0  0
  -29.5740  -12.5110   18.9020 C   0  0  0  0  0  2  0  0  0  0  0  0
  -28.7870  -13.5960   19.6160 C   0  0  0  0  0  3  0  0  0  0  0  0
  -29.5360  -14.6080   20.5300 C   0  0  0  0  0  2  0  0  0  0  0  0
  -29.8090  -15.8020   19.6310 N   0  0  0  0  0  0  0  0  0  0  0  0
  -30.7740  -17.4770   19.4840 O   0  0  0  0  0  1  0  0  0  0  0  0
  -27.9630  -18.9480   19.7470 N   0  0  0  0  0  1  0  0  0  0  0  0
  -27.2240  -18.2710   19.5960 H   0  0  0  0  0  0  0  0  0  0  0  0
  -26.8350  -14.2040   20.9030 C   0  0  0  0  0  0  0  0  0  0  0  0
  -25.7860  -13.5040   21.3780 C   0  0  0  0  0  0  0  0  0  0  0  0
  -25.9890  -12.1480   20.9640 C   0  0  0  0  0  0  0  0  0  0  0  0
  -27.5940  -13.2650   20.2520 N   0  0  0  0  0  0  0  0  0  0  0  0
  -27.1440  -12.0020   20.3320 N   0  0  0  0  0  0  0  0  0  0  0  0
  -25.1010  -11.0030   21.0650 C   0  0  0  0  0  0  0  0  0  0  0  0
  -25.3350   -9.9650   21.9910 C   0  0  0  0  0  3  0  0  0  0  0  0
  -24.4350   -8.8850   22.0790 C   0  0  0  0  0  3  0  0  0  0  0  0
  -23.2950   -8.8450   21.2400 C   0  0  0  0  0  0  0  0  0  0  0  0
  -23.0890   -9.8690   20.3000 C   0  0  0  0  0  3  0  0  0  0  0  0
  -23.9880  -10.9400   20.2080 C   0  0  0  0  0  3  0  0  0  0  0  0
  -22.3730   -7.8290   21.2430 O   0  0  0  0  0  0  0  0  0  0  0  0
  -21.7730   -7.4150   22.4030 C   0  0  0  0  0  0  0  0  0  0  0  0
  -21.1040   -8.3160   23.2600 C   0  0  0  0  0  3  0  0  0  0  0  0
  -20.4400   -7.8330   24.4050 C   0  0  0  0  0  3  0  0  0  0  0  0
  -20.4360   -6.4540   24.6880 C   0  0  0  0  0  0  0  0  0  0  0  0
  -21.0990   -5.5560   23.8320 C   0  0  0  0  0  3  0  0  0  0  0  0
  -21.7650   -6.0370   22.6910 C   0  0  0  0  0  0  0  0  0  0  0  0
  -22.3840   -5.1670   21.8570 F   0  0  0  0  0  0  0  0  0  0  0  0
  -19.7900   -5.9880   25.7820 F   0  0  0  0  0  0  0  0  0  0  0  0
  -24.6140  -14.1130   22.0640 C   0  0  0  0  0  0  0  0  0  0  0  0
  -23.9910  -13.3740   22.9690 N   0  0  0  0  0  0  0  0  0  0  0  0
  -24.2880  -15.2790   21.8380 O   0  0  0  0  0  0  0  0  0  0  0  0
  -24.2820  -12.4290   23.1660 H   0  0  0  0  0  0  0  0  0  0  0  0
  -23.2080  -13.7620   23.4780 H   0  0  0  0  0  0  0  0  0  0  0  0
  -27.1890  -15.5570   20.9420 N   0  0  0  0  0  0  0  0  0  0  0  0
  -26.4480  -16.2030   21.1960 H   0  0  0  0  0  0  0  0  0  0  0  0
  -27.7620  -15.9000   20.1830 H   0  0  0  0  0  0  0  0  0  0  0  0
  -26.3780  -24.9700   21.4770 N   0  0  0  0  0  4  0  0  0  0  0  0
  -25.9460  -25.8860   21.4350 H   0  0  0  0  0  0  0  0  0  0  0  0
  -27.3680  -25.0270   21.6980 H   0  0  0  0  0  0  0  0  0  0  0  0
  -26.0150  -29.0210   23.7560 C   0  0  0  0  0 15  0  0  0  0  0  0
  -27.5990  -28.1600   22.9870 O   0  0  0  0  0  1  0  0  0  0  0  0
  -25.6300  -31.4870   23.6090 C   0  0  0  0  0  3  0  0  0  0  0  0
  -28.7200  -28.2520   21.9720 C   0  0  0  0  0  3  0  0  0  0  0  0
  -25.7240  -30.0910   21.1550 C   0  0  0  0  0  3  0  0  0  0  0  0
  -27.8170  -29.8390   20.1990 C   0  0  0  0  0  3  0  0  0  0  0  0
  -27.6520  -31.3240   22.2520 C   0  0  0  0  0  2  0  0  0  0  0  0
  -28.3670  -30.2920   21.4210 C   0  0  0  0  0  3  0  0  0  0  0  0
  -29.2890  -29.4880   22.0710 C   0  0  0  0  0  2  0  0  0  0  0  0
  -28.7990  -27.7440   20.6080 C   0  0  0  0  0  2  0  0  0  0  0  0
  -28.2310  -28.6090   19.6450 C   0  0  0  0  0  2  0  0  0  0  0  0
  -26.5000  -30.3870   19.8970 C   0  0  0  0  0  2  0  0  0  0  0  0
  -26.2400  -30.9840   22.4140 N   0  0  0  0  0  0  0  0  0  0  0  0
  -24.4080  -31.5680   23.7750 O   0  0  0  0  0  0  0  0  0  0  0  0
  -25.5490  -28.3490   20.9760 C   0  0  0  0  0  3  0  0  0  0  0  0
  -24.6280  -27.4740   20.3000 N   0  0  0  0  0  0  0  0  0  0  0  0
  -25.1980  -27.5840   21.7490 O   0  0  0  0  0  1  0  0  0  0  0  0
  -24.2740  -27.0420   21.1460 H   0  0  0  0  0  0  0  0  0  0  0  0
  -25.5590  -26.5000   16.0870 C   0  0  0  0  0  0  0  0  0  0  0  0
  -24.3810  -26.4470   19.1740 C   0  0  0  0  0  1  0  0  0  0  0  0
  -26.4700  -26.0360   20.1240 C   0  0  0  0  0  1  0  0  0  0  0  0
  -27.5070  -25.3890   18.4810 C   0  0  0  0  0  1  0  0  0  0  0  0
  -26.8860  -25.5880   16.6970 C   0  0  0  0  0  2  0  0  0  0  0  0
  -24.3070  -26.7570   17.0000 C   0  0  0  0  0  3  0  0  0  0  0  0
  -23.6360  -27.9330   16.2310 C   0  0  0  0  0  3  0  0  0  0  0  0
  -24.0730  -28.7530   15.0800 C   0  0  0  0  0  3  0  0  0  0  0  0
  -25.1920  -28.3850   14.3270 C   0  0  0  0  0  3  0  0  0  0  0  0
  -25.8740  -27.2520   14.8390 C   0  0  0  0  0  3  0  0  0  0  0  0
  -26.4070  -31.9080   24.9440 C   0  0  0  0  0  3  0  0  0  0  0  0
  -26.1090  -31.1010   26.3000 C   0  0  1  0  0  0  0  0  0  0  0  0
  -24.5960  -30.8290   26.5720 C   0  0  0  0  0  1  0  0  0  0  0  0
  -26.9580  -29.7980   26.3820 C   0  0  0  0  0  1  0  0  0  0  0  0
  -26.5970  -31.9070   27.5320 C   0  0  0  0  0  1  0  0  0  0  0  0
  -26.0930  -33.3210   25.2010 N   0  0  0  0  0  0  0  0  0  0  0  0
  -26.8670  -34.3410   24.8190 C   0  0  0  0  0  0  0  0  0  0  0  0
  -27.9400  -34.1720   24.2360 O   0  0  0  0  0  0  0  0  0  0  0  0
  -25.1830  -33.5210   25.5920 H   0  0  0  0  0  0  0  0  0  0  0  0
  -25.7280  -36.3630   23.8540 C   0  0  0  0  0  1  0  0  0  0  0  0
  -26.3730  -35.7690   25.1160 C   0  0  0  0  0  3  0  0  0  0  0  0
  -27.9260  -36.3180   26.9370 C   0  0  0  0  0  1  0  0  0  0  0  0
  -27.4420  -36.6680   25.6030 N   0  0  0  0  0  0  0  0  0  0  0  0
  -27.1180  -37.6310   25.6290 H   0  0  0  0  0  0  0  0  0  0  0  0
  1  8  1  0
  2  3  1  0
  3  6  1  0
  4  2  2  0
  4  7  1  0
  5  6  1  0
  6 71  1  0
  6  9  1  6
  7  5  1  0
  8 10  1  0
  8 11  1  0
 12 16  1  0
 14 12  1  0
 14 16  1  0
 15 13  1  0
 15 55  1  0
 16 15  1  0
 18 23  1  0
 19 20  1  0
 19 18  1  0
 21 20  1  0
 21 30  1  0
 21 22  1  0
 23 17  1  0
 23 22  1  0
 24 17  1  0
 26 25  1  0
 27 52  1  0
 27 28  2  0
 28 47  1  0
 29 32  1  0
 29 28  1  0
 30 31  1  0
 30 27  1  0
 31 29  2  0
 32 33  1  0
 33 34  2  0
 35 38  1  0
 35 34  1  0
 36 35  2  0
 37 36  1  0
 37 32  2  0
 38 39  1  0
 39 44  2  0
 39 40  1  0
 40 41  2  0
 41 42  1  0
 42 46  1  0
 43 42  2  0
 44 43  1  0
 45 44  1  0
 47 48  1  0
 48 50  1  0
 48 51  1  0
 49 47  2  0
 52 53  1  0
 54 52  1  0
 55 57  1  0
 56 55  1  0
 60 71  1  0
 60 86  1  0
 61 66  1  0
 61 59  1  0
 62 72  1  0
 62 70  1  0
 63 68  1  0
 63 65  1  0
 64 70  1  0
 65 66  1  0
 65 64  1  0
 67 61  1  0
 68 67  1  0
 69 63  1  0
 69 62  1  0
 70 60  1  0
 72 74  1  0
 73 72  1  0
 73 75  1  0
 76 80  1  0
 76 81  1  0
 77 73  1  0
 78 55  1  0
 80 79  1  0
 82 81  2  0
 83 82  1  0
 84 85  1  0
 84 83  2  0
 85 76  2  0
 86 91  1  0
 86 87  1  0
 87 89  1  6
 87 88  1  0
 87 90  1  0
 91 94  1  0
 92 96  1  0
 92 91  1  0
 93 92  2  0
 96 95  1  0
 96 98  1  0
 98 99  1  0
 98 97  1  0
M  ISO  4  17 100  25 100  58 101  59 101
M  END
>  <TORSDO>  (81) 
F 19

>  <SCORE>  (81) 
5.637

>  <name>  (81) 
80

>  <ligand_id>  (81) 
80

>  <original_smiles>  (81) 
[H]c1c([H])c([H])c2c(c1[H])C([H])([H])C([H])([H])C([H])([H])C2([H])N([H])C(=O)C1([H])N(C(=O)C([H])(N([H])C(=O)C([H])(N([H])C([H])([H])[H])C([H])([H])[H])C(C([H])([H])[H])(C([H])([H])[H])C([H])([H])[H])C([H])([H])c2c([H])c(OC([H])([H])C3(F)C([H])([H])N(C(c4c(N([H])[H])sc(N([H])C(=O)N5C([H])([H])C([H])([H])C([H])([H])C([H])(n6nc(-c7c([H])c([H])c(Oc8c([H])c([H])c(F)c([H])c8F)c([H])c7[H])c(C(=O)N([H])[H])c6N([H])[H])C5([H])[H])c4[H])=[N+]([H])[H])C([H])([H])C([H])([H])C3([H])[H])c([H])c([H])c2C1([H])[H]

>  <smiles>  (81) 
[H]c1c([H])c([H])c2c(c1[H])C([H])([H])C([H])([H])C([H])([H])C2([H])N([H])C(=O)C1([H])N(C(=O)C([H])(N([H])C(=O)C([H])(N([H])C([H])([H])[H])C([H])([H])[H])C(C([H])([H])[H])(C([H])([H])[H])C([H])([H])[H])C([H])([H])c2c([H])c(OC([H])([H])C3(F)C([H])([H])N(C(c4c(N([H])[H])sc(N([H])C(=O)N5C([H])([H])C([H])([H])C([H])([H])C([H])(n6nc(-c7c([H])c([H])c(Oc8c([H])c([H])c(F)c([H])c8F)c([H])c7[H])c(C(=O)N([H])[H])c6N([H])[H])C5([H])[H])c4[H])=[N+]([H])[H])C([H])([H])C([H])([H])C3([H])[H])c([H])c([H])c2C1([H])[H]

$$$$
81:0:0
     RDKit          3D

 95104  0  0  1  0  0  0  0  0999 V2000
  -27.6810  -23.8810   21.3330 C   0  0  0  0  0  3  0  0  0  0  0  0
  -28.3690  -23.9660   20.1840 C   0  0  0  0  0  0  0  0  0  0  0  0
  -27.6020  -22.6000   22.1460 C   0  0  0  0  0  2  0  0  0  0  0  0
  -29.1020  -22.6780   19.6370 C   0  0  0  0  0  2  0  0  0  0  0  0
  -28.7600  -21.6210   21.8350 C   0  0  0  0  0  2  0  0  0  0  0  0
  -28.8900  -21.3460   20.3820 N   0  0  2  0  0  4  0  0  0  0  0  0
  -27.9610  -21.0670   20.1070 H   0  0  0  0  0  0  0  0  0  0  0  0
  -31.0900  -20.3460   19.6390 C   0  0  0  0  0  3  0  0  0  0  0  0
  -29.8290  -20.1280   20.0640 C   0  0  0  0  0  0  0  0  0  0  0  0
  -32.0090  -19.2540   19.2830 C   0  0  0  0  0  0  0  0  0  0  0  0
  -29.2840  -18.6560   20.3070 C   0  0  0  0  0  2  0  0  0  0  0  0
  -31.4700  -17.8240   19.2330 C   0  0  0  0  0  2  0  0  0  0  0  0
  -30.4080  -17.4910   20.3230 C   0  0  0  0  0  3  0  0  0  0  0  0
  -33.2150  -19.5060   18.9950 N   0  0  0  0  0  0  0  0  0  0  0  0
  -33.4310  -20.4960   19.0580 H   0  0  0  0  0  0  0  0  0  0  0  0
  -30.6800  -14.8430   20.1080 C   0  0  0  0  0  0  0  0  0  0  0  0
  -30.4180  -12.5810   19.0950 C   0  0  0  0  0  2  0  0  0  0  0  0
  -29.4450  -12.6550   17.8990 C   0  0  0  0  0  2  0  0  0  0  0  0
  -27.9900  -12.4770   18.3740 C   0  0  0  0  0  2  0  0  0  0  0  0
  -27.6520  -13.3590   19.6060 C   0  0  0  0  0  3  0  0  0  0  0  0
  -28.7470  -13.2890   20.6920 C   0  0  0  0  0  2  0  0  0  0  0  0
  -30.0190  -13.6400   20.0500 N   0  0  0  0  0  0  0  0  0  0  0  0
  -31.8680  -14.8840   19.7860 O   0  0  0  0  0  0  0  0  0  0  0  0
  -29.9580  -16.0130   20.3120 N   0  0  0  0  0  0  0  0  0  0  0  0
  -28.9800  -15.8630   20.5080 H   0  0  0  0  0  0  0  0  0  0  0  0
  -25.2960  -13.9330   20.4330 C   0  0  0  0  0  0  0  0  0  0  0  0
  -24.2460  -13.1530   20.8370 C   0  0  0  0  0  0  0  0  0  0  0  0
  -24.7100  -11.8030   20.7710 C   0  0  0  0  0  0  0  0  0  0  0  0
  -26.3300  -13.0590   20.1450 N   0  0  0  0  0  0  0  0  0  0  0  0
  -25.9880  -11.7720   20.4100 N   0  0  0  0  0  0  0  0  0  0  0  0
  -23.9920  -10.5380   20.9730 C   0  0  0  0  0  0  0  0  0  0  0  0
  -24.4430   -9.5740   21.9010 C   0  0  0  0  0  3  0  0  0  0  0  0
  -23.7280   -8.3710   22.0900 C   0  0  0  0  0  3  0  0  0  0  0  0
  -22.5450   -8.1260   21.3520 C   0  0  0  0  0  0  0  0  0  0  0  0
  -22.1130   -9.0790   20.4120 C   0  0  0  0  0  3  0  0  0  0  0  0
  -22.8290  -10.2720   20.2210 C   0  0  0  0  0  3  0  0  0  0  0  0
  -21.7960   -6.9780   21.4540 O   0  0  0  0  0  0  0  0  0  0  0  0
  -21.7480   -6.2510   22.6150 C   0  0  0  0  0  0  0  0  0  0  0  0
  -21.2930   -6.8130   23.8290 C   0  0  0  0  0  3  0  0  0  0  0  0
  -21.1930   -6.0120   24.9830 C   0  0  0  0  0  3  0  0  0  0  0  0
  -21.5360   -4.6470   24.9260 C   0  0  0  0  0  0  0  0  0  0  0  0
  -21.9810   -4.0830   23.7160 C   0  0  0  0  0  3  0  0  0  0  0  0
  -22.0830   -4.8820   22.5640 C   0  0  0  0  0  0  0  0  0  0  0  0
  -22.4950   -4.3300   21.3980 F   0  0  0  0  0  0  0  0  0  0  0  0
  -21.4290   -3.8740   26.0310 F   0  0  0  0  0  0  0  0  0  0  0  0
  -22.8610  -13.6240   21.1690 C   0  0  0  0  0  0  0  0  0  0  0  0
  -22.1630  -12.9140   22.0490 N   0  0  0  0  0  0  0  0  0  0  0  0
  -22.4040  -14.6570   20.6800 O   0  0  0  0  0  0  0  0  0  0  0  0
  -22.5430  -12.0770   22.4660 H   0  0  0  0  0  0  0  0  0  0  0  0
  -21.2320  -13.2090   22.3100 H   0  0  0  0  0  0  0  0  0  0  0  0
  -25.4520  -15.3060   20.2580 N   0  0  0  0  0  0  0  0  0  0  0  0
  -24.6740  -15.9480   20.3690 H   0  0  0  0  0  0  0  0  0  0  0  0
  -26.2620  -15.7340   19.8290 H   0  0  0  0  0  0  0  0  0  0  0  0
  -28.4720  -25.3160   19.3770 C   0  0  0  0  0  2  0  0  0  0  0  0
  -28.3520  -26.6120   20.0910 O   0  0  0  0  0  0  0  0  0  0  0  0
  -24.6050  -31.9270   23.2170 C   0  0  0  0  0  0  0  0  0  0  0  0
  -27.2040  -27.4200   20.0550 C   0  0  0  0  0  0  0  0  0  0  0  0
  -23.3900  -30.5510   21.5640 C   0  0  0  0  0  3  0  0  0  0  0  0
  -24.8320  -29.0240   20.1010 C   0  0  0  0  0  0  0  0  0  0  0  0
  -25.9280  -30.8790   21.3630 C   0  0  0  0  0  2  0  0  0  0  0  0
  -26.0050  -29.5090   20.6930 C   0  0  0  0  0  0  0  0  0  0  0  0
  -27.1890  -28.7150   20.6630 C   0  0  0  0  0  3  0  0  0  0  0  0
  -25.9980  -26.9770   19.4640 C   0  0  0  0  0  3  0  0  0  0  0  0
  -24.8300  -27.7640   19.4810 C   0  0  0  0  0  3  0  0  0  0  0  0
  -23.5950  -29.8990   20.1720 C   0  0  0  0  0  2  0  0  0  0  0  0
  -24.6600  -31.1350   22.1050 N   0  0  0  0  0  0  0  0  0  0  0  0
  -23.5250  -32.1880   23.7690 O   0  0  0  0  0  0  0  0  0  0  0  0
  -22.7420  -29.5140   22.5140 C   0  0  0  0  0  0  0  0  0  0  0  0
  -21.4170  -29.3280   22.3940 N   0  0  0  0  0  0  0  0  0  0  0  0
  -23.4310  -28.8820   23.3200 O   0  0  0  0  0  0  0  0  0  0  0  0
  -20.9210  -29.8920   21.7190 H   0  0  0  0  0  0  0  0  0  0  0  0
  -18.0510  -28.0930   22.8860 C   0  0  0  0  0  0  0  0  0  0  0  0
  -20.6070  -28.3740   23.1580 C   0  0  0  0  0  3  0  0  0  0  0  0
  -20.7230  -26.9490   22.5700 C   0  0  0  0  0  2  0  0  0  0  0  0
  -19.6240  -26.6250   21.5540 C   0  0  0  0  0  2  0  0  0  0  0  0
  -18.2400  -26.7520   22.1980 C   0  0  0  0  0  2  0  0  0  0  0  0
  -19.1610  -28.8620   23.3220 C   0  0  0  0  0  0  0  0  0  0  0  0
  -18.9290  -30.1170   23.9250 C   0  0  0  0  0  3  0  0  0  0  0  0
  -17.6190  -30.6040   24.0920 C   0  0  0  0  0  3  0  0  0  0  0  0
  -16.5230  -29.8320   23.6720 C   0  0  0  0  0  3  0  0  0  0  0  0
  -16.7390  -28.5770   23.0750 C   0  0  0  0  0  3  0  0  0  0  0  0
  -25.8890  -32.5590   23.8350 C   0  0  0  0  0  3  0  0  0  0  0  0
  -25.5830  -33.9580   24.1680 N   0  0  0  0  0  0  0  0  0  0  0  0
  -25.9160  -35.0110   23.4110 C   0  0  0  0  0  0  0  0  0  0  0  0
  -26.5790  -34.9080   22.3760 O   0  0  0  0  0  0  0  0  0  0  0  0
  -25.0050  -34.1130   24.9810 H   0  0  0  0  0  0  0  0  0  0  0  0
  -24.1950  -36.8090   23.0570 C   0  0  0  0  0  1  0  0  0  0  0  0
  -25.4330  -36.4010   23.8710 C   0  0  0  0  0  3  0  0  0  0  0  0
  -27.5710  -37.2750   24.7050 C   0  0  0  0  0  1  0  0  0  0  0  0
  -26.4700  -37.4500   23.7620 N   0  0  0  0  0  0  0  0  0  0  0  0
  -26.0660  -38.3710   23.9110 H   0  0  0  0  0  0  0  0  0  0  0  0
  -26.4050  -31.7880   25.1120 C   0  0  1  0  0  0  0  0  0  0  0  0
  -25.3140  -31.5560   26.1840 C   0  0  0  0  0  1  0  0  0  0  0  0
  -26.9790  -30.4070   24.7170 C   0  0  0  0  0  1  0  0  0  0  0  0
  -27.5550  -32.5810   25.7740 C   0  0  0  0  0  1  0  0  0  0  0  0
  1  3  1  0
  2  1  2  0
  4  2  1  0
  4  6  1  0
  5  3  1  0
  6  5  1  0
  6  7  1  6
  8  9  2  0
  9 11  1  0
  9  6  1  0
 10  8  1  0
 11 13  1  0
 12 10  1  0
 12 13  1  0
 13 24  1  0
 14 15  1  0
 14 10  2  0
 16 24  1  0
 17 22  1  0
 18 19  1  0
 18 17  1  0
 20 19  1  0
 20 29  1  0
 20 21  1  0
 22 16  1  0
 22 21  1  0
 23 16  2  0
 24 25  1  0
 26 27  2  0
 27 46  1  0
 28 27  1  0
 28 31  1  0
 29 30  1  0
 29 26  1  0
 30 28  2  0
 31 32  1  0
 32 33  2  0
 34 37  1  0
 34 33  1  0
 35 34  2  0
 36 35  1  0
 36 31  2  0
 37 38  1  0
 38 39  1  0
 39 40  2  0
 41 40  1  0
 41 45  1  0
 42 41  2  0
 43 38  2  0
 43 42  1  0
 44 43  1  0
 46 47  1  0
 47 50  1  0
 47 49  1  0
 48 46  2  0
 51 52  1  0
 51 26  1  0
 53 51  1  0
 54 55  1  0
 54  2  1  0
 56 67  2  0
 57 55  1  0
 57 62  1  0
 58 66  1  0
 58 68  1  0
 59 65  1  0
 59 61  1  0
 60 66  1  0
 61 60  1  0
 62 61  2  0
 63 64  1  0
 63 57  2  0
 64 59  2  0
 65 58  1  0
 66 56  1  0
 68 70  2  0
 69 68  1  0
 71 69  1  0
 72 81  2  0
 72 77  1  0
 73 69  1  0
 73 77  1  0
 74 73  1  0
 75 76  1  0
 75 74  1  0
 76 72  1  0
 77 78  2  0
 78 79  1  0
 80 79  2  0
 81 80  1  0
 82 56  1  0
 82 83  1  0
 82 92  1  0
 83 86  1  0
 84 88  1  0
 84 83  1  0
 85 84  2  0
 88 87  1  0
 90 88  1  0
 90 91  1  0
 90 89  1  0
 92 95  1  1
 92 93  1  0
 94 92  1  0
M  ISO  4  16 100  24 100  54 101  55 101
M  END
>  <TORSDO>  (82) 
F 18

>  <SCORE>  (82) 
-14.476

>  <name>  (82) 
81

>  <ligand_id>  (82) 
81

>  <original_smiles>  (82) 
[H]N=C1C([H])=C([N+]2([H])C([H])([H])C(C([H])([H])Oc3c([H])c([H])c4c(c3[H])C([H])([H])N(C(=O)C([H])(N([H])C(=O)C([H])(N([H])C([H])([H])[H])C([H])([H])[H])C(C([H])([H])[H])(C([H])([H])[H])C([H])([H])[H])C([H])(C(=O)N([H])C3([H])c5c([H])c([H])c([H])c([H])c5C([H])([H])C([H])([H])C3([H])[H])C4([H])[H])=C([H])C([H])([H])C2([H])[H])C([H])([H])C([H])(N([H])C(=O)N2C([H])([H])C([H])([H])C([H])([H])C([H])(n3nc(-c4c([H])c([H])c(Oc5c([H])c([H])c(F)c([H])c5F)c([H])c4[H])c(C(=O)N([H])[H])c3N([H])[H])C2([H])[H])C1([H])[H]

>  <smiles>  (82) 
[H]N=C1C([H])=C([N+]2([H])C([H])([H])C(C([H])([H])Oc3c([H])c([H])c4c(c3[H])C([H])([H])N(C(=O)C([H])(N([H])C(=O)C([H])(N([H])C([H])([H])[H])C([H])([H])[H])C(C([H])([H])[H])(C([H])([H])[H])C([H])([H])[H])C([H])(C(=O)N([H])C3([H])c5c([H])c([H])c([H])c([H])c5C([H])([H])C([H])([H])C3([H])[H])C4([H])[H])=C([H])C([H])([H])C2([H])[H])C([H])([H])C([H])(N([H])C(=O)N2C([H])([H])C([H])([H])C([H])([H])C([H])(n3nc(-c4c([H])c([H])c(Oc5c([H])c([H])c(F)c([H])c5F)c([H])c4[H])c(C(=O)N([H])[H])c3N([H])[H])C2([H])[H])C1([H])[H]

$$$$
82:0:0
     RDKit          3D

 93101  0  0  1  0  0  0  0  0999 V2000
  -29.9770  -21.2670   20.2020 C   0  0  0  0  0  0  0  0  0  0  0  0
  -29.2280  -23.8020   20.1800 C   0  0  0  0  0  0  0  0  0  0  0  0
  -29.0020  -22.4130   20.0700 N   0  0  0  0  0  0  0  0  0  0  0  0
  -30.4330  -24.3030   20.5000 N   0  0  0  0  0  4  0  0  0  0  0  0
  -31.1690  -21.5580   20.3640 O   0  0  0  0  0  0  0  0  0  0  0  0
  -28.0330  -22.2120   19.8860 H   0  0  0  0  0  0  0  0  0  0  0  0
  -30.5520  -25.3040   20.5660 H   0  0  0  0  0  0  0  0  0  0  0  0
  -31.2240  -23.6910   20.6500 H   0  0  0  0  0  0  0  0  0  0  0  0
  -30.3350  -18.5170   20.2160 C   0  0  0  0  0  3  0  0  0  0  0  0
  -28.1790  -17.6400   20.1960 C   0  0  0  0  0  3  0  0  0  0  0  0
  -29.5080  -17.2910   20.2450 C   0  0  0  0  0  0  0  0  0  0  0  0
  -29.6140  -19.7450   20.1490 C   0  0  0  0  0  0  0  0  0  0  0  0
  -27.9080  -19.3740   20.1010 S   0  0  0  0  0  0  0  0  0  0  0  0
  -30.6120  -14.8180   19.9120 C   0  0  0  0  0  0  0  0  0  0  0  0
  -30.4350  -12.5050   18.9390 C   0  0  0  0  0  2  0  0  0  0  0  0
  -29.4120  -12.5470   17.7780 C   0  0  0  0  0  2  0  0  0  0  0  0
  -27.9670  -12.3820   18.2960 C   0  0  0  0  0  2  0  0  0  0  0  0
  -27.6710  -13.2870   19.5210 C   0  0  0  0  0  3  0  0  0  0  0  0
  -28.7940  -13.1730   20.5760 C   0  0  0  0  0  2  0  0  0  0  0  0
  -30.0580  -13.5500   19.9180 N   0  0  0  0  0  0  0  0  0  0  0  0
  -31.7370  -15.0050   19.4360 O   0  0  0  0  0  0  0  0  0  0  0  0
  -29.7710  -15.8230   20.3700 N   0  0  0  0  0  0  0  0  0  0  0  0
  -28.9840  -15.3570   20.7950 H   0  0  0  0  0  0  0  0  0  0  0  0
  -25.3550  -13.9300   20.4250 C   0  0  0  0  0  0  0  0  0  0  0  0
  -24.2930  -13.1790   20.8500 C   0  0  0  0  0  0  0  0  0  0  0  0
  -24.7080  -11.8160   20.7420 C   0  0  0  0  0  0  0  0  0  0  0  0
  -26.3510  -13.0280   20.0880 N   0  0  0  0  0  0  0  0  0  0  0  0
  -25.9710  -11.7480   20.3380 N   0  0  0  0  0  0  0  0  0  0  0  0
  -23.9550  -10.5710   20.9420 C   0  0  0  0  0  0  0  0  0  0  0  0
  -24.3860   -9.5870   21.8580 C   0  0  0  0  0  3  0  0  0  0  0  0
  -23.6360   -8.4070   22.0470 C   0  0  0  0  0  3  0  0  0  0  0  0
  -22.4390   -8.2020   21.3200 C   0  0  0  0  0  0  0  0  0  0  0  0
  -22.0270   -9.1750   20.3920 C   0  0  0  0  0  3  0  0  0  0  0  0
  -22.7770  -10.3470   20.2010 C   0  0  0  0  0  3  0  0  0  0  0  0
  -21.6600   -7.0750   21.4180 O   0  0  0  0  0  0  0  0  0  0  0  0
  -21.5710   -6.3620   22.5870 C   0  0  0  0  0  0  0  0  0  0  0  0
  -21.0960   -6.9450   23.7810 C   0  0  0  0  0  3  0  0  0  0  0  0
  -20.9550   -6.1570   24.9410 C   0  0  0  0  0  3  0  0  0  0  0  0
  -21.2800   -4.7870   24.9070 C   0  0  0  0  0  0  0  0  0  0  0  0
  -21.7490   -4.2040   23.7160 C   0  0  0  0  0  3  0  0  0  0  0  0
  -21.8910   -4.9890   22.5590 C   0  0  0  0  0  0  0  0  0  0  0  0
  -22.3220   -4.4180   21.4090 F   0  0  0  0  0  0  0  0  0  0  0  0
  -21.1380   -4.0280   26.0190 F   0  0  0  0  0  0  0  0  0  0  0  0
  -22.9350  -13.6900   21.2340 C   0  0  0  0  0  0  0  0  0  0  0  0
  -22.2490  -12.9920   22.1330 N   0  0  0  0  0  0  0  0  0  0  0  0
  -22.4940  -14.7420   20.7740 O   0  0  0  0  0  0  0  0  0  0  0  0
  -22.6200  -12.1400   22.5270 H   0  0  0  0  0  0  0  0  0  0  0  0
  -21.3400  -13.3150   22.4320 H   0  0  0  0  0  0  0  0  0  0  0  0
  -25.5470  -15.3000   20.2690 N   0  0  0  0  0  0  0  0  0  0  0  0
  -24.7710  -15.9430   20.3840 H   0  0  0  0  0  0  0  0  0  0  0  0
  -26.3000  -15.6880   19.7160 H   0  0  0  0  0  0  0  0  0  0  0  0
  -28.1210  -24.9060   19.9150 C   0  0  0  0  0  2  0  0  0  0  0  0
  -28.3810  -26.3820   20.1710 O   0  0  0  0  0  0  0  0  0  0  0  0
  -24.6240  -31.8520   23.2120 C   0  0  0  0  0  0  0  0  0  0  0  0
  -27.2840  -27.2910   20.1180 C   0  0  0  0  0  0  0  0  0  0  0  0
  -23.4470  -30.4730   21.5410 C   0  0  0  0  0  3  0  0  0  0  0  0
  -24.9210  -28.9500   20.1040 C   0  0  0  0  0  0  0  0  0  0  0  0
  -25.9940  -30.7900   21.3940 C   0  0  0  0  0  2  0  0  0  0  0  0
  -26.0890  -29.4170   20.7230 C   0  0  0  0  0  0  0  0  0  0  0  0
  -27.2720  -28.6030   20.7160 C   0  0  0  0  0  3  0  0  0  0  0  0
  -26.0890  -26.9040   19.4690 C   0  0  0  0  0  3  0  0  0  0  0  0
  -24.9290  -27.7030   19.4650 C   0  0  0  0  0  3  0  0  0  0  0  0
  -23.6830  -29.8240   20.1530 C   0  0  0  0  0  2  0  0  0  0  0  0
  -24.7070  -31.0560   22.1050 N   0  0  0  0  0  0  0  0  0  0  0  0
  -23.5310  -32.1180   23.7360 O   0  0  0  0  0  0  0  0  0  0  0  0
  -22.7760  -29.4410   22.4770 C   0  0  0  0  0  0  0  0  0  0  0  0
  -21.4470  -29.2730   22.3490 N   0  0  0  0  0  0  0  0  0  0  0  0
  -23.4490  -28.7930   23.2830 O   0  0  0  0  0  0  0  0  0  0  0  0
  -20.9620  -29.8470   21.6730 H   0  0  0  0  0  0  0  0  0  0  0  0
  -18.0560  -28.1200   22.8710 C   0  0  0  0  0  0  0  0  0  0  0  0
  -20.6230  -28.3230   23.0990 C   0  0  0  0  0  3  0  0  0  0  0  0
  -20.6870  -26.9120   22.4690 C   0  0  0  0  0  2  0  0  0  0  0  0
  -19.5600  -26.6490   21.4650 C   0  0  0  0  0  2  0  0  0  0  0  0
  -18.1930  -26.7940   22.1410 C   0  0  0  0  0  2  0  0  0  0  0  0
  -19.1960  -28.8450   23.3070 C   0  0  0  0  0  0  0  0  0  0  0  0
  -19.0120  -30.0870   23.9510 C   0  0  0  0  0  3  0  0  0  0  0  0
  -17.7190  -30.6050   24.1620 C   0  0  0  0  0  3  0  0  0  0  0  0
  -16.5940  -29.8760   23.7400 C   0  0  0  0  0  3  0  0  0  0  0  0
  -16.7620  -28.6350   23.1010 C   0  0  0  0  0  3  0  0  0  0  0  0
  -25.8920  -32.4850   23.8580 C   0  0  0  0  0  3  0  0  0  0  0  0
  -25.5740  -33.8820   24.1900 N   0  0  0  0  0  0  0  0  0  0  0  0
  -25.8990  -34.9390   23.4350 C   0  0  0  0  0  0  0  0  0  0  0  0
  -26.5670  -34.8430   22.4030 O   0  0  0  0  0  0  0  0  0  0  0  0
  -24.9790  -34.0300   24.9930 H   0  0  0  0  0  0  0  0  0  0  0  0
  -24.1580  -36.7240   23.0950 C   0  0  0  0  0  1  0  0  0  0  0  0
  -25.4070  -36.3250   23.8970 C   0  0  0  0  0  3  0  0  0  0  0  0
  -27.5330  -37.2320   24.7270 C   0  0  0  0  0  1  0  0  0  0  0  0
  -26.4330  -37.3850   23.7800 N   0  0  0  0  0  0  0  0  0  0  0  0
  -26.0190  -38.3030   23.9190 H   0  0  0  0  0  0  0  0  0  0  0  0
  -26.3860  -31.7110   25.1420 C   0  0  1  0  0  0  0  0  0  0  0  0
  -25.2730  -31.4640   26.1870 C   0  0  0  0  0  1  0  0  0  0  0  0
  -26.9840  -30.3380   24.7580 C   0  0  0  0  0  1  0  0  0  0  0  0
  -27.5190  -32.5080   25.8300 C   0  0  0  0  0  1  0  0  0  0  0  0
  1  5  2  0
  2  4  2  0
  3  2  1  0
  3  1  1  0
  4  7  1  0
  4  8  1  0
  6  3  1  0
  9 11  1  0
 10 11  2  0
 11 22  1  0
 12  1  1  0
 12  9  2  0
 13 12  1  0
 13 10  1  0
 14 20  1  0
 14 22  1  0
 15 20  1  0
 16 17  1  0
 16 15  1  0
 18 17  1  0
 18 27  1  0
 18 19  1  0
 20 19  1  0
 21 14  2  0
 22 23  1  0
 24 25  2  0
 25 44  1  0
 26 25  1  0
 26 29  1  0
 27 28  1  0
 27 24  1  0
 28 26  2  0
 29 30  1  0
 30 31  2  0
 32 35  1  0
 32 31  1  0
 33 32  2  0
 34 33  1  0
 34 29  2  0
 35 36  1  0
 36 37  1  0
 37 38  2  0
 39 38  1  0
 39 43  1  0
 40 39  2  0
 41 36  2  0
 41 40  1  0
 42 41  1  0
 44 45  1  0
 45 48  1  0
 45 47  1  0
 46 44  2  0
 49 50  1  0
 49 24  1  0
 51 49  1  0
 52 53  1  0
 52  2  1  0
 54 65  2  0
 55 53  1  0
 55 60  1  0
 56 64  1  0
 56 66  1  0
 57 63  1  0
 57 59  1  0
 58 64  1  0
 59 58  1  0
 60 59  2  0
 61 55  2  0
 62 61  1  0
 62 57  2  0
 63 56  1  0
 64 54  1  0
 66 68  2  0
 67 66  1  0
 69 67  1  0
 70 79  2  0
 70 75  1  0
 71 67  1  0
 71 75  1  0
 72 71  1  0
 73 74  1  0
 73 72  1  0
 74 70  1  0
 75 76  2  0
 76 77  1  0
 78 77  2  0
 79 78  1  0
 80 54  1  0
 80 81  1  0
 80 90  1  0
 81 84  1  0
 82 86  1  0
 82 81  1  0
 83 82  2  0
 86 85  1  0
 88 86  1  0
 88 89  1  0
 88 87  1  0
 90 93  1  1
 90 91  1  0
 92 90  1  0
M  ISO  4  14 100  22 100  52 101  53 101
M  END
>  <TORSDO>  (83) 
F 18

>  <SCORE>  (83) 
-14.511

>  <name>  (83) 
82

>  <ligand_id>  (83) 
82

>  <original_smiles>  (83) 
[H]c1sc(C(=O)N([H])C(=[N+]([H])[H])C([H])([H])Oc2c([H])c([H])c3c(c2[H])C([H])([H])N(C(=O)C([H])(N([H])C(=O)C([H])(N([H])C([H])([H])[H])C([H])([H])[H])C(C([H])([H])[H])(C([H])([H])[H])C([H])([H])[H])C([H])(C(=O)N([H])C2([H])c4c([H])c([H])c([H])c([H])c4C([H])([H])C([H])([H])C2([H])[H])C3([H])[H])c([H])c1N([H])C(=O)N1C([H])([H])C([H])([H])C([H])([H])C([H])(n2nc(-c3c([H])c([H])c(Oc4c([H])c([H])c(F)c([H])c4F)c([H])c3[H])c(C(=O)N([H])[H])c2N([H])[H])C1([H])[H]

>  <smiles>  (83) 
[H]c1sc(C(=O)N([H])C(=[N+]([H])[H])C([H])([H])Oc2c([H])c([H])c3c(c2[H])C([H])([H])N(C(=O)C([H])(N([H])C(=O)C([H])(N([H])C([H])([H])[H])C([H])([H])[H])C(C([H])([H])[H])(C([H])([H])[H])C([H])([H])[H])C([H])(C(=O)N([H])C2([H])c4c([H])c([H])c([H])c([H])c4C([H])([H])C([H])([H])C2([H])[H])C3([H])[H])c([H])c1N([H])C(=O)N1C([H])([H])C([H])([H])C([H])([H])C([H])(n2nc(-c3c([H])c([H])c(Oc4c([H])c([H])c(F)c([H])c4F)c([H])c3[H])c(C(=O)N([H])[H])c2N([H])[H])C1([H])[H]

$$$$
83:0:0
     RDKit          3D

 96104  0  0  1  0  0  0  0  0999 V2000
  -29.1540  -21.3960   19.4140 C   0  0  0  0  0  0  0  0  0  0  0  0
  -29.1700  -21.5540   18.0890 N   0  0  0  0  0  4  0  0  0  0  0  0
  -28.8730  -22.5350   20.1410 N   0  0  0  0  0  0  0  0  0  0  0  0
  -29.2750  -20.7310   17.5130 H   0  0  0  0  0  0  0  0  0  0  0  0
  -29.0230  -22.4360   17.6330 H   0  0  0  0  0  0  0  0  0  0  0  0
  -28.7790  -22.4130   21.1410 H   0  0  0  0  0  0  0  0  0  0  0  0
  -30.5570  -19.2680   19.3210 C   0  0  0  0  0  3  0  0  0  0  0  0
  -30.7920  -17.8780   19.5490 C   0  0  0  0  0  3  0  0  0  0  0  0
  -28.8740  -17.8310   20.9990 C   0  0  0  0  0  3  0  0  0  0  0  0
  -29.4610  -19.9820   19.8930 C   0  0  0  0  0  0  0  0  0  0  0  0
  -29.9330  -17.1060   20.3740 C   0  0  0  0  0  0  0  0  0  0  0  0
  -28.6370  -19.2240   20.7730 C   0  0  0  0  0  0  0  0  0  0  0  0
  -27.5670  -19.8120   21.3660 F   0  0  0  0  0  0  0  0  0  0  0  0
  -30.7540  -14.6700   19.9370 C   0  0  0  0  0  0  0  0  0  0  0  0
  -30.4610  -12.4690   18.8060 C   0  0  0  0  0  2  0  0  0  0  0  0
  -29.4250  -12.6610   17.6770 C   0  0  0  0  0  2  0  0  0  0  0  0
  -27.9930  -12.4880   18.2180 C   0  0  0  0  0  2  0  0  0  0  0  0
  -27.7490  -13.3000   19.5190 C   0  0  0  0  0  3  0  0  0  0  0  0
  -28.8900  -13.0760   20.5400 C   0  0  0  0  0  2  0  0  0  0  0  0
  -30.1520  -13.4390   19.8780 N   0  0  0  0  0  0  0  0  0  0  0  0
  -31.8370  -14.8790   19.3770 O   0  0  0  0  0  0  0  0  0  0  0  0
  -30.0310  -15.6530   20.5640 N   0  0  0  0  0  0  0  0  0  0  0  0
  -29.2850  -15.2650   21.1210 H   0  0  0  0  0  0  0  0  0  0  0  0
  -25.4430  -13.9050   20.4670 C   0  0  0  0  0  0  0  0  0  0  0  0
  -24.3930  -13.1330   20.8880 C   0  0  0  0  0  0  0  0  0  0  0  0
  -24.8170  -11.7760   20.7420 C   0  0  0  0  0  0  0  0  0  0  0  0
  -26.4410  -13.0170   20.0970 N   0  0  0  0  0  0  0  0  0  0  0  0
  -26.0750  -11.7300   20.3200 N   0  0  0  0  0  0  0  0  0  0  0  0
  -24.0800  -10.5190   20.9260 C   0  0  0  0  0  0  0  0  0  0  0  0
  -24.5160   -9.5380   21.8450 C   0  0  0  0  0  3  0  0  0  0  0  0
  -23.7810   -8.3460   22.0200 C   0  0  0  0  0  3  0  0  0  0  0  0
  -22.5960   -8.1280   21.2800 C   0  0  0  0  0  0  0  0  0  0  0  0
  -22.1800   -9.0980   20.3520 C   0  0  0  0  0  3  0  0  0  0  0  0
  -22.9140  -10.2810   20.1740 C   0  0  0  0  0  3  0  0  0  0  0  0
  -21.8330   -6.9890   21.3660 O   0  0  0  0  0  0  0  0  0  0  0  0
  -21.7140   -6.2900   22.5410 C   0  0  0  0  0  0  0  0  0  0  0  0
  -21.1950   -6.8820   23.7130 C   0  0  0  0  0  3  0  0  0  0  0  0
  -21.0260   -6.1080   24.8770 C   0  0  0  0  0  3  0  0  0  0  0  0
  -21.3640   -4.7410   24.8710 C   0  0  0  0  0  0  0  0  0  0  0  0
  -21.8730   -4.1470   23.7010 C   0  0  0  0  0  3  0  0  0  0  0  0
  -22.0430   -4.9190   22.5400 C   0  0  0  0  0  0  0  0  0  0  0  0
  -22.5150   -4.3380   21.4100 F   0  0  0  0  0  0  0  0  0  0  0  0
  -21.1920   -3.9950   25.9860 F   0  0  0  0  0  0  0  0  0  0  0  0
  -23.0390  -13.6230   21.3140 C   0  0  0  0  0  0  0  0  0  0  0  0
  -22.3770  -12.8910   22.2050 N   0  0  0  0  0  0  0  0  0  0  0  0
  -22.5780  -14.6810   20.8870 O   0  0  0  0  0  0  0  0  0  0  0  0
  -22.7650  -12.0300   22.5660 H   0  0  0  0  0  0  0  0  0  0  0  0
  -21.4700  -13.1960   22.5290 H   0  0  0  0  0  0  0  0  0  0  0  0
  -25.6270  -15.2790   20.3460 N   0  0  0  0  0  0  0  0  0  0  0  0
  -24.8890  -15.9460   20.5360 H   0  0  0  0  0  0  0  0  0  0  0  0
  -26.4610  -15.7120   19.9650 H   0  0  0  0  0  0  0  0  0  0  0  0
  -28.5780  -23.9360   19.5880 C   0  0  0  0  0  2  0  0  0  0  0  0
  -27.4730  -25.0070   21.6700 C   0  0  0  0  0  1  0  0  0  0  0  0
  -29.9270  -25.2490   21.2860 C   0  0  0  0  0  1  0  0  0  0  0  0
  -28.5620  -25.1860   20.5860 C   0  0  1  0  0  0  0  0  0  0  0  0
  -28.5030  -26.5410   19.9580 O   0  0  0  0  0  0  0  0  0  0  0  0
  -24.5440  -31.7020   23.0610 C   0  0  0  0  0  0  0  0  0  0  0  0
  -27.3410  -27.3200   19.9500 C   0  0  0  0  0  0  0  0  0  0  0  0
  -23.4050  -30.2960   21.3790 C   0  0  0  0  0  3  0  0  0  0  0  0
  -24.9220  -28.8280   19.9320 C   0  0  0  0  0  0  0  0  0  0  0  0
  -25.9280  -30.7210   21.2180 C   0  0  0  0  0  2  0  0  0  0  0  0
  -26.0620  -29.3580   20.5470 C   0  0  0  0  0  0  0  0  0  0  0  0
  -27.2790  -28.6170   20.5390 C   0  0  0  0  0  3  0  0  0  0  0  0
  -26.1850  -26.8350   19.3060 C   0  0  0  0  0  3  0  0  0  0  0  0
  -24.9840  -27.5740   19.2980 C   0  0  0  0  0  3  0  0  0  0  0  0
  -23.6480  -29.6470   19.9890 C   0  0  0  0  0  2  0  0  0  0  0  0
  -24.6440  -30.9220   21.9420 N   0  0  0  0  0  0  0  0  0  0  0  0
  -23.4490  -31.9270   23.5920 O   0  0  0  0  0  0  0  0  0  0  0  0
  -22.7730  -29.2380   22.3150 C   0  0  0  0  0  0  0  0  0  0  0  0
  -21.4530  -29.0260   22.1830 N   0  0  0  0  0  0  0  0  0  0  0  0
  -23.4690  -28.6080   23.1140 O   0  0  0  0  0  0  0  0  0  0  0  0
  -20.9470  -29.5880   21.5140 H   0  0  0  0  0  0  0  0  0  0  0  0
  -18.1030  -27.7560   22.6780 C   0  0  0  0  0  0  0  0  0  0  0  0
  -20.6600  -28.0460   22.9260 C   0  0  0  0  0  3  0  0  0  0  0  0
  -20.7790  -26.6420   22.2920 C   0  0  0  0  0  2  0  0  0  0  0  0
  -19.6690  -26.3410   21.2800 C   0  0  0  0  0  2  0  0  0  0  0  0
  -18.2920  -26.4380   21.9460 C   0  0  0  0  0  2  0  0  0  0  0  0
  -19.2150  -28.5200   23.1230 C   0  0  0  0  0  0  0  0  0  0  0  0
  -18.9830  -29.7570   23.7630 C   0  0  0  0  0  3  0  0  0  0  0  0
  -17.6740  -30.2290   23.9630 C   0  0  0  0  0  3  0  0  0  0  0  0
  -16.5760  -29.4610   23.5370 C   0  0  0  0  0  3  0  0  0  0  0  0
  -16.7910  -28.2260   22.9010 C   0  0  0  0  0  3  0  0  0  0  0  0
  -25.7980  -32.3670   23.7080 C   0  0  0  0  0  3  0  0  0  0  0  0
  -26.3350  -31.5830   24.9670 C   0  0  1  0  0  0  0  0  0  0  0  0
  -25.2470  -31.2690   26.0200 C   0  0  0  0  0  1  0  0  0  0  0  0
  -26.9740  -30.2410   24.5420 C   0  0  0  0  0  1  0  0  0  0  0  0
  -27.4510  -32.4020   25.6580 C   0  0  0  0  0  1  0  0  0  0  0  0
  -25.4340  -33.7450   24.0710 N   0  0  0  0  0  0  0  0  0  0  0  0
  -25.7250  -34.8270   23.3380 C   0  0  0  0  0  0  0  0  0  0  0  0
  -26.3960  -34.7750   22.3040 O   0  0  0  0  0  0  0  0  0  0  0  0
  -24.8370  -33.8610   24.8770 H   0  0  0  0  0  0  0  0  0  0  0  0
  -23.9190  -36.5540   23.0440 C   0  0  0  0  0  1  0  0  0  0  0  0
  -25.1870  -36.1860   23.8300 C   0  0  0  0  0  3  0  0  0  0  0  0
  -27.2860  -37.1450   24.6700 C   0  0  0  0  0  1  0  0  0  0  0  0
  -26.1740  -37.2840   23.7330 N   0  0  0  0  0  0  0  0  0  0  0  0
  -25.7290  -38.1820   23.9030 H   0  0  0  0  0  0  0  0  0  0  0  0
  1 10  1  0
  1  3  1  0
  2  1  2  0
  3  6  1  0
  4  2  1  0
  5  2  1  0
  7  8  2  0
  7 10  1  0
  8 11  1  0
 10 12  2  0
 11 22  1  0
 11  9  2  0
 12  9  1  0
 12 13  1  0
 14 22  1  0
 15 20  1  0
 16 17  1  0
 16 15  1  0
 18 17  1  0
 18 27  1  0
 18 19  1  0
 20 14  1  0
 20 19  1  0
 21 14  2  0
 22 23  1  0
 24 25  2  0
 25 44  1  0
 26 25  1  0
 26 29  1  0
 27 28  1  0
 27 24  1  0
 28 26  2  0
 29 30  1  0
 30 31  2  0
 32 35  1  0
 32 31  1  0
 33 32  2  0
 34 33  1  0
 34 29  2  0
 35 36  1  0
 36 37  1  0
 37 38  2  0
 39 38  1  0
 39 43  1  0
 40 39  2  0
 41 36  2  0
 41 40  1  0
 42 41  1  0
 44 45  1  0
 45 48  1  0
 45 47  1  0
 46 44  2  0
 49 24  1  0
 49 50  1  0
 51 49  1  0
 52  3  1  0
 52 55  1  0
 55 54  1  1
 55 53  1  0
 56 55  1  0
 57 68  2  0
 58 56  1  0
 58 63  1  0
 59 67  1  0
 59 69  1  0
 60 66  1  0
 60 62  1  0
 61 67  1  0
 62 61  1  0
 63 62  2  0
 64 58  2  0
 65 64  1  0
 65 60  2  0
 66 59  1  0
 67 57  1  0
 69 71  2  0
 70 69  1  0
 72 70  1  0
 73 82  2  0
 73 78  1  0
 74 70  1  0
 74 78  1  0
 75 74  1  0
 76 77  1  0
 76 75  1  0
 77 73  1  0
 78 79  2  0
 79 80  1  0
 81 80  2  0
 82 81  1  0
 83 57  1  0
 83 88  1  0
 83 84  1  0
 84 87  1  1
 84 85  1  0
 86 84  1  0
 88 91  1  0
 89 93  1  0
 89 88  1  0
 90 89  2  0
 93 92  1  0
 95 93  1  0
 95 96  1  0
 95 94  1  0
M  ISO  4  14 100  22 100  55 101  56 101
M  END
>  <TORSDO>  (84) 
F 19

>  <SCORE>  (84) 
-12.893

>  <name>  (84) 
83

>  <ligand_id>  (84) 
83

>  <original_smiles>  (84) 
[H]c1c([H])c([H])c2c(c1[H])C([H])([H])C([H])([H])C([H])([H])C2([H])N([H])C(=O)C1([H])N(C(=O)C([H])(N([H])C(=O)C([H])(N([H])C([H])([H])[H])C([H])([H])[H])C(C([H])([H])[H])(C([H])([H])[H])C([H])([H])[H])C([H])([H])c2c([H])c(OC(C([H])([H])[H])(C([H])([H])[H])C([H])([H])[N+]([H])=C(c3c([H])c([H])c(N([H])C(=O)N4C([H])([H])C([H])([H])C([H])([H])C([H])(n5nc(-c6c([H])c([H])c(Oc7c([H])c([H])c(F)c([H])c7F)c([H])c6[H])c(C(=O)N([H])[H])c5N([H])[H])C4([H])[H])c([H])c3F)N([H])[H])c([H])c([H])c2C1([H])[H]

>  <smiles>  (84) 
[H]c1c([H])c([H])c2c(c1[H])C([H])([H])C([H])([H])C([H])([H])C2([H])N([H])C(=O)C1([H])N(C(=O)C([H])(N([H])C(=O)C([H])(N([H])C([H])([H])[H])C([H])([H])[H])C(C([H])([H])[H])(C([H])([H])[H])C([H])([H])[H])C([H])([H])c2c([H])c(OC(C([H])([H])[H])(C([H])([H])[H])C([H])([H])[N+]([H])=C(c3c([H])c([H])c(N([H])C(=O)N4C([H])([H])C([H])([H])C([H])([H])C([H])(n5nc(-c6c([H])c([H])c(Oc7c([H])c([H])c(F)c([H])c7F)c([H])c6[H])c(C(=O)N([H])[H])c5N([H])[H])C4([H])[H])c([H])c3F)N([H])[H])c([H])c([H])c2C1([H])[H]

$$$$
84:0:0
     RDKit          3D

 93102  0  0  1  0  0  0  0  0999 V2000
  -28.0410  -22.2860   21.7590 C   0  0  0  0  0  2  0  0  0  0  0  0
  -28.9700  -20.5760   20.2800 C   0  0  0  0  0  3  0  0  0  0  0  0
  -28.2270  -23.1040   20.4390 C   0  0  0  0  0  3  0  0  0  0  0  0
  -28.5520  -20.8790   21.6550 N   0  0  0  0  0  0  0  0  0  0  0  0
  -29.2190  -22.0690   19.8210 N   0  0  0  0  0  4  0  0  0  0  0  0
  -27.8120  -20.2330   21.9230 H   0  0  0  0  0  0  0  0  0  0  0  0
  -29.2190  -22.1140   18.8150 H   0  0  0  0  0  0  0  0  0  0  0  0
  -30.1620  -22.2740   20.1080 H   0  0  0  0  0  0  0  0  0  0  0  0
  -32.1400  -19.5100   18.8100 C   0  0  0  0  0  3  0  0  0  0  0  0
  -30.0890  -19.3770   19.8880 C   0  0  0  0  0  0  0  0  0  0  0  0
  -30.4450  -17.9060   19.8340 C   0  0  0  0  0  0  0  0  0  0  0  0
  -31.1420  -20.1580   19.3800 N   0  0  0  0  0  0  0  0  0  0  0  0
  -31.9300  -17.8060   18.8520 S   0  0  0  0  0  0  0  0  0  0  0  0
  -30.6690  -15.2370   20.1370 C   0  0  0  0  0  0  0  0  0  0  0  0
  -30.5130  -12.8400   19.2630 C   0  0  0  0  0  2  0  0  0  0  0  0
  -29.5560  -12.7100   18.0580 C   0  0  0  0  0  2  0  0  0  0  0  0
  -28.1140  -12.4740   18.5390 C   0  0  0  0  0  2  0  0  0  0  0  0
  -27.7120  -13.4200   19.7000 C   0  0  0  0  0  3  0  0  0  0  0  0
  -28.8060  -13.5150   20.7880 C   0  0  0  0  0  2  0  0  0  0  0  0
  -30.0280  -13.9800   20.1160 N   0  0  0  0  0  0  0  0  0  0  0  0
  -31.8830  -15.1490   19.9290 O   0  0  0  0  0  0  0  0  0  0  0  0
  -30.0020  -16.5430   20.2030 N   0  0  0  0  0  0  0  0  0  0  0  0
  -29.0390  -16.4880   20.5040 H   0  0  0  0  0  0  0  0  0  0  0  0
  -25.3630  -13.9560   20.5480 C   0  0  0  0  0  0  0  0  0  0  0  0
  -24.3160  -13.1640   20.9280 C   0  0  0  0  0  0  0  0  0  0  0  0
  -24.7890  -11.8170   20.8480 C   0  0  0  0  0  0  0  0  0  0  0  0
  -26.4010  -13.0920   20.2460 N   0  0  0  0  0  0  0  0  0  0  0  0
  -26.0690  -11.7990   20.4980 N   0  0  0  0  0  0  0  0  0  0  0  0
  -24.0740  -10.5460   21.0300 C   0  0  0  0  0  0  0  0  0  0  0  0
  -24.5160   -9.5770   21.9560 C   0  0  0  0  0  3  0  0  0  0  0  0
  -23.7990   -8.3720   22.1280 C   0  0  0  0  0  3  0  0  0  0  0  0
  -22.6290   -8.1270   21.3710 C   0  0  0  0  0  0  0  0  0  0  0  0
  -22.2110   -9.0860   20.4310 C   0  0  0  0  0  3  0  0  0  0  0  0
  -22.9270  -10.2800   20.2580 C   0  0  0  0  0  3  0  0  0  0  0  0
  -21.8820   -6.9770   21.4510 O   0  0  0  0  0  0  0  0  0  0  0  0
  -21.8020   -6.2510   22.6130 C   0  0  0  0  0  0  0  0  0  0  0  0
  -21.2980   -6.8100   23.8080 C   0  0  0  0  0  3  0  0  0  0  0  0
  -21.1700   -6.0080   24.9590 C   0  0  0  0  0  3  0  0  0  0  0  0
  -21.5350   -4.6480   24.9160 C   0  0  0  0  0  0  0  0  0  0  0  0
  -22.0320   -4.0910   23.7260 C   0  0  0  0  0  3  0  0  0  0  0  0
  -22.1620   -4.8890   22.5760 C   0  0  0  0  0  0  0  0  0  0  0  0
  -22.6220   -4.3420   21.4260 F   0  0  0  0  0  0  0  0  0  0  0  0
  -21.4040   -3.8750   26.0190 F   0  0  0  0  0  0  0  0  0  0  0  0
  -22.9240  -13.6260   21.2480 C   0  0  0  0  0  0  0  0  0  0  0  0
  -22.2210  -12.9010   22.1110 N   0  0  0  0  0  0  0  0  0  0  0  0
  -22.4730  -14.6660   20.7680 O   0  0  0  0  0  0  0  0  0  0  0  0
  -22.6040  -12.0640   22.5230 H   0  0  0  0  0  0  0  0  0  0  0  0
  -21.2840  -13.1920   22.3560 H   0  0  0  0  0  0  0  0  0  0  0  0
  -25.5130  -15.3340   20.4060 N   0  0  0  0  0  0  0  0  0  0  0  0
  -24.7600  -15.9810   20.6080 H   0  0  0  0  0  0  0  0  0  0  0  0
  -26.3460  -15.7970   20.0660 H   0  0  0  0  0  0  0  0  0  0  0  0
  -28.4600  -24.7970   20.7890 C   0  0  0  0  0  2  0  0  0  0  0  0
  -28.3210  -26.2360   20.1270 O   0  0  0  0  0  0  0  0  0  0  0  0
  -24.6300  -31.9410   23.2480 C   0  0  0  0  0  0  0  0  0  0  0  0
  -27.2330  -27.1980   20.2290 C   0  0  0  0  0  0  0  0  0  0  0  0
  -23.4390  -30.5390   21.6100 C   0  0  0  0  0  3  0  0  0  0  0  0
  -24.8930  -28.9580   20.1940 C   0  0  0  0  0  0  0  0  0  0  0  0
  -25.9980  -30.8070   21.4490 C   0  0  0  0  0  2  0  0  0  0  0  0
  -26.0760  -29.4100   20.7970 C   0  0  0  0  0  0  0  0  0  0  0  0
  -27.2480  -28.5510   20.7860 C   0  0  0  0  0  3  0  0  0  0  0  0
  -26.0150  -26.8500   19.6140 C   0  0  0  0  0  3  0  0  0  0  0  0
  -24.8780  -27.6910   19.5890 C   0  0  0  0  0  3  0  0  0  0  0  0
  -23.6640  -29.8610   20.2330 C   0  0  0  0  0  2  0  0  0  0  0  0
  -24.7100  -31.1200   22.1550 N   0  0  0  0  0  0  0  0  0  0  0  0
  -23.5410  -32.2180   23.7720 O   0  0  0  0  0  0  0  0  0  0  0  0
  -22.7660  -29.5290   22.5710 C   0  0  0  0  0  0  0  0  0  0  0  0
  -21.4390  -29.3400   22.4450 N   0  0  0  0  0  0  0  0  0  0  0  0
  -23.4410  -28.9160   23.4020 O   0  0  0  0  0  0  0  0  0  0  0  0
  -20.9410  -29.9010   21.7660 H   0  0  0  0  0  0  0  0  0  0  0  0
  -18.0760  -28.0680   22.9440 C   0  0  0  0  0  0  0  0  0  0  0  0
  -20.6310  -28.3880   23.2120 C   0  0  0  0  0  3  0  0  0  0  0  0
  -20.7640  -26.9580   22.6430 C   0  0  0  0  0  2  0  0  0  0  0  0
  -19.6710  -26.6030   21.6270 C   0  0  0  0  0  2  0  0  0  0  0  0
  -18.2810  -26.7250   22.2620 C   0  0  0  0  0  2  0  0  0  0  0  0
  -19.1790  -28.8570   23.3710 C   0  0  0  0  0  0  0  0  0  0  0  0
  -18.9400  -30.1150   23.9610 C   0  0  0  0  0  3  0  0  0  0  0  0
  -17.6240  -30.5930   24.1240 C   0  0  0  0  0  3  0  0  0  0  0  0
  -16.5360  -29.8050   23.7150 C   0  0  0  0  0  3  0  0  0  0  0  0
  -16.7610  -28.5440   23.1320 C   0  0  0  0  0  3  0  0  0  0  0  0
  -25.8970  -32.5900   23.8760 C   0  0  0  0  0  3  0  0  0  0  0  0
  -25.5800  -33.9930   24.1910 N   0  0  0  0  0  0  0  0  0  0  0  0
  -25.9120  -35.0450   23.4320 C   0  0  0  0  0  0  0  0  0  0  0  0
  -26.5850  -34.9410   22.4030 O   0  0  0  0  0  0  0  0  0  0  0  0
  -24.9840  -34.1520   24.9880 H   0  0  0  0  0  0  0  0  0  0  0  0
  -24.1820  -36.8400   23.0650 C   0  0  0  0  0  1  0  0  0  0  0  0
  -25.4200  -36.4360   23.8810 C   0  0  0  0  0  3  0  0  0  0  0  0
  -27.5430  -37.3330   24.7260 C   0  0  0  0  0  1  0  0  0  0  0  0
  -26.4530  -37.4900   23.7690 N   0  0  0  0  0  0  0  0  0  0  0  0
  -26.0430  -38.4110   23.9030 H   0  0  0  0  0  0  0  0  0  0  0  0
  -26.4010  -31.8410   25.1710 C   0  0  1  0  0  0  0  0  0  0  0  0
  -25.3010  -31.6170   26.2340 C   0  0  0  0  0  1  0  0  0  0  0  0
  -26.9990  -30.4590   24.8190 C   0  0  0  0  0  1  0  0  0  0  0  0
  -27.5370  -32.6550   25.8340 C   0  0  0  0  0  1  0  0  0  0  0  0
  2 10  1  0
  2  4  1  0
  3 52  1  0
  3  1  1  0
  4  1  1  0
  4  6  1  0
  5  8  1  0
  5  2  1  0
  5  3  1  0
  7  5  1  0
  9 13  1  0
  9 12  2  0
 11 10  2  0
 11 22  1  0
 12 10  1  0
 13 11  1  0
 14 22  1  0
 15 20  1  0
 16 17  1  0
 16 15  1  0
 18 17  1  0
 18 27  1  0
 18 19  1  0
 20 14  1  0
 20 19  1  0
 21 14  2  0
 22 23  1  0
 24 25  2  0
 25 44  1  0
 26 25  1  0
 26 29  1  0
 27 28  1  0
 27 24  1  0
 28 26  2  0
 29 30  1  0
 30 31  2  0
 32 35  1  0
 32 31  1  0
 33 32  2  0
 34 33  1  0
 34 29  2  0
 35 36  1  0
 36 37  1  0
 37 38  2  0
 39 38  1  0
 39 43  1  0
 40 39  2  0
 41 36  2  0
 41 40  1  0
 42 41  1  0
 44 45  1  0
 45 48  1  0
 45 47  1  0
 46 44  2  0
 49 24  1  0
 49 50  1  0
 51 49  1  0
 53 55  1  0
 53 52  1  0
 54 65  2  0
 55 60  1  0
 56 64  1  0
 56 66  1  0
 57 63  1  0
 57 59  1  0
 58 64  1  0
 59 58  1  0
 60 59  2  0
 61 55  2  0
 62 61  1  0
 62 57  2  0
 63 56  1  0
 64 54  1  0
 66 68  2  0
 67 66  1  0
 69 67  1  0
 70 79  2  0
 70 75  1  0
 71 67  1  0
 71 75  1  0
 72 71  1  0
 73 74  1  0
 73 72  1  0
 74 70  1  0
 75 76  2  0
 76 77  1  0
 78 77  2  0
 79 78  1  0
 80 54  1  0
 80 81  1  0
 80 90  1  0
 81 84  1  0
 82 86  1  0
 82 81  1  0
 83 82  2  0
 86 85  1  0
 88 86  1  0
 88 89  1  0
 88 87  1  0
 90 93  1  1
 90 91  1  0
 92 90  1  0
M  ISO  4  14 100  22 100  52 101  53 101
M  END
>  <TORSDO>  (85) 
F 18

>  <SCORE>  (85) 
-15.221

>  <name>  (85) 
84

>  <ligand_id>  (85) 
84

>  <original_smiles>  (85) 
[H]c1nc(C2([H])N([H])C([H])([H])C([H])(C([H])([H])Oc3c([H])c([H])c4c(c3[H])C([H])([H])N(C(=O)C([H])(N([H])C(=O)C([H])(N([H])C([H])([H])[H])C([H])([H])[H])C(C([H])([H])[H])(C([H])([H])[H])C([H])([H])[H])C([H])(C(=O)N([H])C3([H])c5c([H])c([H])c([H])c([H])c5C([H])([H])C([H])([H])C3([H])[H])C4([H])[H])[N+]2([H])[H])c(N([H])C(=O)N2C([H])([H])C([H])([H])C([H])([H])C([H])(n3nc(-c4c([H])c([H])c(Oc5c([H])c([H])c(F)c([H])c5F)c([H])c4[H])c(C(=O)N([H])[H])c3N([H])[H])C2([H])[H])s1

>  <smiles>  (85) 
[H]c1nc(C2([H])N([H])C([H])([H])C([H])(C([H])([H])Oc3c([H])c([H])c4c(c3[H])C([H])([H])N(C(=O)C([H])(N([H])C(=O)C([H])(N([H])C([H])([H])[H])C([H])([H])[H])C(C([H])([H])[H])(C([H])([H])[H])C([H])([H])[H])C([H])(C(=O)N([H])C3([H])c5c([H])c([H])c([H])c([H])c5C([H])([H])C([H])([H])C3([H])[H])C4([H])[H])[N+]2([H])[H])c(N([H])C(=O)N2C([H])([H])C([H])([H])C([H])([H])C([H])(n3nc(-c4c([H])c([H])c(Oc5c([H])c([H])c(F)c([H])c5F)c([H])c4[H])c(C(=O)N([H])[H])c3N([H])[H])C2([H])[H])s1

$$$$
85:0:0
     RDKit          3D

 91100  0  0  1  0  0  0  0  0999 V2000
  -27.1610  -22.7970   19.9940 C   0  0  0  0  0  2  0  0  0  0  0  0
  -27.4660  -21.2560   20.0300 C   0  0  0  0  0  2  0  0  0  0  0  0
  -29.5220  -22.5090   20.2530 C   0  0  0  0  0  2  0  0  0  0  0  0
  -28.3390  -23.4950   20.6810 C   0  0  0  0  0  3  0  0  0  0  0  0
  -28.9720  -20.9870   20.3530 C   0  0  0  0  0  3  0  0  0  0  0  0
  -30.2000  -19.0290   17.4860 C   0  0  0  0  0  3  0  0  0  0  0  0
  -29.7630  -20.1540   18.1270 C   0  0  0  0  0  3  0  0  0  0  0  0
  -29.9000  -18.4840   19.5810 C   0  0  0  0  0  0  0  0  0  0  0  0
  -30.2790  -17.9930   18.3990 N   0  0  0  0  0  0  0  0  0  0  0  0
  -29.5550  -19.8630   19.4770 N   0  0  0  0  0  0  0  0  0  0  0  0
  -29.9880  -17.4660   20.7770 C   0  0  0  0  0  2  0  0  0  0  0  0
  -30.5750  -14.8460   20.3380 C   0  0  0  0  0  0  0  0  0  0  0  0
  -30.4130  -12.5490   19.3280 C   0  0  0  0  0  2  0  0  0  0  0  0
  -29.4620  -12.5880   18.1110 C   0  0  0  0  0  2  0  0  0  0  0  0
  -27.9950  -12.4070   18.5510 C   0  0  0  0  0  2  0  0  0  0  0  0
  -27.6200  -13.3050   19.7590 C   0  0  0  0  0  3  0  0  0  0  0  0
  -28.6860  -13.2320   20.8730 C   0  0  0  0  0  2  0  0  0  0  0  0
  -29.9700  -13.6070   20.2640 N   0  0  0  0  0  0  0  0  0  0  0  0
  -31.7800  -14.9480   20.0900 O   0  0  0  0  0  0  0  0  0  0  0  0
  -29.7570  -15.9600   20.5040 N   0  0  0  0  0  0  0  0  0  0  0  0
  -28.7820  -15.7140   20.5450 H   0  0  0  0  0  0  0  0  0  0  0  0
  -25.2370  -13.9020   20.4910 C   0  0  0  0  0  0  0  0  0  0  0  0
  -24.1710  -13.1320   20.8670 C   0  0  0  0  0  0  0  0  0  0  0  0
  -24.6330  -11.7800   20.8440 C   0  0  0  0  0  0  0  0  0  0  0  0
  -26.2800  -13.0200   20.2590 N   0  0  0  0  0  0  0  0  0  0  0  0
  -25.9250  -11.7400   20.5370 N   0  0  0  0  0  0  0  0  0  0  0  0
  -23.9060  -10.5190   21.0430 C   0  0  0  0  0  0  0  0  0  0  0  0
  -24.3450   -9.5510   21.9720 C   0  0  0  0  0  3  0  0  0  0  0  0
  -23.6170   -8.3560   22.1570 C   0  0  0  0  0  3  0  0  0  0  0  0
  -22.4370   -8.1200   21.4130 C   0  0  0  0  0  0  0  0  0  0  0  0
  -22.0180   -9.0780   20.4720 C   0  0  0  0  0  3  0  0  0  0  0  0
  -22.7460  -10.2650   20.2840 C   0  0  0  0  0  3  0  0  0  0  0  0
  -21.6800   -6.9780   21.5070 O   0  0  0  0  0  0  0  0  0  0  0  0
  -21.6490   -6.2290   22.6560 C   0  0  0  0  0  0  0  0  0  0  0  0
  -21.2570   -6.7810   23.8950 C   0  0  0  0  0  3  0  0  0  0  0  0
  -21.1730   -5.9580   25.0370 C   0  0  0  0  0  3  0  0  0  0  0  0
  -21.4700   -4.5860   24.9400 C   0  0  0  0  0  0  0  0  0  0  0  0
  -21.8550   -4.0330   23.7060 C   0  0  0  0  0  3  0  0  0  0  0  0
  -21.9410   -4.8530   22.5670 C   0  0  0  0  0  0  0  0  0  0  0  0
  -22.2920   -4.3110   21.3760 F   0  0  0  0  0  0  0  0  0  0  0  0
  -21.3820   -3.7940   26.0340 F   0  0  0  0  0  0  0  0  0  0  0  0
  -22.7740  -13.6120   21.1310 C   0  0  0  0  0  0  0  0  0  0  0  0
  -22.0430  -12.9220   22.0010 N   0  0  0  0  0  0  0  0  0  0  0  0
  -22.3370  -14.6330   20.6020 O   0  0  0  0  0  0  0  0  0  0  0  0
  -22.4090  -12.0930   22.4480 H   0  0  0  0  0  0  0  0  0  0  0  0
  -21.1070  -13.2250   22.2230 H   0  0  0  0  0  0  0  0  0  0  0  0
  -25.4000  -15.2720   20.3000 N   0  0  0  0  0  0  0  0  0  0  0  0
  -24.6260  -15.9220   20.3950 H   0  0  0  0  0  0  0  0  0  0  0  0
  -26.2290  -15.7040   19.9140 H   0  0  0  0  0  0  0  0  0  0  0  0
  -28.3200  -25.1270   20.9770 C   0  0  0  0  0  2  0  0  0  0  0  0
  -28.3100  -26.3630   20.1160 O   0  0  0  0  0  0  0  0  0  0  0  0
  -24.6210  -31.8870   23.2260 C   0  0  0  0  0  0  0  0  0  0  0  0
  -27.2150  -27.2620   20.1770 C   0  0  0  0  0  0  0  0  0  0  0  0
  -23.4140  -30.4800   21.5960 C   0  0  0  0  0  3  0  0  0  0  0  0
  -24.8590  -28.9140   20.1730 C   0  0  0  0  0  0  0  0  0  0  0  0
  -25.9570  -30.7850   21.4030 C   0  0  0  0  0  2  0  0  0  0  0  0
  -26.0360  -29.3970   20.7630 C   0  0  0  0  0  0  0  0  0  0  0  0
  -27.2200  -28.5850   20.7470 C   0  0  0  0  0  3  0  0  0  0  0  0
  -26.0130  -26.8450   19.5740 C   0  0  0  0  0  3  0  0  0  0  0  0
  -24.8530  -27.6470   19.5670 C   0  0  0  0  0  3  0  0  0  0  0  0
  -23.6250  -29.7960   20.2200 C   0  0  0  0  0  2  0  0  0  0  0  0
  -24.6840  -31.0720   22.1310 N   0  0  0  0  0  0  0  0  0  0  0  0
  -23.5380  -32.1640   23.7640 O   0  0  0  0  0  0  0  0  0  0  0  0
  -22.7530  -29.4700   22.5650 C   0  0  0  0  0  0  0  0  0  0  0  0
  -21.4260  -29.2920   22.4450 N   0  0  0  0  0  0  0  0  0  0  0  0
  -23.4340  -28.8490   23.3830 O   0  0  0  0  0  0  0  0  0  0  0  0
  -20.9340  -29.8460   21.7590 H   0  0  0  0  0  0  0  0  0  0  0  0
  -18.0540  -28.0760   22.9520 C   0  0  0  0  0  0  0  0  0  0  0  0
  -20.6110  -28.3540   23.2200 C   0  0  0  0  0  3  0  0  0  0  0  0
  -20.7220  -26.9190   22.6540 C   0  0  0  0  0  2  0  0  0  0  0  0
  -19.6220  -26.5820   21.6430 C   0  0  0  0  0  2  0  0  0  0  0  0
  -18.2380  -26.7240   22.2850 C   0  0  0  0  0  2  0  0  0  0  0  0
  -19.1670  -28.8480   23.3770 C   0  0  0  0  0  0  0  0  0  0  0  0
  -18.9410  -30.1130   23.9620 C   0  0  0  0  0  3  0  0  0  0  0  0
  -17.6320  -30.6060   24.1260 C   0  0  0  0  0  3  0  0  0  0  0  0
  -16.5320  -29.8320   23.7170 C   0  0  0  0  0  3  0  0  0  0  0  0
  -16.7440  -28.5690   23.1370 C   0  0  0  0  0  3  0  0  0  0  0  0
  -25.9030  -32.5250   23.8430 C   0  0  0  0  0  3  0  0  0  0  0  0
  -26.4280  -31.7570   25.1190 C   0  0  1  0  0  0  0  0  0  0  0  0
  -25.3410  -31.5220   26.1950 C   0  0  0  0  0  1  0  0  0  0  0  0
  -27.0090  -30.3790   24.7270 C   0  0  0  0  0  1  0  0  0  0  0  0
  -27.5810  -32.5540   25.7720 C   0  0  0  0  0  1  0  0  0  0  0  0
  -25.5900  -33.9220   24.1750 N   0  0  0  0  0  0  0  0  0  0  0  0
  -25.9180  -34.9780   23.4190 C   0  0  0  0  0  0  0  0  0  0  0  0
  -26.5830  -34.8790   22.3850 O   0  0  0  0  0  0  0  0  0  0  0  0
  -25.0060  -34.0760   24.9830 H   0  0  0  0  0  0  0  0  0  0  0  0
  -24.1860  -36.7710   23.0800 C   0  0  0  0  0  1  0  0  0  0  0  0
  -25.4310  -36.3660   23.8840 C   0  0  0  0  0  3  0  0  0  0  0  0
  -27.5710  -37.2500   24.7020 C   0  0  0  0  0  1  0  0  0  0  0  0
  -26.4620  -37.4200   23.7680 N   0  0  0  0  0  0  0  0  0  0  0  0
  -26.0550  -38.3390   23.9240 H   0  0  0  0  0  0  0  0  0  0  0  0
  1  2  1  0
  1  4  1  0
  2  5  1  0
  3  5  1  0
  3  4  1  0
  4 50  1  0
  5 10  1  0
  6  7  2  0
  6  9  1  0
  7 10  1  0
  8 11  1  0
  9  8  2  0
 10  8  1  0
 12 20  1  0
 13 18  1  0
 14 15  1  0
 14 13  1  0
 16 15  1  0
 16 25  1  0
 16 17  1  0
 18 12  1  0
 18 17  1  0
 19 12  2  0
 20 21  1  0
 20 11  1  0
 22 23  2  0
 23 42  1  0
 24 23  1  0
 24 27  1  0
 25 22  1  0
 25 26  1  0
 26 24  2  0
 27 28  1  0
 28 29  2  0
 30 33  1  0
 30 29  1  0
 31 30  2  0
 32 31  1  0
 32 27  2  0
 33 34  1  0
 34 35  1  0
 35 36  2  0
 37 36  1  0
 37 41  1  0
 38 37  2  0
 39 34  2  0
 39 38  1  0
 40 39  1  0
 42 43  1  0
 43 46  1  0
 43 45  1  0
 44 42  2  0
 47 48  1  0
 47 22  1  0
 49 47  1  0
 51 53  1  0
 51 50  1  0
 52 63  2  0
 53 58  1  0
 54 62  1  0
 54 64  1  0
 55 61  1  0
 55 57  1  0
 56 62  1  0
 57 56  1  0
 58 57  2  0
 59 53  2  0
 60 59  1  0
 60 55  2  0
 61 54  1  0
 62 52  1  0
 64 66  2  0
 65 64  1  0
 67 65  1  0
 68 77  2  0
 68 73  1  0
 69 65  1  0
 69 73  1  0
 70 69  1  0
 71 72  1  0
 71 70  1  0
 72 68  1  0
 73 74  2  0
 74 75  1  0
 76 75  2  0
 77 76  1  0
 78 52  1  0
 78 83  1  0
 78 79  1  0
 79 82  1  1
 79 80  1  0
 81 79  1  0
 83 86  1  0
 84 88  1  0
 84 83  1  0
 85 84  2  0
 88 87  1  0
 90 88  1  0
 90 91  1  0
 90 89  1  0
M  ISO  4  12 100  20 100  50 101  51 101
M  END
>  <TORSDO>  (86) 
F 19

>  <SCORE>  (86) 
-14.153

>  <name>  (86) 
85

>  <ligand_id>  (86) 
85

>  <original_smiles>  (86) 
[H]c1nc(C([H])([H])N([H])C(=O)N2C([H])([H])C([H])([H])C([H])([H])C([H])(n3nc(-c4c([H])c([H])c(Oc5c([H])c([H])c(F)c([H])c5F)c([H])c4[H])c(C(=O)N([H])[H])c3N([H])[H])C2([H])[H])n(C2([H])C([H])([H])C([H])([H])C([H])(C([H])([H])Oc3c([H])c([H])c4c(c3[H])C([H])([H])N(C(=O)C([H])(N([H])C(=O)C([H])(N([H])C([H])([H])[H])C([H])([H])[H])C(C([H])([H])[H])(C([H])([H])[H])C([H])([H])[H])C([H])(C(=O)N([H])C3([H])c5c([H])c([H])c([H])c([H])c5C([H])([H])C([H])([H])C3([H])[H])C4([H])[H])C2([H])[H])c1[H]

>  <smiles>  (86) 
[H]c1nc(C([H])([H])N([H])C(=O)N2C([H])([H])C([H])([H])C([H])([H])C([H])(n3nc(-c4c([H])c([H])c(Oc5c([H])c([H])c(F)c([H])c5F)c([H])c4[H])c(C(=O)N([H])[H])c3N([H])[H])C2([H])[H])n(C2([H])C([H])([H])C([H])([H])C([H])(C([H])([H])Oc3c([H])c([H])c4c(c3[H])C([H])([H])N(C(=O)C([H])(N([H])C(=O)C([H])(N([H])C([H])([H])[H])C([H])([H])[H])C(C([H])([H])[H])(C([H])([H])[H])C([H])([H])[H])C([H])(C(=O)N([H])C3([H])c5c([H])c([H])c([H])c([H])c5C([H])([H])C([H])([H])C3([H])[H])C4([H])[H])C2([H])[H])c1[H]

$$$$
86:0:0
     RDKit          3D

101111  0  0  1  0  0  0  0  0999 V2000
  -31.8900  -20.9480   19.8490 C   0  0  0  0  0  3  0  0  0  0  0  0
  -31.3730  -24.6260   19.3190 C   0  0  0  0  0  2  0  0  0  0  0  0
  -32.1030  -23.3010   19.0430 C   0  0  0  0  0  2  0  0  0  0  0  0
  -30.0710  -22.8530   20.2050 C   0  0  0  0  0  2  0  0  0  0  0  0
  -29.9000  -24.2290   19.4440 C   0  0  2  0  0  0  0  0  0  0  0  0
  -31.3470  -22.2270   19.7310 N   0  0  0  0  0  0  0  0  0  0  0  0
  -33.0860  -20.7520   19.2560 N   0  0  0  0  0  0  0  0  0  0  0  0
  -33.5610  -19.8680   19.3480 H   0  0  0  0  0  0  0  0  0  0  0  0
  -33.5410  -21.4730   18.7200 H   0  0  0  0  0  0  0  0  0  0  0  0
  -31.4630  -18.3750   19.9920 C   0  0  0  0  0  3  0  0  0  0  0  0
  -31.3720  -19.7230   20.5620 C   0  0  0  0  0  0  0  0  0  0  0  0
  -30.9150  -19.7140   21.8580 C   0  0  0  0  0  0  0  0  0  0  0  0
  -31.0760  -17.3490   20.8510 C   0  0  0  0  0  0  0  0  0  0  0  0
  -30.5130  -18.0760   22.3450 S   0  0  0  0  0  0  0  0  0  0  0  0
  -31.7590  -14.9700   20.2200 C   0  0  0  0  0  0  0  0  0  0  0  0
  -31.4340  -12.7630   19.1090 C   0  0  0  0  0  2  0  0  0  0  0  0
  -30.4680  -12.9560   17.9180 C   0  0  0  0  0  2  0  0  0  0  0  0
  -28.9940  -12.8850   18.3730 C   0  0  0  0  0  2  0  0  0  0  0  0
  -28.7160  -13.7560   19.6260 C   0  0  0  0  0  3  0  0  0  0  0  0
  -29.7770  -13.4870   20.7160 C   0  0  0  0  0  2  0  0  0  0  0  0
  -31.1000  -13.7720   20.1310 N   0  0  0  0  0  0  0  0  0  0  0  0
  -32.8890  -15.1390   19.7430 O   0  0  0  0  0  0  0  0  0  0  0  0
  -31.0120  -15.9680   20.7730 N   0  0  0  0  0  0  0  0  0  0  0  0
  -30.1720  -15.5870   21.1820 H   0  0  0  0  0  0  0  0  0  0  0  0
  -26.3920  -14.5220   20.4220 C   0  0  0  0  0  0  0  0  0  0  0  0
  -25.2740  -13.8220   20.7900 C   0  0  0  0  0  0  0  0  0  0  0  0
  -25.6260  -12.4410   20.6950 C   0  0  0  0  0  0  0  0  0  0  0  0
  -27.3570  -13.5710   20.1270 N   0  0  0  0  0  0  0  0  0  0  0  0
  -26.9010  -12.3120   20.3500 N   0  0  0  0  0  0  0  0  0  0  0  0
  -24.8060  -11.2330   20.8560 C   0  0  0  0  0  0  0  0  0  0  0  0
  -25.1290  -10.2440   21.8120 C   0  0  0  0  0  3  0  0  0  0  0  0
  -24.3160   -9.0990   21.9600 C   0  0  0  0  0  3  0  0  0  0  0  0
  -23.1660   -8.9370   21.1500 C   0  0  0  0  0  0  0  0  0  0  0  0
  -22.8620   -9.9140   20.1860 C   0  0  0  0  0  3  0  0  0  0  0  0
  -23.6750  -11.0500   20.0360 C   0  0  0  0  0  3  0  0  0  0  0  0
  -22.3320   -7.8470   21.2070 O   0  0  0  0  0  0  0  0  0  0  0  0
  -22.0740   -7.1980   22.3880 C   0  0  0  0  0  0  0  0  0  0  0  0
  -21.5120   -7.8650   23.4980 C   0  0  0  0  0  3  0  0  0  0  0  0
  -21.1990   -7.1450   24.6670 C   0  0  0  0  0  3  0  0  0  0  0  0
  -21.4370   -5.7600   24.7280 C   0  0  0  0  0  0  0  0  0  0  0  0
  -21.9920   -5.0920   23.6220 C   0  0  0  0  0  3  0  0  0  0  0  0
  -22.3060   -5.8080   22.4540 C   0  0  0  0  0  0  0  0  0  0  0  0
  -22.8210   -5.1560   21.3840 F   0  0  0  0  0  0  0  0  0  0  0  0
  -21.1280   -5.0660   25.8480 F   0  0  0  0  0  0  0  0  0  0  0  0
  -23.9260  -14.3970   21.1170 C   0  0  0  0  0  0  0  0  0  0  0  0
  -23.1780  -13.7440   22.0000 N   0  0  0  0  0  0  0  0  0  0  0  0
  -23.5480  -15.4600   20.6260 O   0  0  0  0  0  0  0  0  0  0  0  0
  -23.4960  -12.8820   22.4190 H   0  0  0  0  0  0  0  0  0  0  0  0
  -22.2740  -14.1130   22.2610 H   0  0  0  0  0  0  0  0  0  0  0  0
  -26.6620  -15.8820   20.2950 N   0  0  0  0  0  0  0  0  0  0  0  0
  -25.9490  -16.5870   20.4500 H   0  0  0  0  0  0  0  0  0  0  0  0
  -27.5290  -16.2680   19.9440 H   0  0  0  0  0  0  0  0  0  0  0  0
  -31.7250  -21.6580   24.8130 C   0  0  0  0  0  2  0  0  0  0  0  0
  -30.2080  -21.8270   24.7990 C   0  0  0  0  0  2  0  0  0  0  0  0
  -32.0690  -21.2420   23.3800 C   0  0  0  0  0  2  0  0  0  0  0  0
  -29.7680  -20.7860   23.7750 C   0  0  0  0  0  2  0  0  0  0  0  0
  -30.8270  -20.7710   22.7720 N   0  0  0  0  0  0  0  0  0  0  0  0
  -29.1170  -24.8390   17.2090 C   0  0  0  0  0  1  0  0  0  0  0  0
  -29.3530  -23.8270   18.1820 O   0  0  0  0  0  0  0  0  0  0  0  0
  -28.9770  -25.3190   20.1520 C   0  0  0  0  0  2  0  0  0  0  0  0
  -28.9760  -26.7120   19.6520 O   0  0  0  0  0  0  0  0  0  0  0  0
  -24.7860  -31.4370   23.1320 C   0  0  0  0  0  0  0  0  0  0  0  0
  -27.7690  -27.4200   19.7060 C   0  0  0  0  0  0  0  0  0  0  0  0
  -23.6900  -30.0620   21.3960 C   0  0  0  0  0  3  0  0  0  0  0  0
  -25.2560  -28.7740   19.8410 C   0  0  0  0  0  0  0  0  0  0  0  0
  -26.1820  -30.6380   21.2150 C   0  0  0  0  0  2  0  0  0  0  0  0
  -26.3810  -29.3290   20.4640 C   0  0  0  0  0  0  0  0  0  0  0  0
  -27.6390  -28.6660   20.3890 C   0  0  0  0  0  3  0  0  0  0  0  0
  -26.6210  -26.9170   19.0540 C   0  0  0  0  0  3  0  0  0  0  0  0
  -25.3770  -27.5710   19.1280 C   0  0  0  0  0  3  0  0  0  0  0  0
  -23.9420  -29.5170   19.9660 C   0  0  0  0  0  2  0  0  0  0  0  0
  -24.9020  -30.7270   21.9710 N   0  0  0  0  0  0  0  0  0  0  0  0
  -23.6910  -31.5680   23.6970 O   0  0  0  0  0  0  0  0  0  0  0  0
  -23.1420  -28.9160   22.2780 C   0  0  0  0  0  0  0  0  0  0  0  0
  -21.8660  -28.5500   22.0700 N   0  0  0  0  0  0  0  0  0  0  0  0
  -23.8650  -28.3610   23.1100 O   0  0  0  0  0  0  0  0  0  0  0  0
  -21.3360  -29.0580   21.3760 H   0  0  0  0  0  0  0  0  0  0  0  0
  -18.7170  -26.7820   22.2550 C   0  0  0  0  0  0  0  0  0  0  0  0
  -21.1580  -27.4690   22.7570 C   0  0  0  0  0  3  0  0  0  0  0  0
  -21.5560  -26.0910   22.1810 C   0  0  0  0  0  2  0  0  0  0  0  0
  -20.6180  -25.6070   21.0710 C   0  0  0  0  0  2  0  0  0  0  0  0
  -19.1810  -25.4990   21.5890 C   0  0  0  0  0  2  0  0  0  0  0  0
  -19.6460  -27.7140   22.7900 C   0  0  0  0  0  0  0  0  0  0  0  0
  -19.1610  -28.9070   23.3690 C   0  0  0  0  0  3  0  0  0  0  0  0
  -17.7800  -29.1750   23.4200 C   0  0  0  0  0  3  0  0  0  0  0  0
  -16.8640  -28.2420   22.9030 C   0  0  0  0  0  3  0  0  0  0  0  0
  -17.3330  -27.0470   22.3270 C   0  0  0  0  0  3  0  0  0  0  0  0
  -26.0160  -32.1340   23.7900 C   0  0  0  0  0  3  0  0  0  0  0  0
  -26.5920  -31.3400   25.0260 C   0  0  1  0  0  0  0  0  0  0  0  0
  -25.5220  -30.9750   26.0820 C   0  0  0  0  0  1  0  0  0  0  0  0
  -27.2700  -30.0280   24.5680 C   0  0  0  0  0  1  0  0  0  0  0  0
  -27.6830  -32.1830   25.7260 C   0  0  0  0  0  1  0  0  0  0  0  0
  -25.5990  -33.4840   24.1890 N   0  0  0  0  0  0  0  0  0  0  0  0
  -25.8410  -34.5960   23.4820 C   0  0  0  0  0  0  0  0  0  0  0  0
  -26.5110  -34.5970   22.4450 O   0  0  0  0  0  0  0  0  0  0  0  0
  -25.0000  -33.5510   24.9980 H   0  0  0  0  0  0  0  0  0  0  0  0
  -23.9600  -36.2470   23.2370 C   0  0  0  0  0  1  0  0  0  0  0  0
  -25.2470  -35.9170   24.0080 C   0  0  0  0  0  3  0  0  0  0  0  0
  -27.3140  -36.9480   24.8430 C   0  0  0  0  0  1  0  0  0  0  0  0
  -26.1840  -37.0590   23.9240 N   0  0  0  0  0  0  0  0  0  0  0  0
  -25.7040  -37.9330   24.1160 H   0  0  0  0  0  0  0  0  0  0  0  0
  1  7  1  0
  1 11  1  0
  2  5  1  0
  3  2  1  0
  3  6  1  0
  5 60  1  1
  5  4  1  0
  6  1  1  0
  6  4  1  0
  7  8  1  0
  9  7  1  0
 10 11  1  0
 10 13  2  0
 11 12  2  0
 12 14  1  0
 12 57  1  0
 13 14  1  0
 15 23  1  0
 16 21  1  0
 17 18  1  0
 17 16  1  0
 19 18  1  0
 19 28  1  0
 19 20  1  0
 21 15  1  0
 21 20  1  0
 22 15  2  0
 23 13  1  0
 23 24  1  0
 25 26  2  0
 26 45  1  0
 27 26  1  0
 27 30  1  0
 28 29  1  0
 28 25  1  0
 29 27  2  0
 30 31  1  0
 31 32  2  0
 33 36  1  0
 33 32  1  0
 34 33  2  0
 35 34  1  0
 35 30  2  0
 36 37  1  0
 37 42  2  0
 37 38  1  0
 38 39  2  0
 39 40  1  0
 40 44  1  0
 41 40  2  0
 42 41  1  0
 43 42  1  0
 45 46  1  0
 46 49  1  0
 46 48  1  0
 47 45  2  0
 50 25  1  0
 50 51  1  0
 52 50  1  0
 54 53  1  0
 55 53  1  0
 56 54  1  0
 57 55  1  0
 57 56  1  0
 58 59  1  0
 59  5  1  0
 61 63  1  0
 61 60  1  0
 62 73  2  0
 63 68  1  0
 64 72  1  0
 64 74  1  0
 65 71  1  0
 65 67  1  0
 66 72  1  0
 67 66  1  0
 68 67  2  0
 69 70  1  0
 69 63  2  0
 70 65  2  0
 71 64  1  0
 72 62  1  0
 74 76  2  0
 75 74  1  0
 77 75  1  0
 78 87  2  0
 78 83  1  0
 79 75  1  0
 79 83  1  0
 80 79  1  0
 81 82  1  0
 81 80  1  0
 82 78  1  0
 83 84  2  0
 84 85  1  0
 86 85  2  0
 87 86  1  0
 88 62  1  0
 88 93  1  0
 88 89  1  0
 89 92  1  1
 89 90  1  0
 91 89  1  0
 93 96  1  0
 94 98  1  0
 94 93  1  0
 95 94  2  0
 98 97  1  0
100 98  1  0
100101  1  0
100 99  1  0
M  ISO  4  15 100  23 100  60 101  61 101
M  END
>  <TORSDO>  (87) 
F 20

>  <SCORE>  (87) 
-10.618

>  <name>  (87) 
86

>  <ligand_id>  (87) 
86

>  <original_smiles>  (87) 
[H]c1c([H])c([H])c2c(c1[H])C([H])([H])C([H])([H])C([H])([H])C2([H])N([H])C(=O)C1([H])N(C(=O)C([H])(N([H])C(=O)C([H])(N([H])C([H])([H])[H])C([H])([H])[H])C(C([H])([H])[H])(C([H])([H])[H])C([H])([H])[H])C([H])([H])c2c([H])c(OC([H])([H])C3(OC([H])([H])[H])C([H])([H])N(C(c4c(N5C([H])([H])C([H])([H])C([H])([H])C5([H])[H])sc(N([H])C(=O)N5C([H])([H])C([H])([H])C([H])([H])C([H])(n6nc(-c7c([H])c([H])c(Oc8c([H])c([H])c(F)c([H])c8F)c([H])c7[H])c(C(=O)N([H])[H])c6N([H])[H])C5([H])[H])c4[H])=[N+]([H])[H])C([H])([H])C3([H])[H])c([H])c([H])c2C1([H])[H]

>  <smiles>  (87) 
[H]c1c([H])c([H])c2c(c1[H])C([H])([H])C([H])([H])C([H])([H])C2([H])N([H])C(=O)C1([H])N(C(=O)C([H])(N([H])C(=O)C([H])(N([H])C([H])([H])[H])C([H])([H])[H])C(C([H])([H])[H])(C([H])([H])[H])C([H])([H])[H])C([H])([H])c2c([H])c(OC([H])([H])C3(OC([H])([H])[H])C([H])([H])N(C(c4c(N5C([H])([H])C([H])([H])C([H])([H])C5([H])[H])sc(N([H])C(=O)N5C([H])([H])C([H])([H])C([H])([H])C([H])(n6nc(-c7c([H])c([H])c(Oc8c([H])c([H])c(F)c([H])c8F)c([H])c7[H])c(C(=O)N([H])[H])c6N([H])[H])C5([H])[H])c4[H])=[N+]([H])[H])C([H])([H])C3([H])[H])c([H])c([H])c2C1([H])[H]

$$$$
87:0:0
     RDKit          3D

 99108  0  0  1  0  0  0  0  0999 V2000
  -30.9220  -20.6080   20.7340 C   0  0  0  0  0  3  0  0  0  0  0  0
  -30.6450  -24.3710   20.8820 C   0  0  0  0  0  2  0  0  0  0  0  0
  -31.4140  -23.0370   20.9710 C   0  0  0  0  0  2  0  0  0  0  0  0
  -29.1900  -22.5620   20.2150 C   0  0  0  0  0  2  0  0  0  0  0  0
  -29.4410  -24.1140   19.9710 C   0  0  2  0  0  0  0  0  0  0  0  0
  -30.4920  -21.9310   20.6110 N   0  0  0  0  0  0  0  0  0  0  0  0
  -32.2050  -20.4330   21.1110 N   0  0  0  0  0  0  0  0  0  0  0  0
  -32.5610  -19.5030   21.2650 H   0  0  0  0  0  0  0  0  0  0  0  0
  -32.8280  -21.2060   21.2810 H   0  0  0  0  0  0  0  0  0  0  0  0
  -30.8310  -17.9850   20.4750 C   0  0  0  0  0  3  0  0  0  0  0  0
  -30.1990  -19.2960   20.5430 C   0  0  0  0  0  0  0  0  0  0  0  0
  -29.8160  -17.0410   20.5120 C   0  0  0  0  0  0  0  0  0  0  0  0
  -28.8550  -19.0260   20.5780 C   0  0  0  0  0  0  0  0  0  0  0  0
  -28.6030  -17.6810   20.5460 O   0  0  0  0  0  0  0  0  0  0  0  0
  -30.6440  -14.6530   20.1400 C   0  0  0  0  0  0  0  0  0  0  0  0
  -30.4110  -12.3960   19.1100 C   0  0  0  0  0  2  0  0  0  0  0  0
  -29.4240  -12.5060   17.9250 C   0  0  0  0  0  2  0  0  0  0  0  0
  -27.9610  -12.3740   18.3990 C   0  0  0  0  0  2  0  0  0  0  0  0
  -27.6520  -13.2650   19.6300 C   0  0  0  0  0  3  0  0  0  0  0  0
  -28.7390  -13.0930   20.7150 C   0  0  0  0  0  2  0  0  0  0  0  0
  -30.0400  -13.4220   20.1020 N   0  0  0  0  0  0  0  0  0  0  0  0
  -31.7770  -14.8360   19.6810 O   0  0  0  0  0  0  0  0  0  0  0  0
  -29.8330  -15.6580   20.5860 N   0  0  0  0  0  0  0  0  0  0  0  0
  -28.9720  -15.2790   20.9490 H   0  0  0  0  0  0  0  0  0  0  0  0
  -25.2970  -13.9300   20.4220 C   0  0  0  0  0  0  0  0  0  0  0  0
  -24.2220  -13.1850   20.8260 C   0  0  0  0  0  0  0  0  0  0  0  0
  -24.6460  -11.8220   20.7750 C   0  0  0  0  0  0  0  0  0  0  0  0
  -26.3090  -13.0220   20.1530 N   0  0  0  0  0  0  0  0  0  0  0  0
  -25.9240  -11.7490   20.4240 N   0  0  0  0  0  0  0  0  0  0  0  0
  -23.8940  -10.5780   20.9860 C   0  0  0  0  0  0  0  0  0  0  0  0
  -24.3390   -9.5900   21.8940 C   0  0  0  0  0  3  0  0  0  0  0  0
  -23.5890   -8.4120   22.0910 C   0  0  0  0  0  3  0  0  0  0  0  0
  -22.3810   -8.2120   21.3820 C   0  0  0  0  0  0  0  0  0  0  0  0
  -21.9550   -9.1870   20.4640 C   0  0  0  0  0  3  0  0  0  0  0  0
  -22.7050  -10.3580   20.2630 C   0  0  0  0  0  3  0  0  0  0  0  0
  -21.6000   -7.0850   21.4920 O   0  0  0  0  0  0  0  0  0  0  0  0
  -21.5830   -6.3300   22.6370 C   0  0  0  0  0  0  0  0  0  0  0  0
  -21.2310   -6.8820   23.8880 C   0  0  0  0  0  3  0  0  0  0  0  0
  -21.1580   -6.0550   25.0260 C   0  0  0  0  0  3  0  0  0  0  0  0
  -21.4280   -4.6770   24.9160 C   0  0  0  0  0  0  0  0  0  0  0  0
  -21.7730   -4.1250   23.6700 C   0  0  0  0  0  3  0  0  0  0  0  0
  -21.8470   -4.9500   22.5330 C   0  0  0  0  0  0  0  0  0  0  0  0
  -22.1600   -4.4090   21.3300 F   0  0  0  0  0  0  0  0  0  0  0  0
  -21.3500   -3.8810   26.0070 F   0  0  0  0  0  0  0  0  0  0  0  0
  -22.8470  -13.6970   21.1460 C   0  0  0  0  0  0  0  0  0  0  0  0
  -22.1370  -13.0260   22.0460 N   0  0  0  0  0  0  0  0  0  0  0  0
  -22.4130  -14.7270   20.6330 O   0  0  0  0  0  0  0  0  0  0  0  0
  -22.5000  -12.1910   22.4820 H   0  0  0  0  0  0  0  0  0  0  0  0
  -21.2160  -13.3520   22.3040 H   0  0  0  0  0  0  0  0  0  0  0  0
  -25.4910  -15.2970   20.2430 N   0  0  0  0  0  0  0  0  0  0  0  0
  -24.7430  -15.9690   20.3780 H   0  0  0  0  0  0  0  0  0  0  0  0
  -26.3340  -15.7170   19.8750 H   0  0  0  0  0  0  0  0  0  0  0  0
  -27.7950  -19.9050   20.7320 N   0  0  0  0  0  0  0  0  0  0  0  0
  -27.8830  -20.8270   21.1380 H   0  0  0  0  0  0  0  0  0  0  0  0
  -26.8530  -19.5430   20.8370 H   0  0  0  0  0  0  0  0  0  0  0  0
  -30.8010  -23.7850   17.9260 C   0  0  0  0  0  1  0  0  0  0  0  0
  -29.6840  -24.3820   18.5790 O   0  0  0  0  0  0  0  0  0  0  0  0
  -28.2330  -25.0980   20.2870 C   0  0  0  0  0  2  0  0  0  0  0  0
  -28.4200  -26.5560   20.0890 O   0  0  0  0  0  0  0  0  0  0  0  0
  -24.6330  -31.8550   23.2040 C   0  0  0  0  0  0  0  0  0  0  0  0
  -27.2800  -27.3730   20.0790 C   0  0  0  0  0  0  0  0  0  0  0  0
  -23.4360  -30.4680   21.5490 C   0  0  0  0  0  3  0  0  0  0  0  0
  -24.8950  -28.9520   20.1010 C   0  0  0  0  0  0  0  0  0  0  0  0
  -25.9710  -30.8160   21.3620 C   0  0  0  0  0  2  0  0  0  0  0  0
  -26.0600  -29.4470   20.6990 C   0  0  0  0  0  0  0  0  0  0  0  0
  -27.2570  -28.6700   20.6790 C   0  0  0  0  0  3  0  0  0  0  0  0
  -26.0930  -26.9360   19.4480 C   0  0  0  0  0  3  0  0  0  0  0  0
  -24.9130  -27.7020   19.4670 C   0  0  0  0  0  3  0  0  0  0  0  0
  -23.6510  -29.8130   20.1610 C   0  0  0  0  0  2  0  0  0  0  0  0
  -24.6980  -31.0630   22.0960 N   0  0  0  0  0  0  0  0  0  0  0  0
  -23.5480  -32.1160   23.7460 O   0  0  0  0  0  0  0  0  0  0  0  0
  -22.7850  -29.4320   22.4970 C   0  0  0  0  0  0  0  0  0  0  0  0
  -21.4590  -29.2540   22.3800 N   0  0  0  0  0  0  0  0  0  0  0  0
  -23.4730  -28.7930   23.2970 O   0  0  0  0  0  0  0  0  0  0  0  0
  -20.9630  -29.8230   21.7070 H   0  0  0  0  0  0  0  0  0  0  0  0
  -18.0860  -28.0600   22.9030 C   0  0  0  0  0  0  0  0  0  0  0  0
  -20.6490  -28.3030   23.1410 C   0  0  0  0  0  3  0  0  0  0  0  0
  -20.7350  -26.8840   22.5320 C   0  0  0  0  0  2  0  0  0  0  0  0
  -19.6170  -26.5870   21.5280 C   0  0  0  0  0  2  0  0  0  0  0  0
  -18.2460  -26.7250   22.1960 C   0  0  0  0  0  2  0  0  0  0  0  0
  -19.2130  -28.8070   23.3320 C   0  0  0  0  0  0  0  0  0  0  0  0
  -19.0090  -30.0590   23.9550 C   0  0  0  0  0  3  0  0  0  0  0  0
  -17.7090  -30.5610   24.1520 C   0  0  0  0  0  3  0  0  0  0  0  0
  -16.5960  -29.8100   23.7370 C   0  0  0  0  0  3  0  0  0  0  0  0
  -16.7850  -28.5610   23.1190 C   0  0  0  0  0  3  0  0  0  0  0  0
  -25.9130  -32.4890   23.8300 C   0  0  0  0  0  3  0  0  0  0  0  0
  -26.4350  -31.7100   25.1000 C   0  0  1  0  0  0  0  0  0  0  0  0
  -25.3430  -31.4580   26.1670 C   0  0  0  0  0  1  0  0  0  0  0  0
  -27.0250  -30.3390   24.6950 C   0  0  0  0  0  1  0  0  0  0  0  0
  -27.5820  -32.5050   25.7670 C   0  0  0  0  0  1  0  0  0  0  0  0
  -25.5950  -33.8820   24.1740 N   0  0  0  0  0  0  0  0  0  0  0  0
  -25.9140  -34.9440   23.4200 C   0  0  0  0  0  0  0  0  0  0  0  0
  -26.5750  -34.8530   22.3820 O   0  0  0  0  0  0  0  0  0  0  0  0
  -25.0070  -34.0260   24.9810 H   0  0  0  0  0  0  0  0  0  0  0  0
  -24.1630  -36.7210   23.1010 C   0  0  0  0  0  1  0  0  0  0  0  0
  -25.4200  -36.3250   23.8920 C   0  0  0  0  0  3  0  0  0  0  0  0
  -27.5570  -37.2260   24.7000 C   0  0  0  0  0  1  0  0  0  0  0  0
  -26.4410  -37.3880   23.7720 N   0  0  0  0  0  0  0  0  0  0  0  0
  -26.0280  -38.3030   23.9290 H   0  0  0  0  0  0  0  0  0  0  0  0
  1  7  1  0
  2  3  1  0
  4  6  1  0
  5  4  1  0
  5 58  1  1
  5  2  1  0
  6  1  1  0
  6  3  1  0
  7  8  1  0
  7  9  1  0
 10 12  2  0
 10 11  1  0
 11 13  2  0
 11  1  1  0
 12 14  1  0
 12 23  1  0
 13 53  1  0
 14 13  1  0
 15 23  1  0
 16 21  1  0
 17 18  1  0
 17 16  1  0
 19 18  1  0
 19 28  1  0
 19 20  1  0
 21 15  1  0
 21 20  1  0
 22 15  2  0
 23 24  1  0
 25 26  2  0
 26 45  1  0
 27 26  1  0
 27 30  1  0
 28 25  1  0
 28 29  1  0
 29 27  2  0
 30 31  1  0
 31 32  2  0
 33 36  1  0
 33 32  1  0
 34 33  2  0
 35 34  1  0
 35 30  2  0
 36 37  1  0
 37 38  1  0
 38 39  2  0
 40 39  1  0
 40 44  1  0
 41 40  2  0
 42 37  2  0
 42 41  1  0
 43 42  1  0
 45 46  1  0
 46 49  1  0
 46 48  1  0
 47 45  2  0
 50 51  1  0
 50 25  1  0
 52 50  1  0
 53 55  1  0
 53 54  1  0
 56 57  1  0
 57  5  1  0
 59 58  1  0
 60 71  2  0
 61 59  1  0
 61 66  1  0
 62 70  1  0
 62 72  1  0
 63 69  1  0
 63 65  1  0
 64 70  1  0
 65 64  1  0
 66 65  2  0
 67 68  1  0
 67 61  2  0
 68 63  2  0
 69 62  1  0
 70 60  1  0
 72 74  2  0
 73 72  1  0
 75 73  1  0
 76 85  2  0
 76 81  1  0
 77 73  1  0
 77 81  1  0
 78 77  1  0
 79 80  1  0
 79 78  1  0
 80 76  1  0
 81 82  2  0
 82 83  1  0
 84 83  2  0
 85 84  1  0
 86 60  1  0
 86 91  1  0
 86 87  1  0
 87 90  1  1
 87 88  1  0
 89 87  1  0
 91 94  1  0
 92 96  1  0
 92 91  1  0
 93 92  2  0
 96 95  1  0
 98 96  1  0
 98 99  1  0
 98 97  1  0
M  ISO  4  15 100  23 100  58 101  59 101
M  END
>  <TORSDO>  (88) 
F 20

>  <SCORE>  (88) 
-14.433

>  <name>  (88) 
87

>  <ligand_id>  (88) 
87

>  <original_smiles>  (88) 
[H]c1c([H])c([H])c2c(c1[H])C([H])([H])C([H])([H])C([H])([H])C2([H])N([H])C(=O)C1([H])N(C(=O)C([H])(N([H])C(=O)C([H])(N([H])C([H])([H])[H])C([H])([H])[H])C(C([H])([H])[H])(C([H])([H])[H])C([H])([H])[H])C([H])([H])c2c([H])c(OC([H])([H])C3(OC([H])([H])[H])C([H])([H])N(C(c4c(N([H])[H])oc(N([H])C(=O)N5C([H])([H])C([H])([H])C([H])([H])C([H])(n6nc(-c7c([H])c([H])c(Oc8c([H])c([H])c(F)c([H])c8F)c([H])c7[H])c(C(=O)N([H])[H])c6N([H])[H])C5([H])[H])c4[H])=[N+]([H])[H])C([H])([H])C3([H])[H])c([H])c([H])c2C1([H])[H]

>  <smiles>  (88) 
[H]c1c([H])c([H])c2c(c1[H])C([H])([H])C([H])([H])C([H])([H])C2([H])N([H])C(=O)C1([H])N(C(=O)C([H])(N([H])C(=O)C([H])(N([H])C([H])([H])[H])C([H])([H])[H])C(C([H])([H])[H])(C([H])([H])[H])C([H])([H])[H])C([H])([H])c2c([H])c(OC([H])([H])C3(OC([H])([H])[H])C([H])([H])N(C(c4c(N([H])[H])oc(N([H])C(=O)N5C([H])([H])C([H])([H])C([H])([H])C([H])(n6nc(-c7c([H])c([H])c(Oc8c([H])c([H])c(F)c([H])c8F)c([H])c7[H])c(C(=O)N([H])[H])c6N([H])[H])C5([H])[H])c4[H])=[N+]([H])[H])C([H])([H])C3([H])[H])c([H])c([H])c2C1([H])[H]

$$$$
88:0:0
     RDKit          3D

101111  0  0  1  0  0  0  0  0999 V2000
  -30.9960  -20.3260   20.5080 C   0  0  0  0  0  3  0  0  0  0  0  0
  -29.3890  -18.5070   20.3010 C   0  0  0  0  0  3  0  0  0  0  0  0
  -31.7270  -17.9560   20.5050 C   0  0  0  0  0  3  0  0  0  0  0  0
  -29.6440  -19.9490   20.3860 C   0  0  0  0  0  0  0  0  0  0  0  0
  -32.0220  -19.3440   20.5620 C   0  0  0  0  0  0  0  0  0  0  0  0
  -30.4040  -17.4680   20.3770 C   0  0  0  0  0  0  0  0  0  0  0  0
  -30.8820  -14.8670   20.1360 C   0  0  0  0  0  0  0  0  0  0  0  0
  -30.6640  -12.5800   19.1330 C   0  0  0  0  0  2  0  0  0  0  0  0
  -29.6810  -12.6350   17.9420 C   0  0  0  0  0  2  0  0  0  0  0  0
  -28.2290  -12.4490   18.4270 C   0  0  0  0  0  2  0  0  0  0  0  0
  -27.8920  -13.3350   19.6540 C   0  0  0  0  0  3  0  0  0  0  0  0
  -28.9920  -13.2650   20.7360 C   0  0  0  0  0  2  0  0  0  0  0  0
  -30.2590  -13.6360   20.0920 N   0  0  0  0  0  0  0  0  0  0  0  0
  -32.0550  -14.9560   19.7660 O   0  0  0  0  0  0  0  0  0  0  0  0
  -30.1030  -15.9990   20.3830 N   0  0  0  0  0  0  0  0  0  0  0  0
  -29.1400  -15.7690   20.5730 H   0  0  0  0  0  0  0  0  0  0  0  0
  -25.5430  -13.9120   20.5040 C   0  0  0  0  0  0  0  0  0  0  0  0
  -24.4900  -13.1320   20.8980 C   0  0  0  0  0  0  0  0  0  0  0  0
  -24.9440  -11.7810   20.8060 C   0  0  0  0  0  0  0  0  0  0  0  0
  -26.5700  -13.0360   20.1950 N   0  0  0  0  0  0  0  0  0  0  0  0
  -26.2200  -11.7470   20.4400 N   0  0  0  0  0  0  0  0  0  0  0  0
  -24.2180  -10.5160   20.9880 C   0  0  0  0  0  0  0  0  0  0  0  0
  -24.6410   -9.5500   21.9280 C   0  0  0  0  0  3  0  0  0  0  0  0
  -23.9150   -8.3510   22.0990 C   0  0  0  0  0  3  0  0  0  0  0  0
  -22.7520   -8.1100   21.3280 C   0  0  0  0  0  0  0  0  0  0  0  0
  -22.3490   -9.0640   20.3770 C   0  0  0  0  0  3  0  0  0  0  0  0
  -23.0750  -10.2540   20.2050 C   0  0  0  0  0  3  0  0  0  0  0  0
  -22.0000   -6.9620   21.4080 O   0  0  0  0  0  0  0  0  0  0  0  0
  -21.8920   -6.2520   22.5770 C   0  0  0  0  0  0  0  0  0  0  0  0
  -21.3450   -6.8230   23.7470 C   0  0  0  0  0  3  0  0  0  0  0  0
  -21.1890   -6.0360   24.9060 C   0  0  0  0  0  3  0  0  0  0  0  0
  -21.5670   -4.6800   24.8950 C   0  0  0  0  0  0  0  0  0  0  0  0
  -22.1070   -4.1090   23.7280 C   0  0  0  0  0  3  0  0  0  0  0  0
  -22.2650   -4.8930   22.5710 C   0  0  0  0  0  0  0  0  0  0  0  0
  -22.7660   -4.3320   21.4440 F   0  0  0  0  0  0  0  0  0  0  0  0
  -21.4100   -3.9220   26.0050 F   0  0  0  0  0  0  0  0  0  0  0  0
  -23.1080  -13.6070   21.2410 C   0  0  0  0  0  0  0  0  0  0  0  0
  -22.4120  -12.8860   22.1140 N   0  0  0  0  0  0  0  0  0  0  0  0
  -22.6550  -14.6510   20.7740 O   0  0  0  0  0  0  0  0  0  0  0  0
  -22.7910  -12.0390   22.5120 H   0  0  0  0  0  0  0  0  0  0  0  0
  -21.4870  -13.1840   22.3880 H   0  0  0  0  0  0  0  0  0  0  0  0
  -25.7050  -15.2860   20.3570 N   0  0  0  0  0  0  0  0  0  0  0  0
  -24.9350  -15.9320   20.4950 H   0  0  0  0  0  0  0  0  0  0  0  0
  -26.5120  -15.7210   19.9300 H   0  0  0  0  0  0  0  0  0  0  0  0
  -28.5180  -20.9900   20.5400 C   0  0  0  0  0  3  0  0  0  0  0  0
  -27.2530  -24.5380   20.8880 C   0  0  0  0  0  2  0  0  0  0  0  0
  -27.0790  -23.0220   20.7540 C   0  0  0  0  0  2  0  0  0  0  0  0
  -29.2690  -23.6180   20.0550 C   0  0  0  0  0  2  0  0  0  0  0  0
  -28.3030  -24.9150   19.8470 C   0  0  0  0  0  3  0  0  0  0  0  0
  -28.3950  -22.4020   20.4200 N   0  0  0  0  0  0  0  0  0  0  0  0
  -27.3930  -20.3820   20.9240 N   0  0  0  0  0  0  0  0  0  0  0  0
  -27.4310  -19.4020   21.1530 H   0  0  0  0  0  0  0  0  0  0  0  0
  -26.5230  -20.8680   21.0490 H   0  0  0  0  0  0  0  0  0  0  0  0
  -28.6310  -26.4020   19.9540 O   0  0  0  0  0  0  0  0  0  0  0  0
  -24.8890  -31.7000   23.2840 C   0  0  0  0  0  0  0  0  0  0  0  0
  -27.5680  -27.3540   19.9150 C   0  0  0  0  0  0  0  0  0  0  0  0
  -23.7390  -30.4700   21.4830 C   0  0  0  0  0  3  0  0  0  0  0  0
  -25.2320  -29.0480   19.9660 C   0  0  0  0  0  0  0  0  0  0  0  0
  -26.2920  -30.7620   21.4230 C   0  0  0  0  0  2  0  0  0  0  0  0
  -26.3870  -29.4450   20.6520 C   0  0  0  0  0  0  0  0  0  0  0  0
  -27.5570  -28.6120   20.6190 C   0  0  0  0  0  3  0  0  0  0  0  0
  -26.3930  -27.0560   19.1830 C   0  0  0  0  0  3  0  0  0  0  0  0
  -25.2440  -27.8640   19.2200 C   0  0  0  0  0  3  0  0  0  0  0  0
  -24.0010  -29.9290   20.0540 C   0  0  0  0  0  2  0  0  0  0  0  0
  -24.9920  -30.9910   22.1210 N   0  0  0  0  0  0  0  0  0  0  0  0
  -23.7890  -31.9370   23.8030 O   0  0  0  0  0  0  0  0  0  0  0  0
  -23.0350  -29.3750   22.3230 C   0  0  0  0  0  0  0  0  0  0  0  0
  -21.7040  -29.2540   22.1740 N   0  0  0  0  0  0  0  0  0  0  0  0
  -23.6870  -28.6420   23.0710 O   0  0  0  0  0  0  0  0  0  0  0  0
  -21.2370  -29.8960   21.5500 H   0  0  0  0  0  0  0  0  0  0  0  0
  -18.2780  -28.1750   22.6130 C   0  0  0  0  0  0  0  0  0  0  0  0
  -20.8520  -28.2620   22.8350 C   0  0  0  0  0  3  0  0  0  0  0  0
  -20.8620  -26.9190   22.0680 C   0  0  0  0  0  2  0  0  0  0  0  0
  -19.7190  -26.7960   21.0550 C   0  0  0  0  0  2  0  0  0  0  0  0
  -18.3630  -26.9240   21.7540 C   0  0  0  0  0  2  0  0  0  0  0  0
  -19.4470  -28.8110   23.1090 C   0  0  0  0  0  0  0  0  0  0  0  0
  -19.3120  -29.9900   23.8740 C   0  0  0  0  0  3  0  0  0  0  0  0
  -18.0410  -30.5280   24.1480 C   0  0  0  0  0  3  0  0  0  0  0  0
  -16.8860  -29.8860   23.6670 C   0  0  0  0  0  3  0  0  0  0  0  0
  -17.0060  -28.7110   22.9060 C   0  0  0  0  0  3  0  0  0  0  0  0
  -26.1500  -32.2670   24.0060 C   0  0  0  0  0  3  0  0  0  0  0  0
  -26.5730  -31.4230   25.2700 C   0  0  1  0  0  0  0  0  0  0  0  0
  -25.4140  -31.1690   26.2630 C   0  0  0  0  0  1  0  0  0  0  0  0
  -27.1400  -30.0480   24.8470 C   0  0  0  0  0  1  0  0  0  0  0  0
  -27.7050  -32.1510   26.0320 C   0  0  0  0  0  1  0  0  0  0  0  0
  -25.8580  -33.6560   24.3880 N   0  0  0  0  0  0  0  0  0  0  0  0
  -26.2100  -34.7350   23.6750 C   0  0  0  0  0  0  0  0  0  0  0  0
  -26.8840  -34.6620   22.6430 O   0  0  0  0  0  0  0  0  0  0  0  0
  -25.2630  -33.7880   25.1930 H   0  0  0  0  0  0  0  0  0  0  0  0
  -24.4920  -36.5530   23.4100 C   0  0  0  0  0  1  0  0  0  0  0  0
  -25.7430  -36.1120   24.1870 C   0  0  0  0  0  3  0  0  0  0  0  0
  -27.8900  -36.9620   25.0210 C   0  0  0  0  0  1  0  0  0  0  0  0
  -26.7830  -37.1590   24.0910 N   0  0  0  0  0  0  0  0  0  0  0  0
  -26.3830  -38.0780   24.2650 H   0  0  0  0  0  0  0  0  0  0  0  0
  -33.4770  -19.7550   20.7610 C   0  0  0  0  0  2  0  0  0  0  0  0
  -34.3010  -20.6900   18.6000 C   0  0  0  0  0  0  0  0  0  0  0  0
  -34.8460  -21.9960   18.0520 C   0  0  0  0  0  2  0  0  0  0  0  0
  -34.5250  -23.0060   19.1610 C   0  0  0  0  0  2  0  0  0  0  0  0
  -34.1840  -22.1640   20.3980 C   0  0  0  0  0  2  0  0  0  0  0  0
  -33.9420  -20.8260   19.8810 N   0  0  0  0  0  0  0  0  0  0  0  0
  -34.2290  -19.6590   17.9270 O   0  0  0  0  0  0  0  0  0  0  0  0
  1  5  1  0
  2  6  2  0
  2  4  1  0
  3  5  2  0
  4  1  2  0
  4 45  1  0
  5 95  1  0
  6 15  1  0
  6  3  1  0
  7 15  1  0
  8 13  1  0
  9 10  1  0
  9  8  1  0
 11 10  1  0
 11 20  1  0
 11 12  1  0
 13  7  1  0
 13 12  1  0
 14  7  2  0
 15 16  1  0
 17 18  2  0
 18 37  1  0
 19 18  1  0
 19 22  1  0
 20 21  1  0
 20 17  1  0
 21 19  2  0
 22 23  1  0
 23 24  2  0
 25 28  1  0
 25 24  1  0
 26 25  2  0
 27 26  1  0
 27 22  2  0
 28 29  1  0
 29 30  1  0
 30 31  2  0
 32 31  1  0
 32 36  1  0
 33 32  2  0
 34 29  2  0
 34 33  1  0
 35 34  1  0
 37 38  1  0
 38 41  1  0
 38 40  1  0
 39 37  2  0
 42 43  1  0
 42 17  1  0
 44 42  1  0
 45 51  1  0
 47 46  1  0
 48 50  1  0
 49 54  1  0
 49 48  1  0
 49 46  1  0
 50 45  1  0
 50 47  1  0
 51 53  1  0
 51 52  1  0
 55 66  2  0
 56 54  1  0
 56 61  1  0
 57 65  1  0
 57 67  1  0
 58 64  1  0
 58 60  1  0
 59 65  1  0
 60 59  1  0
 61 60  2  0
 62 63  1  0
 62 56  2  0
 63 58  2  0
 64 57  1  0
 65 55  1  0
 67 69  2  0
 68 67  1  0
 70 68  1  0
 71 80  2  0
 71 76  1  0
 72 68  1  0
 72 76  1  0
 73 72  1  0
 74 75  1  0
 74 73  1  0
 75 71  1  0
 76 77  2  0
 77 78  1  0
 79 78  2  0
 80 79  1  0
 81 55  1  0
 81 86  1  0
 81 82  1  0
 82 85  1  1
 82 83  1  0
 84 82  1  0
 86 89  1  0
 87 91  1  0
 87 86  1  0
 88 87  2  0
 91 90  1  0
 93 91  1  0
 93 94  1  0
 93 92  1  0
 96100  1  0
 97 96  1  0
 97 98  1  0
 98 99  1  0
100 99  1  0
100 95  1  0
101 96  2  0
M  ISO  4   7 100  15 100  49 101  54 101
M  END
>  <TORSDO>  (89) 
F 19

>  <SCORE>  (89) 
-13.572

>  <name>  (89) 
88

>  <ligand_id>  (89) 
88

>  <original_smiles>  (89) 
[H]c1c([H])c([H])c2c(c1[H])C([H])([H])C([H])([H])C([H])([H])C2([H])N([H])C(=O)C1([H])N(C(=O)C([H])(N([H])C(=O)C([H])(N([H])C([H])([H])[H])C([H])([H])[H])C(C([H])([H])[H])(C([H])([H])[H])C([H])([H])[H])C([H])([H])c2c([H])c(OC3([H])C([H])([H])N(C(c4c([H])c(N([H])C(=O)N5C([H])([H])C([H])([H])C([H])([H])C([H])(n6nc(-c7c([H])c([H])c(Oc8c([H])c([H])c(F)c([H])c8F)c([H])c7[H])c(C(=O)N([H])[H])c6N([H])[H])C5([H])[H])c([H])c(C([H])([H])N5C(=O)C([H])([H])C([H])([H])C5([H])[H])c4[H])=[N+]([H])[H])C([H])([H])C3([H])[H])c([H])c([H])c2C1([H])[H]

>  <smiles>  (89) 
[H]c1c([H])c([H])c2c(c1[H])C([H])([H])C([H])([H])C([H])([H])C2([H])N([H])C(=O)C1([H])N(C(=O)C([H])(N([H])C(=O)C([H])(N([H])C([H])([H])[H])C([H])([H])[H])C(C([H])([H])[H])(C([H])([H])[H])C([H])([H])[H])C([H])([H])c2c([H])c(OC3([H])C([H])([H])N(C(c4c([H])c(N([H])C(=O)N5C([H])([H])C([H])([H])C([H])([H])C([H])(n6nc(-c7c([H])c([H])c(Oc8c([H])c([H])c(F)c([H])c8F)c([H])c7[H])c(C(=O)N([H])[H])c6N([H])[H])C5([H])[H])c([H])c(C([H])([H])N5C(=O)C([H])([H])C([H])([H])C5([H])[H])c4[H])=[N+]([H])[H])C([H])([H])C3([H])[H])c([H])c([H])c2C1([H])[H]

$$$$
89:0:0
     RDKit          3D

 93102  0  0  1  0  0  0  0  0999 V2000
  -29.6100  -24.0810   20.1150 C   0  0  0  0  0  0  0  0  0  0  0  0
  -29.7840  -21.5460   23.1470 C   0  0  0  0  0  2  0  0  0  0  0  0
  -28.5650  -22.4040   22.7500 C   0  0  0  0  0  2  0  0  0  0  0  0
  -30.9790  -21.7380   22.1870 C   0  0  0  0  0  2  0  0  0  0  0  0
  -28.2690  -22.2950   21.2380 C   0  0  0  0  0  2  0  0  0  0  0  0
  -30.5730  -21.6880   20.6940 C   0  0  0  0  0  3  0  0  0  0  0  0
  -29.4590  -22.7330   20.5000 N   0  0  0  0  0  0  0  0  0  0  0  0
  -30.6920  -24.4870   19.6770 O   0  0  0  0  0  0  0  0  0  0  0  0
  -30.2150  -18.9400   20.7160 C   0  0  0  0  0  3  0  0  0  0  0  0
  -31.2580  -18.1110   18.8020 C   0  0  0  0  0  3  0  0  0  0  0  0
  -30.6530  -17.7340   19.9770 C   0  0  0  0  0  0  0  0  0  0  0  0
  -30.5380  -20.1910   20.1390 C   0  0  0  0  0  0  0  0  0  0  0  0
  -31.3200  -19.8620   18.6040 S   0  0  0  0  0  0  0  0  0  0  0  0
  -31.1790  -15.1500   20.1010 C   0  0  0  0  0  0  0  0  0  0  0  0
  -30.9880  -12.8020   19.2490 C   0  0  0  0  0  2  0  0  0  0  0  0
  -30.0610  -12.7780   18.0140 C   0  0  0  0  0  2  0  0  0  0  0  0
  -28.5880  -12.6370   18.4410 C   0  0  0  0  0  2  0  0  0  0  0  0
  -28.2010  -13.6020   19.5900 C   0  0  0  0  0  3  0  0  0  0  0  0
  -29.2500  -13.5990   20.7250 C   0  0  0  0  0  2  0  0  0  0  0  0
  -30.5540  -13.9190   20.1270 N   0  0  0  0  0  0  0  0  0  0  0  0
  -32.3530  -15.2130   19.7170 O   0  0  0  0  0  0  0  0  0  0  0  0
  -30.4420  -16.3020   20.3670 N   0  0  0  0  0  0  0  0  0  0  0  0
  -29.5550  -16.1150   20.8100 H   0  0  0  0  0  0  0  0  0  0  0  0
  -25.8360  -14.2450   20.3500 C   0  0  0  0  0  0  0  0  0  0  0  0
  -24.7510  -13.5000   20.7220 C   0  0  0  0  0  0  0  0  0  0  0  0
  -25.1690  -12.1350   20.6590 C   0  0  0  0  0  0  0  0  0  0  0  0
  -26.8510  -13.3410   20.0870 N   0  0  0  0  0  0  0  0  0  0  0  0
  -26.4550  -12.0630   20.3310 N   0  0  0  0  0  0  0  0  0  0  0  0
  -24.4040  -10.8950   20.8340 C   0  0  0  0  0  0  0  0  0  0  0  0
  -24.7760   -9.9250   21.7900 C   0  0  0  0  0  3  0  0  0  0  0  0
  -24.0130   -8.7480   21.9510 C   0  0  0  0  0  3  0  0  0  0  0  0
  -22.8630   -8.5320   21.1560 C   0  0  0  0  0  0  0  0  0  0  0  0
  -22.5080   -9.4900   20.1880 C   0  0  0  0  0  3  0  0  0  0  0  0
  -23.2730  -10.6560   20.0260 C   0  0  0  0  0  3  0  0  0  0  0  0
  -22.0800   -7.4050   21.2230 O   0  0  0  0  0  0  0  0  0  0  0  0
  -21.9030   -6.7200   22.3980 C   0  0  0  0  0  0  0  0  0  0  0  0
  -21.3560   -7.3360   23.5440 C   0  0  0  0  0  3  0  0  0  0  0  0
  -21.1270   -6.5760   24.7090 C   0  0  0  0  0  3  0  0  0  0  0  0
  -21.4340   -5.2040   24.7270 C   0  0  0  0  0  0  0  0  0  0  0  0
  -21.9730   -4.5880   23.5860 C   0  0  0  0  0  3  0  0  0  0  0  0
  -22.2050   -5.3440   22.4220 C   0  0  0  0  0  0  0  0  0  0  0  0
  -22.7060   -4.7410   21.3180 F   0  0  0  0  0  0  0  0  0  0  0  0
  -21.2060   -4.4720   25.8450 F   0  0  0  0  0  0  0  0  0  0  0  0
  -23.3730  -14.0190   21.0170 C   0  0  0  0  0  0  0  0  0  0  0  0
  -22.6360  -13.3430   21.8910 N   0  0  0  0  0  0  0  0  0  0  0  0
  -22.9600  -15.0610   20.5100 O   0  0  0  0  0  0  0  0  0  0  0  0
  -22.9800  -12.5050   22.3360 H   0  0  0  0  0  0  0  0  0  0  0  0
  -21.7110  -13.6720   22.1240 H   0  0  0  0  0  0  0  0  0  0  0  0
  -26.0370  -15.6120   20.1950 N   0  0  0  0  0  0  0  0  0  0  0  0
  -25.2780  -16.2780   20.2920 H   0  0  0  0  0  0  0  0  0  0  0  0
  -26.8850  -16.0240   19.8320 H   0  0  0  0  0  0  0  0  0  0  0  0
  -28.4160  -25.1600   20.2270 C   0  0  0  0  0  2  0  0  0  0  0  0
  -28.6820  -26.6440   20.0460 O   0  0  0  0  0  0  0  0  0  0  0  0
  -24.7190  -31.8480   23.2160 C   0  0  0  0  0  0  0  0  0  0  0  0
  -27.5520  -27.5050   20.0020 C   0  0  0  0  0  0  0  0  0  0  0  0
  -23.5840  -30.4510   21.5280 C   0  0  0  0  0  3  0  0  0  0  0  0
  -25.1140  -29.0420   20.0300 C   0  0  0  0  0  0  0  0  0  0  0  0
  -26.1080  -30.9010   21.3540 C   0  0  0  0  0  2  0  0  0  0  0  0
  -26.2610  -29.5530   20.6490 C   0  0  0  0  0  0  0  0  0  0  0  0
  -27.4810  -28.8000   20.6210 C   0  0  0  0  0  3  0  0  0  0  0  0
  -26.3780  -27.0740   19.3370 C   0  0  0  0  0  3  0  0  0  0  0  0
  -25.1800  -27.8140   19.3570 C   0  0  0  0  0  3  0  0  0  0  0  0
  -23.8300  -29.8460   20.1210 C   0  0  0  0  0  2  0  0  0  0  0  0
  -24.8220  -31.0850   22.0880 N   0  0  0  0  0  0  0  0  0  0  0  0
  -23.6240  -32.0480   23.7630 O   0  0  0  0  0  0  0  0  0  0  0  0
  -22.9820  -29.3630   22.4490 C   0  0  0  0  0  0  0  0  0  0  0  0
  -21.6730  -29.0940   22.2980 N   0  0  0  0  0  0  0  0  0  0  0  0
  -23.6900  -28.7660   23.2630 O   0  0  0  0  0  0  0  0  0  0  0  0
  -21.1520  -29.6320   21.6200 H   0  0  0  0  0  0  0  0  0  0  0  0
  -18.3950  -27.6120   22.6930 C   0  0  0  0  0  0  0  0  0  0  0  0
  -20.9150  -28.0790   23.0330 C   0  0  0  0  0  3  0  0  0  0  0  0
  -21.1510  -26.6700   22.4400 C   0  0  0  0  0  2  0  0  0  0  0  0
  -20.1040  -26.2750   21.3920 C   0  0  0  0  0  2  0  0  0  0  0  0
  -18.7000  -26.2930   22.0020 C   0  0  0  0  0  2  0  0  0  0  0  0
  -19.4350  -28.4570   23.1640 C   0  0  0  0  0  0  0  0  0  0  0  0
  -19.0960  -29.6860   23.7700 C   0  0  0  0  0  3  0  0  0  0  0  0
  -17.7490  -30.0720   23.9090 C   0  0  0  0  0  3  0  0  0  0  0  0
  -16.7250  -29.2250   23.4530 C   0  0  0  0  0  3  0  0  0  0  0  0
  -17.0480  -27.9960   22.8510 C   0  0  0  0  0  3  0  0  0  0  0  0
  -25.9680  -32.5280   23.8570 C   0  0  0  0  0  3  0  0  0  0  0  0
  -25.6070  -33.9200   24.1660 N   0  0  0  0  0  0  0  0  0  0  0  0
  -25.9420  -34.9790   23.4170 C   0  0  0  0  0  0  0  0  0  0  0  0
  -26.6550  -34.8900   22.4140 O   0  0  0  0  0  0  0  0  0  0  0  0
  -24.9740  -34.0610   24.9400 H   0  0  0  0  0  0  0  0  0  0  0  0
  -24.1840  -36.7270   22.9890 C   0  0  0  0  0  1  0  0  0  0  0  0
  -25.4010  -36.3570   23.8500 C   0  0  0  0  0  3  0  0  0  0  0  0
  -27.4790  -37.2990   24.7600 C   0  0  0  0  0  1  0  0  0  0  0  0
  -26.4100  -37.4360   23.7730 N   0  0  0  0  0  0  0  0  0  0  0  0
  -25.9750  -38.3450   23.9020 H   0  0  0  0  0  0  0  0  0  0  0  0
  -26.4780  -31.7900   25.1550 C   0  0  1  0  0  0  0  0  0  0  0  0
  -25.3700  -31.5290   26.2010 C   0  0  0  0  0  1  0  0  0  0  0  0
  -27.1140  -30.4260   24.7960 C   0  0  0  0  0  1  0  0  0  0  0  0
  -27.5890  -32.6270   25.8310 C   0  0  0  0  0  1  0  0  0  0  0  0
  1 52  1  0
  1  7  1  0
  3  2  1  0
  4  2  1  0
  5  3  1  0
  6 12  1  0
  6  4  1  0
  7  6  1  0
  7  5  1  0
  8  1  2  0
 10 11  2  0
 11 22  1  0
 11  9  1  0
 12  9  2  0
 13 10  1  0
 13 12  1  0
 14 20  1  0
 14 22  1  0
 15 20  1  0
 16 17  1  0
 16 15  1  0
 18 17  1  0
 18 27  1  0
 18 19  1  0
 20 19  1  0
 21 14  2  0
 22 23  1  0
 24 25  2  0
 25 44  1  0
 26 25  1  0
 26 29  1  0
 27 28  1  0
 27 24  1  0
 28 26  2  0
 29 30  1  0
 30 31  2  0
 32 35  1  0
 32 31  1  0
 33 32  2  0
 34 33  1  0
 34 29  2  0
 35 36  1  0
 36 41  2  0
 36 37  1  0
 37 38  2  0
 38 39  1  0
 39 43  1  0
 40 39  2  0
 41 40  1  0
 42 41  1  0
 44 45  1  0
 45 48  1  0
 45 47  1  0
 46 44  2  0
 49 50  1  0
 49 24  1  0
 51 49  1  0
 53 52  1  0
 54 65  2  0
 55 53  1  0
 55 60  1  0
 56 64  1  0
 56 66  1  0
 57 63  1  0
 57 59  1  0
 58 64  1  0
 59 58  1  0
 60 59  2  0
 61 62  1  0
 61 55  2  0
 62 57  2  0
 63 56  1  0
 64 54  1  0
 66 68  2  0
 67 66  1  0
 69 67  1  0
 70 79  2  0
 70 75  1  0
 71 67  1  0
 71 75  1  0
 72 71  1  0
 73 74  1  0
 73 72  1  0
 74 70  1  0
 75 76  2  0
 76 77  1  0
 78 77  2  0
 79 78  1  0
 80 54  1  0
 80 81  1  0
 80 90  1  0
 81 84  1  0
 82 86  1  0
 82 81  1  0
 83 82  2  0
 86 85  1  0
 88 86  1  0
 88 89  1  0
 88 87  1  0
 90 93  1  1
 90 91  1  0
 92 90  1  0
M  ISO  4  14 100  22 100  52 101  53 101
M  END
>  <TORSDO>  (90) 
F 18

>  <SCORE>  (90) 
-13.617

>  <name>  (90) 
89

>  <ligand_id>  (90) 
89

>  <original_smiles>  (90) 
[H]c1sc(C2([H])N(C(=O)C([H])([H])Oc3c([H])c([H])c4c(c3[H])C([H])([H])N(C(=O)C([H])(N([H])C(=O)C([H])(N([H])C([H])([H])[H])C([H])([H])[H])C(C([H])([H])[H])(C([H])([H])[H])C([H])([H])[H])C([H])(C(=O)N([H])C3([H])c5c([H])c([H])c([H])c([H])c5C([H])([H])C([H])([H])C3([H])[H])C4([H])[H])C([H])([H])C([H])([H])C([H])([H])C2([H])[H])c([H])c1N([H])C(=O)N1C([H])([H])C([H])([H])C([H])([H])C([H])(n2nc(-c3c([H])c([H])c(Oc4c([H])c([H])c(F)c([H])c4F)c([H])c3[H])c(C(=O)N([H])[H])c2N([H])[H])C1([H])[H]

>  <smiles>  (90) 
[H]c1sc(C2([H])N(C(=O)C([H])([H])Oc3c([H])c([H])c4c(c3[H])C([H])([H])N(C(=O)C([H])(N([H])C(=O)C([H])(N([H])C([H])([H])[H])C([H])([H])[H])C(C([H])([H])[H])(C([H])([H])[H])C([H])([H])[H])C([H])(C(=O)N([H])C3([H])c5c([H])c([H])c([H])c([H])c5C([H])([H])C([H])([H])C3([H])[H])C4([H])[H])C([H])([H])C([H])([H])C([H])([H])C2([H])[H])c([H])c1N([H])C(=O)N1C([H])([H])C([H])([H])C([H])([H])C([H])(n2nc(-c3c([H])c([H])c(Oc4c([H])c([H])c(F)c([H])c4F)c([H])c3[H])c(C(=O)N([H])[H])c2N([H])[H])C1([H])[H]

$$$$
90:0:0
     RDKit          3D

 94103  0  0  1  0  0  0  0  0999 V2000
  -28.6180  -23.8200   20.9690 C   0  0  0  0  0  0  0  0  0  0  0  0
  -29.2730  -21.2740   21.0030 C   0  0  0  0  0  3  0  0  0  0  0  0
  -28.7790  -24.3000   18.6630 C   0  0  0  0  0  2  0  0  0  0  0  0
  -28.9910  -22.7650   18.9000 C   0  0  0  0  0  2  0  0  0  0  0  0
  -28.0920  -24.8750   19.9150 C   0  0  0  0  0  3  0  0  0  0  0  0
  -29.0030  -22.5090   20.3540 N   0  0  0  0  0  0  0  0  0  0  0  0
  -29.1660  -21.2490   22.3440 N   0  0  0  0  0  0  0  0  0  0  0  0
  -28.6230  -24.0170   22.1950 O   0  0  0  0  0  0  0  0  0  0  0  0
  -29.4130  -20.4250   22.8700 H   0  0  0  0  0  0  0  0  0  0  0  0
  -28.9260  -22.0920   22.8540 H   0  0  0  0  0  0  0  0  0  0  0  0
  -29.3460  -18.5980   20.8330 C   0  0  0  0  0  3  0  0  0  0  0  0
  -31.0670  -18.0010   19.3840 C   0  0  0  0  0  3  0  0  0  0  0  0
  -30.1290  -17.4880   20.2480 C   0  0  0  0  0  0  0  0  0  0  0  0
  -29.7040  -19.9150   20.4510 C   0  0  0  0  0  0  0  0  0  0  0  0
  -31.0050  -19.7700   19.2840 S   0  0  0  0  0  0  0  0  0  0  0  0
  -30.6780  -14.8900   20.1610 C   0  0  0  0  0  0  0  0  0  0  0  0
  -30.4650  -12.6050   19.1510 C   0  0  0  0  0  2  0  0  0  0  0  0
  -29.4990  -12.6710   17.9450 C   0  0  0  0  0  2  0  0  0  0  0  0
  -28.0420  -12.4830   18.4080 C   0  0  0  0  0  2  0  0  0  0  0  0
  -27.6910  -13.3690   19.6330 C   0  0  0  0  0  3  0  0  0  0  0  0
  -28.7740  -13.2870   20.7320 C   0  0  0  0  0  2  0  0  0  0  0  0
  -30.0570  -13.6560   20.1170 N   0  0  0  0  0  0  0  0  0  0  0  0
  -31.8470  -14.9850   19.7670 O   0  0  0  0  0  0  0  0  0  0  0  0
  -29.9270  -16.0210   20.4960 N   0  0  0  0  0  0  0  0  0  0  0  0
  -29.0360  -15.7860   20.9070 H   0  0  0  0  0  0  0  0  0  0  0  0
  -25.3190  -13.9480   20.4160 C   0  0  0  0  0  0  0  0  0  0  0  0
  -24.2630  -13.1690   20.8020 C   0  0  0  0  0  0  0  0  0  0  0  0
  -24.7280  -11.8200   20.7520 C   0  0  0  0  0  0  0  0  0  0  0  0
  -26.3590  -13.0720   20.1510 N   0  0  0  0  0  0  0  0  0  0  0  0
  -26.0120  -11.7860   20.4170 N   0  0  0  0  0  0  0  0  0  0  0  0
  -24.0070  -10.5540   20.9480 C   0  0  0  0  0  0  0  0  0  0  0  0
  -24.4340   -9.6000   21.8980 C   0  0  0  0  0  3  0  0  0  0  0  0
  -23.7120   -8.4000   22.0810 C   0  0  0  0  0  3  0  0  0  0  0  0
  -22.5520   -8.1460   21.3130 C   0  0  0  0  0  0  0  0  0  0  0  0
  -22.1450   -9.0870   20.3510 C   0  0  0  0  0  3  0  0  0  0  0  0
  -22.8660  -10.2790   20.1670 C   0  0  0  0  0  3  0  0  0  0  0  0
  -21.8030   -6.9980   21.4050 O   0  0  0  0  0  0  0  0  0  0  0  0
  -21.7060   -6.2930   22.5780 C   0  0  0  0  0  0  0  0  0  0  0  0
  -21.1840   -6.8720   23.7550 C   0  0  0  0  0  3  0  0  0  0  0  0
  -21.0400   -6.0910   24.9200 C   0  0  0  0  0  3  0  0  0  0  0  0
  -21.4060   -4.7330   24.9060 C   0  0  0  0  0  0  0  0  0  0  0  0
  -21.9200   -4.1510   23.7330 C   0  0  0  0  0  3  0  0  0  0  0  0
  -22.0660   -4.9290   22.5720 C   0  0  0  0  0  0  0  0  0  0  0  0
  -22.5420   -4.3610   21.4370 F   0  0  0  0  0  0  0  0  0  0  0  0
  -21.2590   -3.9800   26.0220 F   0  0  0  0  0  0  0  0  0  0  0  0
  -22.8700  -13.6400   21.1040 C   0  0  0  0  0  0  0  0  0  0  0  0
  -22.1620  -12.9370   21.9800 N   0  0  0  0  0  0  0  0  0  0  0  0
  -22.4210  -14.6690   20.6000 O   0  0  0  0  0  0  0  0  0  0  0  0
  -22.5420  -12.1050   22.4070 H   0  0  0  0  0  0  0  0  0  0  0  0
  -21.2280  -13.2320   22.2250 H   0  0  0  0  0  0  0  0  0  0  0  0
  -25.4770  -15.3200   20.2440 N   0  0  0  0  0  0  0  0  0  0  0  0
  -24.7090  -15.9700   20.3680 H   0  0  0  0  0  0  0  0  0  0  0  0
  -26.3070  -15.7580   19.8650 H   0  0  0  0  0  0  0  0  0  0  0  0
  -28.2570  -26.3760   20.1680 O   0  0  0  0  0  0  0  0  0  0  0  0
  -24.5710  -31.8980   23.1740 C   0  0  0  0  0  0  0  0  0  0  0  0
  -27.1650  -27.2880   20.0860 C   0  0  0  0  0  0  0  0  0  0  0  0
  -23.3670  -30.5110   21.5280 C   0  0  0  0  0  3  0  0  0  0  0  0
  -24.8160  -28.9690   20.0820 C   0  0  0  0  0  0  0  0  0  0  0  0
  -25.9140  -30.8080   21.3520 C   0  0  0  0  0  2  0  0  0  0  0  0
  -25.9900  -29.4300   20.6890 C   0  0  0  0  0  0  0  0  0  0  0  0
  -27.1640  -28.6020   20.6810 C   0  0  0  0  0  3  0  0  0  0  0  0
  -25.9690  -26.9220   19.4230 C   0  0  0  0  0  3  0  0  0  0  0  0
  -24.8130  -27.7240   19.4400 C   0  0  0  0  0  3  0  0  0  0  0  0
  -23.5820  -29.8500   20.1400 C   0  0  0  0  0  2  0  0  0  0  0  0
  -24.6370  -31.0910   22.0730 N   0  0  0  0  0  0  0  0  0  0  0  0
  -23.4870  -32.1730   23.7100 O   0  0  0  0  0  0  0  0  0  0  0  0
  -22.7040  -29.4880   22.4810 C   0  0  0  0  0  0  0  0  0  0  0  0
  -21.3770  -29.3080   22.3550 N   0  0  0  0  0  0  0  0  0  0  0  0
  -23.3830  -28.8600   23.2980 O   0  0  0  0  0  0  0  0  0  0  0  0
  -20.8870  -29.8660   21.6710 H   0  0  0  0  0  0  0  0  0  0  0  0
  -18.0010  -28.1090   22.8710 C   0  0  0  0  0  0  0  0  0  0  0  0
  -20.5630  -28.3630   23.1220 C   0  0  0  0  0  3  0  0  0  0  0  0
  -20.6570  -26.9380   22.5300 C   0  0  0  0  0  2  0  0  0  0  0  0
  -19.5470  -26.6280   21.5210 C   0  0  0  0  0  2  0  0  0  0  0  0
  -18.1700  -26.7670   22.1780 C   0  0  0  0  0  2  0  0  0  0  0  0
  -19.1240  -28.8640   23.3000 C   0  0  0  0  0  0  0  0  0  0  0  0
  -18.9110  -30.1200   23.9110 C   0  0  0  0  0  3  0  0  0  0  0  0
  -17.6080  -30.6200   24.0940 C   0  0  0  0  0  3  0  0  0  0  0  0
  -16.5010  -29.8610   23.6810 C   0  0  0  0  0  3  0  0  0  0  0  0
  -16.6980  -28.6070   23.0760 C   0  0  0  0  0  3  0  0  0  0  0  0
  -25.8520  -32.5320   23.7960 C   0  0  0  0  0  3  0  0  0  0  0  0
  -25.5390  -33.9260   24.1410 N   0  0  0  0  0  0  0  0  0  0  0  0
  -25.8600  -34.9890   23.3900 C   0  0  0  0  0  0  0  0  0  0  0  0
  -26.5220  -34.8980   22.3520 O   0  0  0  0  0  0  0  0  0  0  0  0
  -24.9490  -34.0720   24.9470 H   0  0  0  0  0  0  0  0  0  0  0  0
  -24.1290  -36.7830   23.0560 C   0  0  0  0  0  1  0  0  0  0  0  0
  -25.3690  -36.3700   23.8640 C   0  0  0  0  0  3  0  0  0  0  0  0
  -27.5070  -37.2390   24.7040 C   0  0  0  0  0  1  0  0  0  0  0  0
  -26.3960  -37.4320   23.7770 N   0  0  0  0  0  0  0  0  0  0  0  0
  -25.9830  -38.3420   23.9680 H   0  0  0  0  0  0  0  0  0  0  0  0
  -26.3720  -31.7540   25.0690 C   0  0  1  0  0  0  0  0  0  0  0  0
  -25.2800  -31.5020   26.1360 C   0  0  0  0  0  1  0  0  0  0  0  0
  -26.9620  -30.3810   24.6720 C   0  0  0  0  0  1  0  0  0  0  0  0
  -27.5190  -32.5480   25.7350 C   0  0  0  0  0  1  0  0  0  0  0  0
  1  8  2  0
  2  7  1  0
  3  4  1  0
  3  5  1  0
  4  6  1  0
  5 54  1  0
  5  1  1  0
  6  1  1  0
  6  2  1  0
  7 10  1  0
  7  9  1  0
 12 13  2  0
 13 24  1  0
 13 11  1  0
 14 11  2  0
 14  2  1  0
 15 12  1  0
 15 14  1  0
 16 24  1  0
 17 22  1  0
 18 19  1  0
 18 17  1  0
 20 19  1  0
 20 29  1  0
 20 21  1  0
 22 16  1  0
 22 21  1  0
 23 16  2  0
 24 25  1  0
 26 27  2  0
 27 46  1  0
 28 27  1  0
 28 31  1  0
 29 26  1  0
 29 30  1  0
 30 28  2  0
 31 32  1  0
 32 33  2  0
 34 37  1  0
 34 33  1  0
 35 34  2  0
 36 35  1  0
 36 31  2  0
 37 38  1  0
 38 39  1  0
 39 40  2  0
 41 40  1  0
 41 45  1  0
 42 41  2  0
 43 38  2  0
 43 42  1  0
 44 43  1  0
 46 47  1  0
 47 50  1  0
 47 49  1  0
 48 46  2  0
 51 52  1  0
 51 26  1  0
 53 51  1  0
 55 66  2  0
 56 54  1  0
 56 61  1  0
 57 65  1  0
 57 67  1  0
 58 64  1  0
 58 60  1  0
 59 65  1  0
 60 59  1  0
 61 60  2  0
 62 63  1  0
 62 56  2  0
 63 58  2  0
 64 57  1  0
 65 55  1  0
 67 69  2  0
 68 67  1  0
 70 68  1  0
 71 80  2  0
 71 76  1  0
 72 68  1  0
 72 76  1  0
 73 72  1  0
 74 75  1  0
 74 73  1  0
 75 71  1  0
 76 77  2  0
 77 78  1  0
 79 78  2  0
 80 79  1  0
 81 55  1  0
 81 82  1  0
 81 91  1  0
 82 85  1  0
 83 87  1  0
 83 82  1  0
 84 83  2  0
 87 86  1  0
 89 87  1  0
 89 90  1  0
 89 88  1  0
 91 94  1  1
 91 92  1  0
 93 91  1  0
M  ISO  4   5 101  16 100  24 100  54 101
M  END
>  <TORSDO>  (91) 
F 17

>  <SCORE>  (91) 
-15.310

>  <name>  (91) 
90

>  <ligand_id>  (91) 
90

>  <original_smiles>  (91) 
[H]c1sc(C(N2C(=O)C([H])(Oc3c([H])c([H])c4c(c3[H])C([H])([H])N(C(=O)C([H])(N([H])C(=O)C([H])(N([H])C([H])([H])[H])C([H])([H])[H])C(C([H])([H])[H])(C([H])([H])[H])C([H])([H])[H])C([H])(C(=O)N([H])C3([H])c5c([H])c([H])c([H])c([H])c5C([H])([H])C([H])([H])C3([H])[H])C4([H])[H])C([H])([H])C2([H])[H])=[N+]([H])[H])c([H])c1N([H])C(=O)N1C([H])([H])C([H])([H])C([H])([H])C([H])(n2nc(-c3c([H])c([H])c(Oc4c([H])c([H])c(F)c([H])c4F)c([H])c3[H])c(C(=O)N([H])[H])c2N([H])[H])C1([H])[H]

>  <smiles>  (91) 
[H]c1sc(C(N2C(=O)C([H])(Oc3c([H])c([H])c4c(c3[H])C([H])([H])N(C(=O)C([H])(N([H])C(=O)C([H])(N([H])C([H])([H])[H])C([H])([H])[H])C(C([H])([H])[H])(C([H])([H])[H])C([H])([H])[H])C([H])(C(=O)N([H])C3([H])c5c([H])c([H])c([H])c([H])c5C([H])([H])C([H])([H])C3([H])[H])C4([H])[H])C([H])([H])C2([H])[H])=[N+]([H])[H])c([H])c1N([H])C(=O)N1C([H])([H])C([H])([H])C([H])([H])C([H])(n2nc(-c3c([H])c([H])c(Oc4c([H])c([H])c(F)c([H])c4F)c([H])c3[H])c(C(=O)N([H])[H])c2N([H])[H])C1([H])[H]

$$$$
91:0:0
     RDKit          3D

 94103  0  0  1  0  0  0  0  0999 V2000
  -28.9350  -22.9710   20.6980 C   0  0  0  0  0  0  0  0  0  0  0  0
  -29.6030  -21.9800   20.0610 N   0  0  0  0  0  0  0  0  0  0  0  0
  -28.2630  -22.7700   21.7130 O   0  0  0  0  0  0  0  0  0  0  0  0
  -30.0560  -22.2850   19.2080 H   0  0  0  0  0  0  0  0  0  0  0  0
  -29.6900  -20.0660   21.6620 C   0  0  0  0  0  2  0  0  0  0  0  0
  -29.9890  -18.6800   21.5740 C   0  0  0  0  0  3  0  0  0  0  0  0
  -30.1090  -18.1210   20.2640 C   0  0  0  0  0  3  0  0  0  0  0  0
  -29.7500  -20.6570   20.4030 C   0  0  0  0  0  3  0  0  0  0  0  0
  -30.5840  -17.4920   22.2490 C   0  0  0  0  0  2  0  0  0  0  0  0
  -30.9010  -16.9400   20.7850 C   0  0  0  0  0  3  0  0  0  0  0  0
  -30.2950  -19.4670   19.1680 S   0  0  0  0  0  0  0  0  0  0  0  0
  -31.0160  -14.5320   20.0450 C   0  0  0  0  0  0  0  0  0  0  0  0
  -30.6540  -12.3420   18.9550 C   0  0  0  0  0  2  0  0  0  0  0  0
  -29.6800  -12.5180   17.7720 C   0  0  0  0  0  2  0  0  0  0  0  0
  -28.2180  -12.4130   18.2460 C   0  0  0  0  0  2  0  0  0  0  0  0
  -27.9270  -13.2930   19.4920 C   0  0  0  0  0  3  0  0  0  0  0  0
  -29.0110  -13.0930   20.5770 C   0  0  0  0  0  2  0  0  0  0  0  0
  -30.3180  -13.3650   19.9600 N   0  0  0  0  0  0  0  0  0  0  0  0
  -32.1400  -14.6680   19.5540 O   0  0  0  0  0  0  0  0  0  0  0  0
  -30.3570  -15.5810   20.5800 N   0  0  0  0  0  0  0  0  0  0  0  0
  -29.4220  -15.4050   20.9120 H   0  0  0  0  0  0  0  0  0  0  0  0
  -25.5730  -13.9650   20.2770 C   0  0  0  0  0  0  0  0  0  0  0  0
  -24.4950  -13.2240   20.6810 C   0  0  0  0  0  0  0  0  0  0  0  0
  -24.9180  -11.8600   20.6390 C   0  0  0  0  0  0  0  0  0  0  0  0
  -26.5840  -13.0560   20.0150 N   0  0  0  0  0  0  0  0  0  0  0  0
  -26.1950  -11.7840   20.2900 N   0  0  0  0  0  0  0  0  0  0  0  0
  -24.1630  -10.6180   20.8530 C   0  0  0  0  0  0  0  0  0  0  0  0
  -24.5610   -9.6690   21.8190 C   0  0  0  0  0  3  0  0  0  0  0  0
  -23.8090   -8.4920   22.0190 C   0  0  0  0  0  3  0  0  0  0  0  0
  -22.6420   -8.2560   21.2530 C   0  0  0  0  0  0  0  0  0  0  0  0
  -22.2630   -9.1940   20.2770 C   0  0  0  0  0  3  0  0  0  0  0  0
  -23.0160  -10.3620   20.0740 C   0  0  0  0  0  3  0  0  0  0  0  0
  -21.8640   -7.1300   21.3610 O   0  0  0  0  0  0  0  0  0  0  0  0
  -21.7380   -6.4520   22.5470 C   0  0  0  0  0  0  0  0  0  0  0  0
  -21.2410   -7.0750   23.7120 C   0  0  0  0  0  3  0  0  0  0  0  0
  -21.0630   -6.3240   24.8920 C   0  0  0  0  0  3  0  0  0  0  0  0
  -21.3720   -4.9510   24.9050 C   0  0  0  0  0  0  0  0  0  0  0  0
  -21.8630   -4.3280   23.7440 C   0  0  0  0  0  3  0  0  0  0  0  0
  -22.0420   -5.0750   22.5670 C   0  0  0  0  0  0  0  0  0  0  0  0
  -22.4940   -4.4660   21.4460 F   0  0  0  0  0  0  0  0  0  0  0  0
  -21.1950   -4.2260   26.0350 F   0  0  0  0  0  0  0  0  0  0  0  0
  -23.1210  -13.7410   20.9950 C   0  0  0  0  0  0  0  0  0  0  0  0
  -22.4060  -13.0710   21.8920 N   0  0  0  0  0  0  0  0  0  0  0  0
  -22.6930  -14.7740   20.4820 O   0  0  0  0  0  0  0  0  0  0  0  0
  -22.7650  -12.2360   22.3290 H   0  0  0  0  0  0  0  0  0  0  0  0
  -21.4850  -13.3990   22.1460 H   0  0  0  0  0  0  0  0  0  0  0  0
  -25.7710  -15.3310   20.0910 N   0  0  0  0  0  0  0  0  0  0  0  0
  -25.0260  -16.0070   20.2220 H   0  0  0  0  0  0  0  0  0  0  0  0
  -26.6200  -15.7460   19.7280 H   0  0  0  0  0  0  0  0  0  0  0  0
  -28.4480  -25.3790   20.5620 C   0  0  0  0  0  3  0  0  0  0  0  0
  -29.0820  -24.2920   20.0530 C   0  0  0  0  0  0  0  0  0  0  0  0
  -29.8470  -24.4230   18.9580 O   0  0  0  0  0  0  0  0  0  0  0  0
  -29.8120  -25.3380   18.7100 H   0  0  0  0  0  0  0  0  0  0  0  0
  -28.5340  -26.6600   20.0410 O   0  0  0  0  0  0  0  0  0  0  0  0
  -24.6620  -31.7750   23.2170 C   0  0  0  0  0  0  0  0  0  0  0  0
  -27.3740  -27.4120   20.0680 C   0  0  0  0  0  0  0  0  0  0  0  0
  -23.4710  -30.3550   21.5810 C   0  0  0  0  0  3  0  0  0  0  0  0
  -24.9460  -28.8690   20.1210 C   0  0  0  0  0  0  0  0  0  0  0  0
  -25.9860  -30.7800   21.3510 C   0  0  0  0  0  2  0  0  0  0  0  0
  -26.1000  -29.4150   20.6980 C   0  0  0  0  0  0  0  0  0  0  0  0
  -27.3210  -28.6950   20.6660 C   0  0  0  0  0  3  0  0  0  0  0  0
  -26.2030  -26.8870   19.4820 C   0  0  0  0  0  3  0  0  0  0  0  0
  -24.9930  -27.6050   19.5090 C   0  0  0  0  0  3  0  0  0  0  0  0
  -23.6790  -29.6940   20.1930 C   0  0  0  0  0  2  0  0  0  0  0  0
  -24.7260  -30.9850   22.1080 N   0  0  0  0  0  0  0  0  0  0  0  0
  -23.5820  -32.0140   23.7750 O   0  0  0  0  0  0  0  0  0  0  0  0
  -22.8600  -29.3090   22.5420 C   0  0  0  0  0  0  0  0  0  0  0  0
  -21.5510  -29.0500   22.3950 N   0  0  0  0  0  0  0  0  0  0  0  0
  -23.5640  -28.7320   23.3760 O   0  0  0  0  0  0  0  0  0  0  0  0
  -21.0420  -29.5710   21.6930 H   0  0  0  0  0  0  0  0  0  0  0  0
  -18.2640  -27.5970   22.7760 C   0  0  0  0  0  0  0  0  0  0  0  0
  -20.7750  -28.0760   23.1610 C   0  0  0  0  0  3  0  0  0  0  0  0
  -21.0230  -26.6390   22.6460 C   0  0  0  0  0  2  0  0  0  0  0  0
  -20.0040  -26.1910   21.5930 C   0  0  0  0  0  2  0  0  0  0  0  0
  -18.5840  -26.2430   22.1640 C   0  0  0  0  0  2  0  0  0  0  0  0
  -19.2930  -28.4640   23.2300 C   0  0  0  0  0  0  0  0  0  0  0  0
  -18.9430  -29.7250   23.7590 C   0  0  0  0  0  3  0  0  0  0  0  0
  -17.5950  -30.1220   23.8400 C   0  0  0  0  0  3  0  0  0  0  0  0
  -16.5800  -29.2550   23.4050 C   0  0  0  0  0  3  0  0  0  0  0  0
  -16.9140  -27.9940   22.8780 C   0  0  0  0  0  3  0  0  0  0  0  0
  -25.9390  -32.4360   23.8250 C   0  0  0  0  0  3  0  0  0  0  0  0
  -26.4880  -31.6780   25.0940 C   0  0  1  0  0  0  0  0  0  0  0  0
  -25.4130  -31.4070   26.1710 C   0  0  0  0  0  1  0  0  0  0  0  0
  -27.1060  -30.3180   24.6930 C   0  0  0  0  0  1  0  0  0  0  0  0
  -27.6230  -32.5020   25.7480 C   0  0  0  0  0  1  0  0  0  0  0  0
  -25.6030  -33.8270   24.1560 N   0  0  0  0  0  0  0  0  0  0  0  0
  -25.9280  -34.8880   23.4040 C   0  0  0  0  0  0  0  0  0  0  0  0
  -26.6130  -34.8000   22.3810 O   0  0  0  0  0  0  0  0  0  0  0  0
  -24.9960  -33.9690   24.9500 H   0  0  0  0  0  0  0  0  0  0  0  0
  -24.1780  -36.6530   23.0280 C   0  0  0  0  0  1  0  0  0  0  0  0
  -25.4110  -36.2660   23.8590 C   0  0  0  0  0  3  0  0  0  0  0  0
  -27.5170  -37.1790   24.7280 C   0  0  0  0  0  1  0  0  0  0  0  0
  -26.4280  -37.3350   23.7680 N   0  0  0  0  0  0  0  0  0  0  0  0
  -26.0050  -38.2480   23.9130 H   0  0  0  0  0  0  0  0  0  0  0  0
  1  3  2  0
  2  1  1  0
  4  2  1  0
  6  5  1  0
  6  9  1  0
  7 11  1  0
  7 10  1  0
  7  6  1  0
  8  2  1  0
  8  5  1  0
 10 20  1  0
 10  9  1  0
 11  8  1  0
 12 20  1  0
 13 18  1  0
 14 15  1  0
 14 13  1  0
 16 15  1  0
 16 25  1  0
 16 17  1  0
 18 12  1  0
 18 17  1  0
 19 12  2  0
 20 21  1  0
 22 23  2  0
 23 42  1  0
 24 23  1  0
 24 27  1  0
 25 22  1  0
 25 26  1  0
 26 24  2  0
 27 28  1  0
 28 29  2  0
 30 33  1  0
 30 29  1  0
 31 30  2  0
 32 31  1  0
 32 27  2  0
 33 34  1  0
 34 39  2  0
 34 35  1  0
 35 36  2  0
 36 37  1  0
 37 41  1  0
 38 37  2  0
 39 38  1  0
 40 39  1  0
 42 43  1  0
 43 46  1  0
 43 45  1  0
 44 42  2  0
 47 48  1  0
 47 22  1  0
 49 47  1  0
 51 50  2  0
 51  1  1  0
 52 51  1  0
 53 52  1  0
 54 56  1  0
 54 50  1  0
 55 66  2  0
 56 61  1  0
 57 65  1  0
 57 67  1  0
 58 64  1  0
 58 60  1  0
 59 65  1  0
 60 59  1  0
 61 60  2  0
 62 63  1  0
 62 56  2  0
 63 58  2  0
 64 57  1  0
 65 55  1  0
 67 69  2  0
 68 67  1  0
 70 68  1  0
 71 80  2  0
 71 76  1  0
 72 68  1  0
 72 76  1  0
 73 72  1  0
 74 75  1  0
 74 73  1  0
 75 71  1  0
 76 77  2  0
 77 78  1  0
 79 78  2  0
 80 79  1  0
 81 55  1  0
 81 86  1  0
 81 82  1  0
 82 85  1  1
 82 83  1  0
 84 82  1  0
 86 89  1  0
 87 91  1  0
 87 86  1  0
 88 87  2  0
 91 90  1  0
 93 91  1  0
 93 94  1  0
 93 92  1  0
M  ISO  4  12 100  20 100  50 101  54 101
M  END
>  <TORSDO>  (92) 
F 19

>  <SCORE>  (92) 
-13.582

>  <name>  (92) 
91

>  <ligand_id>  (92) 
91

>  <original_smiles>  (92) 
[H]OC(C(=O)N([H])c1sc2c(c1[H])C([H])([H])C2([H])N([H])C(=O)N1C([H])([H])C([H])([H])C([H])([H])C([H])(n2nc(-c3c([H])c([H])c(Oc4c([H])c([H])c(F)c([H])c4F)c([H])c3[H])c(C(=O)N([H])[H])c2N([H])[H])C1([H])[H])=C([H])Oc1c([H])c([H])c2c(c1[H])C([H])([H])N(C(=O)C([H])(N([H])C(=O)C([H])(N([H])C([H])([H])[H])C([H])([H])[H])C(C([H])([H])[H])(C([H])([H])[H])C([H])([H])[H])C([H])(C(=O)N([H])C1([H])c3c([H])c([H])c([H])c([H])c3C([H])([H])C([H])([H])C1([H])[H])C2([H])[H]

>  <smiles>  (92) 
[H]OC(C(=O)N([H])c1sc2c(c1[H])C([H])([H])C2([H])N([H])C(=O)N1C([H])([H])C([H])([H])C([H])([H])C([H])(n2nc(-c3c([H])c([H])c(Oc4c([H])c([H])c(F)c([H])c4F)c([H])c3[H])c(C(=O)N([H])[H])c2N([H])[H])C1([H])[H])=C([H])Oc1c([H])c([H])c2c(c1[H])C([H])([H])N(C(=O)C([H])(N([H])C(=O)C([H])(N([H])C([H])([H])[H])C([H])([H])[H])C(C([H])([H])[H])(C([H])([H])[H])C([H])([H])[H])C([H])(C(=O)N([H])C1([H])c3c([H])c([H])c([H])c([H])c3C([H])([H])C([H])([H])C1([H])[H])C2([H])[H]

$$$$
92:0:0
     RDKit          3D

 92101  0  0  1  0  0  0  0  0999 V2000
  -28.0280  -23.1830   20.1210 C   0  0  0  0  0  2  0  0  0  0  0  0
  -29.9090  -24.3930   20.8820 C   0  0  0  0  0  2  0  0  0  0  0  0
  -29.2920  -22.1080   20.2170 C   0  0  0  0  0  3  0  0  0  0  0  0
  -28.3910  -24.7050   20.7300 C   0  0  2  0  0  0  0  0  0  0  0  0
  -27.7620  -24.8430   22.1280 C   0  0  0  0  0  1  0  0  0  0  0  0
  -30.1470  -22.9260   21.1060 N   0  0  0  0  0  4  0  0  0  0  0  0
  -29.9130  -22.6990   22.0600 H   0  0  0  0  0  0  0  0  0  0  0  0
  -31.1180  -22.7020   20.9640 H   0  0  0  0  0  0  0  0  0  0  0  0
  -30.6220  -19.8550   20.9860 C   0  0  0  0  0  3  0  0  0  0  0  0
  -30.7720  -18.3890   20.9680 C   0  0  0  0  0  3  0  0  0  0  0  0
  -29.4670  -20.4500   20.4730 C   0  0  0  0  0  0  0  0  0  0  0  0
  -29.7310  -17.6270   20.4670 C   0  0  0  0  0  0  0  0  0  0  0  0
  -28.5170  -18.9500   19.9890 S   0  0  0  0  0  0  0  0  0  0  0  0
  -30.4260  -15.0290   20.3210 C   0  0  0  0  0  0  0  0  0  0  0  0
  -30.3550  -12.6630   19.3760 C   0  0  0  0  0  2  0  0  0  0  0  0
  -29.4130  -12.5940   18.1500 C   0  0  0  0  0  2  0  0  0  0  0  0
  -27.9540  -12.3730   18.5910 C   0  0  0  0  0  2  0  0  0  0  0  0
  -27.5480  -13.3010   19.7640 C   0  0  0  0  0  3  0  0  0  0  0  0
  -28.6050  -13.3140   20.8850 C   0  0  0  0  0  2  0  0  0  0  0  0
  -29.8620  -13.7520   20.2670 N   0  0  0  0  0  0  0  0  0  0  0  0
  -31.6370  -15.1140   20.0770 O   0  0  0  0  0  0  0  0  0  0  0  0
  -29.5780  -16.1830   20.3980 N   0  0  0  0  0  0  0  0  0  0  0  0
  -28.6090  -15.8990   20.3930 H   0  0  0  0  0  0  0  0  0  0  0  0
  -25.1750  -13.8860   20.5160 C   0  0  0  0  0  0  0  0  0  0  0  0
  -24.1120  -13.1120   20.8920 C   0  0  0  0  0  0  0  0  0  0  0  0
  -24.5750  -11.7600   20.8600 C   0  0  0  0  0  0  0  0  0  0  0  0
  -26.2140  -13.0050   20.2690 N   0  0  0  0  0  0  0  0  0  0  0  0
  -25.8640  -11.7220   20.5420 N   0  0  0  0  0  0  0  0  0  0  0  0
  -23.8480  -10.5000   21.0500 C   0  0  0  0  0  0  0  0  0  0  0  0
  -24.2840   -9.5260   21.9760 C   0  0  0  0  0  3  0  0  0  0  0  0
  -23.5550   -8.3310   22.1550 C   0  0  0  0  0  3  0  0  0  0  0  0
  -22.3760   -8.1000   21.4080 C   0  0  0  0  0  0  0  0  0  0  0  0
  -21.9590   -9.0610   20.4690 C   0  0  0  0  0  3  0  0  0  0  0  0
  -22.6890  -10.2480   20.2890 C   0  0  0  0  0  3  0  0  0  0  0  0
  -21.6190   -6.9580   21.4960 O   0  0  0  0  0  0  0  0  0  0  0  0
  -21.5800   -6.2060   22.6440 C   0  0  0  0  0  0  0  0  0  0  0  0
  -21.1670   -6.7540   23.8800 C   0  0  0  0  0  3  0  0  0  0  0  0
  -21.0770   -5.9290   25.0190 C   0  0  0  0  0  3  0  0  0  0  0  0
  -21.3890   -4.5600   24.9250 C   0  0  0  0  0  0  0  0  0  0  0  0
  -21.7950   -4.0120   23.6950 C   0  0  0  0  0  3  0  0  0  0  0  0
  -21.8870   -4.8340   22.5570 C   0  0  0  0  0  0  0  0  0  0  0  0
  -22.2590   -4.2980   21.3700 F   0  0  0  0  0  0  0  0  0  0  0  0
  -21.2940   -3.7660   26.0170 F   0  0  0  0  0  0  0  0  0  0  0  0
  -22.7180  -13.5920   21.1680 C   0  0  0  0  0  0  0  0  0  0  0  0
  -21.9910  -12.9000   22.0390 N   0  0  0  0  0  0  0  0  0  0  0  0
  -22.2810  -14.6180   20.6470 O   0  0  0  0  0  0  0  0  0  0  0  0
  -22.3580  -12.0710   22.4810 H   0  0  0  0  0  0  0  0  0  0  0  0
  -21.0560  -13.2070   22.2680 H   0  0  0  0  0  0  0  0  0  0  0  0
  -25.3370  -15.2570   20.3360 N   0  0  0  0  0  0  0  0  0  0  0  0
  -24.5580  -15.9000   20.4280 H   0  0  0  0  0  0  0  0  0  0  0  0
  -26.1620  -15.6920   19.9460 H   0  0  0  0  0  0  0  0  0  0  0  0
  -28.3130  -26.1790   20.1620 O   0  0  0  0  0  0  0  0  0  0  0  0
  -24.6450  -31.8870   23.2140 C   0  0  0  0  0  0  0  0  0  0  0  0
  -27.2210  -27.1310   20.2110 C   0  0  0  0  0  0  0  0  0  0  0  0
  -23.4480  -30.4880   21.5750 C   0  0  0  0  0  3  0  0  0  0  0  0
  -24.8950  -28.8910   20.1690 C   0  0  0  0  0  0  0  0  0  0  0  0
  -26.0040  -30.7390   21.4190 C   0  0  0  0  0  2  0  0  0  0  0  0
  -26.0760  -29.3400   20.7730 C   0  0  0  0  0  0  0  0  0  0  0  0
  -27.2410  -28.4790   20.7670 C   0  0  0  0  0  3  0  0  0  0  0  0
  -26.0100  -26.7810   19.5810 C   0  0  0  0  0  3  0  0  0  0  0  0
  -24.8760  -27.6260   19.5580 C   0  0  0  0  0  3  0  0  0  0  0  0
  -23.6730  -29.7960   20.2020 C   0  0  0  0  0  2  0  0  0  0  0  0
  -24.7200  -31.0630   22.1230 N   0  0  0  0  0  0  0  0  0  0  0  0
  -23.5580  -32.1750   23.7400 O   0  0  0  0  0  0  0  0  0  0  0  0
  -22.7620  -29.4900   22.5410 C   0  0  0  0  0  0  0  0  0  0  0  0
  -21.4340  -29.3250   22.4130 N   0  0  0  0  0  0  0  0  0  0  0  0
  -23.4290  -28.8630   23.3670 O   0  0  0  0  0  0  0  0  0  0  0  0
  -20.9540  -29.8780   21.7160 H   0  0  0  0  0  0  0  0  0  0  0  0
  -18.0480  -28.1310   22.9080 C   0  0  0  0  0  0  0  0  0  0  0  0
  -20.6060  -28.3920   23.1840 C   0  0  0  0  0  3  0  0  0  0  0  0
  -20.7100  -26.9580   22.6140 C   0  0  0  0  0  2  0  0  0  0  0  0
  -19.6120  -26.6330   21.5970 C   0  0  0  0  0  2  0  0  0  0  0  0
  -18.2270  -26.7800   22.2350 C   0  0  0  0  0  2  0  0  0  0  0  0
  -19.1660  -28.8940   23.3390 C   0  0  0  0  0  0  0  0  0  0  0  0
  -18.9460  -30.1550   23.9320 C   0  0  0  0  0  3  0  0  0  0  0  0
  -17.6410  -30.6560   24.0980 C   0  0  0  0  0  3  0  0  0  0  0  0
  -16.5380  -29.8910   23.6830 C   0  0  0  0  0  3  0  0  0  0  0  0
  -16.7420  -28.6310   23.0930 C   0  0  0  0  0  3  0  0  0  0  0  0
  -25.9210  -32.5220   23.8480 C   0  0  0  0  0  3  0  0  0  0  0  0
  -25.6070  -33.9200   24.1870 N   0  0  0  0  0  0  0  0  0  0  0  0
  -25.9280  -34.9810   23.4340 C   0  0  0  0  0  0  0  0  0  0  0  0
  -26.5850  -34.8850   22.3930 O   0  0  0  0  0  0  0  0  0  0  0  0
  -25.0250  -34.0660   24.9980 H   0  0  0  0  0  0  0  0  0  0  0  0
  -24.1860  -36.7710   23.1240 C   0  0  0  0  0  1  0  0  0  0  0  0
  -25.4440  -36.3670   23.9080 C   0  0  0  0  0  3  0  0  0  0  0  0
  -27.5920  -37.2600   24.6970 C   0  0  0  0  0  1  0  0  0  0  0  0
  -26.4700  -37.4240   23.7770 N   0  0  0  0  0  0  0  0  0  0  0  0
  -26.0630  -38.3440   23.9340 H   0  0  0  0  0  0  0  0  0  0  0  0
  -26.4280  -31.7500   25.1270 C   0  0  1  0  0  0  0  0  0  0  0  0
  -25.3310  -31.5180   26.1910 C   0  0  0  0  0  1  0  0  0  0  0  0
  -27.0110  -30.3710   24.7440 C   0  0  0  0  0  1  0  0  0  0  0  0
  -27.5780  -32.5420   25.7920 C   0  0  0  0  0  1  0  0  0  0  0  0
  1  3  1  0
  1  4  1  0
  2  6  1  0
  3 11  1  0
  3  6  1  0
  4  2  1  0
  4  5  1  1
  6  7  1  0
  8  6  1  0
 10  9  1  0
 11  9  2  0
 12 10  2  0
 13 12  1  0
 13 11  1  0
 14 22  1  0
 15 20  1  0
 16 17  1  0
 16 15  1  0
 18 17  1  0
 18 27  1  0
 18 19  1  0
 20 14  1  0
 20 19  1  0
 21 14  2  0
 22 12  1  0
 23 22  1  0
 24 25  2  0
 25 44  1  0
 26 25  1  0
 26 29  1  0
 27 24  1  0
 27 28  1  0
 28 26  2  0
 29 30  1  0
 30 31  2  0
 32 35  1  0
 32 31  1  0
 33 32  2  0
 34 33  1  0
 34 29  2  0
 35 36  1  0
 36 37  1  0
 37 38  2  0
 39 38  1  0
 39 43  1  0
 40 39  2  0
 41 36  2  0
 41 40  1  0
 42 41  1  0
 44 45  1  0
 45 48  1  0
 45 47  1  0
 46 44  2  0
 49 50  1  0
 49 24  1  0
 51 49  1  0
 52 54  1  0
 52  4  1  0
 53 64  2  0
 54 59  1  0
 55 63  1  0
 55 65  1  0
 56 62  1  0
 56 58  1  0
 57 63  1  0
 58 57  1  0
 59 58  2  0
 60 54  2  0
 61 60  1  0
 61 56  2  0
 62 55  1  0
 63 53  1  0
 65 67  2  0
 66 65  1  0
 68 66  1  0
 69 78  2  0
 69 74  1  0
 70 66  1  0
 70 74  1  0
 71 70  1  0
 72 73  1  0
 72 71  1  0
 73 69  1  0
 74 75  2  0
 75 76  1  0
 77 76  2  0
 78 77  1  0
 79 53  1  0
 79 80  1  0
 79 89  1  0
 80 83  1  0
 81 85  1  0
 81 80  1  0
 82 81  2  0
 85 84  1  0
 87 85  1  0
 87 88  1  0
 87 86  1  0
 89 92  1  1
 89 90  1  0
 91 89  1  0
M  ISO  4   4 101  14 100  22 100  52 101
M  END
>  <TORSDO>  (93) 
F 17

>  <SCORE>  (93) 
-15.202

>  <name>  (93) 
92

>  <ligand_id>  (93) 
92

>  <original_smiles>  (93) 
[H]c1c(N([H])C(=O)N2C([H])([H])C([H])([H])C([H])([H])C([H])(n3nc(-c4c([H])c([H])c(Oc5c([H])c([H])c(F)c([H])c5F)c([H])c4[H])c(C(=O)N([H])[H])c3N([H])[H])C2([H])[H])sc(C2([H])C([H])([H])C(Oc3c([H])c([H])c4c(c3[H])C([H])([H])N(C(=O)C([H])(N([H])C(=O)C([H])(N([H])C([H])([H])[H])C([H])([H])[H])C(C([H])([H])[H])(C([H])([H])[H])C([H])([H])[H])C([H])(C(=O)N([H])C3([H])c5c([H])c([H])c([H])c([H])c5C([H])([H])C([H])([H])C3([H])[H])C4([H])[H])(C([H])([H])[H])C([H])([H])[N+]2([H])[H])c1[H]

>  <smiles>  (93) 
[H]c1c(N([H])C(=O)N2C([H])([H])C([H])([H])C([H])([H])C([H])(n3nc(-c4c([H])c([H])c(Oc5c([H])c([H])c(F)c([H])c5F)c([H])c4[H])c(C(=O)N([H])[H])c3N([H])[H])C2([H])[H])sc(C2([H])C([H])([H])C(Oc3c([H])c([H])c4c(c3[H])C([H])([H])N(C(=O)C([H])(N([H])C(=O)C([H])(N([H])C([H])([H])[H])C([H])([H])[H])C(C([H])([H])[H])(C([H])([H])[H])C([H])([H])[H])C([H])(C(=O)N([H])C3([H])c5c([H])c([H])c([H])c([H])c5C([H])([H])C([H])([H])C3([H])[H])C4([H])[H])(C([H])([H])[H])C([H])([H])[N+]2([H])[H])c1[H]

$$$$
93:0:0
     RDKit          3D

 94102  0  0  1  0  0  0  0  0999 V2000
  -27.9710  -20.3560   20.2260 C   0  0  0  0  0  3  0  0  0  0  0  0
  -28.2410  -18.9180   20.2550 C   0  0  0  0  0  0  0  0  0  0  0  0
  -29.5510  -18.5600   20.5430 C   0  0  0  0  0  0  0  0  0  0  0  0
  -29.0350  -21.1790   20.5400 C   0  0  0  0  0  0  0  0  0  0  0  0
  -30.4190  -20.1020   20.8350 S   0  0  0  0  0  0  0  0  0  0  0  0
  -30.6260  -14.7790   20.3090 C   0  0  0  0  0  0  0  0  0  0  0  0
  -30.3640  -12.5210   19.2680 C   0  0  0  0  0  2  0  0  0  0  0  0
  -29.4250  -12.6030   18.0470 C   0  0  0  0  0  2  0  0  0  0  0  0
  -27.9570  -12.4370   18.4830 C   0  0  0  0  0  2  0  0  0  0  0  0
  -27.5940  -13.3210   19.7060 C   0  0  0  0  0  3  0  0  0  0  0  0
  -28.6580  -13.2400   20.8230 C   0  0  0  0  0  2  0  0  0  0  0  0
  -29.9480  -13.5840   20.2150 N   0  0  0  0  0  0  0  0  0  0  0  0
  -31.8230  -14.7890   20.0070 O   0  0  0  0  0  0  0  0  0  0  0  0
  -30.4100  -17.2590   20.6060 C   0  0  0  0  0  0  0  0  0  0  0  0
  -29.9120  -15.9610   20.5070 N   0  0  0  0  0  0  0  0  0  0  0  0
  -31.6230  -17.4450   20.7640 O   0  0  0  0  0  0  0  0  0  0  0  0
  -28.9090  -15.8820   20.5180 H   0  0  0  0  0  0  0  0  0  0  0  0
  -25.2090  -13.9070   20.4400 C   0  0  0  0  0  0  0  0  0  0  0  0
  -24.1470  -13.1320   20.8200 C   0  0  0  0  0  0  0  0  0  0  0  0
  -24.6130  -11.7810   20.7930 C   0  0  0  0  0  0  0  0  0  0  0  0
  -26.2530  -13.0280   20.2030 N   0  0  0  0  0  0  0  0  0  0  0  0
  -25.9030  -11.7460   20.4810 N   0  0  0  0  0  0  0  0  0  0  0  0
  -23.8890  -10.5180   20.9880 C   0  0  0  0  0  0  0  0  0  0  0  0
  -24.3170   -9.5590   21.9330 C   0  0  0  0  0  3  0  0  0  0  0  0
  -23.5910   -8.3630   22.1160 C   0  0  0  0  0  3  0  0  0  0  0  0
  -22.4250   -8.1160   21.3540 C   0  0  0  0  0  0  0  0  0  0  0  0
  -22.0170   -9.0630   20.3990 C   0  0  0  0  0  3  0  0  0  0  0  0
  -22.7410  -10.2520   20.2140 C   0  0  0  0  0  3  0  0  0  0  0  0
  -21.6730   -6.9700   21.4480 O   0  0  0  0  0  0  0  0  0  0  0  0
  -21.6080   -6.2440   22.6080 C   0  0  0  0  0  0  0  0  0  0  0  0
  -21.1450   -6.8090   23.8170 C   0  0  0  0  0  3  0  0  0  0  0  0
  -21.0300   -6.0070   24.9710 C   0  0  0  0  0  3  0  0  0  0  0  0
  -21.3650   -4.6410   24.9160 C   0  0  0  0  0  0  0  0  0  0  0  0
  -21.8210   -4.0760   23.7130 C   0  0  0  0  0  3  0  0  0  0  0  0
  -21.9380   -4.8740   22.5620 C   0  0  0  0  0  0  0  0  0  0  0  0
  -22.3580   -4.3180   21.4000 F   0  0  0  0  0  0  0  0  0  0  0  0
  -21.2460   -3.8700   26.0230 F   0  0  0  0  0  0  0  0  0  0  0  0
  -22.7490  -13.6080   21.0870 C   0  0  0  0  0  0  0  0  0  0  0  0
  -22.0210  -12.9130   21.9540 N   0  0  0  0  0  0  0  0  0  0  0  0
  -22.3110  -14.6300   20.5600 O   0  0  0  0  0  0  0  0  0  0  0  0
  -22.3890  -12.0860   22.3990 H   0  0  0  0  0  0  0  0  0  0  0  0
  -21.0810  -13.2120   22.1730 H   0  0  0  0  0  0  0  0  0  0  0  0
  -25.3670  -15.2750   20.2450 N   0  0  0  0  0  0  0  0  0  0  0  0
  -24.5760  -15.9040   20.3180 H   0  0  0  0  0  0  0  0  0  0  0  0
  -26.1410  -15.6790   19.7320 H   0  0  0  0  0  0  0  0  0  0  0  0
  -27.1890  -18.0220   20.0000 N   0  0  0  0  0  0  0  0  0  0  0  0
  -26.2980  -18.4670   19.8020 H   0  0  0  0  0  0  0  0  0  0  0  0
  -27.0470  -17.3300   20.7270 H   0  0  0  0  0  0  0  0  0  0  0  0
  -29.1710  -22.6170   20.7050 N   0  0  0  0  0  0  0  0  0  0  0  0
  -30.0770  -22.9340   21.0450 H   0  0  0  0  0  0  0  0  0  0  0  0
  -28.3270  -23.7410   20.1380 C   0  0  0  0  0  2  0  0  0  0  0  0
  -27.5330  -25.1560   22.1620 C   0  0  0  0  0  1  0  0  0  0  0  0
  -28.4280  -25.1640   20.9110 C   0  0  0  0  0  3  0  0  0  0  0  0
  -28.4070  -26.5000   20.2290 O   0  0  0  0  0  0  0  0  0  0  0  0
  -24.6100  -31.8920   23.2440 C   0  0  0  0  0  0  0  0  0  0  0  0
  -27.2770  -27.3360   20.2270 C   0  0  0  0  0  0  0  0  0  0  0  0
  -23.4320  -30.4870   21.5890 C   0  0  0  0  0  3  0  0  0  0  0  0
  -24.9090  -28.9410   20.1770 C   0  0  0  0  0  0  0  0  0  0  0  0
  -25.9700  -30.8250   21.4260 C   0  0  0  0  0  2  0  0  0  0  0  0
  -26.0680  -29.4430   20.7840 C   0  0  0  0  0  0  0  0  0  0  0  0
  -27.2590  -28.6540   20.7910 C   0  0  0  0  0  3  0  0  0  0  0  0
  -26.0990  -26.8860   19.6000 C   0  0  0  0  0  3  0  0  0  0  0  0
  -24.9280  -27.6710   19.5730 C   0  0  0  0  0  3  0  0  0  0  0  0
  -23.6660  -29.8120   20.2110 C   0  0  0  0  0  2  0  0  0  0  0  0
  -24.6890  -31.0860   22.1440 N   0  0  0  0  0  0  0  0  0  0  0  0
  -23.5190  -32.1600   23.7700 O   0  0  0  0  0  0  0  0  0  0  0  0
  -22.7670  -29.4650   22.5420 C   0  0  0  0  0  0  0  0  0  0  0  0
  -21.4410  -29.2870   22.4130 N   0  0  0  0  0  0  0  0  0  0  0  0
  -23.4450  -28.8340   23.3580 O   0  0  0  0  0  0  0  0  0  0  0  0
  -20.9540  -29.8510   21.7310 H   0  0  0  0  0  0  0  0  0  0  0  0
  -18.0600  -28.1050   22.9150 C   0  0  0  0  0  0  0  0  0  0  0  0
  -20.6210  -28.3440   23.1760 C   0  0  0  0  0  3  0  0  0  0  0  0
  -20.7110  -26.9190   22.5810 C   0  0  0  0  0  2  0  0  0  0  0  0
  -19.6020  -26.6180   21.5680 C   0  0  0  0  0  2  0  0  0  0  0  0
  -18.2260  -26.7630   22.2210 C   0  0  0  0  0  2  0  0  0  0  0  0
  -19.1860  -28.8540   23.3480 C   0  0  0  0  0  0  0  0  0  0  0  0
  -18.9780  -30.1100   23.9600 C   0  0  0  0  0  3  0  0  0  0  0  0
  -17.6770  -30.6160   24.1400 C   0  0  0  0  0  3  0  0  0  0  0  0
  -16.5650  -29.8630   23.7220 C   0  0  0  0  0  3  0  0  0  0  0  0
  -16.7580  -28.6090   23.1150 C   0  0  0  0  0  3  0  0  0  0  0  0
  -25.8800  -32.5340   23.8800 C   0  0  0  0  0  3  0  0  0  0  0  0
  -26.3800  -31.7770   25.1710 C   0  0  1  0  0  0  0  0  0  0  0  0
  -25.2710  -31.5460   26.2240 C   0  0  0  0  0  1  0  0  0  0  0  0
  -26.9740  -30.4000   24.8000 C   0  0  0  0  0  1  0  0  0  0  0  0
  -27.5160  -32.5820   25.8450 C   0  0  0  0  0  1  0  0  0  0  0  0
  -25.5630  -33.9350   24.1940 N   0  0  0  0  0  0  0  0  0  0  0  0
  -25.9040  -34.9840   23.4340 C   0  0  0  0  0  0  0  0  0  0  0  0
  -26.5860  -34.8750   22.4120 O   0  0  0  0  0  0  0  0  0  0  0  0
  -24.9560  -34.0930   24.9850 H   0  0  0  0  0  0  0  0  0  0  0  0
  -24.1790  -36.7740   23.0390 C   0  0  0  0  0  1  0  0  0  0  0  0
  -25.4070  -36.3750   23.8750 C   0  0  0  0  0  3  0  0  0  0  0  0
  -27.5240  -37.2680   24.7400 C   0  0  0  0  0  1  0  0  0  0  0  0
  -26.4400  -37.4290   23.7750 N   0  0  0  0  0  0  0  0  0  0  0  0
  -26.0300  -38.3490   23.9110 H   0  0  0  0  0  0  0  0  0  0  0  0
  1  2  1  0
  1  4  2  0
  2  3  2  0
  3 14  1  0
  3  5  1  0
  4 49  1  0
  4  5  1  0
  6 15  1  0
  7 12  1  0
  8  9  1  0
  8  7  1  0
 10  9  1  0
 10 21  1  0
 10 11  1  0
 12  6  1  0
 12 11  1  0
 13  6  2  0
 14 16  2  0
 15 17  1  0
 15 14  1  0
 18 19  2  0
 19 38  1  0
 20 19  1  0
 20 23  1  0
 21 18  1  0
 21 22  1  0
 22 20  2  0
 23 24  1  0
 24 25  2  0
 26 29  1  0
 26 25  1  0
 27 26  2  0
 28 27  1  0
 28 23  2  0
 29 30  1  0
 30 31  1  0
 31 32  2  0
 33 32  1  0
 33 37  1  0
 34 33  2  0
 35 30  2  0
 35 34  1  0
 36 35  1  0
 38 39  1  0
 39 42  1  0
 39 41  1  0
 40 38  2  0
 43 44  1  0
 43 18  1  0
 45 43  1  0
 46  2  1  0
 46 48  1  0
 47 46  1  0
 49 50  1  0
 51 49  1  0
 51 53  1  0
 53 52  1  0
 54 53  1  0
 55 66  2  0
 56 54  1  0
 56 61  1  0
 57 65  1  0
 57 67  1  0
 58 64  1  0
 58 60  1  0
 59 65  1  0
 60 61  2  0
 60 59  1  0
 62 56  2  0
 63 62  1  0
 63 58  2  0
 64 57  1  0
 65 55  1  0
 67 69  2  0
 68 67  1  0
 70 68  1  0
 71 80  2  0
 71 76  1  0
 72 68  1  0
 72 76  1  0
 73 72  1  0
 74 75  1  0
 74 73  1  0
 75 71  1  0
 76 77  2  0
 77 78  1  0
 79 78  2  0
 80 79  1  0
 81 55  1  0
 81 86  1  0
 81 82  1  0
 82 85  1  1
 82 83  1  0
 84 82  1  0
 86 89  1  0
 87 91  1  0
 87 86  1  0
 88 87  2  0
 91 90  1  0
 93 91  1  0
 93 94  1  0
 93 92  1  0
M  ISO  4   6 100  15 100  53 101  54 101
M  END
>  <TORSDO>  (94) 
F 20

>  <SCORE>  (94) 
-14.391

>  <name>  (94) 
93

>  <ligand_id>  (94) 
93

>  <original_smiles>  (94) 
[H]c1c([H])c([H])c2c(c1[H])C([H])([H])C([H])([H])C([H])([H])C2([H])N([H])C(=O)C1([H])N(C(=O)C([H])(N([H])C(=O)C([H])(N([H])C([H])([H])[H])C([H])([H])[H])C(C([H])([H])[H])(C([H])([H])[H])C([H])([H])[H])C([H])([H])c2c([H])c(OC([H])(C([H])([H])[H])C([H])([H])N([H])c3sc(C(=O)N([H])C(=O)N4C([H])([H])C([H])([H])C([H])([H])C([H])(n5nc(-c6c([H])c([H])c(Oc7c([H])c([H])c(F)c([H])c7F)c([H])c6[H])c(C(=O)N([H])[H])c5N([H])[H])C4([H])[H])c(N([H])[H])c3[H])c([H])c([H])c2C1([H])[H]

>  <smiles>  (94) 
[H]c1c([H])c([H])c2c(c1[H])C([H])([H])C([H])([H])C([H])([H])C2([H])N([H])C(=O)C1([H])N(C(=O)C([H])(N([H])C(=O)C([H])(N([H])C([H])([H])[H])C([H])([H])[H])C(C([H])([H])[H])(C([H])([H])[H])C([H])([H])[H])C([H])([H])c2c([H])c(OC([H])(C([H])([H])[H])C([H])([H])N([H])c3sc(C(=O)N([H])C(=O)N4C([H])([H])C([H])([H])C([H])([H])C([H])(n5nc(-c6c([H])c([H])c(Oc7c([H])c([H])c(F)c([H])c7F)c([H])c6[H])c(C(=O)N([H])[H])c5N([H])[H])C4([H])[H])c(N([H])[H])c3[H])c([H])c([H])c2C1([H])[H]

$$$$
94:0:0
     RDKit          3D

 98106  0  0  1  0  0  0  0  0999 V2000
  -29.4600  -21.1920   20.9040 C   0  0  0  0  0  0  0  0  0  0  0  0
  -29.2460  -22.3800   20.1970 N   0  0  0  0  0  0  0  0  0  0  0  0
  -29.3920  -21.2790   22.2400 N   0  0  0  0  0  4  0  0  0  0  0  0
  -29.2850  -22.2670   19.1940 H   0  0  0  0  0  0  0  0  0  0  0  0
  -29.6040  -20.4730   22.8050 H   0  0  0  0  0  0  0  0  0  0  0  0
  -29.1710  -22.1360   22.7170 H   0  0  0  0  0  0  0  0  0  0  0  0
  -29.4720  -18.4800   20.8940 C   0  0  0  0  0  3  0  0  0  0  0  0
  -29.8380  -19.8000   20.3330 C   0  0  0  0  0  0  0  0  0  0  0  0
  -30.0620  -17.3340   20.3100 C   0  0  0  0  0  0  0  0  0  0  0  0
  -30.6860  -19.6300   19.2610 C   0  0  0  0  0  0  0  0  0  0  0  0
  -31.0420  -17.9220   18.9700 S   0  0  0  0  0  0  0  0  0  0  0  0
  -30.6460  -14.8350   20.2550 C   0  0  0  0  0  0  0  0  0  0  0  0
  -30.4260  -12.5640   19.2280 C   0  0  0  0  0  2  0  0  0  0  0  0
  -29.4620  -12.6520   18.0230 C   0  0  0  0  0  2  0  0  0  0  0  0
  -28.0020  -12.4730   18.4760 C   0  0  0  0  0  2  0  0  0  0  0  0
  -27.6540  -13.3380   19.7150 C   0  0  0  0  0  3  0  0  0  0  0  0
  -28.7350  -13.2380   20.8160 C   0  0  0  0  0  2  0  0  0  0  0  0
  -30.0200  -13.6050   20.2040 N   0  0  0  0  0  0  0  0  0  0  0  0
  -31.8130  -14.9350   19.8630 O   0  0  0  0  0  0  0  0  0  0  0  0
  -29.9010  -15.9580   20.6090 N   0  0  0  0  0  0  0  0  0  0  0  0
  -29.0300  -15.7260   21.0650 H   0  0  0  0  0  0  0  0  0  0  0  0
  -25.2800  -13.9180   20.4930 C   0  0  0  0  0  0  0  0  0  0  0  0
  -24.2210  -13.1400   20.8740 C   0  0  0  0  0  0  0  0  0  0  0  0
  -24.6830  -11.7880   20.8190 C   0  0  0  0  0  0  0  0  0  0  0  0
  -26.3180  -13.0420   20.2260 N   0  0  0  0  0  0  0  0  0  0  0  0
  -25.9670  -11.7560   20.4840 N   0  0  0  0  0  0  0  0  0  0  0  0
  -23.9580  -10.5230   21.0100 C   0  0  0  0  0  0  0  0  0  0  0  0
  -24.3900   -9.5570   21.9450 C   0  0  0  0  0  3  0  0  0  0  0  0
  -23.6670   -8.3590   22.1220 C   0  0  0  0  0  3  0  0  0  0  0  0
  -22.4960   -8.1180   21.3630 C   0  0  0  0  0  0  0  0  0  0  0  0
  -22.0840   -9.0690   20.4160 C   0  0  0  0  0  3  0  0  0  0  0  0
  -22.8090  -10.2600   20.2370 C   0  0  0  0  0  3  0  0  0  0  0  0
  -21.7450   -6.9700   21.4490 O   0  0  0  0  0  0  0  0  0  0  0  0
  -21.6680   -6.2420   22.6100 C   0  0  0  0  0  0  0  0  0  0  0  0
  -21.1650   -6.7990   23.8060 C   0  0  0  0  0  3  0  0  0  0  0  0
  -21.0430   -6.0000   24.9590 C   0  0  0  0  0  3  0  0  0  0  0  0
  -21.4110   -4.6400   24.9150 C   0  0  0  0  0  0  0  0  0  0  0  0
  -21.9070   -4.0830   23.7250 C   0  0  0  0  0  3  0  0  0  0  0  0
  -22.0330   -4.8820   22.5740 C   0  0  0  0  0  0  0  0  0  0  0  0
  -22.4910   -4.3340   21.4230 F   0  0  0  0  0  0  0  0  0  0  0  0
  -21.2860   -3.8680   26.0190 F   0  0  0  0  0  0  0  0  0  0  0  0
  -22.8280  -13.6120   21.1780 C   0  0  0  0  0  0  0  0  0  0  0  0
  -22.1100  -12.8980   22.0370 N   0  0  0  0  0  0  0  0  0  0  0  0
  -22.3840  -14.6510   20.6880 O   0  0  0  0  0  0  0  0  0  0  0  0
  -22.4810  -12.0590   22.4590 H   0  0  0  0  0  0  0  0  0  0  0  0
  -21.1760  -13.1960   22.2810 H   0  0  0  0  0  0  0  0  0  0  0  0
  -25.4430  -15.2930   20.3300 N   0  0  0  0  0  0  0  0  0  0  0  0
  -24.6840  -15.9490   20.4700 H   0  0  0  0  0  0  0  0  0  0  0  0
  -26.2840  -15.7290   19.9690 H   0  0  0  0  0  0  0  0  0  0  0  0
  -31.3040  -20.5850   18.4570 N   0  0  0  0  0  0  0  0  0  0  0  0
  -31.6950  -21.4150   18.8910 H   0  0  0  0  0  0  0  0  0  0  0  0
  -31.9350  -20.2480   17.7340 H   0  0  0  0  0  0  0  0  0  0  0  0
  -29.1760  -23.8680   20.6520 C   0  0  0  0  0  2  0  0  0  0  0  0
  -28.3310  -24.8080   18.4100 C   0  0  0  0  0  1  0  0  0  0  0  0
  -28.1200  -24.8810   19.9340 C   0  0  1  0  0  0  0  0  0  0  0  0
  -26.8680  -24.3270   20.2900 O   0  0  0  0  0  0  0  0  0  0  0  0
  -26.2590  -24.5020   19.5840 H   0  0  0  0  0  0  0  0  0  0  0  0
  -28.2390  -26.3360   20.3050 O   0  0  0  0  0  0  0  0  0  0  0  0
  -24.5830  -31.9200   23.2280 C   0  0  0  0  0  0  0  0  0  0  0  0
  -27.1590  -27.2700   20.1800 C   0  0  0  0  0  0  0  0  0  0  0  0
  -23.3760  -30.5260   21.5920 C   0  0  0  0  0  3  0  0  0  0  0  0
  -24.8200  -28.9730   20.1600 C   0  0  0  0  0  0  0  0  0  0  0  0
  -25.9260  -30.8060   21.4210 C   0  0  0  0  0  2  0  0  0  0  0  0
  -25.9950  -29.4230   20.7700 C   0  0  0  0  0  0  0  0  0  0  0  0
  -27.1630  -28.5860   20.7750 C   0  0  0  0  0  3  0  0  0  0  0  0
  -25.9670  -26.9320   19.4950 C   0  0  0  0  0  3  0  0  0  0  0  0
  -24.8140  -27.7330   19.5110 C   0  0  0  0  0  3  0  0  0  0  0  0
  -23.5900  -29.8580   20.2100 C   0  0  0  0  0  2  0  0  0  0  0  0
  -24.6480  -31.1050   22.1340 N   0  0  0  0  0  0  0  0  0  0  0  0
  -23.4980  -32.2050   23.7570 O   0  0  0  0  0  0  0  0  0  0  0  0
  -22.7050  -29.5110   22.5500 C   0  0  0  0  0  0  0  0  0  0  0  0
  -21.3800  -29.3310   22.4140 N   0  0  0  0  0  0  0  0  0  0  0  0
  -23.3790  -28.8910   23.3770 O   0  0  0  0  0  0  0  0  0  0  0  0
  -20.8970  -29.8840   21.7200 H   0  0  0  0  0  0  0  0  0  0  0  0
  -17.9980  -28.1380   22.9120 C   0  0  0  0  0  0  0  0  0  0  0  0
  -20.5570  -28.3970   23.1830 C   0  0  0  0  0  3  0  0  0  0  0  0
  -20.6580  -26.9630   22.6120 C   0  0  0  0  0  2  0  0  0  0  0  0
  -19.5570  -26.6390   21.5980 C   0  0  0  0  0  2  0  0  0  0  0  0
  -18.1740  -26.7880   22.2390 C   0  0  0  0  0  2  0  0  0  0  0  0
  -19.1180  -28.9010   23.3420 C   0  0  0  0  0  0  0  0  0  0  0  0
  -18.9010  -30.1640   23.9320 C   0  0  0  0  0  3  0  0  0  0  0  0
  -17.5970  -30.6670   24.0970 C   0  0  0  0  0  3  0  0  0  0  0  0
  -16.4910  -29.9030   23.6830 C   0  0  0  0  0  3  0  0  0  0  0  0
  -16.6930  -28.6410   23.0970 C   0  0  0  0  0  3  0  0  0  0  0  0
  -25.8650  -32.5510   23.8500 C   0  0  0  0  0  3  0  0  0  0  0  0
  -25.5610  -33.9540   24.1700 N   0  0  0  0  0  0  0  0  0  0  0  0
  -25.8930  -35.0000   23.4040 C   0  0  0  0  0  0  0  0  0  0  0  0
  -26.5590  -34.8880   22.3710 O   0  0  0  0  0  0  0  0  0  0  0  0
  -24.9680  -34.1160   24.9720 H   0  0  0  0  0  0  0  0  0  0  0  0
  -24.1810  -36.8070   23.0310 C   0  0  0  0  0  1  0  0  0  0  0  0
  -25.4120  -36.3940   23.8540 C   0  0  0  0  0  3  0  0  0  0  0  0
  -27.5390  -37.2720   24.7100 C   0  0  0  0  0  1  0  0  0  0  0  0
  -26.4530  -37.4390   23.7470 N   0  0  0  0  0  0  0  0  0  0  0  0
  -26.0530  -38.3640   23.8790 H   0  0  0  0  0  0  0  0  0  0  0  0
  -26.3700  -31.7870   25.1360 C   0  0  1  0  0  0  0  0  0  0  0  0
  -25.2680  -31.5560   26.1960 C   0  0  0  0  0  1  0  0  0  0  0  0
  -26.9530  -30.4050   24.7620 C   0  0  0  0  0  1  0  0  0  0  0  0
  -27.5160  -32.5840   25.8030 C   0  0  0  0  0  1  0  0  0  0  0  0
  1  3  2  0
  2 53  1  0
  2  1  1  0
  3  6  1  0
  3  5  1  0
  4  2  1  0
  8  7  1  0
  8  1  1  0
  9 20  1  0
  9  7  2  0
 10  8  2  0
 11 10  1  0
 11  9  1  0
 12 20  1  0
 13 18  1  0
 14 15  1  0
 14 13  1  0
 16 15  1  0
 16 25  1  0
 16 17  1  0
 18 12  1  0
 18 17  1  0
 19 12  2  0
 20 21  1  0
 22 23  2  0
 23 42  1  0
 24 23  1  0
 24 27  1  0
 25 26  1  0
 25 22  1  0
 26 24  2  0
 27 28  1  0
 28 29  2  0
 30 33  1  0
 30 29  1  0
 31 30  2  0
 32 31  1  0
 32 27  2  0
 33 34  1  0
 34 35  1  0
 35 36  2  0
 37 36  1  0
 37 41  1  0
 38 37  2  0
 39 34  2  0
 39 38  1  0
 40 39  1  0
 42 43  1  0
 43 46  1  0
 43 45  1  0
 44 42  2  0
 47 48  1  0
 47 22  1  0
 49 47  1  0
 50 51  1  0
 50 10  1  0
 52 50  1  0
 55 54  1  6
 55 56  1  0
 55 58  1  0
 55 53  1  0
 57 56  1  0
 59 70  2  0
 60 58  1  0
 60 65  1  0
 61 69  1  0
 61 71  1  0
 62 68  1  0
 62 64  1  0
 63 69  1  0
 64 65  2  0
 64 63  1  0
 66 67  1  0
 66 60  2  0
 67 62  2  0
 68 61  1  0
 69 59  1  0
 71 73  2  0
 72 71  1  0
 74 72  1  0
 75 84  2  0
 75 80  1  0
 76 72  1  0
 76 80  1  0
 77 76  1  0
 78 79  1  0
 78 77  1  0
 79 75  1  0
 80 81  2  0
 81 82  1  0
 83 82  2  0
 84 83  1  0
 85 59  1  0
 85 86  1  0
 85 95  1  0
 86 89  1  0
 87 91  1  0
 87 86  1  0
 88 87  2  0
 91 90  1  0
 93 91  1  0
 93 94  1  0
 93 92  1  0
 95 98  1  1
 95 96  1  0
 97 95  1  0
M  ISO  4  12 100  20 100  55 101  58 101
M  END
>  <TORSDO>  (95) 
F 21

>  <SCORE>  (95) 
-14.149

>  <name>  (95) 
94

>  <ligand_id>  (95) 
94

>  <original_smiles>  (95) 
[H]OC(Oc1c([H])c([H])c2c(c1[H])C([H])([H])N(C(=O)C([H])(N([H])C(=O)C([H])(N([H])C([H])([H])[H])C([H])([H])[H])C(C([H])([H])[H])(C([H])([H])[H])C([H])([H])[H])C([H])(C(=O)N([H])C1([H])c3c([H])c([H])c([H])c([H])c3C([H])([H])C([H])([H])C1([H])[H])C2([H])[H])(C([H])([H])[H])C([H])([H])N([H])C(c1c(N([H])[H])sc(N([H])C(=O)N2C([H])([H])C([H])([H])C([H])([H])C([H])(n3nc(-c4c([H])c([H])c(Oc5c([H])c([H])c(F)c([H])c5F)c([H])c4[H])c(C(=O)N([H])[H])c3N([H])[H])C2([H])[H])c1[H])=[N+]([H])[H]

>  <smiles>  (95) 
[H]OC(Oc1c([H])c([H])c2c(c1[H])C([H])([H])N(C(=O)C([H])(N([H])C(=O)C([H])(N([H])C([H])([H])[H])C([H])([H])[H])C(C([H])([H])[H])(C([H])([H])[H])C([H])([H])[H])C([H])(C(=O)N([H])C1([H])c3c([H])c([H])c([H])c([H])c3C([H])([H])C([H])([H])C1([H])[H])C2([H])[H])(C([H])([H])[H])C([H])([H])N([H])C(c1c(N([H])[H])sc(N([H])C(=O)N2C([H])([H])C([H])([H])C([H])([H])C([H])(n3nc(-c4c([H])c([H])c(Oc5c([H])c([H])c(F)c([H])c5F)c([H])c4[H])c(C(=O)N([H])[H])c3N([H])[H])C2([H])[H])c1[H])=[N+]([H])[H]

$$$$
